#------------------------------------------------------------------------------
#$Date: 2019-11-24 01:23:06 +0200 (Sun, 24 Nov 2019) $
#$Revision: 235974 $
#$URL: file:///home/coder/svn-repositories/cod/cif/1/55/37/1553750.cif $
#------------------------------------------------------------------------------
#
# This file is available in the Crystallography Open Database (COD),
# http://www.crystallography.net/
#
# All data on this site have been placed in the public domain by the
# contributors.
#
data_1553750
loop_
_publ_author_name
'Guo, Jing'
'Lin, Zi-Hui'
'Chen, Kai-Bin'
'Xie, Ying'
'Chan, Albert S. C.'
'Weng, Jiang'
'Lu, Gui'
_publ_section_title
;
 Asymmetric amination of 2-substituted indolin-3-ones catalyzed by natural
 cinchona alkaloids
;
_journal_issue                   7
_journal_name_full               'Organic Chemistry Frontiers'
_journal_page_first              1400
_journal_paper_doi               10.1039/C7QO00129K
_journal_volume                  4
_journal_year                    2017
_chemical_absolute_configuration unk
_chemical_formula_moiety         'C26 H31 N3 O6'
_chemical_formula_sum            'C26 H31 N3 O6'
_chemical_formula_weight         481.55
_space_group_crystal_system      triclinic
_space_group_IT_number           1
_space_group_name_Hall           'P 1'
_space_group_name_H-M_alt        'P 1'
_symmetry_Int_Tables_number      1
_atom_sites_solution_primary     direct
_audit_creation_date             2016-12-27
_audit_creation_method
;
Olex2 1.2
(compiled 2016.11.30 svn.r3356 for OlexSys, GUI svn.r5269)
;
_audit_update_record
;
2016-12-27 deposited with the CCDC.
2017-04-18 downloaded from the CCDC.
;
_cell_angle_alpha                109.875(3)
_cell_angle_beta                 108.593(3)
_cell_angle_gamma                107.103(3)
_cell_formula_units_Z            1
_cell_length_a                   9.0047(3)
_cell_length_b                   9.2247(3)
_cell_length_c                   9.4826(3)
_cell_measurement_reflns_used    18387
_cell_measurement_temperature    100
_cell_measurement_theta_max      72.2790
_cell_measurement_theta_min      5.6930
_cell_volume                     626.45(5)
_computing_cell_refinement       'CrysAlisPro 1.171.38.41 (Rigaku OD, 2015)'
_computing_data_collection       'CrysAlisPro 1.171.38.41 (Rigaku OD, 2015)'
_computing_data_reduction        'CrysAlisPro 1.171.38.41 (Rigaku OD, 2015)'
_computing_molecular_graphics    'Olex2 (Dolomanov et al., 2009)'
_computing_publication_material  'Olex2 (Dolomanov et al., 2009)'
_computing_structure_refinement  'olex2.refine (Bourhis et al., 2015)'
_computing_structure_solution    'XS (Sheldrick, 2008)'
_diffrn_ambient_temperature      100
_diffrn_detector                 'CCD plate'
_diffrn_detector_area_resol_mean 8.2417
_diffrn_detector_type            Onyx
_diffrn_measured_fraction_theta_full 0.9929
_diffrn_measured_fraction_theta_max 0.9915
_diffrn_measurement_details
;
List of Runs (angles in degrees, time in seconds):

  # Type    Start    End  Width  t~exp~   \w     \q     \k     \f   Frames
#--------------------------------------------------------------------------
  1  \w   -126.00 -79.00   1.00    3.00    --  -44.40 -99.00   0.00   47
  2  \w   -126.00 -79.00   1.00    3.00    --  -44.40 -99.00 -60.00   47
  3  \w   -118.00 -73.00   1.00    3.00    --  -44.40-125.00   0.00   45
  4  \w   -118.00 -73.00   1.00    3.00    --  -44.40-125.00 120.00   45
  5  \w     73.00 118.00   1.00    3.00    --   44.40 125.00-150.00   45
  6  \w     19.00 114.00   1.00    3.00    --   44.40  57.00  30.00   95
  7  \w     19.00 114.00   1.00    3.00    --   44.40  57.00 120.00   95
  8  \w   -164.00 -58.00   1.00    5.00    --  -90.00 -77.00  60.00  106
  9  \w   -160.00 -63.00   1.00    5.00    --  -90.00 -61.00  60.00   97
 10  \w   -160.00 -63.00   1.00    5.00    --  -90.00 -61.00  90.00   97
 11  \w   -173.00 -80.00   1.00    5.00    --  -90.00 -94.00 -60.00   93
 12  \w   -160.00 -66.00   1.00    5.00    --  -90.00 -51.00  62.15   94
 13  \w     26.00 121.00   1.00    5.00    --  100.00-125.00 -30.00   95
 14  \w     29.00 124.00   1.00    5.00    --  100.00 -45.00 150.00   95
 15  \w     29.00 124.00   1.00    5.00    --  100.00 -45.00  60.00   95
 16  \w     68.00 174.00   1.00    5.00    --  100.00  77.00   0.00  106
 17  \w     68.00 174.00   1.00    5.00    --  100.00  77.00  30.00  106
 18  \w     21.00 139.00   1.00    5.00    --  100.00 -15.00  60.00  118
 19  \w     26.00 121.00   1.00    5.00    --  100.00-125.00 -60.00   95
 20  \w     68.00 174.00   1.00    5.00    --  100.00  77.00  90.00  106
 21  \w     30.00 127.00   1.00    5.00    --  100.00 -61.00  30.00   97
 22  \w     68.00 174.00   1.00    5.00    --  100.00  77.00  60.00  106
 23  \w     73.00 170.00   1.00    5.00    --  100.00  61.00  90.00   97
 24  \w     76.00 171.00   1.00    5.00    --  100.00  41.00 -36.00   95
 25  \w     76.00 171.00   1.00    5.00    --  100.00  45.00   0.00   95
 26  \w     73.00 174.00   1.00    5.00    --  100.00 125.00 150.00  101
 27  \w     73.00 174.00   1.00    5.00    --  100.00 125.00-180.00  101
 28  \w     73.00 174.00   1.00    5.00    --  100.00 125.00  60.00  101
 29  \w     30.00  56.00   1.00    5.00    --  100.00 -45.00   0.00   26
 30  \w     95.00 122.00   1.00    5.00    --  100.00  45.00  60.00   27
 31  \w     70.00  96.00   1.00    5.00    --  100.00  77.00 120.00   26
 32  \w    123.00 150.00   1.00    5.00    --  100.00  61.00 -60.00   27
 33  \w      7.00  32.00   1.00    3.00    --   42.00  89.00  44.78   25
 34  \w     22.00  49.00   1.00    3.00    --   44.40  40.00 -39.00   27
 35  \w     21.00  48.00   1.00    3.00    --   44.40  57.00-150.00   27
 36  \w     26.00  98.00   1.00    3.00    --   44.40-125.00 -90.00   72
 37  \w     26.00  53.00   1.00    3.00    --   44.40  37.00 120.00   27
 38  \w     13.00  38.00   1.00    3.00    --   46.00  82.00 -91.78   25
 39  \w     17.00  42.00   1.00    3.00    --   50.00  82.00 158.77   25
 40  \w     22.00  47.00   1.00    3.00    --   54.00  78.00 -25.99   25
 41  \w     22.00  47.00   1.00    3.00    --   54.00  78.00 104.26   25
 42  \w     36.00  62.00   1.00    3.00    --   62.00  75.00 159.72   26
 43  \w     37.00  63.00   1.00    3.00    --   62.00  75.00-109.23   26
 44  \w     31.00  63.00   1.00    3.00    --   62.00  75.00-157.17   32
 45  \w     36.00  62.00   1.00    3.00    --   62.00  75.00 -15.42   26
 46  \w     31.00  57.00   1.00    3.00    --   62.00  76.00  49.39   26
 47  \w     84.00 135.00   1.00    3.00    --   62.00  75.00 159.72   51
 48  \w    109.00 135.00   1.00    3.00    --   62.00  75.00-157.17   26
 49  \w     96.00 122.00   1.00    3.00    --   66.00  77.00 108.59   26
 50  \w     40.00  66.00   1.00    3.00    --   66.00  77.00 108.59   26
 51  \w     34.00  60.00   1.00    3.00    --   66.00  77.00  -2.46   26
 52  \w     40.00  67.00   1.00    3.00    --   70.00  76.00 -86.71   27
 53  \w    118.00 144.00   1.00    5.00    --   74.00  76.00-149.34   26
 54  \w     44.00  70.00   1.00    5.00    --   74.00  76.00-149.34   26
 55  \w     43.00  69.00   1.00    5.00    --   74.00  75.00  60.18   26
 56  \w    -87.00 -61.00   1.00    5.00    --  -90.00 -71.00 -91.95   26
 57  \w    -84.00 -58.00   1.00    5.00    --  -90.00 -77.00-120.00   26
 58  \w    -84.00 -58.00   1.00    5.00    --  -90.00 -77.00   0.00   26
 59  \w    -87.00 -61.00   1.00    5.00    --  -90.00 -75.00-100.77   26
 60  \w    -86.00 -60.00   1.00    5.00    --  -90.00 -72.00  36.58   26
 61  \w    -84.00 -58.00   1.00    5.00    --  -90.00 -77.00  90.00   26
 62  \w    -86.00 -60.00   1.00    5.00    --  -90.00 -76.00 139.48   26
 63  \w    -88.00 -62.00   1.00    5.00    --  -90.00 -73.00-166.18   26
 64  \w    -87.00 -61.00   1.00    5.00    --  -90.00 -70.00  62.16   26
 65  \w    -88.00 -62.00   1.00    5.00    --  -90.00 -67.00 -34.27   26
 66  \w    -83.00 -58.00   1.00    5.00    --  -90.00 -77.00 -60.00   25
 67  \w    -86.00 -60.00   1.00    5.00    --  -90.00 -76.00 131.47   26
 68  \w    -89.00 -63.00   1.00    5.00    --  -90.00 -61.00  -3.60   26
 69  \w    -83.00 -58.00   1.00    5.00    --  -90.00 -77.00-150.00   25
 70  \w    -83.00 -58.00   1.00    5.00    --  -90.00 -77.00 165.49   25
 71  \w     68.00  99.00   1.00    5.00    --  100.00  77.00 120.00   31
 72  \w     73.00  99.00   1.00    5.00    --  100.00  61.00 -30.00   26
 73  \w    109.00 139.00   1.00    5.00    --  100.00  45.00-180.00   30
 74  \w     74.00 100.00   1.00    5.00    --  100.00 -94.00-120.00   26
 75  \w     89.00 115.00   1.00    5.00    --  100.00-125.00-150.00   26
 76  \w     62.00  88.00   1.00    5.00    --  100.00-125.00  60.00   26
 77  \w     33.00  59.00   1.00    5.00    --  100.00-125.00  60.00   26
 78  \w     38.00  67.00   1.00    5.00    --  100.00 -94.00   0.00   29
 79  \w     79.00 108.00   1.00    5.00    --  100.00  77.00-150.00   29
 80  \w     81.00 132.00   1.00    5.00    --  100.00  61.00   0.00   51
 81  \w     65.00  91.00   1.00    5.00    --  100.00 -61.00 -90.00   26
 82  \w     32.00  58.00   1.00    5.00    --  100.00 -61.00 -90.00   26
 83  \w     98.00 149.00   1.00    5.00    --  100.00  77.00-120.00   51
 84  \w     68.00  94.00   1.00    5.00    --  100.00  77.00-120.00   26
 85  \w     72.00 103.00   1.00    5.00    --  100.00 -94.00   0.00   31
 86  \w     70.00 104.00   1.00    5.00    --  100.00-125.00   0.00   34
 87  \w     41.00  67.00   1.00    5.00    --  100.00-125.00   0.00   26
 88  \w     58.00 104.00   1.00    5.00    --  100.00 -94.00-180.00   46
 89  \w     92.00 117.00   1.00    5.00    --  100.00-125.00 120.00   25
 90  \w     77.00 106.00   1.00    5.00    --  100.00  45.00-180.00   29
 91  \w     28.00  54.00   1.00    5.00    --  100.00-125.00 120.00   26
 92  \w     99.00 125.00   1.00    5.00    --  100.00  77.00 -90.00   26
 93  \w     68.00  96.00   1.00    5.00    --  100.00  77.00 -90.00   28
 94  \w    115.00 152.00   1.00    5.00    --  100.00  77.00 120.00   37
 95  \w     69.00 102.00   1.00    5.00    --  100.00  77.00-180.00   33
 96  \w    105.00 134.00   1.00    5.00    --  100.00 125.00 120.00   29
 97  \w      7.00  33.00   1.00    3.00    --   42.00  89.00  44.78   26
 98  \w   -118.00 -73.00   1.00    3.00    --  -44.40-125.00 -60.00   45
 99  \w      2.00  98.00   1.00    3.00    --   44.40-125.00   0.00   96
100  \w     17.00  45.00   1.00    3.00    --   50.00  82.00 158.77   28
101  \w     17.00  45.00   1.00    3.00    --   50.00  82.00 117.02   28
102  \w     17.00  46.00   1.00    3.00    --   50.00  81.00  37.67   29
103  \w     18.00  46.00   1.00    3.00    --   50.00  80.00-127.11   28
104  \w     22.00  49.00   1.00    3.00    --   54.00  78.00 -25.99   27
105  \w     27.00 131.00   1.00    3.00    --   58.00  75.00 -79.72  104
106  \w     31.00 136.00   1.00    3.00    --   62.00  76.00  49.39  105
107  \w     31.00 135.00   1.00    3.00    --   62.00  75.00 -15.42  104
108  \w     34.00 140.00   1.00    3.00    --   66.00  77.00 108.59  106
109  \w     39.00 104.00   1.00    3.00    --   70.00  76.00 -86.71   65
110  \w    135.00 162.00   1.00    5.00    --  100.00  61.00-180.00   27
111  \w    106.00 132.00   1.00    5.00    --  100.00  61.00-150.00   26
112  \w    102.00 128.00   1.00    5.00    --  100.00  61.00 -90.00   26
113  \w     54.00  80.00   1.00    5.00    --  100.00 -94.00  90.00   26
114  \w    129.00 155.00   1.00    5.00    --  100.00  55.00 132.00   26
115  \w     75.00 101.00   1.00    5.00    --  100.00  61.00-180.00   26
;
_diffrn_measurement_device       'four-circle diffractometer'
_diffrn_measurement_device_type  'Xcalibur, Onyx, Nova'
_diffrn_measurement_method       '\w scans'
_diffrn_orient_matrix_type
'CrysAlisPro convention (1999,Acta A55,543-557)'
_diffrn_orient_matrix_UB_11      -0.1227838000
_diffrn_orient_matrix_UB_12      -0.1120657000
_diffrn_orient_matrix_UB_13      0.0436672000
_diffrn_orient_matrix_UB_21      0.1482329000
_diffrn_orient_matrix_UB_22      -0.0374569000
_diffrn_orient_matrix_UB_23      0.0898614000
_diffrn_orient_matrix_UB_31      0.0622785000
_diffrn_orient_matrix_UB_32      0.1601575000
_diffrn_orient_matrix_UB_33      0.1677448000
_diffrn_radiation_monochromator  mirror
_diffrn_radiation_probe          x-ray
_diffrn_radiation_type           'Cu K\a'
_diffrn_radiation_wavelength     1.54184
_diffrn_reflns_av_R_equivalents  0.0757
_diffrn_reflns_av_unetI/netI     0.0363
_diffrn_reflns_limit_h_max       11
_diffrn_reflns_limit_h_min       -11
_diffrn_reflns_limit_k_max       11
_diffrn_reflns_limit_k_min       -11
_diffrn_reflns_limit_l_max       11
_diffrn_reflns_limit_l_min       -11
_diffrn_reflns_number            24247
_diffrn_reflns_theta_full        72.3189
_diffrn_reflns_theta_max         72.32
_diffrn_reflns_theta_min         5.72
_diffrn_source                   'micro-focus sealed X-ray tube'
_diffrn_source_type              'Nova (Cu) X-ray Source'
_exptl_absorpt_coefficient_mu    0.750
_exptl_absorpt_correction_T_max  1.00000
_exptl_absorpt_correction_T_min  0.63650
_exptl_absorpt_correction_type   multi-scan
_exptl_absorpt_process_details
;
CrysAlisPro 1.171.38.41 (Rigaku Oxford Diffraction, 2015)
Empirical absorption correction using spherical harmonics,
 implemented in SCALE3 ABSPACK scaling algorithm.
;
_exptl_crystal_colour            colourless
_exptl_crystal_colour_primary    colourless
_exptl_crystal_density_diffrn    1.2764
_exptl_crystal_description       block
_exptl_crystal_F_000             256.8698
_exptl_crystal_size_max          0.3
_exptl_crystal_size_mid          0.2
_exptl_crystal_size_min          0.1
_refine_diff_density_max         0.1923
_refine_diff_density_min         -0.1768
_refine_diff_density_rms         0.0376
_refine_ls_abs_structure_details
'Flack, H. D. (1983). Acta Cryst. A39, 876-881.'
_refine_ls_abs_structure_Flack   0.10(13)
_refine_ls_d_res_high            0.8091
_refine_ls_d_res_low             7.7405
_refine_ls_goodness_of_fit_ref   1.0608
_refine_ls_hydrogen_treatment    constr
_refine_ls_matrix_type           full
_refine_ls_number_constraints    48
_refine_ls_number_parameters     322
_refine_ls_number_reflns         4674
_refine_ls_number_restraints     0
_refine_ls_restrained_S_all      1.0608
_refine_ls_R_factor_all          0.0421
_refine_ls_R_factor_gt           0.0417
_refine_ls_shift/su_max          0.0005
_refine_ls_shift/su_mean         0.0002
_refine_ls_structure_factor_coef Fsqd
_refine_ls_weighting_details
'w=1/[\s^2^(Fo^2^)+(0.0876P)^2^+0.0895P] where P=(Fo^2^+2Fc^2^)/3'
_refine_ls_weighting_scheme      calc
_refine_ls_wR_factor_gt          0.1210
_refine_ls_wR_factor_ref         0.1220
_reflns_Friedel_coverage         0.895
_reflns_limit_h_max              11
_reflns_limit_h_min              -11
_reflns_limit_k_max              11
_reflns_limit_k_min              -11
_reflns_limit_l_max              11
_reflns_limit_l_min              -11
_reflns_number_gt                4625
_reflns_number_total             4674
_reflns_threshold_expression     I>=2u(I)
_iucr_refine_instructions_details
;
TITL gj_160918 in P1 #1
REM reset to P1 #1
CELL 1.54184 9.0047 9.2247 9.4826 109.8747 108.5934 107.1031
ZERR 1 0.0003 0.0003 0.0003 0.0027 0.0026 0.0029
LATT -1
SFAC C H N O
UNIT 26 31 3 6

L.S. 4
PLAN  20
SIZE 0.3 0.2 0.1
TEMP -173.15
BOND $h
htab 
conf 
FMAP 2
ACTA 
WGHT 0.08763 0.089547
FVAR 18.056956
REM <olex2.extras>
REM <HklSrc "%.\\gj_160918.hkl">
REM </olex2.extras>

O1    4     0.52403  0.81344  0.22993  11.00000  0.02577  0.02714  0.02777 =
 0.01100  0.00486  0.00741 
O2    4     0.10150  0.80441  0.07046  11.00000  0.02170  0.02617  0.03378 =
 0.01055  0.01316  0.00641 
O3    4     0.44173  1.20499 -0.01670  11.00000  0.02461  0.03454  0.04017 =
 0.02220  0.01175  0.01316 
O4    4     0.71810  1.29929  0.18910  11.00000  0.02269  0.02631  0.03206 =
 0.01525  0.00832  0.00406 
O5    4     0.03670  0.74710 -0.29112  11.00000  0.02383  0.04203  0.03282 =
 0.01840  0.00874  0.01438 
O6    4     0.29978  1.08811  0.24819  11.00000  0.02858  0.02446  0.03212 =
 0.00987  0.01568  0.00789 
N7    3     0.50942  1.05613  0.12223  11.00000  0.01695  0.02370  0.02771 =
 0.01092  0.00592  0.00542 
AFIX 43
H7    2     0.59407  1.05281  0.19765  11.00000 -1.20000 
AFIX 0
N8    3     0.34029  0.92583  0.04084  11.00000  0.01814  0.02327  0.02760 =
 0.01086  0.00932  0.00648 
N9    3     0.29558  0.62659 -0.03113  11.00000  0.01938  0.02321  0.02472 =
 0.01010  0.00870  0.00654 
C10   1     0.23440  0.93092  0.11998  11.00000  0.02280  0.02510  0.02642 =
 0.01170  0.00921  0.01032 
C11   1     0.14898  0.46632 -0.15822  11.00000  0.02085  0.02477  0.02425 =
 0.00666  0.01133  0.00433 
C12   1     0.29798  0.75900 -0.08912  11.00000  0.01883  0.02501  0.02377 =
 0.01107  0.00687  0.00771 
C13   1    -0.03741  0.16386 -0.31881  11.00000  0.04013  0.02554  0.03419 =
 0.00552  0.02066  0.00049 
AFIX 43
H13   2    -0.06082  0.04963 -0.33800  11.00000 -1.20000 
AFIX 0
C14   1     0.12094  0.30038 -0.18365  11.00000  0.03013  0.02734  0.03401 =
 0.01010  0.01796  0.00761 
AFIX 43
H14   2     0.20576  0.28138 -0.11222  11.00000 -1.20000 
AFIX 0
C15   1     0.39870  0.67020  0.13326  11.00000  0.02152  0.02625  0.02594 =
 0.01147  0.00866  0.00972 
C16   1     0.02926  0.49049 -0.27238  11.00000  0.02148  0.03156  0.02358 =
 0.00881  0.00975  0.00496 
C17   1     0.35221  0.53798  0.19176  11.00000  0.03026  0.03053  0.03125 =
 0.01564  0.01196  0.01042 
AFIX 137
H17a  2     0.40039  0.45749  0.15749  11.00000 -1.50000 
H17b  2     0.40185  0.59658  0.31546  11.00000 -1.50000 
H17c  2     0.22420  0.47402  0.14030  11.00000 -1.50000 
AFIX 0
C18   1    -0.12829  0.35302 -0.40611  11.00000  0.02453  0.04430  0.02688 =
 0.01266  0.00947  0.00188 
AFIX 43
H18   2    -0.21044  0.37114 -0.48146  11.00000 -1.20000 
AFIX 0
C19   1     0.54650  1.18951  0.08705  11.00000  0.02339  0.02421  0.02830 =
 0.01221  0.01297  0.01124 
C20   1     0.55135  0.72438 -0.13208  11.00000  0.02339  0.03642  0.03210 =
 0.01623  0.01182  0.01246 
AFIX 43
H20   2     0.56583  0.68016 -0.05426  11.00000 -1.20000 
AFIX 0
C21   1     0.66237  0.73725 -0.20609  11.00000  0.02146  0.04036  0.03913 =
 0.01553  0.01302  0.01099 
AFIX 43
H21   2     0.75223  0.70229 -0.17869  11.00000 -1.20000 
AFIX 0
C22   1     0.99687  1.51918  0.29578  11.00000  0.02455  0.02800  0.04441 =
 0.01725  0.01421  0.00717 
AFIX 137
H22a  2     0.99692  1.57299  0.40447  11.00000 -1.50000 
H22b  2     1.04025  1.43306  0.29346  11.00000 -1.50000 
H22c  2     1.07327  1.60792  0.28192  11.00000 -1.50000 
AFIX 0
C23   1     0.40097  0.84270 -0.28255  11.00000  0.03020  0.03560  0.03246 =
 0.01748  0.01538  0.01413 
AFIX 43
H23   2     0.31354  0.88101 -0.30754  11.00000 -1.20000 
AFIX 0
C24   1    -0.16227  0.18797 -0.42648  11.00000  0.03178  0.03586  0.02754 =
 0.00550  0.01125 -0.00599 
AFIX 43
H24   2    -0.27082  0.09194 -0.51399  11.00000 -1.20000 
AFIX 0
C25   1     0.51119  0.85360 -0.35782  11.00000  0.03996  0.04048  0.03586 =
 0.02162  0.02166  0.01569 
AFIX 43
H25   2     0.49694  0.89741 -0.43597  11.00000 -1.20000 
AFIX 0
C26   1     0.10250  0.67316 -0.22956  11.00000  0.01727  0.03449  0.02447 =
 0.01140  0.00849  0.00869 
C27   1     0.41991  0.77535 -0.17061  11.00000  0.01876  0.02270  0.02424 =
 0.00725  0.00690  0.00400 
C28   1     0.21245  1.02145  0.44639  11.00000  0.06185  0.03732  0.04414 =
 0.02370  0.03170  0.02642 
AFIX 137
H28a  2     0.14245  0.89776  0.36575  11.00000 -1.50000 
H28b  2     0.33417  1.04586  0.51102  11.00000 -1.50000 
H28c  2     0.16391  1.05457  0.52426  11.00000 -1.50000 
AFIX 0
C29   1     0.81126  1.43178  0.15252  11.00000  0.02271  0.02949  0.04275 =
 0.02135  0.01705  0.00972 
C30   1     0.20751  1.12357  0.35096  11.00000  0.03269  0.02580  0.03100 =
 0.01157  0.01768  0.01311 
C31   1     0.64100  0.80119 -0.31967  11.00000  0.02795  0.03371  0.03538 =
 0.01020  0.01834  0.00611 
AFIX 43
H31   2     0.71548  0.80912 -0.37150  11.00000 -1.20000 
AFIX 0
C32   1     0.02235  1.08479  0.23916  11.00000  0.03508  0.03989  0.04639 =
 0.01546  0.01828  0.02192 
AFIX 137
H32a  2     0.02443  1.13332  0.16213  11.00000 -1.50000 
H32b  2    -0.05110  0.95944  0.17298  11.00000 -1.50000 
H32c  2    -0.02603  1.13652  0.31006  11.00000 -1.50000 
AFIX 0
C33   1     0.80292  1.34099 -0.01798  11.00000  0.03396  0.06867  0.03894 =
 0.02455  0.01838  0.00867 
AFIX 137
H33a  2     0.84635  1.25507 -0.01917  11.00000 -1.50000 
H33b  2     0.68110  1.28326 -0.10712  11.00000 -1.50000 
H33c  2     0.87590  1.42581 -0.03818  11.00000 -1.50000 
AFIX 0
C34   1     0.31971  1.31559  0.47202  11.00000  0.04425  0.02858  0.04091 =
 0.01304  0.02228  0.01357 
AFIX 137
H34a  2     0.44145  1.33847  0.53403  11.00000 -1.50000 
H34b  2     0.31504  1.37931  0.40775  11.00000 -1.50000 
H34c  2     0.27513  1.35303  0.55249  11.00000 -1.50000 
AFIX 0
C35   1     0.73880  1.56015  0.16196  11.00000  0.02891  0.03946  0.09841 =
 0.04161  0.02666  0.01546 
AFIX 137
H35a  2     0.62198  1.50467  0.06501  11.00000 -1.50000 
H35b  2     0.73009  1.60163  0.26744  11.00000 -1.50000 
H35c  2     0.81706  1.65791  0.15960  11.00000 -1.50000 
AFIX 0
HKLF 4

END
Q1 1 0.740741 1.366667 0.166667 11 0.05 0.19
Q2 1 0.777778 1.5 0.166667 11 0.05 0.17
Q3 1 0.481481 1.133333 -0.033333 11 0.05 0.17
Q4 1 0 0.233333 -0.233333 11 0.05 0.16
Q5 1 0.888889 1.466667 0.2 11 0.05 0.15
Q6 1 -0.185185 0.266667 -0.4 11 0.05 0.15
Q7 1 -0.111111 0.2 -0.333333 11 0.05 0.15
Q8 1 0.555556 1.133333 0.1 11 0.05 0.14
Q9 1 0.592593 1.4 -0.033333 11 0.05 0.13
Q10 1 -0.185185 0.066667 -0.333333 11 0.05 0.12
Q11 1 0.444444 0.866667 -0.166667 11 0.05 0.12
Q12 1 0.518519 0.9 -0.266667 11 0.05 0.12
Q13 1 0.37037 0.733333 -0.266667 11 0.05 0.12
Q14 1 0.62963 1.5 0.133333 11 0.05 0.12
Q15 1 0.37037 0.6 0.166667 11 0.05 0.12
Q16 1 0.333333 0.666667 0.066667 11 0.05 0.12
Q17 1 0.777778 1.6 0.3 11 0.05 0.11
Q18 1 0.518519 0.8 0.133333 11 0.05 0.11
Q19 1 0.666667 1.233333 0.1 11 0.05 0.11
Q20 1 0.888889 1.5 0 11 0.05 0.11

  REM The information below was added by Olex2.
  REM
  REM R1 = 0.0417 for 4625 Fo > 4sig(Fo) and 0.0421 for all 4674 data
  REM 322 parameters refined using 0 restraints
  REM Highest difference peak 0.1923, deepest hole -0.1768
  REM Mean Shift 0.0002, Max Shift 0.0005.

  REM +++ Tabular Listing of Refinement Information +++
  REM R1_all = 0.0421
  REM R1_gt = 0.0417
  REM wR_ref = 0.1220
  REM GOOF = 1.0608
  REM Shift_max = 0.0005
  REM Shift_mean = 0.0002
  REM Reflections_all = 4674
  REM Reflections_gt = 4625
  REM Parameters = 322
  REM Hole = -0.1768
  REM Peak = 0.1923
  REM Flack = 0.10(13)

  
;
_cod_data_source_file            c7qo00129k2.cif
_cod_data_source_block           gj_160918
_cod_original_sg_symbol_Hall     ' P 1'
_cod_database_code               1553750
_reflns_odcompleteness_completeness 99.29
_reflns_odcompleteness_iscentric 1
_reflns_odcompleteness_theta     71.98
_olex2_refinement_description
;
1. Fixed Uiso
 At 1.2 times of:
  All C(H) groups, All N(H) groups
 At 1.5 times of:
  All C(H,H,H) groups
2.a Aromatic/amide H refined with riding coordinates:
 C18(H18), C24(H24), C13(H13), C14(H14), C23(H23), C25(H25), C31(H31),
 C21(H21), C20(H20), N7(H7)
2.b Idealised Me refined as rotating group:
 C17(H17a,H17b,H17c), C22(H22a,H22b,H22c), C28(H28a,H28b,H28c), C32(H32a,H32b,
 H32c), C33(H33a,H33b,H33c), C34(H34a,H34b,H34c), C35(H35a,H35b,H35c)
;
_iucr_refine_fcf_details
;
data_gj_160918
_computing_structure_refinement   'olex2.refine (Bourhis et al., 2015)'
_shelx_refln_list_code            4
loop_
  _space_group_symop_id
  _space_group_symop_operation_xyz
  1  x,y,z

_space_group_crystal_system       triclinic
_space_group_IT_number            1
_space_group_name_H-M_alt         'P 1'
_space_group_name_Hall            ' P 1'
_symmetry_space_group_name_H-M    'P 1'
_symmetry_space_group_name_Hall   ' P 1'
_symmetry_Int_Tables_number       1
_cell_length_a                    9.0047(3)
_cell_length_b                    9.2247(3)
_cell_length_c                    9.4826(3)
_cell_angle_alpha                 109.875(3)
_cell_angle_beta                  108.593(3)
_cell_angle_gamma                 107.103(3)
_cell_volume                      626.45(5)
loop_
  _refln_index_h
  _refln_index_k
  _refln_index_l
  _refln_F_squared_calc
  _refln_F_squared_meas
  _refln_F_squared_sigma
  _refln_F_squared_weight
  _refln_observed_status
-11 2 4 16.299 13.403 0.880 19.038 o
-11 3 3 1.823 1.598 0.228 324.375 o
-11 3 4 21.108 19.995 0.677 13.399 o
-11 3 5 7.114 7.797 0.498 57.039 o
-11 4 3 24.630 24.457 0.733 10.206 o
-11 4 4 0.660 0.486 0.106 1106.430 o
-10 -1 3 4.936 4.177 0.337 107.308 o
-10 -1 4 3.774 3.153 0.316 145.593 o
-10 -1 5 9.700 10.413 0.589 37.731 o
-10 -1 6 7.077 6.170 0.456 64.522 o
-10 -1 7 3.390 3.776 0.342 142.759 o
-10 0 2 8.451 8.439 0.717 41.373 o
-10 0 3 12.782 12.989 0.970 22.404 o
-10 0 4 3.568 3.080 0.348 146.065 o
-10 0 5 10.691 10.257 0.814 30.589 o
-10 0 6 53.524 53.136 2.764 2.194 o
-10 0 7 10.025 11.506 0.942 28.102 o
-10 0 8 1.010 0.557 0.203 608.124 o
-10 1 1 0.643 1.149 0.275 491.373 o
-10 1 2 48.487 47.020 2.535 2.649 o
-10 1 3 45.183 43.628 1.114 3.661 o
-10 1 4 7.768 8.027 0.424 55.477 o
-10 1 5 9.104 9.054 0.456 45.464 o
-10 1 6 44.659 50.110 1.315 3.348 o
-10 1 7 21.078 22.096 0.955 11.848 o
-10 1 8 8.753 9.159 0.776 37.554 o
-10 2 0 6.975 5.486 0.587 60.344 o
-10 2 1 17.394 16.964 0.546 18.235 o
-10 2 2 16.931 16.842 0.597 18.523 o
-10 2 3 31.309 32.125 1.011 6.540 o
-10 2 4 14.526 15.368 0.532 22.861 o
-10 2 5 6.016 7.698 0.432 67.964 o
-10 2 6 3.862 5.026 0.401 110.657 o
-10 2 7 44.107 46.543 1.353 3.526 o
-10 3 0 43.293 44.751 1.423 3.642 o
-10 3 1 18.461 20.811 0.779 14.548 o
-10 3 2 41.261 38.442 1.125 4.335 o
-10 3 3 2.958 3.154 0.339 165.060 o
-10 3 4 32.071 34.215 1.735 5.300 o
-10 3 5 8.781 9.932 0.512 43.564 o
-10 3 6 29.426 28.174 2.014 5.739 o
-10 3 7 35.345 39.751 3.548 2.862 o
-10 4 -1 1.247 1.511 0.180 454.398 o
-10 4 0 22.014 23.262 0.797 11.567 o
-10 4 1 65.961 61.874 5.756 1.061 o
-10 4 2 5.534 6.202 0.353 84.124 o
-10 4 3 10.423 10.597 0.595 35.225 o
-10 4 4 29.888 33.819 2.076 5.164 o
-10 4 5 48.138 56.413 2.268 2.543 o
-10 4 6 8.190 8.600 0.639 44.647 o
-10 4 7 5.707 5.581 0.577 69.256 o
-10 5 -1 15.851 17.139 0.614 19.445 o
-10 5 0 55.349 53.042 4.098 1.689 o
-10 5 1 0.020 0.080 0.045 13522.100 o
-10 5 2 44.270 52.233 2.330 2.836 o
-10 5 3 52.582 59.234 2.229 2.285 o
-10 5 4 1.220 1.279 0.127 541.621 o
-10 5 5 10.226 10.383 0.551 36.990 o
-10 5 6 0.455 0.590 0.132 1171.690 o
-10 6 -1 0.332 0.293 0.075 2153.510 o
-10 6 0 6.303 6.405 0.308 77.535 o
-10 6 1 12.731 14.399 0.604 25.864 o
-10 6 2 0.909 1.447 0.134 604.606 o
-10 6 3 21.177 25.822 0.555 11.931 o
-10 6 4 3.837 5.125 0.275 126.018 o
-10 6 5 22.636 23.231 1.218 9.992 o
-10 7 0 4.603 4.155 0.300 117.431 o
-10 7 1 3.720 4.020 0.265 143.560 o
-10 7 2 22.752 28.115 0.718 10.258 o
-10 7 3 18.461 21.653 0.599 14.948 o
-9 -3 4 9.106 9.509 0.529 42.692 o
-9 -3 5 22.851 22.596 0.867 11.116 o
-9 -3 6 0.277 0.263 0.069 2529.250 o
-9 -3 7 36.615 35.055 0.878 5.373 o
-9 -3 8 19.130 18.453 1.055 13.562 o
-9 -2 2 43.520 48.979 1.470 3.420 o
-9 -2 3 3.037 2.871 0.329 169.639 o
-9 -2 4 12.028 12.308 0.704 27.781 o
-9 -2 5 27.486 26.429 1.085 8.127 o
-9 -2 6 25.875 25.191 0.874 9.278 o
-9 -2 7 43.756 46.689 1.173 3.628 o
-9 -2 8 6.849 7.390 0.544 57.702 o
-9 -2 9 9.549 10.229 0.794 33.596 o
-9 -1 1 12.326 13.317 0.992 22.490 o
-9 -1 2 23.805 25.651 1.477 8.413 o
-9 -1 3 0.374 0.328 0.165 1246.940 o
-9 -1 4 7.638 7.594 0.595 50.760 o
-9 -1 5 14.752 15.474 0.622 21.779 o
-9 -1 6 37.133 36.056 1.726 4.519 o
-9 -1 7 3.271 3.229 0.279 166.848 o
-9 -1 8 24.694 27.243 1.136 8.763 o
-9 -1 9 2.828 3.816 0.510 121.464 o
-9 0 0 34.538 38.093 1.709 4.728 o
-9 0 1 6.391 6.452 0.521 64.833 o
-9 0 2 25.350 25.000 0.883 9.492 o
-9 0 3 45.125 43.099 1.502 3.515 o
-9 0 4 51.788 49.333 1.636 2.768 o
-9 0 5 8.100 8.459 0.422 52.511 o
-9 0 6 22.874 23.679 0.743 11.171 o
-9 0 7 5.903 6.946 0.381 74.883 o
-9 0 8 1.446 1.188 0.225 403.011 o
-9 0 9 5.816 5.803 0.671 61.214 o
-9 1 -1 37.878 35.952 1.038 4.998 o
-9 1 0 38.198 40.075 1.040 4.665 o
-9 1 1 76.972 76.005 1.548 1.384 o
-9 1 2 8.705 8.946 0.484 46.643 o
-9 1 3 28.342 29.067 0.903 7.801 o
-9 1 4 19.854 20.310 0.866 13.405 o
-9 1 5 13.832 14.977 0.660 23.093 o
-9 1 6 19.998 19.790 0.696 14.152 o
-9 1 7 4.887 4.820 0.321 104.472 o
-9 1 8 18.832 18.931 0.843 14.662 o
-9 2 -2 34.568 33.036 0.991 5.817 o
-9 2 -1 66.042 73.870 1.442 1.694 o
-9 2 0 79.854 81.507 1.654 1.263 o
-9 2 1 77.978 80.198 1.623 1.314 o
-9 2 2 1.369 1.643 0.227 378.594 o
-9 2 3 19.015 19.798 0.708 14.816 o
-9 2 4 21.901 21.578 0.798 12.071 o
-9 2 5 26.450 26.068 0.780 9.083 o
-9 2 6 47.680 50.313 1.300 3.117 o
-9 2 7 23.499 26.991 0.989 9.579 o
-9 2 8 22.244 23.962 1.090 10.412 o
-9 2 9 10.913 11.272 0.789 29.579 o
-9 3 -2 17.635 17.705 0.681 16.953 o
-9 3 -1 77.364 76.318 1.586 1.369 o
-9 3 0 14.901 15.186 0.758 20.650 o
-9 3 1 139.335 141.837 3.428 0.430 o
-9 3 2 4.480 5.178 0.295 110.738 o
-9 3 3 19.153 20.768 0.791 14.024 o
-9 3 4 20.777 21.090 0.845 12.688 o
-9 3 5 37.617 36.770 1.498 4.620 o
-9 3 6 7.447 8.332 0.514 53.094 o
-9 3 7 8.137 7.885 0.437 53.387 o
-9 3 8 2.363 2.592 0.243 232.785 o
-9 4 -3 5.161 5.086 0.321 98.310 o
-9 4 -2 37.719 40.382 1.393 4.469 o
-9 4 -1 1.740 1.990 0.222 315.922 o
-9 4 0 51.422 53.632 1.244 2.776 o
-9 4 1 21.637 23.401 0.692 12.020 o
-9 4 2 28.560 31.083 1.004 7.323 o
-9 4 3 40.131 44.491 1.590 3.854 o
-9 4 4 4.018 3.952 0.273 135.598 o
-9 4 5 2.348 2.601 0.212 244.093 o
-9 4 6 14.447 15.898 0.644 21.734 o
-9 4 7 1.397 1.565 0.247 362.609 o
-9 5 -3 15.343 15.604 0.579 21.231 o
-9 5 -2 2.965 3.110 0.260 184.835 o
-9 5 -1 4.595 5.088 0.368 102.336 o
-9 5 0 2.539 2.624 0.283 208.687 o
-9 5 1 24.049 27.614 0.847 9.567 o
-9 5 2 6.132 6.672 0.382 74.024 o
-9 5 3 5.430 5.299 0.317 93.399 o
-9 5 4 18.615 21.514 0.621 14.806 o
-9 5 5 10.548 12.028 0.510 34.451 o
-9 5 6 12.056 12.694 0.765 26.501 o
-9 5 7 1.070 0.726 0.145 662.480 o
-9 6 -3 8.363 6.500 0.313 60.139 o
-9 6 -2 7.779 7.652 0.396 57.470 o
-9 6 -1 0.945 1.011 0.147 653.007 o
-9 6 0 23.941 28.157 0.806 9.584 o
-9 6 1 9.639 10.898 0.469 39.654 o
-9 6 2 17.772 21.179 0.614 15.631 o
-9 6 3 12.024 13.820 0.481 29.113 o
-9 6 4 46.558 51.196 1.269 3.178 o
-9 6 5 2.573 2.864 0.350 180.614 o
-9 6 6 0.640 0.776 0.127 927.998 o
-9 7 -3 1.025 1.206 0.448 245.289 o
-9 7 -2 32.843 33.228 2.106 4.783 o
-9 7 -1 9.649 9.956 0.478 41.083 o
-9 7 0 6.212 8.323 0.465 62.566 o
-9 7 1 17.721 21.478 0.759 14.935 o
-9 7 2 21.537 27.304 0.754 10.916 o
-9 7 3 17.786 23.640 1.021 12.976 o
-9 7 4 3.429 5.110 0.501 103.039 o
-9 7 5 2.752 2.798 0.289 192.910 o
-9 8 -2 35.426 36.529 3.660 2.847 o
-9 8 -1 28.418 34.126 1.598 6.105 o
-9 8 0 5.524 6.796 0.443 75.191 o
-9 8 1 25.187 32.665 0.853 8.281 o
-9 8 2 2.778 3.932 0.283 171.005 o
-9 8 3 5.417 5.355 0.347 90.985 o
-9 9 -1 3.713 3.268 0.423 126.400 o
-9 9 0 5.149 6.066 0.597 70.102 o
-8 -5 6 3.294 3.183 0.415 137.990 o
-8 -5 7 78.451 77.248 2.157 1.288 o
-8 -4 4 18.037 18.063 0.685 16.410 o
-8 -4 5 1.881 1.682 0.256 297.303 o
-8 -4 6 52.152 49.941 1.140 2.872 o
-8 -4 7 0.624 0.573 0.119 1055.690 o
-8 -4 8 9.004 9.830 0.904 32.603 o
-8 -4 9 18.587 19.687 1.142 13.068 o
-8 -3 1 0.639 1.065 0.273 503.820 o
-8 -3 2 122.843 137.737 3.449 0.506 o
-8 -3 3 13.901 14.747 0.847 21.311 o
-8 -3 4 23.329 22.736 0.861 10.875 o
-8 -3 5 28.085 29.743 1.044 7.563 o
-8 -3 6 37.587 38.011 1.402 4.624 o
-8 -3 7 22.717 21.525 0.820 11.587 o
-8 -3 8 0.601 1.079 0.163 759.199 o
-8 -3 9 7.446 7.462 0.502 55.920 o
-8 -3 10 25.400 26.246 1.248 8.436 o
-8 -2 0 33.311 38.186 1.218 5.382 o
-8 -2 1 15.876 17.956 1.385 13.662 o
-8 -2 2 24.239 25.390 1.178 9.126 o
-8 -2 3 10.648 10.679 0.615 34.126 o
-8 -2 4 11.446 12.271 1.518 17.068 o
-8 -2 5 43.128 42.119 2.019 3.426 o
-8 -2 6 11.763 13.114 0.795 26.214 o
-8 -2 7 56.028 53.801 1.509 2.452 o
-8 -2 8 18.997 19.575 0.734 14.802 o
-8 -2 9 0.044 0.112 0.069 6986.610 o
-8 -2 10 1.399 0.985 0.222 431.238 o
-8 -1 -1 19.604 21.120 1.370 11.095 o
-8 -1 0 44.099 47.755 1.562 3.380 o
-8 -1 1 12.125 13.779 0.893 23.776 o
-8 -1 2 82.686 78.832 2.032 1.208 o
-8 -1 3 82.218 77.152 1.706 1.256 o
-8 -1 4 71.486 69.546 2.063 1.532 o
-8 -1 5 46.532 45.160 1.272 3.414 o
-8 -1 6 60.130 51.820 2.073 2.169 o
-8 -1 7 15.785 14.580 0.694 20.473 o
-8 -1 8 4.525 4.389 0.351 110.981 o
-8 -1 9 38.477 44.040 1.533 4.079 o
-8 -1 10 16.725 17.757 1.074 15.299 o
-8 0 -2 2.383 3.032 0.370 178.659 o
-8 0 -1 15.279 17.168 0.570 20.383 o
-8 0 0 16.354 19.437 0.592 17.806 o
-8 0 1 90.529 88.145 1.411 1.047 o
-8 0 2 260.529 247.379 2.931 0.141 o
-8 0 3 29.201 27.626 0.919 7.738 o
-8 0 4 66.939 63.773 2.181 1.711 o
-8 0 5 27.809 27.964 1.052 7.871 o
-8 0 6 4.727 4.148 0.294 115.738 o
-8 0 7 113.510 110.537 2.952 0.649 o
-8 0 8 42.070 38.102 1.824 3.816 o
-8 0 9 4.218 4.338 0.451 103.938 o
-8 1 -3 20.189 24.607 0.913 11.804 o
-8 1 -2 0.181 0.288 0.074 2985.460 o
-8 1 -1 19.224 19.926 0.592 15.053 o
-8 1 0 70.136 68.990 1.257 1.666 o
-8 1 1 204.259 192.988 2.393 0.226 o
-8 1 2 316.536 304.133 6.329 0.092 o
-8 1 3 32.221 33.065 0.955 6.307 o
-8 1 4 54.870 51.482 1.704 2.518 o
-8 1 5 5.207 5.226 0.327 96.207 o
-8 1 6 38.409 36.261 1.023 4.909 o
-8 1 7 36.505 35.471 0.874 5.360 o
-8 1 8 37.695 35.939 1.008 5.046 o
-8 1 9 55.813 59.289 1.634 2.302 o
-8 1 10 30.865 36.022 1.443 5.722 o
-8 2 -3 9.839 9.159 0.325 44.909 o
-8 2 -2 23.204 25.679 0.682 10.676 o
-8 2 -1 113.410 119.581 2.102 0.643 o
-8 2 0 43.017 43.189 0.879 3.987 o
-8 2 1 140.109 142.404 3.763 0.420 o
-8 2 2 50.023 53.465 1.791 2.698 o
-8 2 3 88.663 91.907 2.899 0.961 o
-8 2 4 10.845 10.576 0.446 36.705 o
-8 2 5 6.748 6.079 0.309 74.772 o
-8 2 6 0.960 0.814 0.130 717.610 o
-8 2 7 1.795 2.288 0.315 247.501 o
-8 2 8 9.272 10.857 0.757 34.384 o
-8 2 9 8.406 8.082 0.912 35.778 o
-8 3 -4 14.481 17.112 0.668 20.717 o
-8 3 -3 9.149 10.524 0.368 44.148 o
-8 3 -2 24.070 26.560 0.619 10.206 o
-8 3 -1 3.968 4.067 0.245 139.134 o
-8 3 0 104.405 104.382 3.007 0.737 o
-8 3 1 100.377 107.700 2.705 0.770 o
-8 3 2 60.102 62.706 1.946 1.992 o
-8 3 3 106.766 114.853 3.082 0.676 o
-8 3 4 82.534 83.396 1.640 1.199 o
-8 3 5 0.325 0.654 0.234 790.147 o
-8 3 6 5.628 5.609 0.445 79.761 o
-8 3 7 13.048 13.124 0.548 27.037 o
-8 3 8 16.995 16.814 0.668 18.071 o
-8 4 -4 9.682 12.990 0.503 35.636 o
-8 4 -3 8.842 7.532 0.347 53.163 o
-8 4 -2 26.219 27.029 0.717 9.095 o
-8 4 -1 44.978 49.315 1.005 3.466 o
-8 4 0 16.968 17.903 0.688 17.448 o
-8 4 1 143.003 159.931 4.277 0.374 o
-8 4 2 132.741 145.997 3.061 0.453 o
-8 4 3 114.939 124.762 2.501 0.606 o
-8 4 4 108.074 118.390 1.717 0.694 o
-8 4 5 7.880 7.781 0.393 56.600 o
-8 4 6 3.456 3.838 0.301 147.537 o
-8 4 7 22.456 23.901 0.660 11.526 o
-8 4 8 2.232 2.967 0.261 223.297 o
-8 5 -4 0.560 0.828 0.107 1033.650 o
-8 5 -3 6.785 6.931 0.377 67.662 o
-8 5 -2 27.980 24.279 0.759 8.891 o
-8 5 -1 102.666 104.969 2.203 0.782 o
-8 5 0 2.460 2.289 0.271 226.188 o
-8 5 1 46.924 48.340 1.483 3.177 o
-8 5 2 28.521 30.707 1.154 7.154 o
-8 5 3 4.744 5.206 0.312 104.473 o
-8 5 4 22.296 24.348 0.758 11.254 o
-8 5 5 28.427 30.175 0.856 7.686 o
-8 5 6 4.095 4.162 0.462 105.681 o
-8 5 7 4.122 4.101 0.277 130.868 o
-8 6 -4 18.771 20.608 0.625 15.017 o
-8 6 -3 17.221 16.219 0.563 18.727 o
-8 6 -2 47.007 48.755 1.065 3.303 o
-8 6 -1 14.154 17.230 0.752 20.377 o
-8 6 0 24.489 24.492 0.883 9.931 o
-8 6 1 15.374 18.841 0.693 18.543 o
-8 6 2 6.657 7.880 0.374 65.116 o
-8 6 3 20.742 22.744 0.784 12.436 o
-8 6 4 21.827 24.659 0.635 11.716 o
-8 6 5 2.963 3.700 0.308 163.150 o
-8 6 6 1.446 1.370 0.163 444.545 o
-8 7 -4 4.705 5.823 0.465 86.642 o
-8 7 -3 13.418 14.374 0.584 24.922 o
-8 7 -2 0.987 0.905 0.111 714.800 o
-8 7 -1 76.656 80.844 3.135 1.183 o
-8 7 0 16.740 15.873 0.591 19.295 o
-8 7 1 81.697 88.537 3.468 1.021 o
-8 7 2 82.262 93.785 3.253 1.001 o
-8 7 3 21.387 24.555 1.006 10.925 o
-8 7 4 13.775 15.371 0.474 24.457 o
-8 7 5 10.150 11.059 0.522 36.760 o
-8 8 -4 3.005 2.452 0.608 110.095 o
-8 8 -3 1.901 2.165 0.256 274.443 o
-8 8 -2 13.824 12.552 0.579 25.826 o
-8 8 -1 13.410 13.719 0.523 26.083 o
-8 8 0 81.087 92.365 3.993 0.955 o
-8 8 1 73.630 81.289 3.371 1.199 o
-8 8 2 38.920 48.229 1.611 3.779 o
-8 8 3 10.803 12.703 0.500 33.031 o
-8 8 4 2.391 2.253 0.274 229.842 o
-8 9 -3 16.018 14.429 2.336 8.664 o
-8 9 -2 1.261 1.235 0.137 526.324 o
-8 9 -1 15.631 16.300 0.973 17.514 o
-8 9 0 60.617 69.779 3.592 1.513 o
-8 9 1 1.479 2.351 0.188 345.472 o
-8 9 2 4.074 4.939 0.723 71.039 o
-7 -6 5 19.701 19.873 1.120 12.500 o
-7 -6 6 3.903 3.619 0.496 107.762 o
-7 -6 7 30.212 30.154 1.385 6.476 o
-7 -6 8 11.627 10.941 0.552 32.401 o
-7 -5 2 3.984 4.395 0.384 116.364 o
-7 -5 3 9.112 10.438 0.675 37.397 o
-7 -5 4 11.289 13.614 0.816 26.276 o
-7 -5 5 146.278 144.072 3.803 0.396 o
-7 -5 6 64.224 67.285 3.070 1.569 o
-7 -5 7 17.761 17.466 0.861 15.950 o
-7 -5 8 8.131 8.003 0.577 48.266 o
-7 -5 9 14.658 14.412 0.724 21.743 o
-7 -4 1 9.351 9.900 0.592 39.565 o
-7 -4 2 8.522 9.351 0.574 43.972 o
-7 -4 3 52.159 60.004 1.670 2.449 o
-7 -4 4 15.618 15.574 0.765 19.536 o
-7 -4 5 56.483 56.917 1.417 2.374 o
-7 -4 6 64.115 65.800 1.884 1.815 o
-7 -4 7 7.383 6.598 0.480 59.833 o
-7 -4 8 3.911 3.557 0.347 131.906 o
-7 -4 9 1.885 2.047 0.313 250.418 o
-7 -4 10 28.893 33.180 1.604 6.095 o
-7 -3 -1 3.576 2.633 0.410 138.987 o
-7 -3 0 1.792 2.727 0.377 206.523 o
-7 -3 1 28.295 30.977 1.586 6.448 o
-7 -3 2 10.271 11.304 0.863 29.402 o
-7 -3 3 57.171 63.018 2.550 1.948 o
-7 -3 4 7.804 7.952 0.573 50.006 o
-7 -3 5 349.866 349.198 10.294 0.070 o
-7 -3 6 246.933 233.629 6.251 0.147 o
-7 -3 7 79.167 80.046 1.822 1.277 o
-7 -3 8 51.186 53.854 1.261 2.780 o
-7 -3 9 3.830 4.927 0.424 108.922 o
-7 -3 10 10.354 10.131 1.210 23.546 o
-7 -2 -2 10.893 11.593 0.880 27.651 o
-7 -2 -1 31.168 35.818 1.342 5.812 o
-7 -2 0 108.161 117.285 4.461 0.603 o
-7 -2 1 164.869 154.570 2.716 0.339 o
-7 -2 2 0.969 0.700 0.150 702.554 o
-7 -2 3 11.661 13.577 1.364 18.248 o
-7 -2 4 25.664 25.417 1.070 8.895 o
-7 -2 5 4.432 4.849 0.388 104.506 o
-7 -2 6 13.400 13.906 0.782 23.231 o
-7 -2 7 54.927 47.349 3.107 2.124 o
-7 -2 8 4.650 3.676 0.359 114.046 o
-7 -2 9 3.637 3.575 0.384 131.684 o
-7 -2 10 4.878 4.591 0.439 94.462 o
-7 -1 -3 14.316 14.563 0.678 22.524 o
-7 -1 -2 4.276 3.766 0.361 120.001 o
-7 -1 -1 27.518 28.784 2.320 5.422 o
-7 -1 0 103.424 99.597 2.325 0.795 o
-7 -1 1 7.067 5.280 0.322 74.917 o
-7 -1 2 37.605 37.928 1.605 4.460 o
-7 -1 3 11.087 9.434 0.508 36.644 o
-7 -1 4 161.765 156.471 4.514 0.325 o
-7 -1 5 172.530 164.827 6.048 0.275 o
-7 -1 6 26.081 25.693 0.779 9.289 o
-7 -1 7 1.713 1.424 0.179 382.161 o
-7 -1 8 12.710 11.007 0.593 29.273 o
-7 -1 9 1.628 2.023 0.247 310.714 o
-7 -1 10 4.353 3.986 0.405 110.656 o
-7 0 -3 7.432 8.153 0.386 58.417 o
-7 0 -2 15.130 16.879 0.618 20.424 o
-7 0 -1 44.997 46.168 1.156 3.547 o
-7 0 0 45.919 48.435 2.249 2.891 o
-7 0 1 17.834 15.132 0.521 18.867 o
-7 0 2 120.109 125.108 3.445 0.551 o
-7 0 3 392.780 394.087 8.976 0.058 o
-7 0 4 62.073 65.620 2.457 1.774 o
-7 0 5 13.526 14.048 0.675 24.099 o
-7 0 6 10.720 10.657 0.499 36.087 o
-7 0 7 114.939 102.345 1.421 0.709 o
-7 0 8 38.577 40.288 1.108 4.561 o
-7 0 9 18.500 19.012 0.833 14.926 o
-7 0 10 8.316 9.399 0.603 43.800 o
-7 1 -4 11.486 13.449 0.557 29.761 o
-7 1 -3 10.439 12.358 0.485 34.682 o
-7 1 -2 30.461 30.866 0.800 7.122 o
-7 1 -1 25.232 25.191 0.755 9.760 o
-7 1 0 59.958 65.980 1.647 1.994 o
-7 1 1 1.620 1.959 0.270 300.006 o
-7 1 2 319.198 329.304 8.333 0.084 o
-7 1 3 78.070 74.512 1.922 1.345 o
-7 1 4 90.131 87.393 2.324 1.010 o
-7 1 5 24.438 22.468 0.558 11.095 o
-7 1 6 53.584 54.340 1.078 2.665 o
-7 1 7 15.638 18.619 0.655 18.618 o
-7 1 8 102.440 102.984 2.135 0.795 o
-7 1 9 8.097 9.060 0.457 49.960 o
-7 1 10 2.723 2.303 0.370 179.479 o
-7 2 -5 21.177 20.535 1.107 11.620 o
-7 2 -4 6.747 7.305 0.323 68.768 o
-7 2 -3 76.782 80.307 1.461 1.349 o
-7 2 -2 82.551 81.230 1.305 1.237 o
-7 2 -1 3.640 2.891 0.254 164.854 o
-7 2 0 14.020 15.907 0.496 23.480 o
-7 2 1 48.708 49.548 1.768 2.901 o
-7 2 2 190.230 196.379 6.284 0.221 o
-7 2 3 154.234 148.535 3.155 0.373 o
-7 2 4 300.079 299.565 5.401 0.101 o
-7 2 5 2.075 2.351 0.179 286.936 o
-7 2 6 26.025 28.460 0.670 8.979 o
-7 2 7 11.476 10.102 0.510 34.549 o
-7 2 8 4.648 4.876 0.366 103.349 o
-7 2 9 5.039 5.121 0.322 99.786 o
-7 3 -5 0.124 0.248 0.053 4214.730 o
-7 3 -4 11.248 13.061 0.390 32.835 o
-7 3 -3 0.554 0.251 0.071 1595.800 o
-7 3 -2 165.806 156.853 3.017 0.331 o
-7 3 -1 135.050 130.809 3.148 0.473 o
-7 3 0 10.056 11.415 0.404 38.545 o
-7 3 1 24.197 26.046 0.718 10.082 o
-7 3 2 0.337 0.778 0.217 815.915 o
-7 3 3 188.116 191.886 2.650 0.251 o
-7 3 4 53.618 55.818 0.935 2.648 o
-7 3 5 5.996 5.589 0.298 85.798 o
-7 3 6 20.445 22.052 0.766 12.874 o
-7 3 7 30.188 26.528 0.883 7.667 o
-7 3 8 25.426 26.428 0.797 9.363 o
-7 3 9 1.241 1.885 0.367 267.844 o
-7 4 -5 39.166 44.513 1.193 4.189 o
-7 4 -4 0.111 0.339 0.071 3414.240 o
-7 4 -3 92.246 92.905 1.338 0.994 o
-7 4 -2 43.715 41.898 0.871 3.984 o
-7 4 -1 40.119 43.139 1.374 4.055 o
-7 4 0 44.008 50.418 1.086 3.474 o
-7 4 1 66.412 70.055 1.433 1.741 o
-7 4 2 7.001 6.936 0.332 67.857 o
-7 4 3 63.983 61.742 1.598 1.934 o
-7 4 4 249.712 256.514 3.899 0.143 o
-7 4 5 59.700 61.728 0.964 2.193 o
-7 4 6 26.675 25.604 0.807 9.038 o
-7 4 7 3.199 3.355 0.264 170.279 o
-7 4 8 2.823 3.105 0.244 194.973 o
-7 5 -6 46.342 52.204 1.350 3.128 o
-7 5 -5 33.798 35.805 0.729 5.907 o
-7 5 -4 1.851 1.674 0.175 349.006 o
-7 5 -3 39.203 40.248 0.876 4.611 o
-7 5 -2 162.509 165.886 5.321 0.303 o
-7 5 -1 109.809 109.483 2.577 0.691 o
-7 5 0 66.894 71.327 1.727 1.672 o
-7 5 1 11.962 11.724 0.469 31.782 o
-7 5 2 99.064 105.103 3.032 0.778 o
-7 5 3 10.754 10.238 0.360 38.854 o
-7 5 4 176.549 178.732 3.384 0.280 o
-7 5 5 5.421 4.808 0.292 98.889 o
-7 5 6 42.456 46.419 1.992 3.330 o
-7 5 7 32.040 37.728 0.885 5.942 o
-7 5 8 30.666 29.989 1.258 6.589 o
-7 6 -6 31.094 34.575 1.060 6.272 o
-7 6 -5 5.665 5.014 0.264 95.813 o
-7 6 -4 0.166 0.369 0.074 2803.050 o
-7 6 -3 25.178 26.095 0.910 9.296 o
-7 6 -2 72.993 77.961 2.700 1.326 o
-7 6 -1 31.056 31.888 0.979 6.659 o
-7 6 0 40.479 45.555 0.894 4.128 o
-7 6 1 9.126 9.171 0.377 46.962 o
-7 6 2 26.371 29.780 0.703 8.584 o
-7 6 3 189.291 199.164 3.895 0.237 o
-7 6 4 54.240 59.769 1.650 2.360 o
-7 6 5 52.114 58.184 2.342 2.292 o
-7 6 6 33.509 34.066 0.953 5.953 o
-7 6 7 7.915 9.464 0.514 48.100 o
-7 7 -6 11.579 14.449 0.940 23.425 o
-7 7 -5 26.448 26.258 0.890 8.853 o
-7 7 -4 24.880 26.630 1.068 8.959 o
-7 7 -3 49.729 53.030 1.851 2.706 o
-7 7 -2 50.481 54.136 2.275 2.482 o
-7 7 -1 26.065 28.843 0.952 8.440 o
-7 7 0 48.037 51.179 1.580 2.964 o
-7 7 1 73.082 80.012 3.122 1.251 o
-7 7 2 16.183 17.161 0.535 19.509 o
-7 7 3 55.209 63.822 1.363 2.283 o
-7 7 4 10.723 12.122 0.472 34.429 o
-7 7 5 16.661 21.101 0.855 15.414 o
-7 7 6 38.964 43.403 1.544 4.054 o
-7 8 -5 9.674 7.915 1.283 24.322 o
-7 8 -4 3.295 3.461 0.240 169.579 o
-7 8 -3 4.432 4.003 0.287 123.891 o
-7 8 -2 7.701 7.854 0.387 57.650 o
-7 8 -1 5.373 7.325 0.416 75.965 o
-7 8 0 85.915 102.111 3.537 0.888 o
-7 8 1 38.277 43.806 1.314 4.257 o
-7 8 2 54.165 60.314 1.460 2.395 o
-7 8 3 21.680 23.468 0.809 11.651 o
-7 8 4 2.386 2.502 0.219 242.669 o
-7 9 -5 3.356 3.155 0.800 73.918 o
-7 9 -4 39.609 43.300 2.847 3.063 o
-7 9 -3 16.965 20.275 0.865 15.446 o
-7 9 -2 6.982 7.472 0.418 62.381 o
-7 9 -1 5.949 7.028 0.408 72.572 o
-7 9 0 73.017 84.300 3.139 1.214 o
-7 9 1 37.734 39.311 1.087 4.749 o
-7 9 2 0.666 0.979 0.138 813.588 o
-7 9 3 11.722 13.930 0.854 24.782 o
-7 10 -4 5.026 5.179 0.374 94.951 o
-7 10 -3 0.207 0.422 0.091 2225.010 o
-7 10 -2 1.781 2.380 0.291 257.342 o
-7 10 -1 0.702 0.738 0.130 889.048 o
-7 10 0 23.325 25.305 1.495 8.551 o
-7 10 1 8.047 7.464 0.666 46.452 o
-6 -7 5 1.977 1.875 0.343 234.765 o
-6 -7 6 50.417 53.846 1.912 2.624 o
-6 -7 7 18.138 21.289 1.197 12.588 o
-6 -7 8 0.769 0.921 0.238 557.528 o
-6 -6 2 2.126 2.538 0.249 247.547 o
-6 -6 3 1.948 1.757 0.240 296.892 o
-6 -6 4 20.529 23.890 0.931 11.753 o
-6 -6 5 9.429 8.101 1.095 28.677 o
-6 -6 6 52.027 52.382 4.805 1.547 o
-6 -6 7 15.222 16.249 0.912 18.420 o
-6 -6 8 7.033 8.287 0.616 51.087 o
-6 -6 9 6.466 6.615 0.396 70.577 o
-6 -6 10 19.127 17.898 1.034 13.846 o
-6 -5 0 8.907 8.585 0.767 38.194 o
-6 -5 1 1.617 0.985 0.159 452.156 o
-6 -5 2 27.361 27.140 2.348 5.504 o
-6 -5 3 42.093 45.255 1.422 3.729 o
-6 -5 4 9.892 11.216 0.657 34.568 o
-6 -5 5 136.673 138.855 4.922 0.415 o
-6 -5 6 40.772 40.494 1.253 4.200 o
-6 -5 7 15.885 15.787 0.672 19.802 o
-6 -5 8 26.980 27.265 1.263 7.801 o
-6 -5 9 4.920 6.350 0.455 82.320 o
-6 -5 10 17.449 19.238 0.699 16.344 o
-6 -4 -1 3.319 2.958 0.327 159.505 o
-6 -4 0 5.102 4.450 0.499 86.588 o
-6 -4 1 16.673 14.937 1.032 16.744 o
-6 -4 2 3.428 2.794 0.429 136.519 o
-6 -4 3 19.776 19.701 1.292 11.698 o
-6 -4 4 114.583 120.960 2.223 0.627 o
-6 -4 5 129.508 136.702 2.233 0.500 o
-6 -4 6 97.397 90.307 1.395 0.943 o
-6 -4 7 53.446 54.782 1.269 2.619 o
-6 -4 8 59.868 63.923 1.863 1.995 o
-6 -4 9 39.254 41.646 1.344 4.249 o
-6 -4 10 0.718 0.550 0.131 942.960 o
-6 -4 11 4.294 5.354 0.421 99.134 o
-6 -3 -2 0.197 0.081 0.045 4579.330 o
-6 -3 -1 17.991 16.539 0.790 16.561 o
-6 -3 0 12.382 11.525 1.013 23.284 o
-6 -3 1 67.567 64.067 1.523 1.787 o
-6 -3 2 149.800 133.464 9.212 0.292 o
-6 -3 3 92.772 86.742 3.033 0.934 o
-6 -3 4 98.966 101.046 2.722 0.813 o
-6 -3 5 43.068 44.963 1.218 3.752 o
-6 -3 6 30.444 30.907 0.987 6.902 o
-6 -3 7 82.270 86.682 2.606 1.105 o
-6 -3 8 6.719 6.836 0.412 66.889 o
-6 -3 9 8.570 9.358 0.553 44.380 o
-6 -3 10 6.929 6.614 0.413 66.054 o
-6 -3 11 9.431 10.350 0.773 34.239 o
-6 -2 -3 0.401 0.414 0.094 1625.210 o
-6 -2 -2 9.379 9.811 0.626 38.787 o
-6 -2 -1 34.153 32.551 1.426 5.485 o
-6 -2 0 47.469 40.641 1.808 3.272 o
-6 -2 1 13.410 10.749 0.715 26.525 o
-6 -2 2 35.376 34.162 1.212 5.379 o
-6 -2 3 83.812 92.483 2.249 1.067 o
-6 -2 4 76.628 73.549 1.916 1.385 o
-6 -2 5 23.886 21.462 0.713 11.293 o
-6 -2 6 51.594 45.551 1.066 3.078 o
-6 -2 7 0.104 0.203 0.074 4203.910 o
-6 -2 8 8.287 9.966 0.514 45.409 o
-6 -2 9 48.399 48.702 1.638 3.000 o
-6 -2 10 3.165 2.300 0.276 189.480 o
-6 -2 11 7.528 7.034 0.763 45.398 o
-6 -1 -4 21.397 23.555 0.754 11.937 o
-6 -1 -3 27.847 32.951 1.357 6.725 o
-6 -1 -2 32.505 33.874 0.955 6.166 o
-6 -1 -1 3.556 3.816 0.321 141.674 o
-6 -1 0 37.147 35.395 1.013 5.167 o
-6 -1 1 12.675 11.759 0.514 29.550 o
-6 -1 2 41.118 39.701 1.205 4.234 o
-6 -1 3 96.782 98.179 4.278 0.755 o
-6 -1 4 154.975 162.816 3.574 0.346 o
-6 -1 5 70.345 68.889 1.477 1.639 o
-6 -1 6 10.482 10.315 0.435 38.450 o
-6 -1 7 120.211 119.416 2.316 0.595 o
-6 -1 8 2.040 3.196 0.347 196.606 o
-6 -1 9 39.900 45.422 1.200 4.056 o
-6 -1 10 72.994 79.590 5.086 0.990 o
-6 -1 11 5.736 6.270 0.509 71.185 o
-6 0 -5 2.515 2.409 0.274 218.606 o
-6 0 -4 20.733 19.226 0.637 14.041 o
-6 0 -3 52.015 57.432 1.382 2.598 o
-6 0 -2 101.433 99.758 2.819 0.791 o
-6 0 -1 114.654 105.982 2.211 0.679 o
-6 0 0 57.785 51.821 0.975 2.521 o
-6 0 1 63.085 58.767 1.522 2.033 o
-6 0 2 146.886 154.278 4.538 0.367 o
-6 0 3 47.825 49.132 0.898 3.270 o
-6 0 4 41.885 43.865 1.656 3.680 o
-6 0 5 61.315 56.218 1.160 2.215 o
-6 0 6 102.193 103.867 1.658 0.809 o
-6 0 7 75.520 75.362 1.902 1.391 o
-6 0 8 35.659 37.065 1.030 5.257 o
-6 0 9 11.547 12.543 0.705 28.461 o
-6 0 10 13.188 16.171 1.307 16.642 o
-6 1 -5 0.818 0.830 0.122 802.574 o
-6 1 -4 21.777 20.552 0.695 12.751 o
-6 1 -3 9.943 9.798 0.504 39.778 o
-6 1 -2 107.874 119.356 3.356 0.643 o
-6 1 -1 35.137 34.692 0.869 5.664 o
-6 1 0 5.108 5.144 0.300 100.413 o
-6 1 1 23.531 26.333 1.169 9.231 o
-6 1 2 4.545 4.089 0.249 124.674 o
-6 1 3 33.851 32.261 0.713 6.263 o
-6 1 4 80.541 69.548 1.146 1.405 o
-6 1 5 76.776 75.825 1.109 1.421 o
-6 1 6 142.718 134.499 2.486 0.445 o
-6 1 7 221.963 219.325 7.599 0.166 o
-6 1 8 26.097 28.743 1.225 7.917 o
-6 1 9 6.344 6.378 0.359 74.644 o
-6 1 10 3.339 3.007 0.317 160.236 o
-6 2 -6 44.833 47.339 1.005 3.564 o
-6 2 -5 15.572 17.125 0.520 20.346 o
-6 2 -4 72.947 80.677 2.024 1.377 o
-6 2 -3 147.429 150.924 3.720 0.383 o
-6 2 -2 40.368 42.002 1.416 4.063 o
-6 2 -1 209.682 194.593 5.720 0.202 o
-6 2 0 69.495 67.796 2.143 1.593 o
-6 2 1 22.846 22.857 0.643 11.636 o
-6 2 2 166.852 169.458 3.125 0.313 o
-6 2 3 28.736 27.425 0.604 8.318 o
-6 2 4 168.017 163.795 2.747 0.319 o
-6 2 5 22.414 20.133 0.471 13.063 o
-6 2 6 7.786 6.408 0.330 63.916 o
-6 2 7 34.173 31.663 0.965 6.045 o
-6 2 8 10.655 10.722 0.451 36.979 o
-6 2 9 25.221 29.819 0.820 8.788 o
-6 2 10 13.560 14.520 0.872 21.610 o
-6 3 -6 5.322 5.519 0.232 99.135 o
-6 3 -5 34.310 33.849 0.625 6.065 o
-6 3 -4 14.830 13.783 0.600 23.040 o
-6 3 -3 109.621 109.274 1.736 0.717 o
-6 3 -2 91.672 94.166 1.949 0.968 o
-6 3 -1 75.769 77.369 2.057 1.349 o
-6 3 0 55.874 62.551 1.445 2.266 o
-6 3 1 27.430 27.599 0.637 8.683 o
-6 3 2 418.399 410.393 8.056 0.053 o
-6 3 3 57.674 54.450 0.804 2.483 o
-6 3 4 99.178 93.863 1.917 0.883 o
-6 3 5 70.883 73.198 0.987 1.608 o
-6 3 6 39.264 36.500 0.783 4.908 o
-6 3 7 53.840 58.714 2.476 2.168 o
-6 3 8 19.266 21.733 0.608 14.291 o
-6 3 9 5.751 6.834 0.712 56.110 o
-6 4 -6 27.573 29.540 0.630 8.323 o
-6 4 -5 23.937 27.654 0.627 10.015 o
-6 4 -4 23.753 22.857 0.572 11.315 o
-6 4 -3 46.965 43.929 0.782 3.594 o
-6 4 -2 100.115 98.919 2.379 0.828 o
-6 4 -1 14.694 16.831 0.504 21.779 o
-6 4 0 8.352 8.733 0.297 53.771 o
-6 4 1 94.230 103.408 1.433 0.902 o
-6 4 2 77.008 82.528 1.371 1.328 o
-6 4 3 8.675 8.892 0.318 51.137 o
-6 4 4 141.184 146.823 1.722 0.435 o
-6 4 5 97.666 99.365 1.172 0.893 o
-6 4 6 62.333 64.329 1.909 1.893 o
-6 4 7 13.073 14.435 0.514 26.130 o
-6 4 8 39.534 46.359 2.135 3.464 o
-6 5 -7 19.875 19.612 0.759 14.054 o
-6 5 -6 40.211 38.458 0.973 4.547 o
-6 5 -5 17.881 18.817 0.500 17.027 o
-6 5 -4 54.583 53.731 0.954 2.649 o
-6 5 -3 24.840 24.631 0.722 10.102 o
-6 5 -2 20.854 23.087 0.661 12.643 o
-6 5 -1 66.918 72.152 1.443 1.694 o
-6 5 0 116.871 120.010 2.894 0.599 o
-6 5 1 82.394 81.232 1.292 1.241 o
-6 5 2 36.475 40.512 0.880 4.970 o
-6 5 3 5.190 4.638 0.255 106.665 o
-6 5 4 221.627 222.548 2.972 0.185 o
-6 5 5 24.366 25.040 0.829 9.991 o
-6 5 6 24.373 27.390 0.980 9.202 o
-6 5 7 6.757 8.301 0.435 60.404 o
-6 5 8 36.989 39.831 1.119 4.794 o
-6 6 -7 2.799 2.990 0.318 179.009 o
-6 6 -6 19.285 20.549 0.577 14.817 o
-6 6 -5 34.492 35.695 0.872 5.687 o
-6 6 -4 3.724 3.355 0.225 159.277 o
-6 6 -3 18.934 22.289 0.669 14.119 o
-6 6 -2 14.201 17.525 0.544 21.712 o
-6 6 -1 39.736 45.408 0.937 4.202 o
-6 6 0 6.902 6.837 0.342 68.624 o
-6 6 1 20.403 19.826 0.604 14.171 o
-6 6 2 1.697 2.387 0.209 307.406 o
-6 6 3 43.809 43.897 0.944 3.845 o
-6 6 4 84.072 87.904 2.187 1.101 o
-6 6 5 23.660 29.216 1.535 7.809 o
-6 6 6 6.970 9.218 0.423 56.679 o
-6 6 7 22.251 26.690 0.760 10.712 o
-6 7 -7 3.698 4.576 0.367 122.465 o
-6 7 -6 19.135 17.140 0.645 16.050 o
-6 7 -5 38.332 38.780 0.944 4.792 o
-6 7 -4 51.442 52.435 2.034 2.564 o
-6 7 -3 203.604 213.660 8.325 0.181 o
-6 7 -2 49.153 55.446 1.486 2.791 o
-6 7 -1 40.812 48.870 1.098 3.834 o
-6 7 0 9.571 10.070 0.545 39.667 o
-6 7 1 16.917 18.617 0.678 17.215 o
-6 7 2 33.189 36.057 0.930 5.845 o
-6 7 3 76.410 80.715 1.704 1.334 o
-6 7 4 35.028 40.166 1.844 4.413 o
-6 7 5 2.171 3.181 0.246 225.906 o
-6 7 6 14.415 17.659 0.874 18.840 o
-6 8 -7 1.172 1.282 0.260 402.063 o
-6 8 -6 7.576 7.464 0.394 59.434 o
-6 8 -5 3.761 3.212 0.252 156.120 o
-6 8 -4 3.433 4.002 0.308 144.800 o
-6 8 -3 27.593 32.062 1.116 7.275 o
-6 8 -2 21.819 26.094 0.789 10.983 o
-6 8 -1 106.412 126.473 3.562 0.622 o
-6 8 0 5.723 5.984 0.375 81.827 o
-6 8 1 74.789 80.139 2.178 1.329 o
-6 8 2 14.743 13.592 0.511 24.040 o
-6 8 3 9.556 9.477 0.562 40.324 o
-6 8 4 7.207 9.642 0.648 46.121 o
-6 8 5 19.862 24.516 1.734 8.911 o
-6 9 -6 11.060 11.825 0.643 31.229 o
-6 9 -5 5.772 7.021 0.403 74.469 o
-6 9 -4 19.649 23.633 0.865 12.530 o
-6 9 -3 20.988 28.011 0.999 10.359 o
-6 9 -2 27.659 34.572 1.816 5.845 o
-6 9 -1 30.628 37.195 1.758 5.264 o
-6 9 0 1.042 0.927 0.175 586.512 o
-6 9 1 23.848 27.093 0.906 9.619 o
-6 9 2 28.731 30.699 1.149 7.112 o
-6 9 3 10.016 10.373 0.581 37.014 o
-6 10 -5 2.532 3.490 0.336 174.801 o
-6 10 -4 11.836 12.921 0.645 28.395 o
-6 10 -3 5.647 6.345 0.487 73.162 o
-6 10 -2 12.309 15.657 1.361 16.954 o
-6 10 -1 17.865 20.672 1.760 10.043 o
-6 10 0 11.294 16.646 0.932 22.447 o
-6 10 1 13.063 16.820 0.735 22.165 o
-5 -8 5 30.155 28.635 1.502 6.454 o
-5 -8 6 9.053 7.666 0.670 42.159 o
-5 -8 7 21.318 22.485 1.168 10.867 o
-5 -8 8 7.633 8.241 0.671 46.350 o
-5 -7 2 7.549 7.461 0.786 43.619 o
-5 -7 3 18.859 20.788 1.284 11.919 o
-5 -7 4 11.837 11.961 1.597 16.025 o
-5 -7 5 2.736 2.710 0.348 178.095 o
-5 -7 6 41.907 40.131 2.752 3.087 o
-5 -7 7 4.244 4.392 0.503 96.656 o
-5 -7 8 13.670 13.460 0.827 22.660 o
-5 -7 9 4.985 6.333 0.734 60.131 o
-5 -7 10 12.746 11.929 0.821 25.212 o
-5 -6 0 0.854 0.285 0.096 1043.310 o
-5 -6 1 8.257 7.828 0.783 40.789 o
-5 -6 2 26.706 27.552 1.534 7.264 o
-5 -6 3 2.280 2.108 0.271 242.465 o
-5 -6 4 99.229 117.680 3.818 0.689 o
-5 -6 5 99.232 108.547 2.850 0.770 o
-5 -6 6 16.323 16.886 1.015 16.353 o
-5 -6 7 89.663 86.332 3.451 0.940 o
-5 -6 8 38.729 37.408 2.135 3.911 o
-5 -6 9 16.221 15.576 0.723 19.184 o
-5 -6 10 7.325 7.713 0.584 52.451 o
-5 -5 -1 23.386 13.944 1.708 9.556 o
-5 -5 0 2.847 2.581 0.364 171.900 o
-5 -5 2 57.296 59.834 1.790 2.190 o
-5 -5 3 93.680 104.101 2.605 0.856 o
-5 -5 4 22.104 26.364 1.028 10.152 o
-5 -5 5 37.961 38.033 2.810 3.363 o
-5 -5 6 73.694 75.252 1.826 1.440 o
-5 -5 7 163.086 157.063 2.183 0.345 o
-5 -5 8 22.534 24.463 1.455 9.048 o
-5 -5 9 87.115 89.376 3.801 0.922 o
-5 -5 10 3.528 3.660 0.299 148.320 o
-5 -5 11 6.208 6.881 0.404 71.201 o
-5 -4 -2 13.430 8.901 0.805 26.810 o
-5 -4 -1 56.136 53.044 6.138 1.142 o
-5 -4 0 57.855 56.538 2.208 2.130 o
-5 -4 1 246.501 255.823 7.088 0.137 o
-5 -4 2 113.116 111.862 4.730 0.579 o
-5 -4 3 300.777 327.276 13.732 0.079 o
-5 -4 4 256.403 279.050 5.254 0.128 o
-5 -4 5 53.055 57.572 2.269 2.288 o
-5 -4 6 78.294 76.479 1.307 1.368 o
-5 -4 7 17.609 17.607 0.749 16.659 o
-5 -4 8 11.703 11.785 0.689 29.146 o
-5 -4 9 16.593 15.776 0.930 17.219 o
-5 -4 10 4.054 3.723 0.381 121.900 o
-5 -4 11 0.286 0.370 0.109 1846.530 o
-5 -3 -3 11.468 10.212 0.524 34.192 o
-5 -3 -2 41.516 34.807 3.054 3.048 o
-5 -3 -1 15.084 14.912 0.732 20.814 o
-5 -3 0 120.617 121.296 3.287 0.563 o
-5 -3 1 51.401 51.157 1.206 2.865 o
-5 -3 2 196.601 199.013 4.389 0.224 o
-5 -3 3 14.598 13.345 0.726 22.523 o
-5 -3 4 118.157 123.296 3.470 0.565 o
-5 -3 5 5.413 7.222 0.638 61.494 o
-5 -3 6 143.094 140.580 2.171 0.435 o
-5 -3 7 16.306 15.971 0.623 19.536 o
-5 -3 8 58.971 58.733 2.264 2.032 o
-5 -3 9 18.106 18.003 0.796 15.814 o
-5 -3 10 26.455 28.328 1.534 7.230 o
-5 -3 11 6.066 7.900 0.556 60.257 o
-5 -2 -4 28.129 26.942 0.783 8.360 o
-5 -2 -3 1.700 1.692 0.263 309.244 o
-5 -2 -2 22.279 20.517 1.675 9.000 o
-5 -2 -1 65.406 66.828 1.547 1.808 o
-5 -2 0 41.288 42.952 1.127 4.077 o
-5 -2 1 148.702 145.441 3.168 0.395 o
-5 -2 2 26.616 26.512 0.936 8.668 o
-5 -2 3 92.318 86.529 6.408 0.673 o
-5 -2 4 57.499 60.267 1.861 2.156 o
-5 -2 5 17.292 14.963 0.456 19.904 o
-5 -2 6 4.131 4.223 0.349 119.933 o
-5 -2 7 237.863 223.957 4.911 0.163 o
-5 -2 8 42.420 44.816 1.764 3.529 o
-5 -2 9 21.715 21.302 0.871 12.012 o
-5 -2 10 25.310 24.554 1.270 8.672 o
-5 -2 11 9.732 10.062 1.121 26.117 o
-5 -1 -5 3.422 3.540 0.261 160.191 o
-5 -1 -4 3.023 3.275 0.335 161.948 o
-5 -1 -3 66.192 69.952 2.191 1.644 o
-5 -1 -2 1.862 1.691 0.229 314.688 o
-5 -1 -1 69.300 68.301 4.767 1.150 o
-5 -1 0 30.988 27.353 1.522 6.382 o
-5 -1 1 416.682 393.782 13.291 0.050 o
-5 -1 2 245.168 263.209 14.153 0.106 o
-5 -1 3 273.472 283.711 5.406 0.117 o
-5 -1 4 32.594 32.932 0.941 6.257 o
-5 -1 5 65.775 66.132 1.170 1.853 o
-5 -1 6 12.172 11.468 0.433 32.019 o
-5 -1 7 37.314 36.166 0.846 5.192 o
-5 -1 8 107.273 107.523 3.830 0.667 o
-5 -1 9 31.964 32.949 1.186 6.117 o
-5 -1 10 0.866 1.181 0.194 571.480 o
-5 -1 11 2.112 2.246 0.250 258.127 o
-5 0 -6 43.832 42.813 1.161 3.808 o
-5 0 -5 16.834 17.170 0.784 17.352 o
-5 0 -4 3.426 4.921 0.405 118.748 o
-5 0 -3 111.128 114.710 2.935 0.651 o
-5 0 -2 7.757 8.767 0.446 52.746 o
-5 0 -1 59.724 58.788 2.905 1.842 o
-5 0 0 38.415 35.943 1.655 4.439 o
-5 0 1 351.508 372.182 10.762 0.066 o
-5 0 2 41.863 42.591 1.458 3.858 o
-5 0 3 82.823 76.739 1.428 1.267 o
-5 0 4 105.180 108.418 2.930 0.718 o
-5 0 5 440.988 433.153 3.415 0.049 o
-5 0 6 57.323 58.229 1.058 2.368 o
-5 0 7 161.743 155.712 5.546 0.312 o
-5 0 8 20.743 20.984 1.099 11.757 o
-5 0 9 12.632 11.452 0.595 28.949 o
-5 0 10 1.044 1.113 0.226 483.780 o
-5 1 -6 42.012 46.289 1.048 3.864 o
-5 1 -5 43.531 42.949 1.822 3.481 o
-5 1 -4 32.569 38.261 1.943 4.709 o
-5 1 -3 428.983 461.446 11.465 0.045 o
-5 1 -2 317.994 322.319 9.112 0.084 o
-5 1 -1 48.126 50.681 1.250 3.089 o
-5 1 0 30.161 32.257 1.071 6.707 o
-5 1 1 29.525 29.307 1.869 5.884 o
-5 1 2 156.279 158.093 2.748 0.357 o
-5 1 3 65.771 73.116 1.761 1.674 o
-5 1 4 29.912 32.816 0.760 7.057 o
-5 1 5 260.268 265.059 4.251 0.132 o
-5 1 6 40.341 39.456 1.160 4.364 o
-5 1 7 9.661 10.250 0.400 42.077 o
-5 1 8 10.117 10.595 0.522 37.555 o
-5 1 9 23.785 24.463 0.929 10.117 o
-5 1 10 15.353 17.702 0.923 17.522 o
-5 2 -7 34.290 30.511 0.798 6.287 o
-5 2 -6 5.072 5.747 0.356 92.194 o
-5 2 -5 51.909 55.455 1.221 2.699 o
-5 2 -4 103.690 96.654 3.578 0.747 o
-5 2 -3 55.125 51.113 1.858 2.469 o
-5 2 -2 73.678 63.998 1.389 1.624 o
-5 2 -1 133.226 130.145 5.827 0.418 o
-5 2 0 217.715 240.936 11.387 0.139 o
-5 2 1 17.387 21.633 1.017 13.856 o
-5 2 2 57.467 52.432 1.639 2.383 o
-5 2 3 3.732 3.874 0.407 122.655 o
-5 2 4 32.148 33.184 0.562 6.641 o
-5 2 5 165.111 165.833 2.780 0.324 o
-5 2 6 119.178 110.424 3.559 0.593 o
-5 2 7 120.060 118.704 4.183 0.545 o
-5 2 8 39.322 39.550 1.040 4.553 o
-5 2 9 14.751 14.522 0.808 20.785 o
-5 2 10 3.523 3.383 0.429 127.916 o
-5 3 -7 12.902 12.374 0.389 29.696 o
-5 3 -6 22.990 26.115 0.570 10.890 o
-5 3 -5 15.155 15.097 0.571 21.876 o
-5 3 -4 35.622 34.564 0.935 5.540 o
-5 3 -3 10.659 10.862 0.468 36.482 o
-5 3 -2 76.615 79.074 1.973 1.323 o
-5 3 -1 87.258 100.309 2.639 0.945 o
-5 3 0 7.769 12.675 0.536 41.615 o
-5 3 1 128.800 143.880 3.460 0.466 o
-5 3 2 173.631 179.004 4.781 0.274 o
-5 3 3 40.669 48.128 0.749 4.019 o
-5 3 4 18.676 18.890 0.661 15.634 o
-5 3 5 224.024 223.648 4.553 0.177 o
-5 3 6 187.913 192.180 6.657 0.224 o
-5 3 7 67.330 70.984 2.434 1.563 o
-5 3 8 3.562 4.200 0.268 145.016 o
-5 3 9 1.613 1.832 0.243 324.254 o
-5 4 -7 17.836 19.077 0.460 17.094 o
-5 4 -6 0.247 0.312 0.064 2620.900 o
-5 4 -5 43.753 43.909 0.762 3.912 o
-5 4 -4 60.368 59.953 0.847 2.216 o
-5 4 -3 9.309 9.480 0.356 45.926 o
-5 4 -2 185.483 206.716 5.985 0.223 o
-5 4 -1 125.470 140.806 2.368 0.508 o
-5 4 0 329.079 359.828 4.667 0.080 o
-5 4 1 276.683 318.360 5.883 0.106 o
-5 4 2 231.315 215.304 2.426 0.180 o
-5 4 3 234.785 227.680 4.074 0.166 o
-5 4 4 28.869 30.394 0.675 7.748 o
-5 4 5 226.152 243.092 7.367 0.154 o
-5 4 6 12.722 15.751 0.681 23.956 o
-5 4 7 3.254 3.310 0.236 174.597 o
-5 4 8 1.437 1.648 0.184 403.960 o
-5 5 -8 8.584 7.729 0.481 50.056 o
-5 5 -7 34.694 34.517 0.660 5.904 o
-5 5 -6 108.674 101.662 1.347 0.767 o
-5 5 -5 64.229 57.453 0.856 2.104 o
-5 5 -4 12.648 11.755 0.380 31.082 o
-5 5 -3 31.430 36.127 0.942 6.168 o
-5 5 -2 32.694 36.697 0.913 5.893 o
-5 5 -1 45.917 51.223 0.975 3.318 o
-5 5 0 104.738 103.320 2.441 0.762 o
-5 5 1 34.817 34.769 0.618 5.881 o
-5 5 2 26.994 30.824 0.638 8.293 o
-5 5 3 93.029 95.866 1.195 0.969 o
-5 5 4 80.801 83.428 1.559 1.234 o
-5 5 5 26.875 29.103 0.820 8.361 o
-5 5 6 41.482 46.541 1.443 3.716 o
-5 5 7 9.670 13.162 0.794 30.088 o
-5 5 8 24.413 29.175 1.201 8.399 o
-5 6 -8 15.971 17.406 1.139 15.524 o
-5 6 -7 4.402 4.233 0.266 124.442 o
-5 6 -6 2.157 2.260 0.186 281.096 o
-5 6 -5 20.852 18.432 0.528 14.589 o
-5 6 -4 65.320 71.331 2.418 1.612 o
-5 6 -3 10.003 10.918 0.419 39.310 o
-5 6 -2 11.335 10.615 0.401 35.853 o
-5 6 -1 39.207 40.691 1.374 4.289 o
-5 6 0 95.075 96.646 2.039 0.908 o
-5 6 1 14.164 16.028 0.449 23.486 o
-5 6 2 68.571 72.375 1.543 1.633 o
-5 6 3 44.388 46.448 0.966 3.659 o
-5 6 4 100.027 106.550 1.857 0.811 o
-5 6 5 9.538 11.181 0.535 38.200 o
-5 6 6 1.451 1.667 0.191 394.458 o
-5 6 7 46.280 53.521 1.969 2.846 o
-5 7 -8 11.388 13.071 0.878 25.618 o
-5 7 -7 1.944 2.761 0.204 270.774 o
-5 7 -6 11.810 10.780 0.459 33.497 o
-5 7 -5 82.131 81.476 1.296 1.243 o
-5 7 -4 39.077 39.849 1.427 4.316 o
-5 7 -3 0.894 0.827 0.137 733.614 o
-5 7 -2 38.595 38.791 1.171 4.615 o
-5 7 -1 23.907 23.493 0.592 11.040 o
-5 7 0 31.771 34.560 0.748 6.433 o
-5 7 1 23.745 25.092 0.730 10.462 o
-5 7 2 5.982 6.069 0.299 83.138 o
-5 7 3 16.203 17.503 0.691 18.390 o
-5 7 4 19.781 23.995 0.916 12.171 o
-5 7 5 5.555 5.801 0.371 84.879 o
-5 7 6 27.185 31.051 1.295 7.201 o
-5 8 -7 18.048 17.023 0.759 16.471 o
-5 8 -6 39.232 40.748 1.219 4.384 o
-5 8 -5 39.407 42.536 1.681 3.959 o
-5 8 -4 77.651 90.844 3.334 1.073 o
-5 8 -3 102.927 121.132 4.328 0.629 o
-5 8 -2 55.856 59.615 2.124 2.171 o
-5 8 -1 30.081 36.805 1.497 5.720 o
-5 8 0 37.062 37.398 1.082 4.980 o
-5 8 1 26.324 24.993 0.755 9.371 o
-5 8 2 6.313 6.508 0.416 71.244 o
-5 8 3 18.552 20.980 0.767 14.474 o
-5 8 4 2.416 2.472 0.259 227.595 o
-5 8 5 17.544 19.574 0.973 14.675 o
-5 9 -7 0.391 0.434 0.127 1401.890 o
-5 9 -6 21.379 24.907 0.969 10.964 o
-5 9 -5 10.382 11.410 0.561 34.870 o
-5 9 -4 122.153 134.869 4.935 0.475 o
-5 9 -3 35.055 39.035 1.306 4.976 o
-5 9 -2 8.318 10.184 0.555 43.706 o
-5 9 -1 42.756 47.177 1.940 3.309 o
-5 9 0 3.120 3.397 0.321 160.244 o
-5 9 1 7.255 6.378 0.502 60.338 o
-5 9 2 15.941 16.750 0.849 17.962 o
-5 9 3 5.626 5.761 0.443 79.159 o
-5 10 -6 8.691 9.802 0.847 34.852 o
-5 10 -5 9.478 10.755 0.559 38.550 o
-5 10 -4 9.443 11.915 0.521 37.627 o
-5 10 -3 16.302 16.926 0.877 17.339 o
-5 10 -2 5.725 6.929 0.538 66.819 o
-5 10 -1 2.314 3.024 0.330 194.368 o
-5 10 0 2.104 2.426 0.427 180.083 o
-5 10 1 13.583 14.425 1.001 20.235 o
-5 11 -4 3.379 3.887 0.323 145.013 o
-5 11 -3 11.718 13.798 0.659 27.581 o
-5 11 -2 3.518 3.504 0.373 137.239 o
-4 -8 2 9.489 9.874 0.863 32.497 o
-4 -8 3 6.869 6.503 0.934 41.196 o
-4 -8 4 19.195 16.319 2.231 8.211 o
-4 -8 5 83.505 72.777 8.034 0.623 o
-4 -8 6 0.208 0.236 0.097 2580.460 o
-4 -8 7 43.401 45.596 2.930 2.737 o
-4 -8 8 10.256 11.910 0.756 30.896 o
-4 -8 9 11.143 10.322 0.937 27.281 o
-4 -7 0 3.295 4.101 0.560 103.083 o
-4 -7 1 16.030 12.876 0.959 18.892 o
-4 -7 2 0.590 0.661 0.154 922.379 o
-4 -7 3 11.377 11.797 0.597 31.281 o
-4 -7 4 49.493 50.409 1.840 2.799 o
-4 -7 5 141.509 152.265 3.388 0.404 o
-4 -7 6 1.435 1.079 0.243 395.340 o
-4 -7 7 19.154 19.376 1.726 9.983 o
-4 -7 8 16.205 15.524 1.034 16.875 o
-4 -7 9 17.314 20.604 1.615 10.973 o
-4 -7 10 40.040 40.538 1.037 4.404 o
-4 -6 -1 13.841 9.130 0.974 23.498 o
-4 -6 0 11.286 7.185 0.961 29.325 o
-4 -6 1 10.299 8.811 1.100 26.643 o
-4 -6 2 53.058 56.518 2.292 2.303 o
-4 -6 3 198.798 226.795 5.769 0.196 o
-4 -6 4 385.783 403.725 5.742 0.060 o
-4 -6 5 56.226 57.610 1.535 2.344 o
-4 -6 6 87.162 80.946 6.909 0.678 o
-4 -6 7 44.465 45.252 1.720 3.371 o
-4 -6 8 23.745 23.908 1.205 9.489 o
-4 -6 9 30.511 30.165 2.685 4.421 o
-4 -6 10 8.782 8.679 0.550 44.973 o
-4 -6 11 32.214 34.511 1.104 6.009 o
-4 -5 -2 0.049 -0.035 0.276 949.887 o
-4 -5 -1 14.384 11.050 0.986 21.427 o
-4 -5 0 4.659 3.609 0.515 94.768 o
-4 -5 1 84.522 81.449 5.056 0.869 o
-4 -5 2 229.435 232.105 4.405 0.168 o
-4 -5 3 65.955 75.917 4.058 1.264 o
-4 -5 4 58.688 65.758 1.705 2.035 o
-4 -5 5 15.565 14.933 0.653 20.840 o
-4 -5 6 43.522 42.350 1.884 3.469 o
-4 -5 7 155.140 141.923 2.492 0.388 o
-4 -5 8 4.177 4.294 0.518 96.191 o
-4 -5 9 2.595 2.951 0.453 148.980 o
-4 -5 10 2.190 2.535 0.323 214.118 o
-4 -5 11 3.046 3.506 0.309 163.516 o
-4 -4 -3 3.283 1.756 0.399 161.360 o
-4 -4 -2 4.221 3.881 0.666 80.000 o
-4 -4 -1 58.568 57.012 1.911 2.167 o
-4 -4 0 3.436 2.802 0.328 158.123 o
-4 -4 1 8.864 7.775 0.513 47.657 o
-4 -4 2 105.637 106.992 4.045 0.670 o
-4 -4 3 96.621 101.792 5.526 0.662 o
-4 -4 4 105.466 118.320 2.091 0.705 o
-4 -4 5 145.215 151.400 5.168 0.365 o
-4 -4 6 98.993 93.675 1.718 0.893 o
-4 -4 7 418.460 397.897 6.381 0.055 o
-4 -4 8 8.933 9.483 0.639 40.397 o
-4 -4 9 8.065 8.171 0.549 49.181 o
-4 -4 10 44.298 47.114 1.412 3.459 o
-4 -4 11 9.766 12.006 0.735 32.294 o
-4 -3 -4 39.614 33.151 1.862 4.277 o
-4 -3 -3 71.680 62.570 9.887 0.537 o
-4 -3 -2 198.354 211.298 5.218 0.209 o
-4 -3 -1 38.991 39.014 1.403 4.392 o
-4 -3 0 65.281 64.581 1.928 1.791 o
-4 -3 1 69.658 67.573 1.936 1.621 o
-4 -3 2 33.334 33.966 0.889 6.052 o
-4 -3 3 8.151 6.380 0.382 59.651 o
-4 -3 4 57.367 53.071 1.232 2.463 o
-4 -3 5 30.023 31.645 0.726 7.211 o
-4 -3 6 84.736 79.263 3.104 1.078 o
-4 -3 7 54.697 48.685 1.080 2.766 o
-4 -3 8 283.935 268.167 4.240 0.118 o
-4 -3 9 24.975 24.256 0.820 9.921 o
-4 -3 10 3.025 2.854 0.329 170.377 o
-4 -3 11 18.610 19.105 1.639 10.638 o
-4 -2 -5 9.854 9.103 0.595 39.143 o
-4 -2 -4 40.819 31.642 2.033 4.077 o
-4 -2 -3 131.250 123.486 13.577 0.233 o
-4 -2 -2 3.091 3.995 0.436 129.220 o
-4 -2 -1 27.310 31.026 1.134 7.450 o
-4 -2 0 111.613 118.286 2.332 0.654 o
-4 -2 1 24.981 27.561 0.722 9.452 o
-4 -2 2 143.572 145.223 2.615 0.420 o
-4 -2 3 170.035 199.471 9.282 0.215 o
-4 -2 4 10.554 9.403 0.520 38.097 o
-4 -2 5 103.444 103.354 1.506 0.804 o
-4 -2 6 428.843 400.073 6.488 0.053 o
-4 -2 7 9.996 9.121 0.422 42.513 o
-4 -2 8 40.762 38.614 1.094 4.402 o
-4 -2 9 182.420 175.824 6.032 0.249 o
-4 -2 10 0.663 0.517 0.142 965.580 o
-4 -2 11 12.354 12.464 1.089 21.662 o
-4 -1 -6 2.527 2.765 0.495 141.747 o
-4 -1 -5 9.283 8.561 0.586 42.262 o
-4 -1 -4 80.954 72.317 5.168 0.935 o
-4 -1 -3 59.949 59.291 4.280 1.474 o
-4 -1 -2 68.375 67.317 2.181 1.623 o
-4 -1 -1 80.551 85.308 3.062 1.098 o
-4 -1 0 185.737 197.589 2.674 0.251 o
-4 -1 1 547.876 578.982 9.630 0.030 o
-4 -1 2 102.034 113.857 2.746 0.729 o
-4 -1 3 88.907 97.568 5.445 0.734 o
-4 -1 4 188.361 203.456 2.559 0.242 o
-4 -1 5 179.112 164.134 2.404 0.296 o
-4 -1 6 130.375 122.999 2.731 0.521 o
-4 -1 7 81.721 78.570 3.202 1.116 o
-4 -1 8 71.697 71.302 3.160 1.351 o
-4 -1 9 42.285 42.051 1.389 3.882 o
-4 -1 10 6.855 6.165 0.557 60.669 o
-4 -1 11 4.681 4.363 0.291 114.877 o
-4 0 -7 8.342 7.921 0.692 43.502 o
-4 0 -6 69.588 67.663 3.873 1.305 o
-4 0 -5 57.730 57.401 3.322 1.805 o
-4 0 -4 21.909 21.652 0.850 11.884 o
-4 0 -3 53.421 45.496 2.750 2.359 o
-4 0 -2 147.777 145.446 5.841 0.353 o
-4 0 -1 556.712 587.063 4.205 0.030 o
-4 0 0 352.568 375.689 6.780 0.070 o
-4 0 1 173.763 187.174 6.866 0.245 o
-4 0 2 0.840 0.835 0.355 364.539 o
-4 0 3 156.583 169.892 3.628 0.332 o
-4 0 4 880.221 855.479 16.317 0.012 o
-4 0 5 27.313 26.756 0.635 8.872 o
-4 0 6 150.130 154.050 5.869 0.336 o
-4 0 7 12.034 12.741 0.559 29.313 o
-4 0 8 49.475 49.479 2.479 2.562 o
-4 0 9 18.023 21.252 1.823 9.606 o
-4 0 10 21.460 24.048 0.842 11.519 o
-4 1 -7 28.203 28.189 0.661 8.300 o
-4 1 -6 145.990 138.545 7.247 0.337 o
-4 1 -5 35.529 37.053 1.545 4.829 o
-4 1 -4 154.358 154.366 3.616 0.359 o
-4 1 -3 1.594 1.233 0.186 410.613 o
-4 1 -2 40.672 41.867 1.260 4.132 o
-4 1 -1 102.283 100.332 2.372 0.800 o
-4 1 0 121.242 143.079 4.479 0.475 o
-4 1 1 216.265 232.644 5.189 0.177 o
-4 1 2 139.083 139.206 1.681 0.459 o
-4 1 3 2154.290 2189.890 29.268 0.002 o
-4 1 4 143.117 144.817 4.437 0.394 o
-4 1 5 237.067 268.298 7.588 0.137 o
-4 1 6 39.709 43.151 1.713 3.878 o
-4 1 7 55.386 56.247 2.249 2.224 o
-4 1 8 47.114 50.499 1.964 2.890 o
-4 1 9 76.447 80.409 1.777 1.331 o
-4 1 10 15.549 17.151 1.335 14.447 o
-4 2 -8 8.935 8.158 0.701 40.753 o
-4 2 -7 29.985 28.314 0.641 7.763 o
-4 2 -6 11.255 11.147 0.516 33.638 o
-4 2 -5 40.536 38.239 1.153 4.418 o
-4 2 -4 116.316 108.139 3.048 0.635 o
-4 2 -3 11.200 12.199 0.532 32.204 o
-4 2 -2 256.887 290.181 8.558 0.116 o
-4 2 -1 22.897 27.235 1.316 8.895 o
-4 2 0 243.466 271.406 8.474 0.129 o
-4 2 1 53.604 49.597 1.969 2.548 o
-4 2 2 243.745 241.796 2.409 0.156 o
-4 2 3 294.831 302.457 5.637 0.102 o
-4 2 4 29.745 26.614 3.024 4.172 o
-4 2 5 345.315 327.981 6.586 0.078 o
-4 2 6 341.938 359.478 13.873 0.065 o
-4 2 7 38.420 38.928 1.536 4.363 o
-4 2 8 56.712 67.088 2.740 1.849 o
-4 2 9 3.005 3.168 0.296 173.630 o
-4 2 10 5.754 6.326 0.554 67.742 o
-4 3 -8 1.842 1.628 0.122 380.956 o
-4 3 -7 47.569 47.544 0.775 3.386 o
-4 3 -6 228.144 233.693 3.078 0.173 o
-4 3 -5 9.034 9.681 0.467 44.178 o
-4 3 -4 135.333 119.284 2.311 0.513 o
-4 3 -3 30.106 31.363 0.718 7.234 o
-4 3 -2 272.556 319.606 5.760 0.108 o
-4 3 -1 846.057 969.569 15.232 0.012 o
-4 3 0 32.864 33.071 1.139 5.985 o
-4 3 1 36.427 39.791 1.064 4.912 o
-4 3 2 102.189 109.727 4.844 0.643 o
-4 3 3 167.007 184.699 3.577 0.292 o
-4 3 4 130.913 137.984 1.783 0.497 o
-4 3 5 82.957 79.540 1.825 1.213 o
-4 3 6 98.655 101.267 2.737 0.814 o
-4 3 7 9.501 10.181 0.381 43.176 o
-4 3 8 2.010 3.022 0.221 249.593 o
-4 3 9 5.777 7.768 0.717 53.390 o
-4 4 -8 53.242 53.549 0.695 2.776 o
-4 4 -7 0.405 0.539 0.077 1577.220 o
-4 4 -6 156.463 154.486 2.135 0.367 o
-4 4 -5 210.833 196.408 2.590 0.214 o
-4 4 -4 212.618 205.706 2.911 0.205 o
-4 4 -3 62.419 64.738 1.554 1.943 o
-4 4 -2 0.502 0.360 0.101 1431.730 o
-4 4 -1 260.334 284.670 7.720 0.118 o
-4 4 0 156.185 160.129 2.850 0.354 o
-4 4 1 400.734 432.742 16.291 0.047 o
-4 4 2 1.567 1.307 0.209 389.863 o
-4 4 3 290.953 295.127 3.429 0.108 o
-4 4 4 58.947 57.395 0.793 2.346 o
-4 4 5 200.993 209.936 5.465 0.205 o
-4 4 6 19.569 21.994 0.698 13.683 o
-4 4 7 20.721 25.841 0.899 11.269 o
-4 4 8 5.235 6.139 0.368 86.847 o
-4 5 -8 1.104 0.879 0.099 684.074 o
-4 5 -7 33.446 34.555 0.625 6.169 o
-4 5 -6 49.718 48.404 0.789 3.178 o
-4 5 -5 386.176 380.665 2.426 0.064 o
-4 5 -4 35.934 35.512 0.618 5.606 o
-4 5 -3 124.954 126.236 2.415 0.546 o
-4 5 -2 87.953 89.204 1.827 1.057 o
-4 5 -1 50.754 58.071 1.160 2.704 o
-4 5 0 21.334 20.316 0.472 13.715 o
-4 5 1 36.670 41.934 0.763 4.900 o
-4 5 2 2.092 2.828 0.168 269.448 o
-4 5 3 6.825 8.294 0.305 64.957 o
-4 5 4 109.427 117.804 2.587 0.663 o
-4 5 5 21.407 21.849 0.559 12.954 o
-4 5 6 46.050 53.926 1.125 3.160 o
-4 5 7 25.142 28.527 1.095 8.504 o
-4 6 -9 6.041 6.331 0.580 64.036 o
-4 6 -8 0.868 0.841 0.111 792.751 o
-4 6 -7 36.434 34.910 0.625 5.568 o
-4 6 -6 34.394 35.470 0.662 5.868 o
-4 6 -5 276.232 275.670 4.978 0.119 o
-4 6 -4 116.267 108.000 2.701 0.647 o
-4 6 -3 34.860 35.189 0.653 5.813 o
-4 6 -2 26.706 26.918 0.633 9.063 o
-4 6 -1 81.350 88.140 1.784 1.169 o
-4 6 0 100.919 112.349 2.570 0.751 o
-4 6 1 18.440 19.622 0.480 16.219 o
-4 6 2 41.439 44.803 0.744 4.119 o
-4 6 3 2.508 2.735 0.229 224.641 o
-4 6 4 11.665 12.676 0.542 30.417 o
-4 6 5 36.650 42.396 1.098 4.681 o
-4 6 6 40.581 47.188 1.184 3.902 o
-4 6 7 14.042 17.027 0.634 21.600 o
-4 7 -8 15.875 15.957 0.432 21.183 o
-4 7 -7 68.314 67.710 0.981 1.763 o
-4 7 -6 117.927 118.029 1.670 0.626 o
-4 7 -5 56.496 59.604 1.665 2.257 o
-4 7 -4 210.091 219.980 6.062 0.186 o
-4 7 -3 160.287 174.325 4.607 0.307 o
-4 7 -2 260.827 279.609 5.048 0.126 o
-4 7 -1 62.203 69.504 1.390 1.891 o
-4 7 0 74.401 77.501 1.827 1.399 o
-4 7 1 13.587 13.465 0.496 26.239 o
-4 7 2 10.026 10.397 0.400 40.465 o
-4 7 3 38.516 40.368 1.020 4.616 o
-4 7 4 3.615 4.903 0.293 131.175 o
-4 7 5 20.732 23.899 0.826 11.987 o
-4 8 -8 28.265 30.860 0.700 7.828 o
-4 8 -7 22.105 21.919 0.694 12.165 o
-4 8 -6 14.301 14.608 0.544 23.678 o
-4 8 -5 8.872 9.255 0.550 43.499 o
-4 8 -4 121.763 125.757 4.641 0.505 o
-4 8 -3 190.650 199.865 5.484 0.224 o
-4 8 -2 32.614 32.256 0.856 6.405 o
-4 8 -1 52.322 52.808 1.348 2.720 o
-4 8 0 0.455 0.392 0.107 1454.480 o
-4 8 1 113.232 112.067 1.719 0.679 o
-4 8 2 19.524 19.628 0.790 14.166 o
-4 8 3 5.661 5.656 0.387 83.382 o
-4 8 4 10.063 13.800 0.520 33.228 o
-4 9 -8 32.208 33.879 1.387 5.745 o
-4 9 -7 15.918 17.119 0.654 19.135 o
-4 9 -6 5.732 4.477 0.371 90.683 o
-4 9 -5 21.169 21.218 0.649 13.056 o
-4 9 -4 46.948 53.871 1.250 3.059 o
-4 9 -3 29.270 35.039 1.220 6.404 o
-4 9 -2 14.877 18.078 0.909 17.894 o
-4 9 -1 1.770 2.924 0.274 247.953 o
-4 9 0 76.049 76.686 1.560 1.396 o
-4 9 1 1.965 1.796 0.269 277.386 o
-4 9 2 26.036 25.460 1.094 8.712 o
-4 9 3 5.047 5.022 0.384 94.844 o
-4 10 -7 5.123 5.521 0.807 56.412 o
-4 10 -6 0.774 0.874 0.138 781.468 o
-4 10 -5 0.146 0.260 0.079 3261.050 o
-4 10 -4 0.282 0.729 0.138 1276.680 o
-4 10 -3 40.585 51.894 2.528 2.955 o
-4 10 -2 20.167 24.220 1.473 9.835 o
-4 10 -1 2.231 2.591 0.297 220.513 o
-4 10 0 1.363 1.609 0.295 323.752 o
-4 10 1 5.860 7.982 0.717 52.533 o
-4 11 -5 33.520 39.282 3.472 3.026 o
-4 11 -4 11.651 13.058 0.955 24.077 o
-4 11 -3 6.796 6.815 0.525 60.687 o
-4 11 -2 7.703 8.649 0.950 35.602 o
-3 -9 3 1.402 1.012 0.295 352.288 o
-3 -9 4 3.341 2.313 0.310 173.527 o
-3 -9 5 0.558 0.580 0.171 913.476 o
-3 -9 6 19.880 15.552 0.838 15.166 o
-3 -9 7 14.134 13.360 1.300 17.066 o
-3 -9 8 34.544 37.759 1.890 4.561 o
-3 -8 1 0.656 0.912 0.293 480.823 o
-3 -8 2 7.272 6.567 0.676 51.296 o
-3 -8 3 7.562 6.979 0.583 53.152 o
-3 -8 4 4.525 4.761 0.408 101.566 o
-3 -8 5 4.056 3.582 0.492 106.392 o
-3 -8 6 25.095 23.563 1.102 9.343 o
-3 -8 7 58.383 55.644 6.329 1.067 o
-3 -8 8 5.697 5.309 0.474 78.309 o
-3 -8 9 0.634 1.083 0.352 378.300 o
-3 -8 10 13.680 11.818 0.649 25.952 o
-3 -7 -1 0.590 0.469 0.206 800.826 o
-3 -7 0 0.010 0.307 0.161 2097.940 o
-3 -7 1 3.609 3.549 0.416 126.792 o
-3 -7 2 113.813 112.877 6.702 0.489 o
-3 -7 3 39.066 41.755 2.148 3.679 o
-3 -7 4 111.363 113.543 2.710 0.661 o
-3 -7 5 54.365 53.029 1.397 2.586 o
-3 -7 6 14.260 12.493 0.957 21.053 o
-3 -7 7 40.359 37.641 2.182 3.717 o
-3 -7 8 0.378 0.513 0.156 1183.340 o
-3 -7 9 54.564 57.131 2.908 2.034 o
-3 -7 10 73.624 77.433 4.706 1.046 o
-3 -7 11 7.468 7.516 0.644 49.661 o
-3 -6 -2 18.811 8.347 0.687 20.639 o
-3 -6 0 9.448 7.534 0.869 35.176 o
-3 -6 1 22.182 17.577 1.663 9.542 o
-3 -6 2 124.562 129.397 9.247 0.344 o
-3 -6 3 171.318 179.348 10.833 0.206 o
-3 -6 4 18.101 20.625 1.070 13.448 o
-3 -6 5 90.066 90.831 2.794 0.958 o
-3 -6 6 41.119 34.298 3.017 3.114 o
-3 -6 7 46.205 42.517 1.904 3.246 o
-3 -6 8 12.078 12.117 0.632 28.890 o
-3 -6 9 26.141 29.722 2.289 5.607 o
-3 -6 10 20.401 21.037 0.889 12.760 o
-3 -6 11 10.716 9.888 0.840 30.382 o
-3 -5 -3 25.904 12.193 1.098 11.385 o
-3 -5 -1 45.203 43.404 2.245 3.096 o
-3 -5 0 197.054 210.090 5.420 0.210 o
-3 -5 1 55.807 61.096 4.446 1.494 o
-3 -5 2 266.394 275.100 14.470 0.095 o
-3 -5 3 63.350 76.691 3.585 1.388 o
-3 -5 4 36.855 46.379 1.593 4.085 o
-3 -5 5 1.853 2.965 0.278 239.584 o
-3 -5 6 114.510 107.845 4.043 0.611 o
-3 -5 7 100.891 94.154 2.471 0.839 o
-3 -5 8 111.248 107.659 2.802 0.680 o
-3 -5 9 8.717 9.591 0.900 33.613 o
-3 -5 10 11.793 12.813 0.734 27.308 o
-3 -5 11 8.102 10.189 0.675 40.960 o
-3 -4 -4 7.918 3.707 0.562 61.416 o
-3 -4 -3 62.448 55.641 2.164 1.987 o
-3 -4 -2 29.287 31.928 2.809 4.281 o
-3 -4 -1 89.386 86.788 3.594 0.929 o
-3 -4 0 85.380 80.004 2.118 1.147 o
-3 -4 1 60.545 77.804 2.674 1.607 o
-3 -4 2 39.864 44.222 3.240 2.756 o
-3 -4 3 3.249 2.329 0.289 181.992 o
-3 -4 4 31.543 32.620 0.871 6.585 o
-3 -4 5 182.772 196.233 3.646 0.251 o
-3 -4 6 86.245 80.185 1.366 1.178 o
-3 -4 7 19.418 19.662 1.085 12.883 o
-3 -4 8 67.469 69.445 3.580 1.379 o
-3 -4 9 62.793 65.777 3.275 1.578 o
-3 -4 10 17.189 19.736 1.027 14.560 o
-3 -4 11 6.212 6.517 0.540 64.737 o
-3 -3 -5 17.900 12.640 1.084 16.279 o
-3 -3 -4 2.941 1.916 0.402 168.767 o
-3 -3 -3 33.709 32.651 1.496 5.466 o
-3 -3 -2 153.176 151.325 6.044 0.329 o
-3 -3 -1 37.645 41.616 1.386 4.409 o
-3 -3 0 33.520 39.852 1.360 5.089 o
-3 -3 1 396.120 415.597 13.544 0.051 o
-3 -3 2 221.768 212.997 9.454 0.158 o
-3 -3 3 442.459 464.566 28.896 0.031 o
-3 -3 4 66.291 64.867 1.411 1.829 o
-3 -3 5 208.243 193.153 16.549 0.124 o
-3 -3 6 74.373 75.173 1.235 1.476 o
-3 -3 7 419.840 417.813 21.997 0.040 o
-3 -3 8 78.839 76.770 3.710 1.112 o
-3 -3 9 113.124 111.254 3.140 0.643 o
-3 -3 10 40.539 40.517 1.957 3.749 o
-3 -3 11 1.181 1.307 0.163 510.458 o
-3 -2 -6 15.574 10.411 0.988 20.394 o
-3 -2 -5 17.794 16.808 1.712 11.008 o
-3 -2 -4 119.214 106.664 5.704 0.521 o
-3 -2 -3 380.957 395.761 10.166 0.059 o
-3 -2 -2 69.475 70.506 1.840 1.599 o
-3 -2 -1 28.026 25.304 0.958 8.369 o
-3 -2 0 74.498 77.754 1.463 1.426 o
-3 -2 1 234.662 214.965 2.814 0.176 o
-3 -2 2 48.696 50.343 1.139 3.094 o
-3 -2 3 248.643 238.196 12.886 0.116 o
-3 -2 4 234.145 226.210 7.923 0.152 o
-3 -2 5 180.536 173.440 3.038 0.280 o
-3 -2 6 202.240 188.723 3.070 0.230 o
-3 -2 7 57.965 60.644 2.419 1.995 o
-3 -2 8 126.585 126.871 5.531 0.456 o
-3 -2 9 74.391 77.741 4.478 1.066 o
-3 -2 10 5.308 5.768 0.419 84.234 o
-3 -2 11 2.609 2.077 0.173 256.750 o
-3 -1 -6 24.467 29.085 1.566 7.546 o
-3 -1 -5 131.709 131.092 4.843 0.448 o
-3 -1 -4 164.976 172.753 3.303 0.312 o
-3 -1 -3 126.899 130.458 2.480 0.524 o
-3 -1 -2 46.880 43.430 1.279 3.454 o
-3 -1 -1 345.457 340.696 3.213 0.079 o
-3 -1 0 831.315 839.461 12.246 0.014 o
-3 -1 1 7.909 8.148 0.506 51.518 o
-3 -1 2 373.905 376.731 5.612 0.066 o
-3 -1 3 314.324 326.462 6.634 0.088 o
-3 -1 4 74.891 84.252 4.617 1.003 o
-3 -1 5 231.917 224.323 9.880 0.144 o
-3 -1 6 158.278 144.996 3.366 0.364 o
-3 -1 7 53.677 55.026 1.667 2.499 o
-3 -1 8 5.198 6.899 0.449 77.319 o
-3 -1 9 173.659 188.438 9.402 0.215 o
-3 -1 10 21.426 21.522 0.828 12.252 o
-3 -1 11 6.588 6.452 0.591 59.567 o
-3 0 -7 23.736 26.587 1.044 9.431 o
-3 0 -6 69.054 63.620 2.804 1.549 o
-3 0 -5 31.958 26.971 1.369 6.469 o
-3 0 -4 144.213 125.120 11.563 0.258 o
-3 0 -3 16.976 16.556 1.524 12.530 o
-3 0 -2 423.176 399.867 11.542 0.050 o
-3 0 -1 150.009 134.397 2.415 0.419 o
-3 0 0 224.667 235.338 5.530 0.167 o
-3 0 1 307.014 320.129 10.367 0.086 o
-3 0 2 373.289 384.401 4.955 0.065 o
-3 0 3 865.134 861.048 4.973 0.013 o
-3 0 4 1552.740 1552.220 26.830 0.004 o
-3 0 5 323.958 317.616 26.174 0.050 o
-3 0 6 8.623 9.222 0.844 35.828 o
-3 0 7 0.287 0.734 0.093 1529.420 o
-3 0 8 92.570 97.986 3.746 0.828 o
-3 0 9 123.187 139.897 11.699 0.273 o
-3 0 10 20.067 21.094 0.770 13.396 o
-3 1 -8 5.934 5.925 0.455 74.617 o
-3 1 -7 5.806 5.704 0.323 85.807 o
-3 1 -6 34.011 32.420 1.317 5.642 o
-3 1 -5 245.006 233.562 8.977 0.137 o
-3 1 -4 19.146 15.113 0.975 15.119 o
-3 1 -3 21.095 18.323 1.325 11.257 o
-3 1 -2 224.392 228.617 3.912 0.176 o
-3 1 -1 1805.370 1770.440 11.352 0.003 o
-3 1 0 257.951 256.477 5.337 0.134 o
-3 1 1 544.909 515.185 3.855 0.033 o
-3 1 2 1719.200 1748.850 21.226 0.003 o
-3 1 3 2335.620 2528.760 14.425 0.002 o
-3 1 4 403.171 382.814 6.811 0.058 o
-3 1 5 25.655 26.397 1.204 8.436 o
-3 1 6 54.807 55.433 1.739 2.413 o
-3 1 7 57.111 57.475 2.205 2.142 o
-3 1 8 78.752 86.494 3.470 1.073 o
-3 1 9 18.693 22.199 1.252 11.806 o
-3 1 10 22.546 28.813 0.963 9.657 o
-3 2 -8 2.336 2.422 0.158 269.126 o
-3 2 -7 50.663 48.630 1.067 3.035 o
-3 2 -6 136.597 129.467 3.847 0.456 o
-3 2 -5 123.922 120.227 4.631 0.508 o
-3 2 -4 18.749 16.601 0.618 16.748 o
-3 2 -3 143.146 149.030 3.265 0.406 o
-3 2 -2 259.083 280.584 7.422 0.121 o
-3 2 -1 60.102 63.523 1.635 2.036 o
-3 2 0 729.129 777.882 11.272 0.017 o
-3 2 1 740.038 752.262 14.493 0.017 o
-3 2 2 78.444 88.145 4.879 0.914 o
-3 2 3 293.803 316.542 8.850 0.094 o
-3 2 4 387.959 393.977 24.080 0.042 o
-3 2 5 121.456 125.066 3.256 0.549 o
-3 2 6 0.669 0.827 0.081 999.980 o
-3 2 7 85.508 92.920 2.568 1.018 o
-3 2 8 52.941 61.013 1.885 2.330 o
-3 2 9 14.711 21.806 0.875 16.601 o
-3 3 -9 1.382 0.884 0.175 499.275 o
-3 3 -8 16.885 18.269 0.474 18.406 o
-3 3 -7 87.824 93.035 1.883 1.029 o
-3 3 -6 20.059 20.372 0.659 14.037 o
-3 3 -5 44.397 41.823 1.439 3.667 o
-3 3 -4 16.496 17.114 0.573 18.979 o
-3 3 -3 57.150 61.098 1.138 2.296 o
-3 3 -2 54.969 62.514 1.502 2.296 o
-3 3 -1 281.387 325.943 10.835 0.092 o
-3 3 0 13.139 14.225 0.375 27.378 o
-3 3 1 560.675 603.254 19.397 0.025 o
-3 3 2 323.239 367.737 6.555 0.079 o
-3 3 3 181.730 187.108 4.329 0.256 o
-3 3 4 206.811 199.068 2.754 0.217 o
-3 3 5 6.560 6.240 0.243 78.663 o
-3 3 6 73.087 76.042 2.486 1.370 o
-3 3 7 0.958 0.887 0.121 716.825 o
-3 3 8 25.369 30.265 1.351 7.648 o
-3 3 9 12.754 14.443 0.885 22.554 o
-3 4 -9 27.321 27.963 1.073 7.974 o
-3 4 -8 7.133 6.947 0.331 66.803 o
-3 4 -7 5.688 5.190 0.260 94.508 o
-3 4 -6 43.521 38.540 0.697 4.255 o
-3 4 -5 31.993 34.398 0.618 6.501 o
-3 4 -4 195.198 187.125 2.623 0.244 o
-3 4 -3 374.848 444.370 5.084 0.059 o
-3 4 -2 336.917 398.868 10.618 0.067 o
-3 4 -1 60.057 62.799 2.289 1.918 o
-3 4 0 140.799 158.360 4.856 0.373 o
-3 4 1 99.794 105.685 5.448 0.636 o
-3 4 2 71.419 73.401 2.329 1.454 o
-3 4 3 45.962 44.557 0.691 3.681 o
-3 4 4 10.119 10.471 0.310 41.418 o
-3 4 5 58.988 60.259 1.956 2.076 o
-3 4 6 2.462 3.633 0.220 205.448 o
-3 4 7 58.652 71.945 1.622 1.938 o
-3 4 8 35.115 45.335 1.211 4.615 o
-3 5 -9 0.114 0.153 0.049 5409.930 o
-3 5 -8 4.506 4.704 0.217 121.978 o
-3 5 -7 0.045 0.069 0.074 7327.930 o
-3 5 -6 10.855 9.387 0.374 39.762 o
-3 5 -5 255.108 248.813 3.044 0.144 o
-3 5 -4 317.982 319.928 4.694 0.091 o
-3 5 -3 38.681 39.221 0.825 4.776 o
-3 5 -2 52.788 56.778 1.734 2.480 o
-3 5 -1 117.858 115.447 2.159 0.625 o
-3 5 0 266.913 263.809 9.682 0.114 o
-3 5 1 469.000 492.060 10.787 0.040 o
-3 5 2 33.892 31.785 0.618 6.372 o
-3 5 3 64.444 67.130 1.294 1.867 o
-3 5 4 117.371 119.491 2.569 0.606 o
-3 5 5 4.355 3.920 0.237 132.247 o
-3 5 6 23.655 27.357 0.615 10.221 o
-3 5 7 2.053 3.955 0.306 193.156 o
-3 6 -9 11.122 10.584 0.484 35.275 o
-3 6 -8 41.854 41.893 0.717 4.247 o
-3 6 -7 28.527 28.318 0.593 8.254 o
-3 6 -6 215.885 199.837 3.193 0.204 o
-3 6 -5 289.073 287.107 5.809 0.108 o
-3 6 -4 89.504 93.496 2.218 0.985 o
-3 6 -3 40.669 37.990 0.623 4.675 o
-3 6 -2 73.964 75.143 1.495 1.466 o
-3 6 -1 82.570 90.178 1.891 1.126 o
-3 6 0 157.899 175.574 3.480 0.323 o
-3 6 1 49.906 51.048 1.222 2.961 o
-3 6 2 71.968 74.502 1.182 1.548 o
-3 6 3 31.534 36.038 1.015 6.085 o
-3 6 4 67.527 77.281 1.879 1.557 o
-3 6 5 95.213 116.112 3.201 0.756 o
-3 6 6 7.119 9.668 0.624 47.331 o
-3 7 -9 1.105 1.170 0.128 591.813 o
-3 7 -8 29.412 29.542 0.632 7.759 o
-3 7 -7 11.281 10.251 0.397 36.615 o
-3 7 -6 36.776 37.715 0.854 5.150 o
-3 7 -5 58.208 61.223 1.704 2.143 o
-3 7 -4 32.020 33.513 0.984 6.272 o
-3 7 -3 114.411 113.009 1.875 0.664 o
-3 7 -2 139.862 143.646 3.210 0.428 o
-3 7 -1 115.029 123.066 1.861 0.625 o
-3 7 0 43.983 45.447 1.084 3.700 o
-3 7 1 24.237 26.277 0.662 10.121 o
-3 7 2 29.424 30.993 0.805 7.367 o
-3 7 3 29.231 28.158 0.774 7.851 o
-3 7 4 15.449 18.705 0.638 18.875 o
-3 7 5 7.514 10.358 0.397 51.368 o
-3 8 -9 20.828 23.540 1.192 10.763 o
-3 8 -8 13.055 14.226 0.449 26.939 o
-3 8 -7 35.049 38.622 1.053 5.212 o
-3 8 -6 113.282 122.512 3.822 0.583 o
-3 8 -5 90.854 88.570 1.645 1.030 o
-3 8 -4 103.757 110.361 2.481 0.739 o
-3 8 -3 141.103 154.368 3.291 0.404 o
-3 8 -2 38.023 38.742 0.912 4.856 o
-3 8 -1 82.831 83.072 2.178 1.159 o
-3 8 0 94.167 97.468 2.967 0.865 o
-3 8 1 71.036 77.186 1.555 1.506 o
-3 8 2 21.386 22.707 0.795 12.052 o
-3 8 3 7.098 7.894 0.383 61.554 o
-3 8 4 3.055 3.130 0.259 181.038 o
-3 9 -8 37.843 45.719 1.026 4.363 o
-3 9 -7 0.950 0.887 0.125 714.584 o
-3 9 -6 5.216 6.114 0.341 89.197 o
-3 9 -5 51.654 61.648 1.431 2.493 o
-3 9 -4 24.038 27.882 0.767 9.677 o
-3 9 -3 61.661 72.491 2.188 1.736 o
-3 9 -2 29.432 28.396 1.214 7.117 o
-3 9 -1 46.721 53.797 1.803 2.879 o
-3 9 0 98.326 103.803 2.097 0.833 o
-3 9 1 38.437 39.927 1.444 4.373 o
-3 9 2 16.038 15.355 0.809 18.867 o
-3 9 3 30.221 24.036 1.211 7.469 o
-3 10 -8 14.338 15.943 0.904 19.564 o
-3 10 -7 0.704 0.556 0.122 981.203 o
-3 10 -6 1.237 1.405 0.146 501.982 o
-3 10 -5 11.188 11.311 0.480 34.151 o
-3 10 -4 12.566 16.369 0.821 22.252 o
-3 10 -3 32.103 40.818 2.717 3.777 o
-3 10 -2 10.080 12.983 1.006 25.614 o
-3 10 -1 16.855 21.497 1.078 13.908 o
-3 10 0 9.321 10.452 0.522 40.398 o
-3 10 1 0.479 0.554 0.128 1186.990 o
-3 11 -6 29.467 36.994 1.377 5.968 o
-3 11 -5 13.557 14.087 1.173 18.569 o
-3 11 -4 19.435 21.150 1.487 10.635 o
-3 11 -3 16.482 16.241 1.312 14.323 o
-3 11 -2 9.779 11.995 1.060 25.823 o
-2 -10 5 10.622 7.452 0.879 32.281 o
-2 -10 6 18.689 16.470 1.276 13.182 o
-2 -10 7 10.782 10.305 0.922 28.210 o
-2 -9 2 4.535 4.320 0.656 76.564 o
-2 -9 3 5.092 4.754 0.569 78.383 o
-2 -9 4 3.419 3.730 0.536 107.878 o
-2 -9 5 16.266 15.135 1.163 15.965 o
-2 -9 6 16.225 12.288 1.121 17.509 o
-2 -9 7 9.957 7.910 0.817 34.866 o
-2 -9 8 12.946 13.054 0.901 23.023 o
-2 -9 9 0.067 0.246 0.110 3178.420 o
-2 -8 0 0.873 0.584 0.217 619.889 o
-2 -8 1 6.008 5.338 0.494 73.843 o
-2 -8 2 26.593 21.849 2.048 6.698 o
-2 -8 3 33.104 29.512 1.362 6.006 o
-2 -8 4 7.418 5.288 0.414 67.362 o
-2 -8 5 7.847 7.994 0.628 47.628 o
-2 -8 6 27.181 22.524 1.386 8.127 o
-2 -8 7 15.193 12.799 1.411 15.455 o
-2 -8 8 7.741 6.727 0.761 45.277 o
-2 -8 9 0.496 0.468 0.119 1264.740 o
-2 -8 10 13.056 12.674 0.568 27.235 o
-2 -7 -1 11.332 6.986 1.751 16.008 o
-2 -7 0 9.849 8.132 0.964 31.090 o
-2 -7 1 89.876 85.439 6.844 0.656 o
-2 -7 2 52.678 48.944 3.707 1.947 o
-2 -7 3 132.611 133.853 4.986 0.436 o
-2 -7 4 48.563 47.706 1.913 2.908 o
-2 -7 5 10.666 11.868 0.734 30.463 o
-2 -7 6 25.050 22.177 2.080 6.880 o
-2 -7 7 74.007 67.989 3.559 1.277 o
-2 -7 8 0.258 0.975 0.208 840.019 o
-2 -7 9 28.940 30.056 1.043 7.300 o
-2 -7 10 17.798 17.840 0.793 16.151 o
-2 -7 11 23.751 19.381 1.105 10.700 o
-2 -6 -3 0.780 0.419 0.288 518.105 o
-2 -6 -2 41.010 17.571 2.842 3.857 o
-2 -6 0 182.148 159.539 15.365 0.155 o
-2 -6 1 98.505 82.330 6.955 0.611 o
-2 -6 2 108.440 98.885 8.024 0.474 o
-2 -6 3 38.716 43.404 2.132 3.651 o
-2 -6 4 16.357 19.109 0.851 16.496 o
-2 -6 5 5.430 5.894 0.469 78.436 o
-2 -6 6 11.055 11.004 0.810 29.168 o
-2 -6 7 21.335 17.322 0.890 13.313 o
-2 -6 8 1.585 1.814 0.261 316.405 o
-2 -6 9 23.401 22.029 0.989 10.636 o
-2 -6 10 11.884 12.766 0.544 29.806 o
-2 -6 11 2.146 1.869 0.211 288.744 o
-2 -5 -4 7.413 2.648 0.648 62.586 o
-2 -5 -2 140.159 123.466 12.120 0.253 o
-2 -5 -1 129.602 107.482 11.168 0.301 o
-2 -5 0 4.377 4.668 0.572 85.367 o
-2 -5 1 399.147 426.475 18.134 0.046 o
-2 -5 2 87.738 92.993 3.835 0.894 o
-2 -5 3 40.960 39.346 2.336 3.480 o
-2 -5 4 4.976 6.108 0.580 72.633 o
-2 -5 5 38.019 37.891 1.671 4.359 o
-2 -5 6 89.813 81.870 3.680 0.944 o
-2 -5 7 8.002 7.889 0.639 46.787 o
-2 -5 8 115.989 120.983 5.864 0.498 o
-2 -5 9 24.988 26.451 1.029 9.042 o
-2 -5 10 12.793 14.953 0.610 25.221 o
-2 -5 11 18.597 19.467 0.689 15.344 o
-2 -4 -3 1.266 1.624 0.844 88.487 o
-2 -4 -2 220.319 215.659 14.176 0.128 o
-2 -4 -1 7.081 6.585 0.609 55.462 o
-2 -4 0 62.723 72.717 2.537 1.641 o
-2 -4 1 66.105 80.594 3.472 1.319 o
-2 -4 2 100.224 123.069 8.975 0.419 o
-2 -4 3 90.481 117.014 4.213 0.735 o
-2 -4 4 497.726 504.371 24.075 0.030 o
-2 -4 5 7.643 7.777 0.458 55.652 o
-2 -4 6 45.818 40.515 1.330 3.651 o
-2 -4 7 57.014 59.876 2.057 2.137 o
-2 -4 8 198.790 211.928 9.773 0.175 o
-2 -4 9 6.283 6.843 0.448 68.312 o
-2 -4 10 54.154 57.449 2.005 2.322 o
-2 -4 11 15.317 14.204 1.335 15.564 o
-2 -3 -4 63.830 55.195 1.994 1.983 o
-2 -3 -3 195.894 191.040 3.635 0.235 o
-2 -3 -2 187.945 188.300 5.757 0.234 o
-2 -3 -1 38.583 40.887 1.154 4.494 o
-2 -3 0 831.460 887.897 10.961 0.013 o
-2 -3 1 128.355 136.250 2.494 0.503 o
-2 -3 2 165.908 155.817 10.142 0.235 o
-2 -3 3 314.076 355.482 17.762 0.064 o
-2 -3 4 1033.710 1055.060 17.989 0.009 o
-2 -3 5 274.597 261.237 6.308 0.121 o
-2 -3 6 47.358 48.641 1.357 3.182 o
-2 -3 7 40.970 38.073 2.056 3.744 o
-2 -3 8 123.028 120.222 4.891 0.504 o
-2 -3 9 42.985 43.109 1.367 3.775 o
-2 -3 10 0.692 0.663 0.120 952.478 o
-2 -3 11 7.839 6.997 0.756 44.607 o
-2 -2 -5 50.477 40.079 3.556 2.225 o
-2 -2 -4 36.077 36.111 1.617 4.749 o
-2 -2 -3 112.332 121.120 2.156 0.643 o
-2 -2 -2 124.561 127.029 2.237 0.550 o
-2 -2 -1 66.699 58.483 1.204 1.950 o
-2 -2 0 75.133 63.816 1.143 1.608 o
-2 -2 1 21.696 23.946 0.639 11.970 o
-2 -2 2 586.691 584.160 12.608 0.026 o
-2 -2 3 166.800 163.632 4.536 0.305 o
-2 -2 4 99.953 95.285 1.861 0.869 o
-2 -2 5 71.831 68.070 1.896 1.563 o
-2 -2 6 133.009 130.006 2.623 0.493 o
-2 -2 7 279.832 294.412 14.735 0.087 o
-2 -2 8 32.780 33.652 1.383 5.670 o
-2 -2 9 11.560 12.686 0.689 28.538 o
-2 -2 10 23.191 23.438 0.900 10.671 o
-2 -2 11 41.121 48.217 3.457 2.479 o
-2 -1 -7 12.413 12.249 1.132 21.139 o
-2 -1 -6 57.490 55.770 5.995 1.142 o
-2 -1 -5 119.990 114.660 3.198 0.587 o
-2 -1 -4 142.260 142.481 3.488 0.417 o
-2 -1 -3 1.340 0.873 0.227 446.901 o
-2 -1 -2 1156.780 1194.280 16.139 0.007 o
-2 -1 -1 46.822 48.301 1.127 3.316 o
-2 -1 0 779.161 735.020 6.605 0.016 o
-2 -1 1 797.968 739.852 13.264 0.015 o
-2 -1 2 368.509 363.306 9.267 0.065 o
-2 -1 3 272.886 285.433 5.261 0.117 o
-2 -1 4 4.529 4.995 0.399 100.686 o
-2 -1 5 14.380 14.760 0.891 20.288 o
-2 -1 6 158.835 158.325 4.390 0.332 o
-2 -1 7 30.008 32.248 0.936 6.909 o
-2 -1 8 12.548 13.503 0.742 25.312 o
-2 -1 9 43.639 42.830 2.257 3.214 o
-2 -1 10 136.784 143.392 6.846 0.362 o
-2 0 -8 11.896 11.831 0.658 29.182 o
-2 0 -7 93.706 86.052 5.718 0.719 o
-2 0 -6 23.534 23.183 1.039 10.189 o
-2 0 -5 171.069 172.567 3.837 0.294 o
-2 0 -4 18.448 15.636 1.963 9.679 o
-2 0 -3 6.491 7.741 0.641 53.907 o
-2 0 -2 171.408 173.030 12.199 0.192 o
-2 0 -1 297.448 277.427 7.244 0.103 o
-2 0 0 42.052 42.516 0.716 4.188 o
-2 0 1 581.736 547.787 5.266 0.029 o
-2 0 3 1866.660 1983.950 12.614 0.003 o
-2 0 4 355.200 375.662 20.980 0.051 o
-2 0 5 208.524 201.489 13.384 0.144 o
-2 0 6 42.635 41.604 1.453 3.834 o
-2 0 7 7.194 8.296 0.322 61.705 o
-2 0 8 8.400 10.456 0.390 47.061 o
-2 0 9 38.619 42.134 1.626 4.098 o
-2 0 10 10.009 11.370 0.496 37.188 o
-2 1 -8 6.764 6.056 0.581 60.238 o
-2 1 -7 33.707 33.397 1.872 4.957 o
-2 1 -6 28.457 30.840 1.141 7.173 o
-2 1 -5 19.786 17.331 1.109 13.227 o
-2 1 -4 123.538 121.391 8.886 0.366 o
-2 1 -3 255.759 271.988 3.574 0.134 o
-2 1 -2 147.636 151.465 3.979 0.377 o
-2 1 -1 62.751 67.104 1.153 1.943 o
-2 1 0 531.812 516.318 5.984 0.034 o
-2 1 2 188.751 184.578 5.458 0.238 o
-2 1 3 762.655 770.355 18.298 0.015 o
-2 1 4 609.215 629.467 25.100 0.021 o
-2 1 5 70.863 70.004 2.116 1.534 o
-2 1 6 150.565 157.351 3.080 0.372 o
-2 1 7 13.070 15.375 0.535 25.123 o
-2 1 8 25.340 28.443 1.109 8.424 o
-2 1 9 18.216 21.516 0.867 14.076 o
-2 1 10 23.409 26.378 1.150 9.317 o
-2 2 -9 5.343 4.805 0.578 75.202 o
-2 2 -8 55.496 56.971 1.875 2.309 o
-2 2 -7 148.001 149.566 4.411 0.372 o
-2 2 -6 11.846 13.386 0.667 27.625 o
-2 2 -5 22.170 20.745 0.840 12.019 o
-2 2 -4 57.907 59.859 2.413 2.012 o
-2 2 -3 350.803 383.651 12.756 0.063 o
-2 2 -2 422.241 440.602 12.109 0.047 o
-2 2 -1 830.916 811.382 5.885 0.014 o
-2 2 0 459.055 471.027 13.815 0.040 o
-2 2 1 670.888 663.104 24.255 0.018 o
-2 2 2 567.265 587.118 7.035 0.029 o
-2 2 3 272.083 279.334 5.439 0.119 o
-2 2 4 5.277 5.995 0.547 73.286 o
-2 2 5 178.246 172.616 3.291 0.283 o
-2 2 6 25.122 29.085 0.834 8.925 o
-2 2 7 52.470 59.492 2.229 2.285 o
-2 2 8 15.878 20.867 1.170 14.194 o
-2 2 9 5.772 6.187 0.433 76.429 o
-2 3 -9 13.106 14.171 0.689 24.499 o
-2 3 -8 36.105 37.101 1.024 5.188 o
-2 3 -7 5.158 5.116 0.280 101.449 o
-2 3 -6 48.577 47.123 1.370 3.143 o
-2 3 -5 19.446 21.060 0.746 13.905 o
-2 3 -4 300.666 332.932 6.352 0.093 o
-2 3 -3 187.375 192.928 4.086 0.244 o
-2 3 -2 820.476 876.197 14.112 0.013 o
-2 3 -1 710.090 784.713 10.247 0.017 o
-2 3 0 522.428 555.946 21.194 0.028 o
-2 3 1 130.944 129.079 8.425 0.353 o
-2 3 2 252.723 247.376 6.881 0.136 o
-2 3 3 73.150 81.397 4.168 1.100 o
-2 3 4 22.460 26.002 0.521 11.267 o
-2 3 5 101.030 107.393 2.752 0.764 o
-2 3 6 21.659 20.985 0.670 12.764 o
-2 3 7 24.163 26.638 0.932 9.525 o
-2 3 8 39.775 52.364 1.428 3.614 o
-2 4 -10 14.470 10.885 0.795 23.711 o
-2 4 -9 0.684 0.713 0.106 976.594 o
-2 4 -8 34.071 32.209 0.977 6.001 o
-2 4 -7 16.285 14.561 0.428 21.595 o
-2 4 -6 38.735 38.776 0.925 4.747 o
-2 4 -5 19.788 19.248 0.444 15.344 o
-2 4 -4 292.794 311.602 3.184 0.104 o
-2 4 -3 213.166 244.942 2.169 0.184 o
-2 4 -2 220.900 231.924 4.463 0.176 o
-2 4 -1 809.381 895.052 22.941 0.013 o
-2 4 0 654.343 716.874 7.419 0.021 o
-2 4 1 63.078 73.117 2.096 1.702 o
-2 4 2 56.004 65.798 2.207 2.026 o
-2 4 3 154.841 160.931 3.033 0.355 o
-2 4 4 33.642 33.488 0.727 6.169 o
-2 4 5 7.043 8.238 0.299 63.745 o
-2 4 6 12.504 11.690 0.418 31.111 o
-2 4 7 46.304 56.912 1.403 2.951 o
-2 4 8 7.641 11.593 0.668 40.369 o
-2 5 -10 17.782 17.464 1.104 14.475 o
-2 5 -9 16.432 18.646 0.509 18.536 o
-2 5 -8 66.153 65.930 1.010 1.860 o
-2 5 -7 76.888 77.205 1.806 1.352 o
-2 5 -6 26.361 26.698 0.647 9.212 o
-2 5 -5 6.332 6.850 0.248 77.702 o
-2 5 -4 128.895 127.650 2.105 0.527 o
-2 5 -3 93.502 83.900 2.296 0.991 o
-2 5 -2 18.749 21.568 0.644 14.600 o
-2 5 -1 3.140 2.833 0.264 182.482 o
-2 5 0 231.944 234.464 7.751 0.151 o
-2 5 1 210.536 224.068 2.973 0.196 o
-2 5 2 31.005 34.710 0.740 6.593 o
-2 5 3 66.050 66.897 1.649 1.773 o
-2 5 4 1.439 1.752 0.159 413.908 o
-2 5 5 313.542 352.804 4.600 0.087 o
-2 5 6 22.903 27.176 1.122 9.430 o
-2 5 7 22.115 28.700 1.173 9.301 o
-2 6 -10 16.777 17.157 1.056 15.608 o
-2 6 -9 0.016 0.067 0.039 16754.200 o
-2 6 -8 6.100 6.489 0.312 78.950 o
-2 6 -7 57.128 55.970 0.930 2.454 o
-2 6 -6 219.866 216.101 2.823 0.191 o
-2 6 -5 259.130 265.469 5.799 0.130 o
-2 6 -4 69.685 70.584 1.134 1.666 o
-2 6 -3 21.102 25.140 0.509 12.261 o
-2 6 -2 8.586 9.048 0.320 51.139 o
-2 6 -1 24.905 23.832 0.677 10.333 o
-2 6 0 75.470 78.847 1.096 1.417 o
-2 6 1 27.674 34.630 0.641 7.524 o
-2 6 2 31.835 35.182 0.769 6.335 o
-2 6 3 13.851 18.016 0.601 21.451 o
-2 6 4 34.962 33.835 1.093 5.585 o
-2 6 5 8.892 9.120 0.411 47.346 o
-2 6 6 0.320 0.842 0.228 767.315 o
-2 7 -10 3.334 2.783 0.424 139.803 o
-2 7 -9 2.974 3.008 0.202 199.853 o
-2 7 -8 0.485 0.486 0.080 1457.550 o
-2 7 -7 17.004 18.773 0.521 17.817 o
-2 7 -6 26.972 29.887 1.061 7.820 o
-2 7 -5 288.992 289.884 8.329 0.102 o
-2 7 -4 50.068 53.546 0.957 2.934 o
-2 7 -3 147.460 148.219 2.828 0.399 o
-2 7 -2 63.564 62.803 1.090 2.000 o
-2 7 -1 9.737 9.395 0.336 44.653 o
-2 7 0 62.667 62.520 1.213 2.024 o
-2 7 1 47.347 46.530 1.044 3.372 o
-2 7 2 87.414 89.855 1.975 1.052 o
-2 7 3 61.402 68.866 1.923 1.846 o
-2 7 4 7.536 8.430 0.386 56.939 o
-2 7 5 16.538 17.581 1.009 15.947 o
-2 8 -9 15.451 17.855 0.565 19.791 o
-2 8 -8 9.159 9.607 0.440 44.457 o
-2 8 -7 65.037 63.408 1.644 1.862 o
-2 8 -6 16.667 18.451 0.545 18.223 o
-2 8 -5 2.325 2.932 0.209 235.862 o
-2 8 -4 122.230 125.960 2.490 0.560 o
-2 8 -3 3.276 3.129 0.209 182.446 o
-2 8 -2 96.175 97.262 2.403 0.875 o
-2 8 -1 54.262 52.970 1.323 2.611 o
-2 8 0 3.184 3.387 0.340 154.166 o
-2 8 1 14.873 18.156 0.746 19.080 o
-2 8 2 1.960 2.402 0.294 243.525 o
-2 8 3 3.006 3.749 0.268 169.444 o
-2 9 -9 5.560 5.796 0.594 68.303 o
-2 9 -8 5.004 6.566 0.300 91.864 o
-2 9 -7 0.578 0.741 0.109 1051.240 o
-2 9 -6 1.545 1.608 0.146 417.553 o
-2 9 -5 20.788 23.220 0.754 12.368 o
-2 9 -4 0.717 0.691 0.117 930.572 o
-2 9 -3 82.186 95.623 2.905 1.019 o
-2 9 -2 15.040 14.073 0.816 20.640 o
-2 9 -1 30.405 33.261 0.999 6.628 o
-2 9 0 3.148 4.060 0.401 134.114 o
-2 9 1 7.422 8.027 0.601 50.507 o
-2 9 2 9.095 9.984 1.685 17.275 o
-2 10 -8 14.749 19.863 1.072 16.006 o
-2 10 -7 15.791 17.264 0.574 19.688 o
-2 10 -6 1.912 3.113 0.228 250.925 o
-2 10 -5 2.641 2.137 0.199 244.318 o
-2 10 -4 0.373 0.415 0.135 1391.930 o
-2 10 -3 59.811 64.042 3.065 1.724 o
-2 10 -2 18.753 20.764 1.584 10.532 o
-2 10 -1 10.789 13.226 0.766 28.301 o
-2 10 0 37.788 45.062 1.748 3.946 o
-2 11 -6 3.117 4.783 0.534 104.857 o
-2 11 -5 10.623 11.475 2.033 12.499 o
-2 11 -4 24.663 23.346 1.499 8.437 o
-1 -10 3 3.229 2.125 0.611 108.712 o
-1 -10 4 26.110 28.277 1.710 6.933 o
-1 -10 5 2.344 1.665 0.388 200.920 o
-1 -10 6 68.907 64.002 9.045 0.614 o
-1 -10 7 6.662 7.164 0.542 59.594 o
-1 -10 8 20.713 25.414 1.529 9.242 o
-1 -9 1 3.061 1.131 0.531 138.615 o
-1 -9 3 12.953 13.510 2.444 8.879 o
-1 -9 4 14.616 14.773 1.160 17.455 o
-1 -9 5 3.081 2.737 0.476 134.460 o
-1 -9 6 13.392 10.632 2.009 11.857 o
-1 -9 7 9.729 9.185 0.862 32.757 o
-1 -9 8 3.279 2.153 0.272 188.824 o
-1 -9 9 8.223 7.932 0.756 41.667 o
-1 -8 -1 7.810 4.387 0.608 57.549 o
-1 -8 0 13.303 10.026 0.756 26.791 o
-1 -8 1 45.725 41.444 2.214 3.144 o
-1 -8 2 65.634 56.760 5.500 1.140 o
-1 -8 3 40.588 40.437 3.068 2.933 o
-1 -8 4 31.340 25.391 2.584 4.726 o
-1 -8 5 83.201 69.174 4.439 1.016 o
-1 -8 6 2.552 2.151 0.333 202.087 o
-1 -8 7 36.716 37.745 3.694 2.736 o
-1 -8 8 25.308 24.114 1.236 8.830 o
-1 -8 9 16.318 16.991 0.648 18.806 o
-1 -8 10 15.317 15.559 0.637 20.874 o
-1 -7 -1 105.057 70.917 2.741 0.904 o
-1 -7 0 36.409 27.984 3.051 3.586 o
-1 -7 1 349.789 341.558 5.318 0.076 o
-1 -7 2 102.103 106.378 3.920 0.704 o
-1 -7 3 14.781 14.709 0.728 21.359 o
-1 -7 4 35.212 33.748 1.459 5.191 o
-1 -7 5 60.178 53.748 2.225 2.090 o
-1 -7 6 56.722 45.299 3.714 1.880 o
-1 -7 7 84.666 71.891 5.316 0.884 o
-1 -7 8 34.164 35.859 1.442 5.208 o
-1 -7 9 58.430 61.349 1.980 2.071 o
-1 -7 10 20.030 20.760 1.082 12.254 o
-1 -7 11 4.335 3.455 0.456 108.284 o
-1 -6 -3 2.022 -0.278 0.395 258.878 o
-1 -6 -1 211.223 179.245 18.518 0.112 o
-1 -6 0 116.555 103.705 11.646 0.310 o
-1 -6 1 14.378 14.177 1.238 17.153 o
-1 -6 2 34.664 35.871 1.714 4.850 o
-1 -6 3 60.552 58.144 1.127 2.211 o
-1 -6 4 308.698 292.376 5.617 0.098 o
-1 -6 5 6.486 6.822 0.662 55.231 o
-1 -6 6 78.677 68.751 4.928 1.008 o
-1 -6 7 33.129 32.855 1.226 5.860 o
-1 -6 8 7.357 6.407 0.619 53.991 o
-1 -6 9 8.850 8.996 0.458 46.610 o
-1 -6 10 6.247 7.157 0.465 66.494 o
-1 -6 11 12.383 13.697 0.778 24.954 o
-1 -5 -3 12.643 10.352 1.530 16.770 o
-1 -5 -2 341.155 279.323 32.875 0.040 o
-1 -5 -1 191.327 178.582 15.179 0.146 o
-1 -5 0 213.448 215.541 3.878 0.195 o
-1 -5 1 13.959 16.137 1.775 12.297 o
-1 -5 2 49.181 49.456 2.722 2.470 o
-1 -5 3 203.656 230.608 9.135 0.167 o
-1 -5 4 146.237 150.399 3.817 0.386 o
-1 -5 5 88.055 88.430 4.761 0.834 o
-1 -5 6 36.771 34.605 1.538 4.834 o
-1 -5 7 242.327 223.912 4.786 0.159 o
-1 -5 8 198.432 181.112 6.066 0.222 o
-1 -5 9 139.832 146.144 4.524 0.401 o
-1 -5 10 23.819 26.629 1.112 9.225 o
-1 -5 11 0.422 0.362 0.083 1703.030 o
-1 -4 -3 56.508 54.447 2.084 2.262 o
-1 -4 -2 412.653 387.588 23.879 0.040 o
-1 -4 -1 66.207 71.603 1.972 1.654 o
-1 -4 0 49.168 65.952 1.593 2.470 o
-1 -4 1 111.886 128.020 4.177 0.564 o
-1 -4 2 246.487 296.417 6.616 0.126 o
-1 -4 3 288.063 348.008 15.371 0.076 o
-1 -4 4 163.541 168.630 19.423 0.125 o
-1 -4 5 38.632 35.233 1.909 4.229 o
-1 -4 6 22.960 23.202 0.757 11.212 o
-1 -4 7 89.319 91.980 2.805 0.960 o
-1 -4 8 18.730 18.569 0.699 15.551 o
-1 -4 9 32.212 31.825 1.206 6.154 o
-1 -4 10 2.160 2.177 0.207 275.921 o
-1 -4 11 5.563 6.823 0.736 55.671 o
-1 -3 -5 57.981 34.531 3.781 1.975 o
-1 -3 -4 73.620 54.538 3.655 1.391 o
-1 -3 -3 77.262 81.204 1.912 1.295 o
-1 -3 -2 161.035 164.162 3.314 0.331 o
-1 -3 -1 347.188 325.355 5.440 0.079 o
-1 -3 0 39.937 38.770 0.771 4.662 o
-1 -3 1 42.895 50.145 1.247 3.520 o
-1 -3 2 417.134 482.908 9.471 0.047 o
-1 -3 3 416.355 426.972 7.603 0.052 o
-1 -3 4 198.328 209.104 12.653 0.153 o
-1 -3 5 312.400 294.333 33.740 0.040 o
-1 -3 6 23.522 28.951 0.905 9.391 o
-1 -3 7 31.147 34.267 1.401 5.880 o
-1 -3 8 5.923 6.884 0.399 73.984 o
-1 -3 9 27.320 28.819 1.194 7.634 o
-1 -3 10 4.758 4.762 0.286 110.389 o
-1 -3 11 7.623 8.839 1.103 30.974 o
-1 -2 -6 35.044 22.720 2.453 4.664 o
-1 -2 -5 259.165 221.378 15.088 0.105 o
-1 -2 -4 141.547 146.706 6.597 0.352 o
-1 -2 -3 36.576 46.899 2.136 3.682 o
-1 -2 -2 670.399 692.911 5.108 0.021 o
-1 -2 -1 963.347 995.499 25.639 0.009 o
-1 -2 0 339.434 310.105 8.500 0.080 o
-1 -2 1 351.817 344.193 7.500 0.073 o
-1 -2 2 175.666 185.235 8.888 0.221 o
-1 -2 3 583.889 558.110 24.341 0.024 o
-1 -2 4 197.000 178.025 20.990 0.102 o
-1 -2 5 42.295 51.011 4.145 2.039 o
-1 -2 6 123.084 142.606 4.218 0.475 o
-1 -2 7 30.365 31.239 1.158 6.658 o
-1 -2 8 7.691 7.968 0.573 50.512 o
-1 -2 9 23.780 25.914 1.123 9.336 o
-1 -2 10 31.567 32.606 1.118 6.309 o
-1 -1 -7 15.097 11.736 1.458 15.428 o
-1 -1 -6 29.787 24.359 1.859 6.286 o
-1 -1 -5 16.794 16.872 1.174 14.884 o
-1 -1 -4 141.901 144.550 4.615 0.395 o
-1 -1 -3 144.766 151.811 5.404 0.361 o
-1 -1 -2 138.028 150.500 3.547 0.417 o
-1 -1 -1 89.859 85.780 1.157 1.084 o
-1 -1 0 1894.050 1767.940 10.116 0.003 o
-1 -1 2 2019.100 1969.380 12.320 0.002 o
-1 -1 3 394.473 443.867 24.335 0.039 o
-1 -1 4 61.959 77.337 4.225 1.288 o
-1 -1 5 417.765 444.242 45.947 0.021 o
-1 -1 6 11.615 9.846 0.331 37.067 o
-1 -1 7 10.974 12.370 0.600 31.496 o
-1 -1 8 13.775 13.684 0.535 25.360 o
-1 -1 9 68.001 68.074 2.171 1.624 o
-1 -1 10 34.784 33.220 0.936 5.808 o
-1 0 -8 5.724 5.880 0.498 73.693 o
-1 0 -7 23.954 22.449 1.470 8.870 o
-1 0 -6 5.879 6.359 0.524 68.724 o
-1 0 -5 163.334 153.759 5.070 0.318 o
-1 0 -4 152.056 162.117 4.361 0.345 o
-1 0 -3 84.182 82.379 3.767 0.999 o
-1 0 -2 74.746 73.734 3.029 1.290 o
-1 0 -1 871.169 825.981 27.505 0.012 o
-1 0 4 86.448 106.679 18.430 0.181 o
-1 0 5 24.876 25.854 1.595 7.778 o
-1 0 6 67.882 71.968 1.727 1.636 o
-1 0 7 24.749 25.814 0.662 10.000 o
-1 0 8 68.429 70.785 2.350 1.552 o
-1 0 9 5.966 6.647 0.353 77.294 o
-1 0 10 20.739 24.523 2.443 6.458 o
-1 1 -9 13.857 13.054 2.143 10.416 o
-1 1 -8 9.613 9.924 0.529 40.134 o
-1 1 -7 81.316 77.328 4.106 1.029 o
-1 1 -6 68.812 75.675 2.280 1.494 o
-1 1 -5 45.836 45.114 1.256 3.481 o
-1 1 -4 29.807 30.480 1.282 6.685 o
-1 1 -3 923.905 857.791 42.746 0.009 o
-1 1 -2 260.596 231.146 10.621 0.122 o
-1 1 1 159.666 165.966 2.446 0.340 o
-1 1 3 345.238 348.601 6.007 0.076 o
-1 1 4 97.571 108.466 3.444 0.756 o
-1 1 5 218.376 232.320 4.655 0.178 o
-1 1 6 65.397 75.472 1.279 1.707 o
-1 1 7 4.882 5.852 0.279 100.070 o
-1 1 8 1.319 1.956 0.210 378.011 o
-1 1 9 9.879 12.940 0.555 34.276 o
-1 2 -9 32.392 34.806 0.956 6.094 o
-1 2 -8 103.774 103.757 3.122 0.740 o
-1 2 -7 10.604 10.800 0.480 36.541 o
-1 2 -6 87.683 93.137 2.839 0.970 o
-1 2 -5 160.979 154.828 7.262 0.288 o
-1 2 -4 375.782 370.059 17.710 0.053 o
-1 2 -3 1539.640 1414.050 32.767 0.004 o
-1 2 -2 405.324 365.044 33.496 0.032 o
-1 2 -1 1203.330 1127.990 15.897 0.007 o
-1 2 0 1087.530 1125.400 6.954 0.008 o
-1 2 1 446.814 493.410 5.713 0.044 o
-1 2 2 796.737 788.557 41.418 0.011 o
-1 2 3 188.901 201.580 3.538 0.238 o
-1 2 4 166.852 186.762 2.302 0.299 o
-1 2 5 81.825 90.520 1.111 1.177 o
-1 2 6 15.715 16.336 0.464 20.981 o
-1 2 7 37.353 41.395 1.407 4.442 o
-1 2 8 8.670 9.581 0.647 40.901 o
-1 2 9 8.716 10.610 0.628 39.559 o
-1 3 -10 0.991 1.306 0.148 582.721 o
-1 3 -9 32.146 32.858 0.975 6.323 o
-1 3 -8 26.212 25.249 0.743 9.387 o
-1 3 -7 3.349 3.013 0.217 180.223 o
-1 3 -6 41.137 42.391 1.368 3.992 o
-1 3 -5 41.961 41.066 1.020 4.158 o
-1 3 -4 223.860 207.479 7.664 0.169 o
-1 3 -3 1251.650 1258.730 47.692 0.005 o
-1 3 -2 12.380 11.296 0.783 26.891 o
-1 3 -1 118.936 121.353 3.089 0.577 o
-1 3 0 74.230 80.699 4.329 1.069 o
-1 3 1 242.843 258.459 16.953 0.096 o
-1 3 2 352.484 361.726 18.403 0.056 o
-1 3 3 1.334 1.628 0.362 273.980 o
-1 3 4 39.097 38.530 0.620 4.858 o
-1 3 5 106.253 114.671 2.310 0.707 o
-1 3 6 169.282 192.922 5.894 0.258 o
-1 3 7 77.284 83.052 1.447 1.312 o
-1 3 8 17.304 22.065 1.066 13.515 o
-1 4 -10 34.833 33.134 1.866 4.834 o
-1 4 -9 50.381 50.937 1.493 2.852 o
-1 4 -8 25.239 24.792 0.906 9.526 o
-1 4 -7 4.767 4.290 0.254 117.608 o
-1 4 -6 108.318 106.989 2.089 0.728 o
-1 4 -5 207.480 209.504 3.828 0.206 o
-1 4 -4 562.047 609.041 7.438 0.028 o
-1 4 -3 183.430 202.071 5.409 0.233 o
-1 4 -2 389.058 409.154 10.534 0.056 o
-1 4 -1 470.108 477.142 24.978 0.032 o
-1 4 0 8.647 11.053 0.598 39.845 o
-1 4 1 542.345 578.777 15.956 0.028 o
-1 4 2 58.648 69.804 1.379 2.015 o
-1 4 3 112.838 116.466 1.576 0.669 o
-1 4 4 16.869 18.750 0.542 17.872 o
-1 4 5 27.922 32.569 0.745 7.631 o
-1 4 6 5.427 5.040 0.333 94.009 o
-1 4 7 5.636 6.901 0.540 67.479 o
-1 5 -10 6.259 6.344 0.285 79.431 o
-1 5 -9 11.592 10.398 0.419 35.169 o
-1 5 -8 7.485 7.187 0.335 63.104 o
-1 5 -7 64.194 59.240 1.479 1.990 o
-1 5 -6 4.471 4.426 0.207 126.675 o
-1 5 -5 67.188 62.898 0.981 1.879 o
-1 5 -4 95.311 102.170 2.343 0.861 o
-1 5 -3 237.372 252.276 6.061 0.148 o
-1 5 -2 92.589 99.089 3.720 0.825 o
-1 5 -1 16.970 17.103 0.549 18.593 o
-1 5 0 11.032 10.663 0.516 34.898 o
-1 5 1 24.431 25.368 0.546 10.431 o
-1 5 2 139.074 137.502 3.131 0.444 o
-1 5 3 56.740 60.573 1.648 2.229 o
-1 5 4 70.842 79.142 1.239 1.513 o
-1 5 5 7.165 6.272 0.372 67.484 o
-1 5 6 9.070 11.145 0.922 30.649 o
-1 6 -10 25.921 25.698 1.237 8.386 o
-1 6 -9 44.425 43.181 0.849 3.853 o
-1 6 -8 66.152 61.600 1.136 1.922 o
-1 6 -7 67.513 62.283 1.318 1.843 o
-1 6 -6 100.849 103.934 2.279 0.801 o
-1 6 -5 75.266 79.273 1.842 1.361 o
-1 6 -4 72.941 73.476 1.813 1.479 o
-1 6 -3 380.620 393.620 9.775 0.059 o
-1 6 -2 20.928 20.683 0.457 13.906 o
-1 6 -1 21.257 20.092 0.519 13.727 o
-1 6 0 41.102 40.304 0.849 4.380 o
-1 6 1 61.708 65.954 1.439 1.964 o
-1 6 2 5.252 5.722 0.391 87.363 o
-1 6 3 115.135 126.163 2.337 0.605 o
-1 6 4 5.096 4.611 0.313 103.544 o
-1 6 5 1.920 1.919 0.189 318.855 o
-1 7 -10 25.044 23.245 1.233 9.070 o
-1 7 -9 47.078 51.257 0.974 3.226 o
-1 7 -8 1.311 1.333 0.142 496.098 o
-1 7 -7 96.981 95.362 2.866 0.853 o
-1 7 -6 201.480 210.876 7.091 0.193 o
-1 7 -5 3.478 3.821 0.226 159.488 o
-1 7 -4 130.615 128.332 2.112 0.517 o
-1 7 -3 44.361 41.907 0.813 3.937 o
-1 7 -2 287.840 276.184 6.542 0.109 o
-1 7 -1 117.296 104.710 2.794 0.648 o
-1 7 0 63.562 67.662 1.267 1.891 o
-1 7 1 6.803 6.396 0.447 66.142 o
-1 7 2 87.838 92.704 2.417 0.999 o
-1 7 3 1.441 0.725 0.120 565.500 o
-1 7 4 15.530 16.476 0.810 18.800 o
-1 8 -10 4.510 3.602 0.345 119.124 o
-1 8 -9 0.688 0.669 0.118 958.734 o
-1 8 -8 44.295 43.953 0.829 3.834 o
-1 8 -7 8.905 10.412 0.426 44.188 o
-1 8 -6 31.142 33.984 0.886 6.508 o
-1 8 -5 24.706 25.729 0.655 10.049 o
-1 8 -4 96.206 100.142 2.449 0.858 o
-1 8 -3 27.354 27.011 0.683 8.749 o
-1 8 -2 3.601 2.823 0.213 174.828 o
-1 8 -1 12.393 12.627 0.575 28.491 o
-1 8 0 31.300 30.654 0.962 6.763 o
-1 8 1 19.926 24.283 1.150 11.157 o
-1 8 2 10.146 13.741 0.799 28.483 o
-1 8 3 23.659 27.995 1.769 7.368 o
-1 9 -9 6.570 7.112 0.328 70.870 o
-1 9 -8 0.744 1.150 0.122 756.053 o
-1 9 -7 11.617 12.468 0.433 32.154 o
-1 9 -6 21.378 20.754 0.599 13.214 o
-1 9 -5 3.007 3.486 0.255 176.882 o
-1 9 -4 92.535 93.276 2.926 0.907 o
-1 9 -3 18.082 19.009 0.918 14.797 o
-1 9 -2 34.236 34.625 1.029 5.699 o
-1 9 -1 0.603 0.811 0.175 797.596 o
-1 9 0 0.811 1.346 0.269 446.054 o
-1 9 1 39.278 49.591 2.177 3.334 o
-1 10 -8 3.241 2.757 0.280 176.257 o
-1 10 -7 7.084 7.912 0.349 62.904 o
-1 10 -6 4.173 4.612 0.302 121.152 o
-1 10 -5 18.719 19.798 0.864 14.336 o
-1 10 -4 37.233 43.560 3.009 3.077 o
-1 10 -3 20.556 21.350 1.192 11.381 o
-1 10 -2 24.639 30.056 1.477 7.587 o
-1 10 -1 4.021 4.417 0.397 113.755 o
-1 11 -6 12.640 15.867 0.959 20.945 o
-1 11 -5 23.117 30.006 4.866 2.434 o
-1 11 -4 18.939 22.201 1.372 11.143 o
0 -10 2 17.802 14.701 1.847 10.640 o
0 -10 3 13.109 11.143 1.155 20.678 o
0 -10 4 12.327 12.813 1.081 21.596 o
0 -10 5 15.983 12.075 2.378 8.729 o
0 -10 6 5.209 3.695 0.884 54.860 o
0 -10 7 3.035 2.864 0.507 127.257 o
0 -10 8 12.189 16.233 1.337 17.081 o
0 -9 1 9.051 5.872 0.722 43.578 o
0 -9 2 28.596 17.732 1.220 8.841 o
0 -9 3 9.715 7.935 0.973 31.329 o
0 -9 4 17.483 14.880 2.272 8.584 o
0 -9 5 42.471 39.316 3.408 2.641 o
0 -9 6 28.626 19.975 2.876 4.804 o
0 -9 7 4.839 5.449 0.550 79.319 o
0 -9 8 0.193 0.367 0.119 2026.240 o
0 -9 9 1.842 2.256 0.225 291.516 o
0 -8 -1 66.705 27.639 1.223 2.647 o
0 -8 0 76.184 50.637 3.234 1.456 o
0 -8 1 106.700 91.303 5.120 0.657 o
0 -8 2 148.413 141.874 9.044 0.290 o
0 -8 3 193.437 182.771 16.548 0.133 o
0 -8 4 12.946 13.383 1.391 17.019 o
0 -8 5 15.594 11.835 1.245 17.057 o
0 -8 6 6.199 4.669 0.482 75.988 o
0 -8 7 33.652 34.765 3.292 3.305 o
0 -8 8 58.003 50.522 2.015 2.302 o
0 -8 9 4.765 5.690 0.371 95.286 o
0 -8 10 0.820 0.774 0.122 818.757 o
0 -7 -2 6.177 3.133 0.699 65.165 o
0 -7 -1 9.179 5.901 0.719 43.192 o
0 -7 0 74.107 61.966 2.219 1.540 o
0 -7 1 336.631 323.137 15.007 0.068 o
0 -7 2 227.249 224.041 7.852 0.159 o
0 -7 3 28.436 28.807 1.046 7.592 o
0 -7 4 89.273 78.675 2.776 1.048 o
0 -7 5 2.006 2.240 0.295 245.000 o
0 -7 6 30.068 29.191 4.358 2.644 o
0 -7 7 13.308 10.826 0.837 24.964 o
0 -7 8 123.006 119.420 3.416 0.551 o
0 -7 9 1.144 1.213 0.189 499.378 o
0 -7 10 16.585 15.693 0.786 18.301 o
0 -6 -2 44.548 23.398 1.910 4.227 o
0 -6 -1 83.672 55.962 2.834 1.315 o
0 -6 0 31.741 23.192 1.730 6.277 o
0 -6 1 80.285 84.891 2.789 1.132 o
0 -6 2 42.619 42.044 1.543 3.763 o
0 -6 3 16.890 20.314 0.632 16.684 o
0 -6 4 5.207 5.478 0.425 86.488 o
0 -6 5 8.892 6.505 0.458 52.334 o
0 -6 6 24.701 20.228 1.043 10.306 o
0 -6 7 17.947 14.740 0.900 16.690 o
0 -6 8 70.561 65.193 2.939 1.472 o
0 -6 9 85.655 84.759 3.485 0.994 o
0 -6 10 39.792 41.785 2.631 3.256 o
0 -6 11 1.683 1.581 0.213 351.931 o
0 -5 -4 1.166 0.162 0.208 611.971 o
0 -5 -3 28.284 20.125 1.243 8.501 o
0 -5 -2 68.439 64.003 2.066 1.684 o
0 -5 -1 8.791 8.708 0.741 39.121 o
0 -5 0 35.762 31.855 1.359 5.357 o
0 -5 1 75.544 80.076 2.741 1.254 o
0 -5 2 453.052 518.245 21.339 0.034 o
0 -5 3 169.971 187.589 2.983 0.287 o
0 -5 4 75.161 83.460 3.226 1.176 o
0 -5 5 0.105 0.419 0.172 1545.110 o
0 -5 6 109.915 104.881 3.460 0.674 o
0 -5 7 66.767 64.573 1.916 1.748 o
0 -5 8 111.076 108.389 3.474 0.654 o
0 -5 9 11.098 12.994 0.585 30.729 o
0 -5 10 19.890 18.396 0.610 15.064 o
0 -5 11 1.732 1.528 0.217 346.038 o
0 -4 -4 45.300 33.761 2.109 3.524 o
0 -4 -3 1.957 1.936 0.344 233.804 o
0 -4 -2 310.740 298.599 12.588 0.083 o
0 -4 -1 303.141 327.361 6.077 0.093 o
0 -4 0 240.719 255.245 3.441 0.151 o
0 -4 1 620.497 664.268 8.443 0.023 o
0 -4 2 58.914 73.155 1.530 1.922 o
0 -4 3 1098.000 1095.510 41.904 0.007 o
0 -4 4 312.705 286.619 22.612 0.060 o
0 -4 5 72.251 68.510 3.231 1.356 o
0 -4 6 70.846 73.748 3.357 1.313 o
0 -4 7 149.103 150.430 8.165 0.299 o
0 -4 8 125.263 120.968 4.457 0.506 o
0 -4 9 3.178 2.935 0.270 177.497 o
0 -4 10 29.012 30.896 1.568 6.347 o
0 -3 -6 116.361 67.567 4.559 0.705 o
0 -3 -5 83.965 54.346 2.770 1.333 o
0 -3 -4 9.665 7.693 1.127 27.876 o
0 -3 -3 133.161 126.460 3.070 0.493 o
0 -3 -2 900.464 940.566 9.417 0.011 o
0 -3 -1 71.661 73.045 1.065 1.583 o
0 -3 0 522.074 528.806 14.853 0.032 o
0 -3 1 126.881 136.507 2.132 0.515 o
0 -3 2 217.007 242.217 7.440 0.162 o
0 -3 3 773.357 726.442 20.873 0.015 o
0 -3 4 2.706 4.110 0.446 134.262 o
0 -3 5 288.993 316.721 16.046 0.078 o
0 -3 6 76.815 90.123 3.613 1.060 o
0 -3 7 24.048 25.774 0.883 9.851 o
0 -3 8 2.584 2.678 0.248 216.106 o
0 -3 9 75.662 78.447 3.866 1.126 o
0 -3 10 9.502 9.702 0.757 35.292 o
0 -2 -7 59.284 36.983 4.610 1.617 o
0 -2 -6 27.738 24.068 2.246 5.872 o
0 -2 -5 28.944 23.584 1.454 7.373 o
0 -2 -4 9.075 7.840 0.661 42.073 o
0 -2 -3 15.838 23.367 1.577 11.206 o
0 -2 -2 62.904 63.693 1.951 1.877 o
0 -2 0 798.437 726.955 13.245 0.016 o
0 -2 2 460.486 427.139 14.717 0.042 o
0 -2 3 145.169 136.562 12.277 0.236 o
0 -2 4 29.469 33.061 1.101 6.732 o
0 -2 5 173.831 199.217 6.492 0.240 o
0 -2 6 46.643 53.214 1.753 2.922 o
0 -2 7 7.907 8.209 0.429 54.017 o
0 -2 8 17.231 18.076 0.896 15.924 o
0 -2 9 38.278 38.927 1.452 4.445 o
0 -2 10 74.271 81.322 2.004 1.345 o
0 -1 -8 26.448 26.464 1.512 7.505 o
0 -1 -7 25.465 20.953 1.587 8.296 o
0 -1 -6 41.919 34.140 1.495 4.268 o
0 -1 -5 346.316 320.611 6.680 0.079 o
0 -1 -4 21.402 21.665 1.035 11.504 o
0 -1 -3 501.357 548.385 26.601 0.027 o
0 -1 -2 1138.380 1114.540 8.439 0.008 o
0 -1 0 183.908 168.642 1.151 0.286 o
0 -1 1 1272.290 978.658 7.417 0.007 o
0 -1 2 240.414 217.393 16.610 0.106 o
0 -1 3 117.350 133.479 8.691 0.372 o
0 -1 4 4.539 4.765 0.441 97.585 o
0 -1 5 152.100 207.580 16.820 0.144 o
0 -1 6 144.049 158.751 4.366 0.371 o
0 -1 7 91.610 90.184 3.540 0.891 o
0 -1 8 1.878 2.100 0.215 300.517 o
0 -1 9 42.980 44.275 0.864 3.939 o
0 -1 10 30.657 40.917 1.498 5.295 o
0 0 -9 9.305 10.107 0.777 34.768 o
0 0 -7 42.878 36.120 1.614 3.979 o
0 0 -6 4.660 5.196 0.703 68.002 o
0 0 -5 3.689 4.033 0.447 115.581 o
0 0 -4 97.174 96.885 2.070 0.882 o
0 0 -3 95.772 89.903 3.227 0.871 o
0 0 -2 1827.580 1923.480 47.997 0.003 o
0 0 2 1828.970 2190.050 28.090 0.002 o
0 0 3 95.829 121.057 10.231 0.381 o
0 0 4 95.842 106.472 2.482 0.828 o
0 0 5 3.727 4.119 0.233 146.465 o
0 0 6 4.459 5.457 0.281 109.939 o
0 0 7 43.361 44.304 1.111 3.803 o
0 0 8 63.366 67.521 1.199 1.909 o
0 0 9 9.303 10.474 0.447 42.059 o
0 1 -9 43.234 45.001 1.235 3.727 o
0 1 -8 1.941 1.828 0.276 274.496 o
0 1 -7 92.275 88.701 3.337 0.907 o
0 1 -6 145.188 155.243 6.012 0.344 o
0 1 -5 153.055 155.925 7.569 0.297 o
0 1 -4 4.706 3.301 0.387 112.822 o
0 1 -3 118.294 113.932 3.893 0.577 o
0 1 -2 239.363 215.373 9.492 0.144 o
0 1 -1 1269.090 1119.410 7.218 0.007 o
0 1 0 181.906 169.773 1.837 0.287 o
0 1 2 1139.020 1101.250 9.835 0.008 o
0 1 3 503.046 558.140 5.702 0.035 o
0 1 4 21.938 25.270 1.090 10.267 o
0 1 5 347.793 386.140 8.189 0.069 o
0 1 6 42.349 44.486 0.917 3.975 o
0 1 7 25.502 28.000 0.794 9.052 o
0 1 8 26.247 31.302 0.822 8.210 o
0 1 9 38.516 38.917 1.294 4.533 o
0 2 -10 74.320 82.043 1.575 1.374 o
0 2 -9 38.469 42.242 2.652 3.314 o
0 2 -8 17.243 18.928 0.835 15.928 o
0 2 -7 8.237 8.659 0.458 50.201 o
0 2 -6 47.106 50.349 1.398 3.123 o
0 2 -5 173.472 166.837 7.180 0.258 o
0 2 -4 28.663 24.399 1.149 7.957 o
0 2 -3 146.665 137.265 2.385 0.426 o
0 2 -2 463.674 416.149 5.013 0.047 o
0 2 -1 1806.440 1722.040 12.832 0.003 o
0 2 0 797.779 710.834 7.901 0.016 o
0 2 1 2146.420 2049.660 12.759 0.002 o
0 2 2 63.073 67.040 3.141 1.585 o
0 2 3 15.902 22.812 0.945 14.851 o
0 2 4 8.969 9.173 0.301 49.294 o
0 2 5 28.850 31.246 0.677 7.631 o
0 2 6 27.651 34.346 0.762 7.441 o
0 2 7 58.967 67.803 2.789 1.760 o
0 2 8 22.669 22.986 1.160 10.217 o
0 3 -10 9.473 8.852 0.886 33.098 o
0 3 -9 75.555 76.716 3.040 1.248 o
0 3 -8 2.619 2.573 0.220 225.463 o
0 3 -7 23.977 26.639 0.673 10.134 o
0 3 -6 78.612 89.766 2.432 1.152 o
0 3 -5 289.831 300.445 7.914 0.100 o
0 3 -4 2.587 4.291 0.580 108.192 o
0 3 -3 773.464 715.120 18.723 0.016 o
0 3 -2 219.554 211.086 10.888 0.151 o
0 3 -1 126.834 138.711 4.917 0.450 o
0 3 0 521.168 528.447 33.722 0.023 o
0 3 1 72.515 76.429 4.702 1.067 o
0 3 2 905.314 912.454 10.712 0.012 o
0 3 3 133.728 140.838 2.870 0.463 o
0 3 4 9.945 10.152 0.356 41.962 o
0 3 5 84.922 93.892 1.946 1.060 o
0 3 6 115.807 128.790 4.203 0.541 o
0 3 7 18.807 19.330 0.929 14.121 o
0 4 -11 8.926 4.960 0.479 55.584 o
0 4 -10 29.182 28.933 1.535 6.566 o
0 4 -9 3.213 3.130 0.235 179.889 o
0 4 -8 125.752 117.289 2.758 0.559 o
0 4 -7 149.279 141.881 5.207 0.366 o
0 4 -6 71.098 68.471 1.541 1.618 o
0 4 -5 71.600 71.843 0.993 1.606 o
0 4 -4 313.124 301.940 4.235 0.096 o
0 4 -3 1091.500 1132.530 22.060 0.008 o
0 4 -2 57.150 62.218 2.464 1.985 o
0 4 0 241.139 244.857 4.855 0.152 o
0 4 1 306.988 337.417 10.975 0.082 o
0 4 2 312.085 347.470 7.726 0.084 o
0 4 3 1.870 2.677 0.307 234.660 o
0 4 4 45.456 53.680 1.712 3.000 o
0 4 5 83.647 88.422 1.685 1.136 o
0 4 6 2.666 3.508 0.380 158.405 o
0 4 7 9.200 8.681 0.600 41.943 o
0 5 -11 1.711 0.617 0.203 428.185 o
0 5 -10 19.979 17.726 0.724 14.800 o
0 5 -9 11.284 11.528 0.583 32.036 o
0 5 -8 111.909 105.457 2.865 0.681 o
0 5 -7 66.364 61.635 1.225 1.904 o
0 5 -6 109.902 107.172 1.362 0.732 o
0 5 -5 0.085 0.468 0.086 2813.280 o
0 5 -4 75.218 84.005 2.718 1.228 o
0 5 -3 171.213 186.209 5.418 0.265 o
0 5 -2 451.223 454.815 12.699 0.042 o
0 5 -1 76.242 69.978 1.288 1.490 o
0 5 0 35.623 30.849 1.136 5.689 o
0 5 1 8.780 10.408 0.440 44.377 o
0 5 2 68.750 68.671 2.737 1.508 o
0 5 3 28.002 27.790 0.856 8.159 o
0 5 4 1.128 1.290 0.202 478.091 o
0 5 5 1.016 1.115 0.152 600.301 o
0 5 6 2.171 1.933 0.282 250.628 o
0 6 -11 1.703 1.585 0.292 294.404 o
0 6 -10 40.053 41.494 1.395 4.137 o
0 6 -9 86.680 83.219 1.755 1.125 o
0 6 -8 70.514 67.244 1.807 1.619 o
0 6 -7 17.271 14.993 0.417 20.091 o
0 6 -6 25.171 23.171 0.620 10.469 o
0 6 -5 8.794 8.148 0.305 52.762 o
0 6 -4 5.284 5.688 0.237 98.177 o
0 6 -3 16.497 20.196 0.500 17.704 o
0 6 -2 42.044 38.724 0.708 4.418 o
0 6 -1 79.651 80.227 1.283 1.303 o
0 6 0 32.259 28.576 0.705 7.053 o
0 6 1 82.861 82.501 2.737 1.115 o
0 6 2 45.336 48.775 1.165 3.404 o
0 6 3 20.235 20.044 0.717 13.824 o
0 6 4 3.995 5.411 0.329 113.843 o
0 6 5 6.738 8.412 0.654 50.521 o
0 7 -10 16.860 16.790 0.716 17.931 o
0 7 -9 1.122 1.072 0.148 577.393 o
0 7 -8 123.107 123.163 2.261 0.568 o
0 7 -7 13.265 12.838 0.475 27.642 o
0 7 -6 29.676 35.908 1.105 6.375 o
0 7 -5 1.831 2.501 0.181 302.046 o
0 7 -4 88.620 84.618 2.486 1.038 o
0 7 -3 28.708 28.117 0.855 7.901 o
0 7 -2 226.765 226.825 5.101 0.171 o
0 7 -1 336.644 327.024 9.124 0.078 o
0 7 0 73.419 83.469 2.334 1.307 o
0 7 1 9.292 9.801 0.806 34.464 o
0 7 2 6.069 8.091 0.965 39.952 o
0 7 3 14.522 17.938 0.845 18.816 o
0 7 4 23.327 24.693 1.075 9.866 o
0 8 -10 0.814 1.025 0.156 687.209 o
0 8 -9 4.503 5.757 0.289 105.971 o
0 8 -8 58.343 55.177 1.422 2.326 o
0 8 -7 33.049 40.967 1.108 5.299 o
0 8 -6 6.454 6.053 0.341 76.112 o
0 8 -5 15.769 14.414 0.575 21.481 o
0 8 -4 13.025 16.715 0.607 23.479 o
0 8 -3 194.675 186.156 4.735 0.234 o
0 8 -2 148.780 151.440 3.779 0.377 o
0 8 -1 106.207 108.238 3.916 0.668 o
0 8 0 75.775 83.477 5.658 0.874 o
0 8 2 62.923 72.624 3.110 1.530 o
0 9 -9 1.796 2.086 0.148 343.988 o
0 9 -8 0.166 0.121 0.059 4384.540 o
0 9 -7 4.780 6.043 0.322 96.890 o
0 9 -6 28.993 27.295 1.409 7.010 o
0 9 -5 42.962 43.596 2.067 3.352 o
0 9 -4 17.320 18.539 0.661 16.963 o
0 9 -3 9.991 10.795 0.600 36.069 o
0 9 -2 28.639 28.314 0.893 7.838 o
0 9 -1 9.091 12.402 0.821 31.561 o
0 9 0 14.164 17.577 0.795 19.803 o
0 9 1 0.410 0.266 0.120 1571.540 o
0 10 -8 12.140 15.387 1.247 18.437 o
0 10 -7 2.895 3.219 0.251 187.526 o
0 10 -6 5.172 6.233 0.402 84.494 o
0 10 -5 15.622 19.363 1.530 12.470 o
0 10 -4 12.134 15.110 1.031 21.138 o
0 10 -3 12.923 15.154 0.785 22.990 o
0 10 -2 17.809 25.164 1.541 10.251 o
1 -11 4 19.106 20.048 1.715 9.932 o
1 -11 5 23.147 20.539 4.107 3.319 o
1 -11 6 12.600 15.277 1.306 17.452 o
1 -10 1 4.042 2.981 0.731 77.723 o
1 -10 2 24.592 19.566 1.816 8.021 o
1 -10 3 20.450 21.619 2.223 7.422 o
1 -10 4 36.568 37.710 3.557 2.846 o
1 -10 5 18.434 12.394 1.884 10.615 o
1 -10 6 4.039 4.152 0.642 83.180 o
1 -10 7 7.217 7.403 1.798 17.540 o
1 -10 8 3.225 2.957 0.431 138.853 o
1 -9 0 0.798 0.601 0.439 286.809 o
1 -9 1 0.602 0.879 0.288 506.181 o
1 -9 2 34.463 27.822 2.656 4.198 o
1 -9 3 17.852 13.731 1.369 13.851 o
1 -9 4 92.681 70.613 7.240 0.649 o
1 -9 5 3.010 2.356 0.443 148.753 o
1 -9 6 21.530 14.558 3.281 4.915 o
1 -9 7 11.511 12.197 0.669 29.429 o
1 -9 8 0.794 0.856 0.211 612.945 o
1 -9 9 6.496 5.854 0.881 45.863 o
1 -8 0 31.513 17.344 1.583 7.225 o
1 -8 1 12.306 10.201 0.862 26.727 o
1 -8 2 3.642 3.757 0.450 118.304 o
1 -8 3 27.685 23.183 1.413 7.834 o
1 -8 4 96.135 87.040 3.981 0.829 o
1 -8 5 24.870 21.315 2.259 6.528 o
1 -8 6 31.623 27.030 3.726 3.199 o
1 -8 7 8.930 9.557 0.612 41.044 o
1 -8 8 44.431 43.104 1.297 3.675 o
1 -8 9 0.642 0.578 0.125 1014.070 o
1 -8 10 4.359 3.614 0.529 96.770 o
1 -7 -3 1.530 0.832 0.340 307.884 o
1 -7 -2 87.751 38.676 3.105 1.364 o
1 -7 -1 6.813 3.773 0.491 73.908 o
1 -7 0 63.657 55.659 3.453 1.638 o
1 -7 1 116.876 105.190 2.404 0.661 o
1 -7 2 286.398 280.163 10.261 0.100 o
1 -7 3 44.303 39.550 2.716 2.985 o
1 -7 4 129.040 109.515 3.757 0.536 o
1 -7 5 3.271 3.731 0.806 71.950 o
1 -7 6 200.439 144.459 18.389 0.124 o
1 -7 7 96.270 89.024 2.518 0.914 o
1 -7 8 1.259 1.203 0.180 484.621 o
1 -7 9 47.614 50.316 1.164 3.166 o
1 -7 10 25.114 23.581 1.890 7.220 o
1 -6 -2 5.635 3.433 0.698 67.748 o
1 -6 -1 61.380 45.283 2.385 2.163 o
1 -6 0 40.767 35.455 2.050 3.885 o
1 -6 1 21.801 25.034 1.370 9.473 o
1 -6 2 21.821 25.025 0.917 10.886 o
1 -6 3 383.424 389.565 21.694 0.046 o
1 -6 4 74.274 64.722 2.099 1.518 o
1 -6 5 75.566 66.511 5.258 1.010 o
1 -6 6 101.931 96.093 4.675 0.700 o
1 -6 7 67.344 62.125 1.287 1.855 o
1 -6 8 66.314 60.172 1.900 1.832 o
1 -6 9 44.326 43.444 1.195 3.715 o
1 -6 10 25.615 25.994 2.227 6.092 o
1 -5 -3 56.818 39.118 5.082 1.496 o
1 -5 -2 139.350 110.629 12.088 0.262 o
1 -5 -1 24.506 23.765 1.548 8.283 o
1 -5 0 11.531 12.576 1.427 17.989 o
1 -5 1 17.073 20.443 0.963 14.760 o
1 -5 2 91.674 100.668 3.379 0.848 o
1 -5 3 236.754 248.787 7.890 0.142 o
1 -5 4 94.588 95.828 3.584 0.830 o
1 -5 5 66.819 53.881 5.178 1.206 o
1 -5 6 4.565 4.690 0.351 107.747 o
1 -5 7 63.584 59.528 1.816 1.949 o
1 -5 8 7.541 7.141 0.420 59.697 o
1 -5 9 11.662 11.418 0.584 31.259 o
1 -5 10 6.364 6.967 0.457 66.754 o
1 -4 -5 27.898 11.555 1.245 10.130 o
1 -4 -4 16.688 10.531 0.952 19.488 o
1 -4 -3 112.291 88.350 2.443 0.761 o
1 -4 -2 59.364 59.361 1.506 2.172 o
1 -4 -1 540.848 545.142 8.373 0.032 o
1 -4 0 8.826 10.899 0.773 35.083 o
1 -4 1 470.132 529.639 9.166 0.038 o
1 -4 2 389.500 400.199 38.368 0.028 o
1 -4 3 182.523 165.288 6.880 0.248 o
1 -4 4 561.754 566.841 21.081 0.026 o
1 -4 5 208.019 209.745 9.668 0.169 o
1 -4 6 107.660 111.864 3.846 0.649 o
1 -4 7 4.806 4.010 0.295 115.480 o
1 -4 8 25.108 25.656 0.792 9.645 o
1 -4 9 51.167 57.488 3.079 2.088 o
1 -4 10 34.605 35.510 1.740 4.853 o
1 -3 -5 106.168 74.082 5.331 0.704 o
1 -3 -4 38.552 33.684 2.544 3.716 o
1 -3 -3 1.514 1.164 0.414 241.922 o
1 -3 -2 350.345 302.830 18.681 0.061 o
1 -3 -1 241.036 255.497 10.246 0.127 o
1 -3 0 73.640 81.087 1.965 1.364 o
1 -3 1 119.781 131.896 2.384 0.560 o
1 -3 2 12.091 13.082 0.981 23.085 o
1 -3 3 1247.760 1106.020 47.914 0.006 o
1 -3 4 222.761 178.959 19.679 0.102 o
1 -3 5 41.820 40.469 1.218 4.106 o
1 -3 6 41.260 43.229 1.321 3.963 o
1 -3 7 3.199 2.887 0.261 179.619 o
1 -3 8 26.430 25.211 1.082 8.649 o
1 -3 9 32.367 33.600 1.301 5.845 o
1 -3 10 1.036 1.546 0.161 518.646 o
1 -2 -7 37.317 30.571 3.500 3.031 o
1 -2 -6 15.762 10.611 1.074 19.166 o
1 -2 -5 83.019 86.139 3.658 1.001 o
1 -2 -4 165.843 198.613 8.860 0.225 o
1 -2 -3 186.838 195.081 4.834 0.238 o
1 -2 -1 450.437 477.121 5.285 0.045 o
1 -2 2 404.441 392.459 19.254 0.046 o
1 -2 3 1542.600 1528.270 128.728 0.002 o
1 -2 4 373.186 413.308 9.740 0.059 o
1 -2 5 161.761 187.547 3.474 0.301 o
1 -2 6 87.733 93.519 3.318 0.932 o
1 -2 7 10.752 11.375 0.505 34.866 o
1 -2 8 103.957 97.425 3.948 0.722 o
1 -2 9 32.269 35.313 1.219 5.801 o
1 -2 10 0.029 0.001 0.038 23065.200 o
1 -1 -8 1.386 1.267 0.537 177.762 o
1 -1 -7 5.029 3.997 0.708 69.116 o
1 -1 -6 65.126 59.645 2.176 1.828 o
1 -1 -5 218.285 205.866 11.041 0.153 o
1 -1 -4 97.760 109.705 5.597 0.628 o
1 -1 -1 156.798 167.321 2.727 0.343 o
1 -1 2 258.895 254.354 9.659 0.120 o
1 -1 3 926.180 1020.160 21.591 0.010 o
1 -1 4 30.048 37.094 1.762 5.351 o
1 -1 5 46.015 51.222 2.236 2.810 o
1 -1 6 69.473 73.133 2.791 1.434 o
1 -1 7 81.470 76.950 2.304 1.222 o
1 -1 8 9.819 9.828 0.490 40.452 o
1 -1 9 14.034 16.493 0.666 21.702 o
1 0 -9 6.078 6.171 1.212 32.690 o
1 0 -8 68.413 64.891 4.083 1.311 o
1 0 -7 25.241 19.566 1.592 8.541 o
1 0 -6 67.482 63.403 1.794 1.762 o
1 0 -5 25.230 23.747 1.096 9.275 o
1 0 -4 86.075 85.469 4.069 0.931 o
1 0 -3 781.561 758.218 7.092 0.016 o
1 0 -2 2047.010 2085.690 71.111 0.002 o
1 0 -1 1076.030 1180.700 20.405 0.008 o
1 0 0 1224.350 849.933 23.600 0.008 o
1 0 1 868.863 939.150 25.592 0.011 o
1 0 2 73.710 89.775 3.191 1.153 o
1 0 3 84.636 122.175 3.774 0.789 o
1 0 4 150.053 171.499 4.525 0.336 o
1 0 5 165.192 164.998 5.154 0.300 o
1 0 6 5.855 6.860 0.363 76.802 o
1 0 7 23.802 23.424 0.799 10.657 o
1 0 8 5.622 6.138 0.402 80.213 o
1 0 9 18.407 21.472 0.754 14.453 o
1 1 -9 66.753 59.549 5.308 1.145 o
1 1 -8 13.775 13.997 0.920 21.149 o
1 1 -7 10.566 10.571 0.663 33.557 o
1 1 -6 11.317 8.860 0.566 35.729 o
1 1 -5 418.484 379.363 15.701 0.049 o
1 1 -4 61.916 62.289 3.127 1.677 o
1 1 -3 389.431 365.067 14.107 0.056 o
1 1 -2 2024.290 1959.770 48.619 0.002 o
1 1 -1 783.664 681.033 12.130 0.017 o
1 1 0 1894.370 2136.740 14.257 0.002 o
1 1 1 89.446 93.537 3.415 0.906 o
1 1 2 138.769 157.793 3.595 0.401 o
1 1 3 144.496 171.001 4.644 0.349 o
1 1 4 142.995 160.063 3.605 0.384 o
1 1 5 17.232 20.256 0.574 16.659 o
1 1 6 29.762 33.101 0.880 6.931 o
1 1 7 14.879 18.562 0.755 18.794 o
1 1 8 20.315 25.205 0.887 11.668 o
1 2 -10 31.234 32.514 3.460 3.344 o
1 2 -9 24.361 25.929 1.574 7.957 o
1 2 -8 7.593 8.828 0.861 38.608 o
1 2 -7 30.798 28.538 1.316 6.629 o
1 2 -6 122.646 131.192 5.100 0.476 o
1 2 -5 41.192 45.243 2.234 3.316 o
1 2 -4 196.424 171.449 5.784 0.234 o
1 2 -3 581.564 525.436 25.124 0.024 o
1 2 -2 174.754 157.820 5.026 0.289 o
1 2 -1 349.036 331.950 8.206 0.075 o
1 2 0 337.057 352.126 16.507 0.063 o
1 2 1 966.454 976.661 8.740 0.010 o
1 2 2 666.455 724.666 8.868 0.020 o
1 2 3 37.119 50.877 1.631 3.810 o
1 2 4 142.175 162.549 3.394 0.385 o
1 2 5 260.546 296.888 3.492 0.124 o
1 2 6 34.860 36.200 0.926 5.538 o
1 2 7 4.435 5.655 0.413 95.949 o
1 2 8 7.908 7.687 0.533 51.644 o
1 3 -10 4.783 4.429 0.385 102.629 o
1 3 -9 27.823 28.417 1.457 7.059 o
1 3 -8 5.866 6.709 0.326 79.490 o
1 3 -7 31.682 33.163 1.356 5.940 o
1 3 -6 23.814 28.933 1.386 8.175 o
1 3 -5 311.472 301.779 6.392 0.094 o
1 3 -4 198.709 198.185 5.485 0.215 o
1 3 -3 413.989 403.288 9.294 0.053 o
1 3 -2 414.350 446.054 11.943 0.048 o
1 3 -1 41.877 52.381 2.751 2.743 o
1 3 0 39.630 42.850 3.839 2.419 o
1 3 1 344.973 323.735 4.268 0.081 o
1 3 2 162.202 176.943 7.061 0.269 o
1 3 3 77.378 93.385 2.042 1.174 o
1 3 4 73.958 78.738 1.479 1.426 o
1 3 5 58.341 67.773 1.964 1.960 o
1 3 6 32.249 40.834 1.416 5.149 o
1 3 7 5.940 7.011 0.580 62.501 o
1 4 -11 5.628 4.599 0.892 50.745 o
1 4 -10 2.197 2.162 0.241 258.926 o
1 4 -9 31.930 31.518 1.171 6.282 o
1 4 -8 19.115 18.306 0.607 15.735 o
1 4 -7 89.702 88.595 1.753 1.040 o
1 4 -6 22.718 23.321 0.539 11.804 o
1 4 -5 38.417 38.757 1.082 4.698 o
1 4 -4 163.417 165.133 2.954 0.327 o
1 4 -3 285.170 293.101 6.701 0.106 o
1 4 -2 247.421 258.650 6.560 0.137 o
1 4 -1 110.513 112.895 2.439 0.678 o
1 4 0 48.739 58.000 1.506 2.734 o
1 4 1 66.958 71.309 2.657 1.532 o
1 4 2 411.782 472.732 13.431 0.046 o
1 4 3 55.032 67.006 1.385 2.216 o
1 4 4 46.708 48.963 1.588 3.127 o
1 4 5 34.637 35.434 1.255 5.355 o
1 4 6 5.714 5.414 0.490 76.411 o
1 5 -11 0.455 0.573 0.119 1249.480 o
1 5 -10 23.976 24.969 0.799 10.238 o
1 5 -9 140.707 143.653 3.770 0.416 o
1 5 -8 199.021 186.118 4.895 0.226 o
1 5 -7 241.391 225.556 4.894 0.159 o
1 5 -6 36.927 38.344 0.614 5.202 o
1 5 -5 86.830 90.622 1.993 1.053 o
1 5 -4 143.614 150.747 3.157 0.403 o
1 5 -3 202.785 198.299 3.399 0.221 o
1 5 -2 49.620 45.261 0.981 3.259 o
1 5 -1 14.235 16.275 0.542 22.552 o
1 5 0 213.572 214.644 8.269 0.171 o
1 5 1 190.930 193.997 9.708 0.191 o
1 5 2 338.360 340.024 19.056 0.059 o
1 5 3 13.013 14.570 0.849 22.538 o
1 5 4 46.386 44.163 1.880 3.186 o
1 5 5 29.799 32.084 0.938 6.977 o
1 6 -11 12.336 13.061 2.039 11.581 o
1 6 -10 6.332 6.559 0.351 74.353 o
1 6 -9 8.950 8.436 0.433 48.077 o
1 6 -8 7.471 6.863 0.331 64.540 o
1 6 -7 33.136 34.807 0.702 6.156 o
1 6 -6 78.625 80.386 1.726 1.292 o
1 6 -5 6.214 6.527 0.281 79.133 o
1 6 -4 307.922 303.309 8.784 0.091 o
1 6 -3 60.577 55.321 1.364 2.233 o
1 6 -2 35.358 34.068 0.784 5.741 o
1 6 -1 14.660 15.304 0.589 22.279 o
1 6 0 117.718 126.079 1.971 0.596 o
1 6 1 210.490 218.082 12.710 0.142 o
1 6 2 104.707 97.645 2.155 0.799 o
1 6 3 1.951 2.077 0.432 190.335 o
1 6 4 118.067 113.964 11.063 0.317 o
1 7 -11 4.324 3.301 0.455 109.760 o
1 7 -10 20.244 19.736 0.868 13.332 o
1 7 -9 58.039 65.392 2.122 1.980 o
1 7 -8 34.354 40.709 0.946 5.235 o
1 7 -7 84.760 81.686 2.360 1.125 o
1 7 -6 56.938 56.422 2.336 2.133 o
1 7 -5 60.918 60.690 2.335 1.914 o
1 7 -4 35.393 35.683 1.305 5.172 o
1 7 -3 14.817 14.905 0.520 22.860 o
1 7 -2 102.448 100.975 2.104 0.806 o
1 7 -1 349.774 362.618 13.209 0.064 o
1 7 0 36.090 36.974 1.721 4.593 o
1 7 2 2.881 2.330 0.437 154.028 o
1 7 3 14.200 14.171 0.609 23.611 o
1 8 -10 15.278 17.629 1.069 16.495 o
1 8 -9 16.167 17.226 0.491 19.723 o
1 8 -8 25.054 25.626 0.898 9.454 o
1 8 -7 36.389 44.718 1.747 4.104 o
1 8 -6 2.553 2.811 0.256 211.734 o
1 8 -5 83.774 80.347 2.891 1.104 o
1 8 -4 32.126 32.554 1.418 5.837 o
1 8 -3 40.144 42.773 1.341 4.092 o
1 8 -2 66.226 71.116 3.725 1.361 o
1 8 -1 45.444 50.393 3.672 2.167 o
1 8 0 13.636 12.885 1.108 19.790 o
1 9 -9 7.976 8.489 0.384 54.281 o
1 9 -8 3.381 2.609 0.233 184.077 o
1 9 -7 9.672 11.874 0.481 37.730 o
1 9 -6 13.648 13.762 0.564 25.241 o
1 9 -5 3.028 3.484 0.281 170.467 o
1 9 -4 14.649 18.497 0.660 19.745 o
1 9 -3 12.797 16.196 0.781 22.487 o
1 9 -2 17.229 19.205 0.985 14.964 o
1 9 -1 3.145 2.943 0.350 159.795 o
1 9 0 9.985 12.407 0.841 29.312 o
1 10 -8 20.709 25.293 0.880 11.470 o
1 10 -7 6.512 7.075 0.359 70.124 o
1 10 -6 68.364 80.314 3.794 1.232 o
1 10 -5 2.274 1.797 0.230 271.871 o
1 10 -4 26.277 31.826 1.768 6.421 o
1 10 -3 3.241 5.105 0.668 83.042 o
2 -11 3 46.191 35.548 1.830 3.562 o
2 -11 4 24.512 23.058 2.096 6.856 o
2 -11 5 10.642 9.328 1.348 21.313 o
2 -11 6 3.032 3.301 0.427 140.330 o
2 -10 0 37.623 7.179 1.048 8.044 o
2 -10 1 10.781 6.143 1.634 18.122 o
2 -10 2 18.887 14.116 1.521 12.219 o
2 -10 3 59.510 62.238 3.347 1.686 o
2 -10 4 0.366 0.528 0.233 805.035 o
2 -10 5 2.574 2.014 0.369 191.212 o
2 -10 6 1.905 2.981 0.600 125.126 o
2 -10 7 16.306 17.175 3.147 5.574 o
2 -10 8 15.034 19.330 1.466 13.189 o
2 -9 0 3.051 4.460 1.187 41.374 o
2 -9 1 29.636 34.127 3.765 3.084 o
2 -9 2 14.670 13.475 1.475 14.998 o
2 -9 3 82.133 97.764 10.819 0.410 o
2 -9 4 0.698 1.115 0.496 230.701 o
2 -9 5 20.398 18.160 1.962 8.778 o
2 -9 6 1.511 1.684 0.395 238.838 o
2 -9 7 0.616 0.422 0.210 785.917 o
2 -9 8 5.038 6.817 0.881 49.371 o
2 -9 9 5.810 6.476 0.796 51.781 o
2 -8 -1 14.923 15.011 2.409 8.497 o
2 -8 0 3.244 2.910 0.777 78.399 o
2 -8 1 54.057 45.017 4.638 1.633 o
2 -8 2 96.104 97.442 4.108 0.775 o
2 -8 3 3.249 3.713 0.784 74.673 o
2 -8 4 122.054 123.698 7.091 0.426 o
2 -8 5 2.227 2.047 0.385 199.001 o
2 -8 6 17.130 18.036 1.265 13.698 o
2 -8 7 65.178 61.053 3.226 1.589 o
2 -8 8 9.008 8.988 0.707 39.044 o
2 -8 9 15.400 16.522 0.951 17.805 o
2 -7 -2 87.468 43.456 2.107 1.457 o
2 -7 -1 47.097 29.739 1.533 3.929 o
2 -7 0 62.404 47.162 2.904 1.940 o
2 -7 1 10.180 8.724 0.784 34.131 o
2 -7 2 63.496 61.130 2.969 1.687 o
2 -7 3 147.466 142.445 5.053 0.373 o
2 -7 4 50.706 50.859 2.315 2.535 o
2 -7 5 288.601 247.873 23.525 0.065 o
2 -7 6 26.579 26.727 1.459 7.559 o
2 -7 7 16.910 17.366 0.845 16.813 o
2 -7 8 0.450 0.276 0.093 1677.720 o
2 -7 9 3.212 3.059 0.283 171.028 o
2 -7 10 3.293 2.811 0.434 138.379 o
2 -6 -3 13.784 8.146 1.337 19.091 o
2 -6 -2 32.064 21.744 1.408 6.946 o
2 -6 -1 27.970 26.414 1.168 7.832 o
2 -6 0 75.881 72.663 1.736 1.429 o
2 -6 1 24.360 24.041 1.169 9.344 o
2 -6 2 8.834 10.038 0.678 38.762 o
2 -6 3 20.737 21.757 2.188 7.461 o
2 -6 4 69.448 60.216 1.960 1.726 o
2 -6 5 259.515 229.023 12.435 0.115 o
2 -6 6 219.799 196.428 6.876 0.183 o
2 -6 7 56.466 54.576 1.431 2.429 o
2 -6 8 6.251 6.218 0.417 72.951 o
2 -6 9 0.029 0.139 0.068 7088.500 o
2 -6 10 16.735 16.174 1.140 15.408 o
2 -5 -4 1.559 0.086 0.797 101.827 o
2 -5 -3 66.048 40.134 2.006 2.183 o
2 -5 -2 31.695 24.374 1.978 5.743 o
2 -5 -1 211.285 188.611 4.529 0.211 o
2 -5 0 229.599 233.424 4.427 0.167 o
2 -5 1 3.417 3.629 0.352 142.039 o
2 -5 2 18.477 22.228 1.153 12.370 o
2 -5 3 92.973 81.812 6.935 0.642 o
2 -5 4 129.255 119.730 3.499 0.517 o
2 -5 5 6.294 6.354 0.363 74.997 o
2 -5 6 25.908 26.324 0.823 9.158 o
2 -5 7 76.513 80.637 1.588 1.342 o
2 -5 8 65.766 65.234 1.713 1.799 o
2 -5 9 16.676 19.645 0.890 15.774 o
2 -5 10 17.976 18.466 0.763 15.904 o
2 -4 -5 6.964 5.679 1.321 28.303 o
2 -4 -4 33.934 19.587 1.054 7.345 o
2 -4 -3 155.154 116.736 5.062 0.388 o
2 -4 -2 56.168 58.663 1.382 2.355 o
2 -4 -1 61.821 70.825 2.236 1.747 o
2 -4 0 657.473 717.129 11.767 0.020 o
2 -4 1 810.005 832.305 36.747 0.011 o
2 -4 2 221.723 195.173 3.595 0.198 o
2 -4 3 213.229 208.867 11.662 0.151 o
2 -4 4 293.748 291.818 22.905 0.062 o
2 -4 5 19.836 18.579 0.808 14.237 o
2 -4 6 38.328 38.687 1.154 4.667 o
2 -4 7 16.288 14.777 0.715 19.609 o
2 -4 8 34.551 34.090 1.394 5.335 o
2 -4 9 0.735 0.642 0.162 807.240 o
2 -4 10 14.585 13.094 0.472 25.020 o
2 -3 -6 22.048 13.895 1.210 12.412 o
2 -3 -5 100.181 102.611 3.587 0.751 o
2 -3 -4 22.372 23.683 3.730 3.773 o
2 -3 -2 253.337 242.037 5.282 0.142 o
2 -3 -1 132.248 126.806 5.880 0.425 o
2 -3 0 521.796 555.479 16.216 0.030 o
2 -3 1 713.557 894.594 93.716 0.006 o
2 -3 2 818.893 851.099 32.912 0.012 o
2 -3 3 187.916 172.053 15.797 0.144 o
2 -3 4 300.495 314.878 9.709 0.090 o
2 -3 5 18.881 21.218 0.671 14.534 o
2 -3 6 49.029 48.140 2.186 2.749 o
2 -3 7 5.341 5.032 0.426 87.418 o
2 -3 8 36.938 38.312 1.695 4.438 o
2 -3 9 12.877 14.174 0.680 24.969 o
2 -2 -7 52.751 39.124 3.518 2.179 o
2 -2 -6 25.238 25.222 1.881 7.042 o
2 -2 -5 178.648 177.216 8.524 0.226 o
2 -2 -4 5.616 5.126 0.657 65.552 o
2 -2 -3 270.534 272.959 3.914 0.124 o
2 -2 -2 566.072 593.329 8.000 0.028 o
2 -2 -1 672.129 784.637 35.085 0.015 o
2 -2 0 463.632 559.539 5.283 0.038 o
2 -2 1 833.026 810.959 12.532 0.014 o
2 -2 2 422.869 413.455 24.933 0.037 o
2 -2 3 348.925 352.005 19.017 0.056 o
2 -2 4 56.556 59.888 2.227 2.111 o
2 -2 5 22.289 20.532 0.893 11.838 o
2 -2 6 11.211 13.108 0.720 28.337 o
2 -2 7 149.079 147.329 4.997 0.363 o
2 -2 8 54.279 53.269 1.784 2.479 o
2 -2 9 5.446 5.912 0.333 88.159 o
2 -1 -8 24.790 17.410 2.413 6.459 o
2 -1 -7 13.389 10.168 0.945 23.822 o
2 -1 -6 151.212 142.179 5.047 0.363 o
2 -1 -5 71.682 66.103 3.700 1.312 o
2 -1 -4 610.177 711.912 32.591 0.017 o
2 -1 -2 187.086 218.142 2.437 0.233 o
2 -1 0 530.508 519.053 6.092 0.034 o
2 -1 1 63.552 68.552 4.354 1.310 o
2 -1 2 144.324 158.189 6.310 0.337 o
2 -1 3 255.869 298.630 7.330 0.118 o
2 -1 4 123.427 141.932 6.173 0.421 o
2 -1 5 20.425 17.891 0.739 14.355 o
2 -1 6 28.988 30.961 1.370 6.672 o
2 -1 7 33.662 34.513 1.128 5.719 o
2 -1 8 6.875 7.426 0.437 62.410 o
2 -1 9 3.738 4.924 0.357 119.743 o
2 0 -9 38.403 38.264 5.228 1.789 o
2 0 -8 8.436 9.466 1.202 26.656 o
2 0 -7 6.972 5.981 0.596 58.416 o
2 0 -6 42.168 42.182 1.960 3.537 o
2 0 -5 209.387 208.911 14.388 0.134 o
2 0 -4 355.652 318.323 23.279 0.051 o
2 0 -3 1870.140 1767.840 70.174 0.002 o
2 0 -2 3050.390 2591.710 87.049 0.001 o
2 0 -1 583.750 580.112 53.157 0.014 o
2 0 0 41.396 42.631 1.213 4.038 o
2 0 1 298.319 323.785 7.104 0.094 o
2 0 2 171.908 219.745 8.940 0.205 o
2 0 3 6.573 8.987 0.851 41.749 o
2 0 4 18.136 19.642 0.959 14.318 o
2 0 5 170.097 169.090 3.607 0.302 o
2 0 6 23.335 23.659 0.732 10.978 o
2 0 7 94.101 100.431 1.755 0.909 o
2 0 8 11.951 12.977 0.568 29.135 o
2 1 -10 136.546 122.047 23.954 0.105 o
2 1 -9 43.090 42.452 3.059 2.755 o
2 1 -8 12.094 10.752 1.000 24.407 o
2 1 -7 30.453 30.393 1.061 6.865 o
2 1 -6 158.690 147.990 4.046 0.350 o
2 1 -5 14.474 13.547 0.798 21.836 o
2 1 -4 4.254 4.476 0.397 109.260 o
2 1 -3 274.726 245.216 14.232 0.098 o
2 1 -2 364.336 337.252 11.947 0.066 o
2 1 -1 796.697 740.340 66.276 0.008 o
2 1 0 782.145 813.605 20.475 0.014 o
2 1 1 47.942 52.541 1.448 2.972 o
2 1 3 1.467 1.460 0.238 368.527 o
2 1 4 143.419 149.090 3.585 0.400 o
2 1 5 120.057 131.450 3.170 0.542 o
2 1 6 56.819 63.877 1.440 2.197 o
2 1 7 12.398 14.748 0.677 25.316 o
2 2 -10 22.551 22.002 1.623 8.875 o
2 2 -9 11.151 10.171 0.879 28.495 o
2 2 -8 32.713 32.281 1.811 5.248 o
2 2 -7 280.191 275.285 10.847 0.102 o
2 2 -6 133.911 128.250 3.370 0.479 o
2 2 -5 72.909 76.701 3.201 1.273 o
2 2 -4 99.977 88.062 2.014 0.902 o
2 2 -3 165.336 154.074 5.888 0.302 o
2 2 -2 586.837 558.993 26.827 0.023 o
2 2 -1 21.583 23.309 1.005 11.127 o
2 2 0 73.781 69.777 1.311 1.552 o
2 2 1 67.545 64.466 3.124 1.515 o
2 2 2 125.791 134.617 4.943 0.461 o
2 2 3 113.652 125.155 3.796 0.575 o
2 2 4 36.346 39.725 1.258 4.788 o
2 2 5 49.296 56.088 2.461 2.421 o
2 2 6 13.297 17.119 0.976 19.356 o
2 2 7 24.441 22.520 0.757 10.670 o
2 3 -11 7.789 8.037 0.551 50.717 o
2 3 -10 0.655 0.673 0.137 925.238 o
2 3 -9 42.867 41.216 1.227 3.952 o
2 3 -8 123.322 121.402 5.097 0.493 o
2 3 -7 41.383 37.668 1.128 4.365 o
2 3 -6 46.922 46.167 1.419 3.284 o
2 3 -5 272.087 263.300 3.012 0.128 o
2 3 -4 1031.610 1038.930 25.463 0.008 o
2 3 -3 313.723 314.979 12.649 0.080 o
2 3 -2 165.884 171.006 7.887 0.257 o
2 3 -1 127.459 132.069 3.960 0.486 o
2 3 0 832.081 902.493 33.180 0.011 o
2 3 1 37.935 42.748 1.087 4.500 o
2 3 2 188.824 199.333 8.014 0.206 o
2 3 3 196.492 209.811 7.386 0.197 o
2 3 4 64.119 65.612 4.999 1.198 o
2 3 5 5.865 6.793 0.629 60.634 o
2 3 6 7.995 9.582 0.532 46.905 o
2 4 -11 15.394 13.386 2.377 8.718 o
2 4 -10 54.761 57.056 1.499 2.436 o
2 4 -9 6.569 6.441 0.369 71.838 o
2 4 -8 199.362 196.317 4.805 0.219 o
2 4 -7 57.676 59.507 1.138 2.309 o
2 4 -6 45.594 40.749 0.818 3.868 o
2 4 -5 7.632 7.337 0.280 63.304 o
2 4 -4 495.782 486.552 11.291 0.037 o
2 4 -3 89.905 99.849 2.386 0.932 o
2 4 -2 99.595 109.155 3.236 0.747 o
2 4 -1 66.078 80.619 2.905 1.409 o
2 4 0 62.594 74.567 1.769 1.745 o
2 4 1 7.335 7.418 0.802 43.791 o
2 4 2 221.220 234.826 32.446 0.051 o
2 4 3 1.233 1.660 0.241 384.629 o
2 4 4 0.071 0.205 0.108 3400.990 o
2 4 5 9.791 9.177 0.506 41.363 o
2 5 -11 18.749 20.171 0.936 13.848 o
2 5 -10 12.949 15.429 0.601 24.663 o
2 5 -9 24.978 25.846 0.743 9.753 o
2 5 -8 115.794 112.064 2.461 0.643 o
2 5 -7 7.941 8.093 0.337 57.031 o
2 5 -6 90.188 87.776 1.513 1.051 o
2 5 -5 37.355 37.572 1.018 4.970 o
2 5 -4 5.232 4.882 0.256 103.893 o
2 5 -3 40.516 36.023 0.724 4.791 o
2 5 -2 87.947 89.050 1.873 1.056 o
2 5 -1 399.526 411.442 8.729 0.055 o
2 5 0 4.657 5.073 0.429 95.217 o
2 5 1 130.075 140.384 10.716 0.285 o
2 5 2 139.865 162.586 22.116 0.112 o
2 5 3 18.561 15.923 1.651 11.216 o
2 5 4 7.577 7.322 0.698 47.367 o
2 6 -11 2.034 2.728 0.467 163.589 o
2 6 -10 12.304 13.458 0.491 28.795 o
2 6 -9 23.521 21.681 0.613 11.658 o
2 6 -8 1.577 1.572 0.166 401.257 o
2 6 -7 21.813 18.727 0.541 13.757 o
2 6 -6 11.239 12.543 0.423 33.142 o
2 6 -5 5.383 6.320 0.319 87.461 o
2 6 -4 16.121 18.413 0.620 18.421 o
2 6 -3 38.278 41.446 0.973 4.603 o
2 6 -2 108.060 100.069 2.011 0.762 o
2 6 -1 100.175 102.037 2.003 0.827 o
2 6 0 181.483 199.448 7.761 0.217 o
2 6 1 81.062 105.417 2.934 0.969 o
2 6 2 40.913 35.853 1.840 4.022 o
2 6 3 0.839 0.546 0.182 726.615 o
2 7 -11 23.998 18.204 1.071 10.968 o
2 7 -10 17.553 18.527 0.670 16.712 o
2 7 -9 29.050 30.310 0.935 7.391 o
2 7 -8 0.251 0.652 0.103 1627.450 o
2 7 -7 74.813 78.439 3.104 1.238 o
2 7 -6 24.721 26.669 1.067 9.010 o
2 7 -5 10.367 12.263 0.470 35.254 o
2 7 -4 48.835 48.543 1.385 3.069 o
2 7 -3 132.201 133.968 3.363 0.475 o
2 7 -2 52.478 57.782 2.779 2.140 o
2 7 -1 89.715 97.911 5.008 0.760 o
2 7 0 9.859 10.755 0.851 31.012 o
2 7 1 11.153 12.495 1.069 23.413 o
2 7 2 33.642 33.269 1.361 5.583 o
2 8 -10 12.633 12.366 1.860 12.998 o
2 8 -9 0.472 0.611 0.091 1328.500 o
2 8 -8 7.927 7.516 0.431 55.768 o
2 8 -7 15.438 14.282 0.635 21.560 o
2 8 -6 27.832 26.470 1.306 7.592 o
2 8 -5 7.828 8.766 0.441 52.528 o
2 8 -4 7.388 6.778 0.402 62.664 o
2 8 -3 32.954 33.507 2.657 4.077 o
2 8 -2 26.648 27.266 2.571 5.172 o
2 8 -1 6.235 7.654 0.546 60.468 o
2 8 0 0.958 1.251 0.326 359.165 o
2 9 -9 0.070 0.122 0.130 3039.470 o
2 9 -8 13.172 13.229 0.520 27.002 o
2 9 -7 9.791 9.555 0.549 39.706 o
2 9 -6 16.347 16.669 0.757 18.244 o
2 9 -5 16.013 16.943 0.671 19.014 o
2 9 -4 3.558 5.044 0.575 91.785 o
2 9 -3 4.875 4.856 0.447 91.993 o
2 9 -2 4.644 5.091 0.424 95.837 o
2 10 -6 18.567 19.027 1.121 13.385 o
2 10 -5 10.659 11.856 0.908 27.338 o
3 -11 2 9.995 6.611 1.299 24.392 o
3 -11 3 16.503 12.474 1.186 16.618 o
3 -11 4 19.731 24.481 1.594 9.481 o
3 -11 5 13.577 11.458 1.520 15.896 o
3 -11 6 29.751 27.574 1.952 5.844 o
3 -10 1 17.104 24.436 2.803 6.001 o
3 -10 2 9.901 8.793 1.265 23.874 o
3 -10 3 32.328 30.872 1.794 5.432 o
3 -10 4 12.505 11.423 1.173 20.932 o
3 -10 5 11.241 10.148 1.261 21.672 o
3 -10 6 1.222 0.768 0.245 456.188 o
3 -10 7 0.726 0.591 0.288 511.203 o
3 -10 8 14.464 16.626 1.247 16.062 o
3 -9 -1 38.682 35.350 3.395 2.925 o
3 -9 0 98.475 101.573 6.628 0.584 o
3 -9 1 46.465 53.599 2.365 2.661 o
3 -9 2 29.841 28.602 3.209 3.844 o
3 -9 3 61.420 68.266 2.521 1.741 o
3 -9 4 24.369 26.022 1.414 8.362 o
3 -9 5 51.536 60.727 2.561 2.192 o
3 -9 6 5.122 5.740 1.228 34.170 o
3 -9 7 0.895 0.810 0.250 515.794 o
3 -9 8 38.031 44.154 2.419 3.457 o
3 -8 -1 72.110 47.954 8.884 0.648 o
3 -8 0 93.542 74.508 7.088 0.646 o
3 -8 1 83.060 78.252 6.194 0.779 o
3 -8 2 37.659 39.073 4.199 2.336 o
3 -8 3 140.746 162.153 7.904 0.309 o
3 -8 4 103.988 102.514 4.075 0.696 o
3 -8 5 91.693 82.904 3.308 0.948 o
3 -8 6 114.019 103.998 6.737 0.504 o
3 -8 7 35.116 34.798 1.630 4.951 o
3 -8 8 13.063 10.800 2.152 10.910 o
3 -8 9 20.877 22.315 1.105 11.342 o
3 -7 -3 29.441 10.964 1.666 8.341 o
3 -7 -2 30.241 16.357 2.096 6.420 o
3 -7 -1 24.630 14.848 2.073 7.745 o
3 -7 0 43.743 36.693 3.618 2.513 o
3 -7 1 114.549 120.745 6.366 0.484 o
3 -7 2 140.076 142.498 7.791 0.333 o
3 -7 3 114.303 102.498 9.042 0.406 o
3 -7 4 31.929 31.750 1.633 5.651 o
3 -7 5 58.300 49.861 3.798 1.749 o
3 -7 6 36.597 33.880 1.869 4.569 o
3 -7 7 11.352 9.006 0.547 35.776 o
3 -7 8 29.701 26.319 1.101 7.497 o
3 -7 9 1.098 1.342 0.295 369.818 o
3 -6 -3 31.390 25.371 2.602 4.695 o
3 -6 -2 71.724 50.623 2.694 1.666 o
3 -6 -1 51.043 40.499 2.339 2.780 o
3 -6 0 157.655 149.376 15.021 0.178 o
3 -6 1 81.702 86.623 2.993 1.079 o
3 -6 2 74.770 86.054 10.146 0.478 o
3 -6 3 41.167 34.033 1.362 4.458 o
3 -6 4 89.796 87.092 2.648 0.995 o
3 -6 5 287.639 238.556 13.521 0.097 o
3 -6 6 215.716 186.695 5.009 0.204 o
3 -6 7 28.794 26.840 0.966 7.894 o
3 -6 8 42.071 39.431 1.094 4.201 o
3 -6 9 11.511 11.196 0.563 32.197 o
3 -5 -4 117.440 78.487 14.250 0.254 o
3 -5 -3 63.877 46.674 4.235 1.533 o
3 -5 -2 34.605 26.493 1.106 6.328 o
3 -5 -1 467.087 456.420 21.521 0.035 o
3 -5 0 265.001 263.108 17.921 0.085 o
3 -5 1 117.576 111.102 3.483 0.603 o
3 -5 2 52.188 57.486 6.032 1.184 o
3 -5 3 38.341 31.748 1.362 4.977 o
3 -5 4 319.930 288.874 11.765 0.083 o
3 -5 5 254.503 228.611 7.659 0.138 o
3 -5 6 11.362 9.111 0.486 36.694 o
3 -5 7 0.026 0.043 0.084 7602.360 o
3 -5 8 4.604 4.686 0.420 99.576 o
3 -5 9 0.120 0.149 0.075 4340.360 o
3 -4 -5 58.705 53.729 4.169 1.585 o
3 -4 -4 10.489 9.182 0.930 29.622 o
3 -4 -3 46.519 37.800 1.610 3.566 o
3 -4 -2 70.924 67.436 2.116 1.565 o
3 -4 -1 100.327 98.278 4.499 0.714 o
3 -4 0 138.637 146.420 14.422 0.201 o
3 -4 1 59.902 70.651 6.453 0.962 o
3 -4 2 336.428 343.631 11.007 0.073 o
3 -4 3 374.347 364.092 22.396 0.047 o
3 -4 4 195.250 170.950 5.651 0.237 o
3 -4 5 31.675 33.346 0.837 6.508 o
3 -4 6 43.193 38.718 1.023 4.151 o
3 -4 7 5.624 4.903 0.425 85.024 o
3 -4 8 7.260 7.284 0.501 57.544 o
3 -4 9 27.546 26.791 1.308 7.620 o
3 -3 -7 0.989 -0.068 0.307 481.332 o
3 -3 -6 73.157 67.668 2.820 1.409 o
3 -3 -5 6.698 7.683 1.001 37.424 o
3 -3 -4 207.175 184.080 21.273 0.097 o
3 -3 -2 324.798 345.683 4.167 0.084 o
3 -3 -1 561.612 650.689 25.740 0.022 o
3 -3 0 12.981 17.724 2.653 7.548 o
3 -3 1 280.076 293.065 14.143 0.089 o
3 -3 2 54.733 52.156 3.362 1.959 o
3 -3 3 56.055 50.986 2.950 2.075 o
3 -3 4 16.060 17.242 0.561 19.460 o
3 -3 5 43.896 43.523 1.116 3.787 o
3 -3 6 19.764 20.051 1.103 12.494 o
3 -3 7 88.281 90.909 2.743 0.983 o
3 -3 8 16.990 15.994 1.042 15.982 o
3 -3 9 1.359 1.138 0.225 422.151 o
3 -2 -8 52.548 30.810 5.392 1.540 o
3 -2 -7 84.784 74.967 5.038 0.899 o
3 -2 -6 0.627 0.814 0.419 312.137 o
3 -2 -5 121.494 124.114 5.776 0.472 o
3 -2 -4 387.659 459.172 38.826 0.026 o
3 -2 -3 295.025 316.412 11.962 0.086 o
3 -2 -2 79.759 124.281 14.768 0.255 o
3 -2 -1 741.295 844.659 70.870 0.008 o
3 -2 0 730.538 673.752 45.540 0.012 o
3 -2 1 60.991 64.826 4.848 1.279 o
3 -2 2 261.065 251.804 13.674 0.104 o
3 -2 3 142.614 138.887 3.813 0.417 o
3 -2 4 19.080 17.844 0.675 15.671 o
3 -2 5 122.483 120.421 7.849 0.404 o
3 -2 6 136.833 134.532 8.404 0.335 o
3 -2 7 50.317 44.121 2.018 2.865 o
3 -2 8 2.332 2.584 0.235 237.949 o
3 -1 -8 78.460 61.057 3.781 1.227 o
3 -1 -7 57.414 49.319 2.336 2.257 o
3 -1 -6 54.048 49.880 3.404 2.002 o
3 -1 -5 25.532 23.509 1.707 7.615 o
3 -1 -4 403.948 407.591 8.917 0.055 o
3 -1 -3 2343.170 2859.450 105.565 0.001 o
3 -1 -2 1717.110 2063.980 62.596 0.003 o
3 -1 -1 540.608 482.736 64.488 0.012 o
3 -1 0 257.502 213.527 8.239 0.139 o
3 -1 1 1801.560 1697.700 80.062 0.002 o
3 -1 2 223.808 239.953 6.757 0.160 o
3 -1 3 21.564 21.621 0.860 12.044 o
3 -1 4 18.841 16.132 1.372 12.630 o
3 -1 5 247.707 259.366 17.386 0.093 o
3 -1 6 33.962 32.347 1.113 5.875 o
3 -1 7 5.693 5.559 0.391 83.329 o
3 -1 8 5.905 6.911 0.497 68.104 o
3 0 -9 124.227 113.541 9.204 0.363 o
3 0 -8 92.529 83.881 2.647 0.981 o
3 0 -7 0.292 0.703 0.236 788.899 o
3 0 -6 8.636 7.404 0.699 43.132 o
3 0 -5 324.215 296.012 23.793 0.056 o
3 0 -4 1552.210 1558.070 75.815 0.003 o
3 0 -3 861.291 783.670 79.512 0.006 o
3 0 -2 373.917 373.572 17.907 0.053 o
3 0 -1 307.855 290.446 27.921 0.050 o
3 0 0 224.244 237.024 14.790 0.118 o
3 0 1 150.156 159.708 7.657 0.298 o
3 0 2 426.084 481.763 26.290 0.033 o
3 0 3 17.375 21.714 1.335 12.162 o
3 0 4 144.487 151.491 10.583 0.259 o
3 0 5 32.089 30.386 1.041 6.524 o
3 0 6 68.878 70.128 1.647 1.644 o
3 0 7 23.769 27.428 0.869 9.665 o
3 1 -10 21.480 20.889 1.274 10.742 o
3 1 -9 174.023 151.167 15.415 0.162 o
3 1 -8 5.067 5.431 0.583 74.471 o
3 1 -7 54.044 54.239 1.352 2.582 o
3 1 -6 160.028 146.400 3.783 0.352 o
3 1 -5 233.921 250.184 11.986 0.124 o
3 1 -4 74.457 71.517 2.947 1.327 o
3 1 -3 312.375 290.826 10.987 0.087 o
3 1 -2 373.227 374.091 17.199 0.054 o
3 1 -1 7.789 7.796 0.439 55.471 o
3 1 0 832.932 806.322 43.442 0.010 o
3 1 1 348.486 356.218 9.160 0.071 o
3 1 2 46.603 48.587 1.458 3.201 o
3 1 3 127.434 139.682 3.170 0.487 o
3 1 4 164.423 169.599 7.501 0.266 o
3 1 5 132.022 134.589 3.004 0.481 o
3 1 6 24.370 29.795 0.841 9.052 o
3 1 7 14.315 17.446 0.736 20.186 o
3 2 -11 2.642 2.454 0.271 211.712 o
3 2 -10 5.197 5.413 0.498 80.644 o
3 2 -9 75.228 73.418 6.182 0.859 o
3 2 -8 126.873 127.148 5.982 0.440 o
3 2 -7 57.895 58.736 2.049 2.126 o
3 2 -6 203.469 188.633 3.638 0.226 o
3 2 -5 180.995 167.211 2.858 0.286 o
3 2 -4 233.450 232.497 8.984 0.145 o
3 2 -3 247.608 224.048 16.025 0.105 o
3 2 -2 49.107 50.081 2.265 2.658 o
3 2 -1 236.137 229.830 2.550 0.168 o
3 2 0 75.508 82.668 1.540 1.345 o
3 2 1 28.166 26.632 0.960 8.119 o
3 2 2 68.838 67.332 4.580 1.195 o
3 2 3 382.170 404.472 25.198 0.041 o
3 2 4 118.435 120.952 5.541 0.500 o
3 2 5 17.702 24.130 1.302 11.584 o
3 2 6 15.278 12.042 0.771 22.046 o
3 3 -11 1.162 0.999 0.184 528.032 o
3 3 -10 40.929 38.117 1.732 3.990 o
3 3 -9 113.783 115.195 3.877 0.600 o
3 3 -8 78.270 72.700 3.300 1.203 o
3 3 -7 421.774 387.416 14.251 0.049 o
3 3 -6 73.526 74.200 1.145 1.515 o
3 3 -5 207.797 194.557 4.541 0.211 o
3 3 -4 66.255 63.510 1.379 1.857 o
3 3 -3 440.774 465.975 9.613 0.045 o
3 3 -2 223.616 219.717 5.596 0.175 o
3 3 -1 393.445 436.102 9.992 0.053 o
3 3 0 33.117 41.175 1.163 5.226 o
3 3 1 37.699 41.652 1.493 4.323 o
3 3 2 154.013 152.702 8.428 0.283 o
3 3 3 33.369 34.081 1.691 5.176 o
3 3 4 3.235 3.437 0.291 162.182 o
3 4 -11 5.954 6.317 0.427 74.541 o
3 4 -10 17.085 18.112 0.793 16.648 o
3 4 -9 62.941 63.022 2.169 1.845 o
3 4 -8 67.177 67.155 1.663 1.733 o
3 4 -7 19.453 19.760 0.609 14.880 o
3 4 -6 86.371 81.740 1.366 1.163 o
3 4 -5 182.086 186.087 3.468 0.262 o
3 4 -4 31.359 29.397 0.606 7.267 o
3 4 -3 3.183 2.460 0.174 208.866 o
3 4 -2 40.182 45.223 1.365 3.947 o
3 4 -1 61.091 74.727 1.520 1.824 o
3 4 0 85.273 85.350 2.306 1.094 o
3 4 1 89.289 98.694 2.543 0.937 o
3 4 2 29.186 37.733 1.591 5.667 o
3 4 3 62.166 83.133 3.965 1.284 o
3 5 -11 8.141 9.021 0.514 48.056 o
3 5 -10 11.659 13.262 0.515 30.122 o
3 5 -9 8.530 9.179 0.384 49.566 o
3 5 -8 111.627 108.941 2.389 0.686 o
3 5 -7 100.829 94.540 2.074 0.855 o
3 5 -6 114.549 112.533 3.213 0.627 o
3 5 -5 1.713 2.672 0.218 288.233 o
3 5 -4 36.882 42.218 1.291 4.532 o
3 5 -3 63.590 69.778 1.431 1.835 o
3 5 -2 266.084 276.711 5.252 0.123 o
3 5 -1 55.026 59.267 1.430 2.385 o
3 5 0 197.775 225.678 3.971 0.207 o
3 5 1 45.394 51.526 1.858 3.013 o
3 5 2 22.003 28.230 1.288 9.105 o
3 6 -11 10.728 11.279 1.024 25.606 o
3 6 -10 20.385 22.046 0.810 12.760 o
3 6 -9 26.516 28.511 0.872 8.487 o
3 6 -8 11.619 11.686 0.426 33.236 o
3 6 -7 47.450 46.397 1.435 3.229 o
3 6 -6 41.646 38.186 1.529 4.056 o
3 6 -5 90.256 95.687 3.571 0.874 o
3 6 -4 18.124 20.709 0.773 14.859 o
3 6 -3 172.351 171.938 5.373 0.277 o
3 6 -2 123.743 122.188 2.500 0.562 o
3 6 -1 22.451 21.668 1.534 9.267 o
3 6 0 9.472 11.443 0.711 34.200 o
3 6 1 15.210 19.258 1.052 16.028 o
3 7 -10 73.680 85.636 5.387 0.915 o
3 7 -9 54.129 56.578 2.521 2.184 o
3 7 -8 0.349 0.584 0.106 1481.040 o
3 7 -7 40.493 42.612 1.365 4.049 o
3 7 -6 14.588 13.713 0.532 24.030 o
3 7 -5 54.744 56.477 2.549 2.153 o
3 7 -4 110.744 108.064 3.815 0.643 o
3 7 -3 38.876 41.068 1.492 4.224 o
3 7 -2 114.060 122.260 13.815 0.246 o
3 7 -1 3.615 3.538 0.510 110.547 o
3 7 0 0.019 0.206 0.087 5051.670 o
3 7 1 0.609 0.574 0.183 837.668 o
3 8 -10 13.820 12.889 0.857 22.491 o
3 8 -9 0.709 0.822 0.117 886.164 o
3 8 -8 5.963 5.202 0.335 86.106 o
3 8 -7 58.494 60.589 2.106 2.054 o
3 8 -6 25.349 27.261 0.864 9.113 o
3 8 -5 3.976 4.169 0.293 131.336 o
3 8 -4 4.460 5.612 0.484 88.771 o
3 8 -3 7.757 8.823 1.543 20.826 o
3 8 -2 7.312 8.334 0.679 47.164 o
3 8 -1 0.634 1.299 0.321 405.866 o
3 9 -8 34.439 39.861 1.626 4.710 o
3 9 -7 14.392 14.778 0.888 20.294 o
3 9 -6 19.810 20.190 0.875 13.431 o
3 9 -5 0.588 0.262 0.114 1305.600 o
3 9 -4 3.211 3.456 0.549 110.705 o
4 -11 1 7.557 3.276 0.916 44.899 o
4 -11 2 7.901 7.248 1.411 24.040 o
4 -11 3 6.811 8.546 1.604 20.598 o
4 -11 4 11.804 15.707 2.115 10.804 o
4 -11 5 33.419 22.899 4.580 2.466 o
4 -10 -1 5.854 3.306 1.027 44.387 o
4 -10 0 1.373 0.850 0.483 214.012 o
4 -10 1 2.174 1.894 0.587 133.473 o
4 -10 2 20.172 18.576 1.774 9.568 o
4 -10 3 40.229 41.794 3.073 2.912 o
4 -10 4 0.313 0.833 0.267 644.436 o
4 -10 5 0.136 0.510 0.276 753.612 o
4 -10 6 0.739 0.443 0.238 643.433 o
4 -10 7 5.256 4.561 0.707 65.790 o
4 -9 -1 2.069 0.950 0.891 77.788 o
4 -9 0 76.468 76.236 3.123 1.226 o
4 -9 1 1.711 1.729 0.464 191.930 o
4 -9 2 14.738 15.526 1.087 17.696 o
4 -9 3 29.178 27.659 1.609 6.563 o
4 -9 4 46.848 53.628 2.363 2.641 o
4 -9 5 21.075 20.777 2.077 7.863 o
4 -9 6 5.723 3.738 0.679 67.779 o
4 -9 7 15.994 14.868 1.478 13.796 o
4 -9 8 31.839 31.104 1.561 5.820 o
4 -8 -2 19.606 15.733 1.698 10.603 o
4 -8 -1 113.752 108.591 8.611 0.417 o
4 -8 0 0.470 0.391 0.199 929.980 o
4 -8 1 52.586 49.372 4.143 1.785 o
4 -8 2 31.812 28.867 1.244 6.484 o
4 -8 3 189.428 163.423 8.142 0.226 o
4 -8 4 120.580 112.332 4.100 0.562 o
4 -8 5 8.884 7.658 0.730 40.813 o
4 -8 6 14.462 11.665 0.740 23.777 o
4 -8 7 22.323 20.209 0.887 11.926 o
4 -8 8 28.196 27.204 1.628 6.776 o
4 -7 -3 38.539 22.914 3.385 3.276 o
4 -7 -2 10.146 5.998 0.995 31.823 o
4 -7 -1 13.744 11.627 1.201 19.229 o
4 -7 0 74.990 77.718 8.789 0.587 o
4 -7 1 61.844 66.546 5.448 1.136 o
4 -7 2 260.276 262.191 6.082 0.129 o
4 -7 3 158.192 149.124 7.872 0.289 o
4 -7 4 210.823 196.127 8.373 0.182 o
4 -7 5 56.409 50.635 3.241 1.971 o
4 -7 6 118.450 102.478 3.237 0.633 o
4 -7 7 68.586 62.128 1.622 1.772 o
4 -7 8 15.883 15.266 0.745 19.570 o
4 -6 -4 11.693 7.858 1.392 20.328 o
4 -6 -3 2.451 1.616 0.499 156.962 o
4 -6 -2 40.863 34.839 2.848 3.246 o
4 -6 -1 18.398 18.190 1.321 12.616 o
4 -6 0 101.458 121.645 14.622 0.240 o
4 -6 1 82.063 85.722 6.829 0.701 o
4 -6 2 26.799 26.238 1.025 8.483 o
4 -6 3 35.321 29.530 1.378 5.596 o
4 -6 4 115.901 85.760 7.542 0.494 o
4 -6 5 276.050 225.020 7.447 0.127 o
4 -6 6 34.090 32.680 1.364 5.554 o
4 -6 7 36.820 32.584 1.022 5.437 o
4 -6 8 0.823 0.538 0.111 922.864 o
4 -5 -5 21.200 15.662 2.482 6.990 o
4 -5 -4 109.539 119.002 9.161 0.393 o
4 -5 -3 6.642 5.783 0.911 44.039 o
4 -5 -2 2.176 2.734 0.466 159.544 o
4 -5 -1 36.838 39.630 3.980 2.494 o
4 -5 0 21.137 21.595 1.630 9.357 o
4 -5 1 50.900 59.786 1.721 2.504 o
4 -5 2 87.374 75.584 3.393 1.039 o
4 -5 3 123.509 101.809 4.446 0.562 o
4 -5 4 35.537 27.757 1.387 5.698 o
4 -5 5 385.843 337.494 7.056 0.066 o
4 -5 6 50.572 45.923 1.346 3.053 o
4 -5 7 33.366 31.973 1.099 6.037 o
4 -5 8 1.225 0.693 0.129 633.460 o
4 -4 -6 19.575 13.002 1.563 11.910 o
4 -4 -5 200.253 202.881 8.519 0.188 o
4 -4 -4 59.066 65.923 4.857 1.298 o
4 -4 -3 291.823 251.061 25.328 0.060 o
4 -4 -2 1.497 0.798 0.284 365.236 o
4 -4 -1 401.326 470.625 56.356 0.016 o
4 -4 0 154.418 162.521 3.162 0.352 o
4 -4 1 260.802 246.588 15.671 0.097 o
4 -4 2 0.570 0.366 0.169 999.778 o
4 -4 3 61.983 51.882 2.917 1.875 o
4 -4 4 212.999 181.477 5.900 0.205 o
4 -4 5 210.682 181.677 3.355 0.222 o
4 -4 6 156.487 142.496 5.456 0.342 o
4 -4 7 0.445 0.696 0.149 1048.230 o
4 -4 8 53.803 47.202 1.854 2.640 o
4 -3 -7 9.475 5.183 1.952 14.970 o
4 -3 -6 98.751 81.852 3.320 0.876 o
4 -3 -5 82.856 83.500 6.360 0.746 o
4 -3 -4 131.648 175.106 12.816 0.221 o
4 -3 -3 167.561 202.491 29.673 0.066 o
4 -3 -2 101.950 122.329 12.513 0.293 o
4 -3 -1 36.424 37.903 1.759 4.463 o
4 -3 0 33.653 28.922 1.718 5.484 o
4 -3 1 845.373 873.345 62.423 0.008 o
4 -3 2 270.266 249.408 12.871 0.104 o
4 -3 3 30.708 29.917 1.101 6.808 o
4 -3 4 135.081 119.311 3.262 0.496 o
4 -3 5 9.191 9.645 0.525 42.218 o
4 -3 6 228.960 223.335 10.246 0.144 o
4 -3 7 47.498 41.164 1.371 3.458 o
4 -3 8 1.939 1.681 0.174 338.432 o
4 -2 -8 56.857 44.116 3.076 2.124 o
4 -2 -7 38.224 33.672 1.921 4.345 o
4 -2 -6 342.797 314.611 21.592 0.056 o
4 -2 -5 345.512 344.348 9.511 0.073 o
4 -2 -4 30.110 25.149 1.478 6.874 o
4 -2 -3 295.278 310.337 24.803 0.056 o
4 -2 -2 244.338 246.700 35.303 0.044 o
4 -2 -1 53.880 54.127 8.832 0.715 o
4 -2 0 243.917 220.267 13.029 0.122 o
4 -2 1 23.282 21.561 2.854 5.323 o
4 -2 2 255.979 260.229 9.441 0.121 o
4 -2 3 10.886 11.812 0.523 33.618 o
4 -2 4 116.254 109.828 6.640 0.488 o
4 -2 5 40.023 38.313 2.447 3.505 o
4 -2 6 11.249 10.110 0.592 33.739 o
4 -2 7 30.228 27.828 0.993 7.328 o
4 -2 8 9.120 10.222 0.519 41.575 o
4 -1 -8 47.674 39.540 3.821 2.204 o
4 -1 -7 55.097 53.779 2.096 2.335 o
4 -1 -6 39.612 39.678 2.326 3.580 o
4 -1 -5 238.106 250.364 15.078 0.108 o
4 -1 -4 144.421 130.070 10.313 0.280 o
4 -1 -3 2159.710 2022.500 101.392 0.002 o
4 -1 -2 139.694 108.265 4.878 0.460 o
4 -1 -1 216.407 206.528 12.354 0.145 o
4 -1 0 123.415 117.170 10.018 0.336 o
4 -1 1 101.268 95.954 2.636 0.819 o
4 -1 2 39.544 47.387 1.919 3.566 o
4 -1 3 1.532 1.192 0.164 444.650 o
4 -1 4 155.930 158.010 7.868 0.285 o
4 -1 5 35.093 33.854 1.327 5.337 o
4 -1 6 147.094 142.868 3.526 0.399 o
4 -1 7 27.967 27.678 0.851 8.194 o
4 0 -9 18.408 13.835 2.921 6.152 o
4 0 -8 49.034 40.509 1.531 3.292 o
4 0 -7 11.922 10.336 0.676 30.430 o
4 0 -6 149.437 145.820 7.641 0.313 o
4 0 -5 26.442 24.551 1.634 7.454 o
4 0 -4 883.976 859.221 56.456 0.008 o
4 0 -3 156.756 146.215 9.436 0.266 o
4 0 -2 0.796 0.401 0.234 638.818 o
4 0 -1 173.872 167.568 7.389 0.254 o
4 0 0 353.413 373.363 15.862 0.059 o
4 0 1 556.460 603.972 10.718 0.028 o
4 0 2 145.934 159.695 7.320 0.312 o
4 0 3 54.038 54.083 3.030 2.064 o
4 0 4 21.966 22.311 1.047 11.040 o
4 0 5 57.170 57.846 1.653 2.269 o
4 0 6 69.649 75.354 2.750 1.413 o
4 0 7 8.038 8.247 0.463 52.093 o
4 1 -10 6.751 4.944 0.527 67.278 o
4 1 -9 42.361 39.203 1.495 3.954 o
4 1 -8 71.180 64.461 2.512 1.537 o
4 1 -7 81.157 71.910 1.622 1.334 o
4 1 -6 130.788 124.351 3.918 0.489 o
4 1 -5 177.297 168.208 7.487 0.247 o
4 1 -4 190.400 196.994 4.589 0.233 o
4 1 -3 89.628 86.860 2.378 1.017 o
4 1 -2 102.134 113.272 3.506 0.698 o
4 1 -1 549.214 551.739 31.282 0.022 o
4 1 0 184.550 194.287 4.650 0.243 o
4 1 1 80.212 90.625 3.480 1.026 o
4 1 2 69.310 70.714 3.346 1.373 o
4 1 3 59.565 60.817 3.428 1.682 o
4 1 4 80.047 80.623 4.700 0.956 o
4 1 5 9.295 9.075 0.578 41.506 o
4 1 6 2.522 4.295 0.555 113.822 o
4 2 -11 12.384 11.801 1.250 19.828 o
4 2 -10 0.705 1.070 0.214 601.676 o
4 2 -9 182.492 170.739 8.683 0.224 o
4 2 -8 40.532 37.261 1.579 4.188 o
4 2 -7 9.863 8.936 0.512 41.397 o
4 2 -6 425.984 415.038 18.384 0.043 o
4 2 -5 102.934 102.746 4.163 0.698 o
4 2 -4 10.492 8.877 0.539 38.742 o
4 2 -3 170.548 187.567 5.497 0.265 o
4 2 -2 140.901 141.399 2.459 0.439 o
4 2 -1 25.683 31.237 0.780 8.461 o
4 2 0 110.804 121.515 1.714 0.662 o
4 2 1 27.585 30.489 1.071 7.553 o
4 2 2 2.780 4.078 0.411 140.338 o
4 2 3 131.713 130.598 6.977 0.390 o
4 2 4 40.539 45.696 1.717 3.682 o
4 2 5 10.021 12.180 0.689 32.409 o
4 3 -11 18.647 19.555 1.280 12.353 o
4 3 -10 3.152 2.588 0.396 153.690 o
4 3 -9 24.780 23.973 1.352 8.716 o
4 3 -8 283.244 269.706 16.343 0.085 o
4 3 -7 54.175 46.574 1.907 2.619 o
4 3 -6 84.160 81.917 2.252 1.141 o
4 3 -5 30.192 30.050 0.626 7.475 o
4 3 -4 56.431 47.878 0.874 2.726 o
4 3 -3 8.106 6.471 0.301 62.378 o
4 3 -2 33.843 37.678 0.810 5.671 o
4 3 -1 69.440 73.605 1.388 1.608 o
4 3 0 64.960 70.603 2.280 1.654 o
4 3 1 38.806 40.778 1.665 4.121 o
4 3 2 197.763 215.407 4.921 0.209 o
4 3 3 71.461 91.572 4.343 1.034 o
4 3 4 38.961 48.313 2.684 3.063 o
4 4 -11 9.817 10.246 0.490 39.752 o
4 4 -10 43.726 47.434 1.303 3.542 o
4 4 -9 8.119 7.897 0.412 54.260 o
4 4 -8 8.519 8.631 0.442 49.399 o
4 4 -7 419.669 404.009 7.796 0.053 o
4 4 -6 97.242 87.982 1.951 0.937 o
4 4 -5 146.023 147.443 3.203 0.400 o
4 4 -4 106.743 110.236 2.095 0.727 o
4 4 -3 96.747 103.075 2.411 0.839 o
4 4 -2 105.598 112.458 2.635 0.710 o
4 4 -1 8.745 8.244 0.469 48.451 o
4 4 0 3.345 3.548 0.416 132.527 o
4 4 1 58.209 63.436 2.091 2.016 o
4 4 2 4.143 5.386 0.572 84.165 o
4 4 3 3.234 4.476 0.447 119.659 o
4 5 -11 3.121 3.081 0.245 182.403 o
4 5 -10 2.237 2.744 0.236 238.436 o
4 5 -9 2.491 2.590 0.214 234.702 o
4 5 -8 4.110 3.897 0.249 137.156 o
4 5 -7 153.978 143.040 3.307 0.380 o
4 5 -6 42.990 43.926 1.216 3.810 o
4 5 -5 15.517 14.377 0.536 22.120 o
4 5 -4 58.780 61.265 1.783 2.102 o
4 5 -3 64.868 67.957 2.587 1.638 o
4 5 -2 229.704 242.409 4.147 0.164 o
4 5 -1 83.669 89.571 2.386 1.080 o
4 5 0 4.774 4.983 0.587 78.515 o
4 5 1 14.603 20.936 1.126 15.331 o
4 5 2 0.037 0.046 0.054 11609.200 o
4 6 -11 31.979 33.681 1.550 5.596 o
4 6 -10 8.813 9.348 0.479 45.471 o
4 6 -9 30.732 31.534 1.394 6.221 o
4 6 -8 23.502 23.100 0.798 10.872 o
4 6 -7 44.620 46.216 1.167 3.574 o
4 6 -6 86.715 89.626 3.271 0.970 o
4 6 -5 56.522 55.955 2.301 2.169 o
4 6 -4 388.243 394.007 19.108 0.048 o
4 6 -3 197.460 199.281 6.559 0.208 o
4 6 -2 53.223 55.856 1.833 2.453 o
4 6 -1 10.289 10.036 0.674 34.712 o
4 6 0 11.008 12.360 0.835 27.550 o
4 6 1 13.792 13.164 0.705 24.040 o
4 7 -10 40.398 47.511 4.374 2.034 o
4 7 -9 17.174 18.402 1.190 14.029 o
4 7 -8 16.349 16.795 0.577 19.296 o
4 7 -7 19.212 21.411 0.641 14.331 o
4 7 -6 1.401 1.454 0.156 450.835 o
4 7 -5 142.541 150.331 6.208 0.353 o
4 7 -4 48.921 51.024 2.223 2.660 o
4 7 -3 11.107 11.490 0.932 26.470 o
4 7 -2 0.573 0.967 0.267 545.861 o
4 7 -1 15.605 14.068 1.987 10.678 o
4 7 0 3.137 4.113 0.462 122.287 o
4 8 -9 11.254 9.983 0.703 31.830 o
4 8 -8 10.097 10.939 0.508 37.362 o
4 8 -7 43.430 46.897 0.957 3.731 o
4 8 -6 0.190 0.320 0.106 2317.190 o
4 8 -5 84.885 86.101 5.890 0.766 o
4 8 -4 19.179 19.581 2.004 8.741 o
4 8 -3 6.890 6.350 0.750 49.888 o
5 -11 2 3.506 4.266 1.011 51.292 o
5 -10 -1 13.736 5.888 1.256 21.358 o
5 -10 0 2.178 1.323 0.845 82.606 o
5 -10 1 2.376 3.056 0.769 85.927 o
5 -10 2 5.901 7.711 1.243 30.696 o
5 -10 3 16.091 17.471 1.835 10.827 o
5 -10 5 9.324 7.348 0.870 35.674 o
5 -10 6 8.277 7.645 0.670 45.044 o
5 -9 -2 15.683 9.161 2.121 10.586 o
5 -9 -1 7.259 5.042 0.704 53.553 o
5 -9 0 3.044 2.913 0.459 137.194 o
5 -9 1 42.671 46.452 2.372 3.087 o
5 -9 2 8.225 8.751 0.748 40.589 o
5 -9 3 34.419 32.992 3.291 3.313 o
5 -9 4 122.376 88.865 12.686 0.283 o
5 -9 5 10.277 8.811 0.671 36.489 o
5 -9 6 21.411 20.375 0.994 11.982 o
5 -9 7 0.401 0.193 0.229 906.710 o
5 -8 -2 6.143 4.723 0.930 46.502 o
5 -8 -1 26.133 22.830 1.884 7.098 o
5 -8 0 37.264 37.225 1.939 4.240 o
5 -8 1 30.041 33.825 1.869 5.445 o
5 -8 2 57.120 52.949 3.269 1.904 o
5 -8 3 102.430 104.574 5.818 0.603 o
5 -8 4 77.853 72.075 8.600 0.602 o
5 -8 5 39.191 34.631 1.428 4.614 o
5 -8 6 39.723 37.364 1.273 4.494 o
5 -8 7 18.332 14.134 0.910 16.558 o
5 -7 -4 20.162 9.147 2.051 9.685 o
5 -7 -3 16.405 12.206 1.856 11.548 o
5 -7 -2 5.881 4.554 1.116 38.418 o
5 -7 -1 23.944 21.025 2.093 7.174 o
5 -7 0 31.545 31.707 1.765 5.529 o
5 -7 1 24.027 20.725 1.305 9.657 o
5 -7 2 38.282 34.635 1.538 4.636 o
5 -7 3 0.944 0.755 0.154 692.919 o
5 -7 4 38.797 34.275 2.437 3.772 o
5 -7 5 82.237 69.004 2.281 1.283 o
5 -7 6 11.865 9.207 0.649 32.300 o
5 -7 7 1.833 2.166 0.248 284.536 o
5 -7 8 11.109 12.018 1.010 24.749 o
5 -6 -4 99.559 81.024 5.209 0.735 o
5 -6 -3 44.254 39.676 3.287 2.627 o
5 -6 -2 67.558 71.302 3.176 1.431 o
5 -6 -1 13.993 15.180 1.461 15.016 o
5 -6 0 94.491 96.246 2.878 0.873 o
5 -6 1 38.575 36.699 1.821 4.235 o
5 -6 2 10.975 8.151 0.625 36.498 o
5 -6 3 10.190 7.710 0.664 38.540 o
5 -6 4 65.694 57.286 2.844 1.707 o
5 -6 5 20.839 15.481 0.849 14.435 o
5 -6 6 2.182 1.841 0.290 249.209 o
5 -6 7 4.405 4.051 0.437 105.177 o
5 -5 -6 41.587 24.609 3.155 3.260 o
5 -5 -5 26.734 22.304 3.117 4.460 o
5 -5 -4 80.237 78.917 4.965 0.933 o
5 -5 -3 93.933 96.819 6.735 0.612 o
5 -5 -2 27.416 31.846 2.824 4.434 o
5 -5 -1 35.095 35.442 1.632 4.908 o
5 -5 0 104.465 98.108 2.710 0.776 o
5 -5 1 45.150 47.128 2.705 2.734 o
5 -5 2 32.577 28.416 1.540 5.957 o
5 -5 3 31.039 25.003 1.310 6.978 o
5 -5 4 12.414 8.681 0.657 31.492 o
5 -5 5 65.352 53.613 2.050 1.945 o
5 -5 6 109.486 89.256 6.415 0.573 o
5 -5 7 34.660 33.185 2.389 4.245 o
5 -5 8 8.818 7.532 0.693 42.462 o
5 -4 -7 3.189 2.525 1.411 32.388 o
5 -4 -6 12.479 9.860 1.413 18.496 o
5 -4 -5 226.051 222.028 12.272 0.135 o
5 -4 -4 29.120 28.605 2.832 4.414 o
5 -4 -3 234.759 236.563 8.672 0.144 o
5 -4 -2 232.272 215.190 4.792 0.172 o
5 -4 -1 277.255 301.569 18.959 0.074 o
5 -4 0 328.275 273.778 15.635 0.074 o
5 -4 1 126.800 113.733 8.916 0.366 o
5 -4 2 184.795 155.882 8.822 0.229 o
5 -4 3 9.128 7.467 0.584 44.993 o
5 -4 4 59.693 53.127 1.292 2.337 o
5 -4 5 42.967 39.446 2.139 3.464 o
5 -4 6 0.204 0.332 0.114 2119.900 o
5 -4 7 17.806 16.839 0.747 16.835 o
5 -3 -7 67.249 53.770 3.858 1.483 o
5 -3 -6 188.047 172.751 10.813 0.193 o
5 -3 -5 224.638 221.307 9.079 0.155 o
5 -3 -4 18.716 19.547 1.544 10.979 o
5 -3 -3 40.379 45.538 5.131 1.722 o
5 -3 -2 174.633 187.349 19.792 0.115 o
5 -3 -1 128.239 136.945 14.069 0.220 o
5 -3 0 7.572 9.897 0.722 41.713 o
5 -3 1 85.974 85.927 5.017 0.840 o
5 -3 2 75.777 70.007 2.871 1.326 o
5 -3 3 10.644 10.148 0.480 37.412 o
5 -3 4 36.159 31.462 1.645 5.020 o
5 -3 5 14.846 13.762 1.042 18.846 o
5 -3 6 23.432 23.638 1.021 10.187 o
5 -3 7 12.680 11.362 0.472 30.477 o
5 -2 -8 39.408 25.211 3.912 2.723 o
5 -2 -7 120.114 111.879 6.297 0.483 o
5 -2 -6 118.496 106.053 7.779 0.440 o
5 -2 -5 164.064 161.058 12.670 0.198 o
5 -2 -4 32.403 28.908 2.362 4.742 o
5 -2 -3 3.900 3.488 0.445 116.965 o
5 -2 -2 56.912 48.131 3.557 1.888 o
5 -2 -1 17.756 17.995 0.865 15.721 o
5 -2 0 217.016 183.587 16.270 0.124 o
5 -2 1 133.300 121.996 5.906 0.429 o
5 -2 2 73.198 62.576 1.466 1.649 o
5 -2 3 54.188 51.764 2.170 2.399 o
5 -2 4 104.345 100.590 6.312 0.576 o
5 -2 5 51.264 52.218 4.099 1.798 o
5 -2 6 4.918 5.075 0.364 98.081 o
5 -2 7 33.959 30.100 1.555 5.558 o
5 -1 -10 15.338 7.661 0.611 27.151 o
5 -1 -8 10.251 7.897 1.007 29.521 o
5 -1 -7 9.841 9.752 0.711 35.447 o
5 -1 -6 41.357 38.459 2.272 3.532 o
5 -1 -5 259.570 269.316 12.022 0.108 o
5 -1 -4 30.338 31.892 1.642 5.893 o
5 -1 -3 65.992 72.225 4.775 1.167 o
5 -1 -2 156.593 139.594 9.719 0.266 o
5 -1 -1 29.504 21.716 1.067 8.264 o
5 -1 0 30.294 31.812 1.708 5.807 o
5 -1 1 47.354 47.906 2.204 2.844 o
5 -1 2 317.605 343.780 14.136 0.072 o
5 -1 3 427.407 460.904 15.980 0.042 o
5 -1 4 32.087 36.471 1.158 5.795 o
5 -1 5 43.416 40.456 1.520 3.776 o
5 -1 6 42.423 43.398 1.488 3.749 o
5 0 -10 1.011 0.229 0.211 648.584 o
5 0 -9 12.757 9.420 0.875 26.418 o
5 0 -8 20.494 17.327 1.276 12.001 o
5 0 -7 161.552 152.200 3.751 0.341 o
5 0 -6 56.636 58.864 2.358 2.092 o
5 0 -5 440.914 455.160 4.952 0.047 o
5 0 -4 104.431 103.140 3.761 0.707 o
5 0 -3 83.027 71.590 3.423 1.123 o
5 0 -2 42.497 40.518 2.980 2.887 o
5 0 -1 356.796 381.541 16.475 0.057 o
5 0 0 38.803 41.206 1.910 3.912 o
5 0 1 60.320 66.124 3.465 1.590 o
5 0 2 7.504 8.384 0.450 55.047 o
5 0 3 110.903 115.291 5.430 0.551 o
5 0 4 3.444 4.127 0.415 124.443 o
5 0 5 17.052 17.984 0.767 16.882 o
5 0 6 43.731 45.242 1.616 3.485 o
5 1 -10 0.854 1.141 0.230 519.264 o
5 1 -9 31.687 28.084 1.888 5.604 o
5 1 -8 106.297 104.349 4.303 0.662 o
5 1 -7 36.477 34.774 1.614 4.787 o
5 1 -6 12.409 11.529 0.548 29.963 o
5 1 -5 66.130 68.943 2.201 1.658 o
5 1 -4 32.510 31.453 0.962 6.408 o
5 1 -3 273.211 276.355 7.687 0.114 o
5 1 -2 246.039 279.558 9.849 0.120 o
5 1 -1 415.667 425.532 10.995 0.050 o
5 1 0 30.670 29.222 0.841 7.232 o
5 1 1 69.187 74.581 1.459 1.595 o
5 1 2 1.720 1.306 0.202 372.984 o
5 1 3 65.628 67.718 3.603 1.428 o
5 1 4 3.253 4.104 0.382 134.683 o
5 1 5 3.327 4.753 0.417 120.323 o
5 2 -11 9.920 9.427 0.669 36.684 o
5 2 -10 25.015 23.252 0.916 9.891 o
5 2 -9 21.195 19.309 1.271 11.224 o
5 2 -8 41.997 46.009 1.411 3.709 o
5 2 -7 238.063 220.667 9.238 0.145 o
5 2 -6 3.985 4.385 0.329 123.912 o
5 2 -5 17.070 14.293 0.605 19.740 o
5 2 -4 57.567 56.097 2.158 2.164 o
5 2 -3 91.546 90.026 1.685 1.008 o
5 2 -2 26.244 28.056 0.732 8.881 o
5 2 -1 148.076 156.355 3.475 0.376 o
5 2 0 41.649 46.249 1.172 3.848 o
5 2 1 66.025 70.829 2.106 1.650 o
5 2 2 22.094 21.791 1.233 10.447 o
5 2 3 1.592 1.615 0.311 289.873 o
5 2 4 28.438 34.888 1.215 6.603 o
5 3 -11 6.122 6.206 0.435 73.059 o
5 3 -10 26.709 29.057 1.041 8.051 o
5 3 -9 18.334 17.751 0.980 14.722 o
5 3 -8 59.007 56.166 3.067 1.859 o
5 3 -7 16.276 14.648 0.591 20.572 o
5 3 -6 142.751 134.289 3.989 0.421 o
5 3 -5 5.356 5.838 0.315 91.033 o
5 3 -4 116.960 114.251 1.717 0.645 o
5 3 -3 14.762 14.453 0.514 23.327 o
5 3 -2 196.633 213.048 3.947 0.217 o
5 3 -1 52.247 54.810 1.212 2.700 o
5 3 0 119.741 125.902 2.414 0.576 o
5 3 1 15.437 16.540 1.065 16.849 o
5 3 2 41.691 42.173 1.608 3.805 o
5 3 3 11.432 13.518 0.776 26.721 o
5 4 -11 0.294 0.297 0.084 2205.670 o
5 4 -10 4.130 3.484 0.257 140.890 o
5 4 -9 16.892 14.415 0.655 19.552 o
5 4 -8 11.262 10.758 0.517 34.122 o
5 4 -7 16.706 15.929 0.745 18.335 o
5 4 -6 77.902 75.295 2.006 1.332 o
5 4 -5 53.239 55.277 1.436 2.576 o
5 4 -4 257.562 266.231 3.479 0.135 o
5 4 -3 301.809 315.909 8.619 0.091 o
5 4 -2 114.338 116.831 2.414 0.638 o
5 4 -1 245.986 259.742 4.543 0.143 o
5 4 0 57.573 60.119 1.716 2.189 o
5 4 1 56.332 66.112 1.979 2.061 o
5 4 2 13.263 15.625 0.832 21.718 o
5 5 -11 6.003 6.338 0.491 69.966 o
5 5 -10 3.581 4.024 0.405 124.484 o
5 5 -9 88.097 94.056 2.264 0.997 o
5 5 -8 22.236 23.516 0.895 11.109 o
5 5 -7 164.152 160.451 4.352 0.317 o
5 5 -6 73.493 76.121 2.398 1.371 o
5 5 -5 37.239 35.881 1.308 4.888 o
5 5 -4 22.216 25.271 0.904 10.685 o
5 5 -3 94.716 95.478 2.724 0.884 o
5 5 -2 56.751 57.371 1.529 2.327 o
5 5 -1 82.837 87.039 2.044 1.137 o
5 5 0 2.940 3.945 0.477 124.747 o
5 5 1 23.460 25.642 1.020 9.775 o
5 6 -10 7.413 9.354 0.537 49.893 o
5 6 -9 16.191 16.462 1.057 16.328 o
5 6 -8 38.334 37.896 1.182 4.700 o
5 6 -7 90.250 93.511 2.543 0.956 o
5 6 -6 16.343 18.664 1.137 14.828 o
5 6 -5 99.495 103.748 4.855 0.679 o
5 6 -4 98.956 97.929 3.878 0.764 o
5 6 -3 2.275 2.174 0.354 206.374 o
5 6 -2 27.087 26.745 1.408 7.539 o
5 6 -1 7.924 8.284 0.641 46.236 o
5 6 0 0.746 0.222 0.081 1250.500 o
5 7 -10 12.555 16.256 1.052 19.797 o
5 7 -9 4.755 6.433 0.562 74.586 o
5 7 -8 13.750 13.928 0.667 23.922 o
5 7 -7 4.425 4.505 0.292 118.300 o
5 7 -6 41.943 41.772 1.916 3.602 o
5 7 -5 2.471 2.594 0.279 214.330 o
5 7 -4 12.076 12.441 0.644 28.411 o
5 7 -3 18.816 22.909 1.494 10.504 o
5 7 -2 7.760 6.208 0.796 44.685 o
5 8 -8 7.822 6.567 0.819 42.899 o
5 8 -7 21.528 19.001 1.478 10.277 o
5 8 -6 8.618 6.885 0.613 47.265 o
5 8 -5 30.494 31.145 1.419 6.269 o
6 -10 0 11.433 12.036 1.200 21.381 o
6 -10 1 17.972 18.852 1.978 9.280 o
6 -10 2 12.419 14.024 1.304 18.135 o
6 -10 3 5.935 5.871 1.350 28.716 o
6 -10 4 11.839 9.903 1.497 17.902 o
6 -10 5 2.733 2.589 0.638 107.141 o
6 -9 -1 24.254 25.172 1.918 7.160 o
6 -9 0 0.976 0.958 0.271 449.598 o
6 -9 1 30.564 29.840 4.477 2.524 o
6 -9 2 27.651 25.606 2.781 4.783 o
6 -9 3 21.318 20.598 2.729 5.905 o
6 -9 4 19.651 17.252 1.619 10.691 o
6 -9 5 5.852 5.976 0.574 66.941 o
6 -9 6 11.381 10.647 1.169 22.701 o
6 -8 -4 7.124 2.274 0.609 68.619 o
6 -8 -2 14.647 10.194 1.134 19.837 o
6 -8 -1 74.657 69.294 6.188 0.879 o
6 -8 0 5.884 4.998 0.761 57.037 o
6 -8 1 106.242 117.035 6.149 0.537 o
6 -8 2 21.841 21.519 2.154 7.368 o
6 -8 3 27.677 25.170 2.699 4.946 o
6 -8 4 3.358 4.014 0.591 98.064 o
6 -8 5 3.744 3.505 0.486 112.795 o
6 -8 6 7.653 7.228 0.683 47.875 o
6 -8 7 1.140 0.778 0.251 464.075 o
6 -7 -4 35.494 18.861 2.685 4.486 o
6 -7 -3 75.944 44.560 3.854 1.403 o
6 -7 -2 32.929 26.233 1.766 5.743 o
6 -7 -1 16.862 16.166 1.249 14.550 o
6 -7 0 9.954 8.445 1.123 26.943 o
6 -7 1 40.933 44.533 2.901 2.915 o
6 -7 2 49.090 43.362 3.157 2.406 o
6 -7 3 204.719 171.587 9.054 0.194 o
6 -7 4 51.672 47.051 2.042 2.692 o
6 -7 5 38.501 31.808 1.261 5.038 o
6 -7 6 19.433 15.721 1.587 11.249 o
6 -7 7 3.569 3.475 0.380 135.047 o
6 -6 -5 23.913 14.071 2.438 6.805 o
6 -6 -4 84.562 61.064 4.284 1.069 o
6 -6 -3 43.306 37.693 2.875 2.992 o
6 -6 -2 1.644 2.161 0.469 184.328 o
6 -6 -1 20.614 19.172 1.593 10.098 o
6 -6 0 6.872 6.964 0.850 44.103 o
6 -6 1 40.132 36.691 2.789 3.281 o
6 -6 2 14.456 11.827 0.897 21.898 o
6 -6 3 18.172 16.458 1.321 13.207 o
6 -6 4 3.763 3.222 0.409 128.204 o
6 -6 5 34.137 30.139 1.597 5.473 o
6 -6 6 19.398 17.856 1.279 12.407 o
6 -6 7 2.756 2.383 0.369 177.028 o
6 -5 -6 23.973 17.083 2.717 5.819 o
6 -5 -5 25.014 24.063 2.662 5.383 o
6 -5 -4 220.972 187.908 18.585 0.107 o
6 -5 -3 4.838 2.803 0.711 74.413 o
6 -5 -2 36.503 42.766 3.497 2.775 o
6 -5 -1 81.865 86.601 7.297 0.659 o
6 -5 0 116.929 128.011 10.984 0.309 o
6 -5 1 67.383 55.635 2.836 1.685 o
6 -5 2 21.339 17.501 1.144 12.149 o
6 -5 3 24.552 19.946 0.960 10.673 o
6 -5 4 54.486 48.131 1.534 2.678 o
6 -5 5 17.742 16.421 1.139 14.629 o
6 -5 6 40.342 35.521 2.783 3.311 o
6 -4 -7 13.233 10.459 2.934 6.923 o
6 -4 -6 62.515 46.243 4.162 1.586 o
6 -4 -5 98.360 84.831 5.296 0.723 o
6 -4 -4 140.686 124.283 6.450 0.388 o
6 -4 -3 8.661 8.693 0.816 37.274 o
6 -4 -2 76.493 84.279 7.347 0.690 o
6 -4 -1 94.310 95.797 6.916 0.600 o
6 -4 0 8.167 6.994 0.781 42.518 o
6 -4 1 14.713 13.633 1.091 18.550 o
6 -4 2 99.745 79.678 3.529 0.862 o
6 -4 3 46.936 37.956 1.365 3.649 o
6 -4 4 24.227 20.834 1.693 8.336 o
6 -4 5 23.971 24.465 1.635 8.085 o
6 -4 6 27.511 24.605 0.959 8.644 o
6 -4 7 27.779 23.893 1.153 8.282 o
6 -3 -7 54.411 44.894 4.950 1.528 o
6 -3 -6 39.175 35.402 2.416 3.713 o
6 -3 -5 70.243 59.024 3.459 1.451 o
6 -3 -4 99.001 90.061 5.751 0.669 o
6 -3 -3 57.369 54.695 3.129 1.913 o
6 -3 -2 420.351 416.212 28.187 0.035 o
6 -3 -1 28.282 22.743 1.347 7.884 o
6 -3 0 55.638 59.955 5.680 1.206 o
6 -3 1 75.595 61.617 2.471 1.473 o
6 -3 2 91.037 84.947 2.170 1.024 o
6 -3 3 108.959 98.880 3.323 0.709 o
6 -3 4 15.085 12.864 0.910 20.379 o
6 -3 5 33.854 29.864 2.322 4.581 o
6 -3 6 5.342 4.249 0.322 101.732 o
6 -2 -8 10.662 7.818 0.808 33.499 o
6 -2 -7 34.503 27.396 1.496 5.770 o
6 -2 -6 7.776 5.647 0.654 52.105 o
6 -2 -5 22.497 20.060 0.958 11.631 o
6 -2 -4 166.860 164.692 7.682 0.263 o
6 -2 -3 28.350 27.434 1.321 7.310 o
6 -2 -2 167.901 157.137 5.815 0.294 o
6 -2 -1 22.381 19.717 1.003 11.617 o
6 -2 0 69.895 59.396 2.261 1.676 o
6 -2 1 210.285 186.268 3.884 0.217 o
6 -2 2 40.310 41.042 1.869 3.810 o
6 -2 3 149.167 151.586 8.456 0.292 o
6 -2 4 71.747 72.652 1.702 1.529 o
6 -2 5 15.437 13.535 0.650 21.934 o
6 -2 6 45.022 44.493 1.971 3.224 o
6 -1 -9 6.141 4.627 0.751 57.351 o
6 -1 -8 26.551 23.130 0.977 9.193 o
6 -1 -7 222.050 192.354 6.931 0.182 o
6 -1 -6 143.819 127.603 5.990 0.385 o
6 -1 -5 76.266 75.050 1.779 1.390 o
6 -1 -4 81.035 71.356 3.322 1.167 o
6 -1 -3 32.918 31.472 1.008 6.272 o
6 -1 -2 4.542 3.791 0.297 122.639 o
6 -1 -1 23.643 24.340 0.981 10.065 o
6 -1 0 5.189 4.726 0.323 100.390 o
6 -1 1 35.470 35.251 1.747 4.751 o
6 -1 2 107.963 117.689 5.535 0.555 o
6 -1 3 9.735 9.239 0.674 37.365 o
6 -1 4 21.834 19.177 0.881 12.499 o
6 -1 5 0.848 0.950 0.206 589.929 o
6 0 -10 13.255 9.837 1.087 22.185 o
6 0 -9 11.408 9.597 1.255 21.892 o
6 0 -8 35.126 32.438 1.995 4.691 o
6 0 -7 75.413 73.008 2.066 1.402 o
6 0 -6 101.118 101.727 1.955 0.821 o
6 0 -5 61.735 54.892 1.446 2.178 o
6 0 -4 42.413 45.938 1.327 3.716 o
6 0 -3 48.159 49.203 1.957 2.868 o
6 0 -2 148.203 149.952 4.284 0.373 o
6 0 -1 63.742 61.400 1.808 1.913 o
6 0 0 57.738 56.613 1.243 2.356 o
6 0 1 114.177 109.191 2.832 0.653 o
6 0 2 100.857 97.930 2.191 0.833 o
6 0 3 52.316 58.709 1.613 2.489 o
6 0 4 20.422 20.271 1.022 12.427 o
6 0 5 2.490 2.399 0.264 223.915 o
6 1 -11 5.761 5.049 0.678 63.319 o
6 1 -10 72.894 65.338 4.530 1.161 o
6 1 -9 40.343 41.525 2.294 3.475 o
6 1 -8 2.016 2.567 0.495 157.220 o
6 1 -7 121.112 120.913 3.534 0.554 o
6 1 -6 10.450 9.758 0.626 35.684 o
6 1 -5 70.371 65.410 2.801 1.498 o
6 1 -4 154.962 157.904 6.162 0.315 o
6 1 -3 95.476 91.688 2.876 0.887 o
6 1 -2 41.355 42.900 1.059 4.105 o
6 1 -1 12.504 12.447 0.582 28.367 o
6 1 0 37.864 38.482 1.162 4.737 o
6 1 1 3.599 3.282 0.352 141.875 o
6 1 2 31.961 35.738 1.285 5.745 o
6 1 3 27.825 34.794 1.387 6.487 o
6 1 4 21.051 23.234 0.919 11.692 o
6 2 -11 7.627 6.444 0.826 43.470 o
6 2 -10 2.970 2.020 0.266 207.588 o
6 2 -9 48.100 42.687 2.174 2.971 o
6 2 -8 8.106 8.515 0.895 36.530 o
6 2 -7 0.114 0.204 0.141 2280.650 o
6 2 -6 52.019 45.581 2.225 2.639 o
6 2 -5 23.427 18.842 0.825 11.900 o
6 2 -4 77.401 67.652 1.912 1.433 o
6 2 -3 83.447 90.682 2.661 1.054 o
6 2 -2 36.085 37.675 1.008 5.159 o
6 2 -1 13.683 13.472 0.606 25.012 o
6 2 0 47.926 44.251 1.325 3.318 o
6 2 1 33.198 31.992 1.217 5.937 o
6 2 2 9.754 10.230 0.766 33.776 o
6 2 3 0.410 0.398 0.125 1410.830 o
6 3 -11 9.260 9.855 0.647 38.548 o
6 3 -10 6.540 5.542 0.342 77.708 o
6 3 -9 8.342 8.536 0.496 48.813 o
6 3 -8 6.906 6.975 0.458 62.763 o
6 3 -7 81.973 79.186 3.153 1.113 o
6 3 -6 30.709 29.481 0.862 7.164 o
6 3 -5 43.271 40.891 1.059 4.007 o
6 3 -4 99.032 96.152 1.969 0.870 o
6 3 -3 92.866 91.839 2.488 0.938 o
6 3 -2 149.790 149.908 2.291 0.394 o
6 3 -1 67.725 69.316 1.508 1.704 o
6 3 0 12.678 14.147 0.816 23.696 o
6 3 1 17.799 17.856 1.008 14.907 o
6 3 2 0.201 0.411 0.144 1656.950 o
6 4 -11 4.400 5.223 0.446 95.824 o
6 4 -10 0.723 0.501 0.136 941.315 o
6 4 -9 39.188 39.632 1.473 4.283 o
6 4 -8 59.513 62.668 1.593 2.083 o
6 4 -7 53.238 54.222 1.389 2.617 o
6 4 -6 97.212 89.170 3.033 0.872 o
6 4 -5 129.519 133.515 4.319 0.465 o
6 4 -4 114.424 112.905 3.289 0.624 o
6 4 -3 20.151 21.042 0.862 13.010 o
6 4 -2 3.601 2.711 0.331 153.912 o
6 4 -1 16.468 17.588 0.915 16.637 o
6 4 0 4.905 6.557 0.610 69.109 o
6 4 1 3.258 3.490 0.374 143.679 o
6 5 -10 17.803 21.231 0.813 14.720 o
6 5 -9 4.806 5.998 0.441 86.679 o
6 5 -8 26.984 26.631 0.889 8.613 o
6 5 -7 15.928 16.765 0.719 18.885 o
6 5 -6 40.004 41.469 1.781 3.882 o
6 5 -5 137.162 133.320 6.014 0.396 o
6 5 -4 9.778 10.539 0.792 32.745 o
6 5 -3 42.509 41.432 1.499 3.828 o
6 5 -2 27.644 26.579 1.394 7.448 o
6 5 -1 1.637 0.990 0.273 346.308 o
6 5 0 8.862 7.820 0.803 38.315 o
6 6 -10 19.387 20.934 0.888 13.410 o
6 6 -9 6.456 6.885 0.578 59.767 o
6 6 -8 6.989 7.829 0.434 60.444 o
6 6 -7 15.432 16.665 0.620 20.179 o
6 6 -6 51.520 54.528 2.098 2.485 o
6 6 -5 9.943 8.768 0.764 35.180 o
6 6 -4 20.056 21.245 1.448 10.540 o
6 6 -3 1.821 2.104 0.293 263.614 o
6 6 -2 2.164 2.560 0.526 143.878 o
6 7 -8 0.776 0.643 0.270 528.449 o
6 7 -7 18.161 19.117 1.695 10.526 o
6 7 -6 50.143 45.647 2.089 2.799 o
6 7 -5 2.000 1.648 0.225 305.641 o
7 -10 -1 7.917 5.249 1.206 30.543 o
7 -10 0 23.598 20.481 2.544 6.071 o
7 -10 1 0.692 0.834 0.309 453.517 o
7 -10 2 1.775 2.066 0.528 159.079 o
7 -10 3 0.219 0.077 0.155 1906.360 o
7 -10 4 5.088 5.282 0.868 53.037 o
7 -9 -2 0.611 1.071 0.311 443.390 o
7 -9 -1 37.653 36.557 2.034 4.146 o
7 -9 0 72.269 79.019 3.905 1.166 o
7 -9 1 6.216 5.071 0.674 60.781 o
7 -9 2 7.142 5.525 0.870 44.722 o
7 -9 3 17.233 18.224 2.348 7.962 o
7 -9 4 39.971 38.274 1.744 4.069 o
7 -9 5 3.462 4.202 0.770 73.067 o
7 -8 -4 2.410 0.646 0.421 205.853 o
7 -8 -3 21.621 15.425 2.327 7.450 o
7 -8 -2 54.254 55.037 3.326 1.942 o
7 -8 -1 38.129 40.974 2.040 3.882 o
7 -8 0 85.697 96.243 7.544 0.597 o
7 -8 1 5.271 6.583 0.703 59.975 o
7 -8 2 7.658 5.440 0.674 52.239 o
7 -8 3 4.642 3.917 0.663 76.664 o
7 -8 4 3.358 3.720 0.513 112.719 o
7 -8 5 9.826 6.983 2.302 11.231 o
7 -7 -4 10.878 8.115 1.837 14.973 o
7 -7 -3 55.301 35.990 4.160 1.881 o
7 -7 -2 16.649 14.586 1.721 11.858 o
7 -7 -1 73.544 75.643 7.278 0.738 o
7 -7 0 47.347 47.132 3.280 2.341 o
7 -7 1 25.884 22.951 1.931 7.019 o
7 -7 2 50.213 43.173 3.628 2.148 o
7 -7 3 49.570 43.395 2.296 2.802 o
7 -7 4 25.022 22.533 1.278 9.074 o
7 -7 5 26.523 23.764 1.789 7.149 o
7 -7 6 11.311 12.103 1.109 22.837 o
7 -6 -4 54.172 42.911 3.260 2.172 o
7 -6 -3 188.802 176.608 10.684 0.192 o
7 -6 -2 26.105 24.658 1.755 7.225 o
7 -6 -1 8.864 7.690 0.843 37.251 o
7 -6 0 40.231 42.755 2.530 3.268 o
7 -6 1 31.357 29.844 3.104 3.819 o
7 -6 2 73.415 64.256 3.830 1.276 o
7 -6 3 24.884 20.892 1.163 9.749 o
7 -6 4 0.154 0.479 0.149 1628.720 o
7 -6 5 5.730 4.515 0.449 84.015 o
7 -6 6 30.947 35.050 1.946 5.120 o
7 -5 -6 43.555 38.046 5.728 1.508 o
7 -5 -5 5.272 3.675 0.916 52.428 o
7 -5 -4 177.185 148.521 7.021 0.269 o
7 -5 -3 10.598 9.412 1.071 26.316 o
7 -5 -2 99.218 101.881 6.896 0.564 o
7 -5 -1 11.907 9.942 1.062 24.215 o
7 -5 0 66.768 61.836 2.901 1.608 o
7 -5 1 110.212 81.648 5.794 0.625 o
7 -5 2 162.298 134.735 4.950 0.345 o
7 -5 3 39.063 37.189 1.577 4.357 o
7 -5 4 1.842 1.434 0.189 356.652 o
7 -5 5 33.899 32.767 1.048 5.913 o
7 -4 -7 3.220 3.003 0.821 72.964 o
7 -4 -6 26.601 20.172 2.529 5.712 o
7 -4 -5 59.911 49.568 3.155 1.906 o
7 -4 -4 250.439 221.014 9.280 0.136 o
7 -4 -3 64.442 62.007 4.203 1.382 o
7 -4 -2 6.869 6.018 0.748 50.766 o
7 -4 -1 67.166 65.836 5.348 1.095 o
7 -4 0 43.459 39.584 2.808 2.973 o
7 -4 1 40.383 32.415 2.436 3.718 o
7 -4 2 43.587 34.979 1.117 4.270 o
7 -4 3 92.434 85.688 3.564 0.904 o
7 -4 4 0.109 -0.029 0.091 5057.990 o
7 -4 5 38.742 38.118 1.321 4.534 o
7 -3 -7 29.855 21.640 1.664 6.941 o
7 -3 -6 20.229 17.128 1.470 11.216 o
7 -3 -5 6.092 5.312 0.574 67.599 o
7 -3 -4 53.868 56.428 3.031 2.030 o
7 -3 -3 187.906 190.185 9.115 0.202 o
7 -3 -2 0.284 0.355 0.193 1147.170 o
7 -3 -1 24.632 24.787 1.064 9.384 o
7 -3 0 10.268 9.361 0.659 36.016 o
7 -3 1 136.460 114.152 2.581 0.515 o
7 -3 2 164.678 149.430 5.752 0.310 o
7 -3 3 0.591 0.527 0.190 838.721 o
7 -3 4 11.091 11.919 1.259 20.936 o
7 -3 5 0.139 0.118 0.151 2161.240 o
7 -2 -8 4.467 3.340 0.369 119.298 o
7 -2 -7 11.517 8.609 0.681 33.271 o
7 -2 -6 26.590 28.633 1.136 7.971 o
7 -2 -5 2.251 2.393 0.363 199.174 o
7 -2 -4 302.272 317.530 14.410 0.078 o
7 -2 -3 154.859 147.709 4.472 0.355 o
7 -2 -2 190.411 183.939 6.501 0.227 o
7 -2 -1 48.090 42.197 2.289 2.928 o
7 -2 0 13.967 14.680 0.688 22.845 o
7 -2 1 3.421 3.070 0.349 150.176 o
7 -2 2 83.249 78.806 4.389 0.966 o
7 -2 3 76.881 75.696 5.191 0.956 o
7 -2 4 6.754 5.626 0.422 70.884 o
7 -2 5 20.951 18.999 1.109 12.115 o
7 -1 -10 2.765 1.492 0.431 172.136 o
7 -1 -9 8.133 7.213 1.343 25.300 o
7 -1 -8 102.359 92.819 4.929 0.692 o
7 -1 -7 16.104 17.016 1.605 12.312 o
7 -1 -6 53.371 53.241 1.814 2.517 o
7 -1 -5 24.575 22.226 1.093 9.810 o
7 -1 -4 90.806 86.870 3.269 0.938 o
7 -1 -3 79.252 74.238 2.408 1.276 o
7 -1 -2 319.750 317.893 8.216 0.086 o
7 -1 -1 1.823 2.048 0.229 301.236 o
7 -1 0 59.332 65.081 1.634 2.036 o
7 -1 1 25.932 26.396 1.030 8.729 o
7 -1 2 30.477 30.142 1.167 6.743 o
7 -1 3 10.366 11.565 0.660 32.868 o
7 -1 4 11.474 11.975 0.754 28.390 o
7 0 -10 8.058 6.772 0.445 56.674 o
7 0 -9 18.519 17.182 1.351 12.644 o
7 0 -8 38.810 41.920 2.364 3.526 o
7 0 -7 113.459 105.044 5.958 0.540 o
7 0 -6 10.419 9.900 0.772 32.456 o
7 0 -5 13.399 13.627 0.717 24.164 o
7 0 -4 62.772 64.167 1.653 1.925 o
7 0 -3 394.300 397.061 7.485 0.058 o
7 0 -2 119.568 117.672 3.735 0.565 o
7 0 -1 18.120 16.455 0.680 17.086 o
7 0 0 45.414 45.556 2.013 3.137 o
7 0 1 44.183 42.866 1.244 3.734 o
7 0 2 15.185 16.972 0.833 18.725 o
7 0 3 7.422 8.547 0.619 48.599 o
7 1 -10 4.421 3.721 0.349 119.176 o
7 1 -9 1.676 1.117 0.262 343.844 o
7 1 -8 12.643 10.803 1.149 21.444 o
7 1 -7 1.576 1.681 0.293 300.953 o
7 1 -6 25.665 25.509 1.172 8.646 o
7 1 -5 171.717 157.782 6.929 0.271 o
7 1 -4 160.402 144.726 5.213 0.333 o
7 1 -3 10.977 8.819 0.510 37.882 o
7 1 -2 37.683 37.635 1.049 4.897 o
7 1 -1 6.632 5.713 0.423 71.501 o
7 1 0 104.458 102.760 2.917 0.747 o
7 1 1 27.594 24.150 1.014 8.584 o
7 1 2 4.236 3.268 0.325 131.174 o
7 1 3 14.060 14.404 0.668 23.103 o
7 2 -10 4.562 3.317 0.335 122.245 o
7 2 -9 3.550 2.937 0.364 145.288 o
7 2 -8 4.663 3.596 0.345 116.242 o
7 2 -7 54.144 47.442 2.317 2.451 o
7 2 -6 13.301 13.118 0.604 25.984 o
7 2 -5 4.309 4.480 0.397 108.295 o
7 2 -4 25.506 24.171 0.894 9.568 o
7 2 -3 11.628 10.919 0.597 31.717 o
7 2 -2 0.905 0.482 0.118 868.271 o
7 2 -1 165.965 159.328 2.220 0.334 o
7 2 0 107.282 117.876 2.263 0.688 o
7 2 1 31.068 37.194 1.119 5.956 o
7 2 2 10.885 12.675 0.654 30.502 o
7 3 -10 10.411 10.612 0.617 34.807 o
7 3 -9 3.639 4.384 0.411 118.882 o
7 3 -8 51.525 53.571 1.848 2.593 o
7 3 -7 79.382 77.369 2.034 1.281 o
7 3 -6 248.336 238.027 4.766 0.149 o
7 3 -5 350.587 324.529 11.171 0.071 o
7 3 -4 7.977 7.996 0.524 50.877 o
7 3 -3 57.237 61.301 1.663 2.190 o
7 3 -2 10.418 11.953 0.610 33.186 o
7 3 -1 27.963 28.919 1.107 7.602 o
7 3 0 1.821 2.960 0.317 224.683 o
7 3 1 3.458 3.231 0.333 150.032 o
7 4 -10 28.546 34.602 1.001 6.897 o
7 4 -9 1.881 2.220 0.300 251.511 o
7 4 -8 3.955 3.330 0.297 141.596 o
7 4 -7 7.463 6.650 0.510 57.824 o
7 4 -6 63.707 69.106 1.624 1.816 o
7 4 -5 56.315 55.231 2.297 2.192 o
7 4 -4 15.778 14.647 0.785 19.718 o
7 4 -3 52.831 54.619 1.632 2.563 o
7 4 -2 9.082 9.842 0.817 34.647 o
7 4 -1 9.666 10.486 1.047 27.428 o
7 5 -9 14.648 16.841 0.860 19.141 o
7 5 -8 8.031 8.642 0.482 50.494 o
7 5 -7 17.759 17.999 0.718 16.516 o
7 5 -6 64.456 66.577 2.023 1.769 o
7 5 -5 144.797 149.868 3.745 0.392 o
7 5 -4 11.210 11.795 0.705 29.903 o
7 5 -3 8.973 8.656 0.714 39.469 o
7 5 -2 3.974 4.056 0.632 85.486 o
7 6 -8 11.631 11.536 0.881 26.420 o
7 6 -7 30.484 28.465 2.043 5.507 o
7 6 -6 4.039 3.109 0.296 142.375 o
7 6 -5 20.141 17.077 0.671 15.146 o
8 -9 -2 4.139 5.140 1.254 35.392 o
8 -9 -1 1.409 1.346 0.813 94.068 o
8 -9 0 60.411 52.977 11.330 0.472 o
8 -9 1 15.607 14.065 2.931 6.437 o
8 -9 2 1.259 1.514 0.409 249.479 o
8 -9 3 16.199 17.656 1.193 14.886 o
8 -8 -3 10.842 7.699 0.831 32.672 o
8 -8 -2 38.400 45.289 2.278 3.492 o
8 -8 -1 74.256 79.721 3.133 1.232 o
8 -8 0 81.002 81.481 7.964 0.621 o
8 -8 1 13.614 12.658 1.458 16.105 o
8 -8 2 13.980 11.431 0.988 21.652 o
8 -8 3 1.987 2.050 0.251 275.016 o
8 -8 4 3.034 2.449 0.834 74.355 o
8 -7 -4 13.575 11.598 1.380 17.334 o
8 -7 -3 21.324 26.322 2.063 7.255 o
8 -7 -2 82.475 94.481 6.900 0.667 o
8 -7 -1 81.081 89.760 4.987 0.870 o
8 -7 0 16.859 14.937 1.853 10.898 o
8 -7 1 76.600 70.864 8.189 0.646 o
8 -7 2 0.882 1.520 0.346 331.443 o
8 -7 3 13.519 12.656 0.796 23.800 o
8 -7 4 4.676 4.896 0.471 91.763 o
8 -6 -6 1.520 0.500 0.495 208.241 o
8 -6 -4 21.678 17.407 1.592 10.038 o
8 -6 -3 20.816 19.361 1.476 10.492 o
8 -6 -2 6.455 7.331 0.960 40.130 o
8 -6 -1 15.591 17.504 1.325 14.386 o
8 -6 0 24.292 21.699 1.767 7.978 o
8 -6 1 14.010 13.028 1.110 19.328 o
8 -6 2 47.743 39.566 1.479 3.456 o
8 -6 3 17.447 14.554 0.864 17.470 o
8 -6 4 18.852 16.133 1.750 10.540 o
8 -6 5 12.610 11.355 1.079 22.149 o
8 -5 -6 4.243 3.414 1.042 48.191 o
8 -5 -5 28.430 25.055 1.961 6.264 o
8 -5 -4 21.979 21.489 1.707 8.832 o
8 -5 -3 4.389 3.983 0.567 89.403 o
8 -5 -2 28.979 32.289 2.810 4.292 o
8 -5 -1 47.172 41.381 1.938 3.199 o
8 -5 0 2.436 2.125 0.371 193.712 o
8 -5 1 103.371 83.886 3.145 0.830 o
8 -5 2 27.777 22.441 1.288 8.201 o
8 -5 3 6.970 6.009 0.440 66.690 o
8 -5 4 0.473 0.623 0.121 1183.520 o
8 -4 -8 2.321 1.872 0.672 110.293 o
8 -4 -6 3.445 2.845 0.689 88.959 o
8 -4 -5 7.756 6.961 0.656 49.138 o
8 -4 -4 108.180 113.236 6.957 0.499 o
8 -4 -3 113.908 114.400 6.072 0.512 o
8 -4 -2 132.226 136.379 7.619 0.363 o
8 -4 -1 141.813 130.085 4.076 0.430 o
8 -4 0 16.951 13.644 0.814 18.765 o
8 -4 1 45.282 41.892 1.884 3.349 o
8 -4 2 26.916 25.202 1.635 7.264 o
8 -4 3 9.101 6.719 0.486 49.855 o
8 -4 4 9.739 10.813 0.679 35.038 o
8 -3 -7 13.187 10.004 0.975 23.770 o
8 -3 -6 5.450 3.742 0.720 66.081 o
8 -3 -5 0.270 0.165 0.213 1124.060 o
8 -3 -4 81.151 81.894 3.599 1.058 o
8 -3 -3 107.383 109.300 4.946 0.608 o
8 -3 -2 60.127 53.391 2.199 2.105 o
8 -3 -1 100.565 89.109 4.121 0.772 o
8 -3 0 104.963 96.245 4.808 0.671 o
8 -3 1 4.058 3.954 0.343 124.969 o
8 -3 2 24.047 26.795 2.027 6.762 o
8 -3 3 9.267 10.445 0.762 34.801 o
8 -3 4 14.246 13.714 0.677 23.247 o
8 -2 -8 9.205 9.155 0.701 38.352 o
8 -2 -7 1.736 2.151 0.423 201.413 o
8 -2 -6 0.961 0.742 0.268 478.213 o
8 -2 -5 7.038 6.135 0.676 53.423 o
8 -2 -4 10.635 9.634 0.617 35.541 o
8 -2 -3 88.093 88.044 3.572 0.938 o
8 -2 -2 50.022 47.571 1.838 2.853 o
8 -2 -1 137.503 138.466 6.934 0.365 o
8 -2 0 42.363 42.170 1.842 3.598 o
8 -2 1 112.410 118.994 6.585 0.487 o
8 -2 2 22.897 23.663 1.221 9.798 o
8 -2 3 10.112 8.327 0.613 39.135 o
8 -1 -10 30.887 22.949 1.533 6.839 o
8 -1 -9 55.856 49.005 1.663 2.543 o
8 -1 -8 37.558 34.701 1.465 4.790 o
8 -1 -7 36.837 37.617 1.889 4.311 o
8 -1 -6 38.434 34.831 1.834 4.339 o
8 -1 -5 5.259 4.620 0.521 81.912 o
8 -1 -4 54.110 49.549 1.388 2.700 o
8 -1 -3 32.386 31.157 1.283 6.089 o
8 -1 -2 316.341 312.408 6.653 0.090 o
8 -1 -1 202.890 197.153 6.438 0.204 o
8 -1 0 70.739 70.627 2.865 1.422 o
8 -1 1 19.114 17.324 1.267 12.762 o
8 -1 2 0.187 0.092 0.130 2428.830 o
8 -1 3 20.547 21.706 1.213 11.217 o
8 0 -10 56.559 46.206 2.259 2.388 o
8 0 -9 3.991 3.298 0.399 124.498 o
8 0 -8 42.164 39.642 2.830 3.032 o
8 0 -7 112.945 112.793 6.942 0.482 o
8 0 -6 4.556 3.725 0.451 103.559 o
8 0 -5 28.177 27.997 1.445 7.049 o
8 0 -4 67.504 66.470 2.518 1.602 o
8 0 -3 29.380 27.462 1.199 7.269 o
8 0 -2 259.707 264.224 6.120 0.129 o
8 0 -1 89.586 82.660 4.596 0.861 o
8 0 0 16.137 17.451 0.763 18.022 o
8 0 1 15.448 16.620 0.813 18.786 o
8 0 2 2.287 2.895 0.263 221.569 o
8 1 -10 17.120 17.036 0.968 15.974 o
8 1 -9 38.020 37.091 1.487 4.559 o
8 1 -8 4.359 3.698 0.478 102.996 o
8 1 -7 15.824 14.147 0.785 19.955 o
8 1 -6 60.130 52.452 1.411 2.309 o
8 1 -5 46.615 46.722 1.689 3.170 o
8 1 -4 71.502 70.190 2.779 1.424 o
8 1 -3 82.141 77.413 3.845 1.048 o
8 1 -2 82.578 76.829 4.626 0.958 o
8 1 -1 12.007 14.598 1.076 21.012 o
8 1 0 44.083 44.542 1.534 3.527 o
8 1 1 19.740 18.012 0.737 14.819 o
8 2 -10 1.412 1.126 0.181 459.061 o
8 2 -9 0.047 0.251 0.134 2655.420 o
8 2 -8 19.532 18.919 0.757 14.551 o
8 2 -7 56.386 51.686 2.033 2.343 o
8 2 -6 11.442 12.413 0.657 29.528 o
8 2 -5 43.575 41.630 1.346 3.800 o
8 2 -4 11.576 12.582 0.882 25.648 o
8 2 -3 10.707 10.817 0.653 33.083 o
8 2 -2 24.681 25.552 0.954 9.486 o
8 2 -1 15.804 17.797 1.067 16.028 o
8 2 0 33.788 37.022 1.816 4.777 o
8 3 -10 25.524 28.570 1.490 7.523 o
8 3 -9 7.293 7.930 1.029 34.789 o
8 3 -8 0.590 0.813 0.181 786.063 o
8 3 -7 22.873 22.558 0.781 11.352 o
8 3 -6 38.041 40.005 1.675 4.236 o
8 3 -5 27.846 27.830 1.002 7.965 o
8 3 -4 23.060 22.368 1.224 9.978 o
8 3 -3 14.224 14.440 0.695 22.585 o
8 3 -2 122.118 123.443 2.633 0.565 o
8 3 -1 0.604 0.435 0.216 768.649 o
8 4 -9 18.449 19.270 0.839 14.840 o
8 4 -8 9.113 9.055 0.538 43.281 o
8 4 -7 0.627 0.888 0.180 751.818 o
8 4 -6 52.067 53.057 2.102 2.493 o
8 4 -5 1.859 1.832 0.353 237.574 o
8 4 -4 18.328 18.966 1.023 14.076 o
8 4 -3 3.619 2.785 0.371 143.960 o
8 5 -7 78.098 77.743 2.386 1.268 o
8 5 -6 3.263 2.474 0.327 169.180 o
8 5 -5 8.654 6.570 0.791 41.252 o
9 -9 0 5.124 4.087 0.653 73.062 o
9 -9 1 3.610 2.808 0.604 100.296 o
9 -8 -2 2.896 3.264 0.475 133.055 o
9 -8 -1 25.083 25.005 3.002 4.681 o
9 -8 0 5.765 5.500 0.622 65.901 o
9 -8 1 28.520 27.471 1.725 6.493 o
9 -8 2 35.025 33.799 2.745 3.794 o
9 -7 -4 3.380 2.641 0.593 106.306 o
9 -7 -3 17.897 17.866 1.427 12.349 o
9 -7 -2 21.212 23.483 2.482 6.359 o
9 -7 -1 17.680 18.244 1.560 11.604 o
9 -7 0 6.383 6.112 0.582 62.377 o
9 -7 1 9.886 8.299 0.579 40.797 o
9 -7 2 33.505 26.449 3.219 3.653 o
9 -7 3 1.045 1.048 0.215 508.255 o
9 -6 -6 0.583 0.606 0.341 438.447 o
9 -6 -5 2.413 2.583 0.858 74.976 o
9 -6 -4 46.892 38.643 5.463 1.544 o
9 -6 -3 12.230 13.258 1.669 14.681 o
9 -6 -2 17.658 18.031 1.089 14.458 o
9 -6 -1 9.448 8.199 0.724 38.400 o
9 -6 0 23.608 20.972 1.431 9.351 o
9 -6 1 0.922 0.674 0.154 721.324 o
9 -6 2 7.734 6.421 0.428 60.429 o
9 -6 3 8.438 6.360 0.872 39.300 o
9 -5 -6 12.041 10.809 1.100 22.878 o
9 -5 -5 10.429 8.491 0.884 31.466 o
9 -5 -4 18.598 18.136 1.448 11.834 o
9 -5 -3 5.453 5.354 0.567 72.930 o
9 -5 -2 6.208 5.475 0.681 59.252 o
9 -5 -1 24.195 21.471 1.268 9.580 o
9 -5 0 2.465 1.841 0.250 247.736 o
9 -5 1 4.690 4.234 0.351 109.460 o
9 -5 2 2.984 2.982 0.376 157.904 o
9 -5 3 15.258 13.897 1.090 17.935 o
9 -4 -7 1.398 1.581 0.389 252.125 o
9 -4 -6 14.371 14.507 2.079 10.440 o
9 -4 -5 2.523 3.162 0.755 86.233 o
9 -4 -4 3.793 3.348 0.552 102.698 o
9 -4 -3 39.841 43.044 1.456 4.039 o
9 -4 -2 28.545 25.715 1.398 7.324 o
9 -4 -1 21.809 22.152 1.080 11.035 o
9 -4 0 51.189 50.778 2.350 2.500 o
9 -4 1 1.746 2.031 0.343 243.888 o
9 -4 2 36.977 40.175 2.130 3.949 o
9 -4 3 5.335 3.968 0.536 82.970 o
9 -3 -8 2.323 1.849 0.317 227.708 o
9 -3 -7 8.060 8.749 1.572 20.110 o
9 -3 -6 7.632 7.823 1.002 35.032 o
9 -3 -5 37.246 36.877 3.449 2.917 o
9 -3 -4 20.319 20.334 1.203 11.689 o
9 -3 -3 19.252 20.242 1.113 12.677 o
9 -3 -2 4.429 4.786 0.444 98.642 o
9 -3 -1 138.938 135.286 4.050 0.432 o
9 -3 0 14.728 14.885 1.176 17.166 o
9 -3 1 77.116 80.924 3.253 1.162 o
9 -3 2 17.280 15.926 1.251 14.346 o
9 -2 -9 10.976 7.252 0.839 32.681 o
9 -2 -8 22.308 22.101 1.094 10.773 o
9 -2 -7 23.233 25.282 1.428 8.779 o
9 -2 -6 47.051 48.492 3.486 2.229 o
9 -2 -5 26.070 25.206 1.500 7.790 o
9 -2 -4 22.042 21.908 1.147 10.749 o
9 -2 -3 18.971 17.868 0.928 14.517 o
9 -2 -2 1.348 1.332 0.258 375.285 o
9 -2 -1 78.478 80.136 4.892 0.953 o
9 -2 0 79.587 87.317 3.544 1.049 o
9 -2 1 65.693 76.445 2.959 1.453 o
9 -2 2 34.577 32.681 1.556 5.260 o
9 -1 -9 10.387 7.825 0.720 36.367 o
9 -1 -8 19.236 18.783 1.139 12.970 o
9 -1 -7 5.150 5.255 0.422 88.647 o
9 -1 -6 19.901 18.740 1.499 10.880 o
9 -1 -5 14.076 15.733 1.392 15.387 o
9 -1 -4 20.424 20.207 1.136 11.958 o
9 -1 -3 27.936 29.349 2.118 5.690 o
9 -1 -2 8.997 11.043 0.938 30.533 o
9 -1 -1 77.465 73.542 5.881 0.876 o
9 -1 0 38.243 36.905 3.369 2.928 o
9 0 -9 5.830 4.479 0.539 75.709 o
9 0 -8 1.393 1.268 0.211 419.183 o
9 0 -7 6.135 6.226 0.677 57.777 o
9 0 -6 22.855 22.479 1.461 9.250 o
9 0 -5 8.192 8.819 0.691 42.471 o
9 0 -4 52.266 51.086 2.093 2.535 o
9 0 -3 44.204 44.421 2.894 2.748 o
9 0 -2 25.879 25.995 2.170 6.175 o
9 0 -1 6.373 6.163 0.477 68.585 o
9 0 0 34.804 39.088 1.940 4.404 o
9 1 -9 2.922 3.342 0.393 150.331 o
9 1 -8 24.489 24.764 0.958 9.700 o
9 1 -7 3.207 2.696 0.303 173.132 o
9 1 -6 37.582 37.719 1.164 4.826 o
9 1 -5 14.898 15.549 0.766 20.373 o
9 1 -4 7.783 7.741 0.646 47.743 o
9 1 -3 0.401 0.473 0.162 1146.590 o
9 1 -2 23.236 22.123 1.502 9.049 o
9 1 -1 12.866 12.292 1.553 15.744 o
9 2 -9 9.672 10.692 0.878 30.876 o
9 2 -8 6.845 6.983 0.458 63.152 o
9 2 -7 43.944 48.484 1.349 3.459 o
9 2 -6 25.872 25.897 0.915 9.069 o
9 2 -5 27.585 29.021 1.153 7.610 o
9 2 -4 12.168 12.555 0.747 26.688 o
9 2 -3 3.012 2.568 0.311 180.817 o
9 2 -2 44.271 46.748 2.104 3.125 o
9 3 -8 18.858 18.352 1.119 13.420 o
9 3 -7 36.250 35.203 2.737 3.653 o
9 3 -6 0.281 0.177 0.085 2528.840 o
9 3 -5 22.998 23.200 1.095 10.240 o
9 3 -4 9.016 9.610 0.980 30.892 o
10 -7 -3 18.374 14.589 0.932 16.188 o
10 -7 -2 22.617 19.895 1.083 11.172 o
10 -7 -1 3.834 3.053 0.379 134.060 o
10 -7 0 4.589 4.343 0.434 100.663 o
10 -6 -5 22.752 17.341 1.621 9.560 o
10 -6 -4 3.748 3.791 0.511 106.506 o
10 -6 -3 21.262 18.483 1.522 10.292 o
10 -6 -2 1.001 0.542 0.307 428.120 o
10 -6 -1 12.949 14.409 0.916 21.954 o
10 -6 0 6.297 5.775 0.542 66.596 o
10 -6 1 0.333 0.043 0.198 1240.340 o
10 -5 -6 0.459 0.380 0.216 868.829 o
10 -5 -5 10.227 7.577 0.705 37.546 o
10 -5 -4 1.311 1.095 0.249 407.644 o
10 -5 -3 52.013 43.009 4.258 1.837 o
10 -5 -2 44.302 49.604 2.713 2.709 o
10 -5 -1 0.025 0.245 0.131 2893.170 o
10 -5 0 55.576 43.924 5.270 1.422 o
10 -4 -6 8.164 7.304 1.055 32.792 o
10 -4 -5 48.087 44.013 1.890 3.069 o
10 -4 -4 29.572 29.876 1.359 6.680 o
10 -4 -3 10.406 10.446 0.845 30.345 o
10 -4 -2 5.748 6.816 0.818 50.096 o
10 -4 -1 65.820 57.990 3.221 1.611 o
10 -4 0 21.865 19.484 1.352 10.565 o
10 -4 1 1.196 1.245 0.300 358.937 o
10 -3 -7 35.921 36.383 1.468 4.894 o
10 -3 -6 29.655 24.886 1.157 7.601 o
10 -3 -5 8.518 8.361 0.872 36.396 o
10 -3 -4 31.810 29.059 1.375 6.279 o
10 -3 -3 2.843 2.814 0.441 147.613 o
10 -3 -2 41.150 36.480 1.844 3.965 o
10 -3 -1 18.653 19.728 1.711 10.162 o
10 -3 0 43.423 45.276 2.076 3.251 o
10 -2 -7 44.231 43.942 2.128 3.211 o
10 -2 -6 4.041 4.869 0.489 97.847 o
10 -2 -5 6.134 7.136 0.640 57.466 o
10 -2 -4 14.070 14.551 0.914 20.536 o
10 -2 -3 31.485 32.895 1.430 5.904 o
10 -2 -2 16.427 17.179 1.344 13.843 o
10 -2 -1 17.738 17.021 3.929 3.888 o
10 -2 0 6.766 7.165 0.772 47.681 o
10 -1 -8 8.707 7.668 0.763 40.313 o
10 -1 -7 21.140 22.872 1.769 8.654 o
10 -1 -6 45.093 50.016 1.761 3.129 o
10 -1 -5 9.002 8.901 0.776 37.195 o
10 -1 -4 7.745 7.544 0.579 51.026 o
10 -1 -3 45.545 46.542 1.659 3.269 o
10 -1 -2 48.370 43.339 1.514 3.242 o
10 -1 -1 0.666 0.764 0.284 513.083 o
10 0 -8 1.060 0.571 0.199 597.170 o
10 0 -7 10.066 10.658 0.698 33.981 o
10 0 -6 53.395 54.676 2.438 2.280 o
10 0 -5 10.639 9.952 0.855 30.164 o
10 0 -4 3.436 3.071 0.351 149.296 o
10 0 -3 12.912 12.943 0.800 24.445 o
10 0 -2 8.610 7.054 1.121 30.296 o
10 1 -7 3.494 4.086 0.552 101.705 o
10 1 -6 7.268 6.134 1.053 36.022 o
10 1 -5 10.093 10.405 0.784 32.364 o
10 1 -4 3.728 2.864 0.296 154.767 o
11 -4 -4 0.686 0.338 0.179 877.751 o
11 -4 -3 24.512 22.314 1.438 8.813 o
11 -3 -5 7.057 6.932 0.748 48.074 o
11 -3 -4 20.546 19.374 1.360 11.109 o
11 -3 -3 1.841 1.030 0.299 302.255 o
11 -2 -5 17.760 17.416 1.207 13.867 o
11 -2 -4 16.639 12.883 1.490 13.899 o
;
_olex2_submission_special_instructions 'No special instructions were received'
_oxdiff_exptl_absorpt_empirical_details
;
Empirical correction (ABSPACK) includes:
- Absorption correction using spherical harmonics
- Frame scaling
;
_oxdiff_exptl_absorpt_empirical_full_max 3.499
_oxdiff_exptl_absorpt_empirical_full_min 0.414
loop_
_space_group_symop_id
_space_group_symop_operation_xyz
1 x,y,z
loop_
_atom_site_label
_atom_site_type_symbol
_atom_site_fract_x
_atom_site_fract_y
_atom_site_fract_z
_atom_site_U_iso_or_equiv
_atom_site_adp_type
_atom_site_occupancy
_atom_site_refinement_flags_posn
O1 O 0.52403(17) 0.81344(17) 0.22993(17) 0.0311(3) Uani 1.000000 .
O2 O 0.10150(16) 0.80441(17) 0.07046(17) 0.0296(3) Uani 1.000000 .
O3 O 0.44173(17) 1.20499(18) -0.01670(18) 0.0328(3) Uani 1.000000 .
O4 O 0.71810(17) 1.29929(17) 0.18910(17) 0.0299(3) Uani 1.000000 .
O5 O 0.03670(17) 0.7471(2) -0.29112(18) 0.0342(3) Uani 1.000000 .
O6 O 0.29978(17) 1.08811(17) 0.24819(17) 0.0302(3) Uani 1.000000 .
N7 N 0.50942(18) 1.05613(19) 0.12223(19) 0.0256(3) Uani 1.000000 .
N8 N 0.34029(19) 0.9258(2) 0.0408(2) 0.0246(3) Uani 1.000000 .
N9 N 0.29558(19) 0.62659(19) -0.03113(19) 0.0242(3) Uani 1.000000 .
C10 C 0.2344(2) 0.9309(2) 0.1200(2) 0.0258(4) Uani 1.000000 .
C11 C 0.1490(2) 0.4663(2) -0.1582(2) 0.0263(4) Uani 1.000000 .
C12 C 0.2980(2) 0.7590(2) -0.0891(2) 0.0243(4) Uani 1.000000 .
C13 C -0.0374(3) 0.1639(3) -0.3188(3) 0.0391(5) Uani 1.000000 .
C14 C 0.1209(3) 0.3004(3) -0.1837(3) 0.0326(4) Uani 1.000000 .
C15 C 0.3987(2) 0.6702(2) 0.1333(2) 0.0259(4) Uani 1.000000 .
C16 C 0.0293(2) 0.4905(3) -0.2724(2) 0.0291(4) Uani 1.000000 .
C17 C 0.3522(3) 0.5380(3) 0.1918(3) 0.0320(4) Uani 1.000000 .
C18 C -0.1283(3) 0.3530(3) -0.4061(3) 0.0379(5) Uani 1.000000 .
C19 C 0.5465(2) 1.1895(2) 0.0871(2) 0.0250(4) Uani 1.000000 .
C20 C 0.5513(2) 0.7244(3) -0.1321(3) 0.0313(4) Uani 1.000000 .
C21 C 0.6624(3) 0.7372(3) -0.2061(3) 0.0359(5) Uani 1.000000 .
C22 C 0.9969(3) 1.5192(3) 0.2958(3) 0.0342(4) Uani 1.000000 .
C23 C 0.4010(3) 0.8427(3) -0.2825(3) 0.0323(4) Uani 1.000000 .
C24 C -0.1623(3) 0.1880(3) -0.4265(3) 0.0415(5) Uani 1.000000 .
C25 C 0.5112(3) 0.8536(3) -0.3578(3) 0.0372(5) Uani 1.000000 .
C26 C 0.1025(2) 0.6732(3) -0.2296(2) 0.0275(4) Uani 1.000000 .
C27 C 0.4199(2) 0.7754(2) -0.1706(2) 0.0256(4) Uani 1.000000 .
C28 C 0.2124(4) 1.0215(3) 0.4464(3) 0.0432(5) Uani 1.000000 .
C29 C 0.8113(2) 1.4318(3) 0.1525(3) 0.0304(4) Uani 1.000000 .
C30 C 0.2075(3) 1.1236(3) 0.3510(3) 0.0297(4) Uani 1.000000 .
C31 C 0.6410(3) 0.8012(3) -0.3197(3) 0.0355(4) Uani 1.000000 .
C32 C 0.0224(3) 1.0848(3) 0.2392(3) 0.0410(5) Uani 1.000000 .
C33 C 0.8029(3) 1.3410(4) -0.0180(3) 0.0512(6) Uani 1.000000 .
C34 C 0.3197(3) 1.3156(3) 0.4720(3) 0.0391(5) Uani 1.000000 .
C35 C 0.7388(3) 1.5601(3) 0.1620(4) 0.0537(7) Uani 1.000000 .
H18 H -0.2104(3) 0.3711(3) -0.4815(3) 0.0454(6) Uiso 1.000000 R
H24 H -0.2708(3) 0.0919(3) -0.5140(3) 0.0498(6) Uiso 1.000000 R
H13 H -0.0608(3) 0.0496(3) -0.3380(3) 0.0469(6) Uiso 1.000000 R
H14 H 0.2058(3) 0.2814(3) -0.1122(3) 0.0391(5) Uiso 1.000000 R
H23 H 0.3135(3) 0.8810(3) -0.3075(3) 0.0388(5) Uiso 1.000000 R
H25 H 0.4969(3) 0.8974(3) -0.4360(3) 0.0446(6) Uiso 1.000000 R
H31 H 0.7155(3) 0.8091(3) -0.3715(3) 0.0426(5) Uiso 1.000000 R
H21 H 0.7522(3) 0.7023(3) -0.1787(3) 0.0431(5) Uiso 1.000000 R
H20 H 0.5658(2) 0.6802(3) -0.0543(3) 0.0376(5) Uiso 1.000000 R
H7 H 0.59407(18) 1.05281(19) 0.19765(19) 0.0308(4) Uiso 1.000000 R
H17a H 0.400(2) 0.4575(14) 0.157(2) 0.0480(6) Uiso 1.000000 GR
H17b H 0.402(2) 0.5966(3) 0.3155(3) 0.0480(6) Uiso 1.000000 GR
H17c H 0.2242(3) 0.4740(16) 0.1403(18) 0.0480(6) Uiso 1.000000 GR
H22a H 0.9969(5) 1.573(2) 0.4045(3) 0.0513(7) Uiso 1.000000 GR
H22b H 1.0403(9) 1.4331(5) 0.2935(15) 0.0513(7) Uiso 1.000000 GR
H22c H 1.0733(6) 1.6079(17) 0.2819(13) 0.0513(7) Uiso 1.000000 GR
H28a H 0.142(2) 0.8978(3) 0.3658(4) 0.0648(8) Uiso 1.000000 GR
H28b H 0.3342(5) 1.046(2) 0.511(2) 0.0648(8) Uiso 1.000000 GR
H28c H 0.164(3) 1.055(2) 0.524(2) 0.0648(8) Uiso 1.000000 GR
H32a H 0.0244(4) 1.133(2) 0.1621(18) 0.0615(7) Uiso 1.000000 GR
H32b H -0.0511(7) 0.9594(3) 0.173(2) 0.0615(7) Uiso 1.000000 GR
H32c H -0.0260(10) 1.137(2) 0.3101(3) 0.0615(7) Uiso 1.000000 GR
H33a H 0.846(3) 1.255(2) -0.0192(10) 0.0768(10) Uiso 1.000000 GR
H33b H 0.6811(5) 1.283(3) -0.1071(4) 0.0768(10) Uiso 1.000000 GR
H33c H 0.876(2) 1.4258(6) -0.0382(13) 0.0768(10) Uiso 1.000000 GR
H34a H 0.4414(6) 1.3385(4) 0.5340(19) 0.0587(7) Uiso 1.000000 GR
H34b H 0.315(2) 1.3793(3) 0.4078(4) 0.0587(7) Uiso 1.000000 GR
H34c H 0.2751(17) 1.3530(6) 0.5525(17) 0.0587(7) Uiso 1.000000 GR
H35a H 0.6220(14) 1.5047(10) 0.0650(17) 0.0806(11) Uiso 1.000000 GR
H35b H 0.730(3) 1.602(2) 0.2674(15) 0.0806(11) Uiso 1.000000 GR
H35c H 0.8171(17) 1.6579(16) 0.160(3) 0.0806(11) Uiso 1.000000 GR
loop_
_atom_site_aniso_label
_atom_site_aniso_U_11
_atom_site_aniso_U_22
_atom_site_aniso_U_33
_atom_site_aniso_U_12
_atom_site_aniso_U_13
_atom_site_aniso_U_23
O1 0.0258(7) 0.0271(7) 0.0278(7) 0.0074(6) 0.0049(5) 0.0110(6)
O2 0.0217(6) 0.0262(7) 0.0338(7) 0.0064(5) 0.0132(5) 0.0106(6)
O3 0.0246(6) 0.0345(8) 0.0402(8) 0.0132(6) 0.0118(6) 0.0222(7)
O4 0.0227(6) 0.0263(7) 0.0321(7) 0.0041(5) 0.0083(5) 0.0153(6)
O5 0.0238(7) 0.0420(8) 0.0328(7) 0.0144(6) 0.0087(5) 0.0184(6)
O6 0.0286(7) 0.0245(7) 0.0321(7) 0.0079(6) 0.0157(6) 0.0099(6)
N7 0.0169(7) 0.0237(8) 0.0277(8) 0.0054(6) 0.0059(6) 0.0109(7)
N8 0.0181(7) 0.0233(8) 0.0276(8) 0.0065(6) 0.0093(6) 0.0109(7)
N9 0.0194(7) 0.0232(8) 0.0247(7) 0.0065(6) 0.0087(6) 0.0101(6)
C10 0.0228(8) 0.0251(9) 0.0264(9) 0.0103(7) 0.0092(7) 0.0117(8)
C11 0.0209(8) 0.0248(9) 0.0243(9) 0.0043(7) 0.0113(7) 0.0067(8)
C12 0.0188(8) 0.0250(9) 0.0238(8) 0.0077(7) 0.0069(7) 0.0111(7)
C13 0.0401(12) 0.0255(10) 0.0342(11) 0.0005(9) 0.0207(9) 0.0055(9)
C14 0.0301(10) 0.0273(10) 0.0340(10) 0.0076(8) 0.0180(8) 0.0101(8)
C15 0.0215(8) 0.0263(9) 0.0259(9) 0.0097(7) 0.0087(7) 0.0115(8)
C16 0.0215(9) 0.0316(10) 0.0236(9) 0.0050(8) 0.0098(7) 0.0088(8)
C17 0.0303(9) 0.0305(10) 0.0312(9) 0.0104(8) 0.0120(8) 0.0156(8)
C18 0.0245(9) 0.0443(12) 0.0269(10) 0.0019(9) 0.0095(8) 0.0127(9)
C19 0.0234(8) 0.0242(9) 0.0283(9) 0.0112(7) 0.0130(7) 0.0122(8)
C20 0.0234(9) 0.0364(11) 0.0321(10) 0.0125(8) 0.0118(8) 0.0162(9)
C21 0.0215(9) 0.0404(12) 0.0391(11) 0.0110(9) 0.0130(8) 0.0155(10)
C22 0.0246(9) 0.0280(10) 0.0444(12) 0.0072(8) 0.0142(9) 0.0173(9)
C23 0.0302(10) 0.0356(10) 0.0325(10) 0.0141(8) 0.0154(8) 0.0175(9)
C24 0.0318(10) 0.0359(11) 0.0275(10) -0.0060(9) 0.0112(8) 0.0055(9)
C25 0.0400(11) 0.0405(12) 0.0359(11) 0.0157(10) 0.0217(9) 0.0216(10)
C26 0.0173(8) 0.0345(10) 0.0245(9) 0.0087(7) 0.0085(7) 0.0114(8)
C27 0.0188(8) 0.0227(9) 0.0242(9) 0.0040(7) 0.0069(7) 0.0072(7)
C28 0.0618(15) 0.0373(12) 0.0441(13) 0.0264(11) 0.0317(11) 0.0237(11)
C29 0.0227(9) 0.0295(10) 0.0428(11) 0.0097(8) 0.0171(8) 0.0213(9)
C30 0.0327(10) 0.0258(10) 0.0310(10) 0.0131(8) 0.0177(8) 0.0116(8)
C31 0.0280(9) 0.0337(11) 0.0354(11) 0.0061(8) 0.0183(8) 0.0102(9)
C32 0.0351(11) 0.0399(12) 0.0464(12) 0.0219(10) 0.0183(10) 0.0155(11)
C33 0.0340(12) 0.0687(18) 0.0389(12) 0.0087(11) 0.0184(10) 0.0246(13)
C34 0.0442(12) 0.0286(11) 0.0409(11) 0.0136(9) 0.0223(10) 0.0130(9)
C35 0.0289(11) 0.0395(13) 0.098(2) 0.0155(10) 0.0267(13) 0.0416(15)
loop_
_atom_type_symbol
_atom_type_scat_dispersion_real
_atom_type_scat_dispersion_imag
_atom_type_scat_Cromer_Mann_a1
_atom_type_scat_Cromer_Mann_a2
_atom_type_scat_Cromer_Mann_a3
_atom_type_scat_Cromer_Mann_a4
_atom_type_scat_Cromer_Mann_b1
_atom_type_scat_Cromer_Mann_b2
_atom_type_scat_Cromer_Mann_b3
_atom_type_scat_Cromer_Mann_b4
_atom_type_scat_Cromer_Mann_c
_atom_type_scat_source
_atom_type_scat_dispersion_source
H 0.00000 0.00000 0.49300 0.32291 0.14019 0.04081 10.51090 26.12570 3.14236
57.79970 0.0030380000826
'International Tables Volume C Table 6.1.1.4 (pp. 500-502)'
'Henke, Gullikson and Davis, At. Data and Nucl. Data Tables, 1993, 54, 2'
C 0.01920 0.00962 2.31000 1.02000 1.58860 0.86500 20.84390 10.20750 0.56870
51.65120 0.215599998832
'International Tables Volume C Table 6.1.1.4 (pp. 500-502)'
'Henke, Gullikson and Davis, At. Data and Nucl. Data Tables, 1993, 54, 2'
O 0.05239 0.03377 3.04850 2.28680 1.54630 0.86700 13.27710 5.70110 0.32390
32.90890 0.250800013542
'International Tables Volume C Table 6.1.1.4 (pp. 500-502)'
'Henke, Gullikson and Davis, At. Data and Nucl. Data Tables, 1993, 54, 2'
N 0.03256 0.01839 12.21260 3.13220 2.01250 1.16630 0.00570 9.89330 28.99750
0.58260 -11.5290002823
'International Tables Volume C Table 6.1.1.4 (pp. 500-502)'
'Henke, Gullikson and Davis, At. Data and Nucl. Data Tables, 1993, 54, 2'
loop_
_geom_angle_atom_site_label_1
_geom_angle_atom_site_label_2
_geom_angle_atom_site_label_3
_geom_angle
C29 O4 C19 120.92(14)
C30 O6 C10 120.11(14)
C19 N7 N8 120.61(14)
H7 N7 N8 119.69(9)
H7 N7 C19 119.69(9)
C10 N8 N7 119.66(15)
C12 N8 N7 118.64(14)
C12 N8 C10 117.54(14)
C12 N9 C11 108.90(14)
C15 N9 C11 127.28(15)
C15 N9 C12 122.40(15)
O6 C10 O2 127.95(18)
N8 C10 O2 121.24(17)
N8 C10 O6 110.80(15)
C14 C11 N9 128.70(18)
C16 C11 N9 110.54(16)
C16 C11 C14 120.63(17)
N9 C12 N8 114.45(14)
C26 C12 N8 109.59(15)
C26 C12 N9 101.52(14)
C27 C12 N8 111.46(14)
C27 C12 N9 109.99(15)
C27 C12 C26 109.32(14)
C24 C13 C14 122.7(2)
H13 C13 C14 118.65(14)
H13 C13 C24 118.65(13)
C13 C14 C11 116.8(2)
H14 C14 C11 121.58(12)
H14 C14 C13 121.58(14)
N9 C15 O1 120.62(16)
C17 C15 O1 121.09(16)
C17 C15 N9 118.29(16)
C18 C16 C11 121.6(2)
C26 C16 C11 109.21(16)
C26 C16 C18 129.2(2)
H17a C17 C15 109.5
H17b C17 C15 109.5
H17b C17 H17a 109.5
H17c C17 C15 109.5
H17c C17 H17a 109.5
H17c C17 H17b 109.5
C24 C18 C16 118.1(2)
H18 C18 C16 120.97(14)
H18 C18 C24 120.97(13)
O4 C19 O3 127.14(17)
N7 C19 O3 125.28(17)
N7 C19 O4 107.58(15)
C27 C20 C21 120.80(18)
H20 C20 C21 119.60(12)
H20 C20 C27 119.60(11)
C31 C21 C20 119.60(19)
H21 C21 C20 120.20(12)
H21 C21 C31 120.20(12)
H22a C22 C29 109.5
H22b C22 C29 109.5
H22b C22 H22a 109.5
H22c C22 C29 109.5
H22c C22 H22a 109.5
H22c C22 H22b 109.5
C27 C23 C25 119.59(19)
H23 C23 C25 120.21(12)
H23 C23 C27 120.21(12)
C18 C24 C13 119.93(19)
H24 C24 C13 120.04(13)
H24 C24 C18 120.04(13)
C31 C25 C23 120.58(19)
H25 C25 C23 119.71(12)
H25 C25 C31 119.71(12)
C12 C26 O5 124.44(18)
C16 C26 O5 129.57(18)
C16 C26 C12 105.87(16)
C20 C27 C12 120.13(17)
C23 C27 C12 120.45(17)
C23 C27 C20 119.42(18)
H28a C28 C30 109.5
H28b C28 C30 109.5
H28b C28 H28a 109.5
H28c C28 C30 109.5
H28c C28 H28a 109.5
H28c C28 H28b 109.5
C22 C29 O4 102.05(15)
C33 C29 O4 108.37(18)
C33 C29 C22 111.57(17)
C35 C29 O4 111.59(17)
C35 C29 C22 109.96(19)
C35 C29 C33 112.8(2)
C28 C30 O6 109.23(17)
C32 C30 O6 110.33(16)
C32 C30 C28 112.77(18)
C34 C30 O6 102.04(15)
C34 C30 C28 110.76(18)
C34 C30 C32 111.18(18)
C25 C31 C21 119.99(19)
H31 C31 C21 120.00(12)
H31 C31 C25 120.00(12)
H32a C32 C30 109.5
H32b C32 C30 109.5
H32b C32 H32a 109.5
H32c C32 C30 109.5
H32c C32 H32a 109.5
H32c C32 H32b 109.5
H33a C33 C29 109.5
H33b C33 C29 109.5
H33b C33 H33a 109.5
H33c C33 C29 109.5
H33c C33 H33a 109.5
H33c C33 H33b 109.5
H34a C34 C30 109.5
H34b C34 C30 109.5
H34b C34 H34a 109.5
H34c C34 C30 109.5
H34c C34 H34a 109.5
H34c C34 H34b 109.5
H35a C35 C29 109.5
H35b C35 C29 109.5
H35b C35 H35a 109.5
H35c C35 C29 109.5
H35c C35 H35a 109.5
H35c C35 H35b 109.5
loop_
_geom_bond_atom_site_label_1
_geom_bond_atom_site_label_2
_geom_bond_distance
O1 C15 1.225(2)
O2 C10 1.209(2)
O3 C19 1.209(2)
O4 C19 1.345(2)
O4 C29 1.479(2)
O5 C26 1.202(2)
O6 C10 1.330(2)
O6 C30 1.485(2)
N7 N8 1.379(2)
N7 C19 1.358(2)
N7 H7 0.8800
N8 C10 1.390(2)
N8 C12 1.449(2)
N9 C11 1.417(2)
N9 C12 1.498(2)
N9 C15 1.373(2)
C11 C14 1.396(3)
C11 C16 1.395(3)
C12 C26 1.571(2)
C12 C27 1.532(3)
C13 C14 1.394(3)
C13 C24 1.388(4)
C13 H13 0.9500
C14 H14 0.9500
C15 C17 1.509(3)
C16 C18 1.389(3)
C16 C26 1.466(3)
C17 H17a 0.9800
C17 H17b 0.9800
C17 H17c 0.9800
C18 C24 1.392(4)
C18 H18 0.9500
C20 C21 1.393(3)
C20 C27 1.387(3)
C20 H20 0.9500
C21 C31 1.383(3)
C21 H21 0.9500
C22 C29 1.518(3)
C22 H22a 0.9800
C22 H22b 0.9800
C22 H22c 0.9800
C23 C25 1.395(3)
C23 C27 1.392(3)
C23 H23 0.9500
C24 H24 0.9500
C25 C31 1.383(3)
C25 H25 0.9500
C28 C30 1.512(3)
C28 H28a 0.9800
C28 H28b 0.9800
C28 H28c 0.9800
C29 C33 1.512(3)
C29 C35 1.502(3)
C30 C32 1.515(3)
C30 C34 1.517(3)
C31 H31 0.9500
C32 H32a 0.9800
C32 H32b 0.9800
C32 H32c 0.9800
C33 H33a 0.9800
C33 H33b 0.9800
C33 H33c 0.9800
C34 H34a 0.9800
C34 H34b 0.9800
C34 H34c 0.9800
C35 H35a 0.9800
C35 H35b 0.9800
C35 H35c 0.9800
loop_
_refln_index_h
_refln_index_k
_refln_index_l
_refln_F_squared_meas
_refln_F_squared_sigma
_refln_scale_group_code
0 2 -1 561478 4184.03 107
0 -4 2 24264.3 1000.13 103
0 -4 2 22852.4 905.878 44
0 4 -2 21705.2 934.558 6
0 -4 2 24261.9 745.698 54
0 4 -2 22610.6 1105.81 107
0 4 -2 19004 665.833 4
0 4 -2 19746.3 677.4 106
0 6 -3 5325.2 569.729 15
0 6 -3 6692.38 530.367 14
0 -6 3 5801.02 436.723 73
0 6 -3 7994.74 816.255 107
0 -6 3 7137.67 559.531 54
0 6 -3 8261.19 636.081 80
0 6 -3 6832.18 527.758 16
0 6 -3 6551.25 545.244 4
0 -6 3 6686.87 707.994 103
0 6 -3 5874.34 612.573 18
0 6 -3 6272.62 526.646 9
0 6 -3 6373.49 498.794 8
0 -6 3 6675.85 898.814 57
0 6 -3 6844.97 541.494 25
0 6 -3 5898.82 551.844 10
0 -6 3 7755.28 774.599 38
0 6 -3 6201.57 536.289 12
0 -6 3 7037.71 595.537 47
0 -6 3 6110.5 488.741 115
0 -6 3 6729.4 560.783 95
0 6 -3 6622.04 568.498 24
0 8 -4 6317.47 578.81 25
0 -8 4 5465.27 840.355 43
0 8 -4 5815.4 604.267 9
0 -8 4 2940.97 591.261 63
0 -8 4 4919.29 1050.37 69
0 -8 4 4424.79 531.05 95
0 8 -4 4610.78 568.052 10
0 8 -4 4200.56 579.894 18
0 8 -4 5424.96 542.474 14
0 8 -4 5814.91 722.667 36
0 8 -4 5879.29 546.018 16
0 8 -4 5659.78 564.859 8
0 8 -4 4760.04 562.683 12
0 -10 5 4442.09 616.092 63
0 -10 5 3067 428.773 26
0 10 -5 7291.32 556.342 8
0 10 -5 5468.66 491.259 9
0 10 -5 7679.25 499.137 16
0 10 -5 4367.09 453.986 18
0 10 -5 6980.99 490.762 25
0 -10 5 2264.45 429.277 27
0 10 -5 5424.65 447.246 14
0 -10 5 6260.07 706.086 79
0 9 -5 11256.7 934.672 18
0 9 -5 16916.3 899.949 16
0 9 -5 15293.8 924.148 8
0 -9 5 14857.6 1276.18 79
0 -9 5 14047.3 1680.68 69
0 9 -5 12051 774.85 14
0 -9 5 9259.59 1024.75 63
0 9 -5 15331.8 867.015 25
0 9 -5 12928.3 886.221 12
0 -9 5 13690.7 1336.19 84
0 9 -5 14464.1 929.621 9
0 7 -4 30245.5 998.731 17
0 -7 4 26446.5 1244.42 95
0 -7 4 30553 1822.36 43
0 7 -4 26136.2 1223.44 12
0 7 -4 26530.5 1153.7 14
0 7 -4 28443.7 1198.21 25
0 -7 4 24635.6 2166.29 69
0 7 -4 26979.1 1147.36 8
0 7 -4 21090.7 1309.37 15
0 -7 4 25791.8 1276.69 47
0 7 -4 22917.8 1345.45 18
0 7 -4 27470.9 1237.01 4
0 7 -4 26969.1 1215.29 9
0 7 -4 25942.8 1289.43 10
0 -7 4 23452.1 964.036 73
0 7 -4 37542.9 1958.23 107
0 7 -4 29704.9 1216.95 16
0 5 -3 72106.2 2275.23 107
0 5 -3 57991.3 1406.39 12
0 5 -3 56425.2 1457.54 10
0 5 -3 60044.9 1387.52 4
0 -5 3 58140.3 2386.32 57
0 5 -3 57492.8 1358.04 9
0 5 -3 66675.4 1990.66 6
0 5 -3 66566.3 1503 106
0 -5 3 64069.9 1862.27 38
0 -5 3 60686.3 1416.63 54
0 5 -3 57430.2 1272.96 8
0 -5 3 60833.1 1551.48 47
0 3 -2 72689.9 1627.88 6
0 3 -2 78134.9 1952.35 107
0 -3 2 74817.1 1402.42 44
0 3 -2 69326.5 1057.42 4
0 3 -2 57904.3 1388.75 106
0 -3 2 73758.6 1245.19 47
0 -3 2 84871.1 1193.95 54
0 -3 2 80510.2 1493.4 103
0 1 -1 364989 2353.57 6
0 -1 1 319095 2418.28 2
0 -1 0 55827.6 675.075 100
0 -1 0 55252.4 635.359 39
0 1 0 55355.2 599.111 4
0 -1 0 54502 435.124 7
0 3 -1 47143.2 1347.28 107
0 -3 1 45074.2 1075.01 44
0 3 -1 43936.5 1067.48 6
0 -3 1 44092.8 911.566 42
0 -5 2 173325 2368.02 54
0 5 -2 145933 2423.63 10
0 5 -2 141573 2225.14 4
0 5 -2 139714 2048.72 8
0 -5 2 164364 2903.51 44
0 5 -2 147929 2279.75 12
0 5 -2 147923 2226.88 9
0 -5 2 143657 3611.46 57
0 -5 2 182900 3296.53 103
0 5 -2 185445 3514.04 107
0 -7 3 10044.4 1192.6 57
0 7 -3 8050.04 763.148 18
0 7 -3 9774.55 688.569 14
0 -7 3 10159 1025.44 38
0 7 -3 8350.38 736.583 10
0 7 -3 9692.64 649.304 16
0 7 -3 8902.33 669.136 8
0 7 -3 8775.75 718.532 12
0 -7 3 8047.38 596.838 115
0 -7 3 9998.21 751.587 95
0 7 -3 10564.8 716.903 25
0 -7 3 9550.03 1354.99 69
0 7 -3 10341.7 877.471 36
0 -7 3 9776.58 740.063 54
0 7 -3 8786.78 709.546 9
0 7 -3 7480.44 750.047 15
0 9 -4 5306.35 615.755 18
0 9 -4 5460.46 576.803 12
0 -9 4 7027.79 1253.38 69
0 -9 4 4665.55 507.787 95
0 9 -4 6685.82 535.336 16
0 9 -4 5636.19 577.058 9
0 9 -4 5778.38 547.35 14
0 9 -4 6437.39 550.719 25
0 -9 4 4071.51 706.545 63
0 9 -4 6525.61 601.031 8
0 10 -6 2200.08 295.409 8
0 10 -6 1540.31 284.258 18
0 -10 6 1880.87 389.622 79
0 10 -6 1534.69 256.252 12
0 10 -6 2467.7 319.727 9
0 10 -6 2057.39 262.694 25
0 -10 6 852.818 253.833 27
0 -10 6 1010.67 229.837 26
0 10 -6 1806.4 248.354 14
0 10 -6 2435.44 284.435 16
0 8 -5 3911.53 602.112 18
0 8 -5 5099.74 520.423 25
0 8 -5 4266.58 523.825 12
0 8 -5 5320.05 552.702 16
0 -8 5 4021.75 504.626 95
0 8 -5 4016.01 538.157 10
0 8 -5 4305.47 478.238 14
0 -8 5 3486.49 375.024 73
0 -8 5 5116.42 772.421 79
0 8 -5 4128.4 507.705 9
0 8 -5 5456.66 444.906 17
0 -8 5 5032.9 1042.6 69
0 -8 5 2767.57 561.792 63
0 8 -5 4822.89 530.444 8
0 6 -4 2200.06 336.264 80
0 6 -4 1290.75 300.252 15
0 -6 4 1931.88 555.668 69
0 6 -4 1868.08 264.184 8
0 6 -4 1754.33 382.206 107
0 6 -4 1688.82 287.362 10
0 6 -4 1629.87 264.088 9
0 6 -4 1568.46 349.567 18
0 6 -4 1807.16 278.367 14
0 6 -4 1904 285.334 4
0 -6 4 1830.14 299.744 95
0 6 -4 2048.84 311.592 16
0 6 -4 2149.7 412.233 6
0 -6 4 2028.41 404.052 43
0 6 -4 1790.17 291.671 24
0 6 -4 1610.93 264.663 25
0 -6 4 1771.53 308.092 47
0 -6 4 1281.65 431.187 57
0 6 -4 1754.55 247.955 17
0 -6 4 1748.8 251.918 73
0 6 -4 2591.02 340.48 12
0 4 -3 371512 2974.75 4
0 4 -3 344270 4229.2 106
0 -4 3 348297 3044.77 54
0 4 -3 375971 4443.8 6
0 4 -3 385149 4859.28 107
0 -4 3 350358 3332.84 47
0 -4 3 320249 4073.85 2
0 -4 3 399176 3642.88 38
0 2 -2 139237 2404.8 107
0 2 -2 134930 2020.86 6
0 -2 2 142360 1572.51 47
0 2 -2 133059 2404.74 46
0 -2 2 132763 2203.89 2
0 -2 0 230443 1162.77 7
0 -2 0 238049 1962.3 100
0 -2 0 235142 1677.54 41
0 2 0 230534 1872.81 99
0 -2 0 257457 2079.56 101
0 2 0 237580 1958.65 36
0 2 0 227886 1782.49 4
0 -4 1 214132 2899.39 44
0 -4 1 219638 3273.6 103
0 6 -2 12561.2 658.448 16
0 -6 2 15271.9 1118.29 103
0 6 -2 13706.5 740.477 25
0 -6 2 12931.6 1226.14 57
0 6 -2 11984.2 810.847 15
0 -6 2 14182.9 986.511 44
0 -6 2 14513 808.069 54
0 -6 2 12297.8 682.947 115
0 6 -2 12648.5 739.466 14
0 6 -2 12326.4 713.172 8
0 6 -2 11850.6 792.007 10
0 6 -2 10951.6 787.428 18
0 6 -2 13983.5 832.303 24
0 6 -2 13074.8 773.422 9
0 6 -2 12817 879.453 36
0 6 -2 12490.6 770.603 12
0 -8 3 53492 1853.5 54
0 -8 3 54325 1828.32 95
0 8 -3 67361.6 1807.75 25
0 8 -3 54124.2 2003.63 18
0 8 -3 64279.5 1897.09 8
0 -8 3 80983 3295.75 43
0 -8 3 64216.3 3747.77 69
0 8 -3 61822.8 1821.16 14
0 8 -3 64689.8 1662.24 16
0 8 -3 61523.9 1938.17 9
0 8 -3 47231.4 1896.93 15
0 8 -3 58587.1 1920.76 12
0 8 -3 59741.3 1367.15 88
0 10 -4 5486.81 392.676 16
0 -10 4 3562.44 578.613 63
0 -10 4 4330.69 658.059 84
0 10 -4 4103.43 401.123 14
0 -10 4 4576.34 602.967 79
0 10 -4 4969.05 444.981 8
0 9 -6 9373.69 659.594 25
0 9 -6 11045.5 726.415 16
0 9 -6 8645.95 692.756 9
0 9 -6 6522.33 718.65 18
0 -9 6 9511.4 971.002 79
0 -9 6 4561.58 714.605 27
0 -9 6 6878.36 817.992 63
0 9 -6 8349.76 693.06 12
0 -9 6 5330.29 616.771 26
0 9 -6 7665.2 591.33 14
0 9 -6 9743.47 715.201 8
0 7 -5 820.957 231.57 10
0 7 -5 640.628 182.786 25
0 7 -5 887.677 235.004 80
0 7 -5 849.349 215.563 16
0 7 -5 1230.26 225.615 17
0 -7 5 818.806 494.463 69
0 7 -5 823.718 201.369 8
0 7 -5 675.242 247.765 107
0 7 -5 879.451 215.827 14
0 -7 5 726.599 304.41 63
0 -7 5 684.166 198.729 95
0 7 -5 674.14 243.134 18
0 7 -5 911.364 222.255 9
0 7 -5 601.392 156.195 30
0 7 -5 808.876 283.911 6
0 -7 5 607.992 161.738 73
0 -7 5 848.162 302.631 79
0 7 -5 639.137 197.339 12
0 -7 5 855.537 232.697 47
0 5 -4 25482.8 928.316 12
0 -5 4 23928.5 1060.04 47
0 -5 4 29782.2 1812.89 57
0 5 -4 32030.6 1467.52 106
0 -5 4 26498.6 1188.39 2
0 5 -4 30822.6 1495.16 6
0 5 -4 26378.3 1005.33 10
0 -5 4 31108.4 1425.7 43
0 5 -4 26182.2 840.017 8
0 5 -4 29270.1 989.018 4
0 5 -4 29738.2 1531.47 107
0 5 -4 25063.2 883.235 9
0 -5 4 27267.9 1918.6 69
0 -3 3 242595 2192.6 38
0 3 -3 235918 3721.5 107
0 3 -3 217906 3912.06 106
0 3 -3 241055 3339.87 6
0 -3 3 223325 2480.96 47
0 -3 3 246463 3426.56 2
0 -1 2 63397.5 1620.8 98
0 -1 2 84912.7 1540.44 2
0 1 -2 80041.3 1713.84 46
0 1 -2 65687.8 1511.03 33
0 -1 2 84205.3 1221.31 47
0 1 -2 58943.9 1604.04 97
0 1 -2 66378.2 1775.75 102
0 -1 2 58376.6 768.343 99
0 1 -2 81089.6 1869.54 106
0 -1 2 77695.5 1802.21 5
0 1 -2 69044.8 1277.41 6
0 -3 0 179834 2153.86 100
0 -3 0 163411 1936.22 42
0 -3 0 192965 2677.51 35
0 3 0 166429 1984.8 99
0 -3 0 161374 2035.63 101
0 3 0 158703 2028.69 36
0 -3 0 172004 2011.79 39
0 3 0 199479 2649.06 107
0 5 -1 21623.4 968.132 10
0 5 -1 24322 1084.71 36
0 -5 1 25726.9 1188.03 44
0 5 -1 23457.6 910.469 9
0 5 -1 21989.2 898.879 12
0 5 -1 22842.7 873.555 8
0 -5 1 26590.7 1356.24 103
0 -7 2 82137.8 3399.73 57
0 7 -2 72646.3 1930.92 8
0 7 -2 81948.9 2498.86 36
0 7 -2 76338.4 1969.02 14
0 -7 2 61352.2 1613.94 115
0 -7 2 74103.3 2525.52 44
0 -7 2 76099.9 2800.48 103
0 7 -2 76129 1713.06 16
0 7 -2 60937.6 2013.35 15
0 -7 2 77724.7 2077.56 54
0 7 -2 73852.1 2013.89 9
0 7 -2 69623.3 1998.48 12
0 -7 2 77831.6 2093.85 95
0 7 -2 77845.5 1827.78 25
0 9 -3 3231.21 351.002 25
0 -9 3 2580.48 369.917 95
0 -9 3 2605.63 616.791 63
0 9 -3 3337.42 423.151 14
0 9 -3 3777.04 445.518 8
0 9 -3 3738.59 367.487 16
0 10 -7 1081.35 190.12 8
0 -10 7 699.394 156.346 26
0 10 -7 1247.16 187.586 16
0 -10 7 676.914 195.144 27
0 10 -7 1023.29 192.647 9
0 10 -7 803.83 171.764 12
0 10 -7 1033.69 176.94 25
0 -10 7 1186.05 238.415 111
0 -10 7 1334.75 298.082 79
0 8 -6 2060.89 336.414 8
0 -8 6 963.168 379.926 27
0 -8 6 1554.73 404.119 63
0 8 -6 1985.37 344.084 9
0 -8 6 1265.84 323.233 26
0 8 -6 1869.12 301.273 14
0 8 -6 2031 319.824 25
0 8 -6 1298.21 375.323 18
0 8 -6 2146.53 301.164 17
0 8 -6 1876.17 335.072 12
0 8 -6 1986.36 369.762 10
0 -8 6 1696.79 273.751 73
0 8 -6 2126.52 341.616 16
0 -8 6 1903.92 471.621 79
0 -6 5 2201.13 344.125 95
0 6 -5 3166.16 544.089 6
0 -6 5 2404.5 312.52 73
0 -6 5 1060.9 406.246 98
0 6 -5 3017.02 362.685 4
0 6 -5 2355.89 330.802 12
0 6 -5 2541.64 365.009 80
0 6 -5 2429.98 324.927 25
0 6 -5 2695.77 358.968 17
0 6 -5 2444.86 321.512 14
0 6 -5 2809.14 398.188 16
0 -6 5 2364.62 390.03 47
0 6 -5 2275.46 436.135 18
0 6 -5 2375.99 345.877 10
0 -6 5 2109.44 461.767 79
0 6 -5 2978.72 350.252 9
0 -6 5 1894.68 578.821 69
0 -6 5 1838.43 413.233 63
0 6 -5 2384.02 469.198 107
0 6 -5 2895.66 330.058 8
0 6 -5 2702.17 469.848 106
0 -4 4 102042 2395.82 2
0 4 -4 98858.8 1532.83 9
0 4 -4 99059.5 1645.25 10
0 4 -4 101077 2528.84 6
0 4 -4 96561.1 1589.31 12
0 4 -4 102015 2683.61 107
0 4 -4 97467.6 1468.51 60
0 -4 4 87296.6 1876.12 47
0 4 -4 86431.5 2113.57 55
0 4 -4 104439 1468.09 8
0 4 -4 91389.2 2973.17 106
0 -2 3 46549.2 1123.58 47
0 -2 3 39151.2 1552.42 5
0 2 -3 43232.6 1312.59 6
0 2 -3 45843 1784.68 106
0 2 -3 46604.9 1676.02 46
0 -2 3 52821.4 1509.15 2
0 2 -3 44301.7 1574.24 107
0 -2 3 32487.1 1475.58 98
0 0 2 706639 4280.72 48
0 0 2 724957 5245.2 5
0 0 -2 606081 4577.65 33
0 0 -2 663214 5340.84 97
0 0 -2 617896 5002.54 102
0 2 1 668298 4160.08 99
0 -4 0 82132.1 1766.54 100
0 4 0 82997.3 1681.39 99
0 -4 0 84371 1711.11 39
0 -4 0 80997.6 1642.25 42
0 4 0 79744.6 1490.1 8
0 4 0 76372.8 1719.35 36
0 -4 0 86530.8 2139.46 35
0 6 -1 24129.4 1081.98 12
0 6 -1 26954.1 1105.05 8
0 6 -1 24219.5 1083.6 15
0 -6 1 28142.6 1827.31 57
0 6 -1 25787.6 951.748 25
0 6 -1 25918.9 911.121 19
0 6 -1 28953.5 1367.71 36
0 6 -1 25875.5 910.662 16
0 6 -1 27838.6 1128.57 14
0 -6 1 27844.9 1575.1 103
0 -6 1 27261.4 1404.93 44
0 6 -1 26679 1117.93 9
0 -8 2 44285.2 1645.66 54
0 8 -2 49104.6 1379.5 25
0 8 -2 52028.4 1401.95 16
0 8 -2 38929 1625.87 15
0 8 -2 50001.1 1356.97 88
0 -8 2 45553.1 1627.24 95
0 8 -2 51954.4 1695.9 8
0 8 -2 47878.5 1644.55 9
0 -8 2 56090.6 3524.28 69
0 8 -2 52435.5 1726.05 14
0 -10 3 3377.97 533.074 63
0 10 -3 4693.31 417.857 14
0 -10 3 3855.86 531.904 79
0 10 -3 5078.39 323.56 16
0 9 -7 1859.4 299.076 9
0 9 -7 2171.69 313.33 8
0 -9 7 2097.81 379.822 111
0 9 -7 1881.02 277.923 25
0 9 -7 2262.5 258.429 17
0 9 -7 1646.59 296.915 12
0 9 -7 1763.57 369.959 18
0 -9 7 1778.17 383.472 79
0 -9 7 1456.13 378.81 27
0 9 -7 2146.88 297.474 16
0 -9 7 1695.42 309.669 26
0 9 -7 1695.74 291.93 10
0 -7 6 4383.26 789.531 27
0 7 -6 14358.7 1246.76 6
0 7 -6 11717.7 846.397 10
0 7 -6 12916.7 1095.06 107
0 -7 6 12002.9 969.01 47
0 7 -6 12131 844.414 16
0 7 -6 10012.7 670.614 14
0 -7 6 11164.7 729.829 73
0 7 -6 13962.1 836.25 17
0 7 -6 10394 728.436 9
0 7 -6 11304.6 720.41 8
0 -7 6 6089.94 684.583 26
0 7 -6 13207.5 880.701 80
0 -7 6 11033.7 1079.16 79
0 7 -6 10947 739.323 25
0 7 -6 10401.3 1006.97 18
0 7 -6 10896 781.507 12
0 -5 5 616.11 202.905 26
0 -5 5 132.973 74.9908 73
0 -5 5 200.806 114.298 2
0 -5 5 81.2346 99.6479 79
0 -5 5 108.93 81.6542 47
0 5 -5 277.512 144.616 18
0 5 -5 221.798 78.7703 8
0 -5 5 -77.0698 107.254 5
0 5 -5 134.709 83.0426 10
0 5 -5 236.193 99.1262 4
0 5 -5 219.311 132.474 107
0 5 -5 57.0952 100.657 17
0 5 -5 127.87 72.4598 25
0 5 -5 516.907 154.336 80
0 -5 5 357.124 315.703 69
0 5 -5 124.336 68.7822 9
0 5 -5 55.5405 35.7593 12
0 5 -5 315.466 214.054 106
0 5 -5 -66.8337 143.815 6
0 5 -5 165.537 69.6377 60
0 5 -5 108.147 83.9387 16
0 -5 5 14.1514 170.293 98
0 -3 4 1314.48 230.452 47
0 3 -4 982.787 335.115 106
0 3 -4 1232.35 256.837 55
0 3 -4 1203.67 297.418 107
0 -3 4 1314.67 348.098 5
0 -3 4 885.999 310.481 98
0 -3 4 1664.49 319.131 2
0 3 -4 1931.37 328.911 6
0 1 -3 35757.6 1537.86 102
0 -1 3 50012.2 1393.78 48
0 1 -3 35302.8 1550.17 97
0 -1 3 49761.5 1648.17 5
0 1 -3 44757.2 1713.45 106
0 -1 3 35208.1 824.289 99
0 1 -3 43630.7 1589.99 46
0 1 -3 36719.1 1139.11 6
0 1 -3 34975.8 1389.47 33
0 -1 3 48447.7 1624.53 98
0 1 -3 30401.4 1251.71 107
0 1 -3 37338.9 1648.98 51
0 -1 3 45886.6 1357.4 2
0 -1 -2 363401 2751.61 37
0 1 2 359066 3206.79 99
0 3 1 26559.1 988.393 99
0 -3 -1 23826.9 906.705 41
0 3 1 23492.6 867.45 36
0 -3 -1 23474.9 871.752 39
0 -3 -1 24403.1 1030.87 101
0 -3 -1 24340 921.254 100
0 -3 -1 24998.1 1037.04 35
0 -3 -1 23085.9 607.525 7
0 5 0 10507.9 754.618 36
0 -5 0 9852.2 771.627 44
0 5 0 10986.1 655.942 14
0 5 0 10853.5 649.313 8
0 -5 0 10693.4 875.844 35
0 5 0 9196.15 603.388 9
0 -5 0 10590.2 688.118 42
0 5 0 9389.61 452.383 89
0 7 -1 101400 2344.08 9
0 -7 1 101499 2366.89 54
0 -7 1 98990.3 2931.66 44
0 -7 1 127198 4162.46 57
0 7 -1 95694.4 2437.64 15
0 7 -1 122871 3134.69 36
0 7 -1 105107 1931.66 16
0 7 -1 109946 2412.51 8
0 -7 1 103528 3339.88 103
0 7 -1 109298 2426.62 14
0 9 -2 8777.53 663.89 14
0 -9 2 5765.68 820.012 63
0 -9 2 5323.29 495.363 95
0 -9 2 7992.06 1247.62 69
0 9 -2 9235.98 648.683 8
0 -9 2 5711.37 561.74 54
0 9 -2 8926.66 521.967 88
0 9 -2 9787.99 535.902 16
0 10 -8 4597.77 327.282 25
0 10 -8 5411.12 344.139 16
0 -10 8 5292.87 435.84 111
0 8 -7 12594 859.794 12
0 8 -7 12095.9 1073.25 18
0 -8 7 10118.3 819.27 26
0 8 -7 12358.7 860.084 10
0 -8 7 13708.2 1169.56 79
0 8 -7 16309.6 838.663 17
0 8 -7 14355.5 841.585 16
0 8 -7 12649.2 750.321 30
0 -8 7 8861.86 955.584 27
0 8 -7 13180.6 793.518 25
0 -8 7 12708.3 969.488 111
0 8 -7 13046.3 781.662 8
0 8 -7 12329.1 806.798 9
0 6 -6 10072.7 1071.02 106
0 6 -6 7087.32 604.486 10
0 -6 6 6877.19 826.769 79
0 6 -6 8211.18 665.591 80
0 6 -6 7127.23 576.548 25
0 -6 6 5430.58 624.15 26
0 -6 6 7478.69 746.538 47
0 6 -6 6614.13 529.307 9
0 6 -6 6309.59 749.283 18
0 -6 6 5362.78 825.243 27
0 6 -6 7837.45 887.745 6
0 -6 6 6205.13 1001.76 98
0 6 -6 8141.69 861.446 107
0 6 -6 7477.99 522.095 8
0 6 -6 7590.97 658.657 16
0 6 -6 8111.22 684.347 17
0 -6 6 7206.28 567.535 73
0 6 -6 8624.57 632.726 4
0 6 -6 6983.73 579.679 12
0 6 -6 6791.8 784.836 37
0 4 -5 23285.8 1220.63 55
0 4 -5 23096.1 777.913 60
0 4 -5 24390.8 806.303 9
0 4 -5 22595.7 1291.7 107
0 -4 5 20984.2 1052.59 47
0 4 -5 19063.6 1488.32 106
0 4 -5 21741.9 1300.59 6
0 4 -5 23453.7 814.417 64
0 -4 5 25246.1 1664.18 5
0 4 -5 23472.6 824.718 10
0 -4 5 18994.2 1574.82 98
0 -4 5 21891.2 889.953 11
0 4 -5 24461.3 865.867 12
0 -4 5 24821.4 1289.01 2
0 4 -5 23714.8 745.65 8
0 -2 4 10103.8 905.295 98
0 -2 4 10011 628.034 47
0 -2 4 11378.3 793.009 2
0 -2 4 12214.6 958.75 5
0 2 -4 8668.91 674.159 6
0 2 -4 7118.14 686.623 107
0 2 -4 7399.31 857.248 106
0 -2 4 10668.2 762.422 48
0 2 -4 8340.17 832.869 46
0 0 -3 28007.2 1095.1 40
0 0 3 45221 1576.12 98
0 0 -3 34321.4 1577.68 97
0 0 -3 28663 977.262 6
0 0 -3 33591.4 1528.92 102
0 0 -3 30445.3 1322.05 45
0 0 -3 26077.7 1237.6 107
0 0 -3 24852.9 1159.83 104
0 0 3 42522.1 1060.96 53
0 0 3 30237.5 966.175 99
0 0 -3 31510.3 1363.57 33
0 0 3 44547.3 1690.12 5
0 2 2 23008.7 944.714 99
0 2 2 20960.5 796.966 36
0 -2 -2 19986.5 809.548 7
0 -2 -2 21258.6 662.101 6
0 4 1 118467 2428.73 99
0 -4 -1 110255 2415.41 101
0 -4 -1 107904 2152.7 39
0 -4 -1 99584.9 2427.21 35
0 -4 -1 111663 2314.22 100
0 4 1 106594 1944.75 8
0 4 1 106707 2195.01 36
0 -4 -1 103686 2047.79 42
0 6 0 8892.4 525.77 16
0 6 0 9561.5 688.238 8
0 6 0 8894.34 486.135 89
0 6 0 9843.38 833.882 36
0 -6 0 7184.45 830.262 103
0 -6 0 7858.09 769.105 44
0 6 0 9620.68 561.806 19
0 6 0 9560.37 683.467 14
0 6 0 9459.42 673.625 15
0 8 -1 35735.1 1357.42 8
0 8 -1 36356.2 1078.49 16
0 8 -1 36688.7 1411.89 14
0 -8 1 29661.7 1261.86 95
0 8 -1 37583.3 1229.81 88
0 8 -1 27719.6 1298.16 15
0 -8 1 37931.9 2845.47 69
0 -8 1 26498.5 1538.26 44
0 -8 1 29793.7 1318.64 54
0 -10 2 4793.4 602.364 63
0 10 -2 8204.94 502.578 14
0 -9 8 111.932 72.2806 26
0 9 -8 109.242 38.9978 17
0 9 -8 7.12374 50.9128 16
0 -9 8 174.401 108.434 111
0 -9 8 174.632 134.061 27
0 9 -8 41.7091 48.3425 9
0 9 -8 70.9005 61.9458 8
0 9 -8 -11.1906 48.0331 12
0 9 -8 58.7162 49.0689 25
0 -9 8 75.0674 55.0568 110
0 9 -8 -56.9616 92.7503 18
0 -7 7 3823.41 526.889 111
0 7 -7 4166.95 483.35 12
0 -7 7 2999.28 454.059 26
0 7 -7 4155.27 454.844 25
0 7 -7 4418.93 633.232 107
0 7 -7 4176.79 462.925 9
0 7 -7 4169 476.483 16
0 7 -7 4718.2 509.312 17
0 7 -7 4488.27 503.805 80
0 -7 7 4093.17 642.758 79
0 7 -7 3582.77 586.323 18
0 7 -7 4086.46 490.733 10
0 7 -7 3842.96 401.189 8
0 -7 7 3302.72 627.024 27
0 5 -6 35053.3 1208.61 10
0 5 -6 40260.8 1756.66 55
0 -5 6 30092.5 1804.39 27
0 -5 6 33501.7 2219.99 98
0 5 -6 34203.3 1092.3 9
0 5 -6 35137.7 1019.27 8
0 -5 6 29100.3 1331.86 26
0 5 -6 32307.7 1576.64 18
0 -5 6 35449 1181.05 11
0 5 -6 34688.6 1189.67 12
0 5 -6 34450.2 1216.28 25
0 5 -6 35611.3 2194.05 106
0 5 -6 35901.5 1330.5 80
0 5 -6 38888.9 1799.59 107
0 5 -6 36585.7 1832.46 6
0 -5 6 38125.1 1844.8 79
0 -5 6 33006.1 1158.02 73
0 5 -6 34775.6 1057.19 60
0 5 -6 30750.9 1346.24 17
0 -5 6 33435.2 1527.14 47
0 5 -6 33844.6 1415.2 16
0 -5 6 41047.9 1761.16 2
0 -3 5 122116 3339.91 5
0 3 -5 101410 1614.86 61
0 3 -5 88361.1 2377.57 55
0 3 -5 105676 1649.98 12
0 3 -5 87407.1 3086.8 46
0 -3 5 94059.5 3003.74 98
0 -3 5 93198.4 2602.71 48
0 -3 5 116643 2907.13 2
0 -3 5 89115.4 2156.5 47
0 3 -5 96447.6 1421.76 8
0 3 -5 96732.3 1594.18 64
0 3 -5 91091.2 2544.87 6
0 3 -5 105243 1571.24 9
0 3 -5 76562.2 3053.91 106
0 -3 5 107808 2064.78 11
0 3 -5 90160.5 2578.24 107
0 1 -4 1054.9 315.171 106
0 -1 4 1668.19 303.771 48
0 1 -4 1184.37 247.609 6
0 -1 4 1124.89 196.523 99
0 -1 4 1861.27 250.63 53
0 1 -4 1182.21 333.638 46
0 -1 4 1914.23 382.972 5
0 -1 4 1327.02 296.614 98
0 1 -4 953.408 359.984 102
0 1 -4 842.47 310.406 97
0 1 -4 1104.84 326.573 33
0 -1 -3 192315 3692.76 33
0 1 3 180883 2735.84 99
0 -1 -3 164773 2305.9 6
0 -1 -3 202969 4267.22 97
0 1 3 182917 2533.95 36
0 -1 -3 167893 2358.96 37
0 -1 -3 202919 4012.11 102
0 -3 -2 304032 4173.73 41
0 3 2 297509 3492.67 36
0 -3 -2 309735 4532.73 101
0 -5 -1 2924.47 388.403 42
0 5 1 2991.75 276.171 89
0 5 1 3123.19 439.859 36
0 -5 -1 2644.2 451.662 35
0 5 1 3482.79 401.597 8
0 5 1 3501.91 340.218 13
0 5 1 3142.81 365.662 14
0 5 1 4042.94 355.101 19
0 -5 -1 2893.14 422.994 100
0 7 0 29074.6 1540.16 36
0 -7 0 21059.5 1075.85 54
0 7 0 27290.4 1200.11 14
0 7 0 25920.8 1177.17 8
0 -7 0 19916 1315.82 44
0 -7 0 18817.1 1459.91 103
0 -9 1 2846.88 686.862 69
0 -9 1 2197.33 467.914 63
0 9 -1 4130.53 357.966 88
0 -9 1 1965.44 314.145 54
0 9 -1 3927.78 403.023 14
0 -9 1 1549.93 244.106 95
0 -8 8 18518.2 949.976 110
0 -8 8 15461 1133.79 27
0 -8 8 17897.6 1052.84 111
0 8 -8 16798.1 900.684 10
0 -8 8 14598.3 751.414 29
0 8 -8 18553 870.829 25
0 -8 8 16258.9 896.115 26
0 8 -8 18039.7 862.808 8
0 8 -8 17342.7 904.662 9
0 8 -8 15407.9 1126.88 18
0 8 -8 17529.4 940.033 12
0 8 -8 19263.4 892.933 16
0 8 -8 16063.5 814.274 30
0 8 -8 21098.9 905.954 17
0 6 -7 5411.53 541.763 80
0 6 -7 4621.11 412.629 60
0 6 -7 4569.72 516.582 17
0 -6 7 5036.97 595.073 111
0 -6 7 5325.77 722.285 79
0 6 -7 5180.79 807.116 106
0 -6 7 4510.21 820.719 98
0 6 -7 6117.64 712.495 107
0 6 -7 5231.46 509.417 12
0 6 -7 4536.63 710.15 37
0 6 -7 4749.04 412.97 8
0 -6 7 4693.08 546.637 26
0 6 -7 4759.21 514.101 16
0 6 -7 3962.25 449.426 22
0 6 -7 4924.78 468.662 9
0 6 -7 5042.58 499.383 10
0 6 -7 5144.99 487.971 25
0 6 -7 4953.72 725.133 6
0 6 -7 4574.65 640.062 18
0 -6 7 4244.43 702.044 27
0 -4 6 17926.2 1212.19 27
0 4 -6 19300.3 1038.81 16
0 4 -6 22448 857.078 64
0 4 -6 24081.9 860.374 60
0 4 -6 21738.1 1307.15 55
0 4 -6 23086.1 849.728 9
0 4 -6 22891.3 1425.43 6
0 -4 6 25877.8 1229.91 111
0 4 -6 23045.1 888.044 12
0 -4 6 24998.5 1047.31 11
0 4 -6 18752.5 1609.09 106
0 -4 6 22640.9 1103.74 26
0 4 -6 15226.2 915.48 17
0 4 -6 23950.1 792.209 8
0 4 -6 23441.2 1035.11 80
0 4 -6 22343.2 858.151 10
0 -4 6 20178.7 1377.06 48
0 4 -6 25342.5 1424.22 107
0 -4 6 24942 1787.49 98
0 -4 6 28472.8 1823.28 5
0 -4 6 27715.4 1521.1 2
0 4 -6 20952 1174.29 18
0 -2 5 77799.1 2718.68 5
0 -2 5 63641.1 2093.78 48
0 2 -5 53439.3 2447.29 46
0 -2 5 65931.9 2441.87 98
0 2 -5 49610.1 1171.38 61
0 2 -5 45541.1 2437.45 106
0 -2 5 59308.6 1566.95 53
0 2 -5 53635.2 1938.84 6
0 -2 5 65340.8 1629.66 11
0 2 -5 62818 1195.1 12
0 2 -5 46775.2 1801.12 107
0 0 -4 33917.5 1966.29 97
0 0 4 35341.9 1077.09 11
0 0 -4 31925.7 1252.53 37
0 0 -4 31293 1839.22 102
0 0 -4 30115.1 1669.97 33
0 0 -4 31161.9 1245.06 6
0 0 4 33869.2 1226 99
0 -2 -3 8058 827.803 33
0 -2 -3 8661.41 918.24 102
0 2 3 7347.36 560.6 36
0 2 3 7833.69 648.083 99
0 -2 -3 8520.59 948.447 97
0 -2 -3 6438.97 557.801 7
0 2 3 7292.96 448.285 11
0 4 2 109810 1869.28 113
0 4 2 123860 2145.96 86
0 -4 -2 100826 2349.48 39
0 4 2 117621 1993.88 13
0 4 2 106799 1844.18 19
0 4 2 105258 2381.68 36
0 -4 -2 82514.9 2425.62 35
0 4 2 125379 2167.63 28
0 4 2 111616 1819.14 85
0 -4 -2 100692 2443.33 100
0 -4 -2 104152 2824.93 101
0 4 2 106644 1813.99 27
0 6 1 26131.7 961.377 19
0 -6 -1 18578.3 1237.02 44
0 6 1 27242.9 1117.01 14
0 -6 -1 17810 1389.6 103
0 6 1 30876.5 1526.02 36
0 6 1 25804.9 856.432 89
0 -8 0 21941.1 1991.83 69
0 -8 0 15664.3 1148 44
0 -8 0 16015.2 886.812 95
0 8 0 25309.9 1046.34 14
0 8 0 28999.5 1082.16 88
0 -8 0 15977.4 927.526 54
0 9 -9 660.171 119.151 25
0 9 -9 621.172 147.023 12
0 9 -9 455.297 96.4693 30
0 -9 9 688.22 140.879 110
0 9 -9 641.516 145.076 9
0 9 -9 831.51 128.831 17
0 9 -9 764.936 133.734 16
0 -9 9 910.046 190.39 27
0 -9 9 864.356 178.224 111
0 9 -9 786.2 153.042 8
0 -9 9 597.464 114.846 26
0 7 -8 41803.2 1434.64 16
0 7 -8 45021.7 1510.69 17
0 -7 8 42751.5 1505.15 29
0 7 -8 39293.7 1252.29 8
0 -7 8 40518 1476.76 110
0 7 -8 40343.2 1404.08 10
0 -7 8 40440.6 1637.14 111
0 7 -8 41081.6 1337.94 25
0 7 -8 33055.5 1684.53 18
0 -7 8 34462.3 1329.79 26
0 7 -8 40679.2 2045.06 106
0 7 -8 39368 1442.06 12
0 -7 8 37220.5 1761.3 27
0 -7 8 37082.2 2059.41 48
0 7 -8 38291.3 1335 9
0 5 -7 22675.9 1071.5 80
0 5 -7 20016 948.358 12
0 -5 7 20497.1 1386.31 27
0 5 -7 20444.3 937.474 25
0 5 -7 17004.5 1038.64 17
0 -5 7 21729.7 1212.88 111
0 -5 7 22975.4 1789.66 98
0 5 -7 20585.2 897.042 9
0 5 -7 20974.6 831.382 8
0 -5 7 23373.9 1026.96 11
0 5 -7 22031.3 1855.76 106
0 -5 7 20237 1037.68 110
0 -5 7 18325.2 1423.1 48
0 5 -7 15123.2 1090.45 18
0 5 -7 21097.1 947.41 10
0 -5 7 19362.2 1059.56 26
0 5 -7 20838.8 1482.55 6
0 5 -7 20127.8 1517.29 37
0 5 -7 21904.9 1389.27 55
0 5 -7 18841.5 1033.25 16
0 5 -7 19155 832.606 60
0 -3 6 28168.3 1122.41 110
0 -3 6 25143.1 931.369 77
0 3 -6 28446.1 879.97 10
0 3 -6 28451.1 1588.34 6
0 3 -6 27460 841.788 8
0 3 -6 24552.4 1881.15 46
0 3 -6 22230 1886.7 106
0 -3 6 28617.4 1157.62 26
0 3 -6 32187.3 949.701 9
0 3 -6 28585.5 934.262 12
0 -3 6 30116.8 1405.94 27
0 -3 6 27301.3 1534.35 48
0 -3 6 35740.6 1996.56 98
0 3 -6 31273.2 985.217 61
0 -3 6 25889.5 1123.45 53
0 3 -6 28031.8 1531.76 55
0 3 -6 31012.6 995.074 64
0 -3 6 30642.1 1185.83 11
0 -3 6 32692.7 1335.81 111
0 -3 6 41270.8 2148.2 5
0 1 -5 52213.1 1901.39 6
0 1 -5 48275.1 2637.82 106
0 -1 5 79350.7 2712.85 98
0 1 -5 43602.6 2492.16 102
0 1 -5 56763.8 2625.83 46
0 -1 5 59491.7 1531.89 11
0 -1 5 71090 1720.7 53
0 -1 -4 7501.17 902.165 33
0 -1 -4 7638.5 1018.52 97
0 1 4 7686.48 670.524 99
0 1 4 8118.91 531.106 11
0 -1 -4 6943.28 919.186 102
0 -1 -4 6966.87 563.673 37
0 -1 -4 6724.39 666.238 7
0 1 4 8912.08 681.297 36
0 3 3 42540.4 1154.99 27
0 3 3 49285.3 1349.49 86
0 3 3 50063 1290.1 85
0 3 3 42491.7 1150.71 26
0 3 3 44746.8 1200.24 113
0 3 3 49178.5 1822.36 99
0 -3 -3 41260.6 2038.49 33
0 3 3 43086.8 1507.8 36
0 -3 -3 41602.3 1826.85 41
0 -3 -3 42440.2 2300.06 97
0 3 3 45598.9 1219.38 19
0 3 3 47835.6 1302.64 13
0 -3 -3 39875 1928.02 101
0 5 2 19927 763.557 89
0 -5 -2 21929.3 1200.05 39
0 5 2 24860.1 966.386 13
0 -5 -2 20951.2 1228.61 100
0 5 2 23609.3 1277.86 36
0 -5 -2 19837.5 1087.11 42
0 5 2 22420.4 907.388 19
0 -7 -1 2265.33 664.158 69
0 7 1 3070.65 359.142 14
0 -7 -1 1794.45 312.029 54
0 7 1 3328.51 385.295 88
0 -7 -1 1980.77 419.587 44
0 9 0 5885.5 404.97 88
0 9 0 5618.6 337.6 75
0 8 -9 1836.63 278.078 12
0 8 -9 1780.55 245.373 8
0 8 -9 2156.8 259.458 16
0 8 -9 2265.95 269.538 17
0 -8 9 2032.42 282.028 110
0 8 -9 1780.39 261.524 9
0 -8 9 1932.92 298.754 111
0 -8 9 1640.19 235.166 26
0 -8 9 1829.82 245.535 29
0 8 -9 1595.14 233.646 30
0 8 -9 1697.27 216.194 25
0 -8 9 1906.14 320.426 27
0 -6 8 25539.7 1232.13 29
0 6 -8 27618.1 1179.53 80
0 6 -8 20856.9 878.6 60
0 -6 8 23323.8 1441.73 27
0 -6 8 18431.2 1101.85 53
0 6 -8 23141.6 974.962 25
0 6 -8 21384.4 880.486 8
0 6 -8 22856.5 1107.4 16
0 6 -8 18018.3 949.209 22
0 6 -8 22634.5 1706.66 106
0 -6 8 19680.2 1509.42 48
0 6 -8 22611.3 1009.58 9
0 -6 8 24619.6 1293.14 111
0 -6 8 20293.8 1044.03 26
0 6 -8 17869.2 1206.67 18
0 6 -8 22459.9 1066.91 12
0 -6 8 16557.5 989.039 91
0 6 -8 20777 1102.85 17
0 -6 8 21763.9 1096.56 110
0 -4 7 40694.2 1245.33 77
0 -4 7 42495.4 1580.35 53
0 4 -7 48371.8 2131.06 55
0 -4 7 45704.8 1528.74 26
0 4 -7 33544.6 1536.53 18
0 -4 7 47209.4 1581.48 110
0 4 -7 48623.8 1216.43 8
0 -4 7 51867.1 2046.22 27
0 -4 7 51651.8 1813.87 111
0 -4 7 80031.6 3229.97 5
0 -4 7 43057.1 2116.35 48
0 4 -7 48195.5 1354.66 64
0 4 -7 50995.4 1354.66 60
0 4 -7 39523.7 1515.4 16
0 -4 7 52486 1608.9 11
0 4 -7 50053.8 1415.16 12
0 -4 7 62992.6 2888.97 98
0 4 -7 46526.3 2292.42 37
0 4 -7 51457.6 2336.01 6
0 4 -7 32402.6 1441.18 17
0 4 -7 51224.2 1360.79 9
0 4 -7 37363.3 2501.89 106
0 -2 6 22166.8 1549.08 98
0 -2 6 17514.6 918.609 11
0 2 -6 16531.7 1209.98 6
0 2 -6 15127.7 717.703 61
0 -2 6 17715.1 880.961 26
0 -2 6 19569.9 965.905 53
0 2 -6 17331 686.491 12
0 2 -6 12990.7 1517.79 106
0 2 -6 17292.2 689.518 9
0 -2 6 16486.9 866.607 110
0 -2 6 17146.3 951.591 91
0 -2 6 14254.8 713.648 77
0 -2 6 17721.3 989.234 27
0 2 -6 15576.3 1548.33 46
0 2 -6 16060.6 1171.38 37
0 0 5 1257.97 292.965 99
0 0 5 1469.54 248.875 11
0 0 5 1258.21 216.848 21
0 0 -5 977.077 285.094 7
0 0 -5 1388.74 292.059 37
0 0 -5 1222.36 406.539 46
0 0 5 1497.8 266.954 27
0 0 -5 1676.77 524.342 97
0 0 5 1160.88 196.017 13
0 0 5 1016.45 174.145 76
0 0 5 1546.23 232.655 26
0 0 -5 1286.97 427.62 33
0 0 -5 1199.91 468.398 106
0 0 -5 1705.69 540.724 102
0 0 5 1361.99 207.589 19
0 0 5 1759.39 316.894 91
0 -2 -4 2884.46 592.473 33
0 2 4 3082.6 341.794 13
0 2 4 3081.3 324.701 21
0 2 4 3146.72 471.257 99
0 2 4 2789.79 324.808 27
0 2 4 3295.52 440.292 36
0 2 4 3071.96 332.514 19
0 -2 -4 2092.27 511.804 106
0 -2 -4 2594.81 521.598 46
0 -2 -4 2476.58 406.248 7
0 2 4 2556.73 284.271 26
0 2 4 3314.37 352.357 113
0 -2 -4 2632.05 594.686 102
0 2 4 2583.61 296.707 76
0 2 4 3321.97 363.897 86
0 -2 -4 2755.69 658.602 97
0 2 4 3001.93 325.306 85
0 2 4 2956.37 334.147 11
0 -4 -3 627.967 216.44 100
0 4 3 1479.17 233.194 27
0 4 3 833.721 176.644 19
0 4 3 663.197 165.541 13
0 4 3 729.879 216.657 36
0 -4 -3 780.721 277.821 101
0 4 3 639.323 162.481 85
0 -4 -3 645.856 235.135 35
0 4 3 762.341 182.978 113
0 -4 -3 518.999 191.513 39
0 6 2 16410.1 767.408 13
0 6 2 15701.7 839.424 88
0 6 2 15397.6 686.91 89
0 -6 -2 7739.23 828.069 44
0 -6 -2 7480.29 945.124 103
0 6 2 16153.9 767.69 19
0 -8 -1 9791.24 938.27 63
0 -8 -1 8584.53 640.371 54
0 -8 -1 9022.69 607.232 95
0 7 -9 352.243 112.992 8
0 -7 9 289.615 107.132 26
0 7 -9 387.575 125.725 17
0 7 -9 527.196 149.824 16
0 -7 9 393.866 143.672 53
0 7 -9 250.339 119.544 30
0 -7 9 379.698 136.253 110
0 7 -9 296.821 108.766 9
0 7 -9 306.051 107.082 12
0 -7 9 398.215 140.039 29
0 -7 9 625.101 208.985 27
0 5 -8 34992.6 2099.29 37
0 5 -8 39234.2 2108.46 6
0 -5 8 33138.1 1371.28 110
0 -5 8 37882.8 1709.35 27
0 5 -8 24129.2 1718.09 7
0 5 -8 29250.1 1359.78 17
0 -5 8 33686.5 1940.82 48
0 5 -8 35715.9 1412.37 16
0 -5 8 33985.8 1467.48 91
0 -5 8 29990.4 1377.66 53
0 5 -8 35177.7 2405.65 106
0 5 -8 33996 1237.67 12
0 5 -8 40419.2 1979.75 55
0 5 -8 34927.5 1191.93 9
0 5 -8 33440.5 1136.73 60
0 -5 8 31905.1 1294.71 26
0 -5 8 38481.7 1507.31 29
0 -5 8 45609.2 2559.97 98
0 5 -8 35993.1 1118.75 8
0 -5 8 38300.4 1608.63 111
0 -5 8 36417.9 1291.85 11
0 3 -7 8682.68 948.233 6
0 -3 7 7893.09 705.017 91
0 -3 7 8052.67 658.409 110
0 -3 7 9759.04 741.501 11
0 3 -7 8655.95 516.369 8
0 -3 7 7786.02 625.426 26
0 -3 7 8233.44 728.353 27
0 3 -7 8500.61 569.861 64
0 3 -7 8894.63 542.572 9
0 -3 7 6995.42 528.225 77
0 -3 7 8602.38 921.755 48
0 -3 7 11133.4 1195.14 98
0 3 -7 9123.95 568.967 61
0 3 -7 8327.93 924.527 37
0 -3 7 9507.2 706.159 29
0 3 -7 7910.82 930.35 55
0 -3 7 8214.46 666.051 53
0 3 -7 6550.91 1145.66 106
0 3 -7 8973.44 553.383 12
0 1 -6 53118 1181.86 12
0 -1 6 55340.7 1731.7 27
0 -1 6 53545.2 1618.04 11
0 -1 6 50603.2 1500.03 29
0 1 -6 52805.5 2041.41 6
0 1 -6 48368 2813.98 46
0 -1 6 58027.6 1827.09 91
0 1 -6 43922.2 2885.22 106
0 1 -6 44647.2 1901.24 37
0 -1 6 45972.9 1240.03 13
0 -1 6 51240 1471.47 26
0 1 5 137903 2359.16 86
0 1 5 117352 2087.3 85
0 1 5 137443 2533.18 27
0 1 5 129915 2400.71 11
0 1 5 127601 2282.46 13
0 -1 -5 103889 2957.78 7
0 -1 -5 117360 4012.79 46
0 -1 -5 105415 4161.63 102
0 1 5 117167 2044.54 26
0 1 5 129128 2223.74 19
0 -1 -5 99518.1 4268.92 97
0 1 5 112129 1976.56 76
0 -1 -5 101228 3850.43 33
0 1 5 130332 2294.77 21
0 -1 -5 97989.7 3949.34 106
0 3 4 2947.34 342.766 19
0 3 4 4176.5 536.955 36
0 -3 -4 2749.81 530.376 41
0 3 4 3388.97 384.39 86
0 3 4 3187.89 356.616 27
0 3 4 3668.98 385.474 85
0 -3 -4 2234.2 509.68 101
0 3 4 3328.35 350.715 21
0 3 4 3276.4 368.568 13
0 3 4 3313.12 336.813 88
0 3 4 3365.15 372.378 113
0 3 4 2849.93 328.319 26
0 -5 -3 6860.84 683.979 42
0 5 3 9187.06 605.116 19
0 5 3 10107.4 886.75 36
0 5 3 8892.3 618.12 88
0 5 3 8357.92 528.219 89
0 -5 -3 6281.94 719.952 100
0 5 3 9399.87 616.327 13
0 -5 -3 6485.78 704.161 39
0 -7 -2 1021.43 227.789 54
0 7 2 2638.2 314.593 88
0 9 1 86.6259 39.2608 88
0 -8 10 178.965 65.1731 21
0 8 -10 426.472 98.5982 17
0 -8 10 229.583 85.1029 110
0 -8 10 261.122 75.9724 29
0 8 -10 305.971 86.7152 30
0 -8 10 371.168 107.852 27
0 8 -10 260.541 81.3693 8
0 -6 9 24912.7 1022.26 26
0 -6 9 26812.4 1157.98 110
0 -6 9 21611.5 1085.41 53
0 6 -9 26615.3 1029.55 9
0 6 -9 28315.6 1842.87 106
0 6 -9 24667.7 1040.21 22
0 6 -9 28927.4 1233.36 17
0 6 -9 26177.2 1063.64 12
0 6 -9 30829.8 1111.61 16
0 6 -9 26142.9 941.943 60
0 -6 9 29185.6 1359.44 27
0 -6 9 33175.6 1272.21 91
0 -6 9 27619.1 1685.94 48
0 -6 9 30442.4 1257.12 29
0 6 -9 26627.8 929.56 8
0 4 -8 33170 2541.78 106
0 -4 8 48231.7 1783.07 91
0 -4 8 42388 1705.24 27
0 4 -8 38391.8 2164.3 37
0 -4 8 35907.8 1331.9 26
0 -4 8 36212.2 1463.02 53
0 4 -8 40211.1 1154.88 8
0 4 -8 40658.4 2141.39 6
0 4 -8 30100.6 1428.05 17
0 4 -8 37438.4 1221.91 12
0 -4 8 43719.4 1530.22 11
0 4 -8 40915 2110.2 55
0 4 -8 39565.8 1221.89 9
0 -4 8 34016.4 1150.67 77
0 4 -8 39609.5 1272.48 64
0 4 -8 40872.8 1278.33 60
0 -4 8 40996.6 1539.46 29
0 4 -8 33847 2099.67 7
0 -4 8 38439.4 1485.08 110
0 4 -8 33399.3 1993.4 41
0 -2 7 3139.87 443.528 91
0 2 -7 2416.37 532.819 7
0 2 -7 2692.52 581.598 55
0 2 -7 2181.63 699.65 106
0 -2 7 2596.77 349.877 26
0 2 -7 3057.3 307.563 12
0 -2 7 2727.75 382.612 29
0 -2 7 2648.67 390.447 27
0 2 -7 2986.68 337.001 61
0 -2 7 2751.93 395.603 11
0 -2 7 2273.08 291.256 85
0 2 -7 2437.8 736.267 46
0 2 -7 2839.15 300.862 9
0 2 -7 2492.06 502.078 37
0 -2 7 2859.47 397.55 110
0 0 -6 1515.57 396.239 7
0 0 6 1811.11 292.115 21
0 0 -6 2180.26 883.452 106
0 0 6 2007.84 330.403 27
0 0 -6 2039.21 583.318 46
0 0 6 1774.21 300.842 11
0 0 6 1981.87 282.615 19
0 0 6 1595.21 247.515 85
0 0 6 1558.18 252.368 26
0 0 6 1914.93 280.019 13
0 0 -6 1541.46 343.764 37
0 0 6 1434.32 229.307 76
0 0 6 2075.47 307.46 29
0 2 5 9898.08 665.482 13
0 -2 -5 6289.79 1113.65 97
0 2 5 10732.6 670.159 21
0 2 5 9859.95 642.504 19
0 -2 -5 8760.81 1056.88 101
0 2 5 10406.7 683.038 11
0 2 5 10396.2 686.696 27
0 2 5 10691.1 691.748 113
0 2 5 9504.9 631.16 85
0 -2 -5 7320.49 771.01 7
0 2 5 9548.51 608.634 26
0 -2 -5 8066.66 968.09 41
0 2 5 10792 699.343 86
0 -4 -4 11164.4 956.843 39
0 4 4 18163.9 854.558 85
0 4 4 16444.6 824.209 19
0 -4 -4 10835.3 989.371 100
0 4 4 19706.7 948.195 113
0 4 4 17571.5 870.636 13
0 4 4 15257.7 776.137 88
0 4 4 18754.3 1206.61 36
0 6 3 6670.76 478.193 19
0 6 3 6107.09 480.588 88
0 6 3 6713.65 470.807 13
0 6 3 6594.07 443.161 89
0 8 2 22613.9 739.383 88
0 8 2 24641.8 733.476 75
0 -7 10 5684.26 449.919 27
0 7 -10 5407.9 399.769 9
0 7 -10 5046.6 409.492 30
0 -7 10 5545.27 431.242 110
0 7 -10 4773.11 376.821 12
0 -7 10 5645.44 434.772 29
0 -7 10 4272.21 307.142 26
0 7 -10 5696.11 395.901 8
0 7 -10 6391.76 437.284 17
0 -7 10 4924.97 387.891 21
0 -5 9 4014.04 459.068 110
0 5 -9 4286.21 370.083 8
0 5 -9 3950.26 378.414 60
0 -5 9 5723.52 571.748 91
0 5 -9 2526.59 379.908 22
0 5 -9 3979.77 390.177 9
0 -5 9 3642.81 391.325 26
0 -5 9 4395.76 486.786 29
0 5 -9 2978.82 676.628 106
0 5 -9 3616.56 378.071 12
0 -5 9 4179.95 415.872 11
0 5 -9 3922.63 488.034 17
0 -5 9 3619.39 443.562 53
0 -5 9 4371 525.395 27
0 3 -8 1053.6 193.113 9
0 3 -8 314.252 331.488 106
0 -3 8 719.765 203.122 29
0 3 -8 907.406 335.413 55
0 3 -8 818.929 172.25 12
0 3 -8 596.653 223.886 17
0 3 -8 890.05 170.916 8
0 3 -8 1207.75 397.005 41
0 -3 8 676.521 165.364 85
0 -3 8 1031.64 249.628 110
0 -3 8 950.35 238.621 27
0 -3 8 1018.93 255.338 91
0 3 -8 1080.8 347.185 37
0 3 -8 834.121 182.459 64
0 -3 8 990.28 233.333 11
0 -3 8 834.652 201.172 26
0 3 -8 458.317 248.817 7
0 -1 7 26536.3 1052.5 85
0 -1 7 34589 1399.56 27
0 1 -7 32189.1 2077.66 41
0 -1 7 29990.2 1152.13 26
0 1 -7 24276.2 1507.16 37
0 -1 7 33315 1354.3 11
0 -1 7 31260.2 1271.33 29
0 1 -7 32324.4 977.61 12
0 -1 7 24099.1 950.852 76
0 1 -7 27687.3 2319.39 46
0 -1 7 29323.7 1239.98 21
0 1 -7 29800.6 1859.42 55
0 1 -7 27236.2 1056.49 61
0 1 -7 24391.4 2309.31 106
0 1 -7 25536 1720.25 7
0 1 6 15593.4 833.761 13
0 1 6 14813.4 835.05 21
0 1 6 15469.9 816.54 19
0 -1 -6 11493.1 1059.52 55
0 1 6 13599.6 769.585 85
0 1 6 12939.3 614.428 75
0 1 6 14916.1 860.991 11
0 -1 -6 10130.9 1013.95 7
0 1 6 14378.9 771.08 26
0 -1 -6 11350.6 1333.21 46
0 -1 -6 9915.55 1357.79 106
0 1 6 13860.5 754.712 76
0 -1 -6 12620.8 1269.28 41
0 1 6 16104.5 904.245 27
0 -1 -6 11077.1 1273.37 101
0 3 5 33628.2 1258.21 113
0 -3 -5 16785.5 1426.4 108
0 3 5 29924.3 1142.5 85
0 -3 -5 22398.7 1613.29 41
0 -3 -5 16265.2 1484.32 101
0 -3 -5 17074.4 1278.89 100
0 3 5 30107.9 1137.97 26
0 3 5 26414 924.833 88
0 3 5 30858 1172.64 13
0 3 5 33835.9 1170.52 21
0 3 5 30044.9 1130.07 19
0 -3 -5 16400.5 1197.44 39
0 3 5 31597.3 1199.83 27
0 5 4 602.267 146.449 89
0 5 4 319.396 114.792 19
0 5 4 294.959 105.741 88
0 5 4 468.896 143.08 13
0 -5 -4 52.7388 67.7839 44
0 7 3 5768.31 389.275 88
0 7 3 5927.47 390.163 75
0 6 -10 12216.4 587.676 68
0 -6 10 13037 677.029 21
0 -6 10 15547.4 804.507 27
0 6 -10 13482.9 634.805 9
0 6 -10 14798 625.299 8
0 6 -10 12914.2 639.226 22
0 -6 10 15280.3 765.242 29
0 6 -10 13184.4 703.959 30
0 6 -10 12116.3 597.507 12
0 -6 10 11846.8 538.047 26
0 6 -10 16327.1 772.521 17
0 -4 9 873.479 211.556 29
0 -4 9 1043.82 244.602 27
0 4 -9 994.24 436.348 106
0 4 -9 838.118 171.273 12
0 4 -9 1161.08 189.619 8
0 4 -9 853.16 238.226 17
0 -4 9 769.981 201.961 21
0 4 -9 1101.44 204.001 60
0 -4 9 778.219 174.044 26
0 -4 9 1391.04 285.907 91
0 4 -9 1014.53 199.449 64
0 -4 9 999.347 224.23 11
0 4 -9 1101.33 339.951 55
0 4 -9 1041.65 190.565 9
0 -2 8 4813.7 415.823 76
0 -2 8 5745.17 486.965 85
0 2 -8 6470.36 500.48 64
0 2 -8 3934.04 514.537 17
0 2 -8 7061.62 508.406 61
0 -2 8 7236.42 645.516 11
0 -2 8 5277.69 481.96 26
0 -2 8 5661.19 552.953 21
0 2 -8 6510.58 886.172 55
0 2 -8 6456.25 457.642 9
0 2 -8 4819.87 1021.5 106
0 2 -8 6103.83 451.444 8
0 -2 8 6291.05 585.2 29
0 -2 8 7086.67 628.869 27
0 2 -8 5881.3 904.377 41
0 0 7 15033.5 881.405 11
0 0 7 16521.7 937.066 27
0 0 7 14450.2 858.715 21
0 0 -7 12119.9 1151.34 55
0 0 -7 12418.1 1307.98 41
0 0 -7 11627.6 1320.23 101
0 0 -7 12105 1477.03 46
0 0 -7 11328 1133.13 7
0 0 7 13792.7 783.01 85
0 0 7 14485.4 787.537 26
0 0 -7 10850.9 1469.24 106
0 0 7 12947.5 726.044 76
0 2 6 9447.81 558.315 75
0 -2 -6 8064.73 1016.37 41
0 2 6 11440.3 702.442 26
0 2 6 10644.3 691.667 85
0 2 6 11921 725.44 13
0 2 6 11875.2 754.321 27
0 2 6 11340 698.338 21
0 2 6 11918 748.424 113
0 -2 -6 7598.84 1055.95 101
0 2 6 11653.6 702.21 19
0 4 5 29298.5 1051.64 19
0 4 5 28728.4 1012.58 89
0 4 5 29815.2 1090.09 13
0 4 5 27169.9 939.629 88
0 4 5 31262.5 1099.93 85
0 4 5 27107 1007.47 75
0 6 4 1996.18 227.646 89
0 6 4 1668.98 201.007 19
0 6 4 1740.93 219.1 75
0 6 4 1650.94 211.843 88
0 5 -10 5977.35 409.274 60
0 -5 10 5568.24 372.367 26
0 5 -10 6409.53 496.237 17
0 -5 10 6311.43 506.922 27
0 -5 10 6300.76 500.65 29
0 5 -10 6343.82 401.86 8
0 -5 10 6069.93 470.132 21
0 -5 10 5997.03 419.974 11
0 5 -10 4773.47 448.644 22
0 5 -10 5708.29 399.716 9
0 5 -10 5080.87 429.886 30
0 -3 9 25224.3 1133.59 29
0 3 -9 26157.6 983.203 60
0 3 -9 30709.1 1791.65 55
0 -3 9 29902.5 1221.5 11
0 3 -9 25052 935.737 64
0 3 -9 20602.6 1092.62 17
0 3 -9 23806.9 857.79 9
0 -3 9 28159.8 1204.89 27
0 3 -9 26414.3 887.967 8
0 -3 9 23500.5 1071.65 21
0 3 -9 21912.2 1927.93 106
0 -3 9 22311.5 913.662 26
0 1 -8 297.733 127.14 17
0 1 -8 351.069 199.155 55
0 1 -8 875.167 182.974 64
0 -1 8 896.83 186.975 26
0 1 -8 651.704 138.234 9
0 -1 8 822.611 204.777 21
0 -1 8 654.849 190.503 27
0 -1 8 675.07 187.612 11
0 -1 8 503.966 138.362 76
0 1 -8 842.413 341.221 41
0 1 -8 515.239 378.52 106
0 -1 8 575.874 153.925 85
0 1 7 9055.41 620.518 113
0 -1 -7 7077.9 797.407 55
0 -1 -7 6033.41 945.191 101
0 1 7 8556.19 614.186 85
0 -1 -7 7185.38 979.045 41
0 1 7 8756.43 604.617 26
0 1 7 9278.69 646.713 21
0 1 7 9328.51 646.265 11
0 1 7 9881.4 682.746 27
0 -3 -6 22030.5 1486.5 50
0 3 6 40804.5 1225.41 19
0 3 6 46680.5 1412.36 27
0 3 6 47195 1407.67 113
0 3 6 38118.3 1126.15 75
0 3 6 39686.8 1270.85 85
0 3 6 40865.7 1276.93 13
0 5 5 241.639 81.3029 88
0 5 5 414.509 112.914 19
0 5 5 397.934 105.498 75
0 5 5 407.932 105.643 89
0 7 4 8051.22 350.513 75
0 -6 11 537.038 100.478 27
0 -6 11 494.245 95.9293 21
0 6 -11 516.667 95.3116 17
0 -4 10 11500.5 617.066 11
0 -4 10 8447.74 448.535 26
0 4 -10 9859.29 601.588 17
0 4 -10 10498.8 541.963 60
0 -4 10 9530.43 587.967 21
0 4 -10 7021.93 565.974 22
0 -4 10 10936.2 638.48 27
0 4 -10 10714.4 502.333 8
0 4 -10 9379.82 481.123 9
0 4 -10 7956.83 489.792 30
0 -4 10 10727.5 641.499 29
0 -2 9 12293.4 635.688 85
0 2 -9 15891.7 1235.71 55
0 -2 9 12220.2 638.927 26
0 -2 9 12711.2 758.352 21
0 -2 9 11003 559.289 76
0 -2 9 15203.9 827.546 11
0 2 -9 9847.75 665.968 17
0 -2 9 13953.4 771.927 27
0 2 -9 15517.7 655.514 9
0 2 -9 13340.9 655.486 64
0 2 -9 14200.7 625.665 8
0 0 8 22284.7 910.526 113
0 0 8 21879.6 980.643 21
0 0 8 23990.5 1021.75 27
0 0 8 21689.8 904.333 26
0 0 8 19940.8 893.592 85
0 0 8 22481.4 980.228 11
0 2 7 19150.2 716.273 75
0 2 7 23790.7 938.322 113
0 2 7 24275.4 983.287 27
0 2 7 21045.5 918.929 85
0 -2 -7 10454 1120.91 108
0 -2 -7 13460.1 1188.83 50
0 2 7 23331.3 879.349 21
0 4 6 1209.58 180.342 89
0 4 6 1077.91 170.706 75
0 6 5 2742.86 213.222 75
0 5 -11 201.034 66.298 22
0 -5 11 515.689 100.609 27
0 -5 11 479.913 99.8253 21
0 -3 10 2924.88 312.68 21
0 -3 10 3623.08 341.383 27
0 -3 10 2666.37 239.888 26
0 3 -10 3273.37 260.943 8
0 -3 10 3677.71 345.359 11
0 3 -10 1899.1 289.594 22
0 3 -10 3239.76 291.39 60
0 3 -10 2612.57 271.051 17
0 -1 9 14988.3 733.849 27
0 1 -9 13979 1042.09 55
0 -1 9 14495.5 733.362 21
0 1 -9 14355.4 629.53 64
0 -1 9 15539.7 763.197 11
0 -1 9 13815.2 654.409 85
0 -1 9 14045.6 643.199 113
0 -1 9 14047.7 644.974 26
0 1 -9 15167.1 605.919 8
0 -1 -8 8628.71 493.068 64
0 1 8 9479.9 574.256 85
0 1 8 10791.5 611.793 27
0 1 8 10975.4 598.188 26
0 1 8 9832.28 549.841 21
0 1 8 9982.1 548.408 113
0 3 7 6017.41 356.581 75
0 3 7 6623.45 396.686 89
0 5 6 719.995 106.566 89
0 5 6 536.265 94.1663 75
0 4 -11 1774.42 184.441 22
0 4 -11 1462.24 166.325 23
0 2 -10 26907.9 687.078 8
0 -2 10 25643.1 821.037 21
0 -2 10 27936.9 831.575 27
0 2 -10 26548.7 773.12 60
0 -2 10 26037.2 716.654 113
0 0 9 3616.86 312.962 27
0 0 9 3237.9 289.935 85
0 0 -9 3295.4 253.403 8
0 0 9 3609.74 286.294 113
0 0 9 3189.14 280.177 21
0 2 8 7494.62 378.062 89
0 4 7 2830.53 195.716 89
0 -1 10 13341.3 488.576 27
0 1 9 12689.1 421.749 89
-1 2 9 3459.54 204.822 89
-1 0 10 7329.6 301.95 89
-1 0 10 8922.66 392.901 27
-1 3 8 7194.42 347.647 89
-1 1 9 4227.96 326.318 27
-1 1 9 4345.12 289.071 113
-1 1 9 4033.58 329.325 85
-1 -1 10 11203.2 505.077 26
-1 -1 10 10192.6 470.392 21
-1 -1 10 11116.4 491.494 85
-1 -3 11 2518.94 217.509 21
-1 -3 11 3238.06 244.143 27
-1 4 7 2419.8 221.827 89
-1 4 7 2067.92 212.49 75
-1 2 8 3496.97 304.842 113
-1 2 8 2612.59 304.952 85
-1 2 8 3134.2 317.043 27
-1 0 9 2256.87 272.638 27
-1 0 9 2159.47 252.736 21
-1 0 9 2185.3 237.98 113
1 0 -9 2168.63 218.027 8
-1 0 9 2008.87 255.862 85
-1 0 9 2224.33 273.356 26
1 0 -9 1378.32 349.945 55
1 2 -10 11571.5 481.541 8
1 2 -10 11541.1 559.762 60
-1 -2 10 10156.7 531.48 26
-1 -2 10 12285.9 619.975 27
-1 -2 10 11551.9 510.113 113
-1 -2 10 10558.5 580.816 21
-1 -2 10 10357.6 496.294 85
1 2 -10 7724.4 517.325 17
-1 -2 10 9135.48 466.092 76
-1 -4 11 2079.13 221.569 21
1 4 -11 2152.87 225.759 17
1 4 -11 1239.94 184.29 22
1 4 -11 1178.84 144.49 30
-1 -4 11 1911.88 175.987 26
-1 -4 11 2784.01 247.2 27
-1 5 6 3923.35 305.19 89
-1 5 6 3322.18 291.529 75
-1 3 7 27491.3 984.509 13
-1 3 7 27162.5 1015.08 85
-1 3 7 26781.5 903.339 75
-1 3 7 26959.4 889.49 89
-1 1 8 604.309 143.277 21
1 -1 -8 413.224 175.249 55
-1 1 8 576.254 151.918 26
-1 1 8 588.792 157.655 85
-1 1 8 605.537 152.432 27
-1 1 8 786.357 160.999 113
-1 -1 9 22187.3 956.135 21
-1 -1 9 23258.8 861.009 113
1 1 -9 13327.1 1527.41 106
-1 -1 9 26407.8 1089.83 11
-1 -1 9 20385.3 857.453 85
1 1 -9 19436.5 1364.82 55
-1 -1 9 21800 910.652 26
-1 -1 9 18780.4 813.112 76
1 1 -9 20931.3 772 64
-1 -1 9 23428.9 967.894 27
1 1 -9 22356.4 761.241 8
1 1 -9 12674.9 804.335 17
1 3 -10 1201.33 334.587 55
-1 -3 10 1595.82 256.902 29
1 3 -10 1581.5 216.164 60
-1 -3 10 1648.45 246.883 27
1 3 -10 1089.13 221.844 17
-1 -3 10 1706.16 256.507 21
1 3 -10 1579.5 192.13 8
-1 -3 10 1927.27 267.848 11
-1 -3 10 1414.96 214.099 26
-1 -3 10 1213.31 175.024 76
-1 -5 11 96.1511 44.0353 26
1 5 -11 196.427 67.0078 30
-1 -5 11 107.393 55.6816 21
-1 -5 11 212.612 70.7101 27
1 5 -11 245.74 79.9201 17
1 5 -11 133.468 58.8944 22
-1 -5 11 81.6562 56.5343 29
-1 6 5 507.125 109.625 88
-1 6 5 597.647 125.93 75
-1 6 5 732.67 131.677 89
-1 6 5 665.679 130.42 19
-1 4 6 1621.01 228.832 89
-1 4 6 1721.88 263.62 85
-1 4 6 1335.96 219.535 75
-1 4 6 1859.15 255.464 19
-1 4 6 1685.39 254.685 13
-1 2 7 15052 764.949 113
-1 2 7 15018.4 827.505 27
-1 2 7 11875 623.559 75
1 -2 -7 9967.92 1141.09 41
-1 2 7 13533.9 734.431 19
-1 2 7 14532 803.45 26
-1 2 7 11807.1 722.968 85
-1 2 7 13093.3 731.764 13
1 0 -8 23271 869.625 64
-1 0 8 24526.8 1063.97 27
1 0 -8 14317.4 1676.05 106
-1 0 8 19481 908.741 85
-1 0 8 24654.9 968.352 113
1 0 -8 18675.6 1846.05 46
1 0 -8 20569 1654.88 41
-1 0 8 26020.2 1138.02 11
-1 0 8 22604.7 996.414 26
-1 0 8 23885.9 1043.32 21
-1 0 8 20782.8 941.556 76
1 0 -8 19869.9 1453.12 55
1 2 -9 9280.96 511.723 8
1 2 -9 8434.01 967.178 55
-1 -2 9 7644.24 528.526 85
-1 -2 9 6674.3 493.867 76
1 2 -9 7046.13 1206.17 106
-1 -2 9 9254.41 668.471 27
-1 -2 9 8367.63 597.811 26
1 2 -9 6068.03 621.069 17
-1 -2 9 8502.08 646.898 21
-1 -2 9 10729.9 735.681 11
1 2 -9 8943.78 535.998 64
-1 -2 9 8930.12 670.299 29
1 4 -10 552.201 113.651 9
-1 -4 10 659.958 149.134 26
-1 -4 10 888.862 195.825 29
-1 -4 10 831.397 162.446 11
-1 -4 10 546.982 114.627 76
1 4 -10 1103.66 309.851 55
1 4 -10 591.542 177.591 17
1 4 -10 697.581 145.982 60
1 4 -10 819.896 147.802 8
-1 -4 10 721.117 169.703 21
1 6 -11 4907.2 333.904 17
-1 -6 11 4690.81 344.216 29
-1 -6 11 4770.04 318.212 27
-1 -6 11 3918.1 304.033 21
1 6 -11 3577.47 292.189 30
-1 7 4 5973.52 372.07 75
-1 7 4 5302.37 349.15 88
-1 7 4 4922.49 310.787 19
-1 5 5 2016.12 275.323 13
-1 5 5 2084.61 276.481 19
-1 5 5 2072.89 278.558 75
-1 5 5 2186.72 274.056 89
-1 5 5 1866.37 253.423 88
-1 3 6 65446.5 1739.21 26
-1 3 6 62535.9 1665.74 13
-1 3 6 56020.2 1585.23 85
-1 3 6 60524.6 1610.51 19
-1 3 6 69023.7 1810.83 27
-1 3 6 71393.5 1752.02 113
-1 3 6 56733.5 1460.33 75
1 -1 -7 1266.83 568.167 102
-1 1 7 1740.29 232.993 75
-1 1 7 1832.36 290.08 21
-1 1 7 1698.98 272.226 113
-1 1 7 2233.79 311.399 13
1 -1 -7 1225.35 360.716 7
1 -1 -7 1172.86 476.192 106
-1 1 7 1960.4 310.559 11
-1 1 7 1725.13 279.484 85
-1 1 7 2116.88 326.358 27
-1 1 7 2074.67 302.691 19
1 -1 -7 1606.19 528.154 46
-1 1 7 1801.94 285.279 76
-1 1 7 1988.7 303.71 26
1 1 -8 3379.2 647.18 7
1 1 -8 3881.14 995.885 106
-1 -1 8 5204.58 537.317 11
1 1 -8 5064.74 786.876 55
-1 -1 8 4678.92 474.699 26
-1 -1 8 3828.21 396.661 85
-1 -1 8 5097.61 514.018 27
-1 -1 8 4395.62 478.131 21
1 1 -8 4896.73 411.858 64
1 1 -8 4266.17 925.521 46
-1 -1 8 4539.16 485.404 29
-1 -1 8 3843 398.288 76
1 3 -9 9304.18 569.835 64
-1 -3 9 7969.07 521.953 85
-1 -3 9 9349.33 668.137 26
1 3 -9 7662.95 984.622 41
1 3 -9 10493.3 565.928 8
1 3 -9 6604.4 1163.41 106
-1 -3 9 10526.5 748.772 27
1 3 -9 10124.1 627.48 60
-1 -3 9 10581.1 730.903 11
1 3 -9 6490.43 680.577 17
1 3 -9 9996.64 1076.29 55
-1 -3 9 9293.42 702.201 29
1 3 -9 9102.28 535.618 9
-1 -5 10 9934.38 683.957 27
1 5 -10 7928.03 492.514 9
-1 -5 10 8425.98 591.606 110
1 5 -10 8160.94 621.392 17
-1 -5 10 7829.38 529.236 26
-1 -5 10 8832.15 620.679 29
1 5 -10 8479.51 496.558 8
1 5 -10 7981.1 501.509 60
1 7 -11 1076.25 148.445 30
-1 -7 11 1126.59 148.608 21
-1 8 3 8524.83 428.574 88
-1 8 3 9678.17 436.216 75
-1 6 4 1652.19 248.307 19
-1 6 4 1394.79 217.847 75
-1 6 4 1670.58 231.769 89
-1 6 4 1457.35 227.791 13
-1 6 4 1333.41 219.477 88
-1 4 5 11630.4 704.906 19
-1 4 5 10273.7 649.206 75
1 -4 -5 4146.6 593.408 39
-1 4 5 10409.5 631.605 89
-1 4 5 10763.9 688.221 13
-1 4 5 11183.3 682.931 85
1 -4 -5 3356.2 556.14 100
-1 4 5 10214 621.417 88
-1 4 5 10133.4 556.985 74
1 -2 -6 3088.96 687.245 46
-1 2 6 5923.33 503.337 113
-1 2 6 4814.53 455.924 85
-1 2 6 5397.49 480.431 19
-1 2 6 4767.89 403.56 75
-1 2 6 5388.61 499.274 86
-1 2 6 4957.34 472.149 13
-1 2 6 5752.29 511.983 76
1 -2 -6 3563.9 864.149 97
-1 2 6 5846.47 539.013 27
1 -2 -6 3370.71 811.604 102
-1 2 6 5432.65 472.755 21
-1 2 6 5194.85 481.558 26
1 -2 -6 3405.3 776.295 106
1 -2 -6 3913.66 812.738 33
-1 0 7 8135.4 636.252 21
-1 0 7 7795.45 561.634 86
1 0 -7 5801.69 1115.7 106
-1 0 7 9251.29 672.32 29
-1 0 7 8742.94 673.969 27
1 0 -7 6524.08 1230.99 102
-1 0 7 9153.22 698.84 11
-1 0 7 7211.43 554.777 76
-1 0 7 8981.96 649.932 26
-1 0 7 8874.92 604.368 19
1 0 -7 5749.23 802.104 7
1 0 -7 7802.47 1200.6 46
-1 0 7 7947.06 581.575 13
1 2 -8 2497.64 281.105 8
1 2 -8 1876.14 436.668 37
1 2 -8 2675.3 311.324 64
1 2 -8 3935.95 348.445 9
-1 -2 8 2456.23 369.51 29
-1 -2 8 3063.94 418.505 11
1 2 -8 1949.1 538.29 55
1 2 -8 2686.36 1077.56 46
-1 -2 8 2452.23 361.735 27
-1 -2 8 2451.46 353.235 26
1 4 -9 8463.54 1282.1 106
-1 -4 9 11311.9 701.468 11
1 4 -9 7740.53 731.914 17
-1 -4 9 8813.92 601.75 77
-1 -4 9 11536.9 821.988 27
-1 -4 9 11134.4 778.286 29
1 4 -9 10617 779.663 16
1 4 -9 10597.1 616.086 9
-1 -4 9 10346.4 740.49 110
-1 -4 9 9548.09 689.428 26
1 4 -9 11024.3 1081.22 55
1 4 -9 10308.5 637.202 60
1 4 -9 11034.6 600.118 8
-1 -6 10 2238.66 297.941 110
-1 -6 10 2511.77 322.007 29
-1 -6 10 2440.58 323.243 27
1 6 -10 2364.37 276.605 16
1 6 -10 2184.73 265.101 9
-1 -6 10 2178.9 276.361 26
1 6 -10 1551.2 217.507 22
1 6 -10 2443.67 269.844 8
1 6 -10 2361.39 312.099 17
1 6 -10 1990.63 248.645 68
-1 7 3 279.005 90.7847 13
-1 7 3 131.604 56.1935 19
-1 7 3 330.585 111.463 88
-1 7 3 186.89 72.5035 74
1 -7 -3 271.259 110.737 54
-1 7 3 335.332 95.4347 75
-1 5 4 26071.5 974.301 89
-1 5 4 24848.6 876.75 74
-1 5 4 25693.3 1043.16 88
-1 5 4 26458.9 970.949 85
-1 5 4 25855.3 1056.7 13
-1 5 4 26088.8 1056.55 19
-1 3 5 37787.9 1810.79 99
1 -3 -5 27938.5 1748.76 41
-1 3 5 36998.1 1244.92 19
-1 3 5 36686.2 1261.21 13
1 -3 -5 25733.2 1937.06 33
1 -3 -5 21056.4 1985.07 97
-1 3 5 43184.5 1349.68 113
-1 3 5 42112.5 1391.6 27
-1 3 5 34336.9 1037.03 74
-1 3 5 38500.2 1312.56 86
-1 3 5 35246 1207.68 85
-1 3 5 38011.2 1266.5 26
1 -3 -5 20571.8 1598.83 101
-1 3 5 33732.8 1061.15 88
-1 1 6 22411.4 831.11 75
-1 1 6 25137.9 1049.16 21
-1 1 6 24717.6 1025.97 26
1 -1 -6 19305.6 1894.61 106
-1 1 6 23079.3 1326.1 99
-1 1 6 25460.3 1115.08 11
-1 1 6 22824.7 965.18 76
1 -1 -6 21163.5 1817.55 46
1 -1 -6 19683.3 2019.49 97
1 -1 -6 20745.2 1843.49 33
-1 1 6 24358.9 988.624 86
1 -1 -6 19411.4 1919.09 102
-1 1 6 28356 1209.39 27
-1 1 6 25215.4 1024.36 13
1 -1 -6 17622.4 1297.52 7
-1 1 6 25511.2 1026.7 19
1 1 -7 2477.38 477.426 37
-1 -1 7 4004.68 465.047 11
1 1 -7 2632.97 726.834 46
-1 -1 7 4135.23 454.653 26
1 1 -7 3337.95 857.858 106
-1 -1 7 4010.83 377.783 13
1 1 -7 3109.39 549.032 6
1 1 -7 3432.39 875.181 102
-1 -1 7 4056.48 449.701 29
-1 -1 7 3960.09 462.157 27
1 1 -7 3960.39 330.406 9
1 3 -8 2067.14 687.568 106
1 3 -8 2092.03 278.161 64
1 3 -8 2837.34 309.275 9
-1 -3 8 2213.77 352.025 110
-1 -3 8 2078.22 323.654 53
1 3 -8 2235.49 300.006 60
-1 -3 8 2372.59 387.216 27
-1 -3 8 2456.8 355.01 11
-1 -3 8 2998.45 433.42 91
1 3 -8 2105.04 271.867 12
1 3 -8 2246.15 528.208 55
1 3 -8 1767.09 358.032 16
1 3 -8 1771.95 456.134 6
-1 -3 8 1882.36 292.5 77
1 3 -8 1658.76 426.414 37
1 3 -8 1861.79 633.095 46
-1 -3 8 1909.82 316.959 26
1 3 -8 2194.77 265.547 8
1 5 -9 43440.8 1351.16 12
-1 -5 9 45119.1 1505.77 26
1 5 -9 47021.7 2749.79 106
-1 -5 9 51004.2 1351.21 11
-1 -5 9 51161.9 1689.9 29
1 5 -9 46135.3 1326.31 60
1 5 -9 48525.2 1661.29 16
-1 -5 9 45834 1568.91 110
1 5 -9 40719.3 1602.23 17
-1 -5 9 51210.2 1790.75 27
-1 -5 9 42633.1 1286.68 77
1 5 -9 55949.9 2278.26 55
1 5 -9 45493.8 1344.79 9
1 5 -9 50309.1 1313.49 8
-1 -7 10 7310.61 510.949 29
-1 -7 10 5834.44 415.67 26
1 7 -10 6234.73 469.252 30
1 7 -10 6189.92 443.175 9
1 7 -10 6837.55 443.97 8
-1 -7 10 6599.09 481.866 110
1 7 -10 4940.5 390.005 12
-1 -7 10 7567.19 533.774 27
1 7 -10 6881.67 442.398 16
1 7 -10 7442.53 482.253 17
-1 8 2 4648.16 362.471 75
-1 8 2 4285.84 374.649 88
-1 6 3 41345.7 1309.43 19
-1 6 3 39100.9 1250.58 13
-1 6 3 43341.6 1216.03 89
-1 6 3 40306.3 1332.44 88
-1 4 4 5889.88 494.647 19
-1 4 4 5536.89 461.133 88
-1 4 4 6213.39 514.605 27
-1 4 4 6465.85 539.222 86
1 -4 -4 3333.15 606.694 101
1 -4 -4 3546.58 508.173 39
1 -4 -4 3383.6 513.96 100
-1 4 4 5782.89 491.676 13
-1 4 4 6623.78 524.208 113
-1 4 4 6493.87 693.477 36
-1 4 4 6242.28 737.54 99
-1 4 4 6083.06 482.232 85
-1 2 5 29707.1 1128.14 28
-1 2 5 32342.8 1114.18 113
1 -2 -5 27463.9 1926.38 33
-1 2 5 29267.4 1056.44 19
1 -2 -5 27392.4 2059.86 102
-1 2 5 29809.1 1051.01 21
-1 2 5 26672.3 896.491 74
-1 2 5 33350.7 1221 27
-1 2 5 29802.3 1115.13 11
1 -2 -5 29636.2 2249.48 97
-1 2 5 29257.7 1068.39 86
-1 2 5 29112.4 1059.8 76
-1 2 5 27658.5 1420.82 99
-1 2 5 28595.9 1044.12 26
-1 2 5 29056.8 1070.98 13
-1 0 6 24764.6 1027.28 26
-1 0 6 20330 737.181 75
1 0 -6 21251.8 1978.67 106
1 0 -6 19763.9 1920.61 51
-1 0 6 25654.8 1086.94 11
1 0 -6 18247.8 1151.77 37
1 0 -6 20887.7 1976.22 102
-1 0 6 23065.1 990.84 21
1 0 -6 22157.3 1839.44 46
1 0 -6 20218.6 1786.42 33
-1 0 6 21948.3 922.77 78
-1 0 6 24671.5 1027.52 29
-1 0 6 22097.8 881.505 86
1 0 -6 21405 2057.39 97
-1 0 6 24327.5 953.242 19
-1 0 6 21286.4 1177.03 99
-1 0 6 24179.7 935.538 13
1 0 -6 22585.8 1358.96 6
-1 0 6 28178.8 1220.54 27
-1 -2 7 8436.2 576.786 78
-1 -2 7 9269.07 640.583 77
1 2 -7 9906.83 538.897 9
-1 -2 7 9536.46 689.781 110
-1 -2 7 11005.4 795.698 27
-1 -2 7 10232.7 723.191 11
-1 -2 7 10074.5 720.038 26
1 2 -7 8730.17 1366.02 106
1 2 -7 9790.34 1324.23 46
1 2 -7 9497.14 526.978 8
1 2 -7 5046.37 598.277 16
1 2 -7 10460.9 598.639 64
-1 -2 7 10873.9 710.49 53
-1 -2 7 13197.2 889.431 91
1 2 -7 9217.02 997.333 6
-1 -4 8 5806.45 566.922 110
1 4 -8 4533.48 569.982 17
-1 -4 8 5596.11 544.331 53
1 4 -8 4775.71 986.811 106
1 4 -8 6013.91 495.724 12
-1 -4 8 5639.62 741.127 48
1 4 -8 6584.03 466.947 8
1 4 -8 6211.63 504.751 60
1 4 -8 6362.97 809.955 55
-1 -4 8 5982.49 578.676 26
-1 -4 8 4985 472.96 77
1 4 -8 6084.06 864.192 6
1 4 -8 5197.88 617.968 16
-1 -4 8 7782.35 680.437 91
1 4 -8 6196.79 484.514 9
-1 -4 8 6251.67 527.773 11
-1 -4 8 6692.83 686.77 27
1 6 -9 1825.32 452.576 106
-1 -6 9 3116.4 413.67 111
1 6 -9 2874.97 330.545 68
1 6 -9 2535.76 336.772 12
1 6 -9 3481.5 399.443 80
1 6 -9 2696.66 308.357 8
-1 -6 9 3103.44 409.942 29
1 6 -9 2165.88 297.412 22
1 6 -9 3260.14 407.593 16
-1 -6 9 2494.47 353.885 26
1 6 -9 2983.88 356.899 9
1 6 -9 2114.66 369.603 18
-1 -6 9 2868.27 316.457 77
1 6 -9 2975.2 407.361 17
-1 -6 9 3329.89 462.912 27
-1 -6 9 2863.53 530.482 48
-1 -6 9 2865.69 382.302 110
-1 -8 10 4887.42 342.017 29
-1 -8 10 5868.83 409.393 110
1 8 -10 6243.71 404.622 8
-1 -8 10 4628.25 324.209 26
1 8 -10 4906.67 345.157 30
-1 -8 10 5059.2 360.665 27
1 8 -10 5354.09 339.844 16
1 8 -10 6432.95 360.008 17
-1 9 1 17000.2 686.907 88
-1 9 1 15580.3 553.715 75
-1 7 2 30804.8 1163.82 88
-1 7 2 29719 1070.7 19
1 -7 -2 12610.6 1012.45 44
1 -5 -3 15113.2 995.408 39
1 -5 -3 8533.15 923.567 103
-1 5 3 21989.9 1293.1 36
-1 5 3 18762.4 902.979 88
1 -5 -3 13204.7 975.13 100
-1 5 3 20979.7 830.439 85
-1 5 3 21496.6 964.64 86
-1 5 3 18971 876.158 13
-1 5 3 17944.6 769.113 89
-1 5 3 19325.7 885.415 19
-1 3 4 12620.1 665.261 26
-1 3 4 13945.1 735.934 86
-1 3 4 11433.2 593.107 88
-1 3 4 12677.4 690.386 27
-1 3 4 13149.1 911.942 36
-1 3 4 13647.7 988.307 99
1 -3 -4 10595.2 1094.19 33
-1 3 4 12266.5 676.888 76
-1 3 4 12078 674.018 13
-1 3 4 11940.5 701.399 28
1 -3 -4 11466.9 1272.02 97
-1 3 4 12855.6 678.718 19
-1 3 4 13481.8 685.46 113
-1 3 4 11641.5 635.552 85
-1 1 5 81589.4 1724.57 28
-1 1 5 71605.4 2082.51 99
-1 1 5 70389 1523.53 76
-1 1 5 74222.7 1610.18 78
1 -1 -5 78967.3 3497.34 97
-1 1 5 77843.6 1639.69 13
-1 1 5 75245.3 1709.41 11
-1 1 5 78462.9 1650.15 19
1 -1 -5 69857.9 2131.61 6
-1 1 5 77418.9 1609.85 86
-1 1 5 76683.1 1657.06 26
-1 1 5 92393.5 2042.64 27
-1 1 5 64389.3 1266.42 75
1 -1 -5 75695.4 3053.65 33
1 -1 -5 64103 3304.45 51
1 -1 -5 76403.4 3352.95 102
1 -1 -5 54277 1728.32 37
-1 -1 6 3607.33 437.263 27
1 1 -6 2789.9 644.995 46
1 1 -6 2573.83 683.81 97
1 1 -6 3203.6 277.58 9
-1 -1 6 2702.15 288.264 13
1 1 -6 2793.29 711.44 106
-1 -1 6 3226.5 367.51 110
-1 -1 6 3954.31 449.995 91
1 1 -6 2485.74 667.21 102
-1 -1 6 3363.27 321.378 19
-1 -1 6 2704.26 389.112 99
1 1 -6 2074.13 543.08 33
-1 -1 6 3177.09 371.938 26
-1 -1 6 3280.96 384.666 11
-1 -1 6 3310.33 361.429 77
-1 -1 6 3465.74 357.113 81
1 1 -6 2698.89 485.191 6
-1 -1 6 2786.46 312.219 78
-1 -3 7 9422.52 578.59 78
1 3 -7 10335.4 594.075 12
-1 -3 7 11683 781.575 111
-1 -3 7 9641.36 677.254 53
1 3 -7 11911.3 620.957 9
1 3 -7 11324.4 630.449 64
-1 -3 7 13609.9 948.992 27
1 3 -7 9576.42 992.103 55
-1 -3 7 11265.8 752.802 110
1 3 -7 8316.89 1262.18 106
-1 -3 7 11085.6 713.026 11
1 3 -7 11805.1 581.424 8
1 3 -7 11345.9 1118.47 6
-1 -3 7 15896.8 1391.89 98
1 3 -7 7536.46 738.83 16
-1 -3 7 10867.7 746.204 26
1 3 -7 10179.5 1324.61 46
-1 -3 7 9928.24 648.878 77
-1 -3 7 10324.8 938.805 48
-1 -3 7 13534.4 878.887 91
1 5 -8 68064.1 1965.99 80
1 5 -8 53246.6 2924.39 106
1 5 -8 59549.9 1530.22 60
1 5 -8 62570.2 1494.91 8
1 5 -8 62002.5 1716.69 12
-1 -5 8 58374.7 2497.3 48
-1 -5 8 60689 1895.88 26
1 5 -8 66190.7 2796.44 6
1 5 -8 70159.6 2512.93 55
-1 -5 8 68400 2075.12 111
1 5 -8 44825.6 1825.88 18
1 5 -8 63040.6 1661.56 9
-1 -5 8 54253.4 1538.77 77
1 5 -8 50871.7 1840.11 17
-1 -5 8 66831.8 2322.5 27
-1 -5 8 49620.3 1707.34 53
1 5 -8 61732.8 1637.51 25
1 5 -8 60379.8 2027.11 16
-1 -5 8 59293.9 1816.35 110
-1 -7 9 17612.3 736.368 77
1 7 -9 25707.4 1076.21 80
-1 -7 9 22078 1020.78 29
1 7 -9 22387.5 971.361 17
1 7 -9 21645.2 974.557 9
-1 -7 9 21040 1050.47 111
1 7 -9 20456.1 860.07 25
-1 -7 9 18983.8 924.05 26
-1 -7 9 21777.6 1158.27 27
1 7 -9 19668.4 960.444 12
1 7 -9 16309.5 1057.08 18
1 7 -9 20756.6 884.03 8
-1 -7 9 20368.8 979.52 110
1 7 -9 22092.9 992.916 16
-1 8 1 7671.62 495.462 19
-1 8 1 8224.71 573.233 88
1 -6 -2 1177.61 309.044 44
-1 6 2 1735.98 270.062 19
-1 6 2 1828.21 382.646 36
-1 6 2 1884.19 249.043 89
-1 6 2 1974.63 276.768 13
1 -6 -2 1040.73 336.736 103
-1 6 2 1873.28 289.564 88
-1 4 3 38882.4 1543.07 36
1 -4 -3 27939.6 1319.46 100
-1 4 3 38651 1107.96 85
-1 4 3 38751 1154.95 26
-1 4 3 40556.6 1677.38 99
-1 4 3 40672.9 1240.29 86
1 -4 -3 28264.6 1551.51 101
-1 4 3 35408.2 1119.61 88
-1 4 3 35597.2 1126.04 13
-1 4 3 38088.1 1148.33 27
-1 4 3 39281.4 1153.8 113
-1 4 3 34890.4 1091.93 19
-1 4 3 38756.1 1221.92 28
1 -4 -3 29961 1305.44 39
-1 2 4 58531 1376.02 11
-1 2 4 63322.8 1472.29 27
1 -2 -4 62203.7 2505.6 33
-1 2 4 62209.5 1401.47 86
-1 2 4 60957.1 1369.47 19
-1 2 4 57416.8 1306.57 76
-1 2 4 61463.9 1391.01 13
1 -2 -4 67981.5 2942.08 97
-1 2 4 64838.6 1857.58 36
-1 2 4 63895.4 1467.82 28
-1 2 4 63264.1 1424.5 78
-1 2 4 58494.4 1824.42 99
-1 2 4 56714.8 1313.07 26
1 0 -5 8236.02 983.229 33
-1 0 5 8866.18 566.191 11
1 0 -5 8729.38 1143.27 97
-1 0 5 7826.25 625.596 99
1 0 -5 7086.02 1046.04 51
1 0 -5 7940.64 746.297 6
1 0 -5 6383.48 875.362 107
1 0 -5 8916.97 1100.95 102
1 0 -5 6935.72 915.23 45
1 2 -6 32834.6 2353.76 102
1 2 -6 41414.6 2394.69 46
1 2 -6 41699.6 1920.69 6
1 2 -6 30242.6 1823.61 107
1 2 -6 38192.8 2502.33 106
1 2 -6 43132.8 1126.2 64
1 2 -6 43250.9 1059.35 12
-1 -2 6 42866.1 1307.73 53
-1 -2 6 64221.2 2526.82 98
-1 -2 6 45961 1364.11 11
-1 -2 6 46871.6 1814.37 48
-1 -2 6 45416.6 1415.75 26
-1 -2 6 48334.5 1430.8 110
-1 -2 6 43464.4 1276.6 77
-1 -2 6 45607.3 1529.19 27
1 2 -6 47644.8 1098.19 9
1 4 -7 29167.7 1131.46 25
-1 -4 7 29958.4 1305.44 26
1 4 -7 24481.4 1341.29 16
-1 -4 7 31345.3 1341.91 111
1 4 -7 26184.5 2122.97 106
-1 -4 7 27222.6 1233.39 91
1 4 -7 29683.4 1087.06 12
1 4 -7 30689.6 1854.78 107
-1 -4 7 31729.2 1571.85 27
1 4 -7 30439 1044.26 60
-1 -4 7 31994.1 1133.34 11
-1 -4 7 25618.3 1565.15 48
1 4 -7 22932.1 1245.81 18
1 4 -7 31882.2 1877.57 6
1 4 -7 30455.6 951.235 8
1 4 -7 29179.7 1285.78 80
1 4 -7 27595.3 1004.87 64
1 4 -7 30206.7 1044.67 9
1 4 -7 28109.7 1603.04 55
1 6 -8 2266.39 325.209 25
-1 -6 8 1930.86 460.871 48
-1 -6 8 2049.49 432.06 27
1 6 -8 2176.26 366.93 17
1 6 -8 2598 385.896 80
1 6 -8 2156.96 294.938 68
1 6 -8 1886.04 392.165 18
1 6 -8 2241.86 328.623 9
-1 -6 8 2250.73 380.542 111
1 6 -8 2224.66 294.271 8
-1 -6 8 2047.26 363.061 26
1 6 -8 2146.16 518.672 106
1 6 -8 2198.92 449.375 107
1 6 -8 2249.4 383.358 16
1 6 -8 2326.69 354.877 12
-1 -8 9 5613.94 502.12 111
1 8 -9 4944.05 403.173 30
1 8 -9 5714.26 448.369 16
1 8 -9 5507.84 481.573 12
1 8 -9 6546.94 433.874 17
1 8 -9 5720.87 432.319 25
-1 -8 9 5713.77 477.668 110
1 8 -9 5506.3 467.894 9
1 8 -9 5783.12 456.487 8
-1 -8 9 5375.54 459.179 26
-1 -8 9 5519.14 427.107 29
1 8 -9 4548.9 532.04 18
-1 -8 9 5483.49 509.761 27
1 -9 0 195.861 143.142 69
-1 9 0 391.936 123.754 14
-1 9 0 477.789 124.786 88
-1 7 1 2113.46 293.029 19
-1 7 1 2202.82 271.105 16
1 -7 -1 1237.21 320.901 44
1 -7 -1 1303.43 419.221 38
1 -7 -1 1322.49 389.759 103
-1 7 1 1794.69 292.632 14
1 -7 -1 1158.17 241.805 54
-1 7 1 2170.88 312.632 88
1 -5 -2 30453.2 1402.54 44
1 -5 -2 25608.7 1502.83 103
-1 5 2 40961.4 1093.62 16
1 -5 -2 39204.7 1519.07 100
-1 5 2 45540.3 1257.96 13
-1 5 2 45658 1344.63 88
1 -5 -2 44163.7 1531.6 39
-1 5 2 51001.9 1376.34 86
-1 5 2 45170.6 1328.3 28
-1 5 2 39711.3 1060.64 89
-1 5 2 48860.3 1803.29 36
-1 5 2 44010.4 1248.19 19
-1 5 2 48940.5 1827.48 99
-1 3 3 412.839 153.143 99
-1 3 3 648.614 181.585 36
1 -3 -3 379.646 134.834 35
1 -1 -4 37144.8 1762.41 40
-1 1 4 36668 1290.6 36
1 -1 -4 39661.2 1997.33 104
-1 1 4 36970.1 1296.36 99
-1 1 4 33508.3 986.501 11
1 -1 -4 29600.8 1247.13 6
1 -1 -4 36327.2 1799.74 33
1 -1 -4 42026.7 2166.6 97
1 1 -5 95208 3219.6 107
1 1 -5 137121 4122.13 97
1 1 -5 129729 3587.34 33
1 1 -5 135441 4127.69 102
-1 -1 5 182472 3279.27 48
-1 -1 5 119408 2156.14 99
-1 -1 5 145343 2196.5 11
1 1 -5 126521 2949.69 6
1 1 -5 117533 4146.72 51
1 3 -6 9256.74 915.447 6
-1 -3 6 9095.87 773.711 47
1 3 -6 10223.8 533.642 9
-1 -3 6 10037 615.507 11
-1 -3 6 8357.82 795.595 48
-1 -3 6 8854.87 545.93 73
-1 -3 6 9393.19 678.354 26
-1 -3 6 11777.9 1093.15 98
1 3 -6 7401.04 899.043 107
1 3 -6 9924.37 490.539 8
1 3 -6 6097.55 619.19 16
1 3 -6 6872.4 1069.88 106
1 3 -6 10379.1 563.437 12
-1 -3 6 9372.75 771.698 27
1 3 -6 9867.78 540.508 64
1 3 -6 8697.64 1109.34 46
1 5 -7 75239.4 2480.07 55
-1 -5 7 71894.9 2158.14 26
1 5 -7 82701.3 3022.77 107
1 5 -7 62507.7 2222.6 18
1 5 -7 70955.6 1610.44 60
-1 -5 7 77489.2 2232.56 111
1 5 -7 74359.1 1878.07 25
1 5 -7 66255.2 3135.9 106
1 5 -7 77058.3 1919.51 12
1 5 -7 81598.2 2992.14 6
1 5 -7 69557.2 2176.75 16
1 5 -7 78173.4 2142.25 80
1 5 -7 76965.4 1800.87 9
-1 -5 7 73330.3 2430.1 47
1 5 -7 60849.1 1976.52 17
-1 -5 7 77957.2 2727.71 27
-1 -5 7 68268.3 1727.68 73
1 5 -7 76522.7 1610 8
1 7 -8 12708.5 835.579 12
-1 -7 8 11166.8 1119.17 48
-1 -7 8 11613 838.797 26
1 7 -8 13461.2 847.299 16
1 7 -8 12508.4 735.245 8
1 7 -8 14122.9 832.607 17
1 7 -8 10696.5 964.665 18
-1 -7 8 11952.3 879.39 111
1 7 -8 13152.9 823.447 9
-1 -7 8 11856.5 995.605 27
1 7 -8 13850.9 1132.4 107
1 7 -8 15292.8 915.209 80
1 7 -8 13082.1 788.876 25
1 9 -9 2897.52 287.098 8
-1 -9 9 2893.14 288.368 110
-1 -9 9 1804.9 217.805 27
-1 -9 9 2658.68 268.391 26
1 9 -9 2492.07 289.603 12
-1 -9 9 3133.51 323.48 111
1 9 -9 2640.24 296.887 9
1 9 -9 3054.11 277.129 16
1 9 -9 2673.36 254.582 25
-1 10 -1 1526.48 175.379 88
1 -10 1 1033.63 310.856 63
-1 10 -1 1321.03 191.477 14
1 -10 1 890.548 370.686 69
1 -8 0 5037.23 651.827 44
-1 8 0 9448.5 580.974 19
-1 8 0 10384.6 581.723 16
1 -8 0 6069.67 586.291 54
-1 8 0 10452.5 744.708 14
-1 8 0 9772.83 639.313 88
-1 6 1 19827 818.74 13
-1 6 1 20835 778.453 89
1 -6 -1 14827.2 1026.62 44
-1 6 1 23121.3 1305.22 36
-1 6 1 20856.1 873.925 28
-1 6 1 20292 827.045 16
1 -6 -1 14679.9 1191.12 103
-1 6 1 20309.3 878.154 19
-1 6 1 21308 999.451 14
-1 6 1 20714 927.033 88
-1 6 1 25752.1 954.161 86
-1 6 1 23326.3 1044.48 8
1 -4 -2 19372.4 1081.56 101
1 -4 -2 19101.7 998.381 35
-1 4 2 22230.6 1108.62 99
1 -4 -2 20386.9 938.349 39
-1 4 2 22692.2 1071.81 36
-1 4 2 23779.1 828.782 27
-1 4 2 23826.9 806.902 113
-1 4 2 20946.4 773.759 19
1 -4 -2 18446 931.538 100
-1 2 3 66789.7 1690.88 99
1 -2 -3 63606.9 1576.19 6
-1 2 3 64771.1 1577.46 36
1 0 -4 30764.7 1549.94 33
1 0 -4 27105.4 1626.27 45
1 0 -4 35466.4 1855.1 97
1 0 -4 33365 1767.49 102
1 0 -4 19921.6 1382.12 104
-1 0 4 27991.8 1009.92 99
1 0 -4 28680.9 1210.93 6
-1 0 4 40009.9 1059.26 53
1 0 -4 27938.8 1817.06 51
1 0 -4 21658.6 1295.07 40
1 0 -4 25893.9 1607.31 107
-1 -2 5 11481.2 549.25 99
1 2 -5 10570.9 1034.47 107
1 2 -5 14205.1 1209.96 46
-1 -2 5 16705.6 930.639 47
-1 -2 5 16658.1 980.013 48
1 2 -5 14263.8 1319.46 106
1 2 -5 11895.4 1221.99 102
-1 -2 5 17590.5 737.762 11
1 2 -5 14747.7 1018.69 6
-1 -2 5 20137 1227.58 98
1 2 -5 16448.3 616.587 64
-1 -2 5 25051.4 1346.15 5
1 4 -6 6744.69 735.066 55
1 4 -6 7270.7 620.136 80
1 4 -6 7666.13 442.853 8
-1 -4 6 8178.83 932.753 98
-1 -4 6 7630.3 668.178 26
1 4 -6 7055.56 862.797 107
1 4 -6 6654.25 975.287 106
-1 -4 6 7317.37 809.295 27
1 4 -6 8026.65 539.186 12
1 4 -6 6600.32 634.324 18
-1 -4 6 7069.17 678.505 47
1 4 -6 6715.65 673.096 16
1 4 -6 8801.36 523.992 9
1 4 -6 7955.19 497.809 60
-1 -4 6 7707.78 506.925 11
1 4 -6 7554.48 837.761 6
1 4 -6 7406.97 554.875 25
-1 -4 6 7383 513.891 73
-1 -4 6 7896.75 779.984 79
1 6 -7 9066.29 895.486 18
1 6 -7 10663.4 663.052 8
-1 -6 7 10951.5 953.212 47
1 6 -7 10955.3 800.34 17
-1 -6 7 9332.44 824.082 26
1 6 -7 11587.6 884.539 16
1 6 -7 11378.8 1131.61 106
-1 -6 7 11117.2 723.057 73
1 6 -7 11486.6 1081.28 107
1 6 -7 12480.7 799.189 25
-1 -6 7 10187.5 1066.27 27
1 6 -7 11492.1 834.163 80
1 6 -7 13522.4 1244.71 6
1 6 -7 10814.9 718.401 9
1 6 -7 11996.7 803.203 12
-1 -6 7 11863.5 1058.5 79
1 6 -7 12014.3 793.583 10
1 6 -7 10847.4 646.722 68
1 8 -8 8098.84 594.948 8
1 8 -8 9137.95 648.027 16
1 8 -8 8523.92 600.576 25
-1 -8 8 8178.88 679.237 26
1 8 -8 6871.14 746.298 18
1 8 -8 10002.6 581.425 17
-1 -8 8 8251.75 700.358 111
-1 -8 8 6966.63 716.694 27
1 8 -8 7008.51 515.042 30
1 8 -8 8224.3 629.516 9
1 8 -8 7974.34 646.153 12
-1 9 -1 211.621 90.0628 88
-1 9 -1 282.014 96.6304 16
1 -9 1 284.894 143.512 54
1 -9 1 288.097 123.985 69
-1 9 -1 310.514 114.523 14
1 -7 0 25034.8 1870.77 57
1 -7 0 17132 1456.61 38
-1 7 0 21251.5 1054.32 14
-1 7 0 22197.5 959.555 88
1 -7 0 17438.7 958.487 54
-1 7 0 21073.5 873.061 16
-1 7 0 21760.6 1022.12 8
-1 7 0 24722 1406.63 36
-1 7 0 22566.2 952.451 19
1 -7 0 17087.3 1176.74 44
1 -7 0 16560.6 1346.09 103
1 -5 -1 8455.71 640.644 100
-1 5 1 8125.51 511.367 19
1 -5 -1 8398.85 578.355 42
-1 5 1 8251.11 491.067 13
1 -5 -1 7108.4 636.139 44
-1 5 1 7969.32 442.656 89
1 -5 -1 6250.29 690.583 103
-1 5 1 8800.04 580.125 8
-1 5 1 8499.92 688.669 99
-1 5 1 8291.26 510.647 28
-1 5 1 7931.51 542.73 14
-1 5 1 9063.12 728.554 36
-1 5 1 8114.47 486.24 16
-1 3 2 112254 2046.54 36
1 -3 -2 106362 2011.03 35
-1 3 2 124255 2268.36 99
1 -3 -2 94180.1 1463.35 7
-1 1 3 111772 1863.5 36
-1 1 3 115689 1962.63 99
-1 -1 4 27234.8 1086.36 48
1 1 -4 20285.1 1007.72 6
1 1 -4 14346.9 1154.56 107
-1 -1 4 31474.5 1345.22 98
-1 -1 4 23749 964.127 47
1 1 -4 24768.4 1441.23 97
1 1 -4 18685.6 1333.64 45
1 1 -4 22276.3 1395.47 102
-1 -1 4 21579.3 768.622 99
1 1 -4 21840 1216.3 33
1 1 -4 18394.1 1459.25 51
-1 -1 4 25609.4 822.646 53
-1 -3 5 109751 3051.27 98
1 3 -5 99436.3 1542.64 64
1 3 -5 80893.1 2846.74 107
1 3 -5 102174 1576.16 60
-1 -3 5 87748.8 2106.97 47
1 3 -5 98947.4 1403.62 8
1 3 -5 101525 1640.53 12
1 3 -5 84751.1 3165.21 106
1 3 -5 87587.8 2537.83 6
1 3 -5 100400 1522.71 9
1 3 -5 98992.5 3197.29 46
1 5 -6 12037.1 741.518 25
1 5 -6 13134.5 1197.74 107
1 5 -6 13613.3 1158.84 6
1 5 -6 12454.1 917.535 16
-1 -5 6 12039.1 692.082 73
1 5 -6 12710.2 752.754 10
1 5 -6 15492.9 745.868 4
1 5 -6 11897.2 628.483 60
1 5 -6 11148.8 819.522 17
-1 -5 6 11735.9 902.556 47
1 5 -6 12674.6 1268.16 106
1 5 -6 11434 918.606 18
-1 -5 6 9339.49 1022.99 27
-1 -5 6 9355.85 804.375 26
1 5 -6 12553 839.816 80
1 5 -6 11758.5 672.522 9
1 5 -6 12528.6 752.424 24
-1 -5 6 12886 1034.78 79
1 5 -6 11750.5 909.039 55
1 5 -6 12754.9 751.413 12
-1 -5 6 11326.5 1124.58 98
1 5 -6 11967.7 605.77 8
-1 -7 7 25363.5 1476.78 47
1 7 -7 29673.2 1339.95 80
1 7 -7 21874.5 1463.06 18
1 7 -7 25373.1 1228.83 12
-1 -7 7 19175.8 1201.84 26
1 7 -7 25462.4 1168.09 9
-1 -7 7 26026.1 1123.64 73
1 7 -7 25005 1209.75 10
1 7 -7 25064.5 1069.22 8
1 7 -7 25197.1 1153.08 25
-1 -7 7 26495.2 1603.06 79
1 7 -7 29629.6 1731.86 107
1 7 -7 28044.3 1299.64 16
1 7 -7 30450.6 1221.06 17
-1 -7 7 17934.4 1397.59 27
1 9 -8 839.378 191.189 12
1 9 -8 703.216 182.357 9
1 9 -8 846.125 231.385 18
-1 -9 8 802.411 171.484 110
1 9 -8 1006.33 184.881 16
-1 -9 8 571.429 171.562 27
1 9 -8 878.932 183.488 8
-1 -9 8 626.34 167.163 26
-1 -9 8 782.882 205.692 111
1 9 -8 788.754 161.583 25
-1 10 -2 10155.7 487.456 16
-1 10 -2 9192.48 605.982 14
1 -10 2 6074.9 728.615 63
1 -10 2 6901.58 1016.48 69
1 -8 1 3913.3 730.132 57
-1 8 -1 3882.98 383.593 88
-1 8 -1 4164.44 448.622 8
1 -8 1 2517.56 545.896 103
1 -8 1 3197.96 405.347 95
-1 8 -1 4154.89 489.293 14
1 -8 1 3165.73 432.818 54
1 -8 1 4452.13 805.928 43
-1 8 -1 4168.6 396.086 16
-1 8 -1 4239.63 403.51 19
1 -6 0 11931.1 1031.65 103
-1 6 0 13743.5 960.233 36
-1 6 0 12830.2 658.114 25
-1 6 0 12833 662.876 16
-1 6 0 12251.2 726.919 8
-1 6 0 12574.4 721.037 9
1 -6 0 11276.4 877.747 44
-1 6 0 14559.5 723.79 19
-1 6 0 13329.5 777.585 14
1 -4 -1 186183 2582.52 100
1 -4 -1 175088 2300.03 42
1 -4 -1 174709 2858.25 35
1 -4 -1 169264 2521.97 101
-1 4 1 193777 2803.43 99
1 -4 -1 182433 2444.82 39
-1 4 1 183372 2800.33 36
-1 2 2 271720 2940.69 99
-1 2 2 244711 2571.25 36
1 0 -3 246411 3709.37 40
1 0 -3 251746 4162.71 104
1 0 -3 243501 4202.67 107
1 2 -4 51002.7 1870.78 33
1 2 -4 51728.6 2097.42 97
-1 -2 4 70414 2085.06 98
1 2 -4 62442.4 2329.76 106
-1 -2 4 61000.5 1505.19 47
1 2 -4 63653.9 2133.35 46
1 2 -4 50182.8 2190.78 107
-1 -2 4 46623.2 877.828 99
1 2 -4 56961.5 1731.12 6
1 2 -4 53707.4 2235.83 102
-1 -2 4 78715.9 1989.15 5
1 4 -5 13533.6 559.307 8
1 4 -5 14385.6 691.124 12
1 4 -5 10447.5 807.412 55
1 4 -5 10840.2 1146.07 106
1 4 -5 12087.7 634.184 10
1 4 -5 11830.7 564.378 60
-1 -4 5 11782.6 1079.5 98
-1 -4 5 11335.4 761.643 47
1 4 -5 12504.3 595.524 9
1 4 -5 13092 1134.23 107
1 4 -5 13040.9 1031.23 6
1 6 -6 29642.2 1786.71 6
1 6 -6 24417 1127.65 12
1 6 -6 22944.5 1403.6 18
1 6 -6 25151.3 1113.32 25
-1 -6 6 25552.3 1068.52 73
1 6 -6 28998.4 1403.39 16
1 6 -6 26367.5 1174.21 24
-1 -6 6 24696.3 1352.94 47
1 6 -6 24391.9 978.384 8
1 6 -6 25413.3 1186.99 10
-1 -6 6 15525.2 1103.04 26
-1 -6 6 16532.5 1414.27 27
1 6 -6 25548.3 1091.8 9
1 6 -6 28415.7 1245.16 17
-1 -6 6 25348.7 1532.29 79
-1 -6 6 22850.1 1577.78 63
1 6 -6 27725.1 1296.7 80
1 6 -6 29109.5 1751.04 107
-1 -8 7 14323.8 1144.32 79
1 8 -7 16134.3 928.543 16
1 8 -7 14428.8 841.055 8
1 8 -7 18051.9 1324.81 107
1 8 -7 16648.8 760.691 17
1 8 -7 13693.4 811.478 25
1 8 -7 13128.1 1096.87 18
-1 -8 7 9771.36 963.085 27
-1 -8 7 10099.8 846.595 26
1 8 -7 13287.7 884.226 12
-1 -8 7 13890.9 784.428 73
1 8 -7 12376.7 836.093 10
1 8 -7 13160.5 849.317 9
1 10 -8 8444.86 403.481 16
1 10 -8 8034.07 407.675 25
-1 -10 8 8286.25 498.456 111
-1 9 -2 10851.9 771.881 14
1 -9 2 9025.95 1358.44 69
-1 9 -2 12045.9 664.18 16
-1 9 -2 10844.7 578.242 88
1 -9 2 9102.36 1123.78 43
-1 9 -2 11369 718.106 8
-1 7 -1 30292 1199.83 12
-1 7 -1 32689.9 1230.05 8
-1 7 -1 37677 1690.35 36
1 -7 1 32907.7 1642.34 44
1 -7 1 34679.8 1366.37 54
1 -7 1 36990.7 2336.51 57
-1 7 -1 35671.9 1373.18 14
1 -7 1 33136.1 1876.56 103
-1 7 -1 31361.7 1204.98 9
-1 7 -1 35524.9 1171.26 16
-1 7 -1 38134.9 1240.09 19
-1 7 -1 35442.4 1139.22 88
-1 7 -1 27872.9 1296.36 15
-1 7 -1 35380.7 1201.63 25
1 -7 1 34586.8 1982.74 38
-1 5 0 3894.35 357.973 8
-1 5 0 3524.67 386.889 10
-1 5 0 3587.78 381.893 99
-1 5 0 3081.71 317.85 9
-1 5 0 2894.95 304.337 12
-1 5 0 4179.24 463.536 36
1 -5 0 4100.49 465.305 44
1 -3 -1 81065.3 1421.94 100
1 -3 -1 79522.4 1346.4 39
1 -3 -1 91456.2 1707.05 35
-1 3 1 89856.3 1666.06 99
-1 3 1 78800.9 1544.16 36
-1 -1 3 171357 2376.16 5
1 1 -3 112936 2017.64 6
1 1 -3 130470 2770.33 102
-1 -1 3 138315 1549.25 99
-1 -1 3 128955 1840.61 47
1 1 -3 86241.6 2535.88 107
1 1 -3 126958 2612.98 97
1 1 -3 114722 2989.2 45
1 1 -3 130740 2388.46 33
-1 -1 3 150885 2400.36 98
1 1 -3 123629 3244.66 51
1 3 -4 62886.6 2396.7 107
1 3 -4 59416.1 2403.46 106
-1 -3 4 57293.1 2159.89 98
-1 -3 4 62642.4 1528.68 47
-1 -3 4 72712.1 2068.69 5
-1 -3 4 75806.5 1679.05 2
1 3 -4 65886.3 1985.96 6
1 3 -4 68807.3 2370.15 46
-1 -5 5 28764 1297.55 47
1 5 -5 30120.9 961.307 68
1 5 -5 29038.4 1195.89 17
1 5 -5 29590.8 1445.94 18
-1 -5 5 21078.7 1550.75 98
-1 -5 5 34362.3 2408.61 69
1 5 -5 25839.4 970.853 14
1 5 -5 30990.6 1168.83 24
1 5 -5 30351.3 1164.21 10
1 5 -5 35286 1936.22 107
1 5 -5 19388.1 1076.19 15
1 5 -5 32175.4 1314.47 80
1 5 -5 28175.9 917.097 8
1 5 -5 32369.7 1423.05 16
1 5 -5 28102.9 1608.15 106
1 5 -5 34171.9 1747.6 6
1 5 -5 28848.7 1105.09 25
1 5 -5 28448.7 1023.81 9
-1 -5 5 31460.7 1052.69 73
-1 -5 5 29181.2 1164.11 95
1 5 -5 27978.2 1059.45 12
-1 -5 5 24336.7 1547.39 63
1 5 -5 34498.7 1035.22 4
1 7 -6 19918.4 1123.26 16
-1 -7 6 16854.5 898.33 73
1 7 -6 15011.2 1172.04 18
1 7 -6 21992.1 1559.36 107
1 7 -6 16571.8 904.341 8
-1 -7 6 8222.32 1039.22 27
1 7 -6 16616.9 950.372 9
1 7 -6 16143.7 868.819 14
1 7 -6 17263.1 959.251 25
1 7 -6 16742.7 1032.14 10
1 7 -6 21100.7 1163.49 80
-1 -7 6 9623.63 901.654 26
1 7 -6 16598 1006.62 12
1 7 -6 22381.6 994.802 17
1 7 -6 23079.2 1589.62 6
-1 -7 6 15519.2 977.538 95
-1 -7 6 14126.1 1282.35 63
-1 -7 6 16695.8 1154.66 47
-1 -7 6 18438.5 1361.58 79
1 9 -7 3418.54 492.816 18
1 9 -7 3745.3 433.643 12
-1 -9 7 3599.54 522.092 79
1 9 -7 3811.63 413.508 8
1 9 -7 4531.22 427.43 16
1 9 -7 4180.99 406.731 25
-1 -9 7 2415.06 422.121 27
1 9 -7 3396.25 344.403 14
-1 -9 7 2986.99 419.049 26
1 9 -7 3855.18 429.695 9
-1 10 -3 7675 483.539 16
1 -10 3 7986.03 1142.17 69
1 -10 3 6536.61 764.279 79
-1 10 -3 6489.01 535.729 14
-1 10 -3 6498.63 485.47 8
1 -8 2 1497.96 308.715 54
1 -8 2 987.935 365.045 43
-1 8 -2 970.512 207.816 25
-1 8 -2 871.305 261.794 36
-1 8 -2 849.553 214.114 9
-1 8 -2 846.463 208.789 8
1 -8 2 1084 366.057 38
1 -8 2 1094.73 251.493 95
-1 8 -2 983.721 204.93 16
-1 8 -2 677.517 195.837 12
-1 8 -2 819.579 206.738 14
1 -8 2 1374.82 440.441 57
-1 8 -2 1022.29 188.794 88
-1 8 -2 1084.94 209.893 19
-1 6 -1 7031.26 545.006 14
-1 6 -1 6810.72 640.86 36
1 -6 1 7766.43 722.208 44
-1 6 -1 5634.83 541.894 15
-1 6 -1 5582.17 481.6 12
1 -6 1 9959.85 940.675 59
-1 6 -1 7062.58 497.621 16
-1 6 -1 6660.33 592.928 10
-1 6 -1 6443.82 491.611 8
-1 6 -1 5873.55 476.974 9
-1 6 -1 7065.59 515.369 25
1 -6 1 7815.44 588.159 54
1 -6 1 7608.28 805.499 103
-1 6 -1 7086.93 499.075 19
1 -4 0 3364.91 279.387 42
1 -4 0 4236.45 464.409 103
-1 4 0 3343.82 349.336 36
-1 4 0 3791.06 329.254 99
1 -4 0 3355.76 354.555 44
-1 4 0 3621.67 334.858 4
1 -2 -1 155567 1723.25 35
-1 2 1 160878 1862.72 99
1 0 -2 700946 5360.87 40
1 0 -2 654574 5719.02 104
-1 -2 3 205617 2285.46 2
-1 -2 3 185531 2200.14 47
1 2 -3 146728 3402.81 107
-1 -2 3 176483 1295.38 99
1 2 -3 154024 3279.17 102
1 2 -3 193321 3195 46
-1 -2 3 190771 2681.16 5
-1 -2 3 144098 2747.47 98
1 2 -3 185670 3400.14 106
1 2 -3 167641 2651.62 6
-1 -4 4 62964.9 2911.34 69
1 4 -4 53675.5 1106.7 8
-1 -4 4 70132.6 1730.97 43
1 4 -4 53553.7 1264.06 12
1 4 -4 48434.6 2010.76 106
-1 -4 4 33712.5 1567.97 5
-1 -4 4 27717.2 1651.26 98
-1 -4 4 63621.5 1434.79 2
1 4 -4 57096.4 2331.26 107
1 4 -4 54307.9 1963.54 6
-1 -4 4 50323.5 1446.38 47
1 4 -4 51542.5 1099.53 60
1 4 -4 51039 1154.04 9
1 4 -4 59545.1 1173.73 4
-1 -6 5 1510.95 405.719 63
1 6 -5 1862.92 273.928 8
-1 -6 5 2871.56 715.313 69
1 6 -5 2344.75 503.937 107
-1 -6 5 2631.75 415.568 47
1 6 -5 2253.07 308.092 17
1 6 -5 1765.03 313.636 10
1 6 -5 2324.52 371.279 80
1 6 -5 2766.21 510.429 6
-1 -6 5 2316.1 309.779 73
1 6 -5 2074.1 318.407 25
1 6 -5 2069.05 355.639 16
1 6 -5 1937.87 323.789 24
1 6 -5 1435.26 323.54 15
1 6 -5 2061.72 304.014 14
1 6 -5 2003.56 320.765 12
1 6 -5 2906.86 369.252 9
1 6 -5 2166.61 417.604 18
-1 -6 5 1927.37 322.126 95
-1 -8 6 598.487 253.565 27
1 8 -6 952.976 234.458 9
-1 -8 6 647.665 302.221 63
1 8 -6 1155.15 358.603 107
-1 -8 6 512.871 217.315 26
1 8 -6 729.897 193.851 14
1 8 -6 1160.37 251.412 16
1 8 -6 888.814 223.157 25
1 8 -6 635.175 207.568 12
-1 -8 6 746.839 190.183 73
1 8 -6 840.485 279.664 18
-1 -8 6 1045.81 325.356 79
1 8 -6 1012.96 231.465 8
1 10 -7 2164.14 266.033 9
-1 -10 7 2029.05 268.357 26
-1 -10 7 2466.07 345.482 79
-1 -10 7 2571.66 319.2 111
1 10 -7 2567.42 246.745 16
1 10 -7 2323.95 242.29 25
1 10 -7 2354.52 269.698 8
1 10 -7 1916.85 291.123 18
-1 11 -4 7238.84 447.26 14
1 -11 4 6536.8 559.306 79
-1 9 -3 6925.33 590.849 8
-1 9 -3 5352.83 540.375 12
-1 9 -3 5738.49 558.498 14
1 -9 3 5641.38 888.466 43
-1 9 -3 6725.92 538.812 16
1 -9 3 3996 450.576 95
-1 9 -3 5355.98 531.537 9
1 -9 3 4724.96 1010.78 69
-1 9 -3 6811.14 561.731 25
1 -7 2 106216 3276.46 59
-1 7 -2 84688.8 2076.22 12
1 -7 2 97340.2 3240.33 38
-1 7 -2 93819.4 1978.72 16
-1 7 -2 95649.8 2601.52 36
-1 7 -2 86140.8 2067.53 14
-1 7 -2 106549 2060.61 19
-1 7 -2 100076 2152.36 25
-1 7 -2 86690.7 2020.64 9
-1 7 -2 93322.7 1652.05 17
-1 7 -2 71998 2210.44 15
-1 7 -2 83243.1 1627.34 88
1 -7 2 85756.7 2116.2 95
1 -7 2 85526.4 2187.04 54
-1 7 -2 83688.4 1903.06 8
-1 7 -2 88179.6 2370.13 10
1 -7 2 92531.1 3587.23 57
-1 5 -1 5464.86 459.285 4
-1 5 -1 5889.17 519.351 36
-1 5 -1 5177.91 374.338 8
-1 5 -1 4832.33 374.978 9
1 -5 1 6459.58 561.978 44
1 -5 1 6693.48 460.047 54
-1 5 -1 5220.78 352.74 99
-1 5 -1 6003.56 485.63 10
1 -5 1 6880.21 666.226 103
-1 5 -1 6898.98 454.217 106
-1 5 -1 5460.95 409.402 12
1 -3 0 25352.5 597.853 42
-1 3 0 22803.5 680.932 4
1 -3 0 26145.2 628.628 39
1 -3 0 25642 656.843 100
1 -3 0 28189.8 827.893 44
-1 3 0 27341.8 714.237 106
-1 3 0 30032.6 787.606 99
1 -3 0 28919.6 999.877 103
-1 3 0 24792.5 774.813 36
1 -1 -1 54555.6 889.243 34
-1 1 1 54113.8 797.629 99
1 1 -2 650602 4918.78 102
-1 -1 2 642122 4016.96 98
1 1 -2 618897 6311.13 45
1 3 -3 129625 3170.31 107
1 3 -3 135853 1455.27 4
1 3 -3 129485 2580.94 6
-1 -3 3 139609 1772.31 2
-1 -3 3 145868 1693.82 54
-1 -3 3 135983 1921.54 103
-1 -3 3 132319 1963.81 47
1 3 -3 118735 2645.12 106
1 5 -4 55574.5 2020.24 6
1 5 -4 55831 2287.6 107
1 5 -4 45701.9 1663.99 18
-1 -5 4 51629.1 1605.32 47
-1 -5 4 51508.9 1355.7 115
-1 -5 4 46966.1 2702.55 69
1 5 -4 39405.7 1466.71 15
1 5 -4 51306.6 1220.38 4
1 5 -4 46013.5 1291.52 9
1 5 -4 48863.4 1430.14 24
1 5 -4 53424.3 1655.77 16
1 5 -4 47287.6 1380.25 12
-1 -5 4 44447.1 1277.53 54
-1 -5 4 49758.8 1443.91 95
1 5 -4 55303.5 1683.41 80
1 5 -4 47967.2 1242.99 8
1 5 -4 48473 1402.28 25
1 5 -4 48826.1 1451.03 10
1 7 -5 23382.5 1148.94 16
1 7 -5 17078.3 1219.08 18
1 7 -5 18774.5 1059.5 24
1 7 -5 24029.5 1660.42 107
-1 -7 5 17765 893.328 73
1 7 -5 18722.8 1075.13 12
1 7 -5 13981.3 1073.06 15
1 7 -5 18351.6 1020.15 9
1 7 -5 24894.8 1533.74 6
1 7 -5 24989.5 1268.99 80
-1 -7 5 18392.9 1177.48 47
1 7 -5 19728 1038.1 25
1 7 -5 18724.7 973.414 14
-1 -7 5 19322 1999.31 69
-1 -7 5 17928.6 1041.94 95
-1 -7 5 13580 1289.2 63
1 7 -5 18142.9 976.059 8
1 7 -5 18445.1 1092.77 10
-1 -9 6 2739.43 455.67 26
1 9 -6 4270.33 477.615 9
-1 -9 6 4965.12 659.209 79
1 9 -6 5134.62 465.145 16
-1 -9 6 4300.38 660.882 63
-1 -9 6 1987.68 432.162 27
1 9 -6 3498.22 503.551 18
1 9 -6 4064.37 476.454 12
1 9 -6 4299.6 428.517 14
1 9 -6 4753.36 458.175 25
1 9 -6 4909.65 501.19 8
-1 10 -4 14697.1 785.288 8
1 -10 4 13774 1119.21 79
-1 10 -4 12679.9 731.856 9
-1 10 -4 16833.5 777.498 16
1 -10 4 15296.9 1556.61 69
1 -10 4 9337.57 952.794 63
1 -10 4 11697.4 1209.51 84
-1 10 -4 12053.2 727.422 14
1 -8 3 8344.33 1144.77 57
-1 8 -3 8578.75 855.478 36
-1 8 -3 8703.42 697.837 9
-1 8 -3 8389.58 776.364 10
1 -8 3 8121.29 1307.09 69
-1 8 -3 9633.14 706.96 25
1 -8 3 8423.56 1083.85 43
1 -8 3 6738.23 631.32 95
-1 8 -3 8538.4 712.269 12
-1 8 -3 9165.21 612.26 19
-1 8 -3 7398.52 748.017 18
-1 8 -3 8788.98 669.472 8
-1 8 -3 7989.84 654.742 14
-1 8 -3 9965.44 688.288 16
-1 6 -2 7642.13 496.237 19
-1 6 -2 6083.1 502.757 12
-1 6 -2 6008.1 596.019 15
-1 6 -2 6186.02 457.37 8
1 -6 2 6919.21 776.967 59
1 -6 2 8089.83 594.081 54
-1 6 -2 5766.91 577.331 18
-1 6 -2 6946.17 583.288 4
-1 6 -2 7364 537.966 25
1 -6 2 8350.28 841.001 38
-1 6 -2 7290.49 521.004 16
1 -6 2 8791.45 608.408 95
1 -6 2 8654.94 839.39 103
-1 6 -2 6714.85 505.378 9
1 -6 2 7266.63 927.379 57
-1 6 -2 6819.88 579.246 10
-1 6 -2 6516.24 403.211 17
-1 6 -2 7063 544.124 14
1 -4 1 176389 1987.3 54
1 -4 1 165597 2378.04 44
-1 4 -1 166073 2015.57 106
-1 4 -1 181210 2861.18 107
1 -4 1 174579 2782.89 103
-1 4 -1 144574 1596.25 99
-1 4 -1 146285 1909.79 4
-1 2 0 366941 2267.52 106
1 0 -1 379016 3354.6 40
1 0 -1 392322 3790.85 104
-1 -2 2 55490.7 804.775 2
1 2 -2 53945.1 680.481 4
-1 -2 2 64461.4 1032.42 103
1 2 -2 53690.3 1848.69 107
1 2 -2 51975.2 1290.2 6
1 2 -2 45342.2 901.733 3
-1 -2 2 63720.5 1101.74 44
1 4 -3 103020 1633.71 1
-1 -4 3 105226 2065.46 44
1 4 -3 94174.5 1509.66 8
1 4 -3 94985.9 1420.09 4
1 4 -3 93311.9 1640.88 12
1 4 -3 107578 2918.83 107
-1 -4 3 118946 2165.59 103
-1 -4 3 97434.4 3391.25 69
1 4 -3 91572.2 1564.87 9
1 4 -3 85764 1699.64 106
-1 -4 3 118438 1714.21 54
1 4 -3 104324 2359.81 6
1 6 -4 95082.1 2055.7 14
1 6 -4 96328.6 2064.5 8
1 6 -4 92540.4 2098.98 9
1 6 -4 93832 2173.14 12
1 6 -4 105329 2278.7 16
1 6 -4 77702.8 2283.6 15
1 6 -4 117430 2575.11 80
1 6 -4 125436 3594.31 107
1 6 -4 95178.4 2203.33 24
-1 -6 4 95149.2 2049.76 115
-1 -6 4 95156.8 2204.59 95
-1 -6 4 87516.3 3957.58 69
-1 -6 4 102440 2503.24 47
1 6 -4 93573.5 2281.14 10
1 6 -4 97750.1 2175.82 25
-1 -6 4 92295.3 2074.91 54
1 6 -4 91360 2523.73 18
1 6 -4 119663 2992.67 6
1 8 -5 28993.7 1250.99 25
1 8 -5 23418.8 1106.8 14
-1 -8 5 18766.1 1541.63 63
1 8 -5 26576.9 1289.67 9
1 8 -5 26934.3 1260.75 8
1 8 -5 24085.5 1246.91 12
-1 -8 5 22901.2 1219.68 95
1 8 -5 22092.6 1373.37 18
-1 -8 5 22441.5 964.322 73
-1 -8 5 28334.1 2449.58 69
1 8 -5 29454.6 1228.47 16
1 10 -6 24955.3 948.121 9
-1 -10 6 18275.8 905.903 26
1 10 -6 30215.9 862.999 16
1 10 -6 23386.7 828.509 14
1 10 -6 27239.8 861.538 25
1 10 -6 28133.2 995.465 8
-1 -10 6 24174.4 1176.68 79
1 10 -6 20648.2 945.917 18
1 -11 5 9653.04 689.505 79
1 -11 5 6468.06 440.935 111
1 -11 5 4200.07 447.321 27
-1 11 -5 11150.6 472.458 16
-1 11 -5 7977.22 459.396 14
-1 9 -4 30556.9 1326.75 9
-1 9 -4 33293.9 1290.41 25
-1 9 -4 25792.3 1386.56 18
-1 9 -4 32198.9 1302.67 8
1 -9 4 17624.4 1387.16 63
-1 9 -4 27983 1397.8 10
-1 9 -4 28120.9 1233.94 14
-1 9 -4 34321.4 1297.44 16
1 -9 4 17420.3 1575.26 43
-1 9 -4 28284.6 1320.34 12
1 -9 4 23103.5 1109.89 95
1 -9 4 27779.7 2350.22 69
1 -9 4 30791.6 1942.77 79
-1 7 -3 14848.3 819.249 16
1 -7 3 16588.5 1430.19 43
-1 7 -3 12847.3 787.078 9
-1 7 -3 11634.8 923.568 18
1 -7 3 12654.6 1327.55 57
1 -7 3 15051.5 1224.09 38
-1 7 -3 12648.8 808.873 12
-1 7 -3 14343.4 819.373 25
-1 7 -3 15368.4 764.511 19
-1 7 -3 13837.3 655.368 17
-1 7 -3 13874.4 932.382 10
-1 7 -3 13124.8 813.973 14
1 -7 3 11351.6 803.836 54
1 -7 3 11674.1 791.578 95
-1 7 -3 13624.3 912.376 4
-1 7 -3 12840 747.495 8
-1 5 -2 28087.1 803.594 8
-1 5 -2 32716.8 1090.39 10
1 -5 2 35288.3 1064.69 54
-1 5 -2 30015.7 923.066 9
-1 5 -2 40717.2 1567.07 107
1 -5 2 28297 1396.62 59
-1 5 -2 32385.2 993.925 12
-1 5 -2 36822 1100.54 106
1 -5 2 31539.3 989.327 47
-1 5 -2 31434.7 1026.8 4
1 -5 2 32438.1 1376.85 103
1 -5 2 35181.4 1499.71 38
-1 3 -1 41496.6 1096.45 6
-1 3 -1 36725.7 905.97 106
1 -3 1 42318.3 995.001 44
-1 3 -1 37995.5 797.593 37
-1 3 -1 42480.1 700.55 99
-1 3 -1 41309.9 1113.79 107
1 -3 1 43872.7 1138.6 103
-1 3 -1 37053.9 773.534 4
1 1 -1 225932 1925.37 6
1 1 -1 218022 1928.2 102
1 3 -2 130817 1389.1 4
-1 -3 2 154460 2067.1 44
1 3 -2 163803 1618.39 3
-1 -3 2 160636 2173.33 103
1 3 -2 140452 2271.08 6
1 3 -2 145727 3000.25 107
1 3 -2 144758 1934.96 1
-1 -5 3 77628.9 2080.19 103
-1 -5 3 73194.2 1997.29 44
1 5 -3 74437.4 2441.1 107
1 5 -3 62144.6 1407.78 4
1 5 -3 71191 1956.23 6
1 5 -3 66383 1672.25 24
-1 -5 3 65865 2554.68 57
-1 -5 3 80586.4 1641.78 54
1 5 -3 60414.1 1418.59 8
1 5 -3 63723.3 1778.53 15
1 5 -3 63617.2 1699.73 10
1 5 -3 63733.3 1593.06 12
-1 -5 3 64562.5 3038.71 69
1 5 -3 64136.3 1555.82 9
1 7 -4 12388.2 809.749 25
1 7 -4 10786.9 818.795 12
1 7 -4 15029.5 1279.5 107
-1 -7 4 10278.6 651.068 73
-1 -7 4 11048.9 796.329 54
1 7 -4 12134.8 766.314 16
-1 -7 4 7060.55 915.257 63
1 7 -4 11980 806.734 8
1 7 -4 11437 763.275 14
1 7 -4 9828.77 872.334 18
1 7 -4 9487.37 787.253 10
1 7 -4 11076 829.918 24
1 7 -4 8992.21 840.829 15
-1 -7 4 10692.8 1496 69
-1 -7 4 11331.4 833.076 95
-1 -7 4 11355.5 893.319 47
-1 -7 4 11112.3 745.68 115
1 7 -4 15150.7 959.682 80
1 7 -4 11412.2 835.082 9
-1 -7 4 15261.6 1290.96 43
-1 -9 5 778.626 307.22 63
1 9 -5 966.501 237.843 12
1 9 -5 1245.31 242.773 25
-1 -9 5 974.495 286.713 79
1 9 -5 1148.56 255.098 9
1 9 -5 993.447 222.098 14
-1 -9 5 900.389 230.898 95
1 9 -5 872.669 256.214 18
1 9 -5 1298.94 227.726 16
1 9 -5 1282.16 265.61 8
-1 10 -5 7698.12 540.573 16
1 -10 5 4741.69 728.517 84
-1 10 -5 6714.15 540.061 8
1 -10 5 2507.29 510.699 27
1 -10 5 6566.57 764.785 79
-1 10 -5 5978.59 525.583 9
1 -10 5 3343.45 550.781 63
-1 10 -5 6693.71 513.462 25
1 -10 5 3356.16 434.605 26
-1 10 -5 5702.75 486.64 14
-1 10 -5 5644.87 529.256 12
-1 8 -4 32280.5 1297.38 8
-1 8 -4 35053.7 1194.19 19
1 -8 4 26189.1 1256.93 95
-1 8 -4 36182.3 1380.89 16
-1 8 -4 35297.5 1145.08 17
-1 8 -4 31612.3 1359.09 9
-1 8 -4 30684.8 1467.8 4
-1 8 -4 33926.2 1333.19 25
1 -8 4 28022.6 1977.75 43
-1 8 -4 29232.1 1283.62 14
-1 8 -4 36422.4 1800.14 36
-1 8 -4 30786.2 1489.14 10
1 -8 4 33322.9 2300.85 57
1 -8 4 29881.4 2404.37 69
-1 8 -4 25425.7 1444.82 18
-1 8 -4 30384.4 1374 12
1 -6 3 133350 3419.84 59
1 -6 3 149388 3303.73 38
1 -6 3 159684 3889.82 43
1 -6 3 107016 2184.17 54
-1 6 -3 123571 1941.21 17
-1 6 -3 137244 2416.86 16
-1 6 -3 153161 2591.09 106
-1 6 -3 133985 2396.54 14
-1 6 -3 131877 2427.29 4
-1 6 -3 162189 3542.51 107
-1 6 -3 128345 2271.78 25
-1 6 -3 113715 1892.18 8
-1 6 -3 121513 2138.03 9
1 -6 3 116056 2247.29 95
-1 6 -3 125590 2445.07 10
-1 6 -3 123578 2247.35 12
-1 6 -3 97104.9 2533.61 15
1 -6 3 124450 3774.12 57
-1 6 -3 130143 3025.32 18
-1 4 -2 148213 2582.64 107
1 -4 2 123770 1723.45 54
-1 4 -2 132200 1980.25 37
-1 4 -2 125046 1727.1 4
1 -4 2 109463 1613.63 47
1 -4 2 142224 2419.16 38
-1 4 -2 130247 2107.06 106
-1 4 -2 140222 2484.73 6
1 -4 2 177681 3089.7 43
-1 2 -1 359811 3093.61 106
-1 2 -1 370763 2820.27 6
-1 2 -1 373877 2221.56 7
-1 2 -1 348688 2398.17 37
-1 2 -1 383476 2649.24 107
1 0 0 271005 2031.36 98
1 0 0 286395 2570.45 5
1 2 -1 112584 1656.86 1
1 2 -1 108986 1478.91 6
-1 -2 1 118921 1799.11 35
-1 -2 1 111046 1418.46 42
1 2 -1 120294 1626.82 3
1 2 -1 99943 1063.85 4
1 2 -1 106932 2086.07 107
-1 -2 1 109725 1231.51 7
1 4 -2 80704.2 1514.16 9
1 4 -2 80966.4 1564.73 12
1 4 -2 85734.7 1747.78 6
-1 -4 2 94635.8 1950.53 44
1 4 -2 75278 1363.75 4
1 4 -2 81416.6 1454.31 8
-1 -4 2 98950 2133.4 103
1 4 -2 98830.2 1672.56 1
1 4 -2 94534.8 2449.12 107
1 4 -2 84535.9 1721.95 10
1 6 -3 16903.2 1033.79 18
1 6 -3 21779.5 1035.72 80
-1 -6 3 19549.6 1181.1 44
1 6 -3 17175.4 946.815 12
-1 -6 3 18935 1059.92 47
-1 -6 3 17667.7 1770.73 69
-1 -6 3 20815.1 1024.65 95
1 6 -3 16206.7 998.694 15
-1 -6 3 20736.7 971.928 54
-1 -6 3 18147.4 885.002 115
-1 -6 3 18786.5 1522.25 57
1 6 -3 17188.6 891.116 8
1 6 -3 18334.5 906.367 25
1 6 -3 17329.7 923.123 9
-1 -6 3 16602 790.882 90
1 6 -3 17730.6 967.716 24
1 6 -3 17843.8 839.731 16
1 6 -3 16810.5 968.53 10
-1 -6 3 19435.7 1223.33 103
1 6 -3 22358.8 1432.28 107
1 8 -4 11905.4 729.167 16
-1 -8 4 11209 1579.54 69
1 8 -4 10440.8 821.705 9
-1 -8 4 7572.58 533.377 73
1 8 -4 10313.4 742.131 14
-1 -8 4 9220.58 764.477 95
1 8 -4 9047.41 840.975 18
-1 -8 4 7018.79 979.147 63
1 8 -4 9619.62 799.701 12
1 8 -4 12062 781.679 25
1 8 -4 11825 842.38 8
1 8 -4 7815.85 798.156 15
-1 -10 5 498.262 167.317 26
1 10 -5 680.036 125.019 16
1 10 -5 546.155 132.569 14
1 10 -5 479.393 133.283 8
-1 -10 5 593.328 193.239 79
1 -11 6 5499.73 504.384 79
1 -11 6 4647.89 371.836 111
-1 11 -6 5173.42 312.846 16
-1 9 -5 1148.37 240.682 25
-1 9 -5 1095.52 240.263 14
1 -9 5 779.02 336.199 84
-1 9 -5 1132.21 263.155 12
-1 9 -5 1077.86 294.856 18
-1 9 -5 1118.05 240.501 8
1 -9 5 757.668 303.854 63
1 -9 5 836.329 447.764 69
-1 9 -5 1196.19 270.928 9
-1 9 -5 999.197 266.167 10
1 -9 5 866.14 341.964 79
1 -9 5 655.044 260.419 26
-1 9 -5 1343.93 263.597 16
-1 9 -5 1086.14 200.723 17
-1 7 -4 40220 1315.53 8
-1 7 -4 37111.1 1789.08 18
-1 7 -4 43892.5 1591.27 4
1 -7 4 36345 2045.96 43
1 -7 4 35509.4 1396.48 95
-1 7 -4 40779.7 1431.81 14
1 -7 4 33280.5 1130.07 73
1 -7 4 42622.2 2448.55 57
-1 7 -4 40779.4 1478.41 12
-1 7 -4 44858.3 1300.61 17
-1 7 -4 39968.8 1554.32 10
-1 7 -4 45647.3 1493.1 16
-1 7 -4 41665.8 1410.52 25
1 -7 4 37779.3 2534.5 69
-1 7 -4 40585.3 1426.36 9
1 -5 3 77850.5 2713.02 57
-1 5 -3 75391 1309.86 8
-1 5 -3 79210.9 1498.37 9
-1 5 -3 83970.9 1674.57 4
1 -5 3 73987.8 1655.34 47
-1 5 -3 87205.4 2050.91 106
-1 5 -3 86331.9 1962.5 37
1 -5 3 90529.6 2512.72 43
-1 5 -3 93067.4 2401.99 6
-1 5 -3 80862.4 1573.62 12
-1 5 -3 76649.2 1628.28 10
1 -5 3 84227.3 2554.33 59
1 -5 3 83923.7 2128.17 38
-1 5 -3 94102.8 2379.98 107
-1 3 -2 3406.54 209.366 101
-1 3 -2 3425.69 109.001 99
-1 3 -2 4100.1 436.988 106
1 -3 2 3806.85 272.7 47
-1 3 -2 4663.37 394.598 107
-1 3 -2 4264.33 275.658 41
1 -3 2 4398.58 357.558 38
1 -3 2 5031.31 451.702 43
-1 3 -2 4596.77 411.579 6
1 1 0 696692 4648.39 105
-1 -1 0 576442 3298.21 41
-1 -3 1 17542.4 862.107 35
1 3 -1 16566.5 870.149 107
-1 -3 1 16206.5 658.465 42
1 3 -1 19291.7 756.823 3
1 3 -1 18376.6 746.428 1
1 3 -1 14888.2 554.402 6
-1 -3 1 15960.4 522.624 7
1 5 -2 14192 773.136 12
1 5 -2 13829.9 789.682 10
-1 -5 2 14487.6 1169.68 57
1 5 -2 16084.3 842.79 24
1 5 -2 14153.2 720.168 8
1 5 -2 15036.8 805.189 15
-1 -5 2 15664.3 940.084 44
1 5 -2 14453.7 767.563 9
1 5 -2 16235.4 1058.59 107
-1 -5 2 17792.3 1078.26 103
1 7 -3 4611.14 543.791 12
1 7 -3 4571.37 579.439 18
1 7 -3 5155.23 490.524 25
1 7 -3 5100.83 457.782 16
-1 -7 3 5216.77 593.635 47
1 7 -3 4461.97 573.251 15
1 7 -3 4854.38 530.891 8
-1 -7 3 4744.08 678.606 103
-1 -7 3 4411.07 994.688 69
1 7 -3 4767.42 613.589 36
1 7 -3 4691.93 545.95 9
1 7 -3 5437.44 593.762 24
-1 -7 3 3980.33 440.238 115
1 7 -3 4647.13 497.319 14
-1 -7 3 5067.56 556.381 95
-1 -7 3 5269.34 547.573 54
-1 -9 4 4837.14 843.724 70
1 9 -4 5084.06 569.971 18
1 9 -4 6723.07 477.623 16
1 9 -4 5639.56 517.794 14
1 9 -4 6029.34 475.587 25
-1 -9 4 4849.48 506.274 95
1 9 -4 5804.93 571.541 9
1 9 -4 6393.9 587.922 8
-1 -9 4 4721.15 771.314 63
-1 10 -6 1716.41 264.594 8
-1 10 -6 1684.8 243.581 16
-1 10 -6 1117.38 232.442 12
-1 10 -6 1371.4 246.483 9
1 -10 6 1070.51 221.204 26
1 -10 6 932.882 312.237 27
-1 10 -6 1354.57 220.844 14
1 -10 6 1616.14 312.249 111
1 -10 6 1837.54 388.296 79
-1 10 -6 1675.74 245.942 25
-1 8 -5 8768.87 589.058 19
1 -8 5 6869.46 1133.26 69
-1 8 -5 8180.08 745.5 10
-1 8 -5 7890.85 633.184 25
-1 8 -5 6747.69 787.608 18
-1 8 -5 9595.21 640.091 17
-1 8 -5 8248.97 683.628 9
-1 8 -5 7544.78 653.894 14
-1 8 -5 7877.62 695.47 12
1 -8 5 4786.52 687.727 63
-1 8 -5 8857.21 684.912 8
1 -8 5 8975.2 1035.6 79
-1 8 -5 8899.31 681.775 16
1 -8 5 7782.92 1098.74 84
-1 6 -4 21806 999.946 10
-1 6 -4 20727.7 1276.31 18
1 -6 4 20186.9 970.725 95
1 -6 4 23816 1719.93 57
-1 6 -4 25402.7 989.31 17
-1 6 -4 23627.7 1018.28 14
-1 6 -4 26359.3 1331.66 106
1 -6 4 24038 1840.4 69
1 -6 4 18544.2 1323.17 43
-1 6 -4 27136.8 1420.07 107
-1 6 -4 27636.3 1146.07 80
-1 6 -4 22608.9 937.116 9
1 -6 4 20236.5 1334.47 2
-1 6 -4 25356 1082.41 16
1 -6 4 22437.5 1096.2 47
-1 6 -4 28130.3 1508.38 6
-1 6 -4 21630.1 955.443 12
-1 6 -4 21805.4 1144.97 37
1 -6 4 20693.8 876.502 73
-1 6 -4 22592.7 863.245 8
-1 6 -4 21788.1 943.886 25
-1 6 -4 25789.4 1083.17 4
-1 4 -3 69172.5 1812.67 107
1 -4 3 57795.3 1820.24 43
-1 4 -3 64520.4 1832.63 6
1 -4 3 53978 1309.49 47
-1 4 -3 63055.3 2038.62 106
1 -4 3 48363.3 1943.97 2
1 -2 2 102512 2294.66 2
1 -2 2 141726 1711.03 47
1 -2 2 129274 2194.93 105
-1 2 -2 105037 2353.44 106
-1 2 -2 126880 1938.53 6
1 -2 2 124993 1342.39 3
1 0 1 326090 3603.21 5
-1 0 -1 279200 2584.03 41
1 0 1 323187 3134.46 98
-1 0 -1 261264 2255.69 7
1 0 1 315517 2892.24 3
1 0 1 279540 2657.73 2
1 0 1 295598 2981.76 105
-1 -2 0 89378.2 1445.36 50
1 2 0 121631 1904.25 1
-1 -2 0 103966 1620.32 100
1 2 0 100804 1348.62 36
1 2 0 122454 1848.69 107
-1 -2 0 113265 1359.16 33
-1 -2 0 87046.9 1482.69 108
-1 -2 0 102458 1534.63 39
1 2 0 123632 1995.42 3
-1 -2 0 106160 1821.94 101
-1 -2 0 100791 1286.96 7
1 4 -1 36545.7 1044.04 8
-1 -4 1 40684.9 1238.18 42
-1 -4 1 45141.4 1645.41 35
-1 -4 1 40419 1365.61 44
1 4 -1 41614 1472.55 107
1 4 -1 35421.1 1150.63 36
1 4 -1 36248 1089.65 12
1 4 -1 35875.3 1074.64 9
1 6 -2 10805.3 602.432 16
1 6 -2 13337 937.997 36
1 6 -2 10225.9 766.518 18
1 6 -2 11377.6 747.806 8
-1 -6 2 12612.2 1532.71 69
-1 -6 2 13001.1 1227.57 57
1 6 -2 10648.6 768.555 15
-1 -6 2 13520.2 1090.15 103
-1 -6 2 8986.4 563.009 90
1 6 -2 10801.6 646.422 25
1 6 -2 12194.1 822.277 24
-1 -6 2 11639.8 708.902 115
-1 -6 2 12935.7 777.714 54
1 6 -2 10392.9 743.844 12
1 6 -2 10853.4 755.204 9
-1 -6 2 13225.5 1175.25 44
-1 -8 3 19477.9 1574.77 43
-1 -8 3 14297.6 1831.44 69
1 8 -3 15008.6 754.489 16
-1 -8 3 13520.6 911.336 95
1 8 -3 14358 767 25
-1 -8 3 9953.75 1183.11 63
1 8 -3 13477.3 927.969 9
1 8 -3 14203.3 894.492 14
-1 -8 3 13640.7 920.746 54
1 8 -3 15151.6 962.673 8
-1 -8 3 11192.3 711.814 115
1 8 -3 13256.7 993.538 18
1 8 -3 10544.3 885.685 15
1 10 -4 10377 576.605 14
-1 -10 4 8972.07 726.806 79
-1 -10 4 9552.59 869.451 63
-1 9 -6 6766.24 554.507 25
-1 9 -6 7104.44 564.428 16
-1 9 -6 6970.52 619.052 9
-1 9 -6 6131.57 539.355 14
-1 9 -6 6347.54 626.761 10
1 -9 6 4152.79 523.317 26
1 -9 6 7053.78 858.46 79
-1 9 -6 7830.34 541.8 17
1 -9 6 3109.55 623.888 27
-1 9 -6 6324.79 598.336 12
-1 9 -6 6921.02 588.835 8
-1 9 -6 5557.26 677.163 18
-1 7 -5 1097.46 244.119 12
1 -7 5 970.472 455.222 69
-1 7 -5 1061.44 302.807 18
-1 7 -5 1525.88 264.307 17
-1 7 -5 1358.7 244.602 8
-1 7 -5 1646.06 368.639 106
-1 7 -5 1272.41 260.772 16
-1 7 -5 1060.75 219.882 25
-1 7 -5 1721.16 312.737 4
-1 7 -5 1120.03 239.601 14
1 -7 5 1454.85 407.826 79
-1 7 -5 1069.59 229.899 30
-1 7 -5 1122.67 257.906 10
1 -7 5 1135.73 523.634 84
-1 7 -5 985.138 219.034 9
-1 5 -4 37680.5 1213.33 4
-1 5 -4 28657.8 1152.73 7
1 -5 4 35985.2 1975.07 57
-1 5 -4 35264.1 1450.34 37
1 -5 4 31471.4 1665.45 2
1 -5 4 30346.8 1197.51 47
1 -5 4 28763.9 1851.13 69
-1 5 -4 31004.8 869.482 60
-1 5 -4 34098.9 1554.61 18
1 -5 4 35598.2 1644.53 79
-1 5 -4 38514.1 1777.7 106
-1 5 -4 36560 1600.83 6
-1 5 -4 32351.8 1029.22 12
-1 5 -4 30954.6 1039.41 10
1 -5 4 28267.7 1148.91 11
-1 5 -4 34077.5 930.19 8
-1 5 -4 32014.3 963.76 9
-1 5 -4 35822.2 1474.78 107
-1 3 -3 411908 3920.83 107
-1 3 -3 410880 4306.9 6
-1 3 -3 379204 4086.29 55
-1 3 -3 342284 5176.55 106
-1 3 -3 464613 4058.91 41
1 -3 3 357524 3299.6 47
1 -3 3 338453 3990.61 105
1 -3 3 401637 5362.47 2
1 -1 2 87819.6 1707.81 48
1 -1 2 63468.3 1867.98 98
1 -1 2 78904.3 1567.58 105
1 -1 2 86775.5 1431.02 3
1 -1 2 78599.8 1804.65 2
-1 1 -2 62304 1840.01 106
-1 1 -2 83973.2 1535.67 37
1 -1 2 89525.9 1143.32 34
1 -1 2 72081 2123.21 5
-1 1 -2 73872.3 1919.68 46
-1 1 -2 74537 1307.22 6
-1 -1 -1 28906.9 995.275 101
1 1 1 28846.8 699.679 36
-1 -1 -1 29153.6 948.039 41
-1 -1 -1 27712.1 897.687 102
-1 -1 -1 26770.4 1016.64 97
-1 -1 -1 27531.8 928.648 33
1 1 1 32064.2 1027.44 3
-1 -1 -1 27688 806.034 7
1 1 1 32004.5 984.41 1
-1 -3 0 13110.8 661.978 39
1 3 0 15385.4 757.372 107
-1 -3 0 12097.7 597.789 97
-1 -3 0 12475.7 541.235 33
-1 -3 0 14166.2 721.199 100
-1 -3 0 11573.1 590.143 108
-1 -3 0 11496.1 576.367 50
-1 -3 0 12631.6 637.796 42
-1 -3 0 13619.7 820.374 35
1 3 0 12881.7 608.42 36
-1 -3 0 13131.6 502.754 7
1 5 -1 5278 528.032 36
-1 -5 1 5261.61 578.662 44
1 5 -1 5943.87 508.281 9
1 5 -1 5693.19 479.278 15
1 5 -1 4821.98 474.409 24
1 5 -1 5471.99 398.4 21
1 5 -1 5142.39 464.859 8
1 5 -1 4635.2 453.608 12
-1 -7 2 38582.3 1472.86 54
-1 -7 2 36332.9 1808.88 44
1 7 -2 31712.7 1082.99 25
-1 -7 2 36414.4 1944.65 103
1 7 -2 35146.5 1408.9 14
1 7 -2 33199.3 1083.2 16
-1 -7 2 29717.6 1176.06 115
1 7 -2 36551.1 1713.85 36
1 7 -2 32555.5 1429.4 9
1 7 -2 29097 1391.88 15
-1 -7 2 35225.3 2781.53 69
1 7 -2 33153 1429.05 8
-1 -9 3 4132.22 445.262 95
1 9 -3 5047.73 355.553 88
1 9 -3 5427.21 507.483 14
-1 -9 3 3580.75 664.351 63
1 9 -3 5586.9 524.094 8
-1 -9 3 6689.31 1111.37 69
-1 10 -7 2852.65 284.552 16
-1 10 -7 2182.26 293.061 12
-1 10 -7 2535.84 227.46 17
-1 10 -7 2563.18 281.391 25
1 -10 7 2898.13 382.93 111
-1 10 -7 2582.78 305.857 9
1 -10 7 1725.72 352.217 27
-1 10 -7 2686.27 304.953 8
-1 8 -6 13266 786.928 17
-1 8 -6 9963.97 984.119 18
-1 8 -6 9336.93 682.096 14
1 -8 6 10847.2 1210.5 84
-1 8 -6 9958.92 763.309 12
-1 8 -6 11215.5 745.15 8
-1 8 -6 10649.3 833.52 10
1 -8 6 5552.49 879.054 27
-1 8 -6 10792 724.239 25
1 -8 6 11099.2 1117.24 79
-1 8 -6 10966.4 781.074 9
1 -8 6 7977.78 746.71 26
-1 8 -6 11439.4 736.095 30
-1 8 -6 12250.4 787.324 16
-1 6 -5 25804.7 1503.56 18
1 -6 5 24986.6 1534.71 79
-1 6 -5 24077.3 863.426 60
-1 6 -5 23068 1327.99 37
1 -6 5 13384.1 926.541 26
-1 6 -5 28278.9 1437.65 107
-1 6 -5 30590.2 1231.56 4
-1 6 -5 24668.5 1032.56 25
-1 6 -5 24676 990.22 9
1 -6 5 25408 1898.78 69
-1 6 -5 23807.5 1047.85 10
-1 6 -5 31379.4 1720.27 106
-1 6 -5 24200.4 1022.68 12
-1 6 -5 29475.7 1619.69 6
-1 6 -5 25952.9 1107.49 16
-1 6 -5 21455 929.923 14
1 -6 5 23290.9 1746.07 84
-1 6 -5 29203.9 1194.22 80
1 -6 5 24558.8 1014.53 73
1 -6 5 11011.1 1400.33 98
-1 6 -5 25697.6 941.188 8
1 -6 5 25744.9 1490.4 2
1 -6 5 24277.6 1252.07 47
1 -6 5 15175.1 1575.13 5
-1 6 -5 28105.3 1160.86 17
-1 4 -4 194677 3102.55 107
-1 4 -4 216680 3515.66 55
-1 4 -4 205384 2047.64 8
-1 4 -4 186229 4215.1 106
-1 4 -4 193863 3429.65 6
1 -4 4 190394 3006.62 11
-1 4 -4 209960 3043.37 41
1 -4 4 196884 4023.3 2
-1 4 -4 196715 2217.02 12
-1 4 -4 192707 2124.39 9
-1 4 -4 192606 2256.69 10
-1 4 -4 196787 2227.62 64
1 -4 4 173295 2749.97 47
-1 2 -3 403358 5630.17 106
-1 2 -3 474059 4337.91 6
1 -2 3 543939 5165.58 48
-1 2 -3 467030 4473.07 55
-1 2 -3 444526 5648.11 46
1 -2 3 391612 5541.74 5
-1 2 -3 474690 3606.12 107
1 -2 3 524043 5601.65 2
1 0 2 31074.9 1044.66 105
-1 0 -2 22507.7 1125.71 106
1 0 2 23984 704.135 36
-1 0 -2 23481.5 613.773 6
1 0 2 27772 1016.31 2
1 0 2 28910.9 1001.74 3
-1 0 -2 19805.2 977.413 33
-1 0 -2 25792.5 855.687 37
1 0 2 31188.1 1338.87 5
-1 0 -2 20617.8 1105.46 97
1 0 2 32408.6 859.02 53
1 0 2 33104.2 1229.27 98
-1 0 -2 21505 1064.68 102
-1 0 -2 30088.5 1013.41 7
-1 0 -2 24854.6 1090.85 46
-1 -2 -1 312966 3515.58 41
-1 -2 -1 309862 2891.86 7
-1 -2 -1 282545 3513.61 108
-1 -2 -1 349666 3502.87 102
-1 -2 -1 354859 4183.54 97
1 2 1 318444 2849.74 36
-1 -2 -1 336825 3620.44 33
-1 -2 -1 331947 3920.2 101
-1 -4 0 21527.1 990.369 39
-1 -4 0 21686 972.189 42
-1 -4 0 21388.4 1041.96 100
-1 -4 0 21344.8 1188.86 35
1 4 0 19115.4 831.328 8
1 4 0 19523.8 909.773 36
1 4 0 18170.1 818.422 9
-1 -6 1 4119.98 570.083 44
1 6 -1 5394.64 545.221 24
1 6 -1 5136.96 598.463 36
-1 -6 1 4852.69 682.52 103
1 6 -1 4485.93 491.291 15
1 6 -1 4467.55 501.174 9
1 6 -1 5213.23 528.965 14
1 6 -1 5167.46 425.47 21
-1 -6 1 5427.31 1048.31 69
1 6 -1 4988.38 518.725 8
-1 -8 2 15905.6 1485.16 63
1 8 -2 18131.3 1124.77 15
-1 -8 2 21904.3 1119 95
1 8 -2 24492.1 1162.72 14
-1 -8 2 22804.7 2227.48 69
1 8 -2 24756.7 980.395 88
1 8 -2 23672.2 1166.67 8
-1 -8 2 13839 758.517 115
-1 -8 2 21476.6 1109.21 54
-1 -10 3 692.926 199.198 79
1 10 -3 1664.57 217.736 14
-1 9 -7 3722.96 432.049 12
1 -9 7 4158.39 526.075 111
-1 9 -7 3841.63 395.489 25
1 -9 7 3919.08 430.697 26
-1 9 -7 4239.65 400.921 16
-1 9 -7 3960.38 433.12 9
-1 9 -7 3797.02 452.567 10
-1 9 -7 3585.77 549.966 18
-1 9 -7 4171.76 424.216 8
1 -9 7 4087.42 409.953 110
1 -9 7 2903.37 526.93 27
1 -9 7 4600.98 639.635 79
-1 9 -7 4787.21 412.689 17
-1 9 -7 3990.26 371.734 30
-1 7 -6 60618.6 2466.19 18
-1 7 -6 60350.8 1791.98 12
-1 7 -6 77653.2 1990.91 17
1 -7 6 37641.5 2197.1 27
-1 7 -6 81994.5 2945.3 6
-1 7 -6 66513.1 1688.6 8
1 -7 6 31764.6 2402.83 98
1 -7 6 63446.6 2612 79
1 -7 6 47498.8 1752.92 26
-1 7 -6 65939.6 1949.86 10
-1 7 -6 86293.5 2902.83 106
-1 7 -6 65965.8 1782.83 25
-1 7 -6 75489 2090.62 4
-1 7 -6 65219.3 1806.63 16
-1 7 -6 62664.3 1738.35 9
-1 5 -5 21154.3 747.852 8
-1 5 -5 18320.3 1179.44 18
-1 5 -5 22601.2 975.897 80
-1 5 -5 18825 1480.05 106
1 -5 5 10578.5 1052.9 27
-1 5 -5 20596.8 848.271 12
1 -5 5 12803.1 1444.04 98
1 -5 5 14837.8 904.604 26
-1 5 -5 19585.1 1002.87 17
-1 5 -5 23948.4 1216.95 107
-1 5 -5 20190.2 849.185 10
-1 5 -5 18847.2 917.986 22
-1 5 -5 21529.8 1302.76 6
-1 5 -5 21820.7 792.057 60
1 -5 5 15175.5 1500.34 5
-1 5 -5 19156.5 794.1 64
1 -5 5 20596.6 1027.82 11
-1 5 -5 20192.9 938.99 16
1 -5 5 22947.2 1437.16 2
-1 5 -5 20994.9 892.539 25
-1 5 -5 20845.2 817.956 9
1 -5 5 21230.4 1348.05 79
-1 5 -5 20414.6 1292.21 37
-1 5 -5 16709.2 1050.65 7
-1 3 -4 71328.3 1238.08 12
-1 3 -4 63296.5 1875.32 6
-1 3 -4 52312.7 2309.04 106
1 -3 4 47250 2244.25 98
-1 3 -4 66385.2 1631.92 107
1 -3 4 69553.3 2273.9 2
-1 3 -4 71319.1 1201.52 9
1 -3 4 53430.8 2375.89 5
-1 3 -4 62427.1 1881.02 55
-1 1 -3 317249 3695.24 37
1 -1 3 313405 4568.78 98
-1 1 -3 273373 3059.62 6
1 -1 3 338793 3097.86 105
1 -1 3 320159 4782.28 5
1 -1 3 339798 3230.51 53
1 -1 3 307111 3998.37 2
-1 1 -3 261783 4304.65 46
-1 1 -3 244904 4422.92 106
1 -1 3 356535 4120.56 48
1 1 2 51448.9 1172.18 36
-1 -1 -2 44567 1664.2 106
-1 -1 -2 55113.8 1662.47 41
-1 -1 -2 45197.2 1608.31 33
-1 -1 -2 49651 1630.7 46
-1 -1 -2 51114.8 1410.56 7
-1 -1 -2 47333.8 1694.72 102
-1 -1 -2 48020.5 1832.44 97
-1 -3 -1 98450.2 2126.61 50
-1 -3 -1 113499 2598.66 101
1 3 1 104246 1825.09 8
-1 -3 -1 108200 2151.41 39
1 3 1 107029 1962.39 36
-1 -3 -1 106463 2240.31 100
-1 -3 -1 97728.8 2218.73 108
-1 -3 -1 107098 2242.47 41
-1 -3 -1 109580 1728.74 7
-1 -5 0 72122.8 2011.24 42
1 5 0 72445.7 1833.28 8
-1 -5 0 68462.7 2174.31 44
1 5 0 71183.8 2037.04 36
-1 -5 0 69709.8 2449.72 35
1 5 0 59191 1149.99 89
1 5 0 66259.8 1717.19 24
1 5 0 80727.3 1850.29 15
1 5 0 77239.5 1528.02 21
-1 -7 1 113968 3192.95 44
-1 -7 1 109737 2477.06 54
1 7 -1 122443 2617.12 14
-1 -7 1 108768 3450.75 103
1 7 -1 122608 2673.59 8
1 7 -1 108546 2644.96 15
-1 -7 1 116550 5039.84 69
1 9 -2 6238.14 509.926 14
1 9 -2 6277.22 413.745 88
-1 10 -8 882.225 122.967 17
1 -10 8 836.006 192.696 27
-1 10 -8 918.816 136.288 16
1 -10 8 1076.88 205.352 111
1 -8 7 2931.1 603.057 48
1 -8 7 2824.43 393.815 26
-1 8 -7 3401.03 394.172 17
-1 8 -7 3659.51 411.994 25
-1 8 -7 3277.76 390.489 30
-1 8 -7 3231.81 422.326 12
1 -8 7 3478.47 429.33 110
-1 8 -7 3463.39 389.719 16
-1 8 -7 3072.1 557.082 18
1 -8 7 3407.57 589.974 79
-1 8 -7 3437.8 388.45 8
-1 8 -7 3339.53 406.937 9
1 -8 7 2248.05 515.435 27
1 -8 7 3447.5 507.064 111
-1 8 -7 3477.59 450.608 10
-1 6 -6 33546 1077.46 8
-1 6 -6 40742.9 2228.15 106
-1 6 -6 31647.9 1040.78 60
-1 6 -6 30683.2 1172.88 12
-1 6 -6 32264.5 1241.35 10
-1 6 -6 29907.9 1700.63 37
-1 6 -6 34866.7 1303.87 22
1 -6 6 25806.8 2166.49 98
-1 6 -6 32789.1 1306.64 17
1 -6 6 21358.9 1606.66 27
-1 6 -6 38745.6 1696.29 107
-1 6 -6 33661.1 1230.2 25
1 -6 6 34888 1263.42 11
-1 6 -6 32244.2 1141.09 9
-1 6 -6 32047.1 1240.69 16
1 -6 6 27647.8 1282.34 26
-1 6 -6 37024.8 1887.05 6
-1 6 -6 37918.9 1388.59 80
1 -6 6 32522.8 2271.61 5
-1 6 -6 30140 1683.41 18
1 -6 6 31504.1 1500.1 111
-1 6 -6 40125.4 1485.3 4
1 -6 6 34803.2 1873.99 79
1 -6 6 36022.2 1789.59 2
-1 4 -5 56945.7 2538.02 106
-1 4 -5 69522 1440.79 12
-1 4 -5 68588.7 2079.02 41
-1 4 -5 52152.6 1569.99 17
-1 4 -5 71954.6 1395.57 9
1 -4 5 71458.6 1859.66 11
-1 4 -5 70035 1292 8
-1 4 -5 74090.7 2505.39 37
-1 4 -5 69910.3 2105.19 18
-1 4 -5 67439.3 1404.93 10
1 -4 5 51548.7 2116.06 27
1 -4 5 68417.9 1929.16 111
-1 4 -5 76884.5 2002.42 107
1 -4 5 78467.9 2613.78 2
1 -4 5 77437.3 2490.65 79
1 -4 5 54057.8 2730.54 98
1 -4 5 69039.6 2985.18 5
-1 4 -5 69563.4 2252.12 6
-1 4 -5 64670.7 2139.76 55
-1 4 -5 68199 1425 64
1 -2 4 141138 3015.78 48
-1 2 -4 138023 2904.33 37
-1 2 -4 125043 2564.13 6
-1 2 -4 109212 3248.91 46
-1 2 -4 97677.2 3179.18 106
1 -2 4 116436 3111.39 98
-1 2 -4 119092 2631.17 55
1 -2 4 135614 3032.13 2
1 -2 4 138108 3538.95 5
1 -2 4 137615 2336.68 11
-1 0 -3 27593.9 852.066 6
1 0 3 40272.4 1675.64 98
-1 0 -3 28986.6 1109.75 37
-1 0 -3 21323.5 1341.24 102
-1 0 -3 31174.3 1294.19 7
1 0 3 39311.6 1813.24 5
-1 0 -3 24387.3 1458.86 106
-1 0 -3 21328.2 1406.07 97
-1 0 -3 26514.2 1411.44 46
-1 -2 -2 228453 4431.13 97
1 2 2 236280 2891.46 36
-1 -2 -2 226346 3894.2 102
-1 -2 -2 231181 3781.03 41
-1 -2 -2 221990 3035.07 7
-1 -2 -2 224160 3919.38 33
1 4 1 26521.6 937.819 15
1 4 1 22923.1 960.814 8
1 4 1 24311.2 856.09 113
-1 -4 -1 23869.9 1151.34 39
1 4 1 25626.1 836.714 21
-1 -4 -1 24769.9 1229.01 100
1 4 1 18674.1 633.63 89
-1 -4 -1 23324.2 1106.45 42
1 4 1 23261.3 1060.56 36
-1 -4 -1 20860.4 1265.97 35
1 6 0 41080.6 1712.06 36
1 6 0 40855.6 1497.26 8
-1 -6 0 33133.8 1678.44 44
1 6 0 43365.8 1230.75 21
-1 -6 0 28991.2 1767.66 103
1 6 0 39528.9 1424.3 14
-1 -6 0 44421.6 2989.32 69
1 6 0 39596.2 1441.09 15
1 8 -1 18093.7 849.96 88
-1 -8 1 13590.1 838.803 95
1 8 -1 13426.2 898.257 15
-1 -8 1 11080.8 1156.01 63
-1 -8 1 13865.5 850.302 54
1 8 -1 16842.5 911.544 14
-1 -8 1 12862.6 1046.16 44
-1 -8 1 17218.4 1806.02 69
1 -9 8 246.621 91.2023 110
-1 9 -8 464.698 117.871 17
-1 9 -8 471.107 118.298 16
-1 9 -8 434.589 116.87 30
-1 9 -8 371.446 119.027 9
-1 9 -8 265.973 107.938 12
-1 9 -8 352.47 103.999 25
-1 9 -8 376.38 126.63 8
1 -9 8 301.913 158.061 27
1 -9 8 309.569 141.198 111
-1 9 -8 234.543 97.7257 10
-1 7 -7 33196 1301.46 17
1 -7 7 25911.5 1694.08 27
1 -7 7 28533.3 1205.05 29
-1 7 -7 28526.6 1267.16 10
-1 7 -7 28200.8 1139.92 9
1 -7 7 26733.2 1830.82 48
-1 7 -7 31414 1206.22 25
1 -7 7 30948 1514.44 111
-1 7 -7 36642.1 1231.82 22
1 -7 7 31498.2 1335.06 110
-1 7 -7 30978.6 1196.75 16
1 -7 7 28308.1 1227.31 26
-1 7 -7 37350 1956.67 106
-1 7 -7 27110.1 1621.14 18
-1 7 -7 29445.3 1071.03 8
-1 7 -7 28496.7 1229.88 12
1 -5 6 1220.55 247.86 26
-1 5 -6 1302.53 231.048 25
1 -5 6 1572.03 492.032 5
-1 5 -6 1217.37 260.562 17
-1 5 -6 1419.47 236.658 12
-1 5 -6 1637.48 233.354 60
-1 5 -6 1593.47 257.32 80
-1 5 -6 1579.85 215.528 8
1 -5 6 1001.49 366.443 27
-1 5 -6 1464.3 395.002 37
-1 5 -6 1258.57 236.626 16
1 -5 6 1573.76 387.711 2
1 -5 6 1759.98 515.489 98
-1 5 -6 1386.96 234.733 10
1 -5 6 2154.29 493.667 48
1 -5 6 1617.11 333.718 111
-1 5 -6 709.176 345.522 106
-1 5 -6 1312.35 220.01 64
-1 5 -6 1950.39 259.559 9
-1 5 -6 904.86 290.864 7
1 -5 6 1552.27 276.898 110
1 -5 6 1576.75 288.532 11
-1 5 -6 1479.59 354.247 18
-1 5 -6 1429.04 350.854 6
-1 3 -5 11681.1 925.748 55
1 -3 5 11882.4 1187.62 98
-1 3 -5 9999.08 1131.19 106
-1 3 -5 13248.5 963.336 6
1 -3 5 12493.5 1023.68 48
-1 3 -5 13922.6 1073.48 37
1 -3 5 13689.3 799.966 11
1 -3 5 14748.5 1114.84 2
1 -3 5 11788.4 926.881 27
-1 3 -5 13600.3 585.74 10
1 -3 5 13141.3 715.999 110
-1 3 -5 13730.6 588.792 9
1 -3 5 14480.9 1294.5 5
-1 3 -5 13348.3 657.737 61
-1 3 -5 14063.4 617.956 12
1 -1 4 11238.2 866.672 2
-1 1 -4 10869.9 868.86 7
-1 1 -4 8472.39 987.199 106
-1 1 -4 9432.88 993.039 46
1 -1 4 12752.8 1013.62 98
-1 1 -4 10818.2 799.518 37
-1 1 -4 10393.5 702.652 6
1 -1 4 13823.3 756.436 53
1 -1 4 12940.6 1098.85 5
1 -1 4 10438.2 611.964 11
-1 1 -4 8566.54 760.562 55
-1 -1 -3 45676.8 2097.15 106
-1 -1 -3 47626 2134.12 102
-1 -1 -3 44513.3 2232.79 97
-1 -1 -3 56058.3 2051.55 41
1 1 3 55755.5 1514.1 36
-1 -1 -3 42593.8 1980.54 33
-1 -1 -3 52402.5 2072.92 46
-1 -1 -3 52663.1 1725.28 7
-1 -3 -2 53160.9 1923.09 41
-1 -3 -2 48261.3 1902.01 108
1 3 2 53702.4 1259.35 113
-1 -3 -2 56073.3 1846.81 100
1 3 2 58029.8 1627.62 36
-1 -3 -2 59364.8 2249.66 101
-1 -3 -2 54438.6 1735.85 39
1 3 2 51127.7 1161.98 27
1 3 2 64073.7 1477.76 13
-1 -3 -2 53588 1440.34 7
-1 -3 -2 49990.2 1826.06 50
1 3 2 63442.2 1388.71 85
-1 -5 -1 65655.6 2220.52 100
-1 -5 -1 46192.5 2122.35 35
-1 -5 -1 59761.2 1934.19 42
1 5 1 72534.4 1534.72 21
1 5 1 50872 1147.32 89
1 5 1 72342.5 1764.56 15
1 5 1 62665.6 1653.55 14
1 5 1 62941 1979.95 36
-1 -7 0 10454.5 752.867 54
-1 -7 0 8252.7 992.035 63
-1 -7 0 6719.44 533.325 115
1 7 0 12026.9 844.053 15
-1 -7 0 12574.7 1548.5 69
-1 -7 0 11016.8 984.764 44
1 7 0 12078 751.343 14
1 9 -1 1015.21 162.138 88
-1 -9 1 777.401 255.454 63
1 9 -1 897.343 160.849 14
-1 -9 1 377.263 119.345 95
-1 -9 1 51.8594 186.671 70
-1 8 -8 14284.1 821.606 12
-1 8 -8 16273 803.129 17
-1 8 -8 13391 755.682 30
-1 8 -8 14093.4 728.5 8
1 -8 8 14262.2 937.01 111
-1 8 -8 14140.4 711.434 16
-1 8 -8 13466.3 797.169 10
1 -8 8 13581.7 706.49 26
1 -8 8 15047.2 838.048 110
-1 8 -8 13759.3 777.574 9
-1 8 -8 14956.4 740.732 25
1 -8 8 13176.8 989.555 27
-1 6 -7 19332.9 968.43 10
-1 6 -7 22552.9 1731.36 106
1 -6 7 20727.1 1079.44 110
1 -6 7 17539.5 1454.5 48
1 -6 7 21088.4 986.254 11
-1 6 -7 21583.9 1011.1 16
1 -6 7 20563 1827.09 98
1 -6 7 21070.6 1233.5 111
-1 6 -7 19609.6 966.533 12
1 -6 7 19026.5 1388.86 27
-1 6 -7 20256.9 854.212 60
-1 6 -7 15684.5 1197.02 18
1 -6 7 21448.5 1117.97 29
-1 6 -7 21663.3 964.918 25
-1 6 -7 19908.9 928.167 9
-1 6 -7 21684.4 881.341 8
-1 6 -7 23420.7 1558.03 6
-1 6 -7 18764.5 1001.59 22
-1 6 -7 19831.7 1060.08 17
1 -6 7 18974.8 978.512 26
-1 6 -7 19093.2 1476.65 37
-1 4 -6 30856.6 2138.84 106
-1 4 -6 34766.3 992.596 8
-1 4 -6 34557.1 1068.9 10
-1 4 -6 35377.6 1742.24 55
-1 4 -6 30489 1461.61 18
1 -4 6 39772.8 1587.66 111
1 -4 6 45563 2474.11 5
1 -4 6 38723.3 1466.84 11
-1 4 -6 38175.5 1834.94 41
-1 4 -6 39050.3 2010.55 37
-1 4 -6 36088.5 1123.88 64
1 -4 6 31248.8 1188.86 26
-1 4 -6 37175.2 1814.44 6
1 -4 6 32004.1 1813.79 48
1 -4 6 34657.6 2186.24 98
-1 4 -6 34418.9 1879.91 7
1 -4 6 38227.3 1423.31 29
-1 4 -6 25826.7 1184.85 17
-1 4 -6 36992.6 1165.31 61
-1 4 -6 36123.7 1062.9 9
-1 4 -6 36083.3 1120.96 12
1 -4 6 33946.5 1267.54 110
1 -4 6 41864.6 2048.01 2
1 -4 6 34676.8 1700.83 27
-1 2 -5 38766.1 1152.98 61
1 -2 5 65048.4 1796.93 53
1 -2 5 67235 2362.46 48
-1 2 -5 58272.2 2141.07 37
-1 2 -5 49327.9 1973.56 55
1 -2 5 67027 2688.53 5
-1 2 -5 55242.2 1164.92 10
1 -2 5 61995.6 1859.16 27
-1 2 -5 46322.1 2433.97 46
-1 2 -5 55801.1 1916.42 6
1 -2 5 61161.6 2439.29 98
1 -2 5 61587 1576.16 29
-1 2 -5 57140.6 2249.19 7
1 -2 5 62378.3 2275.58 2
1 -2 5 56282.4 1492.76 110
1 -2 5 55562 1580.73 11
-1 2 -5 41920 2445.96 106
-1 0 -4 49158.5 2331.79 46
1 0 4 55917.8 1475.25 11
-1 0 -4 54740.9 2009.46 7
-1 0 -4 53308.6 1737.14 37
-1 -2 -3 17040.6 1281.91 101
1 2 3 16390.1 729.444 11
1 2 3 14792.4 648.337 26
-1 -2 -3 13457.6 1173.21 33
1 2 3 17792.6 941.727 36
-1 -2 -3 13266.4 1298.24 97
-1 -2 -3 15295.9 936.673 7
1 2 3 17418.9 795.553 13
1 2 3 19606.5 810.897 85
1 2 3 14552.5 655.964 27
-1 -2 -3 16642.5 1198.45 41
1 2 3 16626.7 719.646 21
-1 -4 -2 122946 2775.89 42
1 4 2 159441 2253.76 21
-1 -4 -2 99619.6 3047.64 35
1 4 2 142118 2266.92 113
1 4 2 143196 2904.38 36
1 4 2 156460 2428.7 13
1 4 2 145940 2235.8 19
-1 -4 -2 137673 3179.64 100
1 4 2 174107 2563.35 15
-1 -4 -2 138834 3034.92 39
1 6 1 81881.8 2067.55 15
-1 -6 -1 51608.7 2145.46 44
1 6 1 67944.8 1336.09 89
-1 -6 -1 68300.4 2154.75 42
-1 -6 -1 43413.4 2278.2 103
1 6 1 67461.5 1690.39 14
-1 -6 -1 68552.8 3476.14 69
-1 -8 0 2805.08 519.062 63
1 8 0 4201.19 361.411 14
-1 -8 0 3338.31 387.696 95
-1 -8 0 3426.28 404.503 54
-1 9 -9 2105.98 262.546 12
-1 9 -9 2710.28 245.342 17
-1 9 -9 2015.58 189.852 16
1 -9 9 2240.42 282.088 27
-1 9 -9 2249.14 259.437 9
-1 9 -9 2661.11 263.57 8
1 -9 9 1666.16 208.061 110
-1 9 -9 2204.04 227.225 30
1 -7 8 503.966 187.065 111
1 -7 8 448.918 166.667 53
-1 7 -8 375.078 137.058 12
1 -7 8 101.843 79.1706 48
-1 7 -8 367.658 123.324 22
1 -7 8 535.65 168.796 110
1 -7 8 506.587 219.075 27
-1 7 -8 713.096 170.152 9
-1 7 -8 339.689 112.605 16
-1 7 -8 282.723 126.429 30
1 -7 8 331.018 129.115 29
-1 7 -8 404.572 120.641 8
1 -7 8 620.806 163.143 26
-1 7 -8 502.066 159.211 10
-1 7 -8 537.779 229.926 106
-1 7 -8 454.497 154.438 17
-1 5 -7 18391.7 865.826 64
-1 5 -7 20090.3 812.713 8
1 -5 7 20453.7 1208.23 111
-1 5 -7 16004.4 1537.04 106
1 -5 7 21628.1 1138.38 29
-1 5 -7 20892.8 1587.06 37
1 -5 7 24448.1 1899.93 5
1 -5 7 20387 1753.74 98
1 -5 7 16425.8 883.978 26
-1 5 -7 22169.3 1512.04 6
-1 5 -7 20170.2 937.913 12
-1 5 -7 17505.1 1400.17 7
-1 5 -7 19943.2 878.856 9
1 -5 7 18997.8 1023.54 110
-1 5 -7 17012.9 1000.48 17
1 -5 7 20557.7 1036.66 11
1 -5 7 17221.6 1096.35 53
-1 5 -7 18392.8 869.913 10
1 -5 7 17764.8 1446.8 48
-1 5 -7 20131.5 850.582 60
1 -5 7 19517.1 1292.05 27
-1 3 -6 13695.1 713.745 61
1 -3 6 14509.7 844.824 29
-1 3 -6 13464.1 1111.74 55
-1 3 -6 10178.5 1252.96 106
-1 3 -6 15180.5 1130.12 6
1 -3 6 13696.1 810.186 110
1 -3 6 14948 906.564 11
-1 3 -6 15714.9 1294.17 41
-1 3 -6 14462.4 1208.86 37
-1 3 -6 14678.9 671.079 10
-1 3 -6 14280.4 665.837 9
1 -3 6 17383.4 1523.18 5
-1 3 -6 13933.8 1247.43 7
1 -3 6 14759.7 1217.87 48
-1 3 -6 14954.8 698.047 12
1 -3 6 11745.3 697.49 26
-1 3 -6 8890.01 706.512 17
1 -3 6 14652.6 980.387 27
1 -3 6 15789.2 1384.86 98
1 -3 6 13351.6 887.963 53
-1 1 -5 15388.1 1177.8 7
1 -1 5 20709.4 1472.07 98
-1 1 -5 16096.5 1096.19 37
-1 1 -5 14623.6 1433.24 46
1 -1 5 13558.4 644.365 13
1 -1 5 15305.1 825.36 11
1 -1 5 15081.9 777.317 21
1 -1 5 16051.2 743.618 85
-1 1 -5 15629.8 1160.64 55
1 -1 5 16713.8 945.003 91
-1 1 -5 13472.1 1457.49 106
1 -1 5 20550.8 1062.51 53
1 -1 5 18825.2 885.388 29
1 -1 5 18460.7 982.336 27
-1 1 -5 13961.9 607.008 10
1 1 4 53634.9 1357.15 19
1 1 4 45909.9 1165.82 26
-1 -1 -4 52043.9 2290.9 41
1 1 4 57468.6 1529.91 11
1 1 4 55577 1429.38 21
-1 -1 -4 46022.6 1860.55 55
1 1 4 54070.9 1417.77 13
-1 -1 -4 49277.9 2337.18 101
-1 -1 -4 37294.9 2207.07 106
-1 -1 -4 47714.9 1869.51 7
-1 -1 -4 48732.2 2361.22 46
1 1 4 53249.4 1391.72 85
1 1 4 52981.6 1432.85 27
1 1 4 47435.4 1218 76
-1 -3 -3 26914.3 1581.92 41
1 3 3 30800.2 1020.51 21
-1 -3 -3 25144.5 1322.84 39
1 3 3 30414.6 1342.86 36
-1 -3 -3 24786.2 1547.26 108
1 3 3 29317.5 1050.17 113
1 3 3 25659.9 924.372 27
-1 -3 -3 30712.2 1844.45 101
1 3 3 29890.2 1056.92 19
-1 -3 -3 26535.2 1415.36 100
1 3 3 30218.7 1111.71 13
-1 -3 -3 25867.4 1493.97 50
1 3 3 32500.5 1108.6 85
1 3 3 35397.3 1159.21 15
1 5 2 125443 2151.34 13
-1 -5 -2 98960.7 2626.32 42
1 5 2 99787.1 1694.81 89
-1 -5 -2 64175.6 2673.79 35
-1 -5 -2 101766 2911.93 100
1 5 2 110161 2759.28 36
-1 -7 -1 22399.5 1495.09 63
-1 -7 -1 23506.1 1115.13 54
1 9 0 4045.32 274.12 88
-1 8 -9 156.54 81.9768 30
-1 8 -9 256.317 86.6309 17
-1 8 -9 206.887 75.0185 8
1 -8 9 266.688 119.593 27
1 -8 9 172.26 78.7199 110
1 -8 9 189.376 75.6009 29
-1 8 -9 262.836 101.507 12
1 -8 9 155.509 71.7603 21
-1 8 -9 219.63 91.7448 9
-1 6 -8 20386.9 989.514 12
1 -6 8 20229.4 1535.14 48
1 -6 8 22014.3 996.933 11
-1 6 -8 19257.8 1006.61 17
1 -6 8 15394.1 990.317 91
-1 6 -8 19635 835.413 60
1 -6 8 22286.8 1139.1 29
1 -6 8 18183.8 1109.54 53
-1 6 -8 18295.6 973.154 22
-1 6 -8 20251.5 925.002 9
1 -6 8 19936.2 1257.97 27
-1 6 -8 21141.9 862.967 8
-1 6 -8 23257.2 1740.38 106
-1 6 -8 20011.9 941.301 10
1 -6 8 19951.3 1049.27 110
1 -6 8 18487.6 886.733 26
-1 4 -7 1336.15 235.647 64
-1 4 -7 1403.41 215.228 8
1 -4 7 1162.27 283.691 53
1 -4 7 1150.58 365.228 48
-1 4 -7 1009.43 333.445 41
1 -4 7 1482.4 291.848 29
-1 4 -7 1621.78 434.828 37
-1 4 -7 1522.62 236.673 10
1 -4 7 1035.87 212.109 26
1 -4 7 1539.41 292.677 110
-1 4 -7 995.017 262.588 17
-1 4 -7 1626.18 402.071 6
1 -4 7 720.535 268.997 91
-1 4 -7 1420.44 359.562 55
1 -4 7 1396.46 330.086 27
-1 4 -7 1460.02 236.597 12
-1 4 -7 1591.39 243.772 9
-1 4 -7 1288.4 400.752 7
-1 4 -7 961.579 440.559 106
1 -4 7 1546.54 301.989 11
1 -4 7 1419.21 447.881 98
1 -4 7 1759.36 511.154 5
-1 2 -6 31454.1 984.888 12
1 -2 6 29748.8 1308.39 91
1 -2 6 30733.7 1230.22 29
1 -2 6 26975.9 1021.65 26
-1 2 -6 25828.7 1043.83 61
1 -2 6 38455.4 2113.01 98
1 -2 6 32183.4 1306.67 11
-1 2 -6 35903.1 2103.24 41
1 -2 6 25198 971.005 85
1 -2 6 30710 1234.85 110
1 -2 6 35904.4 1444.36 53
1 -2 6 32955.8 1383.98 27
-1 2 -6 30295.2 1758.36 55
-1 2 -6 26033.9 2151 106
-1 2 -6 32439.6 973.086 10
-1 2 -6 29800 1677.24 37
-1 2 -6 28978.9 1798.7 7
1 0 5 45710.6 1221.34 26
-1 0 -5 49029.2 2699.71 46
-1 0 -5 56609.5 2585.88 41
1 0 5 54960.4 1555.29 11
-1 0 -5 49675.3 1880.23 37
-1 0 -5 49119.2 2121.94 7
1 0 5 53199.6 1373.51 19
1 0 5 60071.9 1609.34 29
1 0 5 55589.2 1478.21 85
-1 0 -5 39959.5 2556.44 106
1 0 5 59677.7 1688.74 27
1 0 5 69638.5 2093.06 91
1 0 5 44923.5 1193.83 76
1 0 5 52782.1 1412.38 13
1 0 5 52907.3 1498.08 21
-1 0 -5 53085 2201.77 55
1 2 4 62737.2 1584.46 15
1 2 4 53337.3 1447.78 19
1 2 4 55743.4 1505.89 11
1 2 4 52019.9 1478.91 113
-1 -2 -4 50000.9 2349.45 41
1 2 4 47089.3 1337.57 27
1 2 4 46726.7 1281.86 26
-1 -2 -4 44390.4 1786.08 7
1 2 4 53839 1480.99 85
1 2 4 52646.7 1508.54 13
-1 -2 -4 51349.1 2525.68 101
1 2 4 53994.9 1453.95 21
-1 -4 -3 18289.8 1192.01 39
1 4 3 20906 1215.87 36
-1 -4 -3 16775.4 1101.83 42
1 4 3 21661.6 915.598 19
1 4 3 20880 948.126 113
1 4 3 23759.5 926.511 21
1 4 3 21337.2 939.448 13
-1 -4 -3 18316.9 1251.94 100
1 6 2 32364 910.611 89
1 6 2 31030.1 1104.32 88
-1 -8 -1 1501.22 229.026 95
-1 -8 -1 1163.22 394.859 70
1 -7 9 17412.6 865.753 29
-1 7 -9 16238.2 832.414 30
-1 7 -9 18627.1 846.137 17
1 -7 9 16895.5 960.346 27
1 -7 9 16410.4 835.955 110
-1 7 -9 15990.8 691.596 8
1 -7 9 16502.2 844.942 91
-1 7 -9 16706.3 791.542 9
-1 7 -9 16965.4 734.314 22
-1 7 -9 15821.7 794.07 12
1 -7 9 15044 768.356 21
-1 5 -8 2707.68 333.03 9
1 -5 8 2202.75 399.696 27
1 -5 8 2011.94 286.363 26
-1 5 -8 2274.01 621.649 106
-1 5 -8 1760.68 329.928 22
1 -5 8 2549.87 370.421 11
1 -5 8 2795.91 400.859 29
1 -5 8 2096.39 373.336 53
-1 5 -8 2231.55 302.583 64
1 -5 8 2310.98 389.671 91
-1 5 -8 2302.7 291.993 60
-1 5 -8 2458.48 324.784 12
-1 5 -8 2452.08 287.832 8
-1 5 -8 2408.36 307.313 10
-1 5 -8 2184.01 352.049 17
1 -5 8 2382.25 360.23 110
1 -3 7 791.761 187.13 26
-1 3 -7 1319.83 233.124 61
-1 3 -7 648.172 311.69 55
-1 3 -7 1035.48 191.828 12
-1 3 -7 995.12 204.789 64
1 -3 7 966.595 233.205 110
-1 3 -7 1249.21 403.344 41
-1 3 -7 858.016 308.433 37
1 -3 7 890.794 231.402 11
1 -3 7 1348.79 429.123 98
-1 3 -7 1072.9 187.915 10
-1 3 -7 1125.41 199.571 9
1 -3 7 909.194 238.914 91
1 -3 7 968.59 236.059 29
-1 3 -7 720.304 222.802 17
-1 3 -7 521.621 418.556 106
-1 3 -7 833.41 316.061 7
1 -3 7 1035.37 256.233 53
-1 3 -7 445.565 274.358 101
1 -3 7 895.072 251.052 27
1 -1 6 25105 1120.07 11
1 -1 6 27381.2 1228.58 27
-1 1 -6 22781.6 1413.67 37
-1 1 -6 26792.5 1873.12 41
-1 1 -6 21902.9 1537.93 7
1 -1 6 19492.5 797.339 76
-1 1 -6 22892.4 2052.43 106
-1 1 -6 25835.9 883.903 10
1 -1 6 25695.5 1131.07 29
1 -1 6 23670.8 1071.19 21
1 -1 6 20973.8 881.609 26
1 -1 6 24579.3 1022.16 85
-1 1 -6 24924 1639.64 55
1 -1 6 28325.9 1339.21 91
1 1 5 6588.67 516.816 19
1 1 5 7685.31 574.394 15
-1 -1 -5 6043.47 720.184 55
1 1 5 6413.15 552.445 11
-1 -1 -5 4959.33 792.028 41
1 1 5 5753.48 452.446 26
1 1 5 6511.51 531.325 85
1 1 5 6854.62 559.914 27
-1 -1 -5 5337.12 700.629 7
-1 -1 -5 5465.21 888.326 101
1 1 5 6603.85 537.603 13
1 1 5 6597.77 543.437 21
1 3 4 25808.4 1026.97 19
1 3 4 26823 1067.87 85
-1 -3 -4 19784.3 1291.11 39
-1 -3 -4 18479.8 1308.88 100
1 3 4 23371.9 912.714 88
1 3 4 24186.3 974.442 27
-1 -3 -4 20461.5 1638.74 101
-1 -3 -4 18630 1366.78 50
-1 -3 -4 16590.9 1359.15 108
-1 -3 -4 21513.2 1531.76 41
1 3 4 26083.9 1072.93 13
1 3 4 25515.4 1078.38 113
1 3 4 28300.5 1059.88 21
-1 -3 -4 8499.6 971.1 35
1 5 3 4316.38 361.565 89
-1 -5 -3 3375.22 498.829 42
1 5 3 5129.91 416.585 19
1 5 3 4234.21 400.111 88
1 5 3 5339.39 432.598 13
1 7 2 759.807 142.586 88
1 -8 10 1178.25 172.514 27
-1 8 -10 1238.23 158.93 17
-1 8 -10 1102.23 159.41 30
-1 6 -9 14583.3 670.128 8
1 -6 9 13089.3 841.032 53
-1 6 -9 14051.6 742.817 12
-1 6 -9 15064.3 829.028 17
1 -6 9 13513.1 865.27 27
1 -6 9 14026.2 713.491 11
-1 6 -9 14540.6 744.644 9
-1 6 -9 13569.8 802.549 30
1 -6 9 15547.7 871.739 29
-1 6 -9 12714.5 736.813 22
1 -6 9 15405.2 885.538 91
-1 6 -9 13875.5 652.393 60
1 -6 9 13427.3 760.466 21
-1 4 -8 7976.21 576.503 64
-1 4 -8 6944.78 651.765 17
-1 4 -8 6241.94 890.025 108
1 -4 8 8877.17 753.216 53
1 -4 8 7776.73 562.7 26
-1 4 -8 8864.73 548.097 8
-1 4 -8 7220.74 950.91 41
1 -4 8 8361.38 733.814 27
-1 4 -8 7853.18 1199.1 106
1 -4 8 8192.01 695.011 29
1 -4 8 9127.17 717.69 11
-1 4 -8 7866.48 558.367 12
1 -4 8 8852.2 755.818 91
-1 4 -8 8366.29 560.421 9
1 -4 8 7754.52 638.714 21
-1 4 -8 10138 1053.97 55
-1 2 -7 2620.08 407.384 17
1 -2 7 3326.93 380.512 85
1 -2 7 4467.09 524.992 27
-1 2 -7 2464.89 744.522 106
-1 2 -7 3875.89 368.267 9
-1 2 -7 4055.48 704.016 55
-1 2 -7 3155.25 561.909 37
-1 2 -7 3337.32 701.643 41
1 -2 7 3995.83 467.272 11
-1 2 -7 3831.25 739.354 101
-1 2 -7 3461.79 392.586 61
1 -2 7 3763.26 493.044 91
1 -2 7 3664.2 448.821 29
-1 2 -7 3876.5 361.126 12
-1 2 -7 3266.11 638.1 7
1 -2 7 3653.73 439.941 21
1 -2 7 3407.72 364.069 26
-1 0 -6 1859.49 574.41 101
1 0 6 2416.03 345.651 21
-1 0 -6 2371.59 504.951 55
1 0 6 2345.8 336.62 11
-1 0 -6 2236.02 555.36 41
1 0 6 2213.28 316.126 15
-1 0 -6 2030.4 454.76 7
1 0 6 1963.11 268.085 76
1 0 6 2264.94 319.301 85
-1 0 -6 2171.24 261.748 10
1 0 6 2582.09 365.053 27
1 0 6 2042.97 276.177 26
-1 0 -6 1236.64 463.251 106
1 2 5 98451.5 2028.61 19
-1 -2 -5 78417.8 3367.17 101
-1 -2 -5 61951.1 2852.33 108
1 2 5 100458 2111.82 11
1 2 5 92065.9 1994.75 27
1 2 5 98017.1 2158.55 113
1 2 5 89948.7 1890.43 26
-1 -2 -5 76586 3115.21 41
1 2 5 97479.7 2102.73 85
1 2 5 97987.2 2115.7 13
1 2 5 100926 2107.77 21
1 4 4 16944.1 779.585 19
1 4 4 16856.5 815.058 13
1 4 4 15102.4 727.724 88
1 4 4 15110.6 713.205 89
-1 -6 -3 -90.7864 128.796 70
1 6 3 677.335 140.783 88
-1 7 -10 7894.48 422.007 8
-1 7 -10 5895.83 336.524 22
1 -7 10 8372.43 512.883 27
-1 7 -10 7979.22 460.317 9
-1 7 -10 7488.18 460.959 30
1 -7 10 7139.69 424.481 21
-1 7 -10 9110.58 475.109 17
1 -5 9 3630.04 429.629 29
-1 5 -9 3333.29 348.924 12
-1 5 -9 3251.31 337.215 9
1 -5 9 3993.5 415.747 11
-1 5 -9 3051.65 393.04 22
-1 5 -9 3405.45 399.743 17
-1 5 -9 3225.75 386.947 30
1 -5 9 4286.8 483.293 91
1 -5 9 3351.53 391.772 21
1 -5 9 3369.87 422.494 27
-1 5 -9 3735.83 339.335 8
-1 5 -9 3531.12 342.671 60
-1 3 -8 8316.57 530.941 8
-1 3 -8 8948.49 594.859 61
-1 3 -8 10025.2 1058.2 55
1 -3 8 9371.01 737.874 11
1 -3 8 7183.35 514.526 26
1 -3 8 9558.47 783.145 91
1 -3 8 8090.93 671.908 29
-1 3 -8 6657.7 626.291 17
-1 3 -8 7806.75 527.726 12
-1 3 -8 8221.12 582.204 64
1 -3 8 8512.99 725.186 27
-1 3 -8 7303.61 1134.66 106
-1 3 -8 8717.44 1104.28 41
-1 3 -8 8377.88 545.262 9
1 -3 8 7434.67 624.807 21
-1 1 -7 28082.3 952.625 12
1 -1 7 23116.2 897.488 76
-1 1 -7 30287.7 2100.75 41
1 -1 7 26090.1 1164.2 11
-1 1 -7 20655.2 1556.25 7
1 -1 7 25395.1 1070.42 85
-1 1 -7 22480.7 1027 61
-1 1 -7 18618.8 1862.98 106
1 -1 7 23053.2 931.419 26
1 -1 7 29845.4 1293.02 27
-1 1 -7 25729.4 1985.02 101
1 -1 7 25081.7 1153.65 21
-1 1 -7 25823.8 1693.49 55
-1 -1 -6 9113.97 1115.15 41
1 1 6 10158.9 626.734 26
-1 -1 -6 7065.93 1000.42 108
1 1 6 11463.3 742.78 21
1 1 6 11180.1 727.495 27
-1 -1 -6 9072.05 1165.41 101
1 1 6 11074 726.107 11
1 1 6 10755.1 704.429 85
1 1 6 10262.3 709.314 113
-1 -1 -6 6919.97 843.566 7
1 3 5 22079.6 1011.37 113
1 3 5 21345 931.644 27
-1 -3 -5 9965.59 1041.55 108
-1 -3 -5 12431.1 1107.29 50
1 3 5 24358.9 983.851 21
1 3 5 20691.7 874.733 19
1 5 4 14995.2 627.849 89
1 5 4 13769.3 618.704 88
1 7 3 4462.78 272.86 88
1 7 3 4786.23 289.352 75
-1 6 -10 10085.7 528.813 17
-1 6 -10 6012.74 414.483 23
-1 6 -10 8565.09 490.506 22
1 -6 10 9245.95 551.272 27
-1 6 -10 7797.97 454.835 12
1 -6 10 7793.41 476.103 21
-1 6 -10 8694.99 481.519 9
-1 6 -10 9471.08 468.372 8
-1 6 -10 7711.09 479.018 30
1 -4 9 22970.8 1132.13 91
-1 4 -9 13594.8 877.942 22
-1 4 -9 17043.1 739.223 9
1 -4 9 19892 959.127 11
-1 4 -9 13510.2 735.228 30
1 -4 9 15741.9 843.858 21
-1 4 -9 16616.6 768.79 64
-1 4 -9 16608 751.021 12
1 -4 9 18235.6 945.886 27
-1 4 -9 18672.5 744.886 8
-1 4 -9 16870.2 877.977 17
-1 4 -9 18028.9 785.152 60
1 -4 9 17590.9 922.878 29
1 -2 8 31131.7 1264.46 21
-1 2 -8 32894 2152.22 41
-1 2 -8 38529.9 2032.8 55
-1 2 -8 27110.1 2006.12 108
1 -2 8 28348.4 981.1 26
1 -2 8 35752.8 1373.21 27
-1 2 -8 35379.7 1175.79 61
-1 2 -8 32697.6 1137.2 64
1 -2 8 30516.4 1096.54 85
-1 2 -8 28310.2 2181.92 106
-1 2 -8 34653.9 1072.04 9
-1 2 -8 33994.7 1047.89 12
1 -2 8 35349.7 1353.86 11
1 0 7 7631.88 591.33 11
-1 0 -7 8227.68 870.735 55
-1 0 -7 5916.91 946.649 108
1 0 7 7006.74 509.048 26
1 0 7 7977.97 619.923 27
1 0 7 7926.19 592.694 85
-1 0 -7 7142.78 1029.89 101
-1 0 -7 7403 1013.48 41
1 0 7 7816 622.625 21
1 2 6 10696.4 553.92 75
-1 -2 -6 6564.53 902.18 108
1 2 6 11959.1 703.762 27
1 2 6 11693.3 708.028 85
1 2 6 13058.6 760.559 113
-1 -2 -6 8164.23 952.902 50
1 2 6 12177.8 710.965 21
1 4 5 11905.1 581.245 89
1 4 5 11185.9 575.926 75
1 6 4 41056.8 891.144 75
1 6 4 33842.3 746.182 88
-1 5 -10 2050.39 217.105 60
-1 5 -10 2330.08 226.77 8
-1 5 -10 2219.87 235.809 17
1 -5 10 2264.78 245.104 11
1 -5 10 2366.89 274.642 27
-1 5 -10 1609.98 202.648 30
-1 5 -10 2226.72 232.752 9
-1 5 -10 1871.72 255.947 22
1 -5 10 2189 256.793 21
1 -3 9 11168.5 700.435 27
1 -3 9 10068.4 653.342 21
1 -3 9 11654.8 711.955 11
-1 3 -9 9933.12 599.198 17
-1 3 -9 10268.6 581.543 64
-1 3 -9 11503.2 562.24 8
-1 3 -9 10900.4 565.564 9
-1 1 -8 3167.24 342.057 61
1 -1 8 3413.33 384.579 27
1 -1 8 3181.37 369.233 11
-1 1 -8 3806.62 567.353 55
1 -1 8 3095.39 377.834 21
1 -1 8 3220.56 354.386 85
1 -1 8 3130.93 314.656 26
-1 1 -8 2620.27 587.417 108
-1 1 -8 3146.14 337.857 64
-1 1 -8 3302.54 312.16 9
1 1 7 6216.77 496.444 113
1 1 7 5868.62 486.445 85
1 1 7 5826.68 487.428 21
-1 -1 -7 4070.35 671.708 50
1 1 7 6288.19 500.228 27
-1 -1 -7 3545.73 673.184 108
1 3 6 13117.7 690.646 113
1 3 6 13468.7 621.06 21
1 5 5 10322.6 448.077 75
1 5 5 10578.6 418.102 89
1 -4 10 10352.8 548.294 21
-1 4 -10 12142.8 490.81 8
1 -4 10 12311.9 584.321 11
-1 4 -10 9029.51 543.636 22
-1 4 -10 10127.5 461.968 9
-1 4 -10 11230.4 505.628 60
1 -4 10 12025.8 585.128 27
-1 2 -9 11448.6 529.174 8
1 -2 9 12348.6 667.776 11
-1 2 -9 11198.9 520.64 9
1 -2 9 11334.4 631.561 27
-1 2 -9 11409.5 575.026 64
1 -2 9 10841.5 636.439 21
-1 0 -8 1882.54 244.286 61
1 0 8 1991.24 261.116 27
1 0 8 2146.04 269.722 11
1 0 8 1897.05 261.785 21
1 0 8 1964.24 256.922 113
-1 0 -8 1943.5 217.248 9
1 2 7 1704.07 215.224 21
1 2 7 1905.72 244.946 113
1 2 7 1941.61 243.971 27
1 4 6 1926.75 182.837 89
1 4 6 1607.12 165.202 75
1 -3 10 535.512 111.724 27
-1 3 -10 493.991 91.3796 8
-1 3 -10 282.361 93.272 23
1 -3 10 571.968 118.066 11
1 -3 10 373.724 85.2956 113
-1 3 -10 476.964 98.5377 60
1 -3 10 566.087 117.478 21
-1 3 -10 372.18 103.185 22
-1 1 -9 4960.2 339.544 64
-1 1 -9 5576.4 333.563 8
1 -1 9 5212.69 384.187 21
-1 1 -9 2709.96 278.843 23
-1 1 -9 2986.54 298.541 22
1 -1 9 5590.48 384.318 27
1 -1 9 5322.8 361.469 113
1 1 8 8648.06 464.791 27
1 1 8 7630.39 417.06 21
1 1 8 8428.06 453.923 113
1 3 7 2285.83 188.983 89
1 -2 10 -16.093 25.6607 21
1 -2 10 8.97759 13.338 27
1 0 9 6876.18 340.228 113
1 0 9 7132.84 355.849 27
1 2 8 2506.53 173.898 89
-2 1 10 8600.69 374.918 85
-2 4 8 3779.84 217.737 89
-2 2 9 1962.84 179.394 89
-2 2 9 2099.86 228.449 85
-2 0 10 4254.79 304.957 27
-2 0 10 3268.97 223.175 89
-2 0 10 3818.12 299.002 26
-2 0 10 3682.49 294.024 85
-2 -2 11 14581 510.267 26
-2 -2 11 16835.3 541.874 27
-2 5 7 9357.71 382.592 89
-2 3 8 17069.9 610.149 89
-2 3 8 17078.4 720.539 85
-2 1 9 6947.4 472.794 26
-2 1 9 7581.92 473.842 27
-2 1 9 6450.24 462.905 85
-2 -1 10 44753.6 1096.99 85
2 1 -10 45907.6 1075.47 60
-2 -1 10 43356.7 1106.59 76
2 1 -10 30287.1 1089.31 17
-2 -1 10 57727.9 1290.46 27
-2 -1 10 41477.7 1023.83 21
-2 -1 10 47429.6 1181.5 26
2 3 -11 2451.07 222.162 60
2 3 -11 2971.26 263.072 58
2 3 -11 2866.13 277.032 68
2 3 -11 2142.31 254.473 17
-2 -3 11 3125.23 256.791 27
-2 -3 11 2375.01 222.341 26
-2 -3 11 2271.74 227.914 21
-2 -3 11 1520.42 162.093 76
-2 6 6 274.496 74.3532 19
-2 4 7 19932.7 723.148 89
-2 4 7 17316.7 743.16 13
-2 4 7 19287.2 764.506 19
-2 4 7 17368.3 728.005 75
-2 4 7 18594.5 763.272 85
-2 2 8 7335 517.081 27
-2 2 8 7820.43 469.311 113
-2 2 8 5995.96 447.365 13
-2 2 8 5533.59 474.177 85
-2 2 8 6992.82 525.491 26
2 0 -9 9899.07 972.22 55
-2 0 9 14244.9 733.84 26
2 0 -9 13308.3 640.601 60
-2 0 9 12659.9 630.466 21
-2 0 9 13020 695.739 85
-2 0 9 15966.5 768.277 27
-2 0 9 12967.5 706.169 76
2 2 -10 6619.22 767.23 55
-2 -2 10 7698.07 510.603 26
-2 -2 10 7180.31 448.085 85
-2 -2 10 9295.99 571.806 27
-2 -2 10 8045.7 549.785 29
2 2 -10 7734.44 469.796 60
2 2 -10 5157.52 516.969 17
2 2 -10 7709.61 402.61 8
-2 -2 10 7302.73 506.282 21
-2 -2 10 6620.67 451.149 76
2 4 -11 5459.67 387.228 68
-2 -4 11 6116.96 374.809 27
-2 -4 11 4848.48 337.99 26
-2 -4 11 4736.47 358.05 21
-2 -4 11 5389.65 395.376 29
2 4 -11 4847.94 395.859 17
-2 -4 11 2845.19 221.108 76
2 4 -11 2655.06 287.707 22
-2 7 5 6079.77 335.752 75
-2 7 5 5421.77 299.778 19
-2 5 6 7602.91 464.573 88
-2 5 6 9672.81 568.71 75
-2 5 6 8417.74 537.325 13
-2 5 6 9904.85 535.829 89
-2 5 6 8759.79 538.032 19
-2 3 7 9471.7 656.167 26
-2 3 7 10295 665.698 27
-2 3 7 8076.69 542.321 75
-2 3 7 8736.48 534.644 89
-2 3 7 8933.96 585.896 19
-2 3 7 7749.1 556.428 13
-2 3 7 7713.77 576.307 85
2 -1 -8 6393.26 1034.26 46
2 -1 -8 4819.62 982.001 106
-2 1 8 7762.66 578.38 85
-2 1 8 10597.3 593.769 113
-2 1 8 9620.81 657.923 26
-2 1 8 9854.83 652.155 27
-2 1 8 8575.62 622.249 76
-2 1 8 8881.48 578.44 13
2 1 -9 14572.2 605.8 8
2 1 -9 14555.7 707.315 60
2 1 -9 12022.6 1154.88 55
2 1 -9 11250.4 1457.23 46
2 1 -9 9722.46 1427.4 106
-2 -1 9 17161.1 876.756 27
-2 -1 9 15303.6 826.663 29
-2 -1 9 11658.8 660.087 85
-2 -1 9 12346.5 705.729 76
-2 -1 9 14692 801.577 26
-2 -1 9 13279.9 750.939 21
2 3 -10 353.005 178.038 55
-2 -3 10 221.033 105.547 21
-2 -3 10 191.761 83.5845 26
2 3 -10 216.076 78.9507 60
-2 -3 10 295.48 113.821 29
2 3 -10 194.03 64.1862 8
-2 -3 10 127.111 59.7575 76
2 3 -10 181.471 124.093 17
-2 -3 10 344.856 124.228 27
-2 -5 11 5951.47 378.546 26
-2 -5 11 6798.24 387.938 27
2 5 -11 6608.32 455.608 17
-2 -5 11 5947.81 405.188 21
-2 -5 11 6657.36 442.534 29
2 5 -11 6551.16 410.988 68
-2 6 5 2481.7 244.167 74
-2 6 5 2795.87 303.667 88
-2 6 5 3575.86 325.898 89
-2 6 5 3330.46 334.367 75
-2 6 5 2878.93 310.567 13
-2 6 5 2898.97 312.654 19
-2 4 6 4195.45 383.027 89
-2 4 6 3913.44 404.293 19
-2 4 6 3863.6 400.282 75
-2 4 6 3935.15 438.462 86
-2 4 6 3491.79 386.356 13
-2 4 6 3726.06 394.311 85
-2 4 6 3694.03 341.085 74
-2 4 6 3673.79 359.642 88
2 -2 -7 14926 1559.86 46
-2 2 7 24215.1 944.478 113
-2 2 7 22746.6 1027.76 27
-2 2 7 17463.2 793.738 75
2 -2 -7 11706.4 1512.86 106
-2 2 7 19082 971.439 76
2 -2 -7 11110.2 1518.25 102
-2 2 7 16988.9 863.122 86
-2 2 7 17708.5 863.784 13
-2 2 7 16339.5 857.214 85
-2 2 7 20202.5 972.377 26
-2 2 7 19517.9 900.97 19
2 0 -8 2545.87 707.169 46
-2 0 8 3629.18 418.322 26
2 0 -8 2279.38 726.607 106
-2 0 8 3254.1 343.799 13
2 0 -8 2013.5 696.812 102
-2 0 8 3570.32 410.215 27
2 0 -8 3381.99 303.486 8
-2 0 8 3860.79 448.63 11
-2 0 8 3440.61 395.247 29
-2 0 8 3885.87 376.612 113
-2 0 8 3119.67 340.084 86
-2 0 8 2911.26 365.912 76
-2 0 8 3071.79 371.237 21
2 2 -9 3756.5 323.25 8
2 2 -9 3569.46 363.71 60
2 2 -9 2519.66 720.248 46
2 2 -9 2011.82 684.481 106
2 2 -9 2649.08 423.347 16
-2 -2 9 4050.82 456.005 29
2 2 -9 2933.24 591.319 55
-2 -2 9 4277.69 465.86 27
-2 -2 9 3665.86 416.942 26
-2 -2 9 4552.62 463.901 11
2 4 -10 20039.3 1325.89 55
-2 -4 10 20466.2 969.741 29
2 4 -10 18403.3 696.047 8
2 4 -10 18817.2 923.023 16
-2 -4 10 18937.9 888.48 26
-2 -4 10 19293 900.603 110
2 4 -10 16399.2 967.556 17
2 4 -10 19437.8 803.477 60
-2 -4 10 16704 777.261 77
2 6 -11 889.497 152.17 17
-2 -6 11 494.836 103.429 26
-2 -6 11 747.239 139.827 29
-2 -6 11 609.901 121.906 21
-2 7 4 2709.04 298.538 88
-2 7 4 2822.6 284.249 13
-2 7 4 2701.82 288.621 75
-2 7 4 2854.13 296.715 19
-2 7 4 2672.53 249.04 74
-2 5 5 122176 2275.53 75
-2 5 5 112217 2158.28 88
-2 5 5 115667 2043.6 85
-2 5 5 122141 2119.43 89
-2 5 5 116259 2329.52 86
-2 5 5 109893 2180.95 13
-2 5 5 107980 1931.13 74
-2 5 5 114409 2196.77 19
-2 3 6 8312.27 567.039 113
-2 3 6 6454.01 529.972 19
-2 3 6 5926.6 449.629 88
-2 3 6 6572.48 543.624 13
-2 3 6 6274.34 467.759 74
2 -3 -6 4336.42 802.424 46
2 -3 -6 4780.1 889.264 33
-2 3 6 5762.76 718.553 99
-2 3 6 7026.29 572.164 86
2 -3 -6 5059.58 908.856 106
-2 3 6 8144.41 621.824 27
-2 3 6 7416.93 606.496 76
-2 3 6 5664.91 497.273 85
2 -3 -6 4049.34 867.334 102
2 -3 -6 4345.99 967.318 97
-2 3 6 6890.95 517.518 75
-2 3 6 7562.95 604.981 26
-2 1 7 4899.51 481.29 76
2 -1 -7 2526.15 757.584 106
2 -1 -7 3835.76 802.848 46
-2 1 7 4566.54 432.765 13
-2 1 7 4705.15 397.201 75
-2 1 7 5766.99 532.145 27
-2 1 7 5205.87 473.307 21
-2 1 7 5838.08 472.441 113
2 -1 -7 3796.53 910.411 97
-2 1 7 4238.99 420.083 86
-2 1 7 5401.07 507.228 26
2 -1 -7 3683.84 902.235 102
-2 1 7 3850.08 550.056 99
2 -1 -7 3642.61 814.688 33
2 -1 -7 2728.66 549.761 7
-2 1 7 5279.74 471.722 19
-2 -1 8 3708.14 407.953 78
-2 -1 8 4885.84 506.018 29
2 1 -8 2900.78 748.205 46
2 1 -8 3896.97 331.443 8
-2 -1 8 3955.24 451.272 26
-2 -1 8 4717.28 496.246 27
2 1 -8 3145.19 847.645 106
2 1 -8 2604.14 506.012 37
-2 -1 8 4881.36 511.756 11
2 3 -9 13886.6 737.825 60
2 3 -9 14013.8 656.855 8
2 3 -9 12927.3 1251.13 55
-2 -3 9 15918.6 934.89 27
-2 -3 9 15197.3 801.361 11
-2 -3 9 13593.7 825.48 110
-2 -3 9 12070.9 756.287 77
2 3 -9 12646.2 1689.05 106
2 3 -9 11765.3 937.89 16
-2 -3 9 13675.6 852.483 26
-2 -3 9 13908.6 873.814 29
-2 -5 10 5222.98 484.042 29
2 5 -10 4785.16 383.991 58
2 5 -10 5280.82 402.782 8
-2 -5 10 4707.26 453.129 110
2 5 -10 4719.1 493.793 17
-2 -5 10 5574.99 486.521 27
2 5 -10 5133.87 496.986 16
-2 -5 10 4768.69 448.392 26
2 5 -10 5174.79 449.066 68
-2 -5 10 4274.92 379.324 77
2 7 -11 5935.58 349.225 30
-2 -7 11 6319.27 360.275 21
-2 8 3 1218.65 177.14 19
-2 8 3 1204.33 190.775 88
-2 8 3 1377.75 187.148 75
-2 8 3 1111.36 151.541 74
-2 6 4 12151.4 713.84 75
-2 6 4 10057.3 649.704 19
-2 6 4 11526.8 713.588 88
-2 6 4 11845.7 645.847 89
-2 6 4 10426.9 657.304 13
-2 6 4 10259 585.245 74
-2 4 5 2670.69 332.157 88
2 -4 -5 1367.59 507.601 97
2 -4 -5 2229.27 542.491 33
-2 4 5 3177.89 384.204 27
-2 4 5 2580.61 339.829 19
-2 4 5 2394.99 290.469 89
-2 4 5 2227.67 448.084 99
-2 4 5 3202.62 524.784 36
-2 4 5 2707.2 333.321 75
-2 4 5 2876.63 369.673 26
-2 4 5 2713.32 360.446 86
-2 4 5 2479.81 348.204 28
-2 4 5 2551.35 323.032 85
-2 4 5 2907.01 360.011 13
-2 4 5 2578.76 301.673 74
-2 2 6 10148 643.28 19
-2 2 6 8296.37 810.175 99
2 -2 -6 8068.34 1300.73 51
2 -2 -6 8910.26 1273.7 102
-2 2 6 10858 712.808 27
2 -2 -6 8165.43 1278.17 97
-2 2 6 11465 647.028 113
-2 2 6 8467.2 615.168 28
-2 2 6 9789.81 663.288 26
2 -2 -6 7805.01 1092.08 33
-2 2 6 8871.37 606.003 13
-2 2 6 8696.04 559.422 74
-2 2 6 8914.61 556.342 75
-2 2 6 9634.97 663.844 76
-2 2 6 8670.67 604.046 86
-2 0 7 2311.91 316.161 78
2 0 -7 2042.27 440.125 6
2 0 -7 1889.4 634.628 51
2 0 -7 1537.6 363.134 37
-2 0 7 2738.97 366.287 26
2 0 -7 1749.04 648.079 102
-2 0 7 3012.99 336.76 19
2 0 -7 2289.34 643.324 46
2 0 -7 1873.94 684.786 97
-2 0 7 2497.74 416.843 99
-2 0 7 2619.35 314.418 86
-2 0 7 3080.81 401.157 27
-2 0 7 2419.09 303.273 13
2 0 -7 2394.65 657.721 33
-2 0 7 2892.14 344.969 81
-2 0 7 2856.17 368.206 29
2 0 -7 2186.11 701.734 106
-2 0 7 2847.19 378.543 11
-2 0 7 2487.5 337.112 21
2 2 -8 11303.4 613.022 64
2 2 -8 11178.5 1165.75 6
2 2 -8 11322.7 576.981 8
2 2 -8 10939.9 654.298 60
2 2 -8 5946.99 711.105 16
2 2 -8 10114.1 1415.96 46
-2 -2 8 11937 764.231 11
2 2 -8 8032.38 1376.76 106
-2 -2 8 9167.81 619.27 78
-2 -2 8 10866.9 764.783 26
-2 -2 8 11250.8 747.84 110
-2 -2 8 10154.2 716.089 77
-2 -2 8 13052.3 868.816 27
2 4 -9 2114.58 292.414 60
2 4 -9 2127.81 274.983 9
-2 -4 9 2271.38 286.069 11
2 4 -9 1702.43 585.117 106
2 4 -9 1579.15 345.159 17
2 4 -9 1746.71 366.89 16
-2 -4 9 2239.41 319.852 77
-2 -4 9 2004.87 333.998 26
-2 -4 9 2434.28 375.047 27
-2 -4 9 2191.6 338.8 110
2 4 -9 2339.99 349.982 80
2 4 -9 2389.7 282.972 8
2 4 -9 2011.25 460.983 55
2 6 -10 4719.53 444.821 16
-2 -6 10 4958.86 437.642 27
2 6 -10 4550.99 436.985 17
-2 -6 10 4089.83 403.656 26
-2 -6 10 3715.69 333.369 77
-2 -6 10 3862.19 391.576 110
2 6 -10 4979.9 415.967 80
2 6 -10 4442.59 375.242 8
-2 -6 10 4319.75 428.811 29
2 6 -10 3576.71 341.675 9
2 6 -10 4199.92 371.838 68
-2 9 2 3930.25 315.521 88
-2 9 2 2831.55 212.271 74
-2 7 3 23047.7 990.334 88
-2 7 3 21268.4 925.718 19
-2 7 3 21493 883.924 13
-2 7 3 24058.3 959.492 75
-2 5 4 600.792 178.047 28
-2 5 4 549.67 146.609 75
-2 5 4 552.211 137.848 89
2 -5 -4 -167.358 128.384 103
-2 5 4 510.265 159.831 13
-2 5 4 471.406 211.55 36
-2 5 4 622.482 168.487 88
-2 5 4 601.392 164.762 19
-2 5 4 727.555 188.304 86
-2 5 4 484.384 125.068 85
2 -5 -4 352.194 212.939 38
-2 5 4 647.557 255.029 99
-2 3 5 33123.7 1168.62 86
2 -3 -5 37920.4 2640.92 104
-2 3 5 32467.9 1144.82 13
-2 3 5 32996.1 1075.75 75
2 -3 -5 31729 2080.01 33
-2 3 5 40236.3 1305.04 27
-2 3 5 40745.5 1750.38 36
-2 3 5 41678.2 1202.02 113
2 -3 -5 32518.3 2264.4 40
-2 3 5 36631.3 1240.91 26
2 -3 -5 32484.7 2365.06 97
-2 3 5 33065.4 1609.06 99
-2 3 5 31043.1 1009.76 88
-2 3 5 33315.7 1194.26 28
-2 3 5 33658.6 1142.84 19
-2 3 5 37435 1267.46 76
-2 3 5 31700.1 1028.69 74
-2 1 6 49971.7 1296.78 74
-2 1 6 49713.5 1414.31 21
-2 1 6 53685.3 1531.95 11
2 -1 -6 49616.6 2694.39 33
-2 1 6 51927 1453.35 76
2 -1 -6 44208.5 2782.74 45
-2 1 6 56932.5 1472.93 19
-2 1 6 56385.2 1569.02 26
-2 1 6 44527.4 1260.31 86
-2 1 6 62024.4 1697.45 27
2 -1 -6 50832.7 3004.23 102
-2 1 6 48477.8 1405.38 78
2 -1 -6 52159.1 3092.55 97
-2 1 6 43999.7 1698.28 99
-2 1 6 52652.9 1349.02 81
2 -1 -6 34972.7 2475.67 107
2 -1 -6 45911.8 1976.8 6
-2 1 6 48184.4 1216.25 75
-2 1 6 50008.1 1363.63 13
-2 1 6 50643.9 1403.55 28
2 -1 -6 47057.5 3127.65 51
2 1 -7 10859.4 570.673 64
2 1 -7 9183.29 993.627 6
2 1 -7 9557.3 1298.63 46
2 1 -7 10306.4 1478.29 106
-2 -1 7 10550.7 723.423 26
2 1 -7 8137.16 1343.94 102
-2 -1 7 10638.2 703.963 11
2 1 -7 8671.7 1183.89 107
-2 -1 7 11208.4 692.942 81
2 1 -7 8169.75 1321.17 97
-2 -1 7 8495.99 583.362 78
2 1 -7 10108.3 521.891 8
-2 -1 7 12478 795.514 27
-2 -1 7 10523.7 688.682 110
-2 -1 7 10124.6 699.306 77
2 1 -7 8477.18 1204.86 33
2 3 -8 42963 1156.08 8
2 3 -8 42399.9 1205.15 9
2 3 -8 35530.7 1999.63 55
2 3 -8 34730.2 2608.15 46
-2 -3 8 36238.5 1183.39 78
-2 -3 8 48403.3 1738.52 27
-2 -3 8 36520 1402.92 26
2 3 -8 29526.4 1589.15 16
2 3 -8 29153.4 2538.27 106
-2 -3 8 34653.5 1157.72 96
-2 -3 8 43868.7 1361.45 11
-2 -3 8 40546.7 1454.4 110
2 3 -8 37889.4 1547.2 80
-2 -3 8 37264 1343.65 77
2 3 -8 40892.5 1282.87 60
2 3 -8 43292.1 2352.44 6
-2 -5 9 8576.05 670.668 110
2 5 -9 8616.7 565.683 58
2 5 -9 9222.99 572.367 8
2 5 -9 7994.33 582.166 12
2 5 -9 6787.06 655.614 18
2 5 -9 9330.57 664.126 68
2 5 -9 7655.58 549.654 60
2 5 -9 8907.56 589.589 25
2 5 -9 6597.88 1019.83 106
-2 -5 9 9906.55 775.564 27
2 5 -9 8914.74 858.975 55
2 5 -9 8977.1 780.217 16
2 5 -9 9616.1 724.746 80
2 5 -9 8149.87 587.488 9
2 5 -9 7068.16 678.753 17
-2 -5 9 8105.55 593.487 77
-2 -5 9 8156.62 680.006 26
-2 -7 10 5645.43 394.957 27
2 7 -10 6560.43 428.667 17
-2 -7 10 7025.28 499.181 29
2 7 -10 5472.29 354.715 25
-2 -7 10 5888.99 448.97 26
-2 -7 10 4925.26 345.169 77
-2 -7 10 6058.45 460.908 110
2 7 -10 6689.48 464.186 16
2 7 -10 6040.35 422.469 8
2 7 -10 5594.57 423.037 9
-2 8 2 756.546 178.954 88
-2 8 2 699.378 156.786 19
-2 8 2 876.104 164.126 75
2 -6 -3 2286.25 482.68 103
-2 6 3 6265.28 519.732 86
-2 6 3 5706.19 491.242 13
2 -6 -3 3158.26 661.384 38
-2 6 3 6235.14 732.799 36
-2 6 3 5830.54 516.372 88
-2 6 3 5785.01 517.804 28
-2 6 3 5773.49 448.845 89
-2 6 3 5718 504.509 19
-2 4 4 11072.4 671.922 86
2 -4 -4 7080.26 845.443 38
-2 4 4 10597.7 673.674 28
-2 4 4 12312.2 938.426 36
2 -4 -4 5673.44 672.029 103
2 -4 -4 6518.47 632.569 39
-2 4 4 10016.4 880.389 99
-2 4 4 12288.1 695.684 27
-2 4 4 11703.3 680.593 26
-2 4 4 10085.4 604.57 88
-2 4 4 10579.8 639.088 19
2 -4 -4 6381.9 650.914 100
-2 4 4 10252.1 637.492 13
-2 4 4 10569.4 606.555 85
-2 2 5 56934 1402.66 19
-2 2 5 67774 2111.83 36
2 -2 -5 52997.9 2747.68 40
2 -2 -5 61213 2724.63 33
-2 2 5 55639.2 1398.97 86
2 -2 -5 60992.4 3212.39 104
-2 2 5 52516.9 1825.35 99
-2 2 5 52401.9 1229.55 75
-2 2 5 61663.1 1384.63 113
2 -2 -5 68335.2 3225.5 97
-2 2 5 50388.6 1217.03 81
-2 2 5 52316.7 1401.32 28
-2 2 5 64871.8 1613.44 27
-2 2 5 56024.5 1306.67 74
-2 2 5 59135.7 1470.4 76
-2 2 5 56692.9 1455.01 78
-2 2 5 56129.3 1401.19 13
-2 2 5 48896.5 1161.86 88
-2 2 5 61180.2 1524.95 26
2 -2 -5 51967.8 1907.95 6
2 0 -6 13278.3 1087.28 6
-2 0 6 14442.2 693.552 19
2 0 -6 11719.1 1394.63 45
2 0 -6 11042.9 1489.2 51
-2 0 6 12013 634.411 28
2 0 -6 14084.2 1396.63 33
2 0 -6 13670 1534.46 102
2 0 -6 17101.5 1788.11 107
-2 0 6 15164.7 815.53 26
-2 0 6 11394.5 591.647 86
-2 0 6 14685.5 720.564 81
-2 0 6 13187.8 659.318 13
-2 0 6 10940.2 775.313 99
-2 0 6 14073.2 752.021 11
2 0 -6 15730.2 1659.59 97
-2 0 6 17598.4 916.453 27
-2 0 6 12770.9 688.896 78
-2 0 6 15604.7 819.542 77
-2 0 6 12405.2 588.933 75
2 2 -7 67176 2028.45 80
2 2 -7 82596.3 4054.21 106
2 2 -7 99007.8 1640.99 8
-2 -2 7 80165.8 1767.96 96
-2 -2 7 88126 1988.18 77
2 2 -7 91834.9 3896.88 46
2 2 -7 72002.9 3393.71 107
-2 -2 7 96202.6 2011.07 11
-2 -2 7 94056 2083.77 110
2 2 -7 69591.4 3834.43 102
-2 -2 7 137617 2679.98 91
-2 -2 7 111954 2471.98 27
-2 -2 7 93698.3 2204.71 26
-2 -2 7 80027.4 1729.31 78
2 2 -7 89526.3 1586.69 9
2 2 -7 93185.1 3249.98 6
2 2 -7 97138.7 1741.45 64
2 4 -8 65880.6 1649.2 60
2 4 -8 62111.2 1599.5 12
2 4 -8 65673.7 2526.01 55
2 4 -8 49311.4 1829.55 18
2 4 -8 70188.3 3007.73 6
-2 -4 8 67025.8 2006.87 26
2 4 -8 57493.2 2184.07 16
-2 -4 8 64616.4 2422.6 48
-2 -4 8 64811.9 1878.26 110
2 4 -8 70449.4 1565.33 8
-2 -4 8 80331.7 2355.27 27
2 4 -8 64949 1735.24 25
2 4 -8 70475.9 3070.3 107
2 4 -8 66903.7 2083.8 80
2 4 -8 51255.4 3130.78 106
2 4 -8 63976.6 1600.5 9
2 6 -9 6513.45 578.002 17
2 6 -9 6554.25 556.341 12
-2 -6 9 7492.8 645.873 26
2 6 -9 6929.93 508.006 8
2 6 -9 7427.81 559.032 25
-2 -6 9 7073.46 595.213 110
2 6 -9 7672.48 677.579 16
-2 -6 9 8305.53 692.833 27
2 6 -9 5790.26 628.942 18
2 6 -9 7025.12 567.957 9
-2 -6 9 7611.13 632.504 111
2 6 -9 8585.57 677.309 80
2 6 -9 6995.81 528.818 68
-2 -6 9 5927.03 490.216 77
2 8 -10 4705.27 332.733 16
-2 -8 10 4281.68 341.562 110
-2 -8 10 3867.51 295.359 29
-2 -8 10 4291.95 330.664 26
2 8 -10 3492.46 256.617 25
-2 9 1 2502.32 257.469 19
-2 9 1 2760.78 302.137 88
2 -7 -2 13381.7 1213.93 103
2 -7 -2 14511.2 833.444 54
-2 7 2 30623.4 1185.19 88
-2 7 2 28178.1 1046.66 13
-2 7 2 29293.1 1127.03 19
-2 5 3 21278.3 812.063 89
-2 5 3 20543.5 896.393 13
-2 5 3 20273.4 894.942 19
2 -5 -3 14236.5 1278.43 38
-2 5 3 26143.3 1392.88 36
2 -5 -3 11767.2 1014.26 103
-2 5 3 23813.4 983.731 86
-2 5 3 22045.4 939.183 88
-2 5 3 22080.3 1290.26 99
2 -5 -3 13392 900.502 44
-2 5 3 20607.4 935.103 28
-2 3 4 7977.15 508.333 19
2 -3 -4 8790.32 721.901 6
2 -3 -4 6358.17 693.644 38
-2 3 4 9239.38 735.024 36
-2 3 4 8267.28 530.869 26
-2 3 4 7892.22 512.261 13
-2 3 4 8106.6 714.436 99
-2 3 4 9094.11 557.304 78
-2 3 4 7266.3 455.138 88
-2 3 4 9585.35 517.262 113
-2 3 4 8050.74 539.861 28
-2 3 4 9160.6 553.077 27
-2 3 4 8506.2 538.79 76
-2 3 4 8738.65 550.334 86
-2 1 5 24896.4 962.474 27
-2 1 5 23222.3 843.939 19
2 -1 -5 18275.3 1523.11 40
2 -1 -5 26772.1 1912.39 97
2 -1 -5 24486.8 1630.1 33
-2 1 5 19405.6 1004.47 99
-2 1 5 21964.1 851.064 78
2 -1 -5 19986.3 1763.25 104
2 -1 -5 19547.1 1754.71 107
-2 1 5 24870.8 957.359 26
-2 1 5 25469.5 977.275 77
-2 1 5 21131.7 769.036 74
2 -1 -5 20372.1 1203.38 6
-2 1 5 21352.7 862.695 11
-2 -1 6 49381.2 1335.9 96
-2 -1 6 47955.6 1150.14 19
-2 -1 6 42328 1385.78 99
-2 -1 6 51914.4 1387.03 11
-2 -1 6 50128 1301.09 78
-2 -1 6 61907.1 1764.35 27
2 1 -6 48560.9 2500.54 33
-2 -1 6 55304 1544.53 26
2 1 -6 52763.7 2934.06 102
-2 -1 6 54322.3 1386.7 81
2 1 -6 49546.4 1140.97 64
2 1 -6 35789.1 2341.29 107
2 1 -6 47675 2814.68 97
-2 -1 6 54403.2 1469.67 77
2 1 -6 46241.4 3003.58 51
2 1 -6 49709.6 2136.51 6
2 3 -7 13295.3 690.394 60
2 3 -7 13022.3 603.254 8
2 3 -7 12531.5 659.019 12
-2 -3 7 12025.5 793.717 26
-2 -3 7 11395.4 929.095 48
2 3 -7 12618.4 1408.78 46
2 3 -7 7440.15 784.956 16
-2 -3 7 13490.4 699.814 11
2 3 -7 11500.5 1294.74 107
-2 -3 7 10986.3 637.415 96
2 3 -7 10528.4 1410.46 106
-2 -3 7 11326.4 630.142 78
-2 -3 7 16411.3 1038.57 27
2 3 -7 13252.2 673.188 9
2 3 -7 12516.8 755.362 25
2 3 -7 12455.3 1195.33 6
2 3 -7 10584.4 830.16 80
2 5 -8 35381.6 1709.76 55
2 5 -8 38445 1400.12 25
2 5 -8 30337.8 1501.57 18
2 5 -8 38215.4 2221.64 107
-2 -5 8 41787.6 1581.88 111
2 5 -8 38473.1 1206.44 58
2 5 -8 37309.7 1299.87 9
2 5 -8 37599.8 1194.55 8
2 5 -8 29222.7 1395.05 17
2 5 -8 29579.8 2100.9 106
2 5 -8 36449 1329.4 12
-2 -5 8 36267.2 1550.64 26
2 5 -8 41782.8 2276.04 6
-2 -5 8 43128.4 1806.57 27
2 5 -8 34683.3 1611.65 16
2 5 -8 34813.8 1185.19 60
2 5 -8 39450.6 1594.33 80
-2 -5 8 35401.7 1897.62 48
2 5 -8 40774.7 1389.84 68
2 7 -9 9651.04 611.208 8
2 7 -9 9007.99 640.444 12
-2 -7 9 9471.6 690.907 26
2 7 -9 10056.5 631.839 25
2 7 -9 9412.38 648.225 9
2 7 -9 11847.4 752.369 80
2 7 -9 10286.2 604.89 17
2 7 -9 10251 692.069 16
-2 -7 9 9803 671.241 27
-2 -7 9 9759.35 665.126 110
2 7 -9 7915.62 732.733 18
-2 -7 9 10149.8 695.285 111
2 -10 0 2340.89 341.856 79
-2 10 0 14692.5 569.877 88
2 -8 -1 4894.28 785.413 57
-2 8 1 5548.79 472.332 19
-2 8 1 6452.56 463.561 75
-2 8 1 5486.77 509.615 14
-2 8 1 6020.8 506.668 88
-2 6 2 11480.5 697.412 19
2 -6 -2 6747.43 668.52 44
2 -6 -2 8184.5 1009.04 38
-2 6 2 12449.8 990.42 36
-2 6 2 12729.6 699.688 86
-2 6 2 11294.1 596.054 89
-2 6 2 11922.7 717.151 88
-2 6 2 10773.4 659.917 28
-2 6 2 10534.1 879.412 99
2 -6 -2 6736.28 809.138 103
-2 6 2 10691.6 642.57 13
2 -4 -3 33934.8 1530.46 103
-2 4 3 47638.7 1099.85 89
2 -4 -3 38788.9 1322.5 39
-2 4 3 56737 1819.87 36
-2 4 3 51710.5 1778.98 99
-2 4 3 49544.5 1240.02 88
-2 4 3 52407.8 1309.89 13
-2 4 3 56449.3 1383.36 86
2 -4 -3 40211 1406.42 100
-2 4 3 49567.9 1341.84 28
-2 4 3 50469.9 1285.85 19
-2 4 3 55895 1341.4 27
-2 4 3 56977.9 1337.65 26
-2 2 4 2126.1 245.018 11
2 -2 -4 1567.86 291.762 38
-2 2 4 2093.17 318.67 36
-2 2 4 1507.65 274.97 99
2 -2 -4 1777.88 315.469 6
2 0 -5 48134.7 2661.22 107
-2 0 5 60622.3 1610.89 99
2 0 -5 65308.7 2161.21 6
2 0 -5 80820.5 2828.24 33
2 0 -5 78480.9 3151 102
2 0 -5 89491.3 3332.28 97
2 0 -5 68770.6 3335.22 51
2 0 -5 62702.1 2990.15 45
-2 0 5 69350 1462.12 11
2 0 -5 42124.4 2511.59 104
-2 -2 6 39256.1 1534.83 48
2 2 -6 43178.8 1075.21 64
-2 -2 6 40967.1 1635.1 47
-2 -2 6 45045.6 1417.25 26
2 2 -6 42439.3 2352.32 46
2 2 -6 44522.6 1004.98 8
2 2 -6 32773.4 2238.44 107
2 2 -6 33381.4 1994.02 33
2 2 -6 41098.1 2512.53 106
2 2 -6 39758.5 2489.52 102
2 2 -6 34789.7 2249.14 97
-2 -2 6 43315.5 1229.35 81
-2 -2 6 41974.8 1197 11
2 2 -6 42453.5 1979.17 6
2 2 -6 42170.3 1021.49 9
2 4 -7 20970.8 818.378 8
-2 -4 7 18642.2 867.261 73
2 4 -7 19188.4 1276.53 55
-2 -4 7 17407.6 1235.74 48
-2 -4 7 19940.1 1120.1 26
2 4 -7 19445.7 1734.02 46
2 4 -7 14889.1 987.798 18
-2 -4 7 19768.8 1247.54 47
-2 -4 7 20678.6 1058.86 111
2 4 -7 20070.1 863.786 60
2 4 -7 19759.6 987.448 25
-2 -4 7 24488 1383.16 27
2 4 -7 17536.8 1172.5 16
2 4 -7 18732.5 1109.61 80
-2 -4 7 17805.2 792.392 96
2 4 -7 20215.9 1716.09 107
2 4 -7 19742.3 913.892 12
2 4 -7 16020.6 1627.54 106
2 4 -7 20450.8 888.673 9
2 4 -7 20632.5 1556.4 6
2 6 -8 730.867 273.1 107
-2 -6 8 746.177 286.484 48
2 6 -8 466.309 159.889 12
-2 -6 8 551.352 222.742 47
2 6 -8 389.329 180.872 18
-2 -6 8 466.722 189.733 26
2 6 -8 441.005 159.332 9
-2 -6 8 723.639 220.273 111
2 6 -8 443.527 181.446 16
-2 -6 8 655.17 241.906 27
2 6 -8 363.322 151.147 17
2 6 -8 512.218 142.801 68
2 6 -8 685.693 213.636 80
2 6 -8 647.972 162.531 8
-2 -6 8 499.205 156.814 73
2 6 -8 516.153 163.31 25
-2 -8 9 169.357 97.979 26
-2 -8 9 174.825 93.7893 110
2 8 -9 156.036 57.9635 18
-2 -8 9 149.568 69.2992 111
2 8 -9 177.569 72.5969 8
2 8 -9 228.815 78.4032 30
2 8 -9 150.506 79.1113 12
-2 -8 9 128.814 64.5418 29
2 8 -9 179.542 80.9705 25
2 8 -9 298.625 109.114 16
2 8 -9 259.908 100.035 9
2 -9 0 1454.23 386.988 57
-2 9 0 1296.1 251.753 14
-2 9 0 1380.9 223.046 88
-2 9 0 1289.4 209.771 19
-2 7 1 15191.2 809.414 88
-2 7 1 15572.8 828.991 19
2 -7 -1 9517.06 841.345 44
2 -7 -1 11188.3 1218.05 38
-2 7 1 17112.9 1190.15 36
-2 7 1 15212.9 894.458 14
2 -7 -1 9963.06 699.17 54
2 -7 -1 8171.62 934.506 103
-2 7 1 15289 765.162 16
-2 7 1 13831.4 708.942 13
2 -5 -2 6392.35 681.669 34
-2 5 2 11281 636.524 19
-2 5 2 11699.4 841.592 99
2 -5 -2 9000.12 693.358 44
-2 5 2 13862.1 944.265 36
-2 5 2 11175.8 600.674 16
2 -5 -2 8076.24 788.942 103
-2 5 2 10779.7 544.783 89
-2 5 2 10942.8 606.123 13
-2 5 2 11719 640.316 88
-2 5 2 10627 534.436 17
-2 5 2 10290 604.611 28
-2 5 2 12421.7 641.639 86
-2 3 3 27832 1121.08 36
-2 3 3 25113.9 1118.66 99
2 -1 -4 262859 3726.02 105
-2 1 4 200409 2252.51 11
-2 1 4 224464 3068.46 36
2 -1 -4 243979 4824.43 40
2 -1 -4 224141 2861.69 38
-2 1 4 194573 2785.54 99
2 -1 -4 195616 3315.6 6
2 -1 -4 251305 5459.29 104
2 1 -5 5549.16 780.939 97
2 1 -5 3180.83 652.065 107
2 1 -5 4285.64 828.379 51
-2 -1 5 5560.39 513.927 48
2 1 -5 4092.53 755.493 45
2 1 -5 4781.26 648.257 33
-2 -1 5 5253.47 518.437 47
2 1 -5 4141.05 545.689 6
2 1 -5 4629.43 742.109 102
-2 -1 5 4661.64 364.423 11
-2 -1 5 4138.37 382.588 99
2 3 -6 12700 1371.18 106
2 3 -6 15846.7 1404.63 46
2 3 -6 16401.5 706.614 60
2 3 -6 15707.1 719.257 12
-2 -3 6 15423 900.597 26
-2 -3 6 17133.4 1048.13 27
2 3 -6 12765.3 856.598 80
2 3 -6 14966.9 806.149 25
2 3 -6 15848.5 610 8
2 3 -6 16136.9 687.331 9
2 3 -6 13886.1 1426.6 107
2 3 -6 15073.9 1193.82 6
2 3 -6 9551.92 831.118 16
-2 -3 6 15633 712.639 73
-2 -3 6 15562.7 1001.68 47
2 5 -7 2948.28 448.472 80
2 5 -7 2826.66 319.035 58
2 5 -7 2732.19 313.394 8
2 5 -7 2588.26 360.467 12
2 5 -7 2641.11 479.055 16
2 5 -7 2880.27 635.894 107
2 5 -7 2123.22 404.821 18
-2 -5 7 2393.84 447.919 47
2 5 -7 2700.02 383.155 25
-2 -5 7 2603.04 335.995 73
2 5 -7 2221.65 388.207 17
2 5 -7 1837.13 512.907 106
-2 -5 7 2813.12 505.1 27
-2 -5 7 2476.78 435.648 26
2 5 -7 2754.12 351.362 9
2 5 -7 3146.13 621.211 6
2 5 -7 2531.23 330.007 68
2 7 -8 271.748 98.1206 80
-2 -7 8 252.265 118.692 73
-2 -7 8 314.039 161.395 26
2 7 -8 250.343 103.403 8
-2 -7 8 274.395 164.298 27
2 7 -8 20.6157 57.551 107
2 7 -8 290.554 124.719 9
2 7 -8 285.415 191.176 18
2 7 -8 297.375 117 17
-2 -7 8 407.546 186.043 47
2 7 -8 219.194 116.039 12
2 7 -8 190.778 104.757 25
-2 -7 8 373.122 153.569 111
2 7 -8 323.554 140.343 16
-2 -9 9 71.5634 48.7277 26
-2 -9 9 89.4812 53.4702 110
2 9 -9 -61.149 57.3015 18
2 9 -9 78.3504 46.9025 16
2 9 -9 80.1532 43.1701 25
-2 10 -1 4569.39 427.983 14
2 -10 1 2702.27 622.424 69
-2 10 -1 4167.04 307.64 88
2 -10 1 1636.45 350.568 79
2 -8 0 1385.85 516.817 57
2 -8 0 674.747 193.43 54
-2 8 0 1124.65 213.497 19
2 -8 0 1312.79 454.659 43
-2 8 0 1212.35 216.9 16
-2 8 0 1102.68 227.157 88
-2 8 0 914.008 231.714 14
2 -6 -1 8709.1 608.662 54
-2 6 1 10730.6 792.612 99
-2 6 1 11451.6 720.258 14
-2 6 1 10529.1 606.569 28
2 -6 -1 8658.17 983.098 38
-2 6 1 12686.6 953.996 36
-2 6 1 11575.9 585.304 17
-2 6 1 10678.2 633.864 88
-2 6 1 11788.6 583.475 89
-2 6 1 11505.4 650.666 16
2 -6 -1 7929.49 707.941 44
2 -6 -1 9358.14 926.821 103
-2 6 1 11457.7 673.851 19
-2 6 1 10871.8 611.272 13
-2 4 2 21523.8 1022.53 36
2 -4 -2 18264 993.19 34
2 -4 -2 19837.3 799.93 39
-2 4 2 21384.5 1012.94 99
2 -4 -2 18647.6 1073.54 103
2 -4 -2 19188 822.372 100
-2 2 3 91078 1773.56 36
2 -2 -3 88999.4 1276.13 35
-2 0 4 130060 2253.96 47
2 0 -4 123333 3746.86 45
2 0 -4 80878.7 3119.42 104
2 0 -4 84157.6 2831.68 40
2 0 -4 107003 3508.41 107
-2 0 4 116379 1914.56 99
2 0 -4 114394 2482.16 6
2 2 -5 26366.8 679.925 8
2 2 -5 26413.2 789.273 60
-2 -2 5 21921.4 763.529 99
-2 -2 5 22696.5 1053.15 47
2 2 -5 22972.3 1671.6 102
2 2 -5 21626.9 1373.05 33
2 2 -5 21642.6 1540.56 97
2 2 -5 24321.1 1331.84 6
2 2 -5 19348.3 1626.78 107
2 4 -6 12543.4 871.833 80
2 4 -6 13312.5 644.345 60
2 4 -6 11948.5 937.58 55
2 4 -6 13731.6 616.306 8
2 4 -6 13460.4 1169.17 6
2 4 -6 11484.4 926.693 16
2 4 -6 13726.4 1334.81 46
2 4 -6 12251.3 868.679 18
2 4 -6 14724.2 1415.12 107
-2 -4 6 13698.2 1087.63 27
-2 -4 6 13540.9 941.342 47
2 4 -6 14181.4 696.467 9
2 4 -6 10864.7 1235.18 106
2 4 -6 13764.2 798.236 25
-2 -4 6 12246.2 895.836 26
-2 -4 6 13352.4 689.885 73
2 4 -6 14068.1 750.915 12
2 6 -7 5941.02 510.44 8
-2 -6 7 5835.93 703.817 47
2 6 -7 5109.03 667.024 18
2 6 -7 5786.99 551.302 9
2 6 -7 5940.84 571.27 17
2 6 -7 5846.52 559.886 25
-2 -6 7 5360.68 742.809 27
2 6 -7 6789.94 665.918 80
-2 -6 7 4727.68 607.933 26
-2 -6 7 6632.02 784.696 79
2 6 -7 6458.19 678.649 16
2 6 -7 6254.28 608.838 12
2 6 -7 6616.11 918.107 107
2 6 -7 6082.4 571.322 24
-2 -6 7 5729.97 518.685 73
2 6 -7 6323.2 512.14 68
2 6 -7 6390.45 867.497 6
2 8 -8 2339.86 348.492 12
2 8 -8 2317.73 315.871 8
2 8 -8 2148.69 398.682 18
2 8 -8 2515.36 326.383 25
2 8 -8 2510.06 347.46 9
-2 -8 8 1958.32 339.536 26
-2 -8 8 2411.66 363.113 111
2 8 -8 2737.38 346.016 16
-2 9 -1 10205.2 615.372 19
-2 9 -1 10602.1 601.218 88
2 -9 1 11127.2 1227.61 57
-2 9 -1 10971.7 776.163 14
-2 9 -1 11645.9 650.31 16
2 -7 0 20672.4 1462.72 59
2 -7 0 14151 847.61 54
-2 7 0 20488.8 943.708 8
-2 7 0 22112.1 1325.12 36
-2 7 0 21488.6 822.053 17
-2 7 0 20444.8 914.991 16
-2 7 0 18502.9 840.145 88
-2 7 0 19072.1 1006.14 14
2 -7 0 15735.1 1396.71 38
2 -7 0 13945.2 1025.33 44
2 -7 0 14218.8 1229.25 103
-2 7 0 20975.2 961.653 19
2 -5 -1 63343.6 2159.61 103
-2 5 1 75097.6 1546.25 19
2 -5 -1 59123 1712.74 44
-2 5 1 70387 1821.84 99
2 -5 -1 63541.3 2388 38
-2 5 1 72953.8 1315.7 89
-2 5 1 72866 1500.23 16
-2 5 1 78316.2 2100.6 36
-2 5 1 70317.5 1462.45 88
-2 3 2 82990.5 1769.95 99
-2 3 2 78503.1 1654.37 36
2 -3 -2 78917.2 1722.07 34
-2 1 3 245267 2617.56 36
-2 1 3 257199 2705.68 99
2 1 -4 1364.2 269.985 6
2 1 -4 1257.38 385.239 51
-2 -1 4 1512.55 234.676 48
-2 -1 4 1735.1 254.657 47
2 1 -4 1113.27 375.186 45
2 1 -4 1041.04 346.36 107
2 1 -4 1535.47 360.896 102
2 1 -4 1510.83 313.534 33
-2 -1 4 1636.9 198.447 99
2 1 -4 2109.28 408.578 97
-2 -3 5 85177.4 2056.75 47
2 3 -5 85650.6 1461.26 60
2 3 -5 82623.2 3297.79 107
2 3 -5 85081.4 3149.73 106
2 3 -5 82870.1 1287.51 8
2 3 -5 89112.7 1528.6 9
2 3 -5 89034.7 1648.18 12
2 3 -5 82631 2554.91 6
2 5 -6 27685 1096.68 9
-2 -5 6 23289 1597.64 27
-2 -5 6 26611.3 1194.92 95
2 5 -6 29175.4 1206.79 12
-2 -5 6 31283.3 1617.43 79
2 5 -6 29643.4 1065.29 68
-2 -5 6 20852.6 1276.58 26
2 5 -6 27419.2 1264.87 17
2 5 -6 27128.8 1176.48 25
2 5 -6 25101.8 1345.69 18
2 5 -6 29313.5 1469.02 16
2 5 -6 29540.2 1204.24 24
2 5 -6 32872 2062.18 107
-2 -5 6 26877.6 1379.45 47
2 5 -6 32251.1 1873.61 6
2 5 -6 29267.3 1390.58 80
2 5 -6 27852.2 985.712 8
-2 -5 6 28689.1 1071.09 73
2 7 -7 22868.1 1190 12
-2 -7 7 22031.4 1383 47
2 7 -7 20598.9 1389.27 18
2 7 -7 23718.4 1096.51 8
2 7 -7 29962.3 1070.82 17
2 7 -7 26802.2 1278.63 16
-2 -7 7 18678.8 1308.02 27
2 7 -7 24103.4 1129.73 25
-2 -7 7 19154.2 1263.76 26
2 7 -7 22680.7 1129.28 9
2 7 -7 28904.7 1362.61 80
2 7 -7 28484 1779.25 107
-2 -7 7 25002.2 1498.69 79
-2 -7 7 24299.6 1081.84 73
2 9 -8 4538.63 368.463 25
2 9 -8 4001.46 386.08 9
2 9 -8 3764.32 457.139 18
2 9 -8 4783.65 370.528 16
2 9 -8 4548.03 397.302 8
-2 -9 8 4232.22 415.757 26
2 9 -8 3831.64 385.45 12
-2 -9 8 4280.35 415.531 111
-2 10 -2 7183.75 469.525 16
-2 10 -2 6150.66 531.604 14
2 -10 2 4390.35 601.765 79
2 -10 2 4997.11 875.359 69
2 -8 1 19218.3 1432.61 59
-2 8 -1 18584.4 919.481 19
-2 8 -1 17058.1 865.296 8
-2 8 -1 18605.7 1250.7 36
2 -8 1 15435.5 1513.17 43
2 -8 1 18972.4 1735.38 57
2 -8 1 12883.6 1316.59 38
-2 8 -1 18036.9 880.467 16
-2 8 -1 15262.8 746.115 88
2 -8 1 10943.5 816.205 54
-2 8 -1 17117.1 998.634 14
2 -6 0 26463.4 1408.67 56
-2 6 0 26453.1 1003.83 19
-2 6 0 28154.1 1364.1 36
2 -6 0 23078.5 1206.15 44
2 -6 0 23404.6 1551.24 38
-2 6 0 25985 861.281 17
2 -6 0 23465.4 1443.67 103
-2 6 0 24917.3 911.012 88
-2 6 0 26447.8 1004.8 25
-2 6 0 25613.1 1051.64 14
2 -6 0 22762.3 983.546 54
-2 6 0 22974.1 1063.33 10
-2 6 0 26923.3 998.873 16
-2 6 0 24181.6 939.775 8
-2 6 0 25856.6 885.124 13
2 -4 -1 23810.3 755.693 100
2 -4 -1 20313.1 864.419 44
2 -4 -1 23730.9 720.476 39
-2 4 1 23748.6 985.137 36
2 -4 -1 24008.3 1155.1 103
-2 4 1 23924.1 949.143 99
2 -2 -2 190891 2323.91 34
-2 2 2 191432 2293.76 99
2 -2 -2 196108 2394.03 103
2 0 -3 519298 6884.9 104
2 0 -3 611802 4890.63 6
-2 0 3 646874 4112.7 47
2 0 -3 535359 6267.39 40
2 0 -3 601375 7324.49 107
2 2 -4 28502.9 1277.56 6
-2 -2 4 31833.9 1079.86 47
2 2 -4 30253.1 1365.78 33
-2 -2 4 30701.4 733.681 99
2 2 -4 26973.5 1788.32 107
2 2 -4 29606.9 1622.63 102
2 2 -4 27437.4 1448.27 97
2 4 -5 2196.86 236.644 8
2 4 -5 2497.48 306.361 12
-2 -4 5 2356.53 317.297 95
-2 -4 5 2503.3 370.775 47
2 4 -5 2752.52 392.641 18
2 4 -5 2947.41 360.74 25
2 4 -5 2274.99 370.684 80
2 4 -5 2904.77 615.182 107
2 4 -5 2273.04 397.023 16
2 4 -5 2303.21 457.726 6
2 4 -5 1674.46 462.281 106
2 4 -5 1710.82 292.472 15
2 4 -5 2371.62 277.221 9
-2 -4 5 2307.67 473.845 63
-2 -4 5 2263.34 283.874 115
2 4 -5 2361.69 260.09 58
-2 -4 5 2996.86 305.877 73
2 4 -5 2630.28 289.26 68
2 6 -6 4247.57 482.973 25
-2 -6 6 3670.26 707.274 63
2 6 -6 3789.09 410.124 8
-2 -6 6 3891.65 546.175 47
2 6 -6 3810.76 477.387 12
2 6 -6 4428.78 444.702 17
-2 -6 6 3460.45 455.31 95
2 6 -6 3429.1 544.437 18
-2 -6 6 2383.85 525.097 27
-2 -6 6 2247.4 458.745 26
2 6 -6 4959.29 798.566 107
2 6 -6 4729.56 567.771 80
2 6 -6 4603.26 575.815 16
2 6 -6 3972.61 476.998 10
2 6 -6 3807.25 454.232 9
2 6 -6 3856.78 467.515 24
2 6 -6 3566.11 405.937 14
-2 -6 6 4475.84 647.57 79
2 6 -6 4953.54 731.775 6
-2 -6 6 4171.52 436.195 73
2 8 -7 4511.25 508.537 12
2 8 -7 3667.73 553.459 18
-2 -8 7 4468.6 599.044 79
2 8 -7 5653.33 759.265 107
2 8 -7 5079.29 494.637 25
-2 -8 7 3008.02 477.84 26
2 8 -7 5508.93 517.28 16
2 8 -7 4225.66 402.62 14
2 8 -7 4377.02 487.459 9
2 8 -7 4391.36 467.18 8
-2 -8 7 4663.81 442.819 73
2 -11 3 11221.7 745.792 79
2 -11 3 12193.4 994.056 84
2 -9 2 4373.36 802.013 57
2 -9 2 4907.4 953.847 105
-2 9 -2 4802.41 443.93 19
-2 9 -2 3940.56 471.049 14
2 -9 2 3998.8 774.244 43
-2 9 -2 4855.18 453.177 16
-2 7 -1 3085.29 356.455 8
2 -7 1 2941.65 581.809 59
-2 7 -1 3354.7 378.267 16
-2 7 -1 2431.09 317.883 12
-2 7 -1 3326.53 372.71 19
-2 7 -1 3097.61 401.612 14
2 -7 1 2905.03 582.458 38
-2 7 -1 3497.07 395.197 25
-2 7 -1 3226.7 490.194 36
-2 7 -1 3098.44 309.492 17
-2 7 -1 2940.05 318.926 88
-2 7 -1 2888.1 424.66 10
-2 7 -1 2834.04 335.852 9
2 -7 1 2635.79 374.68 54
2 -7 1 3197.22 664.734 43
-2 5 0 78293.1 1664.66 99
2 -5 0 76052.8 1567.05 54
2 -5 0 73039.8 1882.46 44
2 -5 0 82318.9 2617.99 38
-2 5 0 83860.5 2036.69 36
-2 5 0 73956.9 1658.73 10
-2 5 0 70687.2 1736.52 4
2 -5 0 75442.5 2287.71 103
2 -3 -1 45963.7 1326.46 103
2 -3 -1 41562.4 992.808 44
2 -3 -1 38687.9 730.094 39
2 -3 -1 51085.8 1610.66 38
-2 3 1 41867 1076.13 36
2 -3 -1 39406.5 770.508 100
-2 3 1 48197.6 1145.67 99
-2 3 1 36762.1 950.964 4
2 -1 -2 70545.6 1374.86 38
-2 1 2 60990.3 1065.09 99
-2 1 2 56680.9 1011.77 36
2 -1 -2 71413.7 973.935 103
-2 1 2 63422.8 1168.77 108
2 1 -3 82384.4 1819.82 6
2 1 -3 63431.5 2527.96 107
2 1 -3 96560.8 3149.87 51
-2 -1 3 90444 1141.02 99
-2 -1 3 97305.3 1580.24 47
2 1 -3 86874.2 2973.85 45
-2 -1 3 93482.6 1511.91 108
2 1 -3 76029.6 1538.15 105
-2 -3 4 357773 3928.99 98
2 3 -4 353113 2175.9 4
-2 -3 4 344100 3682.26 47
2 3 -4 365319 5268.64 46
2 3 -4 369630 6838.91 107
2 3 -4 336009 5526.07 106
-2 -3 4 332983 3379 108
2 3 -4 304391 2558.13 60
2 3 -4 336275 4744.85 6
2 5 -5 12692.7 789.731 25
2 5 -5 12080.8 761.684 12
-2 -5 5 11826.1 850.202 47
2 5 -5 11560.8 701.178 9
2 5 -5 12467.3 902.46 18
2 5 -5 13779.8 972.719 16
2 5 -5 14298.3 1162.79 6
2 5 -5 16293.5 1442.6 107
2 5 -5 12409 791.682 10
2 5 -5 11631.2 642.735 68
2 5 -5 9078.51 746.425 15
2 5 -5 11529.8 640.961 8
-2 -5 5 13190.7 808.713 95
2 5 -5 13338.8 924.235 80
-2 -5 5 12713.2 723.719 115
2 5 -5 12299.7 768.41 24
-2 -5 5 10302.3 1117.27 63
-2 -7 6 8142.36 1016.95 63
2 7 -6 7592.01 700.979 12
2 7 -6 8121.15 652.83 8
-2 -7 6 8453.24 834.947 47
2 7 -6 7916.03 680.135 9
2 7 -6 7565.2 831.368 18
2 7 -6 8150 693.721 24
2 7 -6 11225.4 1157.66 107
2 7 -6 8853.35 705.125 25
2 7 -6 10647.6 851.489 80
-2 -7 6 3566.29 631.863 27
-2 -7 6 4550.13 646.933 26
-2 -7 6 9407.54 945.298 79
-2 -7 6 7133.39 672.334 95
2 7 -6 8243.63 633.091 14
2 7 -6 9910.63 784.691 16
-2 -7 6 8103.92 618.505 73
2 9 -7 2698.89 352.773 12
2 9 -7 3417.47 373.019 8
2 9 -7 3726.12 344.622 16
2 9 -7 2620.42 402.749 18
-2 -9 7 2326.55 353.886 26
2 9 -7 2747.44 289.29 14
2 9 -7 3544.33 352.178 25
2 9 -7 2666.95 350.43 9
-2 -9 7 2848.63 404.792 79
2 -10 3 19843 1348 79
-2 10 -3 20881 999.237 14
2 -10 3 21097.8 1858.65 69
-2 8 -2 28166.6 1138.48 9
2 -8 2 35620.2 2017.62 59
2 -8 2 32192.6 2262.72 57
-2 8 -2 27780.5 1169.73 12
-2 8 -2 34974 1274.66 19
-2 8 -2 28710.8 1261.34 14
2 -8 2 27762.2 1934.53 38
-2 8 -2 35155.7 1713.28 36
-2 8 -2 31255.4 1186.12 8
-2 8 -2 34282.4 1079.79 17
-2 8 -2 29907.6 1002.29 88
-2 8 -2 31179.4 1476.18 10
2 -8 2 30771.4 2161.31 43
-2 8 -2 35019.7 1327.77 25
-2 8 -2 33110.4 1243.6 16
-2 6 -1 7606.73 609.325 10
-2 6 -1 9356.2 648.474 106
2 -6 1 7661.73 770.012 56
-2 6 -1 8507.86 536.698 19
-2 6 -1 8436.69 571.327 25
-2 6 -1 7974.36 483.515 88
2 -6 1 8915.56 935.49 38
-2 6 -1 7549.61 456.585 17
-2 6 -1 6279.72 470.542 12
-2 6 -1 8504.94 557.951 16
2 -6 1 6667.49 756.051 103
-2 6 -1 7867.57 587.899 14
-2 6 -1 6670.93 456.286 8
-2 6 -1 8455.18 662.478 4
-2 6 -1 6383.99 456.094 9
-2 6 -1 8641.98 714.44 36
2 -6 1 8053.84 590.119 54
2 -4 0 237865 2316.98 54
-2 4 0 228024 2837.41 36
-2 4 0 237529 2562 99
-2 4 0 234497 2679.67 106
2 -4 0 225328 2740.47 44
2 -4 0 237563 3425.16 103
-2 2 1 201663 1753.81 4
-2 2 1 205309 1905.22 36
-2 2 1 222803 2149.26 106
2 -2 -1 232835 2608.27 34
2 -2 -1 258233 2433.12 103
2 -2 -1 278970 3075.24 38
-2 2 1 238960 2083.96 99
2 0 -2 870388 7265.89 40
2 0 -2 813623 7819.56 104
2 2 -3 49923.2 1528.33 6
2 2 -3 49445.9 590.567 4
2 2 -3 43014.3 2077.66 107
-2 -2 3 56151.8 1268.86 47
2 2 -3 47478.8 1782.74 102
-2 -2 3 52028.9 1113.51 108
-2 -2 3 48340.1 769.795 99
-2 -2 3 58890.5 936.056 103
2 2 -3 58350.8 1428.85 105
-2 -2 3 53237.3 1072.29 98
2 4 -4 158511 2388.92 12
2 4 -4 149499 2037.9 8
2 4 -4 149779 2217.94 9
2 4 -4 160711 2839.51 1
2 4 -4 153566 2086.85 68
2 4 -4 178174 4521.16 107
2 4 -4 169488 2598.28 10
-2 -4 4 166312 2238.42 54
-2 -4 4 138445 3606.19 63
-2 -4 4 187965 5418.8 69
-2 -4 4 167457 2790.49 47
2 4 -4 180906 3677.44 6
2 6 -5 2070.01 335.524 25
2 6 -5 1666.37 367.157 18
2 6 -5 1817.08 319.277 12
2 6 -5 2210.58 320.982 8
-2 -6 5 1467.96 436.398 63
-2 -6 5 2055.14 317.209 115
-2 -6 5 2010.5 375.889 47
2 6 -5 2387.21 540.725 107
2 6 -5 1830.79 326.906 10
2 6 -5 2135.54 356.406 16
2 6 -5 1742.75 362.053 15
2 6 -5 2159.76 331.025 9
2 6 -5 1994.05 342.164 24
2 6 -5 2232.47 386.421 80
-2 -6 5 1930.96 292.668 73
2 6 -5 2659.75 489.43 6
-2 -6 5 1879.94 336.663 95
-2 -8 6 7222.44 756.299 47
2 8 -6 7398.39 786.824 18
2 8 -6 8747.66 689.911 8
-2 -8 6 9023.28 906.341 79
-2 -8 6 7808.71 959.224 63
-2 -8 6 7630.62 677.488 95
2 8 -6 7603.69 689.188 12
2 8 -6 11677.4 1144.13 107
2 8 -6 9176.7 686.108 25
-2 -8 6 4306.7 596.068 26
2 8 -6 9908.32 702.229 16
2 8 -6 7888.76 681.504 9
2 8 -6 7604.82 596.859 14
-2 -8 6 7819.01 575.946 73
-2 -10 7 3360.02 300.643 26
-2 11 -4 7612.18 488.64 14
2 -11 4 6703.7 735.506 84
2 -11 4 8070.63 664.716 79
-2 9 -3 31930 1173.9 19
-2 9 -3 27074 1189.82 12
2 -9 3 46280 3208.03 52
-2 9 -3 30058.4 1177.95 8
-2 9 -3 35629.1 1113.3 17
-2 9 -3 26463.1 1221.25 14
2 -9 3 27195.1 2242.75 105
-2 9 -3 34458.5 1277.39 16
2 -9 3 31877.9 2220.3 57
-2 9 -3 33292.1 1288.62 25
2 -9 3 29947.6 2456.64 69
2 -9 3 45408.6 3496.18 109
2 -9 3 19097.4 1744.69 43
-2 9 -3 28070.1 1167.79 9
-2 9 -3 30710.6 1470.48 10
-2 7 -2 20760.4 1158.09 4
2 -7 2 20926.1 1517.68 59
2 -7 2 22876.8 1423.56 56
2 -7 2 19598.2 1656.96 57
-2 7 -2 21542.1 932.45 19
2 -7 2 15667.4 941.526 54
-2 7 -2 17246.3 1087.94 18
2 -7 2 22663.1 1734.85 43
2 -7 2 21648.6 1579.56 38
-2 7 -2 20602 1029.1 14
-2 7 -2 21126.4 1219.85 36
-2 7 -2 19347.5 930.849 12
-2 7 -2 21997 993.248 16
-2 7 -2 21350.4 1138.92 10
-2 7 -2 22969.8 1036.22 25
-2 7 -2 19114.5 883.038 9
-2 7 -2 20198.1 808.25 17
-2 7 -2 19348.8 857.495 8
2 -5 1 906.601 168.524 54
2 -5 1 1129.02 285.64 38
-2 5 -1 840.162 173.056 4
-2 5 -1 854.65 175.315 10
-2 5 -1 932.253 185.185 106
2 -5 1 1518.65 324.23 103
2 -5 1 1595.87 370.068 43
-2 5 -1 1021.75 158.017 99
2 -5 1 1178.14 295.378 56
2 -3 0 173538 1926.63 44
2 -3 0 195184 2883.1 38
-2 3 0 157978 1962.21 36
2 -3 0 181902 2443.84 103
-2 3 0 173296 2055.83 106
-2 3 0 163990 1753.49 4
-2 3 0 187970 1854.11 99
-2 3 0 195129 1213.19 7
2 1 -2 107308 3033.91 51
-2 -1 2 120784 1587.7 7
2 1 -2 91793.1 2788.63 107
-2 -1 2 127465 1571.25 35
2 1 -2 115653 3161.95 45
2 1 -2 120404 2253.48 105
-2 -1 2 110405 1340.22 49
2 1 -2 107963 1781.63 6
-2 -1 2 116911 1488.34 108
-2 -3 3 122041 1983.08 44
2 3 -3 111583 1838.63 3
-2 -3 3 103110 1610.5 108
2 3 -3 111623 3375.92 107
2 3 -3 96824.8 1100.15 4
-2 -3 3 99535.4 1512.31 49
-2 -3 3 125675 1844.35 103
2 3 -3 107592 2426.17 6
-2 -3 3 128750 1571.19 54
2 5 -4 1704.83 282.17 24
2 5 -4 1174.76 229.858 12
2 5 -4 1412.1 248.726 9
-2 -5 4 1697.06 308.498 47
2 5 -4 1623.41 309.764 18
2 5 -4 2033.97 482.027 107
2 5 -4 1611.51 305.228 15
-2 -5 4 1930.49 321.867 103
2 5 -4 1583.3 279.255 10
-2 -5 4 799.661 316.012 63
2 5 -4 1730.29 305.826 16
-2 -5 4 1694.11 252.59 54
-2 -5 4 1975.38 274.766 90
-2 -5 4 3271.4 397.569 95
2 5 -4 1736.51 356.241 6
2 5 -4 1494.07 262.818 25
2 5 -4 1398.01 234.268 8
2 5 -4 2203.61 390.135 80
-2 -5 4 1888.44 685.961 69
-2 -7 5 2302.9 559.041 63
2 7 -5 3931.63 479.632 8
2 7 -5 3697.35 436.564 14
2 7 -5 3666.24 487.335 12
2 7 -5 3290.45 534.965 18
-2 -7 5 3846.52 453.541 115
-2 -7 5 3803.45 545.767 47
-2 -7 5 4060.52 429.028 73
2 7 -5 4199.94 476.329 16
2 7 -5 4605.47 513.308 25
2 7 -5 4058.01 505.699 24
2 7 -5 4059.29 499.008 9
-2 -7 5 4417.2 530.261 95
2 7 -5 4743.58 557.033 80
2 7 -5 4590.38 750.401 107
2 7 -5 3005.89 493.005 15
2 9 -6 4904.85 426.784 14
2 9 -6 5411.32 494.509 8
2 9 -6 4309.65 519.247 18
2 9 -6 6445.06 457.167 16
2 9 -6 5741.82 461.195 25
-2 -9 6 3529.56 469.732 26
2 9 -6 5119.82 493.725 9
-2 -9 6 4928.62 590.727 79
-2 -9 6 3855.4 328.578 73
2 -10 4 85.9485 42.1122 26
-2 10 -4 70.3472 55.5872 14
2 -10 4 123.368 135.135 63
-2 10 -4 141.743 80.0729 16
2 -10 4 336.526 204.272 79
2 -10 4 380.522 288.399 84
-2 10 -4 251.05 106.041 12
2 -10 4 425.753 286.847 69
-2 8 -3 1069.05 272.376 4
2 -8 3 982.124 391.64 57
-2 8 -3 765.17 187.464 8
-2 8 -3 1158.63 227.625 19
2 -8 3 1427.32 484.318 43
-2 8 -3 857.462 269.52 18
-2 8 -3 1107.48 301.725 36
-2 8 -3 937.016 185.103 17
-2 8 -3 920.256 231.051 12
2 -8 3 1274.48 469.752 105
-2 8 -3 791.598 251.656 10
-2 8 -3 1137.26 240.078 16
-2 8 -3 1223.53 251.917 25
-2 8 -3 1253.45 267.378 14
-2 8 -3 976.098 229.763 9
2 -6 2 2373.46 486.849 59
2 -6 2 3295.41 506.854 56
2 -6 2 3506.33 396.829 54
2 -6 2 3669.36 622.411 43
2 -6 2 3252.62 541.035 38
-2 6 -2 2964.3 362.003 106
-2 6 -2 2866.39 290.58 17
-2 6 -2 3128.69 373.333 14
-2 6 -2 2894.32 307.662 9
-2 6 -2 3407.48 402.752 10
-2 6 -2 3118.61 379.135 4
-2 6 -2 3176.61 346.974 16
-2 6 -2 2455.21 257.688 8
-2 6 -2 2662.65 314.532 12
-2 6 -2 3222.61 354.361 25
2 -4 1 263856 2522.43 54
-2 4 -1 297278 2364.53 99
-2 4 -1 282318 3047 106
2 -4 1 287819 3895.54 38
-2 2 0 156368 1809.24 106
-2 2 0 160949 1470.87 99
2 -2 0 182338 2536.44 43
-2 2 0 144626 1378.6 7
2 -2 0 182527 2346.86 34
2 0 -1 235692 3709.11 45
2 0 -1 138308 3069.99 104
2 0 -1 198682 3413.75 107
-2 0 1 178608 1716.87 7
2 0 -1 175987 3290.7 105
2 2 -2 158204 2524.08 3
-2 -2 2 180492 1776.07 49
-2 -2 2 194663 2086.59 44
-2 -2 2 198605 2188.34 7
-2 -2 2 202389 2529.97 35
-2 -2 2 183587 1952.82 108
2 2 -2 175551 3697.85 107
2 2 -2 186711 2579.8 6
2 2 -2 207645 3071.35 105
2 4 -3 35382 1791.06 107
2 4 -3 30525.1 959.602 8
-2 -4 3 37331.4 1287.31 44
2 4 -3 30387 1006.88 9
2 4 -3 33535.1 1165.4 10
2 4 -3 36234 1286.25 1
2 4 -3 31797.8 1080.67 12
-2 -4 3 31739.7 2119.24 69
-2 -4 3 39699.7 1305.18 103
2 4 -3 33452.1 1324.3 6
-2 -4 3 38888.7 1015.18 54
2 6 -4 6127.41 597.055 12
-2 -6 4 3841.93 689.398 63
-2 -6 4 6506.13 669.624 47
2 6 -4 6842.25 634.793 80
-2 -6 4 6029.19 527.407 54
2 6 -4 5433.41 618.4 18
2 6 -4 7654.47 929.684 107
2 6 -4 6616.06 564.294 16
-2 -6 4 6959.46 619.383 95
2 6 -4 6092.66 565.924 25
-2 -6 4 6673.88 567.428 115
-2 -6 4 6247.57 523.965 90
2 6 -4 5615.31 552.635 9
2 6 -4 5211.83 587.276 15
-2 -6 4 5526.93 1118.08 69
2 6 -4 5421.81 565.407 24
2 6 -4 5586.13 530.012 8
-2 -8 5 2673.47 403.197 95
2 8 -5 2502.68 405.06 12
2 8 -5 2851.55 408.94 8
-2 -8 5 2402.51 422.04 47
2 8 -5 2617.44 462.883 18
2 8 -5 2558.28 360.611 14
2 8 -5 3459.87 415.549 25
2 8 -5 3250.78 381.445 16
-2 -8 5 2824.35 621.859 63
2 8 -5 2059.37 409.703 15
2 8 -5 3069.02 438.047 9
-2 -8 5 2609.07 324.473 73
-2 -10 6 5369.95 416.044 26
2 10 -6 6203.78 365.362 14
-2 11 -5 4314.83 316.173 16
2 -11 5 2474.56 399.795 27
2 -11 5 4059.02 481.119 79
2 -11 5 2760.8 292.428 111
-2 11 -5 2989.36 301.413 14
2 -9 4 481.95 292.126 84
-2 9 -4 214.738 142.398 25
-2 9 -4 194.904 93.2772 19
-2 9 -4 140.202 125.773 12
-2 9 -4 124.67 138.592 18
-2 9 -4 221.798 94.3148 17
-2 9 -4 331.487 131.285 16
2 -9 4 330.903 277.109 79
-2 9 -4 375.47 168.886 10
-2 9 -4 244.134 136.993 14
-2 9 -4 238.423 107.394 8
2 -9 4 285.724 272.052 69
-2 9 -4 209.566 121.89 9
-2 7 -3 46587.8 1482.29 12
-2 7 -3 44556.9 1292.92 8
-2 7 -3 43818.8 1855.97 18
-2 7 -3 58173.9 1796.35 106
-2 7 -3 44587.6 1394.83 9
-2 7 -3 47972.8 1326.18 17
-2 7 -3 51791.8 1551.68 16
-2 7 -3 48939 1500.76 25
-2 7 -3 47878.1 1662.87 10
2 -7 3 49570.2 2345.4 59
-2 7 -3 47571.8 1578.28 14
2 -7 3 44018.2 2487.82 57
-2 7 -3 51159 1755.69 4
2 -7 3 45007.3 2435.36 43
-2 5 -2 6441.67 425.018 12
2 -5 2 7207.66 689.481 38
-2 5 -2 6673.06 477.785 10
-2 5 -2 7911.71 438.011 9
-2 5 -2 7096.96 544.229 106
-2 5 -2 6824.94 475.229 4
2 -5 2 7777.14 783.037 43
2 -5 2 8055.81 800.664 56
2 -5 2 6020.91 673.778 59
-2 3 -1 249051 2112.38 7
2 -3 1 263526 3558.41 43
-2 3 -1 254171 2921.34 106
2 -3 1 324639 4272.51 105
-2 3 -1 261538 1858.09 99
-2 1 0 173763 1729.92 106
-2 1 0 165842 1702.57 7
-2 1 0 170393 1130.76 39
2 -1 0 169239 1986.33 34
-2 1 0 164797 1148.35 100
-2 -1 1 232354 2118.6 7
-2 -1 1 241202 2119.83 42
2 1 -1 277099 3683.67 105
2 1 -1 190322 3160.39 107
-2 -1 1 250673 2265.45 108
2 1 -1 246295 2225.33 6
-2 -3 2 61225 1700.03 35
2 3 -2 63962.6 1564.5 3
-2 -3 2 55474.6 1363.63 44
-2 -3 2 46787.1 966.047 49
2 3 -2 55824.8 1530.26 1
-2 -3 2 47001.6 1061.49 108
2 3 -2 51649.5 1890.26 107
2 3 -2 50321.8 1321.33 6
-2 -5 3 7436.41 865.116 63
-2 -5 3 12940.7 715.87 115
2 5 -3 11633.8 733.28 12
2 5 -3 12864.3 1050.86 107
2 5 -3 12134.3 799.126 18
-2 -5 3 13338.4 891.562 44
2 5 -3 10951.5 636.833 16
2 5 -3 11673.9 718.022 25
-2 -5 3 9963.22 1287.95 69
2 5 -3 10770.8 716.35 15
-2 -5 3 12355.6 674.315 90
2 5 -3 12342.3 800.092 24
2 5 -3 11154.2 711.927 9
-2 -5 3 15469.1 978.757 103
2 5 -3 13389.5 789.28 80
-2 -5 3 13896.9 707.555 54
2 5 -3 11405.3 683.397 8
-2 -7 4 15542.6 939.021 54
2 7 -4 15666.4 923.066 14
-2 -7 4 17184.4 1148.06 47
-2 -7 4 15973.5 1001.87 95
2 7 -4 14147.3 1071.5 36
-2 -7 4 15473.3 899.644 115
2 7 -4 15514.7 990.262 9
2 7 -4 16028 980.691 8
2 7 -4 13446.1 1025.03 15
2 7 -4 14406.4 980.273 12
2 7 -4 16315.3 924.895 25
2 7 -4 17078 878.278 16
2 7 -4 14163.8 1052.55 18
-2 -7 4 10884.4 1237.46 63
2 7 -4 20988.6 1526.97 107
2 7 -4 16815.9 1055.6 24
-2 -7 4 17109.3 1941.3 69
-2 -9 5 5758.87 779.973 63
2 9 -5 5702.71 519.118 8
2 9 -5 4758.5 526.24 18
2 9 -5 5664.02 433.518 25
2 9 -5 6063.55 410.384 16
-2 -9 5 4412.24 452.343 95
2 9 -5 4958.35 444.111 14
-2 -9 5 5197.16 626.719 79
-2 10 -5 486.192 175.024 10
-2 10 -5 767.435 170.043 16
-2 10 -5 517.037 167.509 12
2 -10 5 794.178 341.269 84
-2 10 -5 980.228 169.86 17
-2 10 -5 602.043 168.725 9
-2 10 -5 692.986 182.898 8
2 -10 5 626.127 209.046 111
2 -10 5 770.118 277.476 79
-2 10 -5 567.116 170.655 14
2 -10 5 794.147 353.446 69
2 -10 5 397.627 245.122 27
-2 8 -4 39530.1 1357.11 8
-2 8 -4 33672.5 1720.86 18
-2 8 -4 43239.8 1341.84 17
-2 8 -4 35636.3 1435.66 14
-2 8 -4 40372.5 1521.91 12
-2 8 -4 41154.6 1673.92 10
-2 8 -4 41084.2 1484.41 9
-2 8 -4 44562.5 1414.78 19
-2 8 -4 45616.3 1838.91 4
-2 8 -4 40395.7 1432.62 25
2 -8 4 43126.5 2305.88 79
2 -8 4 41682.3 2559.09 57
-2 8 -4 43265.2 1472.42 16
2 -8 4 34667.4 2506.49 69
2 -6 3 10714.4 1107.96 105
-2 6 -3 7402.05 446.62 8
-2 6 -3 8509.23 623.64 14
-2 6 -3 8354.33 785.619 18
2 -6 3 7626.43 854.596 59
2 -6 3 4435.69 541.317 11
-2 6 -3 8230.23 540.787 17
-2 6 -3 7802.27 541.605 30
2 -6 3 7405.92 881.206 43
-2 6 -3 7869.98 542.788 12
-2 6 -3 9026.59 596.845 16
-2 6 -3 8300.66 602.201 10
2 -6 3 7106.22 920.411 57
-2 6 -3 8876.65 632.779 4
-2 6 -3 7925.56 556.468 25
-2 6 -3 7907.04 524.302 9
-2 6 -3 9059.93 707.15 106
2 -4 2 63017 1212.4 47
2 -4 2 65361.4 2059.2 43
-2 4 -2 75137.8 924.723 99
-2 4 -2 77890.1 1718.02 37
-2 4 -2 81086.4 1454.49 7
-2 4 -2 69585.2 1340.51 4
-2 4 -2 75917.3 1858.82 106
-2 2 -1 263977 2961.3 106
-2 2 -1 264970 2519.43 7
2 -2 1 264416 4085.98 105
-2 0 0 13578.2 451.707 39
-2 0 0 13462.7 519.444 7
-2 0 0 13777.2 475.215 100
2 0 0 13426.1 745.41 5
-2 0 0 14873.4 613.863 50
2 0 0 13352.6 619.312 1
2 0 0 14018.6 591.415 98
2 0 0 15500.5 981.75 105
-2 0 0 13974.2 611.058 108
2 2 -1 7918.62 574.477 3
-2 -2 1 7917.25 459.397 42
-2 -2 1 7562.75 539.942 35
2 2 -1 8012.38 645.25 107
2 2 -1 9286.35 735.735 105
-2 -2 1 7555.78 439.715 108
2 2 -1 7487.16 535.271 1
-2 -2 1 8420.87 502.02 100
-2 -2 1 7613.85 418.85 7
2 2 -1 6854.25 350.647 6
2 4 -2 41649.6 1393.54 1
-2 -4 2 38990.4 1367.89 44
2 4 -2 33286.6 1094.63 9
-2 -4 2 33669.9 2113.04 69
-2 -4 2 44949.3 1730.54 35
2 4 -2 33488.7 1137.79 12
2 4 -2 34984 1000.42 6
2 4 -2 37878.9 1605.39 107
2 4 -2 34796.2 1072.46 8
2 6 -3 12941.9 855.994 9
-2 -6 3 9404.27 1084.2 63
-2 -6 3 15943.2 874.849 54
2 6 -3 12002.1 839.372 12
2 6 -3 12725.7 921.311 18
-2 -6 3 15179.1 1083.75 44
-2 -6 3 12901.3 736.906 90
2 6 -3 13569.3 712.708 16
2 6 -3 12169.7 863.823 15
-2 -6 3 15694 1126.65 103
2 6 -3 13947.5 967.341 36
2 6 -3 14478.8 939.037 24
2 6 -3 15875.4 1196.64 107
2 6 -3 15465.6 864.71 80
-2 -6 3 14364.1 833.295 115
2 6 -3 13062 772.621 25
2 6 -3 12914 842.412 8
-2 -6 3 12801.3 1649.6 69
2 8 -4 2530.9 397.462 8
-2 -8 4 1610.68 477.136 63
2 8 -4 2182.31 371.833 9
-2 -8 4 1517.63 298.196 54
2 8 -4 1901.87 382.481 18
2 8 -4 2490.51 333.479 25
-2 -8 4 1330.44 489.902 70
2 8 -4 2348.54 292.439 16
-2 -8 4 1838.34 296.236 115
2 8 -4 1618.32 356.133 15
-2 -8 4 2231.9 374.241 95
2 8 -4 2040.68 327.029 14
-2 -8 4 1581.7 245.265 73
-2 -10 5 2429.71 286.555 26
2 10 -5 3865.73 295.967 14
-2 11 -6 1559.49 174.174 16
2 -11 6 1135.51 179.211 111
2 -11 6 971.741 220.515 27
2 -9 5 6625.33 1059.55 69
-2 9 -5 7781.8 618.751 8
-2 9 -5 8003.61 575.986 19
-2 9 -5 9085.65 617.906 17
-2 9 -5 7173.49 582.865 25
-2 9 -5 6981.01 640.698 12
2 -9 5 4538.91 538.336 26
-2 9 -5 7979.12 665.473 9
-2 9 -5 6915.32 675.672 10
-2 9 -5 6572.15 597.357 14
2 -9 5 6947.09 1046.67 84
-2 9 -5 5862.33 683.561 18
-2 9 -5 8030.66 605.434 16
2 -9 5 7240.93 932.413 79
2 -7 4 15816 1565.28 69
2 -7 4 16332 1495.82 57
-2 7 -4 16964.4 912.09 12
-2 7 -4 16221.3 791.745 8
2 -7 4 16502.9 1635.29 84
-2 7 -4 16388 1206.15 18
-2 7 -4 17250.8 884.515 16
-2 7 -4 18426.5 874.719 17
-2 7 -4 16625.5 860.709 9
-2 7 -4 20191.7 1194.65 106
-2 7 -4 18180.7 899.624 30
-2 7 -4 19538.1 1088.69 4
-2 7 -4 16457 943.724 14
2 -7 4 17379.4 1379.28 79
-2 7 -4 17521.6 899.744 25
-2 7 -4 16447.5 966.174 10
-2 5 -3 29699.6 1353.45 106
2 -5 3 26416.4 1497.91 59
-2 5 -3 26161.2 878.477 12
2 -5 3 27418.3 1410.22 56
2 -5 3 24682.5 1540.48 57
2 -5 3 19180.2 1069.06 11
2 -5 3 18029.2 1242.91 43
-2 5 -3 30371.3 1407.74 6
-2 5 -3 29879.3 1236.43 37
2 -5 3 36653.7 2072.8 52
2 -5 3 31077.3 1638.52 105
2 -5 3 41018.8 2377 109
-2 5 -3 25552.8 912.996 10
-2 5 -3 29188.6 1042.64 4
-2 5 -3 28058.4 861.325 9
-2 5 -3 24923.8 730.682 8
2 -3 2 293157 5428.42 109
-2 3 -2 310650 2896.3 101
-2 3 -2 296519 3079.41 7
2 -3 2 258168 4200.39 105
2 -3 2 288043 4884.97 52
-2 3 -2 285030 3224.95 6
-2 3 -2 281359 3157.08 37
-2 3 -2 278132 3862.59 106
-2 3 -2 267562 2850.35 50
-2 3 -2 273255 2969.86 108
2 -1 1 23322.3 792.652 1
-2 1 -1 20546.5 730.518 7
2 -1 1 18775.4 838 3
2 -1 1 19745.7 1156.69 105
-2 1 -1 21842.4 831.614 50
2 -1 1 25034.1 827.613 48
-2 1 -1 23197.9 889.459 41
-2 1 -1 21858.1 858.132 101
-2 1 -1 23285.4 895.903 108
-2 1 -1 20952.2 859.342 106
2 1 0 262709 3340.74 3
2 1 0 295273 4021.57 105
-2 -1 0 237350 2339.98 39
2 1 0 269582 1824.15 36
-2 -1 0 247294 2722.46 50
2 1 0 239152 2578.02 107
-2 -1 0 235354 2427.94 100
-2 -1 0 236749 2358.9 7
-2 -1 0 244039 2758.95 108
2 1 0 269043 3114.46 1
-2 -3 1 48029.6 1612.28 35
2 3 -1 46236.5 1416.46 1
2 3 -1 52696.9 1565.81 3
-2 -3 1 44508.7 1267.49 42
2 3 -1 41127.6 1063.67 36
-2 -3 1 43304.4 1101.37 7
2 3 -1 40805.2 1057.48 8
2 3 -1 43808.9 1452.7 107
-2 -3 1 43600.5 1114.39 108
2 3 -1 40831.8 1103.51 9
2 3 -1 40901.9 1136.43 12
2 5 -2 30965.4 1026.47 21
2 5 -2 30584.5 1251.54 18
-2 -5 2 32431.8 1442.43 44
2 5 -2 30943.1 1278.73 36
-2 -5 2 28477.2 2204.96 69
2 5 -2 31515.5 1491.28 107
2 5 -2 26892.3 1150.56 12
-2 -5 2 28206.7 1019.53 90
2 5 -2 30892.5 1288.85 24
2 5 -2 24618.2 943.906 25
-2 -5 2 32915.1 1556.32 103
2 5 -2 28423.4 1152.8 9
2 5 -2 28011.3 1118.07 8
2 5 -2 29431.8 1149.74 15
-2 -7 3 51730.1 1797.29 95
-2 -7 3 32994.2 2191.54 63
-2 -7 3 49215.5 1666.25 54
-2 -7 3 41454.3 1987.41 103
2 7 -3 46561.8 1701.64 8
-2 -7 3 43184.5 1804.85 47
2 7 -3 39551.5 1711.95 18
-2 -7 3 46884 2064.76 44
-2 -7 3 45356 1519.83 115
2 7 -3 36665.3 1618.57 15
2 7 -3 45171.5 1624.12 14
2 7 -3 44294.9 1275.62 16
-2 -7 3 35243 1216.75 90
2 7 -3 49603.2 1827.5 24
2 7 -3 43091 1673.03 9
2 7 -3 43112.4 1345.18 25
-2 -7 3 44718 3225.66 69
-2 -9 4 1243.67 369.778 63
-2 -9 4 842.388 343.067 70
-2 -9 4 1348.02 242.782 95
2 9 -4 1750.36 266.753 14
2 9 -4 1526.16 263.741 8
2 -10 6 1121.41 250.965 111
-2 10 -6 852.305 209.798 10
-2 10 -6 883.238 205.113 12
-2 10 -6 1188.03 207.379 8
-2 10 -6 1110.27 181.446 17
2 -10 6 1223.16 336.056 79
-2 10 -6 990.657 204.941 9
-2 10 -6 857.512 184.892 14
2 -10 6 543.134 239.264 27
-2 10 -6 1094.95 188.117 16
-2 8 -5 824.048 198.109 16
-2 8 -5 947.767 245.994 12
-2 8 -5 1020.8 266.663 4
-2 8 -5 1155.86 329.418 18
-2 8 -5 957.611 203.788 17
-2 8 -5 987.123 230.56 25
-2 8 -5 877.964 214.801 9
2 -8 5 974.341 332.404 79
2 -8 5 398.391 297.537 98
2 -8 5 525.963 186.455 26
-2 8 -5 620.344 188.6 14
2 -8 5 729.862 348.777 69
-2 8 -5 973.701 213.169 30
-2 8 -5 1346.87 246.452 8
-2 8 -5 782.495 232.523 10
2 -8 5 892.92 402.264 84
-2 6 -4 21001.8 913.201 12
-2 6 -4 22421.8 1389.41 18
2 -6 4 18346.7 1075.79 11
-2 6 -4 23413.5 1264.6 37
-2 6 -4 22048.5 890.433 9
-2 6 -4 23818.1 1004.1 17
-2 6 -4 22688.7 967.838 16
2 -6 4 21925.8 1665.83 57
2 -6 4 17152 1388.91 2
-2 6 -4 27002 1169.41 4
-2 6 -4 22668.1 836.023 8
-2 6 -4 23410.7 1000.47 30
-2 6 -4 22677.7 958.988 25
-2 6 -4 26067.1 1447.97 106
2 -6 4 20385 1677.45 84
-2 6 -4 20550.3 958.23 14
2 -6 4 21394.6 1411.7 79
-2 6 -4 21648 972.599 10
-2 6 -4 24629.1 915.667 22
2 -6 4 19633.6 1596.65 69
-2 4 -3 80044.7 1427.99 10
-2 4 -3 81323.3 2025.38 37
-2 4 -3 79556.5 1338.02 12
2 -4 3 58248.4 2405.87 52
2 -4 3 69143.1 2417.14 105
2 -4 3 68313.1 2866.01 109
-2 4 -3 77807.4 1830.18 7
2 -4 3 56301.9 2334.27 2
2 -4 3 83220.8 2465.34 59
-2 4 -3 79259.9 2382.18 106
-2 4 -3 81651.2 2075.59 6
2 -2 2 103272 2590.08 2
-2 2 -2 136241 2210.4 37
-2 2 -2 160092 2499.31 55
2 -2 2 140481 2263.25 3
2 -2 2 144459 2478.45 48
-2 2 -2 147864 2467.35 41
2 -2 2 160582 2198.2 34
2 -2 2 109118 3268.87 109
-2 2 -2 130751 2758.35 106
-2 2 -2 130137 1926.23 6
-2 2 -2 165326 2505.32 101
-2 2 -2 140025 2212.04 7
-2 2 -2 139882 2465.61 108
2 -2 2 135934 1749.71 1
2 -2 2 94866.5 2646.04 105
-2 0 -1 94835.3 1674.54 7
2 0 1 104301 1873.2 1
2 0 1 97383.6 1996.17 3
-2 0 -1 90259.3 1800.61 50
-2 0 -1 94953.1 1900.39 41
2 0 1 115101 2552.95 5
2 0 1 112901 2121.41 98
2 0 1 104181 2338.28 105
-2 0 -1 76660.5 1492.25 106
-2 0 -1 97571.3 2015.46 101
2 0 1 102201 1980.23 2
-2 0 -1 92160.7 1908.51 108
-2 -2 0 20490.1 853.111 50
2 2 0 22669.1 986.695 1
2 2 0 23386.4 1050.71 3
-2 -2 0 21261.4 869.577 100
2 2 0 21896.5 682.309 36
-2 -2 0 20017.2 867.191 108
2 2 0 23623.9 848.362 107
-2 -2 0 20724.2 824.136 39
-2 -2 0 21351.9 767.569 7
-2 -4 1 23109.3 1801.53 69
2 4 -1 27445.9 976.616 15
2 4 -1 23786.8 946.354 8
2 4 -1 25000.1 1011.95 36
-2 -4 1 26346.5 1131.68 42
2 4 -1 30191.4 1300.26 32
2 4 -1 26284.8 1187.44 107
-2 -4 1 27843.2 1435.3 35
2 4 -1 30473.6 1304.05 1
2 4 -1 23082.9 959.365 9
-2 -6 2 23542.4 1855.79 63
-2 -6 2 28328.3 1073.82 90
2 6 -2 34100.4 1393.44 8
2 6 -2 31544.4 1409.12 18
-2 -6 2 38053.4 1752.98 44
2 6 -2 34469.1 1542.36 36
-2 -6 2 39907.2 1916.24 103
2 6 -2 30471.5 1329.74 15
2 6 -2 35131.6 1466.93 24
2 6 -2 30747.1 1355.45 9
2 6 -2 32325.8 1136.21 21
-2 -6 2 32315.3 2637.05 69
-2 -8 3 8809.89 621.668 115
-2 -8 3 10473.6 775.887 95
2 8 -3 11529.8 824.607 8
-2 -8 3 8757.96 1105.79 63
2 8 -3 8875.06 791.976 15
2 8 -3 11945.5 806.354 14
-2 -8 3 10171.9 750.811 54
-2 9 -6 486.21 165.178 12
-2 9 -6 682.861 161.269 19
-2 9 -6 595.542 162.574 8
-2 9 -6 561.562 177.098 10
2 -9 6 683.922 247.789 111
2 -9 6 285.394 222.638 27
-2 9 -6 425.975 132.296 17
-2 9 -6 296.199 114.427 25
2 -9 6 462.581 277.484 84
2 -9 6 837.556 302.441 79
-2 9 -6 772.775 193.503 14
-2 9 -6 505.491 142.417 30
-2 9 -6 474.777 143.188 16
-2 9 -6 478.401 155.848 9
2 -7 5 89177.9 3138.96 79
-2 7 -5 122737 3316.58 106
-2 7 -5 94768 1963.68 8
-2 7 -5 78100.6 1982.87 14
-2 7 -5 115031 2702.54 4
-2 7 -5 87509 2975.52 18
-2 7 -5 94349 2149.99 30
2 -7 5 83749.4 2149.01 11
2 -7 5 46154.2 3013.76 5
-2 7 -5 106015 2253.87 17
-2 7 -5 92014.4 2106 25
-2 7 -5 93331.4 2061.59 16
-2 7 -5 87377.3 2001.52 9
-2 7 -5 86753.2 2077.17 12
-2 7 -5 89106.2 2248.53 10
2 -7 5 88008 3653.96 84
-2 5 -4 38249.5 1098.88 64
-2 5 -4 39700.4 990.056 60
-2 5 -4 44006.2 1036.84 8
-2 5 -4 41037.8 1139.83 12
2 -5 4 43936.1 2140.17 57
-2 5 -4 44457.2 1833.89 18
2 -5 4 37141 1528.22 11
-2 5 -4 46479.2 2084.49 106
-2 5 -4 39049.4 1463.92 7
-2 5 -4 45509 1769.65 37
-2 5 -4 41635.6 1295.96 17
-2 5 -4 41991.4 1104.17 9
2 -5 4 37119 2035.84 2
2 -5 4 37438.3 2151.24 84
2 -5 4 40133.6 1816.02 79
-2 5 -4 46870 1821.96 6
-2 5 -4 40940.7 1280.08 22
-2 5 -4 39448.3 1157.13 10
2 -3 3 52956.9 2142.93 2
-2 3 -3 55075.4 2134.51 106
-2 3 -3 66747.5 1857.6 55
-2 3 -3 62358.3 1746.14 7
-2 3 -3 65169.5 1800.1 41
-2 3 -3 61927.1 1776.23 37
2 -3 3 66048.4 1660.32 34
2 -3 3 39184 2086.05 109
-2 3 -3 61685.8 1779.34 108
2 -3 3 39121.4 1733.07 105
-2 3 -3 57815.4 1588.32 6
-2 3 -3 69336.4 1750.37 101
2 -3 3 60623.5 1265.6 3
2 -1 2 47513.9 1950.31 5
-2 1 -2 47373.8 1347.05 55
-2 1 -2 51063.9 1386.81 37
2 -1 2 57605.8 1551.51 48
2 -1 2 46233.6 1546.85 105
-2 1 -2 50920.5 1553.51 41
2 -1 2 69279 2480 109
2 -1 2 43625.9 1507.85 2
-2 1 -2 41234.9 1542.92 106
-2 1 -2 54537.3 1585.37 101
-2 1 -2 51915.1 1433.14 7
2 -1 2 50152.7 1279.73 1
2 -1 2 45431.5 1723.28 98
-2 1 -2 48198.8 985.184 6
2 -1 2 54732.8 1229.05 53
2 -1 2 51021.1 1443.88 3
-2 -1 -1 14881.4 798.658 50
2 1 1 17578.5 913.56 3
-2 -1 -1 15520.6 835.334 41
2 1 1 18068.5 891.94 1
2 1 1 16513.5 576.244 36
-2 -1 -1 16722.8 926.739 101
-2 -1 -1 15420.6 716.211 7
-2 -1 -1 16507.1 878.91 108
-2 -3 0 298288 3803.19 100
-2 -3 0 300079 3497.26 50
2 3 0 272951 2996.39 8
-2 -3 0 285126 3520.45 42
-2 -3 0 293946 3600.37 39
2 3 0 285407 3050.21 36
-2 -3 0 299515 4351.27 35
-2 -3 0 286461 3026.33 7
2 3 0 323841 4205.3 1
2 3 0 309469 3529.52 107
-2 -3 0 269461 3273.14 108
2 5 -1 143006 2242.57 21
2 5 -1 129676 2530.75 8
2 5 -1 123848 2545.21 18
-2 -5 1 138509 3150.31 44
2 5 -1 131959 2681.1 36
2 5 -1 124185 2521.21 9
2 5 -1 145684 2633.65 15
-2 -5 1 147917 3754.53 35
2 5 -1 135626 2641.43 24
-2 -5 1 123376 4759.2 69
-2 -7 2 12525.3 1371.07 63
2 7 -2 19432.1 1104.17 8
-2 -7 2 19752.2 1329.94 44
-2 -7 2 16288.3 1294.59 103
2 7 -2 16798.5 1072.75 15
2 7 -2 20050.5 1091.93 14
-2 -7 2 11241.2 661.127 90
-2 -7 2 16753.9 901.191 115
-2 -7 2 19452.1 1030.55 54
-2 -7 2 20120.5 2144.26 69
2 9 -3 1694.44 257.988 14
-2 -9 3 1626.67 387.082 63
-2 -9 3 1521.39 242.403 95
-2 -9 3 1539.41 432.369 70
2 9 -3 1525.35 176.835 88
-2 10 -7 5688.22 378.084 16
-2 10 -7 5311.69 443.013 12
-2 10 -7 6121.91 392.173 17
2 -10 7 6490.55 558.012 111
2 -10 7 4438.52 527.001 27
-2 10 -7 5105.78 450.554 10
-2 10 -7 5620.26 445.021 9
-2 8 -6 5787.49 566.717 12
-2 8 -6 8044.26 829.143 106
-2 8 -6 6012.96 519.683 8
-2 8 -6 6783.83 568.366 17
-2 8 -6 6270.03 551.758 30
2 -8 6 6603.84 965.385 84
-2 8 -6 5622.61 498.385 16
-2 8 -6 5777.48 524.784 25
-2 8 -6 5108.03 715.762 18
2 -8 6 6050.56 557.934 110
2 -8 6 6063.62 701.91 111
-2 8 -6 4990.59 501.415 14
2 -8 6 6625.67 851.374 79
2 -8 6 3577.13 686.417 27
-2 8 -6 5903.87 608.166 10
-2 8 -6 6233.57 569.799 9
2 -6 5 79145.8 2340.06 111
-2 6 -5 84529.3 1596.65 60
-2 6 -5 77014.3 1777.77 12
2 -6 5 66007.5 1716.53 29
-2 6 -5 98953.1 2966.75 6
-2 6 -5 79694.7 2709.41 18
2 -6 5 79418.3 2132.53 11
2 -6 5 83983.4 2889 79
-2 6 -5 89345.6 2724.6 37
-2 6 -5 86493 1995.2 17
-2 6 -5 96750.1 2090.14 22
-2 6 -5 79382.4 1900.01 10
-2 6 -5 81927.8 1844.19 16
2 -6 5 53830.5 3190.93 5
-2 6 -5 85309.3 1921 25
-2 6 -5 99736.1 3242.6 106
2 -6 5 84660.4 2043.5 110
-2 6 -5 79399 1930.34 30
2 -6 5 75245.2 2853.37 2
-2 6 -5 107009 2490.61 4
2 -6 5 81972.6 3414.73 84
-2 6 -5 89615.4 1717.79 8
2 -6 5 37357.9 2667.72 98
-2 6 -5 81206.8 1742.8 9
-2 4 -4 100987 1696.71 64
-2 4 -4 102327 1518.4 8
-2 4 -4 99964.1 1634.14 12
-2 4 -4 99090.4 1655.73 10
-2 4 -4 108771 1877.35 61
2 -4 4 104440 2518.77 11
-2 4 -4 109999 2509.68 41
-2 4 -4 101855 2503.44 6
-2 4 -4 102476 2709.99 37
-2 4 -4 95918.9 2206.34 101
2 -4 4 101227 2398.17 34
-2 4 -4 88775.5 2929.7 106
-2 4 -4 102050 2482.04 7
2 -4 4 93155.2 3045.51 2
-2 4 -4 97517.4 2421.27 108
-2 4 -4 103132 1603.06 9
2 -4 4 60770.8 2950.79 5
2 -2 3 96087.6 3014.43 5
-2 2 -3 128875 2646.26 55
2 -2 3 125891 2212.44 3
-2 2 -3 121772 2658.7 41
-2 2 -3 123094 2519.12 37
-2 2 -3 156874 3611.58 106
2 -2 3 136351 3477.22 109
-2 2 -3 111783 2021.53 6
-2 2 -3 134046 2719.65 101
2 -2 3 90895.9 2849.99 98
2 -2 3 104666 2365.23 105
2 -2 3 128089 2700.02 48
-2 2 -3 116922 2488.04 7
2 -2 3 107134 2735 2
2 0 2 63536.5 1744.35 2
-2 0 -2 50477.9 1396.98 55
2 0 2 68529.3 1860.44 3
-2 0 -2 60755.4 1844.81 41
2 0 2 77824.6 2472.8 5
2 0 2 87535.6 2257.66 98
2 0 2 69844.1 1943.88 105
-2 0 -2 61273.2 1667.16 7
-2 0 -2 68163 1990.45 101
-2 0 -2 43519.8 1552.22 106
2 0 2 67638 1766.45 1
2 2 1 23293.6 1152.33 1
-2 -2 -1 18036.2 999.512 108
-2 -2 -1 17833.2 953.859 50
2 2 1 23396.6 1194.68 3
-2 -2 -1 18939.2 903.736 39
2 2 1 20643.6 786.983 36
-2 -2 -1 19693.1 862.499 7
-2 -2 -1 19965.1 1158.13 101
-2 -2 -1 19819.3 964.498 100
2 2 1 18989.8 762.236 8
2 4 0 23113.2 993.515 8
-2 -4 0 24104.7 1426.48 35
-2 -4 0 23119 1134.08 42
2 4 0 25206.7 962.078 15
2 4 0 23243.9 1020.89 36
-2 -4 0 25394.1 1281 100
-2 -4 0 20648.4 1772.1 69
2 4 0 25145.4 871.167 21
-2 -6 1 21507.9 1733.9 63
2 6 -1 33903.1 1427.16 8
-2 -6 1 32249.5 1650.8 44
2 6 -1 31889.9 1309.32 24
-2 -6 1 32152.4 1821.93 103
2 6 -1 33161.2 1395.56 15
-2 -6 1 23214.8 960.628 90
2 6 -1 33930.3 1149.38 21
-2 -6 1 29840.4 2519.25 69
-2 -8 2 8635.97 659.682 54
-2 -8 2 8115.67 648.198 95
-2 -8 2 6775.09 937.736 63
-2 -8 2 5350.72 451.849 115
2 8 -2 7950.93 711.742 15
2 8 -2 9627.67 694.001 14
-2 9 -7 276.126 122.705 12
2 -9 7 127.798 90.0192 111
-2 9 -7 297.247 105.307 17
-2 9 -7 250.879 99.7767 8
-2 9 -7 210.091 90.5413 30
-2 9 -7 249.078 95.3127 16
-2 9 -7 277.471 119.804 10
2 -9 7 149.197 105.386 27
-2 9 -7 201.059 91.3411 25
-2 9 -7 196.966 93.83 9
2 -7 6 6648.85 1161.03 98
2 -7 6 6060.24 875.683 27
-2 7 -6 9330.17 605.044 8
-2 7 -6 8531.25 677.504 10
2 -7 6 8088.51 1011.26 48
-2 7 -6 8401.17 657.736 12
-2 7 -6 8987.95 954.144 18
-2 7 -6 9076.93 650.527 9
2 -7 6 8937.99 660.01 11
-2 7 -6 10817.8 739.367 17
2 -7 6 9427.04 723.208 110
-2 7 -6 9485.74 674.341 25
-2 7 -6 12515.2 1151.23 106
-2 7 -6 8821.37 676.983 30
-2 7 -6 9087.33 630.509 16
2 -7 6 9050.6 837.736 111
2 -7 6 10251.6 1048.34 79
-2 7 -6 11637.6 707.461 22
-2 7 -6 11544.8 864.1 4
-2 5 -5 1932.23 262.059 64
2 -5 5 2303.9 410.869 34
-2 5 -5 2358.21 258.323 8
-2 5 -5 2255.01 255.495 60
-2 5 -5 2024.23 267.191 12
2 -5 5 1368.99 383.83 48
-2 5 -5 2546.42 448.959 18
2 -5 5 2109.19 358.383 11
-2 5 -5 2293.13 449.098 37
2 -5 5 1957.14 347.67 111
2 -5 5 1048.65 447.788 98
-2 5 -5 2076.31 282.288 16
-2 5 -5 1854.09 304.749 17
-2 5 -5 2594.23 524.083 106
-2 5 -5 2193.67 281.993 10
2 -5 5 1803.54 555.469 5
-2 5 -5 2126.67 397.652 7
2 -5 5 2221.55 487.116 79
-2 5 -5 2829.01 299.449 9
2 -5 5 2380.25 561.082 84
2 -5 5 2109.85 310.638 110
-2 5 -5 2307.44 296.895 25
2 -5 5 2649.6 356.482 29
2 -5 5 2477.75 525.704 2
-2 5 -5 2471.35 447.95 6
2 -5 5 1214 379.491 27
-2 5 -5 1841.71 296.75 22
-2 3 -4 100222 1800.38 61
2 -3 4 111208 2436.34 11
-2 3 -4 110684 2659.74 55
2 -3 4 92167.1 3337.88 5
2 -3 4 104669 2819.84 48
2 -3 4 83986.7 3208.86 98
-2 3 -4 109819 1664.76 10
-2 3 -4 111950 2805.86 41
-2 3 -4 120817 2930.85 37
2 -3 4 104932 2015.45 34
-2 3 -4 91606.9 3034.97 106
-2 3 -4 115741 2870.88 7
-2 3 -4 108768 2733.75 101
2 -3 4 102183 2960.08 2
-2 3 -4 109540 2458.4 6
-2 1 -3 81798.8 2080.65 55
2 -1 3 107582 2030.21 53
-2 1 -3 88762.6 1548.71 6
2 -1 3 99971.6 2263.42 3
-2 1 -3 88329.9 2488.51 41
-2 1 -3 89847.5 2182.64 37
2 -1 3 94397.6 2140.25 105
-2 1 -3 92747.9 2543.51 101
-2 1 -3 91770 2336.25 7
2 -1 3 95149 2684.51 98
2 -1 3 95891.7 2972.37 5
2 -1 3 84790.1 2249.72 2
-2 -1 -2 379577 5123.3 108
-2 -1 -2 380443 5047.29 41
-2 -1 -2 394772 4412.37 7
-2 -1 -2 401706 5444.3 101
-2 -3 -1 13074.8 864.103 50
-2 -3 -1 14285.6 885.177 39
2 3 1 13820.9 741.25 36
2 3 1 14745.2 654.189 21
-2 -3 -1 11724.3 846.999 108
-2 -3 -1 13928.3 916.83 100
-2 -3 -1 13470.1 733.237 7
2 3 1 14406.9 695.492 15
2 3 1 12876.6 593.237 113
-2 -5 0 1836.5 371.437 44
-2 -5 0 1365.65 305.216 42
2 5 0 1458.28 291.984 36
-2 -5 0 1616.67 407.669 35
2 5 0 1927.99 304.564 15
2 5 0 1566.85 293.497 8
2 5 0 1626.26 243.271 21
-2 -5 0 1091.51 459.367 69
-2 -7 1 31342.3 1283.3 54
-2 -7 1 22976.4 1017.56 115
-2 -7 1 31652.9 1654.25 44
2 7 -1 30122.3 1399.14 15
-2 -7 1 23506.8 1820.76 63
2 7 -1 33388.2 1327.84 14
-2 -7 1 33662.1 2597.72 69
2 9 -2 1568.58 207.581 14
-2 -9 2 1408.49 213.914 95
2 9 -2 1726.22 185.286 88
-2 10 -8 6476.48 349.648 17
2 -10 8 6302.55 478.121 27
-2 8 -7 20450.9 928.014 25
-2 8 -7 18874.2 969.877 12
-2 8 -7 21799.4 946.809 8
2 -8 7 21659.7 1252.71 111
2 -8 7 19328.2 1515.24 48
-2 8 -7 21157.3 897.251 16
-2 8 -7 22571.1 977.021 17
-2 8 -7 19028 940.866 30
2 -8 7 20965.4 1016.95 110
-2 8 -7 19532.7 939.701 9
-2 8 -7 24457.2 1431.13 106
-2 8 -7 19125.9 1028.34 10
2 -8 7 16009.6 1236.7 27
2 -6 6 53490.8 2405.9 27
-2 6 -6 65511 1767.78 10
-2 6 -6 70505.3 1534.06 60
-2 6 -6 70190.9 1541.47 8
2 -6 6 64332.5 1849.92 29
2 -6 6 58857.1 2668.78 48
2 -6 6 69024.1 2025.35 11
-2 6 -6 66555.6 1711.81 12
2 -6 6 70918.8 1954 110
-2 6 -6 71111.7 2757.16 37
2 -6 6 74295.7 2901.69 2
-2 6 -6 70254.6 1889.55 17
-2 6 -6 71790 1729.17 16
2 -6 6 65297.3 3448.98 5
-2 6 -6 74171.5 2907.58 106
-2 6 -6 84256.4 2856.6 6
2 -6 6 66418.1 2218.29 111
2 -6 6 49847.8 3010.94 98
-2 6 -6 72653.6 1777.4 25
-2 6 -6 72184 1891.34 22
-2 6 -6 66612.5 1641.41 9
2 -6 6 52744.4 2161.08 83
-2 4 -5 6239.95 406.816 8
-2 4 -5 6023.07 471.476 61
-2 4 -5 6806.07 463.538 12
-2 4 -5 6233.88 672.28 101
2 -4 5 4602.48 590.439 83
2 -4 5 6736.55 636.133 111
2 -4 5 5544.2 727.264 48
-2 4 -5 6304.85 707.086 41
2 -4 5 4265.6 770.522 98
-2 4 -5 7553.93 837.911 37
2 -4 5 7028.64 583.168 29
-2 4 -5 6903.76 715.453 6
-2 4 -5 6419.12 451.846 10
2 -4 5 5930.5 504.508 110
-2 4 -5 6479.94 433.343 9
-2 4 -5 4722.85 745.316 106
2 -4 5 5257.15 704.74 27
2 -4 5 6715.74 824.962 2
2 -4 5 6577.85 632.931 11
-2 4 -5 6724.88 754.036 7
2 -4 5 6444.16 998.821 5
-2 4 -5 5718.94 686.595 108
-2 4 -5 4926.49 481.935 17
-2 4 -5 6314.35 458.223 64
2 -2 4 20739.3 1466.61 5
-2 2 -4 22575.5 1296.74 7
2 -2 4 20712.9 999.372 53
2 -2 4 22304.4 1306.54 48
-2 2 -4 20976.1 1309.12 41
-2 2 -4 21388.2 1230.93 37
2 -2 4 18191.8 1186.18 2
2 -2 4 17772.9 881.979 11
-2 2 -4 21211 1322.63 101
2 -2 4 18048.2 1321.94 98
-2 2 -4 18199.6 681.603 10
-2 2 -4 17716 1096.53 55
-2 2 -4 20243.4 973.849 6
-2 2 -4 14789.4 1272.06 106
-2 0 -3 2731.97 393.857 55
2 0 3 3812.83 637.687 5
2 0 3 2644.62 304.596 11
-2 0 -3 2701.19 478.737 41
2 0 3 2921.16 441.089 3
-2 0 -3 2669.85 415.932 7
-2 0 -3 1825.61 399.001 106
-2 -2 -2 44820.1 2032.18 101
2 2 2 45325.3 1167.38 85
-2 -2 -2 43076.7 1637.77 100
-2 -2 -2 41058.7 1775.63 41
-2 -2 -2 41337.2 1534.99 39
2 2 2 47581.3 1400.41 36
-2 -2 -2 37459.4 1661.55 50
2 2 2 44987.9 1174.53 21
-2 -2 -2 42496.3 1489.18 7
2 2 2 38942.9 1055.91 113
-2 -2 -2 39447.3 1785.92 108
-2 -4 -1 2545.13 440.742 100
-2 -4 -1 1966.08 356.011 42
-2 -4 -1 2327.47 399.603 39
-2 -4 -1 1642.99 405.333 35
2 4 1 1751.75 200.492 89
2 4 1 3126.93 359.065 15
2 4 1 2528.69 359.755 36
2 4 1 2745.05 303.385 21
-2 -6 0 42064.3 2325.6 63
2 6 0 59509.5 1723.7 14
-2 -6 0 44411.3 2239.6 103
-2 -6 0 60793.9 2310.83 44
2 6 0 67243.5 1600.9 21
2 6 0 68033.3 1971.96 15
-2 -6 0 60390.9 3357.14 69
-2 -8 1 2126.91 309.365 54
2 8 -1 2786.41 303.484 88
2 8 -1 2170.35 335.377 15
-2 -8 1 1254.8 195.475 115
2 8 -1 2406.11 291.62 14
-2 -8 1 2044.33 298.032 95
-2 -8 1 1930.98 441.264 63
-2 -8 1 1495.58 488.382 70
-2 9 -8 1884.21 261.334 9
-2 9 -8 2386.74 272.453 8
2 -9 8 2487.61 350.228 111
-2 9 -8 2505.54 269.705 17
-2 9 -8 2041.87 282.658 10
2 -9 8 1912.87 332.168 27
-2 9 -8 1912.52 243.801 30
-2 9 -8 2159.48 290.317 12
-2 9 -8 2049.68 217.078 16
-2 7 -7 5925.67 515.464 9
-2 7 -7 5709.66 465.907 8
-2 7 -7 6657.64 828.89 106
-2 7 -7 5979.72 498.309 25
-2 7 -7 6900.94 520.379 16
2 -7 7 4902.9 776.305 48
-2 7 -7 5583.04 524.078 12
2 -7 7 6465.58 594.947 110
2 -7 7 5922.45 534.455 11
-2 7 -7 6287.01 551.738 17
2 -7 7 4920.7 700.182 27
-2 7 -7 5370.41 524.646 10
2 -7 7 6148.58 679.365 111
-2 7 -7 5974.7 557.719 30
2 -7 7 5018.34 500.047 29
-2 7 -7 6930.89 551.483 22
-2 5 -6 8467.22 511.7 8
-2 5 -6 9513.49 560.406 60
-2 5 -6 8386.07 585.313 12
2 -5 6 8251.31 705.324 11
-2 5 -6 9325.25 1017.03 37
-2 5 -6 7678.91 631.874 17
2 -5 6 9028 800.559 111
2 -5 6 8571.03 1206.83 5
2 -5 6 7214.89 1129.24 98
-2 5 -6 9679.4 613.358 64
2 -5 6 9004.24 687.161 110
-2 5 -6 8293.43 1012.63 106
2 -5 6 7487.55 840.649 27
-2 5 -6 8181.39 891.324 7
2 -5 6 7412.8 928.972 48
-2 5 -6 9317.45 579.685 9
2 -5 6 8419.8 690.196 29
2 -5 6 10234.7 953.448 83
-2 5 -6 9658.81 947.055 6
-2 5 -6 8168.41 577.572 10
-2 5 -6 7339.43 629.59 22
2 -5 6 9145.25 1016.13 2
-2 3 -5 6532.64 502.258 61
-2 3 -5 7208.78 466.497 12
2 -3 5 6804.48 548.515 110
-2 3 -5 7576.56 786.009 55
2 -3 5 7260.51 654.381 53
2 -3 5 6599.06 602.26 11
-2 3 -5 8028.28 873.181 41
2 -3 5 6954.35 816.837 48
-2 3 -5 8095.28 860.909 37
2 -3 5 6948.42 936.529 5
2 -3 5 7045.16 578.955 29
-2 3 -5 5723.29 859.432 106
2 -3 5 7034.57 716.105 27
-2 3 -5 6837.24 812.624 7
2 -3 5 7172.51 928.589 98
2 -3 5 6851.4 684.926 83
-2 3 -5 7490.7 704.713 6
2 -3 5 6598.2 783.057 2
-2 3 -5 6823.23 452.927 10
-2 3 -5 4800.05 474.144 17
-2 3 -5 7645.45 846.459 101
2 -1 4 49633.4 1410.01 29
-2 1 -4 41752.3 1730.77 55
2 -1 4 54257.1 1666.75 53
2 -1 4 40422 1309.93 11
-2 1 -4 44997.1 2093.17 41
-2 1 -4 44715 1771.18 37
2 -1 4 50521.8 2377.88 5
2 -1 4 43008.8 1781.31 2
-2 1 -4 47331.1 2175.5 101
-2 1 -4 46166.3 1947.97 7
2 -1 4 55634.6 2318.02 98
-2 1 -4 29746.6 1838.94 106
2 -1 4 41293.2 1439.07 91
-2 1 -4 26797.1 1219.71 67
2 -1 4 42721 1279.45 21
2 1 3 373.1 122.829 11
2 1 3 261.172 98.9462 21
2 1 3 485.052 134.401 15
-2 -1 -3 425.46 195.021 41
-2 -1 -3 294.889 128.79 7
-2 -1 -3 312.444 200.835 101
2 1 3 854.681 175.598 13
2 1 3 406.007 130.774 85
-2 -1 -3 172.784 118.685 108
2 3 2 56046 1282.59 27
-2 -3 -2 58534.5 2101.82 50
2 3 2 69741 1915.63 36
-2 -3 -2 64273.2 2125.51 39
2 3 2 58803.4 1402.75 113
2 3 2 74838.1 1725.88 15
2 3 2 67912.9 1519.05 21
-2 -3 -2 64818.1 2229.72 100
2 3 2 67399.8 1564.33 13
-2 -3 -2 57551.1 2155.35 108
-2 -5 -1 29169.6 1840.14 63
-2 -5 -1 41033.3 1731.02 42
-2 -5 -1 31459 1895.65 35
2 5 1 50435.8 1594.07 15
2 5 1 38491.7 1282.59 14
2 5 1 48651.7 1341.7 21
-2 -7 0 2620.08 545.446 63
2 7 0 3743.98 457.397 15
-2 -7 0 2073.12 287.551 115
-2 -7 0 3375.28 406.6 54
2 7 0 3352.4 349.326 14
2 -8 8 3064.82 360.453 110
-2 8 -8 2967.47 362.682 12
-2 8 -8 3296.23 338.713 8
-2 8 -8 2817.81 355.221 10
-2 8 -8 3473.85 354.363 17
-2 8 -8 3242.23 362.596 30
2 -8 8 3140.65 471.081 27
2 -8 8 2570.42 388.382 53
-2 8 -8 2888.49 339.745 9
-2 6 -7 17959.1 957.434 22
-2 6 -7 17595.8 903.224 12
-2 6 -7 18529.1 878.196 9
-2 6 -7 17915.1 926.187 10
2 -6 7 17987 1028.07 29
2 -6 7 15602.9 1081.34 53
2 -6 7 19130.5 1195.91 111
2 -6 7 18177.2 1008.54 110
2 -6 7 19142.6 1021.33 11
-2 6 -7 19383.5 1534.33 37
-2 6 -7 18876.7 979.907 17
-2 6 -7 18285.8 793.4 60
-2 6 -7 17213.7 986.505 30
2 -6 7 16752.8 1250.77 27
-2 6 -7 18563.8 798.058 8
-2 6 -7 19009.8 1497.07 106
2 -6 7 16284.7 1413.86 48
-2 4 -6 12483.6 695.759 64
-2 4 -6 11330.4 1067.49 101
-2 4 -6 12545.2 720.133 61
-2 4 -6 13556.6 684.834 9
-2 4 -6 12904.7 690.901 12
2 -4 6 13113.7 868.214 29
2 -4 6 12390.2 923.597 53
2 -4 6 11632.9 768.274 110
2 -4 6 13279.9 903.108 11
-2 4 -6 13456.5 1154.19 41
-2 4 -6 14673.1 1307.51 37
-2 4 -6 10690.6 760.646 17
-2 4 -6 9476.99 1132.76 106
-2 4 -6 12811.4 625.242 8
-2 4 -6 13272.5 1217.97 7
2 -4 6 12849.7 1025.39 27
2 -4 6 11183.6 1239.94 98
2 -4 6 14997.9 1314.46 2
-2 4 -6 12527.4 669.988 10
2 -4 6 11392.3 890.601 83
2 -4 6 11552.9 1138.51 48
-2 4 -6 14851.9 1141.57 6
2 -4 6 15200.5 1525.62 5
-2 4 -6 11250.6 1088.35 108
2 -2 5 7668.11 674.448 53
-2 2 -5 6560.06 753.997 55
-2 2 -5 7142.39 839.583 7
2 -2 5 6226.85 539.729 11
-2 2 -5 7593.61 929.063 41
-2 2 -5 7099.77 799.387 37
2 -2 5 8585.1 1042 5
-2 2 -5 6631 451.314 10
-2 2 -5 5653.12 878.165 106
2 -2 5 5468.17 440.018 85
-2 2 -5 6761.19 900.443 101
2 -2 5 6905.41 786.035 2
2 -2 5 7834.78 681.886 27
2 -2 5 8065.82 698.681 83
2 -2 5 6698.47 565.23 29
2 -2 5 7470.86 894.136 98
2 -2 5 4864.38 521.784 91
2 -2 5 6457.36 524.174 21
-2 0 -4 5849.79 669.925 55
-2 0 -4 6649.28 862.38 41
2 0 4 6004.2 504.754 11
2 0 4 5785.35 479.562 27
-2 0 -4 3896.96 670.287 106
-2 0 -4 6457.8 868.556 101
-2 0 -4 2490.25 413.597 62
2 0 4 7063.47 642.438 91
2 0 4 5804.93 465.327 85
2 0 4 8238.09 738.948 83
-2 0 -4 6213.71 728.205 7
2 0 4 6488.99 506.799 21
-2 -2 -3 39966.9 1637.78 7
2 2 3 41374.1 1207.27 19
2 2 3 43131.5 1267.03 21
-2 -2 -3 37690 1893.82 50
-2 -2 -3 44180.6 2287.28 101
-2 -2 -3 40572.4 2039.65 41
-2 -2 -3 38543.1 1663.74 39
-2 -2 -3 39395.2 2041.63 108
2 2 3 41127.1 1281.26 13
-2 -2 -3 37595.9 1717.33 100
2 2 3 46918.4 1404.59 15
2 2 3 34318.9 1029.01 27
2 2 3 37776.1 1179.34 113
2 2 3 43185.4 1300.09 85
-2 -4 -2 69442.2 2262.4 42
2 4 2 59480.7 1248.4 89
-2 -4 -2 52785.7 2444.51 35
-2 -4 -2 74883.5 2552.46 100
2 4 2 95759 2093.17 15
-2 -4 -2 79368.3 2507.85 39
2 4 2 85171.1 1775.18 21
2 6 1 35130 1107.96 21
2 6 1 33216.4 1329.5 15
-2 -8 0 206.008 76.1743 95
-2 -8 0 150.723 193.652 70
2 8 0 407.81 106.382 88
-2 9 -9 1889.86 193.665 17
2 -9 9 2111.43 259.618 27
2 -7 8 74.3119 73.4287 29
-2 7 -8 108.975 51.8251 9
2 -7 8 216.846 117.878 53
-2 7 -8 189.655 103.814 12
2 -7 8 -86.4569 104.973 48
-2 7 -8 206.357 99.7523 10
-2 7 -8 343.446 111.788 8
2 -7 8 98.3727 65.6246 11
-2 7 -8 97.7884 61.8669 17
-2 7 -8 128.811 117.672 106
2 -7 8 101.518 74.4661 110
2 -7 8 177.073 77.7455 21
-2 7 -8 104.413 69.7578 23
-2 7 -8 125.754 71.8939 30
-2 7 -8 254.424 100.838 22
2 -7 8 44.0447 76.9304 27
-2 5 -7 24866.1 1019.77 64
-2 5 -7 25906.6 922.929 8
-2 5 -7 26085.8 970.03 60
2 -5 7 31278.5 2269.75 5
-2 5 -7 24345.3 1011.72 10
2 -5 7 23727.4 1322.28 53
-2 5 -7 25089.4 1044.74 12
2 -5 7 26232.8 1797.28 48
2 -5 7 26722 1279.35 11
-2 5 -7 31628.1 2007.26 37
-2 5 -7 24640.1 1157.55 17
-2 5 -7 23832.5 1793.14 106
2 -5 7 27325.4 1288.61 29
2 -5 7 26566.5 1445.38 27
-2 5 -7 26796.5 1040.66 9
2 -5 7 26220.4 2025.13 98
-2 5 -7 27738.3 1668.28 6
-2 5 -7 19920.6 1073.62 22
2 -5 7 25065.2 1181.23 110
-2 5 -7 22366.3 1597.79 7
-2 3 -6 16499.7 1406.67 7
-2 3 -6 14535.1 814.206 61
-2 3 -6 16148.5 763.894 12
-2 3 -6 15959.2 749.625 10
-2 3 -6 16134.8 1268.68 55
2 -3 6 15618.5 952.111 11
-2 3 -6 16869 1446.3 41
-2 3 -6 17383.2 1381.26 37
2 -3 6 19761.9 1685.05 5
2 -3 6 16014.4 942.544 29
-2 3 -6 12979.8 1420.48 106
2 -3 6 17502.8 1090.85 53
2 -3 6 17755.2 1050.53 83
-2 3 -6 15753.3 1430.06 101
2 -3 6 17568.6 1490.21 98
2 -3 6 16443.2 1050.79 27
2 -3 6 14080.9 827.198 21
2 -3 6 10113.6 814.581 91
-2 3 -6 12376 814.65 17
-2 1 -5 5618.08 726.121 55
-2 1 -5 6633.99 927.737 41
2 -1 5 5065.96 489.038 11
2 -1 5 5687.38 506.465 21
-2 1 -5 4243.79 786.647 106
-2 1 -5 6104.25 894.562 101
-2 1 -5 5543.18 760.1 7
2 -1 5 5568.29 481.129 85
2 -1 5 6127.78 616.272 91
2 -1 5 7404.39 684.559 83
2 -1 5 5645.33 534.872 27
-2 -1 -4 49516.2 2552.58 101
2 1 4 50201.8 1488.4 11
2 1 4 49246.3 1337.53 19
-2 -1 -4 47014.7 2358.6 41
-2 -1 -4 43148.5 2327.13 108
2 1 4 44146.7 1291.47 27
-2 -1 -4 46319.9 1980 7
2 1 4 44133.3 1198.49 26
2 1 4 54454.9 1562.62 15
2 1 4 50150.3 1462.97 85
2 1 4 50102 1443.13 21
-2 -3 -3 61434.9 2369.61 50
2 3 3 71879.7 1639.84 19
-2 -3 -3 64276.6 2304.13 39
2 3 3 65448.8 1630.31 113
2 3 3 63252.5 1468.64 27
-2 -3 -3 62542 2386 100
2 3 3 73506.4 1688.69 21
-2 -3 -3 60589.3 2427.03 108
-2 -5 -2 35942.2 1798.73 44
-2 -5 -2 43845.6 1811.97 42
2 5 2 67681.8 1845.88 15
2 5 2 42276.7 1023.56 89
2 5 2 58199.9 1459.38 21
-2 -7 -1 2277.67 570.983 70
2 7 1 4074.17 348.501 88
-2 8 -9 5422.22 427.473 12
-2 8 -9 5533.33 375.644 8
-2 8 -9 5688.85 422.918 30
-2 8 -9 5754.29 422.377 9
2 -8 9 5732.79 484.693 27
2 -8 9 5118.86 403.304 91
-2 8 -9 6604.76 418.271 17
2 -6 8 2210.61 376.761 53
-2 6 -8 2011.58 325.023 30
2 -6 8 2347.82 334.673 11
-2 6 -8 2183.5 508.735 106
-2 6 -8 1919.77 298.456 17
2 -6 8 1300.26 285.616 91
2 -6 8 2241.02 353.419 29
-2 6 -8 2209.52 313.327 12
-2 6 -8 2025.18 257.976 60
-2 6 -8 2023.32 251.965 8
-2 6 -8 2148.16 287.181 9
-2 6 -8 2158.72 322.947 22
-2 6 -8 2446.91 329.22 10
2 -6 8 1835.91 359.785 27
2 -6 8 2071.31 314.487 21
-2 4 -7 4614.68 439.681 64
-2 4 -7 4521.56 392.898 8
-2 4 -7 3534.21 478.913 22
-2 4 -7 4957.41 472.564 61
-2 4 -7 4944.95 449.204 12
2 -4 7 3649.25 501.901 91
2 -4 7 4761.1 590.045 53
-2 4 -7 5559.02 822.39 41
2 -4 7 4845.73 545.771 11
-2 4 -7 5741.62 846.623 37
2 -4 7 6458.43 1046.03 5
2 -4 7 4693.88 532.312 29
-2 4 -7 4568.09 744.139 108
-2 4 -7 4509.54 506.492 30
2 -4 7 6083.65 938.801 98
-2 4 -7 4933.53 432.102 9
-2 4 -7 4371.92 491.679 17
-2 4 -7 5125.93 914.941 106
-2 4 -7 5007.43 441.828 10
2 -4 7 5221.37 609.901 27
2 -4 7 4568.15 490.098 21
-2 4 -7 5124.94 809.83 7
-2 2 -6 4152.6 457.63 61
-2 2 -6 4375.94 393.204 10
-2 2 -6 5461.53 777.518 55
-2 2 -6 4225.44 771.034 41
2 -2 6 4215.14 476.553 11
-2 2 -6 3853.36 689.812 7
-2 2 -6 4401.99 818.377 101
-2 2 -6 4185.46 834.637 106
2 -2 6 4720.04 552.793 91
2 -2 6 4626.59 524.041 27
2 -2 6 3529.57 388.892 85
2 -2 6 5776.55 603.196 83
2 -2 6 4146.52 476.763 29
-2 2 -6 4353.51 804.822 108
2 -2 6 3480.36 416.85 21
-2 0 -5 60285.8 2314.93 55
-2 0 -5 56624 2866.76 101
-2 0 -5 57679.2 2790.07 41
2 0 5 54229.5 1589.58 11
2 0 5 50325.6 1272.24 26
-2 0 -5 53342.2 2743.37 108
2 0 5 55704.2 1605.41 27
-2 0 -5 52468.6 2307.32 7
2 0 5 53914.7 1634.35 15
2 0 5 61846.1 1677.86 85
2 0 5 56696.6 1625.8 21
-2 -2 -4 11424.3 1179.72 108
2 2 4 12715.7 734.162 21
2 2 4 12619 696.009 19
-2 -2 -4 11517.6 1132.67 50
-2 -2 -4 14881.9 1444.78 101
2 2 4 11034.8 638.879 27
2 2 4 13514.6 773.39 113
2 2 4 14734.1 826.05 15
-2 -2 -4 11310.3 988.992 39
-2 -2 -4 10679.1 1003.27 100
2 2 4 13624 781.763 85
2 4 3 457.543 110.411 89
2 4 3 535.865 142.75 21
-2 -4 -3 393.768 184.673 42
-2 -4 -3 1088.11 298.641 39
-2 -4 -3 1226.38 338.739 100
-2 -4 -3 14.8871 128.115 70
2 4 3 693.616 179.445 15
-2 -6 -2 5729.06 926.693 70
2 6 2 11690.1 600.011 88
-2 7 -9 1009.28 194.382 12
-2 7 -9 984.91 161.863 8
2 -7 9 913.306 169.327 21
-2 7 -9 819.83 147.701 23
2 -7 9 885.996 155.645 11
-2 7 -9 865.354 183.282 30
-2 7 -9 1070.42 185.382 17
2 -7 9 1212.65 222.472 91
-2 7 -9 1063.82 186.069 9
-2 7 -9 1061.74 177.327 22
2 -7 9 1064.51 219.343 27
2 -5 8 21217.5 1189.92 53
-2 5 -8 22452.3 855.244 8
2 -5 8 20433.4 1143.95 27
-2 5 -8 20182.7 888.447 10
-2 5 -8 21467.7 909.904 9
2 -5 8 22926.6 1107.44 11
-2 5 -8 21493.2 932.255 64
-2 5 -8 21984.2 1036.51 17
-2 5 -8 21178.6 1044.94 30
-2 5 -8 25559.8 1863.01 106
-2 5 -8 21924.3 879.21 60
2 -5 8 19762.7 1131.66 91
-2 5 -8 21433.3 950.342 12
-2 5 -8 19280.7 1043.65 22
2 -5 8 19841.5 989.209 21
2 -5 8 23282.8 1155.79 29
-2 3 -7 1595.58 264.834 64
-2 3 -7 1723.42 254.351 9
2 -3 7 1543.91 316.401 27
-2 3 -7 1800.65 262.125 12
-2 3 -7 1654.21 300.591 17
2 -3 7 1477.5 276.099 21
-2 3 -7 1730.51 494.552 41
2 -3 7 1710.9 309.901 11
-2 3 -7 1377.11 255.21 30
2 -3 7 1704.08 312.703 29
-2 3 -7 1372.57 475.747 108
-2 3 -7 1691.74 461.47 7
-2 3 -7 1335.22 465.259 101
-2 3 -7 2179.96 285.507 10
2 -3 7 1798.15 350.288 91
-2 3 -7 1403.43 255.487 61
-2 3 -7 1420.04 484.51 106
-2 1 -6 9730.58 590.945 10
-2 1 -6 11808.2 1106.64 55
2 -1 6 10751 759.452 27
-2 1 -6 8745.29 1168.52 106
-2 1 -6 11358.4 1301.87 41
2 -1 6 9085.52 669.996 11
-2 1 -6 10072.9 1254.25 108
-2 1 -6 9742.07 1247.69 101
-2 1 -6 9331.89 1031.43 7
2 -1 6 10204.1 686.856 85
2 -1 6 11830 911.472 91
2 -1 6 9136.76 681.096 21
-2 -1 -5 36076.1 2115.24 50
-2 -1 -5 39817 2328.3 41
2 1 5 40975.7 1405.08 11
2 1 5 44404.1 1445.33 85
2 1 5 39315.9 1287.17 27
2 1 5 41879.7 1220.66 26
-2 -1 -5 35174.7 1808.53 7
-2 -1 -5 40906.3 2475.56 101
-2 -1 -5 36430 2224.35 108
2 1 5 48647.6 1528.01 15
2 1 5 42731.6 1426.97 21
-2 -3 -4 18083.1 1307.12 50
-2 -3 -4 18971 1289.6 39
2 3 4 22293.7 998.004 113
-2 -3 -4 15701.3 1257.57 108
-2 -3 -4 19030.8 1352.69 100
2 3 4 18390.2 769.447 88
2 3 4 24404.7 1002.66 21
2 5 3 5645.41 351.677 89
2 5 3 4568.6 370.73 88
2 7 2 10847.6 443.794 88
2 -6 9 86.2326 59.8868 21
2 -6 9 95.0895 65.6835 11
-2 6 -9 10.8338 22.3428 60
-2 6 -9 11.0976 27.7552 12
-2 6 -9 91.4981 42.8723 8
-2 6 -9 -34.5877 38.6082 17
-2 6 -9 11.327 42.4629 30
2 -6 9 -0.28412 34.6211 91
2 -6 9 40.714 38.8531 27
-2 6 -9 58.655 66.6646 23
-2 6 -9 41.048 41.5877 9
-2 6 -9 20.7297 53.88 22
-2 4 -8 11733.5 618.807 8
-2 4 -8 11039.9 654.41 12
-2 4 -8 8490.01 949.992 50
2 -4 8 9735.95 688.079 21
2 -4 8 11141.5 767.672 11
-2 4 -8 10916.3 706.116 17
-2 4 -8 8804.42 1020.96 108
-2 4 -8 9241.65 644.614 30
2 -4 8 12272.5 891.758 91
-2 4 -8 10362.4 598.41 10
-2 4 -8 10203.7 1198.29 106
2 -4 8 11700.4 827.648 27
-2 4 -8 11880.1 663.547 9
-2 4 -8 8456.53 735.781 22
-2 4 -8 10565.8 658.643 64
-2 2 -7 46635.8 1510.87 61
-2 2 -7 49588.5 1334.02 12
-2 2 -7 51616.8 2790.31 41
2 -2 7 46971.5 1561.08 11
-2 2 -7 51818.9 1337.45 10
-2 2 -7 45527.8 2627.7 108
2 -2 7 46772.1 1402.19 85
-2 2 -7 37496.4 2395.16 106
-2 2 -7 50061.3 2787.9 101
2 -2 7 43276.2 1490.24 21
2 -2 7 55196.2 1926.08 91
2 -2 7 50079.9 1665.03 27
-2 0 -6 6954.85 963.836 50
-2 0 -6 6493.18 981.903 108
-2 0 -6 7620.18 1035.17 41
2 0 6 7843.05 610.424 11
2 0 6 7173.46 592.961 21
2 0 6 8036.63 611.267 27
2 0 6 7229.36 493.809 26
-2 0 -6 7116.91 872.884 7
2 0 6 8340.92 629.517 15
2 0 6 7835.09 606.691 85
-2 0 -6 9586.81 1224.02 101
-2 0 -6 7644.19 520.516 10
-2 -2 -5 16185.5 1212.13 39
2 2 5 18207 892.154 21
2 2 5 21146.1 929.325 15
2 2 5 15899.6 775.487 27
-2 -2 -5 14298.6 1255.64 50
-2 -2 -5 7865.38 792.835 67
-2 -2 -5 13353 1162.08 100
2 2 5 18055.9 914.584 113
-2 -2 -5 17286 1575.89 101
-2 -2 -5 11566.3 1174.52 108
2 4 4 163.719 74.8204 21
2 4 4 59.1883 41.3697 89
2 4 4 22.3178 40.4353 88
-2 -6 -3 136.542 93.8475 62
2 6 3 178.098 59.1842 88
2 -7 10 916.577 141.412 27
-2 7 -10 907.427 138.367 30
-2 5 -9 5728.8 493.786 22
-2 5 -9 5839.15 435.489 12
-2 5 -9 6219.54 418.637 60
-2 5 -9 6463.08 415.282 8
-2 5 -9 6620.03 459.674 17
2 -5 9 6158.17 509.573 27
-2 5 -9 5219.56 426.255 30
2 -5 9 6311.2 494.259 11
-2 5 -9 6206.48 439.607 9
2 -5 9 7519.39 603.211 91
2 -5 9 5849.21 469.966 21
-2 3 -8 12379.3 704.537 64
-2 3 -8 12714.1 641.246 8
-2 3 -8 12147.2 646.116 12
-2 3 -8 10561.3 1172.26 108
-2 3 -8 11339 1225.14 106
-2 3 -8 11347.7 1162.15 50
2 -3 8 12503.1 793.825 11
2 -3 8 11069.6 720.116 21
2 -3 8 14646.7 950.364 91
2 -3 8 12251 782.2 27
-2 3 -8 12656.5 659.745 9
-2 3 -8 9187.63 763.084 22
-2 3 -8 13135.5 726.074 61
-2 1 -7 10019.6 696.359 61
-2 1 -7 12241.1 635.648 12
-2 1 -7 10180.7 1142.26 50
2 -1 7 11147 719.913 11
-2 1 -7 12452.5 1332.72 41
-2 1 -7 9532.26 1186.07 108
2 -1 7 10698.3 689.258 15
-2 1 -7 12142.7 617.122 10
2 -1 7 10666.2 724.951 21
-2 1 -7 7526.72 653.817 22
2 -1 7 12554.2 782.533 27
2 1 6 21409.6 986.292 21
2 1 6 20352.4 967.682 113
-2 -1 -6 19923.1 799.355 10
-2 -1 -6 14142.5 1331.62 108
2 1 6 20764 907.743 11
-2 -1 -6 15670.9 1337.98 50
2 1 6 20792.5 903.403 27
2 3 5 2067.02 290.129 113
2 3 5 2344.86 290.025 21
2 5 4 2387.52 227.532 75
-2 -5 -4 863.544 211.43 67
-2 6 -10 5594.26 344.207 22
2 -6 10 5665.23 357.173 27
2 -6 10 4921.64 315.449 21
-2 4 -9 141.908 66.1206 64
2 -4 9 300.293 101.289 21
-2 4 -9 253.894 86.7115 60
-2 4 -9 241.061 89.5598 12
-2 4 -9 251.76 81.5303 8
2 -4 9 167.384 86.6701 11
2 -4 9 172.545 89.047 27
-2 4 -9 252.054 88.8718 9
-2 4 -9 299.234 119.22 22
-2 2 -8 18665.5 751.433 12
-2 2 -8 16413.5 1344.66 50
2 -2 8 17834.4 864.743 11
2 -2 8 19010.4 904.246 27
-2 2 -8 18592 744.075 8
-2 2 -8 20696.3 882.757 61
2 -2 8 16268.7 765.605 15
-2 2 -8 19776.5 778.039 9
-2 2 -8 15690.7 1382.92 108
-2 2 -8 19324.6 839.617 64
-2 2 -8 14862.6 850.384 22
2 -2 8 16546.7 851.764 21
-2 0 -7 26684.9 1068.79 61
-2 0 -7 26547.7 1705.87 50
-2 0 -7 21851.7 904.287 23
2 0 7 32162.7 1158.3 113
2 0 7 33970.1 1139.77 27
-2 0 -7 25198.3 1721.71 108
2 0 7 31906 1160.47 21
2 0 7 32817.7 1120.95 11
-2 0 -7 34753.1 992.975 12
2 2 6 5542.33 456.12 113
2 2 6 5618.47 444.583 21
2 4 5 2931.39 238.485 75
2 4 5 3045.98 228.071 89
2 -5 10 6222.07 356.324 27
-2 5 -10 5694.32 359.815 22
2 -5 10 5816.4 347.122 21
-2 3 -9 4497.24 350.072 64
-2 3 -9 3900.37 373.099 22
-2 3 -9 5086.56 337.722 8
-2 3 -9 4873.84 358.891 60
2 -3 9 4250.05 371.98 21
2 -3 9 4640.1 376.148 27
-2 3 -9 3627.41 363.335 23
-2 3 -9 5535.6 365.345 9
2 -3 9 4979.62 406.642 11
-2 3 -9 4237.18 315.469 12
-2 1 -8 2274.94 267.41 64
-2 1 -8 2131.83 260.51 61
2 -1 8 2420.52 290.954 21
2 -1 8 2407.49 285.612 11
-2 1 -8 2366.36 246.48 9
2 -1 8 2617.07 289.142 27
-2 1 -8 1374.22 220.764 23
-2 1 -8 1529.84 230.346 22
2 -1 8 2226.27 275.938 113
2 1 7 4851.55 395.294 113
-2 -1 -7 3993.78 369.027 61
2 1 7 4780.4 388.428 21
2 1 7 4796.72 365.383 27
2 3 6 3305.86 254.886 21
2 3 6 2958.75 230.049 89
2 -4 10 4304.73 280.553 21
2 -4 10 4243.7 261.191 113
2 -4 10 4264.06 259.118 27
-2 4 -10 3549.18 259.26 22
-2 2 -9 1749.01 197.075 64
2 -2 9 1818.07 211.368 113
-2 2 -9 1945.12 190.344 8
-2 2 -9 1298.8 179.235 22
2 -2 9 1997.67 213.058 27
2 -2 9 1791.61 216.437 21
2 -2 9 2094.26 230.456 11
-2 2 -9 1090.44 171.334 23
-2 0 -8 3825.29 302.152 64
2 0 8 4185.25 303.44 27
-2 0 -8 3889.58 304.721 61
2 0 8 4432.29 334.464 113
2 0 8 4077.85 326.061 21
2 2 7 7566.23 347.173 89
2 2 7 7099.58 350.625 21
2 -1 9 1674.54 167.111 113
2 -1 9 1534.42 161.996 21
-3 3 9 4709.33 288.452 85
-3 1 10 9557.6 443.137 26
-3 1 10 9224.11 445.196 85
-3 -1 11 2103.75 192.62 26
-3 4 8 14532 558.333 13
-3 4 8 15023.1 558.116 85
-3 2 9 6973.17 447.027 26
-3 2 9 7200.96 370.505 89
-3 0 10 6476.98 422.381 85
-3 0 10 7217.45 440.993 26
-3 0 10 6932.15 441.381 76
-3 -2 11 647.712 118.999 26
-3 -2 11 701.881 109.995 85
-3 -2 11 708.492 109.769 27
3 2 -11 671.617 150.34 17
3 2 -11 968.941 157.137 58
-3 -2 11 638.588 113.836 76
3 2 -11 722.792 141.525 68
-3 5 7 1236.9 172.935 19
-3 5 7 1366.23 164.679 89
-3 5 7 1245.18 181.87 13
-3 3 8 9781.2 543.288 19
-3 3 8 8760.01 521.163 13
-3 3 8 11174.4 627.3 26
-3 3 8 10685.2 514.371 89
-3 3 8 8781.76 550.561 85
-3 1 9 8269.2 519.407 27
-3 1 9 6540.56 475.714 26
-3 1 9 6214.42 475.835 85
-3 1 9 6666.32 497.72 76
-3 1 9 7996.02 434.897 89
-3 -1 10 6882.48 466.999 76
3 1 -10 6811 415.295 60
-3 -1 10 6800.35 448.191 85
-3 -1 10 7395.76 490.922 26
-3 -3 11 372.538 92.965 21
-3 -3 11 422.879 93.2077 27
-3 -3 11 413.11 104.363 26
3 3 -11 247.57 114.465 17
3 3 -11 400.156 101.551 58
-3 -3 11 748.742 163.674 29
3 3 -11 299.315 97.8886 68
-3 -3 11 288.231 81.0317 76
-3 6 6 3213.78 288.127 19
-3 6 6 3088.55 287.124 13
-3 4 7 24050.6 917.384 19
-3 4 7 25068 844.13 89
-3 4 7 22598.6 957.161 86
-3 4 7 23621.4 918.081 85
-3 4 7 21395.8 880.1 13
-3 2 8 21040.1 861.808 19
3 -2 -8 11634 1368.33 46
-3 2 8 16962.5 807.085 86
-3 2 8 24166.7 966.164 27
3 -2 -8 8118.03 1259.15 106
-3 2 8 20351.3 934.181 26
-3 2 8 20339.7 773.953 89
-3 2 8 19500.9 930.122 76
-3 2 8 17395.9 854.679 85
-3 2 8 19027.7 824.046 13
3 0 -9 38742.9 1081.03 60
3 0 -9 35326.6 2478.32 46
-3 0 9 53565.9 1440.9 27
-3 0 9 43488.1 1320.32 26
3 0 -9 27703.9 2334.41 106
-3 0 9 39507.8 1259.22 76
3 2 -10 1705.52 405.561 55
-3 -2 10 2074.94 283.776 29
-3 -2 10 1584.13 212.676 85
3 2 -10 1689.35 288.334 16
-3 -2 10 2610.4 302.993 27
-3 -2 10 1919.62 270.799 26
3 2 -10 1824.37 224.864 60
-3 -2 10 1680.66 241.258 76
-3 -2 10 1507.59 230.12 21
-3 -4 11 2310.92 254.74 26
-3 -4 11 2538.4 279.454 29
3 4 -11 2188.41 235.426 58
3 4 -11 2102 277.191 17
3 4 -11 2397.44 265.213 68
3 4 -11 1604.14 202.796 16
-3 -4 11 1603.74 188.212 76
-3 -4 11 2223.12 248.697 21
-3 7 5 3417.83 291.681 19
-3 7 5 2974.02 279.92 88
-3 7 5 3747.27 301.863 13
-3 7 5 3634.3 301.266 75
-3 7 5 3153.56 244.184 74
-3 5 6 8693.29 578.31 19
-3 5 6 8350.69 575.63 13
-3 5 6 8391.88 553.051 88
-3 5 6 9582.58 548.438 89
-3 5 6 9000.22 620.32 86
-3 5 6 8726.61 537.765 85
-3 5 6 9774.54 623.606 75
-3 5 6 8796.69 524.384 74
-3 3 7 302.734 86.3621 89
-3 3 7 236.948 99.6509 19
3 -3 -7 -22.24 99.9596 46
-3 3 7 344.417 136.687 26
-3 3 7 382.206 141.826 86
-3 3 7 399.107 135.117 27
-3 3 7 193.038 95.511 85
-3 3 7 309.503 119.562 75
-3 3 7 208.157 118.318 13
-3 1 8 28559.4 1158.71 26
-3 1 8 30012.6 1056.19 19
3 -1 -8 21754.5 1965 46
3 -1 -8 17138.7 1901.99 106
-3 1 8 33944.6 1214.48 27
3 -1 -8 20521.9 2154.65 102
-3 1 8 26975.5 1106.12 76
-3 1 8 24201.4 956.295 86
-3 1 8 26161.7 979.695 13
-3 -1 9 74276.9 1800.22 27
3 1 -9 55800.9 1361.86 60
3 1 -9 55363.3 3239.16 46
-3 -1 9 60699.9 1669.8 26
-3 -1 9 54716.2 1520.76 78
3 1 -9 41492.6 3082.55 106
3 1 -9 34850.4 1610.69 16
-3 -1 9 64404.7 1706.39 29
-3 -1 9 54051.3 1471.24 21
3 3 -10 13695 659.291 60
-3 -3 10 11565.6 560.35 85
3 3 -10 11781.4 1054.86 55
-3 -3 10 14154.9 785.196 26
-3 -3 10 14995.7 817.727 29
3 3 -10 10484.5 796.107 17
-3 -3 10 13164.4 735.59 77
3 3 -10 12373.6 859.714 16
-3 -5 11 3263.57 304.569 26
-3 -5 11 3383.71 318.214 29
3 5 -11 2827.53 278.4 16
3 5 -11 3032.16 289.351 68
3 5 -11 2968.85 305.707 17
-3 8 4 1142.72 155.498 19
-3 8 4 1105.2 167.598 88
-3 8 4 869.124 120.137 74
-3 6 5 37130.2 1198.47 19
-3 6 5 36889.8 1228.81 88
-3 6 5 41972.8 1151.25 89
-3 6 5 36525.8 1087.71 74
-3 6 5 33534.9 1141.91 13
-3 6 5 40392.3 1258.93 75
-3 4 6 1273.53 238.791 19
-3 4 6 1204.69 249.692 28
-3 4 6 1088.26 195.188 89
-3 4 6 1228.74 260.736 86
-3 4 6 1020.48 203.922 85
-3 4 6 1216.11 216.416 74
-3 4 6 948.696 209.41 75
-3 4 6 1527.4 277.196 26
-3 4 6 1151.8 227.12 13
-3 4 6 1258.85 230.114 88
-3 2 7 29380.7 1129.72 28
-3 2 7 32207.6 1162.62 19
3 -2 -7 24449.8 2380.22 51
-3 2 7 33511.3 1269.18 26
-3 2 7 29916.6 1221.47 78
3 -2 -7 24437.5 2270.11 102
-3 2 7 25320.1 1452.02 99
-3 2 7 26231 1058.04 86
-3 2 7 30412.1 1059.93 81
-3 2 7 31784.3 1235.88 76
-3 2 7 28521.5 1074.34 13
-3 2 7 27264.8 1006.51 75
-3 2 7 37544.4 1292.95 27
3 0 -8 28131.9 971.813 60
-3 0 8 31452.7 1040.35 13
-3 0 8 34713.5 1225.78 81
3 0 -8 26482.2 2208.34 46
3 0 -8 26064.3 2500.12 102
-3 0 8 33652 1256.27 26
3 0 -8 24304.6 2365.79 106
-3 0 8 26646 966.949 86
-3 0 8 29759.9 1179.78 78
-3 0 8 38879.2 1339.96 27
-3 0 8 30390.7 1116.83 21
3 2 -9 25401 963.486 60
3 2 -9 26217.2 825.666 8
3 2 -9 21870.8 2086.7 46
-3 -2 9 23995 1001.6 110
3 2 -9 16910.7 1980.99 106
3 2 -9 16619.4 1182.32 16
-3 -2 9 25729.4 1122.28 26
-3 -2 9 32811.6 1277.97 27
-3 -2 9 21675.2 938.21 78
-3 -2 9 23618 1080.81 77
3 4 -10 6407.07 489.466 58
3 4 -10 5855.82 403.72 8
3 4 -10 5232.45 662.733 55
-3 -4 10 5981.95 490.687 110
-3 -4 10 6565.52 548.837 26
3 4 -10 6429.23 524.034 68
3 4 -10 5472.09 562.549 16
-3 -4 10 7441.72 531.22 27
3 4 -10 6607.4 515.629 80
-3 -4 10 5704.66 479.371 77
3 4 -10 4357.19 511.153 17
-3 -6 11 3907.33 325.285 29
3 6 -11 4004.65 301.728 17
-3 -6 11 3620.94 298.223 26
-3 -6 11 3074.88 269.861 110
3 6 -11 3337.07 280.938 16
-3 -6 11 2556.06 220.513 77
-3 9 3 7836.98 394.92 88
-3 7 4 5863.64 425.051 74
-3 7 4 6534.47 481.619 75
-3 7 4 5895.14 460.617 19
-3 7 4 6024.37 463.886 13
-3 7 4 6227.59 508.115 88
-3 5 5 1329.71 256.06 86
-3 5 5 1252.27 232.632 19
-3 5 5 1152.95 230.188 88
-3 5 5 1217.04 213.947 85
-3 5 5 1328.57 211.848 89
-3 5 5 1389.43 247.191 75
-3 5 5 1137.91 210.988 74
-3 5 5 1542.46 260.776 13
-3 5 5 1151.37 238.798 28
-3 3 6 21628.6 1372.85 99
-3 3 6 24966.3 1030.58 19
3 -3 -6 22706.8 2041.78 102
3 -3 -6 23766.6 2269.6 45
-3 3 6 21908.3 1002.89 28
3 -3 -6 22751.6 1910.64 33
3 -3 -6 22522.9 2118.57 97
3 -3 -6 18133.5 1991.93 107
-3 3 6 30249.1 1140.1 27
-3 3 6 28597.1 1154.43 26
-3 3 6 21976 893.079 88
-3 3 6 22265.1 1002.82 86
-3 3 6 29206.3 1186.8 76
-3 3 6 24642.1 979.783 75
-3 3 6 24335.6 965.815 74
-3 3 6 22444.3 974.799 13
-3 1 7 17442.2 837.563 28
3 -1 -7 17886 1955.64 97
-3 1 7 20620.5 906.167 19
3 -1 -7 14672.1 1896.88 51
3 -1 -7 13282.1 1658.17 45
3 -1 -7 18767.3 1783.69 33
3 -1 -7 13438.1 1653.64 107
-3 1 7 23464.5 1032.65 27
-3 1 7 21700 1018.37 26
-3 1 7 15255.7 1054.18 99
3 -1 -7 16061.5 1288.2 6
-3 1 7 17693.3 828.863 13
3 -1 -7 17778.9 1925.44 102
-3 1 7 19610.5 881.417 81
-3 1 7 17728.5 911.195 78
-3 1 7 15583 772.945 86
-3 1 7 17605.8 910.495 76
3 1 -8 1920.51 261.593 60
3 1 -8 1755.14 460.476 6
3 1 -8 1936.42 634.151 46
-3 -1 8 2747.93 376.115 27
3 1 -8 1212.54 557.452 106
3 1 -8 1389.73 610.196 102
-3 -1 8 2131.24 331.097 26
-3 -1 8 1852.67 283.68 78
-3 -1 8 2143.9 330.657 77
-3 -1 8 2428.03 337.124 81
-3 -3 9 37759.5 1335.24 110
3 3 -9 38562.6 1232.88 60
3 3 -9 40412.4 1093.65 8
-3 -3 9 33211.7 1118.17 78
3 3 -9 34972.2 1963.44 55
3 3 -9 38882.6 1552.98 80
3 3 -9 37656.4 2694.5 46
3 3 -9 29838.9 1587.06 16
3 3 -9 31470.4 2583.99 106
-3 -3 9 38078.7 1404.01 26
-3 -3 9 37015.1 1348.8 77
3 5 -10 4371.95 478.597 16
3 5 -10 4021.75 360.907 58
3 5 -10 4119.09 351.97 8
-3 -5 10 4372.57 449.868 26
3 5 -10 3857.97 436.147 17
-3 -5 10 4156.32 413.455 110
3 5 -10 5164.94 468.768 80
-3 -5 10 4040.51 387.755 77
3 5 -10 4520.76 424.362 68
-3 -7 11 2450.52 210.12 26
-3 8 3 2534.01 288.574 19
-3 8 3 2668.05 317.173 88
-3 8 3 2358.73 255.745 13
-3 8 3 2801.68 288.465 75
-3 8 3 2541.76 260.621 74
-3 6 4 23609.9 1011.61 19
-3 6 4 26026.6 1110.4 88
-3 6 4 26677.1 956.641 89
-3 6 4 23239.6 1055.22 28
-3 6 4 25190.9 1068.2 86
-3 6 4 27860.5 1094.43 75
-3 6 4 23214.2 1012.43 13
-3 4 5 17485.4 904.186 28
-3 4 5 18382.3 881.549 19
3 -4 -5 17057.3 1812.91 40
-3 4 5 24524.2 1429.9 36
-3 4 5 18533.7 863.395 88
3 -4 -5 18077.5 2054.91 104
-3 4 5 23483.9 1022.96 26
-3 4 5 24344.9 1012.51 27
-3 4 5 18976.8 864.514 75
-3 4 5 18508.6 924.003 86
-3 4 5 17241.7 1233.32 99
-3 4 5 18794.1 781.739 89
-3 4 5 18984.7 849.659 74
-3 4 5 17953.6 876.875 13
-3 2 6 431.655 132.504 13
3 -2 -6 280.723 380.715 107
3 -2 -6 340.405 231.529 102
-3 2 6 341.757 118.086 19
3 -2 -6 5.1205 160.806 45
3 -2 -6 -45.8942 72.5481 6
3 -2 -6 432.147 287.505 40
-3 2 6 243.303 144.101 99
3 -2 -6 1230.42 416.75 33
-3 2 6 323.167 108.813 27
-3 2 6 288.169 100.117 81
3 -2 -6 687.082 403.089 104
-3 2 6 355.204 140.588 26
-3 2 6 396.489 125.702 75
3 -2 -6 943.287 423.136 97
-3 2 6 329.628 101.907 88
-3 2 6 204.592 64.6232 86
-3 2 6 113.89 57.0245 78
-3 2 6 203.032 89.657 76
-3 2 6 235.637 101.773 74
-3 2 6 286.394 107.848 28
-3 0 7 263.723 104.512 81
3 0 -7 205.421 219.326 107
3 0 -7 496.009 388.767 51
-3 0 7 273.687 97.7052 19
-3 0 7 286.753 107.377 77
3 0 -7 85.4944 155.708 45
3 0 -7 308.574 187.334 6
-3 0 7 187.91 115.781 26
-3 0 7 343.115 128.759 11
-3 0 7 282.086 107.497 28
-3 0 7 309.714 124.987 27
-3 0 7 -38.1573 103.138 99
3 0 -7 274.041 278.632 97
-3 0 7 193.995 64.6247 86
3 0 -7 323.31 228.933 102
-3 0 7 402.762 136.012 78
3 0 -7 126.478 157.966 33
-3 0 7 225.633 89.3678 13
3 2 -8 42740.7 1282.36 60
3 2 -8 45791.9 1136.09 8
3 2 -8 33459.2 2755.05 106
-3 -2 8 43110.8 1506.99 26
3 2 -8 42634.5 2827.71 46
-3 -2 8 43483.4 1331.07 11
-3 -2 8 40480.7 1351.46 110
-3 -2 8 35332.3 1270.76 96
3 2 -8 34969.2 1570.85 80
-3 -2 8 35114.8 1208.17 78
-3 -2 8 40240.4 1406.11 77
-3 -2 8 54127.7 1696.59 27
3 2 -8 29588.6 2342.41 107
3 2 -8 41162.5 2335.76 6
3 4 -9 20137.2 896.256 60
3 4 -9 20924.8 835.701 8
3 4 -9 18912.3 1334.29 55
-3 -4 9 21280.7 1035.98 110
3 4 -9 21573.5 962.468 25
3 4 -9 20711.3 1695.65 107
3 4 -9 15847.8 1717.78 106
-3 -4 9 26773 1187.32 27
3 4 -9 23302.2 1099.24 68
-3 -4 9 22151.6 1136.12 26
-3 -4 9 18521.5 833.293 96
3 4 -9 23812.7 1032.43 58
3 4 -9 17661.8 1188.49 16
3 4 -9 14357.9 985.089 17
3 4 -9 21738 1189.82 80
-3 -4 9 19889.8 985.038 77
3 6 -10 6740.69 453.968 8
3 6 -10 7441.53 568.259 16
3 6 -10 7188.54 509.998 17
-3 -6 10 7136.6 521.085 110
-3 -6 10 7159.84 540.465 26
3 6 -10 7052.7 448.061 25
3 6 -10 6196.85 456.226 68
3 6 -10 8904.89 595.848 80
-3 -6 10 6381.13 456.243 77
-3 9 2 4887.3 350.034 19
-3 9 2 5154.62 400.795 88
-3 7 3 10311.2 635.129 75
-3 7 3 8161.75 590.711 19
-3 7 3 8959.32 624.003 28
-3 7 3 8975.73 609.313 13
-3 7 3 9547.63 670.954 88
3 -7 -3 3400.9 691.981 43
3 -7 -3 3823.64 876.842 105
-3 7 3 9075.26 590.951 86
3 -5 -4 21664.3 1626.51 38
-3 5 4 36297.7 1782.4 99
-3 5 4 36078.1 1300.54 28
-3 5 4 49418.7 2038.79 36
-3 5 4 38295.8 1317.37 86
-3 5 4 39150.3 1304.12 88
-3 5 4 38694.5 1277.92 19
-3 5 4 38557.8 1115.21 89
-3 5 4 40722.6 1286.5 75
-3 5 4 36929.8 1267.23 13
3 -5 -4 30956.8 2272.89 105
3 -3 -5 2811.13 480.48 6
-3 3 5 2030.8 275.426 19
3 -3 -5 2176.53 603.962 40
-3 3 5 2505.67 434.704 36
3 -3 -5 2148.76 658.421 104
-3 3 5 1647.91 251.509 13
-3 3 5 2452.14 314.768 26
-3 3 5 1703.16 364.385 99
-3 3 5 2328.21 292.214 27
-3 3 5 1730.64 241.467 88
-3 3 5 1833.91 273.31 28
-3 3 5 2130.48 293.277 78
-3 3 5 2388.65 314.707 76
-3 3 5 1978.63 260.573 75
-3 3 5 1953.83 276.163 86
-3 3 5 1915.55 256.425 74
3 -1 -6 15598.7 1199.24 6
-3 1 6 16187.6 748.637 28
-3 1 6 17146.9 750.281 75
-3 1 6 19183.1 814.935 19
3 -1 -6 17594.6 1991.61 51
-3 1 6 14721.8 958.686 99
3 -1 -6 15461.2 1777.67 45
3 -1 -6 19127.9 1598.77 33
3 -1 -6 11102.2 1548.4 104
-3 1 6 15240.3 724.811 86
3 -1 -6 12647.2 1613.24 107
-3 1 6 21701.8 1010.51 77
-3 1 6 21231 910.381 27
3 -1 -6 11374.9 1416.24 40
3 -1 -6 20623.4 1855.6 102
-3 1 6 21418.8 993.243 26
3 -1 -6 20824.3 1879.83 97
-3 1 6 16350.9 734.725 13
-3 1 6 18200.2 796.161 81
-3 1 6 17903.4 856.924 78
-3 1 6 18378.7 799.292 74
3 1 -7 18585.8 662.712 8
3 1 -7 17863.4 779.46 60
3 1 -7 18129.3 2145.97 51
3 1 -7 13420.1 1644.82 107
3 1 -7 16851.2 1646.27 33
3 1 -7 17268.2 1861.87 102
-3 -1 7 22381.1 1039.63 27
-3 -1 7 18167.2 847.148 11
3 1 -7 16784.3 1836.19 97
-3 -1 7 17080.5 829.028 110
-3 -1 7 18743.8 899.768 81
-3 -1 7 15838.5 805.271 78
-3 -1 7 17292.8 899.722 77
-3 -1 7 16117.3 846.132 96
-3 -1 7 18540.4 983.824 26
3 1 -7 16296.2 1360.05 6
3 3 -8 25267.6 1126.42 25
3 3 -8 24496 990.599 60
3 3 -8 26321 916.627 8
-3 -3 8 22967.6 938.793 78
3 3 -8 22221.4 1992.52 46
-3 -3 8 22422.8 984.161 96
-3 -3 8 26746.2 981.056 11
-3 -3 8 34344.5 1422.54 27
3 3 -8 17581.3 1931.46 106
3 3 -8 17279 1250.64 16
-3 -3 8 25186.4 1118.49 110
-3 -3 8 23349.7 1153.09 26
3 3 -8 18513.2 1816.93 107
3 3 -8 25970.1 1865.81 6
3 3 -8 22774.1 1299.71 80
-3 -3 8 21829.5 1035.77 77
3 5 -9 3571.49 478.392 80
3 5 -9 2928.49 334.848 58
3 5 -9 3264.86 357.282 8
3 5 -9 2591.66 395.65 18
-3 -5 9 3162.01 401.962 110
3 5 -9 2930.8 621.421 107
-3 -5 9 3086.28 429.066 26
3 5 -9 2924.97 345.689 9
3 5 -9 3057.76 377.339 25
3 5 -9 2135.94 368.228 17
3 5 -9 3091.13 477.537 16
3 5 -9 3246.34 395.879 68
3 7 -10 25277.5 852.748 8
3 7 -10 35703.6 1097.5 80
3 7 -10 19799.4 905.841 18
3 7 -10 31505.3 1016.9 16
3 7 -10 26729.1 721.59 17
-3 -7 10 26718.3 922.347 110
-3 -7 10 27475.5 976.875 26
3 7 -10 28162.4 852.818 25
-3 -7 10 22436.6 755.998 77
-3 10 1 183.92 54.7428 74
-3 10 1 176.635 64.1201 88
-3 8 2 6931.01 520.444 19
-3 8 2 8188.55 513.428 75
-3 8 2 7381.63 562.074 88
-3 8 2 7005.74 486.816 13
-3 6 3 11251.1 700.97 19
-3 6 3 12217.9 635.947 89
-3 6 3 11472 700.122 86
3 -6 -3 10824.4 1206.58 43
3 -6 -3 8551.7 1075.15 38
-3 6 3 14103.4 1098.96 36
3 -6 -3 8917.75 1318.24 105
3 -6 -3 5872.4 760.729 103
-3 6 3 10228.3 928.438 99
-3 6 3 11878.1 735.918 88
-3 6 3 13072.2 721.176 75
-3 6 3 10563.8 679.61 13
-3 6 3 11078.6 717.364 28
-3 4 4 3144.26 353.542 86
-3 4 4 3002.86 334.133 19
-3 4 4 3214.23 346.567 88
3 -4 -4 3715.28 699.905 105
3 -4 -4 3051.34 544.384 38
-3 4 4 3775.69 509.503 36
3 -4 -4 2560.33 427.738 103
-3 4 4 3746.13 371.286 26
-3 4 4 3268.95 498.905 99
-3 4 4 3192.75 300.003 89
-3 4 4 3127.27 362.234 28
-3 4 4 4483.08 396.491 27
-3 4 4 3239.55 343.817 78
-3 4 4 3512.71 369.184 76
-3 4 4 3329.26 354.49 13
-3 4 4 3396.9 338.487 75
-3 2 5 37379.7 1130.38 28
3 -2 -5 38358.4 1733.7 6
-3 2 5 49624.6 1371.95 26
-3 2 5 39443.6 1119.18 19
-3 2 5 36433.3 1497.77 99
3 -2 -5 40090.7 2493.07 40
-3 2 5 48831.7 1748.09 36
3 -2 -5 45971.9 2936.08 104
-3 2 5 45343.7 1212.08 27
-3 2 5 39090.2 1208.6 20
-3 2 5 37216.4 1053.91 88
-3 2 5 42616.1 1256.89 76
-3 2 5 39831.3 1103.3 75
-3 2 5 38785.6 1094.43 74
-3 2 5 43297.3 1280.14 78
-3 2 5 36055.1 1076.75 13
3 0 -6 2482.36 479.648 6
-3 0 6 2227.01 261.139 19
3 0 -6 1763.44 629.87 51
3 0 -6 1958.47 628.453 45
-3 0 6 1785.59 311.192 99
-3 0 6 3794.57 365.644 11
3 0 -6 2735.68 596.517 33
-3 0 6 3102.61 352.449 96
3 0 -6 2088.64 658.481 107
3 0 -6 2243.85 599.523 102
-3 0 6 2820.03 359.447 26
-3 0 6 2179.77 278.982 81
-3 0 6 5113.61 442.199 78
-3 0 6 3443.22 387.423 77
3 0 -6 3186.14 717.476 97
-3 0 6 2440.46 307.822 27
3 2 -7 19892.3 833.988 60
3 2 -7 15226.2 1668 107
3 2 -7 20439.3 722.422 8
3 2 -7 19787.6 1746.12 46
3 2 -7 18774.4 1500.59 6
-3 -2 7 19664.5 921.059 81
3 2 -7 17521.7 1825.07 106
3 2 -7 14575.1 1697.83 102
-3 -2 7 19460.1 984.067 26
3 2 -7 18180.8 951.869 25
-3 -2 7 17676.4 854.645 96
-3 -2 7 17671.4 820.592 78
-3 -2 7 25576.9 1160.52 27
-3 -2 7 19933.2 843.787 11
3 4 -8 20900.9 925.011 60
3 4 -8 25628.2 1071.83 58
3 4 -8 22083.3 886.56 8
3 4 -8 21221.9 1367.63 55
-3 -4 8 21629.5 1402.94 47
3 4 -8 16779.4 1049.89 18
3 4 -8 23081 1745.35 6
3 4 -8 21906.8 1908.3 107
3 4 -8 18307.2 1270.2 16
3 4 -8 17357.6 1733.69 106
-3 -4 8 22396.2 1182.65 26
3 4 -8 22489.3 971.505 9
-3 -4 8 29265.5 1353.47 27
3 4 -8 21665.8 1270.11 80
3 4 -8 22806.5 1108.53 25
-3 -4 8 21194.2 959.683 73
-3 -4 8 20301.1 910.264 96
3 4 -8 24550.4 1127.29 68
3 6 -9 8634.42 590.045 68
3 6 -9 8485.65 610.21 12
3 6 -9 9528.66 621.285 8
-3 -6 9 9690.91 746.249 26
3 6 -9 7536.19 699.235 18
3 6 -9 10190.5 678.308 25
3 6 -9 9399.97 639.783 17
3 6 -9 8942.85 624.209 9
3 6 -9 10162.2 780.56 16
3 6 -9 10851.3 780.145 80
-3 -8 10 3773.66 296.79 110
-3 -8 10 3932.16 301.694 26
3 8 -10 4202.43 279.578 25
-3 9 1 12704.3 645.027 19
3 -9 -1 11526 1106.83 57
-3 9 1 13358.6 688.313 88
3 -7 -2 7272.44 1236.49 105
-3 7 2 10555.6 693.747 88
-3 7 2 9651.14 656.262 19
3 -7 -2 5767.11 893.571 43
3 -7 -2 5957.92 929.497 38
-3 7 2 10120 653.823 28
3 -7 -2 3596.56 612.256 103
-3 7 2 10147.3 606.991 86
-3 7 2 10290.1 617.35 75
-3 7 2 9847.72 639.772 13
-3 5 3 20370.8 895.621 19
-3 5 3 27089.9 1400.05 36
3 -5 -3 14051.4 1074.45 103
-3 5 3 20593.3 1217.83 99
-3 5 3 22701.3 943.408 86
-3 5 3 22150.3 928.488 88
-3 5 3 21814.9 878.087 75
-3 5 3 20890.4 908.142 13
-3 5 3 21472.6 943.386 28
-3 5 3 21727.5 796.675 89
3 -5 -3 16812.8 1373.8 38
-3 3 4 64396.4 1486.47 20
3 -3 -4 78556.3 2833.74 105
-3 3 4 60490.2 1292.72 82
-3 3 4 60905.3 1357.85 19
-3 3 4 62755.9 1414.07 13
3 -3 -4 55318.5 2042.13 38
-3 3 4 72167 1992.94 36
-3 3 4 61080.6 1445.71 28
-3 3 4 61981.4 1956.75 99
-3 3 4 64963.6 1365.53 27
3 -3 -4 53830.2 1673.55 103
-3 3 4 69034.3 1466.78 26
-3 3 4 71055.6 1555.14 78
-3 3 4 61344.9 1362.67 88
-3 3 4 65185.3 1508.94 87
-3 3 4 69432.7 1481.35 76
-3 3 4 66443.7 1385.54 75
-3 1 5 7971.07 519.434 20
3 -1 -5 8882.58 827.152 6
3 -1 -5 6724.6 1000.03 40
3 -1 -5 6317.73 1066.42 104
-3 1 5 8060.73 481.075 74
3 -1 -5 7315.63 1132.83 107
-3 1 5 7323.42 613.222 99
-3 1 5 9177.29 578.176 96
-3 1 5 10653.5 637.053 77
-3 1 5 8420.47 487.526 75
3 1 -6 47280.7 2141.51 6
-3 -1 6 44932.2 1272.97 20
3 1 -6 49448.6 1195.23 60
3 1 -6 46655.2 3119.75 51
-3 -1 6 46650.6 1714.74 47
3 1 -6 42409.2 2859.76 45
-3 -1 6 49803.4 1281.68 11
3 1 -6 49228.7 2415.94 33
-3 -1 6 50530.5 1334.97 81
3 1 -6 35989.8 2578.63 107
3 1 -6 48924.9 2775.26 102
-3 -1 6 52286.2 1508 26
-3 -1 6 41048.4 1348.22 99
3 1 -6 50841.2 2708.9 97
-3 -1 6 47727.5 1335.15 96
-3 -1 6 44483.9 1241.91 94
3 3 -7 136695 4040.87 6
-3 -3 7 119006 2173.38 96
3 3 -7 121032 4651.48 107
3 3 -7 136775 4510.84 46
3 3 -7 102353 2434.36 18
-3 -3 7 140755 2835.03 26
3 3 -7 138002 2011.42 8
-3 -3 7 128794 2213.48 73
3 3 -7 86131.9 2703.81 16
-3 -3 7 172230 3131.62 27
3 3 -7 136327 2216.42 60
3 3 -7 134380 2655.81 25
3 3 -7 135627 2200.42 9
-3 -3 7 129693 3213.31 47
3 3 -7 108707 2790.12 80
3 3 -7 111632 4394.37 106
3 5 -8 35090.5 1210.51 58
3 5 -8 37574.6 1265.52 8
-3 -5 8 37249.2 1839.17 47
3 5 -8 27810.8 1449.46 18
3 5 -8 36632.2 1448.1 25
3 5 -8 29654.8 1344.2 17
-3 -5 8 37160.3 1606.13 26
3 5 -8 37668.5 2324.89 107
-3 -5 8 33433.7 1139.06 96
3 5 -8 35911.8 1321.12 9
3 5 -8 35173.6 1327.63 12
3 5 -8 36430.5 1727.66 16
3 5 -8 37649.2 1644.61 80
-3 -5 8 34646.4 1240.48 73
3 5 -8 41595.5 2323.33 6
3 5 -8 37355 1353.99 68
3 7 -9 14889.5 796.101 12
3 7 -9 19191.1 873.962 8
3 7 -9 15645.2 1002.34 18
3 7 -9 22820.2 1025.6 80
3 7 -9 19396.6 879.118 25
-3 -7 9 18627.7 948.188 26
3 7 -9 19081 915.299 16
3 7 -9 17414 855.882 9
-3 10 0 3027.06 311.212 14
-3 10 0 3668.78 295.213 88
-3 10 0 3429 280.398 19
3 -8 -1 19059.9 1989.62 105
3 -8 -1 13266.3 1380.78 43
-3 8 1 24963.5 1038.78 88
-3 8 1 25322.1 1177.65 14
-3 8 1 27308 906.544 75
-3 8 1 23223.5 907.872 13
-3 8 1 24540.9 1028.7 19
-3 6 2 23605.6 926.599 86
3 -6 -2 17883.9 1531.25 43
3 -6 -2 19244.8 1560.47 38
-3 6 2 28324.2 1494.86 36
-3 6 2 24581 905.01 17
-3 6 2 26301.4 1037.65 16
-3 6 2 22538.7 971.567 28
3 -6 -2 15346.8 1204.05 103
-3 6 2 20946.9 1197.97 99
-3 6 2 25412.7 890.352 89
-3 6 2 24052.6 1006.07 88
-3 6 2 23177.7 1062.4 14
-3 6 2 24322.9 1018.07 19
3 -6 -2 15695.6 799.709 54
-3 6 2 24479.4 921.221 75
-3 6 2 23763.7 986.004 13
-3 4 3 16052.5 680.138 26
-3 4 3 14020.7 715.019 28
-3 4 3 13297 654.536 19
3 -4 -3 13293.3 1088.36 38
-3 4 3 15675.3 929.821 36
-3 4 3 14432.5 628.421 17
3 -4 -3 12037 820.256 34
3 -4 -3 11956 877.726 103
-3 4 3 13561.4 573.773 89
-3 4 3 13640.2 657.079 88
-3 4 3 14765.1 711.639 87
-3 4 3 15481.5 683.009 22
-3 4 3 13906.8 917.516 99
-3 4 3 15392.2 675.804 76
-3 4 3 13884.9 636.783 75
-3 4 3 14994.9 699.498 13
3 -2 -4 164314 4506.66 40
3 -2 -4 122697 2678.1 38
-3 2 4 136061 2520.01 36
-3 2 4 120358 2446.25 99
3 -2 -4 157193 3723.84 105
3 -2 -4 188326 5295.47 104
3 0 -5 114145 2916.04 6
-3 0 5 110461 1770.45 11
3 0 -5 79153.5 3609.08 107
3 0 -5 106614 4282.3 51
-3 0 5 93393 1975.94 99
3 0 -5 68683.3 3444.78 104
3 0 -5 91860 3856.95 45
-3 -2 6 58627 1398.73 94
3 2 -6 63755.4 1375.82 60
3 2 -6 62740.9 1175.82 8
-3 -2 6 58345.3 1919.63 47
-3 -2 6 58693.2 1441.99 20
-3 -2 6 65084.2 1386.82 11
3 2 -6 56421.3 2481.17 33
3 2 -6 53421.8 3047.48 107
-3 -2 6 66446.6 1779.56 26
3 2 -6 60143.7 2847.9 97
-3 -2 6 62449.5 1477.93 81
-3 -2 6 59544.3 1401.53 114
3 2 -6 55961.3 2966.34 102
3 2 -6 61206.9 1689.42 25
-3 -2 6 62417.1 1386.99 73
3 2 -6 62755.6 2467.19 6
3 4 -7 6680.94 489.846 8
3 4 -7 6205.68 536.037 12
3 4 -7 6515.03 528.237 9
-3 -4 7 6756.73 741.44 47
3 4 -7 5042.8 870.006 46
3 4 -7 5735.38 611.348 18
3 4 -7 6965.67 1085.78 107
-3 -4 7 6377.35 666.548 26
3 4 -7 5140.82 671.804 16
3 4 -7 4668.1 876.322 106
3 4 -7 7181.22 630.735 25
3 4 -7 6198.12 682.517 80
3 4 -7 7059.94 535.27 58
-3 -4 7 6257.7 504.692 73
3 4 -7 7113.29 935.497 6
3 4 -7 6853.33 566.613 68
-3 -6 8 4096.77 488.207 111
3 6 -8 4339.26 537.602 80
3 6 -8 3728.69 452.388 12
3 6 -8 3492.03 396.266 8
-3 -6 8 3829.62 581.986 47
3 6 -8 2995.18 493.448 18
3 6 -8 3865.96 448.915 9
3 6 -8 4124.95 432.468 17
3 6 -8 3918.36 422.282 24
3 6 -8 4376.36 750.214 107
-3 -6 8 4048.14 548.057 26
-3 -6 8 3740.21 362.396 96
3 6 -8 4104.84 467.934 25
3 6 -8 4104.48 530.076 16
3 6 -8 3206.35 372.614 68
-3 -6 8 4109.61 428.952 73
3 8 -9 252.6 93.6227 9
3 8 -9 191.554 80.5668 12
3 8 -9 229.934 101.668 18
3 8 -9 318.249 96.9256 16
3 8 -9 299.518 94.8447 8
3 8 -9 322.132 99.9344 25
-3 -8 9 353.094 114.855 26
3 -9 0 34487.4 2130.92 57
-3 9 0 33419.9 1142.14 19
3 -9 0 30165.2 2926.71 109
-3 9 0 33668.3 1103.87 88
-3 9 0 34671 1346.12 14
3 -7 -1 4731.08 476.585 54
-3 7 1 7832.59 593.324 19
3 -7 -1 6700.72 958.933 43
3 -7 -1 5599.64 879.327 38
-3 7 1 9356.01 893.213 36
-3 7 1 9248.26 565.939 17
3 -7 -1 2886.41 580.498 34
-3 7 1 8058.47 566.936 13
-3 7 1 8094.87 585.514 88
-3 7 1 9550.09 644.065 16
-3 7 1 7926.59 554.976 28
-3 7 1 8247.49 667.103 14
-3 7 1 8930.74 538.021 75
-3 5 2 10514.3 557.57 75
3 -5 -2 8122.11 518.157 54
-3 5 2 10020 600.674 19
-3 5 2 10541.3 535.248 89
3 -5 -2 9663.12 999.023 38
-3 5 2 12215.5 868.832 36
-3 5 2 10736.3 565.639 17
3 -5 -2 8712.63 803.018 34
-3 5 2 10719.5 601.29 16
3 -5 -2 9005.48 840.905 103
-3 5 2 10024.1 783.917 99
-3 5 2 9800.5 583.66 88
-3 5 2 8564.18 572.838 14
-3 5 2 10065 609.941 28
-3 5 2 11116.1 621.036 13
-3 3 3 62536.2 1756.27 99
-3 3 3 59713 1579.04 36
3 -1 -4 130591 3894.5 40
-3 1 4 124818 2220.62 99
3 -1 -4 135690 4369.71 104
3 1 -5 80655.5 2467.2 6
3 1 -5 55282.1 2936.79 107
3 1 -5 80696.5 1352.89 60
3 1 -5 72030.2 3536.57 51
-3 -1 5 76944.9 1941.16 47
3 1 -5 70421.5 3365.72 45
3 1 -5 89709.8 2706.54 33
3 1 -5 92972.7 3196.2 102
-3 -1 5 70501.9 1547.82 99
3 1 -5 95977.4 3139.73 97
3 3 -6 23615.4 1080.12 18
-3 -3 6 25334.6 934.688 114
3 3 -6 24302.7 892.787 9
3 3 -6 23839.1 861.786 60
3 3 -6 24632.9 1101.37 25
3 3 -6 25219.5 822.238 8
3 3 -6 24038.5 955.626 12
-3 -3 6 24808.6 1270.63 47
3 3 -6 25655 1748.85 46
3 3 -6 24750.3 1582.86 6
-3 -3 6 22084.7 881.071 81
3 3 -6 21885 1788.67 106
-3 -3 6 24996.9 1219.87 26
3 3 -6 19984.4 1819.9 107
-3 -3 6 24484 893.942 94
-3 -3 6 25598.6 916.22 73
3 5 -7 27993.3 1069.88 58
3 5 -7 30886.2 1304.6 12
3 5 -7 30293.1 1115.96 8
-3 -5 7 30686.2 1593.29 47
3 5 -7 31727 1346.82 25
3 5 -7 31219.4 1246.57 9
3 5 -7 26597.1 1437.6 18
-3 -5 7 30050.5 1555.83 26
3 5 -7 30386 1177.14 68
3 5 -7 27431.5 1286.61 17
3 5 -7 33909.8 1312.38 24
3 5 -7 32063.1 1658.83 16
3 5 -7 37313.2 2439.93 107
3 5 -7 31838.3 1528.82 80
-3 -5 7 31059.8 1167.19 73
3 5 -7 36678.6 2113.36 6
3 7 -8 229.479 129.54 18
-3 -7 8 308.6 143.393 47
3 7 -8 108.532 70.9348 12
3 7 -8 66.8954 87.1619 80
3 7 -8 224.64 100.522 16
3 7 -8 186.908 100.151 8
-3 -7 8 269.445 151.42 111
3 7 -8 381.892 198.461 107
-3 -7 8 121.295 91.5278 26
-3 -7 8 104.252 54.3196 73
3 7 -8 302.476 126.099 25
3 7 -8 198.973 77.1351 9
3 -10 1 7967.39 913.994 57
-3 10 -1 6952.14 449.067 19
-3 10 -1 7098.07 565.314 14
3 -8 0 28512.4 1805.5 59
3 -8 0 20313.8 1749.27 43
-3 8 0 33834.5 1069.09 17
-3 8 0 31143.4 1193.84 19
-3 8 0 34072.8 1233.24 16
-3 8 0 29239.6 1093.41 88
3 -8 0 20185 1701.64 38
-3 8 0 29631 1327 14
3 -8 0 27998.4 2389.91 105
3 -6 -1 12804.8 741.522 54
-3 6 1 16467.7 813.59 19
3 -6 -1 12407.4 851.403 44
3 -6 -1 17137.9 1459.74 43
3 -6 -1 15565.7 1359.37 38
-3 6 1 20016.6 1200.92 36
-3 6 1 17406.7 748.274 17
3 -6 -1 11969 1080.63 34
-3 6 1 16250.3 773.128 28
3 -6 -1 11700.7 1052.41 103
-3 6 1 14010.5 880.378 99
-3 6 1 15970 700.814 75
-3 6 1 17652 805.103 13
-3 6 1 15833.2 773.496 88
-3 6 1 15659.8 862.841 14
-3 6 1 17781.3 836.146 16
3 -4 -2 23307.4 1389.66 38
-3 4 2 23755.6 1056.09 36
3 -4 -2 21538.7 1145.9 103
3 -4 -2 21503.9 1102.7 34
-3 4 2 24119 1092.3 99
-3 2 3 106351 2023.23 99
3 -2 -3 98114.2 2296.53 38
-3 2 3 100580 1800.25 36
3 -2 -3 105915 1759.54 103
3 0 -4 450995 7797.52 107
3 0 -4 514978 5509.78 6
-3 0 4 526211 4404.59 47
-3 0 4 506508 4510.64 108
-3 0 4 489499 3825.93 99
3 0 -4 548907 8581.99 45
-3 -2 5 56598.8 1672.17 47
3 2 -5 56808.1 1160.64 60
3 2 -5 52120.4 991.28 8
3 2 -5 56416.2 2109.88 33
3 2 -5 54624.4 2509.95 102
-3 -2 5 56524.9 1229.27 99
3 2 -5 53262 2296.41 97
3 2 -5 50169 2766.96 107
3 2 -5 58197.8 2133.81 6
3 4 -6 29189.6 1047.38 58
3 4 -6 25754.2 912.432 8
-3 -4 6 26420.9 1350.25 47
3 4 -6 22986.9 1188.94 18
3 4 -6 28501.2 2133.12 107
3 4 -6 27446.7 1136.82 12
3 4 -6 24803.4 1415.98 16
3 4 -6 26818 1055.96 9
-3 -4 6 23555 1324.26 26
-3 -4 6 26097.9 1151.19 95
-3 -4 6 25535.8 927.123 94
3 4 -6 25641.1 1177.84 25
3 4 -6 27542.1 1169.5 24
-3 -4 6 27205.9 1002.59 114
3 4 -6 24975.5 1349.8 80
-3 -4 6 26920.3 995.807 73
3 4 -6 27436.7 1060.12 68
3 4 -6 28261.1 1756.04 6
3 6 -7 16799.2 1103.99 16
3 6 -7 13975.8 932.85 12
3 6 -7 14554.7 844.745 8
-3 -6 7 14065.4 1096.56 47
3 6 -7 12206.1 1026.94 18
-3 -6 7 14659 825.521 73
3 6 -7 14623.6 916.548 9
3 6 -7 17375.1 1540.12 107
3 6 -7 16059.6 945.302 24
-3 -6 7 12227.5 1012.79 26
3 6 -7 14796.8 922.959 25
3 6 -7 16709.1 1088.48 80
-3 -8 8 1471.43 267.97 26
3 8 -8 1313.94 246.209 12
3 8 -8 1644.87 256.55 8
3 8 -8 2047.23 370.674 18
-3 -8 8 1811.05 285.491 111
3 8 -8 1891.04 258.125 16
3 8 -8 1858 266.852 25
-3 -8 8 1852.72 252.308 73
3 8 -8 1458.56 253.126 9
3 -11 2 2155.49 423.599 84
-3 11 -2 3910.99 345.589 14
3 -9 1 17061.9 1319.03 59
3 -9 1 17912.5 1645.99 57
-3 9 -1 17686 875.84 19
-3 9 -1 19129.9 770.328 17
3 -9 1 14668.8 1709.83 105
3 -9 1 18782.8 2331.72 109
-3 9 -1 16013.4 745.204 88
-3 9 -1 15761.4 962.062 14
3 -9 1 20014.7 2174.2 52
-3 9 -1 18379.2 883.376 16
3 -7 0 16036.8 1232.5 56
3 -7 0 9170.95 701.706 54
-3 7 0 15012 807.166 19
3 -7 0 12322.5 1337.64 43
3 -7 0 12826.2 1318.26 38
-3 7 0 16406.8 1150.74 36
-3 7 0 15279 724.663 17
3 -7 0 8958.13 1047.01 34
-3 7 0 16407.3 861.228 16
3 -7 0 16698.1 1787.44 105
-3 7 0 12899.8 840.295 10
-3 7 0 13933.9 877.94 14
-3 7 0 14727.3 739.369 13
-3 7 0 14064.9 741.925 88
-3 5 1 124906 2085.01 10
3 -5 -1 144780 2168.29 54
-3 5 1 160909 2279.64 19
3 -5 -1 137907 2535.88 44
3 -5 -1 192528 4400.89 43
3 -5 -1 165562 4042.15 38
-3 5 1 173157 3101.06 36
-3 5 1 163320 2140.67 17
3 -5 -1 138393 3254.92 34
3 -5 -1 140501 3263.54 103
-3 5 1 154033 2723.2 99
-3 5 1 166242 1982.79 89
-3 5 1 158627 2226.18 88
-3 5 1 157670 2227.57 16
-3 5 1 181578 2328.28 13
3 -3 -2 114436 2703.39 38
3 -3 -2 112764 2276.28 34
3 -3 -2 111520 2172.2 103
-3 3 2 119902 2137.35 99
-3 1 3 824510 4703.17 47
3 -1 -3 901506 9108.27 40
3 -1 -3 970346 10492.6 104
3 1 -4 26121.9 1913.45 51
3 1 -4 23420.9 1813.18 45
-3 -1 4 26771.9 976.175 47
3 1 -4 18691.1 1584.04 107
-3 -1 4 25538.6 775.771 99
3 1 -4 24847.9 1221.8 6
-3 -1 4 31226.1 1074.18 108
3 1 -4 22771.1 1031.29 105
3 3 -5 68015.4 1460.46 58
3 3 -5 63787.8 2339.05 6
3 3 -5 60503.2 1220.91 8
3 3 -5 68200 1609.75 12
-3 -3 5 63219.5 1818.78 47
3 3 -5 72650.2 2618.18 46
3 3 -5 66592.2 1486.95 68
3 3 -5 62312.5 1689.24 25
3 3 -5 56898 3005.93 107
3 3 -5 62326.2 2594.59 106
-3 -3 5 70468.1 1461.61 90
-3 -3 5 47816.2 1697.27 26
3 3 -5 62140.8 1388.88 9
3 3 -5 46998.4 1826.87 16
3 5 -6 39019.8 1746.85 16
3 5 -6 34926.6 1230.31 68
3 5 -6 36516.1 1436.32 12
3 5 -6 35744.1 1215.14 8
-3 -5 6 36493.4 1645.27 47
3 5 -6 37363.1 1471.85 25
3 5 -6 35091.1 1601.56 18
-3 -5 6 35957.5 1183.47 114
3 5 -6 47502.4 2782.92 107
3 5 -6 38478 1675.54 80
3 5 -6 25689.7 1294.6 15
-3 -5 6 26658.9 1512.1 26
-3 -5 6 35194.5 1404.54 95
3 5 -6 37638.2 1374.91 9
3 5 -6 38845.8 1446.51 24
-3 -5 6 37686.6 1256.09 73
3 5 -6 44192.9 2235.25 6
3 7 -7 12848.2 889.954 12
-3 -7 7 12522.6 1030.21 47
3 7 -7 11741.4 1035.58 18
-3 -7 7 13178.6 776.754 73
3 7 -7 15052 913.542 16
3 7 -7 13546.8 849.864 25
3 7 -7 17361.2 1405.61 107
-3 -7 7 10409.7 923.689 26
3 7 -7 13260.4 813.754 8
3 7 -7 14060.6 870.254 24
3 7 -7 12610.1 711.703 14
3 7 -7 13509.2 885.223 9
3 7 -7 16604.5 1013.14 80
3 9 -8 13313.5 505.583 16
3 9 -8 11485.2 704.703 18
-3 -9 8 12311.4 616.185 26
3 9 -8 13418 553.514 25
3 -10 2 4234.39 727.646 57
-3 10 -2 3806.46 354.893 19
-3 10 -2 4900.17 416.766 16
-3 10 -2 3935.27 444.623 14
3 -10 2 2157.53 597.476 69
3 -10 2 2367.31 601.083 84
3 -10 2 2584.73 464.851 79
3 -8 1 26955.6 1808.9 59
3 -8 1 30225.9 2207.03 57
-3 8 -1 29092 1179.8 16
3 -8 1 30171.9 1705.38 56
3 -8 1 19406.7 1683.58 38
-3 8 -1 28454.4 1570.15 36
-3 8 -1 28779.8 1014.11 17
3 -8 1 17449.2 1555.33 34
3 -8 1 22162.6 1893.98 43
-3 8 -1 27833.3 1148.5 19
3 -8 1 31810.8 2530.55 105
-3 8 -1 25080.6 1262.09 10
-3 8 -1 25284.6 982.274 88
-3 8 -1 24532.1 1219.79 14
3 -6 0 43100.5 1398.04 54
-3 6 0 55383.1 1423.91 19
3 -6 0 58903.2 2732.72 43
3 -6 0 53681.2 2488.67 38
-3 6 0 64542 2060.25 36
-3 6 0 57232 1345.04 17
-3 6 0 58778.3 1506.59 16
-3 6 0 51490.3 1523.72 10
-3 6 0 55367 1350.53 28
-3 6 0 53315.5 1367.23 88
-3 6 0 57216.7 1619.1 14
-3 6 0 63833 1456.37 13
3 -4 -1 29756.4 844.668 54
3 -4 -1 29977.9 981.884 44
3 -4 -1 42871.5 1820.94 43
3 -4 -1 34737.7 1642.28 38
-3 4 1 34516.7 1164.83 36
3 -4 -1 32539.9 1387.97 34
3 -4 -1 30733.6 1311.35 103
-3 4 1 38349.5 1213.39 99
-3 4 1 30871.3 1037.9 4
3 -2 -2 51662.7 2371.39 109
3 -2 -2 51631 2163.2 52
3 -2 -2 32237.1 1189.06 43
-3 2 2 25691.3 765.847 36
-3 2 2 30420.1 915.456 99
3 -2 -2 37695.7 1720.12 105
-3 2 2 30760.7 925.631 108
-3 0 3 284016 2915.49 108
-3 0 3 279723 2763.21 49
-3 0 3 283673 2682.88 47
3 0 -3 301007 5726.6 45
3 0 -3 204494 4402.19 40
-3 0 3 276733 2437.81 99
3 0 -3 268997 5476.34 107
3 2 -4 84641.4 1956.85 105
3 2 -4 70653.9 2137.93 6
3 2 -4 64933.5 3053.19 107
-3 -2 4 80408.2 1775.12 47
3 2 -4 67774.5 1942.76 33
-3 -2 4 74407.5 1626.95 108
3 2 -4 79097 2657.09 102
-3 -2 4 70099.2 1167.74 99
3 2 -4 82067.2 1441.17 58
3 2 -4 58282.2 1993.63 97
3 2 -4 77839.4 1432.78 68
3 4 -5 73624.8 3395.99 107
3 4 -5 63930.3 1715.87 12
3 4 -5 54974.6 1317.08 8
3 4 -5 64902.2 1962.7 18
-3 -4 5 62930.7 1563.28 115
-3 -4 5 60943.8 1405.28 114
3 4 -5 60095.3 1500.24 68
-3 -4 5 64401.5 1971.19 47
3 4 -5 60880.5 1564.64 9
-3 -4 5 72142.1 2945.06 63
3 4 -5 65563.6 2498.51 6
3 4 -5 49460.6 1591.41 15
3 4 -5 63995.4 2191.5 16
3 4 -5 60379.3 2053.09 80
-3 -4 5 63057.8 1707.19 95
3 4 -5 61525.6 1776.72 25
3 4 -5 63379.3 1733.9 24
3 4 -5 61407.8 1486.88 58
-3 -4 5 66338.8 1538.54 90
3 6 -6 11816.1 857.808 12
3 6 -6 11921 767.123 8
3 6 -6 14407.9 976.489 16
-3 -6 6 11873.1 980.106 47
3 6 -6 11142.2 966.437 18
3 6 -6 16595.6 1531.37 107
3 6 -6 9066.05 814.917 15
-3 -6 6 6989.63 791.616 26
-3 -6 6 11859.6 850.267 95
3 6 -6 12416.9 854.162 25
3 6 -6 13001.5 873.076 24
3 6 -6 11854 824.174 9
3 6 -6 14263.3 1008.39 80
-3 -6 6 12437.8 758.405 73
3 8 -7 19818.4 954.207 8
3 8 -7 16574.5 1092.77 18
3 8 -7 17977.1 961.977 12
-3 -8 7 15589.7 974.578 26
3 8 -7 23329.9 947.8 16
3 8 -7 21047.8 938.324 25
3 8 -7 18712.8 810.578 14
3 8 -7 18915.6 974.199 9
-3 -8 7 19716.9 860.586 73
3 -11 3 4572.31 649.603 84
-3 11 -3 5295.49 427.649 14
3 -11 3 3798.89 431.631 79
3 -9 2 11952.2 1971.54 109
3 -9 2 9226.7 1040.51 59
3 -9 2 10358.6 1293.94 57
3 -9 2 11339.2 1642.55 52
-3 9 -2 9096.07 651.038 19
3 -9 2 5150.62 931.784 43
-3 9 -2 10345.8 602.988 17
-3 9 -2 9734.57 681.072 16
3 -9 2 14793.5 1828.9 105
-3 9 -2 8708.28 759.344 10
-3 9 -2 7574.9 661.658 14
3 -9 2 6800.64 893.691 79
3 -7 1 39987.2 2159.29 59
3 -7 1 39963.1 1962.37 56
-3 7 -1 39932.8 1278.76 19
3 -7 1 33684 2230.96 43
3 -7 1 35700.9 2172.65 38
-3 7 -1 42157.1 1785.78 36
-3 7 -1 42388 1389.87 16
-3 7 -1 40240.2 1187.04 17
-3 7 -1 37089.8 1468.02 10
-3 7 -1 41860.2 1412.87 25
-3 7 -1 37627.5 1424.74 14
3 -7 1 49559 3036.76 105
-3 7 -1 38005.1 1173.94 88
-3 7 -1 38378.4 1583.57 4
-3 7 -1 42590.7 1204.09 13
-3 5 0 80828.6 1817.9 4
3 -5 0 73419.3 1589.32 54
3 -5 0 100339 3187.29 43
3 -5 0 89957.3 2854.76 38
-3 5 0 93162.7 2163.7 36
-3 5 0 86738.7 1788.01 99
-3 5 0 95862.8 2065.13 106
-3 5 0 77350.1 1617.2 10
3 -5 0 95179.4 2294.96 66
3 -3 -1 224269 3548.01 43
3 -3 -1 193746 3320.94 38
-3 3 1 186524 2184.04 36
3 -3 -1 217244 3201.78 34
-3 3 1 176461 2057.06 4
-3 3 1 195929 2530.39 106
-3 3 1 213758 2246.47 108
-3 3 1 211707 2421.79 99
-3 1 2 580995 3118.37 47
3 -1 -2 654472 6982.61 40
-3 1 2 553779 3537.19 49
-3 1 2 572367 3826.76 108
3 -1 -2 695291 7906.62 104
-3 -1 3 103676 1424.1 99
3 1 -3 105562 3557.52 51
-3 -1 3 102898 1639.64 49
3 1 -3 97451.8 2128.01 6
3 1 -3 99548.1 3519.32 45
-3 -1 3 114731 1808.41 47
-3 -1 3 106060 1739.51 108
3 1 -3 81363 3132.62 107
3 1 -3 90550.5 2311.54 105
3 3 -4 21637.6 1734.95 107
3 3 -4 19210.8 1027.97 3
3 3 -4 22846.1 915.446 12
3 3 -4 18233.6 661.725 8
-3 -3 4 20766.7 977.525 47
3 3 -4 21505.8 1275.07 6
-3 -3 4 20850.3 1444.99 63
3 3 -4 21365.8 818.431 9
-3 -3 4 21231.4 716.137 54
3 3 -4 21070.8 794.457 58
-3 -3 4 21446.7 893.636 108
3 3 -4 21365.7 807.311 68
-3 -5 5 948.795 329.903 63
3 5 -5 892.261 197.564 8
3 5 -5 1155.54 338.775 6
3 5 -5 723.656 205.92 12
-3 -5 5 1023.83 265.108 47
3 5 -5 881.303 241.793 18
-3 -5 5 997.974 209.679 115
3 5 -5 1192.84 431.792 107
3 5 -5 920.242 249.899 16
3 5 -5 697.69 216.377 15
3 5 -5 918.089 231.429 25
-3 -5 5 1100.56 218.827 90
3 5 -5 837.58 206.645 9
-3 -5 5 1030.86 239.621 95
-3 -5 5 774.651 162.961 114
3 5 -5 709.654 206.533 24
3 5 -5 953.429 256.128 80
3 7 -6 4473.1 497.595 25
-3 -7 6 3934.69 496.643 95
3 7 -6 4236.49 516.389 12
3 7 -6 4127.34 472.986 8
-3 -7 6 4243.41 601.62 47
3 7 -6 3656.18 552.276 18
3 7 -6 5741.18 832.266 107
3 7 -6 5249.18 525.214 16
3 7 -6 5391.45 581.535 80
3 7 -6 3194.87 502.972 15
-3 -7 6 2352.2 462.389 26
3 7 -6 4288.08 509.617 9
3 7 -6 4555.99 522.586 24
3 7 -6 4350.33 458.503 14
-3 -7 6 4543.7 612.922 79
-3 -7 6 4693.05 464.879 73
3 9 -7 5322.36 366.799 25
3 9 -7 5217.28 416.207 8
3 9 -7 4093.15 439.062 18
-3 -9 7 4356.11 423.743 26
3 9 -7 5235.02 321.458 16
3 9 -7 3966.16 299.582 14
3 -10 3 9056.95 666.413 111
-3 10 -3 12419.7 672.804 19
-3 10 -3 14907.4 660.97 17
-3 10 -3 14266.4 741.282 16
3 -10 3 11553.5 1349.39 84
-3 10 -3 10617.4 720.647 14
3 -10 3 11268.2 1007.81 79
3 -10 3 9712.77 1246.65 69
3 -8 2 12683.5 1267.37 59
3 -8 2 11537.4 1398.2 57
-3 8 -2 12707.1 767.552 19
-3 8 -2 12476 1038.39 36
-3 8 -2 12503.3 698.038 17
3 -8 2 9414.05 1134.02 34
-3 8 -2 12440 980.016 4
3 -8 2 19419.3 2429.31 109
3 -8 2 8701.6 1226.05 43
-3 8 -2 13072.8 826.582 25
3 -8 2 19533.7 2235.21 52
-3 8 -2 14024.9 828.616 16
-3 8 -2 11180.2 825.426 14
3 -8 2 14120.9 1702.9 105
-3 8 -2 12150.1 909.074 10
3 -6 1 29157.8 1554.3 56
-3 6 -1 31040 1083.34 16
-3 6 -1 33961.6 1011.15 13
3 -6 1 28532.7 1863.04 43
3 -6 1 26807.7 1694.33 38
-3 6 -1 31546.5 1385.95 36
-3 6 -1 29541.3 970.55 17
-3 6 -1 26437.8 1092.5 10
-3 6 -1 27070.2 940.765 19
-3 6 -1 29220.8 1067.97 25
-3 6 -1 26620.8 909.99 88
-3 6 -1 27038.2 1133.86 4
-3 6 -1 31409.2 1259.63 106
-3 6 -1 29735.5 1196.02 14
3 -4 0 57789.7 1885.73 34
3 -4 0 36974.1 952.553 54
3 -4 0 51599.5 1968.16 43
3 -4 0 48022.4 1811.78 38
-3 4 0 50021 1318.05 36
3 -4 0 69809.2 2646.74 105
-3 4 0 56215.8 1265.24 99
-3 4 0 52548.2 1397.45 106
-3 4 0 47773.4 1151.62 4
-3 2 1 259112 2312.42 7
3 -2 -1 269018 4588.15 105
3 -2 -1 316548 5220.04 52
-3 2 1 254144 2217.37 49
-3 2 1 225942 1875.12 36
3 -2 -1 230077 3168.47 34
-3 2 1 260130 2416.79 108
-3 2 1 230340 1865.79 4
-3 2 1 245565 2517.39 106
3 -2 -1 342639 5988.24 109
-3 2 1 254188 2295.87 99
-3 0 2 125277 1797.35 108
-3 0 2 122377 1811.48 7
-3 0 2 121665 1639.53 49
-3 0 2 129841 1448.77 35
3 0 -2 127640 3483.06 109
3 0 -2 115963 3321.69 107
3 2 -3 77171.3 2018.94 6
-3 -2 3 72578.7 1498.08 108
-3 -2 3 73561.3 1404.83 49
-3 -2 3 86301.1 1532.32 44
3 2 -3 84389.5 2198.72 105
3 2 -3 64643.1 2824.22 107
3 2 -3 60717.1 1898.57 102
-3 -4 4 8741.68 1021.17 63
3 4 -4 10850.4 881.046 1
3 4 -4 8963.22 645.989 12
-3 -4 4 10986.2 581.013 54
3 4 -4 8331.07 532.945 8
-3 -4 4 10357.9 754.422 47
3 4 -4 9281.8 708.471 18
-3 -4 4 10200.1 596.859 90
-3 -4 4 10754.9 622.221 115
3 4 -4 9658.24 696.258 25
3 4 -4 10585.3 1196.93 107
3 4 -4 10677.8 720.909 32
-3 -4 4 11653.3 698.385 95
3 4 -4 8748.39 628.377 15
3 4 -4 9924.27 698.339 24
3 4 -4 10705.7 815.486 80
3 4 -4 9520.24 618.37 9
3 4 -4 9368.14 754.88 16
3 4 -4 10021.3 888.683 6
-3 -4 4 9863.63 1168.73 70
3 6 -5 34589.1 1385.28 16
3 6 -5 29188.4 1361.25 12
3 6 -5 29612.3 1264 8
-3 -6 5 30064.3 1236.56 115
3 6 -5 39945.5 2254.91 107
-3 -6 5 32285.8 1591.85 47
-3 -6 5 29474.3 1329.62 95
3 6 -5 27405 1459.18 18
-3 -6 5 27139.3 2048.2 70
3 6 -5 24854.9 1350.53 15
-3 -6 5 26243.4 1902.4 63
3 6 -5 32289.2 1386.78 25
3 6 -5 36967.6 1575.87 80
3 6 -5 31179.8 1394.27 24
3 6 -5 29019.5 1301.67 9
3 8 -6 8717.78 663.463 8
3 8 -6 10181.8 608.142 16
3 8 -6 7399.06 723.84 18
-3 -8 6 7590.34 636.429 95
3 8 -6 9003.11 621.141 25
3 8 -6 8773.93 607.032 14
3 8 -6 8292.31 666.011 9
-3 -8 6 7306.32 718.473 79
-3 -8 6 7948.17 546.855 73
3 -11 4 7950.2 657.041 79
-3 11 -4 6896.01 484.92 14
3 -11 4 8035.26 849.562 84
3 -9 3 23141.4 1906.07 57
3 -9 3 23201.8 2313 52
-3 9 -3 24248.7 1078.39 19
-3 9 -3 24360.4 976.242 17
-3 9 -3 25273.3 1100.38 16
3 -9 3 25633.6 2687.62 109
-3 9 -3 22582.2 1271.25 10
3 -9 3 21480.3 2067.87 84
-3 9 -3 20528.7 1121.1 14
3 -9 3 20895.1 1594.55 79
3 -9 3 21015.5 1992.87 69
3 -7 2 44698.6 2288.27 59
-3 7 -2 41646.1 1305.97 12
3 -7 2 50929.8 2219.46 56
-3 7 -2 48126.6 1368.48 19
-3 7 -2 39165.4 1670.86 18
3 -7 2 41915.9 2473.81 43
-3 7 -2 49736.1 1898.53 36
-3 7 -2 48289.7 1330.3 17
-3 7 -2 50457.3 1495.08 16
-3 7 -2 45795.3 1619.81 10
-3 7 -2 42055.1 1528.4 14
-3 7 -2 47282.7 1493.75 25
-3 7 -2 53480.6 1777.81 106
-3 7 -2 48205.2 1725.79 4
3 -5 1 37062 1873.3 43
-3 5 -1 39289.3 1343.87 36
-3 5 -1 39607.6 1334.6 106
-3 5 -1 35527.7 990.607 99
-3 5 -1 36918.8 1137.51 4
-3 5 -1 38229.7 1128.84 10
3 -5 1 35720.7 1427.96 66
3 -3 0 8445.16 915.822 52
-3 3 0 4980.41 330.363 99
-3 3 0 4711.79 285.727 49
3 -3 0 3144.52 449.031 43
-3 3 0 4073.46 297.033 36
3 -3 0 5478.22 517.995 34
3 -3 0 8587.06 1019.8 109
-3 3 0 5046.69 409.869 106
-3 3 0 4918.35 306.332 7
3 -3 0 5537.48 689.703 105
-3 3 0 4636.19 301.227 4
-3 3 0 4215.04 293.763 108
-3 1 1 166980 1859.53 106
3 -1 -1 180421 3381.47 40
3 -1 -1 119674 3615.26 109
-3 1 1 173620 2034.4 7
3 -1 -1 110607 3178.68 105
-3 1 1 167371 2026.48 108
-3 1 1 166516 1219.19 4
3 -1 -1 195536 3883.97 104
3 1 -2 117896 2053.9 6
3 1 -2 131943 3591.16 51
-3 -1 2 127659 1518.65 44
-3 -1 2 122118 1870.48 35
3 1 -2 107816 3318.16 107
-3 -1 2 118242 1864.8 108
-3 -1 2 120291 1887.39 7
3 1 -2 132621 3061.99 105
-3 -3 3 117166 3318.84 63
3 3 -3 155161 2384.64 12
3 3 -3 139823 1989.02 8
3 3 -3 169549 3060.02 3
-3 -3 3 147438 2063.52 49
-3 -3 3 174723 2566.43 44
-3 -3 3 147790 2203.84 108
3 3 -3 150049 4060.02 107
3 3 -3 149447 2220.59 9
3 3 -3 146760 3054.35 1
3 3 -3 163178 3069.05 6
-3 -5 4 10366.9 1146.17 63
3 5 -4 14691.5 915.947 24
3 5 -4 13025 848.86 12
-3 -5 4 16143.8 796.028 54
3 5 -4 12936 754.796 8
-3 -5 4 14858.3 990.524 47
-3 -5 4 15257.4 997.685 44
3 5 -4 12669.8 889.536 18
-3 -5 4 15021.9 798.48 90
3 5 -4 16677 1399.25 107
-3 -5 4 15032.7 816.955 115
3 5 -4 12151.9 823 15
-3 -5 4 16912 924.945 95
3 5 -4 14569.7 892.201 25
3 5 -4 14363.3 841.188 16
3 5 -4 12643.1 802.242 9
3 5 -4 15752.1 976.233 80
-3 -5 4 12284.7 1407.44 70
-3 -7 5 17252.9 1545.45 63
3 7 -5 25582.1 1708.37 107
3 7 -5 17111.5 1032.56 9
3 7 -5 15216.9 992.64 12
3 7 -5 17373.8 998.338 8
-3 -7 5 17433.1 1189.27 47
3 7 -5 14887.4 1095.84 18
3 7 -5 18511.7 1087.95 24
3 7 -5 20268.5 949.631 16
-3 -7 5 17819.4 969.884 115
3 7 -5 13534.2 1042.1 15
-3 -7 5 17468.8 1047.22 95
3 7 -5 18792.4 1014.42 25
3 7 -5 18072 971.282 14
3 7 -5 23539.3 1179.99 80
-3 -7 5 16993.1 873.448 73
-3 -7 5 16102.4 1571.15 70
3 9 -6 6640.77 393.043 25
3 9 -6 7404.73 512.585 8
3 9 -6 5625.58 512.198 18
-3 -9 6 5392.71 501.312 26
-3 -9 6 4922.07 325.625 73
3 9 -6 6442.24 421.56 14
3 -10 4 3640.53 447.245 111
3 -10 4 2331.48 443.861 63
-3 10 -4 5020.09 430.698 19
3 -10 4 4727.15 845.929 84
-3 10 -4 6141.56 450.264 17
-3 10 -4 5628.26 462.823 16
-3 10 -4 4897.66 542.983 10
-3 10 -4 4511.96 480.13 14
3 -10 4 4905.69 682.69 79
3 -10 4 3561.22 746.492 69
-3 8 -3 49295.2 1596.12 25
3 -8 3 49164.1 2790.13 57
3 -8 3 65573.8 3881.57 52
-3 8 -3 51807.4 2120.43 36
-3 8 -3 52271.6 1477.73 17
3 -8 3 43717.2 2475.95 34
3 -8 3 66792.9 4348.63 109
-3 8 -3 53316 1608.06 16
-3 8 -3 48914.3 1835.96 10
-3 8 -3 50428.9 1538.65 19
3 -8 3 52649.6 2597.55 59
-3 8 -3 44435.2 1410.75 9
-3 8 -3 43826.8 1655.33 14
-3 8 -3 59131.5 2014.86 106
-3 8 -3 55260.6 2057.64 4
-3 8 -3 48090.9 1580.23 12
3 -8 3 54527.6 3275.87 105
3 -8 3 50046.3 2507.92 79
3 -6 2 25372.9 1481.02 56
3 -6 2 22800 1498.56 59
-3 6 -2 23063.7 881.37 12
-3 6 -2 23133.9 1248.91 18
-3 6 -2 29249.3 1281.49 106
-3 6 -2 25853.9 945.579 17
3 -6 2 19944.7 1559.54 43
3 -6 2 39876.9 2953.09 109
3 -6 2 31647.6 2115.51 105
-3 6 -2 25789.1 985.985 30
-3 6 -2 24267.4 1045.59 10
-3 6 -2 24554.8 973.982 25
-3 6 -2 26097.6 979.677 16
-3 6 -2 26603.6 1101.58 4
-3 6 -2 20705.7 770.172 9
-3 6 -2 24585.1 1094.33 14
-3 6 -2 23160.3 788.147 22
3 -6 2 40978.1 2719.95 52
-3 4 -1 17947.5 684.153 4
3 -4 1 14934.1 1063.71 43
3 -4 1 23955.9 1256.29 34
3 -4 1 29710 2030.52 109
-3 4 -1 21211.8 687.739 99
-3 4 -1 21625.3 963.347 106
-3 4 -1 21232.3 657.415 7
3 -4 1 22969.3 1488.94 105
3 -4 1 28312.2 1810.51 52
3 -2 0 193214 4260.41 52
3 -2 0 226715 2342.25 48
3 -2 0 254482 3266.91 34
-3 2 0 257977 2625.07 106
3 -2 0 168288 3829.59 105
-3 2 0 257240 2556.15 108
3 -2 0 190889 4696.33 109
-3 2 0 245993 2483.04 7
3 0 -1 102933 2881.51 45
-3 0 1 112048 1509.93 42
-3 0 1 108585 1782.16 108
3 0 -1 140513 3962.76 109
-3 0 1 100757 1286.94 106
3 0 -1 101327 2940.15 105
3 0 -1 75420.8 1794.69 5
3 0 -1 83615.5 2590.01 107
-3 0 1 96457.2 1595.09 7
-3 -2 2 15982.6 713.327 108
3 2 -2 15323.6 972.642 3
3 2 -2 15369 915.568 1
-3 -2 2 16315.7 682.066 44
-3 -2 2 17480.4 871.11 35
3 2 -2 15115.6 1121.6 107
-3 -2 2 16159.3 741.02 7
3 2 -2 18267.3 854.68 6
-3 -4 3 529.984 243.837 63
3 4 -3 573.458 139.079 25
3 4 -3 617.994 188.647 32
3 4 -3 1181.14 206.33 8
-3 -4 3 778.335 163.347 90
-3 -4 3 946.627 216.376 44
3 4 -3 883.904 200.91 18
3 4 -3 1017.6 223.512 12
3 4 -3 677.074 171.768 15
3 4 -3 700.983 214.336 1
-3 -4 3 803.361 194.187 103
3 4 -3 845.414 208.899 24
3 4 -3 828.512 284.739 107
3 4 -3 764.502 158.292 21
3 4 -3 691.845 181.989 9
-3 -4 3 505.22 311.338 69
-3 -6 4 7030.81 579.955 54
3 6 -4 6128.6 617.573 12
3 6 -4 6463 604.978 8
-3 -6 4 6884.47 725.776 47
3 6 -4 5802.06 647.115 18
-3 -6 4 6346.85 546.711 90
3 6 -4 7090.76 618.956 25
3 6 -4 7102.82 559.375 16
-3 -6 4 7522.5 669.696 95
3 6 -4 8167.81 941.816 107
-3 -6 4 7225.96 612.104 115
-3 -6 4 4986.86 852.454 63
3 6 -4 5820.89 644.801 15
3 6 -4 7982.35 671.353 80
3 6 -4 5835.16 591.992 9
-3 -6 4 4622.12 917.049 70
3 6 -4 7264.6 701.362 24
3 8 -5 1446.75 274.915 8
3 8 -5 1154.32 292.542 18
-3 -8 5 1198.16 261.618 95
3 8 -5 1425.18 252.681 14
3 8 -5 1407.26 204.778 16
3 8 -5 1469.58 239.548 25
3 8 -5 1417.52 273.75 9
-3 -8 5 1148.95 202.844 73
3 8 -5 897.456 264.384 15
3 -11 5 3735.81 495.604 27
-3 11 -5 4593.21 382.326 14
3 -9 4 9037.42 1197.02 57
-3 9 -4 8433.43 679.585 12
-3 9 -4 9535.1 674.426 19
-3 9 -4 10332 668.509 17
-3 9 -4 9070.89 663.111 25
-3 9 -4 9730.36 664.221 16
-3 9 -4 8718.86 790.233 10
-3 9 -4 7904.49 693.278 14
3 -9 4 8311.79 1240.15 84
-3 9 -4 8360.64 638.847 9
3 -9 4 9874.81 1088.5 79
3 -9 4 8196.54 777.574 111
3 -9 4 6701.26 1080.38 69
3 -7 3 37352.8 2086.07 59
3 -7 3 32557.4 2132.72 57
-3 7 -3 36041.5 1279.57 12
-3 7 -3 32531.6 1034.53 8
3 -7 3 45148.8 2972.49 52
-3 7 -3 38744.6 1105.57 22
-3 7 -3 32102.6 1621.09 18
3 -7 3 24761.8 1377.12 11
-3 7 -3 41709.2 1667.23 106
-3 7 -3 38619.9 1253.05 17
-3 7 -3 38228.2 1293.83 30
3 -7 3 48837 3420.88 109
-3 7 -3 36629.6 1451.72 10
3 -7 3 39531.1 2568.29 105
-3 7 -3 36126.6 1294.25 25
-3 7 -3 39986.3 1558.92 4
-3 7 -3 37884.2 1286.17 16
-3 7 -3 35769.4 1452.88 14
-3 7 -3 35288.3 1183.84 9
3 -7 3 35594.7 1970.92 79
3 -7 3 19904.1 1679.52 2
-3 5 -2 18664.2 815.331 4
3 -5 2 17696.8 1212.76 59
-3 5 -2 19338.6 732.832 12
3 -5 2 16834.2 1109.29 56
3 -5 2 26586.9 1927.95 52
3 -5 2 11657.5 1064.21 43
3 -5 2 25665.7 2060.57 109
-3 5 -2 18384 790.792 10
-3 5 -2 21218.3 1068.73 106
3 -5 2 20321.1 1529.38 105
-3 5 -2 16670.2 617.854 9
-3 3 -1 99414.8 1631.23 108
3 -3 1 86467.1 3033.72 52
3 -3 1 116698 2414.26 34
-3 3 -1 112715 1836.14 7
3 -3 1 96907.9 3519.46 109
3 -3 1 88853.8 1490.79 1
3 -3 1 87724.5 2919.33 105
-3 3 -1 107963 2108.27 106
3 -1 0 64520.1 2122.66 104
3 -1 0 63744.5 1883.03 40
-3 1 0 84662.2 1151.91 39
-3 1 0 88175.5 1227.06 100
3 -1 0 75474.9 3074.54 109
-3 1 0 80289.6 1338.43 106
3 -1 0 62525 2490.98 105
-3 1 0 76936.6 1475.61 7
3 -1 0 69554 1602.23 1
-3 1 0 85414.7 1694.49 108
3 -1 0 81669.6 2189.35 107
3 1 -1 2882.08 271.902 6
-3 -1 1 2882.76 284.507 42
3 1 -1 2505.51 142.279 36
3 1 -1 1629.23 313.025 107
-3 -1 1 2402.59 271.648 7
3 1 -1 2392.98 204.552 2
-3 -1 1 2664.13 302.883 108
3 1 -1 3225.97 432.992 3
3 1 -1 2505.18 350.316 1
3 1 -1 2839.59 467.231 105
-3 -3 2 52884.8 2188.97 63
3 3 -2 66614.1 1447.83 8
3 3 -2 69492.2 1634.98 12
3 3 -2 86543.4 2273.05 3
-3 -3 2 74104.3 1761.63 44
3 3 -2 69375.1 1381.23 36
-3 -3 2 78260 2156.41 35
3 3 -2 75901.8 2418.34 107
-3 -3 2 71156.9 1663.88 7
-3 -3 2 64109.7 1497.06 108
3 3 -2 73139.8 2072.46 1
3 3 -2 70458.6 1597.21 9
-3 -3 2 73726.6 3131.88 69
-3 -5 3 17409.2 1485.45 63
3 5 -3 21658.2 1090.16 12
3 5 -3 21058.9 1017.24 8
-3 -5 3 25815.2 1322.66 44
3 5 -3 22475.5 1165.42 18
3 5 -3 25176.7 1246.93 24
-3 -5 3 27759.5 1379.08 103
-3 -5 3 27041.4 1037.75 54
3 5 -3 23532.5 1123.73 15
3 5 -3 22844.6 1033.15 25
-3 -5 3 23333.3 996.991 90
3 5 -3 26168.1 1539.1 107
3 5 -3 20974.8 905.986 21
3 5 -3 24138.6 1048.66 80
3 5 -3 21695.5 1078.31 9
-3 -5 3 24190.7 2193.76 69
-3 -7 4 36978.4 1523.4 95
-3 -7 4 30888 2156.27 63
3 7 -4 37880.5 1312.8 25
-3 -7 4 37330.6 1414.97 54
3 7 -4 34681 1435.94 8
-3 -7 4 38454.3 1746.48 47
-3 -7 4 40853.4 2828.16 70
3 7 -4 31630 1559.44 18
3 7 -4 31065.1 1539.27 15
-3 -7 4 36918.3 1385.61 115
3 7 -4 39871.1 1627.94 24
3 7 -4 34156.4 1470.27 9
3 9 -5 28.2315 40.3411 18
-3 -9 5 217.723 119.107 26
-3 -9 5 121.032 73.863 95
3 9 -5 108.938 54.0695 8
-3 -9 5 272.361 122.322 79
3 9 -5 162.227 77.428 14
-3 10 -5 3706.36 458.71 10
-3 10 -5 3240.53 374.976 12
3 -10 5 1690.29 458.162 27
-3 10 -5 3689.34 355.648 19
3 -10 5 3660.6 450.022 111
-3 10 -5 4314.45 384.724 17
-3 10 -5 3597.41 345.925 16
-3 10 -5 3416.15 408.284 14
3 -10 5 4151.05 747.089 84
3 -10 5 3345.02 544.497 79
-3 8 -4 44436.3 1868.27 106
3 -8 4 33573.1 2297.3 57
-3 8 -4 34901.3 1381.81 12
-3 8 -4 34465.4 1209.54 8
3 -8 4 32271.4 1641.08 111
-3 8 -4 36235.8 1781.59 36
-3 8 -4 35494.3 1276.94 17
3 -8 4 37981.5 2327.52 34
-3 8 -4 38941.7 1365.5 30
-3 8 -4 42420.5 1795.67 4
-3 8 -4 34857 1266.4 16
-3 8 -4 34653.5 1529.95 10
-3 8 -4 34848.1 1321.03 25
3 -8 4 34239.2 2520.59 84
-3 8 -4 30640.2 1405 14
-3 8 -4 33919 1307.59 9
3 -8 4 36589.8 2120.06 79
3 -8 4 25438.3 2031.8 69
-3 6 -3 11902.9 693.675 25
3 -6 3 11457.3 1066.25 59
3 -6 3 11410.2 1150.67 57
-3 6 -3 11256.6 543.802 8
3 -6 3 12099.5 1041.32 56
3 -6 3 12043.3 1398.35 52
-3 6 -3 13508.1 1035.76 18
3 -6 3 7468.8 767.459 11
-3 6 -3 13198.8 709.284 17
-3 6 -3 12885.8 736.343 30
3 -6 3 13379.6 1657.35 109
-3 6 -3 11998.8 674.822 12
-3 6 -3 12247.6 742.592 10
-3 6 -3 13991.7 976.774 106
3 -6 3 12662.3 1330.96 105
-3 6 -3 12372.5 670.16 16
-3 6 -3 13841.3 818.185 4
-3 6 -3 11914.7 624.477 9
-3 6 -3 11415.9 752.004 14
3 -6 3 10382.1 1229.82 84
3 -6 3 11587.8 1042.79 79
-3 6 -3 12447.1 638.137 22
3 -4 2 109742 2753.11 59
-3 4 -2 140534 1685.76 99
3 -4 2 111423 2661.96 56
-3 4 -2 115426 1793.44 108
3 -4 2 97832.9 3466.57 52
3 -4 2 103823 3386.26 105
3 -4 2 130004 2964.23 34
3 -4 2 107201 3988 109
-3 4 -2 134167 2260.13 7
-3 4 -2 126571 1808.21 10
-3 4 -2 131970 2758.31 106
-3 2 -1 19552.6 871.644 108
3 -2 1 20651.3 869.691 48
3 -2 1 23215.8 971.466 40
3 -2 1 13472.3 1207.36 105
3 -2 1 25646.9 1128.09 104
-3 2 -1 20369.4 836.573 7
3 -2 1 15123.1 1438.55 109
-3 2 -1 20378.4 868.426 106
-3 2 -1 22571.1 927.22 50
3 -2 1 20681.2 819.781 1
-3 0 0 79079.5 1769.81 108
3 0 0 58532.3 1790.84 3
-3 0 0 78118.1 1346.71 39
-3 0 0 78047.7 1415.82 100
3 0 0 83642.6 2204.84 5
-3 0 0 87348.9 1837.82 50
3 0 0 89317 2812.36 105
-3 0 0 74084.7 1523.86 7
3 0 0 62911 1652.58 2
-3 0 0 70852.1 1075.56 106
3 0 0 76537.4 1844.62 1
3 0 0 89717.6 1583.93 98
-3 -2 1 70827.9 1603.67 42
3 2 -1 75487.5 1179.45 36
3 2 -1 74884.5 2114.76 3
-3 -2 1 68731.4 1588.19 108
3 2 -1 76421.1 2033.3 107
-3 -2 1 70677.7 1576.59 7
3 2 -1 71950.9 1951.33 1
-3 -4 2 10343.5 1095.31 63
-3 -4 2 14973.8 920.271 44
3 4 -2 15564.4 1000.53 1
3 4 -2 15115.7 839.83 18
3 4 -2 20010.9 1142.72 3
3 4 -2 13550.9 727.907 36
-3 -4 2 15901.1 1138.21 35
3 4 -2 15408.3 913.28 24
3 4 -2 13603.7 953.698 107
3 4 -2 15378.7 789.956 15
3 4 -2 13006 741.279 8
3 4 -2 15958 1012.25 32
3 4 -2 12973.8 768.64 9
3 4 -2 14072.2 680.207 21
-3 -4 2 15625.3 1625.89 69
-3 -6 3 40904.2 2463.56 63
-3 -6 3 65833 1797.18 54
3 6 -3 53617.2 1793.28 8
3 6 -3 53977.5 1943.98 18
-3 -6 3 62453.1 2269.61 44
-3 -6 3 59942.3 1751.94 115
3 6 -3 67015 2469.92 107
-3 -6 3 53524.5 1564.34 90
3 6 -3 54470.6 1529.47 25
3 6 -3 52691.5 1862.2 15
3 6 -3 62307 2052.2 24
3 6 -3 52712 1808.22 9
-3 -8 4 1917.16 495.12 63
3 8 -4 1902.34 314.41 8
3 8 -4 1772.74 333.927 18
-3 -8 4 1584.35 260.662 115
-3 -8 4 1643.53 489.782 70
3 8 -4 2177.74 321.195 14
3 8 -4 1305.9 295.582 15
-3 -8 4 1490.68 283.954 95
-3 -8 4 1452.42 216.856 73
-3 11 -6 12062.1 448.931 16
3 -11 6 8990.46 636.54 27
-3 9 -5 21886.5 998.18 19
-3 9 -5 20298.4 1048.23 12
-3 9 -5 22319.5 987.493 17
-3 9 -5 19083.2 928.529 25
-3 9 -5 19748.3 894.403 16
-3 9 -5 19151.4 1113.31 10
3 -9 5 19961.9 1799.11 84
-3 9 -5 17012.7 994.715 14
3 -9 5 19182.8 1201.09 111
3 -9 5 20610 1521.53 79
-3 9 -5 20364.8 1009.82 9
-3 7 -4 8968.88 721.126 14
-3 7 -4 10381.5 706.31 12
3 -7 4 10740 1226.09 57
-3 7 -4 10514.8 601.842 8
3 -7 4 9080.54 813.392 11
-3 7 -4 11550 713.999 17
3 -7 4 12398.9 1275.61 34
3 -7 4 10920.6 1345.39 84
3 -7 4 10878.6 915.279 111
-3 7 -4 11016.2 731.242 30
-3 7 -4 10079.8 757.295 10
-3 7 -4 13919.2 1073.58 106
-3 7 -4 10468.8 704.104 25
3 -7 4 7240.22 1008.29 2
-3 7 -4 12656.9 903.962 4
-3 7 -4 9875.24 649.044 9
3 -7 4 11568.2 1132.03 79
-3 7 -4 12457.8 689.568 22
-3 7 -4 10397.5 659.282 16
-3 5 -3 11250.2 494.469 8
-3 5 -3 12080 583.074 64
-3 5 -3 12252.9 604.307 12
3 -5 3 11429.4 1017.36 59
3 -5 3 10146.5 993.552 57
3 -5 3 11751.4 975.257 56
3 -5 3 7506.13 1024.36 52
-3 5 -3 13348.9 989.316 18
3 -5 3 8681.34 783.874 11
3 -5 3 12329.6 1021.62 34
-3 5 -3 12204.5 652.54 17
3 -5 3 11363.3 783.178 111
-3 5 -3 12051.7 678.481 30
-3 5 -3 12210.6 656.298 10
-3 5 -3 13119.1 986.325 106
3 -5 3 8630.05 1040.57 105
-3 5 -3 13427.2 774.649 7
3 -5 3 8058.47 996.842 2
3 -5 3 8564.6 1233.3 109
-3 5 -3 16866.5 684.992 9
3 -5 3 11188.3 1198.24 84
3 -5 3 11198.2 946.106 79
-3 5 -3 12850.7 672.448 22
-3 5 -3 12427.2 728.047 4
3 -3 2 14956.4 862.011 3
3 -3 2 17353.3 963.764 48
-3 3 -2 19898.6 1070.03 106
3 -3 2 13669.6 1425.03 109
3 -3 2 18212.9 686.128 1
3 -3 2 19748 1003.66 34
-3 3 -2 20187.6 976.364 108
3 -3 2 11981.1 1179.51 105
-3 3 -2 21906.8 985.214 50
-3 3 -2 19462.1 905.682 7
-3 1 -1 568924 5012.71 50
3 -1 1 574671 4804.19 1
-3 1 -1 580871 5167.21 108
3 -1 1 574799 7237.81 105
3 -1 1 485178 6608.74 5
-3 1 -1 581016 4450.59 106
3 1 0 277515 3703.11 1
-3 -1 0 271584 3425.41 108
-3 -1 0 289508 3545.84 50
-3 -1 0 279399 3148.44 100
-3 -1 0 269121 2959.89 39
3 1 0 238658 2632.6 107
3 1 0 316153 5099.82 105
-3 -1 0 261983 3032.68 7
3 1 0 256876 3785.83 3
-3 -3 1 101336 3059.24 63
-3 -3 1 140994 2394.1 7
3 3 -1 141001 2889.96 1
3 3 -1 123210 2128 8
3 3 -1 162967 3280.8 3
-3 -3 1 142588 2628.3 42
3 3 -1 139710 2022.68 36
-3 -3 1 144574 3199.33 35
3 3 -1 137024 2587.67 107
3 3 -1 146899 2198.57 15
3 3 -1 157494 2921.79 32
-3 -3 1 134657 2421.26 108
-3 -3 1 132916 4181.9 69
3 3 -1 141844 1975.52 21
3 5 -2 85261.9 2144.84 8
3 5 -2 89429 2283.58 18
-3 -5 2 97971.7 2664.39 44
-3 -5 2 83640.3 1883.64 90
3 5 -2 96442.3 2634.39 107
3 5 -2 89039.7 1889.27 21
3 5 -2 97338.4 2430.67 24
3 5 -2 83670.9 2160.29 9
-3 -5 2 95382.9 4354.93 69
3 5 -2 92759.2 2194.62 15
-3 -7 3 11743.9 1351.15 63
-3 -7 3 11683.3 1570.91 70
-3 -7 3 15749.5 908.779 54
3 7 -3 13527.4 909.33 8
-3 -7 3 12936.1 1001.36 47
3 7 -3 12491 947.751 18
-3 -7 3 11099.5 679.602 90
3 7 -3 11693 900.049 15
-3 -7 3 15919.9 981.874 95
3 7 -3 14642.9 964.71 24
3 7 -3 14267.7 911.688 14
-3 -7 3 14189.3 840.02 115
-3 -9 4 927.466 178.131 95
-3 -9 4 604.041 169.739 26
3 9 -4 1126.77 179.117 14
-3 -9 4 662.476 178.03 79
3 -10 6 438.294 200.958 27
-3 10 -6 408.409 130.298 12
-3 10 -6 507.614 125.221 19
-3 10 -6 551.457 130.379 17
3 -10 6 307.765 113.314 111
-3 10 -6 444.954 107.976 16
3 -10 6 155.905 65.7805 83
-3 10 -6 262.115 110.826 14
-3 10 -6 528.88 167.124 10
-3 10 -6 494.286 132.069 9
-3 8 -5 29387.6 1230.1 9
-3 8 -5 28069.4 1235.45 12
-3 8 -5 29773.7 1137.62 8
3 -8 5 25305.6 1193.98 11
-3 8 -5 30611.2 1194.29 17
3 -8 5 26356.1 1462.03 111
-3 8 -5 28042.8 1097.05 16
3 -8 5 30465.9 1888.76 79
-3 8 -5 28011.6 1315.72 10
-3 8 -5 31568.9 1245.76 30
-3 8 -5 23964.7 1196.55 14
3 -8 5 28667.7 2207.72 84
-3 8 -5 29283 1198.11 25
3 -6 4 29377 1410.03 111
3 -6 4 23539.5 1769.84 2
-3 6 -4 28968.8 1086.1 12
-3 6 -4 31952 969.33 8
3 -6 4 28756 1851.84 57
3 -6 4 25861 1358.51 11
3 -6 4 32696.3 1854.1 34
-3 6 -4 30878.9 1145.12 17
-3 6 -4 29709.1 1176.33 30
-3 6 -4 28248.8 1130.27 10
3 -6 4 29601.8 2129.96 84
-3 6 -4 34021.8 1716.23 106
-3 6 -4 29624.2 1132.78 25
-3 6 -4 27861.2 1009.39 16
-3 6 -4 37255.8 1458.02 4
-3 6 -4 30462.6 1054.16 9
-3 6 -4 25229.4 1122.05 14
3 -6 4 28965.2 1688.88 79
-3 6 -4 33808.1 1169.43 22
-3 4 -3 143070 1969.52 64
-3 4 -3 137500 1689.21 8
-3 4 -3 152396 2269.77 61
-3 4 -3 140162 1887.68 12
3 -4 3 134848 3260.18 59
-3 4 -3 159352 2768.9 50
3 -4 3 112719 2870.14 48
3 -4 3 106894 2694.5 11
-3 4 -3 144198 2059.32 10
3 -4 3 141071 2962.95 34
-3 4 -3 149697 2748.17 108
-3 4 -3 141264 3251.41 106
-3 4 -3 149173 2823.44 7
3 -4 3 99234.4 3330.21 2
-3 4 -3 144475 1861.79 9
3 -4 3 96528.7 4003.21 109
3 -2 2 89951.2 1743.59 53
3 -2 2 84317.5 2161.76 3
-3 2 -2 85973.1 2127.83 50
3 -2 2 96082 2211.66 48
3 -2 2 85371.6 1760.38 1
3 -2 2 96595.9 3586.65 109
-3 2 -2 88409.4 2215.45 108
3 -2 2 61358.7 2655.8 5
3 -2 2 71933.5 2683.85 105
-3 2 -2 92502.2 2278.42 106
-3 2 -2 103063 2403.54 101
-3 2 -2 88466.9 2033.37 7
3 -2 2 56290.3 2310.67 98
3 -2 2 67137.8 2289.66 2
3 0 1 48689.8 1525.6 1
3 0 1 44844.7 1593.38 3
-3 0 -1 43779 1459.25 50
3 0 1 62871.3 1684.74 98
-3 0 -1 42523.2 1463.37 108
-3 0 -1 41590.9 1032.42 106
3 0 1 52142.9 2003.37 105
-3 0 -1 46187.8 1377.64 7
-3 0 -1 45758.3 1257.96 100
3 0 1 57896.7 2066.88 5
3 0 1 45883.2 1535.06 2
3 2 0 25772.7 918.295 8
3 2 0 26585.6 1304.59 3
3 2 0 27071 1243.22 1
-3 -2 0 24463.8 1038.7 42
-3 -2 0 26202.3 1067.25 39
3 2 0 27877.6 804.188 36
-3 -2 0 25898.8 1027.52 7
-3 -2 0 26083.9 1129.84 100
-3 -2 0 24006.6 1078.36 108
3 4 -1 21343.6 995.475 8
3 4 -1 25163.8 1094.3 18
-3 -4 1 26083.8 1270.99 42
-3 -4 1 25040.1 1489.54 35
3 4 -1 27324.3 1364.32 32
3 4 -1 26604.9 1389.46 1
3 4 -1 24435.6 1010.3 15
3 4 -1 23226.6 1083.82 24
3 4 -1 24157.2 1170.14 107
3 4 -1 24313 911.695 21
-3 -4 1 24041.8 2016.06 69
-3 -6 2 48482.7 1560.68 54
3 6 -2 40242.6 1571.54 8
3 6 -2 40050.7 1654.21 18
-3 -6 2 47304.6 1989.79 44
-3 -6 2 36032.1 1253.04 90
-3 -6 2 44371 2051.49 103
3 6 -2 38341.1 1520.11 15
3 6 -2 43781.3 1640.96 24
-3 -6 2 31785.6 2205.25 63
3 6 -2 37742.4 1272.7 21
-3 -8 3 2777.29 568.809 63
-3 -8 3 2008.3 270.815 115
3 8 -3 2307.15 368.93 15
-3 -8 3 2492.92 348.662 95
3 8 -3 3313.65 387.193 14
-3 -8 3 2013.11 602.372 70
-3 9 -6 1824.8 328.35 10
-3 9 -6 1970.43 313.469 12
-3 9 -6 2057.74 281.306 8
-3 9 -6 2251.56 299.081 17
3 -9 6 2212.88 394.525 111
-3 9 -6 2000.61 263.818 16
3 -9 6 1412.21 365.689 27
-3 9 -6 1622.36 278.487 14
-3 9 -6 2117.47 310.875 9
-3 7 -5 18931.2 868.996 16
-3 7 -5 19685.2 851.047 8
3 -7 5 14715.5 1370.22 48
3 -7 5 16822.8 1044.72 11
3 -7 5 20123.4 1534.57 34
-3 7 -5 20357.7 966.601 17
-3 7 -5 18953.4 1033.63 10
3 -7 5 19179.7 1223.08 111
-3 7 -5 19483.2 998.057 30
3 -7 5 7023.21 1225.56 98
3 -7 5 11024.4 1561.06 5
-3 7 -5 24760.5 1553.96 106
-3 7 -5 18354.9 940.208 12
-3 7 -5 20366.9 993.659 25
-3 7 -5 25410.2 1320.83 4
3 -7 5 9634.94 1109.8 27
-3 7 -5 19725.2 948.676 9
-3 7 -5 15358.5 897.957 14
3 -7 5 20661.5 1840.28 84
3 -7 5 16444.5 1485.11 2
3 -7 5 18833.1 1444.58 79
-3 7 -5 21781.2 978.794 22
-3 5 -4 104671 1880.97 64
-3 5 -4 110461 1717.26 8
-3 5 -4 102587 1856.41 12
3 -5 4 100683 3208.91 57
3 -5 4 102241 2490.12 111
3 -5 4 82279.3 2805.08 48
3 -5 4 91638.1 2589.8 11
3 -5 4 106264 2900.18 34
-3 5 -4 99636 1977.31 17
-3 5 -4 97266.6 2045.95 30
3 -5 4 95757.2 2023.19 110
3 -5 4 81635.1 1821.03 29
3 -5 4 52144.3 3111.97 5
-3 5 -4 100560 1922.87 10
-3 5 -4 117482 3341.44 106
-3 5 -4 107165 1829.27 9
3 -5 4 96281.6 3528.49 2
3 -5 4 114967 4087.35 84
-3 5 -4 98988.3 1902.86 25
3 -5 4 107502 3088.3 79
-3 5 -4 103861 2129.41 22
-3 5 -4 112050 2668.52 7
-3 3 -3 18796.7 813.025 61
-3 3 -3 19407 1119.21 108
3 -3 3 19076.9 1135.68 48
3 -3 3 18326.7 927.082 3
3 -3 3 18184.6 1050.58 11
3 -3 3 12670.6 1308.94 5
3 -3 3 18099.7 1590.68 109
-3 3 -3 20336.4 1100.74 50
-3 3 -3 19852.3 1079.64 7
-3 3 -3 21626.7 1157.54 101
-3 3 -3 20252.8 732.573 10
3 -3 3 10334.7 1141.07 98
3 -3 3 16066 1254.67 2
-3 3 -3 19462.3 1230.19 106
3 -3 3 14254.7 1186.78 105
3 -1 2 69114.8 2145.7 2
3 -1 2 73526.6 2043.7 3
3 -1 2 88065 1737.22 53
-3 1 -2 74345.9 2084.49 50
3 -1 2 77427.3 1912.53 1
-3 1 -2 79539.3 2306.22 101
3 -1 2 83904.6 2890.53 5
-3 1 -2 75750.5 2193.76 108
-3 1 -2 69074.2 1873.21 106
3 -1 2 71771.5 2245.34 105
-3 1 -2 75425.7 1969.74 7
3 -1 2 77066.8 2487.44 98
-3 -1 -1 111211 2540.63 108
-3 -1 -1 110049 2472.64 50
3 1 1 113056 2640.03 3
3 1 1 119029 2616.52 1
-3 -1 -1 108068 2160.43 39
-3 -1 -1 112853 2293.9 7
-3 -1 -1 113351 2302.6 100
-3 -3 0 10428.3 1018.45 63
3 3 0 12413.9 712.832 8
3 3 0 14588.1 753.832 18
-3 -3 0 13841.5 889.513 42
3 3 0 15779.3 1119.16 3
-3 -3 0 13050.7 1031.54 35
3 3 0 14284.1 895.875 32
-3 -3 0 12109.6 804.666 108
-3 -3 0 13349 788.387 7
-3 -3 0 14233.7 959.366 100
3 3 0 14059.7 711.814 15
3 3 0 11880.1 561.805 113
3 3 0 13123.4 951.65 1
3 3 0 13264.2 643.629 21
-3 -5 1 14841.4 1463.19 63
3 5 -1 18078.3 1002.84 8
3 5 -1 19934 1087.36 18
-3 -5 1 20084.3 1261.96 44
-3 -5 1 22126 1556.99 35
3 5 -1 19564.6 989.202 15
3 5 -1 18033 971.8 24
3 5 -1 20600.7 907.245 21
-3 -5 1 22515.8 2118.64 69
-3 -7 2 35813.9 2243.46 63
3 7 -2 34986.8 1502.09 15
-3 -7 2 45264.9 1497.37 54
-3 -7 2 41702.6 1866.17 44
-3 -7 2 35447.2 1266.82 115
-3 -7 2 23963.8 937.295 90
3 7 -2 43995.8 1550.64 14
-3 -7 2 45705 1605.31 95
-3 -7 2 36784.9 2805.81 70
-3 -9 3 330.075 96.325 95
-3 10 -7 234.395 88.869 12
-3 10 -7 69.0793 36.7619 19
-3 10 -7 197.37 70.4879 17
-3 10 -7 207.331 59.713 16
3 -10 7 192.729 93.7701 27
-3 10 -7 370.197 116.377 10
-3 8 -6 37344.1 1308.98 25
-3 8 -6 35261.4 1351.87 12
-3 8 -6 39384.5 1269.12 8
3 -8 6 33518.2 2054.69 48
3 -8 6 33312.6 1264.95 11
-3 8 -6 41452.5 1354.88 17
-3 8 -6 39445.8 1223.42 16
3 -8 6 40511.9 1762.17 111
-3 8 -6 39347.7 1373 30
-3 8 -6 51833.3 2152.74 106
-3 8 -6 35143.6 1419.87 10
3 -8 6 26279.6 1684.87 27
-3 8 -6 36385.5 1309.29 9
-3 8 -6 46627.1 1320.23 22
-3 6 -5 85970.1 1896.27 12
3 -6 5 51084.9 3251.45 98
3 -6 5 73843.6 2935.7 48
3 -6 5 91530.6 2559.1 11
-3 6 -5 94733.5 2077.49 17
-3 6 -5 89364.3 2121.98 30
3 -6 5 88168 2116.02 110
3 -6 5 64868.1 3654.88 5
-3 6 -5 86775.6 2021.77 10
-3 6 -5 100420 3196.42 106
3 -6 5 59193.9 2592.44 27
-3 6 -5 93550 2013.78 25
-3 6 -5 116564 2747.9 4
3 -6 5 89558.6 2535.74 111
-3 6 -5 90295.2 1897.7 9
-3 6 -5 96566.3 1769.27 8
3 -6 5 82294.9 3208.77 2
-3 6 -5 87969.7 1953.11 23
-3 6 -5 97918.3 2164.98 22
3 -6 5 68119.6 1780.6 29
-3 4 -4 62493 1415.79 10
-3 4 -4 60615.6 1230.84 8
-3 4 -4 66976.3 1626.67 61
-3 4 -4 61011.2 1353.81 12
3 -4 4 43985.3 2725.64 5
-3 4 -4 60450.7 1994.56 50
3 -4 4 54072.5 2189.02 48
3 -4 4 57016.7 1911.62 11
-3 4 -4 70809.2 2420.23 37
3 -4 4 57649.4 1865.3 34
-3 4 -4 58503 1480.31 17
-3 4 -4 58528.8 1382.26 64
3 -4 4 60246.2 1851.57 111
-3 4 -4 59746.7 2060.55 108
-3 4 -4 56406.2 1518.8 30
3 -4 4 60879.5 1622.45 29
-3 4 -4 63920.5 2514.73 106
-3 4 -4 65547.1 2057.9 101
-3 4 -4 60929.2 2119.91 7
3 -4 4 39446.2 2507.42 98
3 -4 4 57682.2 2557.69 2
-3 4 -4 63415.1 1325.81 9
3 -4 4 47336 2001.26 27
3 -4 4 48818.3 2059.47 83
-3 4 -4 52016.8 1519.85 22
3 -4 4 60011.2 1579.62 110
-3 2 -3 53727.1 1664.25 62
3 -2 3 42672 1896.7 2
3 -2 3 51654.7 1526.02 53
3 -2 3 47260.6 1625.2 3
3 -2 3 41914.8 1427.6 11
-3 2 -3 48214.2 1912.37 41
3 -2 3 43344.2 2249.76 5
-3 2 -3 42035.3 1842.59 106
3 -2 3 42348.5 1773.4 105
-3 2 -3 52101.3 1982.03 101
-3 2 -3 48946.3 1763.14 7
-3 2 -3 43878.9 1755.56 50
-3 2 -3 47506.2 1903.56 108
3 -2 3 43170.1 2125.83 98
-3 2 -3 49395.2 1588.07 67
-3 0 -2 124992 2896.13 50
3 0 2 138647 2997.5 3
3 0 2 180530 4263.62 5
-3 0 -2 125446 2983.3 108
-3 0 -2 123534 2339.62 106
3 0 2 146648 3299.11 105
-3 0 -2 140680 2859.09 7
-3 0 -2 140546 3355.23 101
3 0 2 196282 3648.58 98
3 0 2 147311 2984.5 1
3 0 2 143361 2961.3 2
-3 -2 -1 8582.53 736.957 50
3 2 1 8795.87 519.46 21
3 2 1 8791.04 813.514 3
-3 -2 -1 8500.59 688.892 39
-3 -2 -1 8242.52 716.77 100
-3 -2 -1 7435.36 696.165 108
-3 -2 -1 8401.36 660.61 7
3 2 1 8352.36 772.921 1
3 2 1 8667.8 548.507 15
-3 -4 0 25573 936.161 71
-3 -4 0 28092.8 1407.85 42
-3 -4 0 27501.5 1673.81 35
3 4 0 28136.1 1122.62 15
-3 -4 0 25235.8 885.02 31
3 4 0 27573.6 1012.18 21
-3 -6 1 5635.51 906.159 63
3 6 -1 7522.21 666.633 15
-3 -6 1 7227.16 781.111 44
3 6 -1 7647.59 553.321 21
-3 -6 1 5022.25 456.727 90
3 6 -1 5982.48 538.885 24
-3 -8 2 1839.19 233.408 115
3 8 -2 3034.6 329.372 14
3 8 -2 2165.69 325.009 15
-3 -8 2 2593.54 323.432 95
3 8 -2 2787.36 283.534 88
-3 -8 2 1960.44 588.674 70
3 -9 7 278.346 134.771 53
-3 9 -7 265.837 123.104 12
-3 9 -7 246.497 119.664 10
3 -9 7 264.259 137.74 111
-3 9 -7 345.978 104.336 8
-3 9 -7 407.929 113.274 17
-3 9 -7 171.351 66.8145 16
3 -9 7 248.151 153.248 27
-3 9 -7 341.453 114.213 9
-3 7 -6 11590.2 749.712 12
-3 7 -6 12675.9 687.702 8
-3 7 -6 11092 780.325 10
3 -7 6 10384.1 1140.19 48
3 -7 6 10772.6 809.002 11
3 -7 6 12913.9 997.93 111
-3 7 -6 12223.1 747.618 17
-3 7 -6 11583.9 714.53 9
-3 7 -6 13604.8 781.351 22
3 -7 6 12382.9 808.219 110
-3 7 -6 14605.5 1204.95 106
3 -7 6 9247.67 998.616 27
-3 7 -6 12093.2 735.504 25
3 -7 6 8809.45 924.629 83
-3 7 -6 12106.5 794.42 30
-3 5 -5 78138.1 1737.69 64
-3 5 -5 86417.4 1594.37 8
-3 5 -5 83773.2 1781.03 12
3 -5 5 72401.3 1941.51 29
3 -5 5 67195.8 2686.55 48
3 -5 5 81159.2 2347.45 11
-3 5 -5 78223.2 1824.54 17
3 -5 5 71583.5 3644.52 5
3 -5 5 79486 1990.88 110
-3 5 -5 79454.7 2003.19 30
-3 5 -5 77650.6 1773.61 10
-3 5 -5 83201.2 2965.54 106
3 -5 5 68778.8 2610.93 27
-3 5 -5 81118.9 2613.19 7
3 -5 5 57253.7 3253.88 98
-3 5 -5 84671.9 1717.36 9
3 -5 5 82028.7 2357.91 111
3 -5 5 64024.2 2486.38 83
3 -5 5 84402.9 3253.24 2
-3 5 -5 75958.9 1918.43 22
-3 3 -4 5161.2 463.656 61
3 -3 4 5595.83 569.178 53
-3 3 -4 5735.63 682.008 50
3 -3 4 5921.44 719.227 48
3 -3 4 4634.07 518.282 11
-3 3 -4 6694.68 760.113 41
3 -3 4 6714.36 589.007 3
-3 3 -4 5860.36 424.035 10
-3 3 -4 5204.2 450.652 30
3 -3 4 5668.86 888.606 5
-3 3 -4 5375 698.048 108
-3 3 -4 6144.73 808.107 106
3 -3 4 5527.51 593.696 27
-3 3 -4 6312.12 726.02 7
3 -3 4 5886.52 857.492 98
3 -3 4 5934.48 523.156 29
3 -3 4 5938.67 684.414 83
-3 3 -4 6250.09 724.898 101
3 -3 4 4876.46 691.964 2
-3 3 -4 4495.38 450.255 22
3 -3 4 5176.31 452.864 21
-3 1 -3 4610.02 536.017 62
-3 1 -3 6795.57 763.245 108
-3 1 -3 7198.42 810.572 101
-3 1 -3 6394.17 719.531 50
3 -1 3 6806.9 520.423 11
3 -1 3 7458.24 708.533 3
-3 1 -3 6877.82 765.19 41
3 -1 3 7882.54 949.85 5
-3 1 -3 5084.61 628.839 106
3 -1 3 6756.06 676.309 105
-3 1 -3 7661.43 736.097 7
3 -1 3 7767.58 819.803 98
3 -1 3 6255.89 665.825 2
-3 1 -3 4139.75 508.856 67
-3 -1 -2 11230.7 1202.93 70
-3 -1 -2 13314.1 1018.6 50
3 1 2 16075.4 1101.2 3
-3 -1 -2 14120 906.61 39
-3 -1 -2 15869.9 988.495 7
-3 -1 -2 13508.5 1063.56 108
-3 -1 -2 14317.6 1178.3 101
-3 -1 -2 14973.6 979.431 100
3 1 2 15435.1 756.604 15
3 1 2 16106.3 734.987 21
-3 -3 -1 14004.5 986.368 108
-3 -3 -1 13098.9 952.077 42
-3 -3 -1 13930.5 990.305 39
-3 -3 -1 12280.3 1085.68 35
-3 -3 -1 14258.9 1056.69 100
3 3 1 14113.9 764.823 15
3 3 1 12644.4 632.775 113
3 3 1 14176.4 710.991 21
-3 -5 0 65143.7 2356.62 44
-3 -5 0 71993.4 2364.72 42
-3 -5 0 67852.6 2805.01 35
3 5 0 73660.9 1964.81 15
3 5 0 73523.1 1721.09 21
-3 -7 1 1419.43 394.959 63
-3 -7 1 1203.15 234.933 54
-3 -7 1 991.33 195.322 115
-3 -7 1 1321.77 531.988 70
3 7 -1 1086.43 252.973 15
3 7 -1 1199.82 220.947 14
-3 10 -8 5198.1 294.635 17
3 -10 8 5421.04 406.637 27
-3 8 -7 11739.5 736.553 12
-3 8 -7 11964.4 628.43 8
3 -8 7 10283.2 829.431 53
3 -8 7 12058.2 705.882 11
-3 8 -7 13596.5 722.263 17
-3 8 -7 12000.4 774.25 10
3 -8 7 11653.6 988.704 27
3 -8 7 12811.6 931.66 111
-3 8 -7 12072.1 733.392 30
-3 8 -7 11968.1 703.956 9
3 -8 7 9580.51 796.858 83
-3 8 -7 14258.5 689.459 22
3 -6 6 55025.9 2328.51 27
-3 6 -6 58615.9 1578.18 64
-3 6 -6 69494.5 1527.34 8
-3 6 -6 63338.6 1666.74 12
3 -6 6 52962.1 2006.26 53
3 -6 6 57969.7 2650.7 48
3 -6 6 65590.9 2061.87 11
-3 6 -6 68991.3 1787.78 17
-3 6 -6 63382.9 1591.35 9
-3 6 -6 64776.8 1891.65 30
3 -6 6 65567.7 1906.13 110
3 -6 6 64461.1 3477.06 5
-3 6 -6 62377.8 1734.28 10
-3 6 -6 73277.6 2788.87 106
3 -6 6 52985.3 3149.39 98
3 -6 6 54916 2267.59 83
-3 6 -6 64742.8 1733.18 23
-3 6 -6 66391.9 1815.35 22
3 -6 6 72547.7 3025.08 2
3 -6 6 58938.1 1796.52 29
3 -6 6 67389.4 2250.28 111
3 -6 6 59500.8 1723.11 21
-3 4 -5 11364 654.876 64
-3 4 -5 11076.5 565.482 8
3 -4 5 10339.9 689.993 21
-3 4 -5 11727.5 718.615 61
-3 4 -5 11351.2 632.369 12
3 -4 5 10353.4 833.275 53
-3 4 -5 11208.8 962.217 50
3 -4 5 11054.4 862.843 11
-3 4 -5 10541 671.359 17
3 -4 5 10883.9 1311.85 98
3 -4 5 10922.8 733.947 110
3 -4 5 11970.4 1385 5
-3 4 -5 10799.9 735.741 30
3 -4 5 11421.7 785.081 29
-3 4 -5 11740.9 1034.71 108
-3 4 -5 12036.4 1063.5 7
-3 4 -5 11578.7 1154.76 106
3 -4 5 10955.6 920.113 27
-3 4 -5 12096.9 628.537 9
3 -4 5 11116.8 1123.62 2
-3 4 -5 11307.4 641.792 10
3 -4 5 10422.7 951.976 83
-3 4 -5 9281.3 691.154 22
3 -4 5 10919.8 1071.82 48
3 -2 4 6567.11 616.608 53
-3 2 -4 5754.99 763.154 108
-3 2 -4 5419.42 719.013 50
3 -2 4 5309.75 508.233 11
-3 2 -4 5707.14 752.633 41
3 -2 4 7526.54 719.846 3
-3 2 -4 4939.78 708.403 106
-3 2 -4 5521.58 427.166 10
3 -2 4 5958.71 548.588 27
-3 2 -4 5833.25 776.336 101
-3 2 -4 6484.78 749.411 7
3 -2 4 6108.08 906.38 5
3 -2 4 6494.92 840.368 98
3 -2 4 4622.71 374.534 85
3 -2 4 6541.92 678.366 83
-3 2 -4 3831.37 427.631 22
3 -2 4 5414.28 696.651 2
-3 2 -4 6086.92 593.896 67
3 -2 4 5616.35 483.946 21
-3 0 -3 3127.77 499.299 62
-3 0 -3 5735.87 736.795 50
3 0 3 5932.01 485.878 11
3 0 3 7232.98 769.522 3
-3 0 -3 5838.41 766.708 108
3 0 3 9413.87 819.983 83
-3 0 -3 6181.17 691.898 7
-3 0 -3 6536.25 844.271 101
3 0 3 7360.29 613.874 91
3 0 3 6641.64 510.414 21
3 2 2 19025.2 790.069 113
-3 -2 -2 23281.6 1399.19 50
-3 -2 -2 23735.2 1307.07 39
3 2 2 24612.9 958.511 21
-3 -2 -2 24181.9 1388.17 100
3 2 2 22702.3 970.615 15
-3 -2 -2 22857.2 1423.56 108
-3 -2 -2 17575.4 1735.99 70
-3 -2 -2 23262.2 1227.79 7
-3 -4 -1 30883.6 1549.32 42
-3 -4 -1 26613.9 1740.91 35
3 4 1 32885 1251.9 15
-3 -4 -1 27595.8 1023.52 71
3 4 1 31605.9 1106.8 21
-3 -6 0 2851.71 553.06 63
-3 -6 0 3369.19 523.701 44
3 6 0 3780.33 374.899 21
3 6 0 4108.76 476.759 15
-3 -6 0 1911.18 268.894 90
3 6 0 3391.17 375.805 14
-3 -6 0 2347.22 723.465 70
3 8 -1 423.487 104.757 88
-3 -8 1 342.047 112.793 95
-3 -8 1 225.082 179.993 70
-3 9 -8 14310 691.68 12
-3 9 -8 15556.1 619.152 17
3 -9 8 14396.4 788.676 27
-3 9 -8 14344.8 709.018 10
-3 9 -8 15128.3 666.401 9
-3 7 -7 3011.3 374.873 12
-3 7 -7 3379.55 339.007 8
-3 7 -7 3732.64 591.313 106
3 -7 7 2638.1 434.065 53
3 -7 7 3028.88 593.342 48
3 -7 7 3274.92 408.747 11
-3 7 -7 3612.79 393.63 17
-3 7 -7 3443.63 420.775 30
-3 7 -7 3010.57 349.757 9
-3 7 -7 3454.69 422.867 10
3 -7 7 2820.11 343.237 21
3 -7 7 2943.79 497.808 27
3 -7 7 2896.94 457.831 83
-3 7 -7 2949.41 338.196 23
-3 7 -7 3745.65 395.027 22
-3 5 -6 2871.05 346.331 64
-3 5 -6 3413.93 327.948 8
-3 5 -6 3090.97 358.508 12
3 -5 6 3024.5 478.656 53
3 -5 6 2277.32 524.763 48
3 -5 6 2633.61 414.188 11
-3 5 -6 2928.77 365.14 17
3 -5 6 3489.08 457.245 29
3 -5 6 2402.82 650.282 5
-3 5 -6 3054.05 414.253 30
-3 5 -6 3213.43 371.885 10
-3 5 -6 2579.59 566.052 106
3 -5 6 2895.9 501.944 27
3 -5 6 2425.47 644.278 98
-3 5 -6 3126.44 350.274 9
3 -5 6 3944.96 693.674 2
3 -5 6 2631.19 480.686 83
-3 5 -6 3384.83 597.783 7
-3 5 -6 2598.69 369.434 22
3 -5 6 3211.44 405.819 21
-3 3 -5 12291.8 754.801 61
3 -3 5 14991.2 1238.44 2
3 -3 5 14917.8 996.452 53
-3 3 -5 13858.7 1201.66 50
3 -3 5 12415.8 832.563 11
-3 3 -5 16621.8 1358.82 41
-3 3 -5 12583.6 720.502 17
-3 3 -5 15213.2 1303.13 101
-3 3 -5 13136.4 775.655 30
-3 3 -5 14106.3 1280.51 108
-3 3 -5 15066.5 1391.61 106
3 -3 5 13893.4 923.948 27
-3 3 -5 15431.9 1279.29 7
3 -3 5 14790.1 1391.86 98
-3 3 -5 15383.2 746.944 10
3 -3 5 16175.7 1561.81 5
3 -3 5 15241.9 1071.62 83
-3 3 -5 10435.8 759.253 22
3 -3 5 14927.5 903.801 29
3 -3 5 12903.5 780.403 21
-3 1 -4 4852.44 571.22 62
-3 1 -4 5542.31 774.692 50
-3 1 -4 5974.37 854.143 101
3 -1 4 4339.57 438.421 11
-3 1 -4 5550.31 799.29 41
3 -1 4 6799.94 983.657 5
-3 1 -4 4309.67 666.387 106
-3 1 -4 6951.57 899.438 108
3 -1 4 4399.08 409.469 85
-3 1 -4 5836.34 743.302 7
3 -1 4 7880.9 939.145 98
3 -1 4 6856.22 699.229 83
3 -1 4 6058.89 611.725 91
-3 1 -4 3579.19 417.722 22
3 -1 4 4446.07 432.575 27
-3 1 -4 4093.74 536.068 67
3 -1 4 4943.71 476.629 21
-3 -1 -3 40342.7 2035.52 50
-3 -1 -3 43689 1852.64 7
-3 -1 -3 43151.2 1803.28 39
-3 -1 -3 40434.3 2108.59 108
-3 -1 -3 42785 2323.95 101
-3 -1 -3 43820.1 1894.07 100
3 1 3 46623.1 1440.91 15
3 1 3 44555.9 1347.53 21
-3 -3 -2 55086.6 2160.52 50
-3 -3 -2 48372.8 1955.64 42
-3 -3 -2 53463.5 2089.89 39
-3 -3 -2 38665.4 2087.27 35
3 3 2 44528.5 1280.26 113
-3 -3 -2 49009.8 2022.39 108
-3 -3 -2 52626.9 2185.77 100
3 3 2 54348.5 1602.42 15
-3 -3 -2 40681.5 2843.74 70
3 3 2 51628.4 1430.5 21
-3 -5 -1 14051.5 1099.07 44
-3 -5 -1 14999.4 1078.35 42
3 5 1 17161 932.836 15
-3 -5 -1 11994.3 1628.11 70
3 5 1 16527.2 796.411 21
3 7 0 52.2336 25.6147 88
3 7 0 109.016 72.7191 15
-3 -7 0 100.047 52.5909 115
-3 8 -8 4420.32 410.124 12
-3 8 -8 4501.57 354.403 8
-3 8 -8 4554.79 409.887 30
-3 8 -8 4908.92 385.713 17
3 -8 8 4278.1 476.386 27
-3 8 -8 4499.3 419.996 10
-3 8 -8 4498.37 392.223 9
-3 8 -8 4937.16 355.778 22
3 -8 8 2874.45 361.139 91
-3 6 -7 8382.36 587.914 64
-3 6 -7 9283.09 537.107 60
-3 6 -7 9528.47 556.497 8
-3 6 -7 9450.22 658.936 12
3 -6 7 8466.26 789.283 53
3 -6 7 8253.6 990.857 48
3 -6 7 10127.2 759.926 11
-3 6 -7 9505.42 644.812 17
-3 6 -7 9468.81 724.144 30
-3 6 -7 8938.01 646.327 10
-3 6 -7 10158 1046.52 106
3 -6 7 8906.17 817.093 27
-3 6 -7 8845.49 648.346 23
-3 6 -7 9269.05 620.242 9
3 -6 7 7489.96 727.285 83
-3 6 -7 9222.97 666.035 22
3 -6 7 8737.11 652.916 21
-3 4 -6 12227.8 720.245 64
-3 4 -6 12101.1 627.761 8
-3 4 -6 12633.4 782.947 61
-3 4 -6 13561.1 743.147 12
3 -4 6 12216 957.921 53
-3 4 -6 12236.5 1110.26 50
3 -4 6 12474.2 897.516 11
-3 4 -6 12730.9 724.133 10
-3 4 -6 13187.7 786.811 17
3 -4 6 14277.5 1540.59 5
-3 4 -6 14312.1 1299.78 7
-3 4 -6 12204.6 810.396 30
3 -4 6 13030.5 892.995 29
-3 4 -6 11847.3 1137.42 108
-3 4 -6 13090.5 1319.76 106
3 -4 6 12268.4 922.357 27
3 -4 6 13896 1450.49 98
-3 4 -6 12918.8 694.418 9
3 -4 6 13735.4 1027.24 83
-3 4 -6 10677.7 789.013 22
3 -4 6 10961.6 755.648 21
3 -4 6 13253.1 1250.22 2
-3 2 -5 47593.7 1694.56 67
3 -2 5 37983 1418.21 27
-3 2 -5 38321.9 2173.61 50
3 -2 5 33530.2 1310.33 11
-3 2 -5 44332.5 2412.5 41
-3 2 -5 38736.9 1220.39 10
3 -2 5 48698.4 2715.29 5
-3 2 -5 34746.8 2126.65 106
-3 2 -5 43904.9 2432.2 101
-3 2 -5 42284.5 2182.41 7
-3 2 -5 39494 2285.21 108
3 -2 5 50134.5 2521.2 98
3 -2 5 34270.9 1508.72 91
3 -2 5 48141.6 1894.16 83
3 -2 5 36572.7 1327.29 21
-3 2 -5 28165.5 1281.32 22
-3 0 -4 33352.2 1676.76 62
-3 0 -4 46507.6 2339.1 50
3 0 4 46189.7 1442.52 11
-3 0 -4 51589 2703.1 101
-3 0 -4 46053.5 2412.04 108
3 0 4 43768.4 1283.83 27
-3 0 -4 48649.4 2191.21 7
3 0 4 42449.8 1448.58 15
3 0 4 57899.6 1943.56 91
3 0 4 70359.1 2409.04 83
3 0 4 48345.3 1467.61 21
-3 0 -4 27274 1529.54 67
-3 -2 -3 128592 3651.12 50
-3 -2 -3 139317 3447.45 39
-3 -2 -3 123895 3657.99 108
-3 -2 -3 135621 3566.51 100
-3 -2 -3 118344 3020.76 7
3 2 3 145991 2660.47 15
3 2 3 115906 2143.83 113
3 2 3 136651 2415.31 21
-3 -4 -2 10410.2 915.889 42
3 4 2 12645.8 790.682 15
3 4 2 12030.9 687.324 21
3 6 1 6684.74 566.148 15
3 6 1 6017.71 431.368 21
-3 7 -8 9540.89 574.842 9
-3 7 -8 9703.71 627.322 12
-3 7 -8 9819.3 529.134 8
3 -7 8 9016.35 719.035 53
3 -7 8 8979.96 588.468 11
-3 7 -8 10192.1 588.702 17
-3 7 -8 10245.3 663.759 30
3 -7 8 9192.42 697.224 27
3 -7 8 6679.39 590.001 91
-3 7 -8 8130.63 515.908 23
3 -7 8 8823.82 551.815 21
-3 7 -8 9184.5 607.057 10
-3 7 -8 10353.2 601.437 22
3 -5 7 36.066 55.8437 21
-3 5 -7 124.874 71.776 60
-3 5 -7 -53.0708 58.599 64
3 -5 7 18.9968 67.9092 53
-3 5 -7 -9.82461 44.1813 12
-3 5 -7 81.9709 52.428 8
3 -5 7 -111.735 88.2109 11
-3 5 -7 -63.5819 56.946 30
-3 5 -7 179.522 203.064 106
3 -5 7 -19.573 86.8547 27
-3 5 -7 17.4025 28.78 10
3 -5 7 13.7309 46.3121 83
-3 5 -7 -56.4487 56.4738 17
3 -5 7 172.956 116.783 91
-3 5 -7 146.975 66.3771 9
-3 5 -7 17.3133 66.252 22
-3 3 -6 6359.64 576.953 61
-3 3 -6 7110.48 532.997 12
3 -3 6 6090.98 602.274 27
-3 3 -6 5937.25 858.241 50
3 -3 6 5864.77 636.902 91
3 -3 6 6300.23 615.268 11
3 -3 6 8533.88 1193.86 5
-3 3 -6 6183.34 543.341 30
-3 3 -6 7146.28 994.168 108
-3 3 -6 6945.13 531.616 10
-3 3 -6 6652.21 952.414 106
-3 3 -6 7317.87 1007.84 101
-3 3 -6 7041.6 963.482 7
3 -3 6 8008.02 1053.13 98
3 -3 6 7273.1 719.639 83
3 -3 6 5928.5 555.002 21
-3 3 -6 6019.45 610.78 22
-3 1 -5 80432.7 3263.41 50
3 -1 5 72595.2 1865.42 11
-3 1 -5 79114.6 3408.7 108
-3 1 -5 83429.8 3055.49 7
3 -1 5 80402.2 1940.6 27
-3 1 -5 89015.7 3676.91 101
3 -1 5 92606.2 2518.25 91
3 -1 5 78601.9 1955.75 21
-3 1 -5 74416.4 1732.52 10
3 -1 5 111113 2928.68 83
-3 1 -5 61761.2 1867.05 22
-3 1 -5 82832.8 2401.96 67
-3 -1 -4 54966.9 2559.95 50
-3 -1 -4 57385.6 2261.62 39
3 1 4 51423.1 1496.79 113
3 1 4 61707.1 1776.11 15
3 1 4 51768.5 1321.88 27
3 1 4 58428 1638 21
-3 -1 -4 62457.5 3047.14 101
-3 -1 -4 57084.1 2352.62 100
-3 -1 -4 53370.8 2203.15 7
-3 -1 -4 54141.4 2635.87 108
-3 -3 -3 10113.5 925.796 42
-3 -3 -3 11062.6 984.055 39
-3 -3 -3 10796.2 1023.08 100
3 3 3 12049.6 762.647 15
3 3 3 10020.8 636.346 113
-3 -3 -3 10643.2 976.762 108
3 3 3 11422.6 683.114 21
3 5 2 9552.39 655.338 15
3 5 2 8945.59 546.772 21
-3 -7 -1 152.892 67.1981 95
3 7 1 187.063 59.8117 88
-3 8 -9 7675.41 388.574 17
3 -8 9 7644.72 461.133 91
3 -8 9 6924.04 428.795 27
-3 6 -8 13795.2 620.422 8
-3 6 -8 13586.8 728.946 12
-3 6 -8 13010.6 713.158 10
3 -6 8 13228 892.305 53
3 -6 8 13583.3 777.478 11
-3 6 -8 14601.3 726.115 17
-3 6 -8 13699.3 788.65 30
3 -6 8 12833.8 817.633 27
3 -6 8 11037.5 793.342 91
-3 6 -8 13768.4 703.406 9
-3 6 -8 13362.8 591.969 60
-3 6 -8 12625.3 735.476 23
-3 6 -8 14469.8 784.337 22
3 -6 8 13255.8 732.963 21
-3 4 -7 1718.86 285.214 64
-3 4 -7 1627.48 240.675 8
-3 4 -7 2024.16 309.991 61
-3 4 -7 1722.05 262.062 12
3 -4 7 1411.64 293.352 11
3 -4 7 1811.95 340.173 83
-3 4 -7 1791.21 269.702 17
-3 4 -7 1697.12 452.991 108
-3 4 -7 1406.16 259.83 30
-3 4 -7 1508.12 410.912 50
-3 4 -7 1628.2 257.265 10
3 -4 7 1408 292.747 27
-3 4 -7 1590.05 471.959 106
3 -4 7 1760.09 357.637 91
-3 4 -7 1616.86 306.987 22
-3 4 -7 1779.02 260.698 9
3 -4 7 1630.03 284.658 21
-3 2 -6 45534.3 2364.3 7
-3 2 -6 37908.4 1447.27 61
3 -2 6 43871.7 1548.36 27
-3 2 -6 43731 2437.75 50
3 -2 6 36592 1378.64 11
-3 2 -6 47985.4 2739.76 101
-3 2 -6 45741 1358.2 10
-3 2 -6 43331.8 2353.02 106
3 -2 6 46049.7 1801.12 91
3 -2 6 57594.4 2037.58 83
-3 2 -6 43023 2500.11 108
-3 2 -6 36034.1 1499.59 22
3 -2 6 39658.9 1429.71 21
-3 0 -5 9313.44 1103.76 50
3 0 5 8930.81 643.54 11
3 0 5 9849.89 628.528 27
-3 0 -5 10660.4 1055.72 7
-3 0 -5 10348 1273.77 101
3 0 5 10967.5 764.056 15
-3 0 -5 8465.6 1100.38 108
-3 0 -5 7876.04 610.836 23
3 0 5 10034.7 703.812 21
-3 0 -5 7991.57 798.338 67
-3 -2 -4 29217.9 1097.67 20
-3 -2 -4 39639.4 2023.35 50
-3 -2 -4 39450.9 1871.58 39
3 2 4 39942.5 1315.98 21
3 2 4 36775.6 1256.71 113
-3 -2 -4 35502.4 1944.1 108
3 2 4 36675.6 1081.18 27
3 2 4 46026.7 1488.33 15
-3 -2 -4 37558.5 1919.75 100
-3 -4 -3 17406.1 733.243 31
-3 -4 -3 20259.4 1238.09 42
3 4 3 28524.2 1104.89 15
-3 -4 -3 18001.6 779.722 71
3 4 3 25938.4 955.913 21
-3 -6 -2 2723.17 417.65 62
-3 -6 -2 2720.71 265.241 115
-3 7 -9 384.976 108.195 12
-3 7 -9 392.339 86.7221 17
3 -7 9 347.857 102.401 27
3 -7 9 540.457 136.594 91
-3 7 -9 315.016 80.0399 23
-3 7 -9 370.907 97.4444 9
-3 7 -9 454.918 105.229 22
-3 5 -8 1583.31 240.656 64
-3 5 -8 1598.29 218.493 60
-3 5 -8 1615.63 213.815 8
3 -5 8 1647.75 315.824 91
-3 5 -8 1581.46 242.009 12
3 -5 8 1498.45 269.166 11
-3 5 -8 1648.21 234.286 17
-3 5 -8 1344.38 230.522 30
-3 5 -8 1397.55 221.512 10
3 -5 8 1621.83 279.787 27
-3 5 -8 1864.55 256.179 9
-3 5 -8 1464.65 270.376 23
-3 5 -8 1539.17 273.443 22
-3 5 -8 1111.56 210.311 20
3 -5 8 1383.9 244.695 21
-3 3 -7 28288.9 1115.61 64
-3 3 -7 31505.5 1232.46 61
-3 3 -7 30858.5 1099.52 12
-3 3 -7 30723 1933.91 50
3 -3 7 29090.9 1249.63 11
-3 3 -7 28513.8 1940.32 108
-3 3 -7 27269.6 1810.22 106
3 -3 7 30683.1 1281.04 27
3 -3 7 32043.9 1467 91
-3 3 -7 32554.2 1109.04 9
-3 3 -7 27324.6 1281.64 22
-3 3 -7 31716.4 1099.43 10
3 -3 7 27439.3 1158.69 21
-3 1 -6 11971.9 680.979 10
-3 1 -6 9064.89 717.561 61
-3 1 -6 10623.4 1183.6 50
3 -1 6 9927.42 692.559 11
-3 1 -6 11230.3 1283.92 108
3 -1 6 11533.2 718.735 27
-3 1 -6 11610.2 1359.75 101
3 -1 6 10784.3 751.265 15
-3 1 -6 9467.69 703.625 22
3 -1 6 9875.23 694.914 21
-3 -1 -5 43548.6 2227.64 50
3 1 5 43258.7 1384.15 113
3 1 5 42661.2 1185.94 27
-3 -1 -5 41897.2 2239.06 108
3 1 5 46191.8 1443.49 21
-3 -3 -4 543.575 209.393 62
-3 -3 -4 840.205 257.684 42
3 3 4 1153.92 212.901 15
3 3 4 897.385 143.956 89
3 3 4 1296.52 224.487 113
3 3 4 1280.82 218.367 21
-3 -3 -4 509.339 221.219 67
-3 -5 -3 4274.22 525.79 62
-3 -5 -3 3675.47 488.704 67
-3 6 -9 3556.73 318.934 12
-3 6 -9 3717.8 279.457 8
-3 6 -9 3630.55 310.779 9
3 -6 9 3848.38 330.966 11
-3 6 -9 3030.35 240.774 17
3 -6 9 3462.82 321.397 27
3 -6 9 4171.58 397.37 91
-3 6 -9 2851.8 292.66 23
-3 6 -9 3996.18 340.529 22
3 -6 9 3284.65 288.663 21
-3 4 -8 2007.8 271.228 64
-3 4 -8 2469.82 265.44 8
-3 4 -8 2274.99 281.759 12
3 -4 8 2366.42 326.69 11
-3 4 -8 2069.29 258.19 10
3 -4 8 2393.45 315.512 27
3 -4 8 2502.94 377.293 91
-3 4 -8 2630.44 297.001 9
-3 4 -8 1985.88 315.82 23
-3 4 -8 2281.09 329.596 22
3 -4 8 2274.07 301.942 21
-3 2 -7 17241.9 909.84 61
-3 2 -7 16067 747.676 12
-3 2 -7 16201.2 1397.45 50
3 -2 7 15294.7 844.477 11
-3 2 -7 16322.8 755.299 9
-3 2 -7 15337.6 1417.76 108
-3 2 -7 16655.5 752.536 10
3 -2 7 15668.8 816.889 27
3 -2 7 14309 813.855 21
3 -2 7 12095.2 760.135 15
-3 2 -7 13325.4 828.491 23
-3 2 -7 14748.3 869.495 22
-3 0 -6 21528.2 1604.38 108
-3 0 -6 21340.1 1556.29 50
3 0 6 22687.6 962.132 11
-3 0 -6 17918.4 830.544 23
3 0 6 21577.8 978.998 113
-3 0 -6 22870.5 888.881 10
3 0 6 22212.1 866.578 27
3 0 6 25663.7 1069.82 15
3 0 6 22412.8 1002.99 21
-3 -2 -5 6739.14 776.284 50
-3 -2 -5 4777.85 661.263 108
3 2 5 8746.33 558.308 15
3 2 5 7122.08 516.932 113
3 2 5 7690.27 533.958 21
-3 -2 -5 5073.43 568.106 67
-3 -4 -4 1152.28 252.737 62
-3 -4 -4 1265.91 266.466 67
3 -5 9 64.4195 48.6752 21
-3 5 -9 50.4627 44.0587 20
-3 5 -9 73.7626 54.4741 12
-3 5 -9 33.0299 21.1893 8
3 -5 9 67.1165 47.3537 11
3 -5 9 23.8139 35.1024 27
-3 5 -9 -5.47612 35.7922 23
-3 5 -9 169.186 63.3032 9
-3 5 -9 49.3358 42.2845 22
-3 3 -8 6063.25 451.436 64
-3 3 -8 6240.28 410.846 8
-3 3 -8 6237.7 465.237 61
-3 3 -8 5719.64 408.915 12
3 -3 8 5835.05 479.225 11
-3 3 -8 5879.53 490.109 22
-3 3 -8 5818.78 400.502 10
3 -3 8 5762.59 447.893 27
3 -3 8 4280.54 404.028 15
-3 3 -8 6318.99 429.663 9
-3 3 -8 5133.46 469.546 23
3 -3 8 4962.21 423.811 21
-3 1 -7 1963.91 241.955 12
-3 1 -7 1748.37 419.287 50
3 -1 7 1714.93 253.961 11
-3 1 -7 2084.87 243.83 10
3 -1 7 1967.35 247.523 27
3 -1 7 1654.95 245.301 15
-3 1 -7 1864.58 282.81 61
-3 1 -7 1694.97 436.907 108
-3 1 -7 1512.17 239.926 23
-3 1 -7 1867.56 255.508 22
3 -1 7 1890.25 274.836 21
3 1 6 9472.9 580.742 113
3 1 6 9462 483.639 27
3 1 6 10641.8 569.399 15
-3 -1 -6 9483.33 510.496 10
3 1 6 9235.34 574.255 21
-3 -3 -5 3738.99 315.35 71
-3 -3 -5 4446.01 316.813 10
-3 4 -9 8987.39 455.007 64
-3 4 -9 10101.1 429.747 8
-3 4 -9 7686.8 445.559 20
3 -4 9 10218.9 522.543 11
3 -4 9 8466.54 423.088 27
3 -4 9 7668.93 411.018 15
-3 4 -9 9753.68 463.393 9
-3 4 -9 8028.63 477.938 23
-3 4 -9 9540.28 492.308 22
3 -4 9 8872.39 466.881 21
-3 2 -8 864.405 161.659 64
-3 2 -8 998.062 152.115 8
-3 2 -8 798.855 155.949 61
-3 2 -8 667.053 123.362 12
-3 2 -8 617.539 154.278 20
-3 2 -8 616.236 140.767 23
3 -2 8 851.652 163.649 11
3 -2 8 876.138 145.555 27
3 -2 8 878.966 155.589 15
-3 2 -8 941.153 151.337 9
-3 2 -8 714.993 138.379 22
3 -2 8 752.689 149.681 21
-3 0 -7 8702.14 538.043 61
-3 0 -7 8646.63 439.742 12
3 0 7 8901.88 436.295 27
3 0 7 9094.59 530.12 113
3 0 7 8851.16 523.325 21
-3 -2 -6 3394.69 322.164 61
3 2 6 3926.31 251.343 89
3 -3 9 298.321 75.1476 21
-3 3 -9 283.297 80.3245 20
3 -3 9 444.87 92.6533 113
-3 3 -9 293.218 80.7166 23
-3 1 -8 1963.45 209.94 64
-3 1 -8 2165.66 196.455 8
-3 1 -8 1567.08 198.52 20
3 -1 8 2348.41 233.204 113
3 -1 8 2156.18 225.59 21
3 1 7 5872.23 349.53 113
3 1 7 5514 330.029 21
-4 2 10 2062.65 180.763 85
-4 3 9 2532.64 233.863 85
-4 1 10 5138.27 353.877 85
-4 1 10 6009.13 366.831 26
-4 -1 11 1566.09 176.935 26
-4 -1 11 1345.59 153.437 85
-4 -1 11 1367.15 165.426 76
-4 6 7 5693.59 294.239 19
-4 6 7 5406.53 290.337 13
-4 4 8 2080.67 224.614 19
-4 4 8 1816.46 208.447 85
-4 4 8 1718.89 206.426 13
-4 4 8 2286.19 202.375 89
-4 2 9 1102.51 185.175 26
-4 2 9 910.321 163.208 85
-4 2 9 1077.83 156.839 13
-4 0 10 8368.49 488.096 26
-4 0 10 7708.1 469.176 85
-4 0 10 7429.82 469.215 76
4 2 -11 4499 345.501 58
4 2 -11 2834.3 326.879 17
-4 -2 11 4887.02 345.553 26
-4 -2 11 3739.03 258.828 85
-4 -2 11 3705.35 292.268 76
4 2 -11 3912.7 329.515 68
-4 5 7 8986.69 453.85 85
-4 5 7 9700.62 531.365 13
-4 3 8 1106.95 189.091 19
-4 3 8 947.441 189.457 26
-4 3 8 1198.36 167.662 89
-4 3 8 932.805 195.336 86
-4 3 8 825.921 171.329 85
-4 3 8 796.729 157.478 13
-4 1 9 26858 821.085 13
-4 1 9 27485.9 992.199 26
-4 1 9 25592.8 871.948 86
-4 1 9 24736.3 958.618 76
4 1 -10 1545.07 380.154 55
4 1 -10 1519.09 290.497 16
-4 -1 10 2091.76 263.041 26
-4 -1 10 1929.6 251.069 76
4 1 -10 1704.96 257.42 68
4 3 -11 5990.13 451.145 16
4 3 -11 7014.91 439.917 58
-4 -3 11 7301.99 448.064 29
-4 -3 11 7139.33 441.742 26
-4 -3 11 5466.73 352.836 21
-4 -3 11 5271.87 360.509 76
4 3 -11 5130.19 441.296 17
4 3 -11 6996.91 454.931 68
-4 6 6 15615.1 682.631 19
-4 6 6 15676.2 649.913 74
-4 6 6 14818.1 674.954 13
-4 4 7 8482.31 563.963 19
-4 4 7 9617.98 520.607 89
-4 4 7 8098.97 585.431 86
-4 4 7 8019.1 542.307 85
-4 4 7 7476.59 532.508 13
-4 2 8 21582.4 877.905 19
4 -2 -8 15071 1889.44 51
4 -2 -8 15757.2 1623.72 46
-4 2 8 27343.7 1002.75 27
-4 2 8 18059.3 835.46 86
4 -2 -8 12188.4 1552.23 106
-4 2 8 23022.4 972.683 26
-4 2 8 24261.1 798.843 89
-4 2 8 20508.2 853.077 81
-4 2 8 20752.2 951.872 76
-4 2 8 18565.8 798.46 13
4 0 -9 5390.35 977.735 46
-4 0 9 8803.88 551.024 27
4 0 -9 3485.5 848.926 106
-4 0 9 6574.89 512.551 26
-4 0 9 5928.47 504.695 78
-4 0 9 6040.66 491.757 76
-4 -2 10 115.958 63.3881 21
4 2 -10 370.48 112.373 58
4 2 -10 264.928 183.374 55
-4 -2 10 240.461 96.9556 29
4 2 -10 330.922 152.136 16
-4 -2 10 177.051 93.8342 26
4 2 -10 399.045 136.977 68
4 4 -11 3238.45 291.762 58
-4 -4 11 3973.55 338.857 26
4 4 -11 3267.47 333.137 17
4 4 -11 3364.79 337.271 16
4 4 -11 3497.74 321.024 68
-4 -4 11 3853.62 339.236 29
-4 7 5 7857.8 475.52 19
-4 7 5 7969.21 457.47 74
-4 7 5 7531.84 467.045 13
-4 5 6 16444 864.675 28
-4 5 6 17451.8 835.451 19
-4 5 6 16927.8 869.32 86
-4 5 6 16641.2 760.094 85
-4 5 6 16855.1 824.821 88
-4 5 6 19905.6 767.412 89
-4 5 6 18450.3 869.842 75
-4 5 6 18586 836.636 74
-4 5 6 16030.8 807.611 13
-4 3 7 3092.13 376.07 86
-4 3 7 3263.54 358.738 19
4 -3 -7 1690.06 636.47 51
-4 3 7 3045.42 329.157 81
-4 3 7 3918.57 422.066 26
-4 3 7 4240.95 410.367 27
-4 3 7 3220.6 312.102 89
-4 3 7 3420.74 413.323 76
-4 3 7 2873.21 341.976 13
-4 3 7 2878.58 354.744 28
-4 1 8 15249.4 854.84 78
-4 1 8 16471.8 825.848 81
-4 1 8 17648.9 779.414 19
4 -1 -8 12570.8 1819.09 51
-4 1 8 21012.5 896.806 27
-4 1 8 17387.1 884.623 26
4 -1 -8 13163.4 1709.86 102
-4 1 8 13329.7 703.655 86
-4 1 8 15042.1 824.461 76
-4 1 8 15348.1 725.916 13
4 1 -9 12875.6 634.633 60
4 1 -9 13170.8 1562.45 46
-4 -1 9 14570.8 808.536 26
-4 -1 9 13615.1 808.021 77
4 1 -9 12472.6 871.408 80
-4 -1 9 12981.3 742.823 78
4 3 -10 1115.51 214.036 58
4 3 -10 197.107 156.82 55
4 3 -10 751.517 238.203 16
-4 -3 10 1013.93 212.714 26
4 3 -10 1067.94 205.705 80
-4 -3 10 939.662 166.152 78
-4 -3 10 840.153 187.176 77
4 3 -10 900.264 196.87 68
-4 -5 11 986.819 155.213 77
4 5 -11 827.285 150.099 17
-4 -5 11 1215.04 186.601 29
4 5 -11 1135.08 183.506 16
-4 -5 11 1252.17 186.989 26
4 5 -11 1006.23 144.37 80
4 5 -11 1060.37 170.951 68
-4 8 4 4407.37 335.016 19
-4 8 4 4416.54 372.873 88
-4 8 4 4441.99 326.212 13
-4 8 4 4698.5 328.108 74
-4 6 5 13704.1 739.033 19
-4 6 5 12110 705.834 13
-4 6 5 12785.4 753.173 28
-4 6 5 14850.1 759.444 74
-4 6 5 13521.5 778.353 88
-4 6 5 13922.6 774.621 86
-4 6 5 15664.2 791.598 75
-4 4 6 6556.41 560.844 28
-4 4 6 7724.45 571.823 19
4 -4 -6 5492.2 1190.9 45
4 -4 -6 4234.29 967.747 40
4 -4 -6 3377.11 914.456 107
-4 4 6 9058.12 650.981 26
-4 4 6 6471.4 514.461 88
-4 4 6 7373.28 478.847 89
-4 4 6 6985.84 539.739 75
-4 4 6 7398.63 557.954 74
-4 4 6 6509.73 529.051 13
-4 4 6 6409.95 560.578 86
4 -4 -6 3841.41 1064.33 104
-4 2 7 13327.4 721.163 19
4 -2 -7 10722.8 1702.9 51
4 -2 -7 9398.52 1495.64 45
4 -2 -7 12400.2 1444.44 33
-4 2 7 10489.9 661.807 86
-4 2 7 16107.8 788.635 27
4 -2 -7 8529.79 1438.05 107
-4 2 7 14406.3 820.204 26
4 -2 -7 11611.6 1560.46 102
-4 2 7 10124.7 907.844 99
4 -2 -7 12298.2 1614.88 97
-4 2 7 12165.5 692.013 81
-4 2 7 12014.9 768.034 78
-4 2 7 13661.9 798.146 76
-4 2 7 11038.5 647.086 13
-4 2 7 10751.9 667.016 28
-4 2 7 13810.5 622.456 89
4 0 -8 13361.7 641.552 60
4 0 -8 10968.5 1572.99 107
4 0 -8 14334.3 2009.06 51
-4 0 8 20640.4 918.403 27
4 0 -8 12461.5 1708.28 102
-4 0 8 16922.3 902.087 26
-4 0 8 16480.1 860.577 81
-4 0 8 13158 665.587 86
-4 0 8 14545.2 830.538 78
-4 0 8 15493.6 886.605 77
4 0 -8 13718.8 1301.26 6
4 2 -9 50143.2 2948.67 107
4 2 -9 57944.5 1429.67 60
4 2 -9 59291.4 3316.43 46
4 2 -9 41879.5 3003.41 106
4 2 -9 41195.1 1939.88 16
4 2 -9 56388.6 1938.48 80
-4 -2 9 61891.7 1737.3 26
-4 -2 9 54518.7 1561.1 96
-4 -2 9 53800 1478.62 78
-4 -2 9 60052.7 1708.17 77
4 2 -9 63809.1 1804.11 68
4 4 -10 15560.7 771.492 58
-4 -4 10 15247.8 757.407 110
4 4 -10 14367.5 954.891 16
-4 -4 10 16340 864.398 26
4 4 -10 15902.9 883.911 80
-4 -4 10 14592.2 781.951 77
4 4 -10 15720.4 820.776 68
-4 -6 11 11407.7 522.416 29
4 6 -11 10981.8 505.231 16
-4 -6 11 11108.5 496.797 26
-4 9 3 1570.51 178.969 19
-4 9 3 1696.95 175.169 74
-4 7 4 1595.83 276.29 88
-4 7 4 1488.02 236.466 19
-4 7 4 1517.19 261.341 28
-4 7 4 1842.55 270.691 86
-4 7 4 1650.1 250.607 75
-4 7 4 1635.54 244.017 74
-4 7 4 1453.27 239.649 13
-4 5 5 7202.81 559.816 19
4 -5 -5 4792.1 1057.2 40
-4 5 5 7026.2 568.998 88
4 -5 -5 5494.86 1257.14 104
-4 5 5 7888.27 503.892 89
-4 5 5 7026.36 584.785 86
-4 5 5 6656.15 494.836 85
-4 5 5 6286 555.528 28
-4 5 5 7635.19 571.13 75
-4 5 5 6548.9 541.315 13
-4 5 5 7513.11 563.146 74
4 -3 -6 27510 1660.37 6
-4 3 6 33545.8 1151.78 19
4 -3 -6 29878.9 2715.2 45
4 -3 -6 24190.5 2261.12 40
4 -3 -6 27606.4 2625.36 107
-4 3 6 32115.1 1084.47 81
-4 3 6 30093.4 1166.5 86
-4 3 6 41468.8 1245.43 27
-4 3 6 29574.8 1135.42 28
-4 3 6 40244.1 1331.83 26
-4 3 6 29008.4 1575.24 99
-4 3 6 34477.6 1004.28 89
-4 3 6 28092.6 1043.42 88
-4 3 6 32997.9 1253.16 78
-4 3 6 36347.1 1314.66 76
-4 3 6 31210.6 1111.12 75
-4 3 6 33296 1169.05 74
4 -3 -6 23291.6 2467.12 104
-4 3 6 27284.1 1051.92 13
4 -1 -7 16575.1 1373.08 6
-4 1 7 19019.7 822.31 19
4 -1 -7 17215 2136.38 51
4 -1 -7 15415.4 1913.56 45
4 -1 -7 19432.9 1760.69 33
-4 1 7 22954.2 925.962 27
4 -1 -7 19093.6 1957.62 102
-4 1 7 22004.2 1013.57 26
-4 1 7 15397.8 1049.34 99
4 -1 -7 19151 1947.23 97
-4 1 7 16294.9 776.314 28
-4 1 7 15182.1 764.572 86
-4 1 7 18330.9 937.683 78
4 -1 -7 15307.9 1918.68 107
-4 1 7 18369.6 865.508 81
-4 1 7 16815.1 769.209 13
4 1 -8 21813.5 868.726 60
-4 -1 8 25310 1093.92 81
4 1 -8 22831.1 2061.25 46
4 1 -8 17521.6 1759.5 33
4 1 -8 20057.5 2096.09 106
4 1 -8 21202.9 2223.3 102
-4 -1 8 26398.7 1164.72 26
4 1 -8 17311.7 1959.09 97
-4 -1 8 21855.4 1001.68 78
4 1 -8 17628.3 1993.41 107
-4 -1 8 21179.6 1034.11 77
-4 -1 8 21618.7 1024 96
4 1 -8 24004.5 1789.28 6
4 3 -9 8541.34 627.946 25
-4 -3 9 8168.76 598.772 96
4 3 -9 5877.64 764.459 55
4 3 -9 7031.06 1106.61 46
-4 -3 9 8223.18 599.624 110
4 3 -9 6581.3 1035.65 107
4 3 -9 6603.28 766.723 16
4 3 -9 4829.06 985.702 106
-4 -3 9 8360.85 681.808 26
4 3 -9 7747.67 747.275 80
-4 -3 9 7335.49 523.205 78
4 3 -9 9525.34 685.551 58
-4 -3 9 7612.22 620.055 77
4 3 -9 8372.41 660.671 68
4 5 -10 817.016 186.006 17
4 5 -10 832.647 162.175 58
-4 -5 10 881.71 183.559 110
4 5 -10 791.384 209.298 16
-4 -5 10 651.94 176.829 26
4 5 -10 1091.19 229.999 80
-4 -5 10 911.205 187.291 77
4 5 -10 881.073 170.309 25
4 5 -10 975.119 197.946 68
-4 8 3 1658.2 241.905 19
-4 8 3 2014.64 243.543 75
-4 8 3 1810.88 281.543 88
-4 8 3 1851.93 248.798 13
4 -6 -4 2008.1 842.597 109
-4 6 4 4300.36 434.326 19
4 -6 -4 3417.12 898.629 52
-4 6 4 3829.93 433.123 28
4 -6 -4 2228.28 672.761 105
-4 6 4 4303.13 453.321 88
-4 6 4 3897.69 421.708 86
-4 6 4 4597.96 439.087 75
-4 6 4 3806.08 417.673 13
-4 4 5 65757.5 1634.6 19
-4 4 5 67689.7 1722.11 78
4 -4 -5 64343 3705.7 40
-4 4 5 81923.4 2578.91 36
4 -4 -5 68332.3 4196.35 104
-4 4 5 82749.3 1845.94 26
-4 4 5 62145.7 2327.31 99
-4 4 5 60752.1 1602.74 88
-4 4 5 65476.7 1744.93 86
-4 4 5 71091.7 1462.04 89
-4 4 5 78668.4 1894.3 76
-4 4 5 67230.7 1646.42 75
-4 4 5 68842.5 1643.83 74
-4 4 5 58800.1 1569.52 13
-4 4 5 60534 1666.75 28
4 -2 -6 107087 3273.85 6
-4 2 6 114647 2038.96 19
4 -2 -6 121292 5326.42 45
4 -2 -6 84725 4180.62 40
-4 2 6 94357.6 1828.66 13
4 -2 -6 111900 5104.62 107
4 -2 -6 82571.8 4587.62 104
-4 2 6 143693 2490.77 26
-4 2 6 135651 2141.28 27
-4 2 6 103756 2786.26 99
-4 2 6 97780.4 1945.28 28
-4 2 6 118729 2354.15 78
-4 2 6 127057 2383.99 76
-4 2 6 116656 2112.35 74
4 0 -7 3074.48 599.596 6
4 0 -7 3477.37 327.717 60
4 0 -7 3726.34 996.723 51
4 0 -7 3047.7 838.708 45
4 0 -7 3439.19 739.914 33
4 0 -7 3137.68 867.047 107
4 0 -7 3030.68 803.141 102
-4 0 7 4589.73 476.115 26
-4 0 7 3360.37 460.768 99
4 0 -7 3618.79 849.325 97
-4 0 7 3874.3 428.178 96
-4 0 7 4559.54 438.665 81
-4 0 7 4264.31 439.735 78
-4 0 7 4039.19 441.726 77
4 2 -8 12264.1 678.655 60
4 2 -8 11475.4 1452.94 46
-4 -2 8 12272.1 721.391 110
4 2 -8 13187.1 842.516 25
4 2 -8 9620.56 1427.6 106
4 2 -8 10897.7 1571.66 102
-4 -2 8 13082.3 838.155 26
-4 -2 8 12035.2 754.114 96
4 2 -8 10065.5 1484.5 107
-4 -2 8 14591.7 834.263 81
-4 -2 8 11605.7 703.124 78
-4 -2 8 12154 777.109 77
4 2 -8 13289.2 1352.05 6
-4 -4 9 2286.76 305.495 96
4 4 -9 3009.61 373.034 58
4 4 -9 2742.71 308.899 8
-4 -4 9 2928.88 373.095 110
4 4 -9 1733.16 333.691 17
4 4 -9 2207.86 578.526 107
-4 -4 9 2753.61 406.998 26
4 4 -9 2697.14 366.033 25
4 4 -9 2011.78 410.33 16
-4 -4 9 2772.09 370.077 77
4 4 -9 2790.47 382.029 68
4 4 -9 2672.89 424.582 80
4 6 -10 2904.22 265.017 17
-4 -6 10 3063.19 341.834 26
4 6 -10 2890.77 295.884 25
4 6 -10 3080.44 354.34 16
4 6 -10 3451.79 367.293 80
-4 -6 10 2726.84 294.158 77
-4 -6 10 2734.12 301.925 110
-4 9 2 8656.82 534.067 88
-4 9 2 7991.45 479.1 19
4 -7 -3 10989.3 1655.27 52
4 -7 -3 4643.31 816.892 43
4 -7 -3 7623.07 1609.71 109
4 -7 -3 8620.73 1391.6 105
-4 7 3 13042.2 724.801 86
-4 7 3 12734.8 758.836 28
-4 7 3 12394.1 730.868 19
-4 7 3 14485.7 737.116 75
-4 7 3 12177.4 727.982 13
-4 7 3 14000.2 816.9 88
-4 5 4 37977.2 1271.13 19
4 -5 -4 45128.1 3071.86 52
-4 5 4 47466.5 1965.18 36
4 -5 -4 39280 3181.44 109
-4 5 4 36860.1 1318.11 28
4 -5 -4 32934.8 2452.69 105
-4 5 4 36438.7 1780.8 99
-4 5 4 40568.9 1120.58 89
-4 5 4 36407.5 1282.87 88
-4 5 4 36477.3 1291.66 86
-4 5 4 39094.5 1137.28 82
-4 5 4 40023 1257.9 75
-4 5 4 34512.8 1221.41 13
-4 3 5 26293.5 1054.96 20
4 -3 -5 26755.4 1554.56 6
-4 3 5 30106.9 976.679 27
-4 3 5 24295.3 921.659 19
-4 3 5 23212.1 967.256 28
4 -3 -5 24040.8 2146.86 40
-4 3 5 31518.6 1482.15 36
4 -3 -5 32368.2 2762.12 104
-4 3 5 30801.3 1074.01 26
-4 3 5 23713.3 1348.87 99
-4 3 5 23167.6 932.542 88
-4 3 5 25602.3 812.525 89
-4 3 5 23663.3 999.249 87
-4 3 5 25335.3 920.853 82
-4 3 5 26739.8 1066.77 78
-4 3 5 29090.2 1075.51 76
-4 3 5 25457 960.279 75
-4 3 5 25051.1 941.61 74
-4 3 5 21924.1 899.044 13
4 -1 -6 14332.1 1197.55 6
-4 1 6 13404 747.289 20
-4 1 6 14125.9 666.601 19
4 -1 -6 13725.8 1851.14 51
4 -1 -6 13472.3 1740.93 45
4 -1 -6 11261.6 1588.23 107
-4 1 6 16015.9 714.891 27
4 -1 -6 9748.1 1609.87 104
-4 1 6 17997.3 889.511 26
-4 1 6 12642 897.666 99
-4 1 6 14354.2 805.047 96
-4 1 6 12834.2 677.651 87
-4 1 6 18314.5 925.354 77
-4 1 6 11939.5 629.556 28
-4 1 6 13596.4 700.499 74
-4 1 6 11036.9 581.35 13
4 1 -7 25759.9 1760.32 6
4 1 -7 23768 886.528 60
4 1 -7 22189 2439.78 51
4 1 -7 23606 1844.12 33
4 1 -7 18961.1 2069.8 107
4 1 -7 23306 2149.18 102
-4 -1 7 28455.6 1184.44 26
4 1 -7 22747.9 2026.78 97
-4 -1 7 23238.7 1017.88 96
-4 -1 7 26511.6 1067.61 81
4 1 -7 23398.3 1099.66 25
-4 -1 7 24495.1 1049.82 77
-4 -3 8 93686.5 2344.07 26
4 3 -8 103369 2278.13 58
-4 -3 8 89502.6 2833.16 47
4 3 -8 80272.4 3629.25 46
4 3 -8 79954.9 3900.71 107
4 3 -8 61203.1 3411.39 106
4 3 -8 59389.3 2342.4 16
-4 -3 8 84934.7 1972.47 96
4 3 -8 91077.9 2295.23 25
-4 -3 8 85048.3 1846.73 78
4 3 -8 74898.9 2427.3 80
-4 -3 8 86819.5 1865.88 73
4 3 -8 111981 3898.29 6
4 3 -8 97001.7 2306.12 68
4 5 -9 596.986 168.243 17
4 5 -9 784.898 182.248 58
4 5 -9 860.718 177.36 8
4 5 -9 674.681 203.306 18
4 5 -9 868.84 326.776 107
4 5 -9 944.85 210.6 68
4 5 -9 828.691 253.902 16
-4 -5 9 1045.09 245.768 26
-4 -5 9 908.313 185.107 96
4 5 -9 1135.24 270.676 80
4 5 -9 949.408 207.415 25
4 7 -10 10652.6 602.861 18
-4 -7 10 13056.3 586.985 110
4 7 -10 15063.1 599.795 25
4 7 -10 16593.2 656.315 16
-4 -7 10 13890.8 624.492 26
4 7 -10 19003 754.293 80
-4 -7 10 12792.7 551.443 77
-4 10 1 2602.53 233.641 19
4 -10 -1 1078 334.914 84
4 -8 -2 4992.7 734.629 59
4 -8 -2 5154.89 1107.21 52
-4 8 2 5575.48 477.265 19
4 -8 -2 5485.91 1297.41 109
-4 8 2 6780.52 550.865 88
-4 8 2 6107.19 476.016 28
-4 8 2 7200.32 464.27 75
-4 8 2 6122.48 486.475 13
-4 6 3 825.158 202.172 13
-4 6 3 911.017 210.026 19
4 -6 -3 305.623 192.214 43
4 -6 -3 626.919 326.658 38
-4 6 3 1030.94 289.062 36
4 -6 -3 895.535 435.977 105
-4 6 3 547.716 212.72 99
-4 6 3 773.225 195.317 88
-4 6 3 953.72 191.423 86
-4 6 3 1093.81 240.251 28
-4 6 3 932.64 190.896 75
-4 4 4 18659.4 861.658 20
4 -4 -4 24780.3 2096.13 52
-4 4 4 18667.2 824.434 19
-4 4 4 21332.3 1188.03 36
4 -4 -4 21861.8 2177.72 109
4 -4 -4 18428.3 1671.38 105
-4 4 4 21173.6 837.899 26
-4 4 4 17648.1 1178.62 99
-4 4 4 17087.6 849.856 28
-4 4 4 18625.2 710.32 89
-4 4 4 17032.3 823.881 88
-4 4 4 17958.5 876.728 87
-4 4 4 19545 795.221 82
-4 4 4 18843.4 829.543 75
-4 4 4 19085.2 848.063 78
-4 4 4 18309.4 827.537 22
-4 4 4 19416.8 838.856 76
-4 4 4 17040.6 808.527 13
-4 2 5 104139 2024.28 20
4 -2 -5 115991 3137.71 6
-4 2 5 104532 1784.77 19
-4 2 5 106487 1989.24 87
-4 2 5 100413 1851.94 28
4 -2 -5 106061 4365.53 40
4 -2 -5 105279 4867.21 104
-4 2 5 130596 2170.41 26
-4 2 5 102702 2589.25 99
-4 2 5 127883 2301.21 96
-4 2 5 96259.3 1828.31 88
-4 2 5 106794 1839.07 82
4 -2 -5 116835 4930.48 107
-4 2 5 106486 1913.96 75
-4 2 5 107173 1873.52 74
-4 2 5 94005 1691.19 13
4 0 -6 50769 2254.87 6
-4 0 6 48212.7 1371.36 20
4 0 -6 43233 1092.25 60
-4 0 6 49056.8 1311.25 114
4 0 -6 49328.3 3392.69 51
4 0 -6 45682.8 3142.12 45
4 0 -6 39220.8 2880.45 107
4 0 -6 56760.5 2590.13 33
4 0 -6 59753.6 3036.81 102
-4 0 6 62202.8 1655.9 26
-4 0 6 43278.2 1522.81 99
4 0 -6 62767.1 3056.69 97
-4 0 6 53011.6 1468.29 96
-4 0 6 43961.5 1172.49 87
-4 0 6 47285.6 1350.38 94
-4 0 6 56625.9 1546.42 77
4 0 -6 40277.1 1755.98 72
4 2 -7 3031.1 322.836 60
-4 -2 7 2925.73 473.641 47
4 2 -7 3189.74 695.49 46
-4 -2 7 2791.94 336.54 94
-4 -2 7 2615.47 324.126 114
4 2 -7 2368.11 748.481 107
4 2 -7 2295.02 639.712 106
4 2 -7 2726.18 733.491 102
-4 -2 7 3132.12 410.313 26
4 2 -7 1818.96 523.473 97
4 2 -7 3002.62 410.797 25
-4 -2 7 3109.42 368.461 81
-4 -2 7 3193.27 371.247 96
-4 -2 7 3075.03 326.032 73
4 2 -7 3110.56 398.655 68
4 2 -7 3341.22 655.949 6
4 4 -8 3186.12 435.292 25
4 4 -8 2912.94 371.894 58
4 4 -8 3043.01 341.137 8
-4 -4 8 3133.5 541.176 47
4 4 -8 2306.33 385.715 18
4 4 -8 2046.35 459.502 16
-4 -4 8 3443.7 488.81 26
-4 -4 8 2846.41 356.138 96
4 4 -8 3034.04 735.805 107
4 4 -8 2375.63 439.493 80
-4 -4 8 3091.7 364.251 73
4 4 -8 2787.53 616.737 6
4 4 -8 3104.23 409.469 68
4 6 -9 10052.5 624.302 8
4 6 -9 8108.2 707.324 18
-4 -6 9 9210.47 522.334 96
4 6 -9 10475.4 677.06 25
4 6 -9 10650.4 764.835 16
4 6 -9 11863 790.759 80
-4 -6 9 10961.4 764.936 26
4 -9 -1 958.641 395.732 57
4 -9 -1 429.081 316.585 52
-4 9 1 573.663 144.824 19
4 -9 -1 -154.329 230.049 109
-4 9 1 606.87 144.691 88
-4 9 1 571.151 170.565 14
-4 7 2 3217.39 385.786 19
4 -7 -2 1671.64 495.233 43
4 -7 -2 2048.56 547.993 38
-4 7 2 3594.11 576.648 36
-4 7 2 3643.34 361.196 17
4 -7 -2 2234.71 692.169 105
-4 7 2 3188.57 382.297 28
-4 7 2 3381.09 401.971 88
-4 7 2 2945.73 329.444 86
-4 7 2 3438.95 450.689 14
-4 7 2 3909.24 370.726 75
-4 7 2 3187.6 379.108 13
-4 5 3 2456.61 313.062 13
-4 5 3 2530.18 337.764 28
-4 5 3 2317.85 310.167 19
4 -5 -3 1614.48 431.485 43
4 -5 -3 1642.95 449.894 38
-4 5 3 3376.71 483.023 36
-4 5 3 2804.18 312.177 17
4 -5 -3 2632.07 674.628 105
-4 5 3 2843.92 467.521 99
-4 5 3 2918.18 289.199 89
-4 5 3 2499.59 324.918 88
-4 5 3 2863.72 308.961 82
-4 5 3 2871.01 322.053 22
-4 5 3 2446.4 298.172 75
-4 3 4 47134.1 1322.34 20
4 -3 -4 48906.2 2590.3 105
4 -3 -4 61979.1 3012.27 52
-4 3 4 42569.7 1124.48 19
-4 3 4 50622.2 1629.67 36
-4 3 4 44225.3 1143.59 26
-4 3 4 44348.4 1693.28 99
-4 3 4 48428.3 1352.77 87
4 -3 -4 61749.8 3305.51 109
-4 3 4 41955.8 1231.79 28
-4 3 4 44696 1007.43 89
-4 3 4 43559.8 1240.38 88
-4 3 4 44182.1 1205 23
-4 3 4 43724.2 1147.35 82
-4 3 4 49893.4 1361.02 78
-4 3 4 42768.3 1177.57 22
-4 3 4 47848.7 1222.57 76
-4 3 4 45662.4 1224.3 75
-4 3 4 41501.9 1144.95 13
-4 1 5 83398 1717.09 20
4 -1 -5 87107.8 2690.68 6
-4 1 5 95885.9 1906.13 96
4 -1 -5 96948.9 4342.93 45
4 -1 -5 66359.4 3363.84 40
4 -1 -5 69231.5 3826.92 104
-4 1 5 80519.2 2056.31 99
-4 1 5 84830.5 1696.87 94
-4 1 5 85921.8 1651.42 87
-4 1 5 86537.9 1700.6 23
-4 1 5 83905.7 1596.42 82
-4 1 5 112155 2088.29 77
4 -1 -5 82328.8 4008.44 107
-4 1 5 77341.9 1528.81 74
4 1 -6 42725.7 2083.55 6
-4 -1 6 39820.2 1217.42 20
4 1 -6 38501.5 1061.8 60
4 1 -6 41452.7 3047.43 51
-4 -1 6 38846.2 1540.58 47
4 1 -6 43759.3 2190.9 33
-4 -1 6 35881.3 1296.24 99
-4 -1 6 47315 1454.12 26
4 1 -6 44233.9 2451.85 97
-4 -1 6 38825.3 1207.21 96
-4 -1 6 38874.8 1190.34 94
4 1 -6 46218.1 2624.6 102
4 1 -6 31669.3 2515.96 107
-4 -1 6 42254.7 1231.14 81
-4 -1 6 38892.4 1159.32 114
4 1 -6 40088.9 1772.79 72
4 3 -7 16757.4 879.712 58
4 3 -7 16182.7 717.936 8
-4 -3 7 15837.2 1130.11 47
4 3 -7 14715.9 1711.17 107
4 3 -7 15164.3 1445 46
4 3 -7 13886.5 896.748 18
-4 -3 7 15737.1 806.505 114
4 3 -7 11187.8 1363.2 106
4 3 -7 9766.55 935.173 16
-4 -3 7 16461.4 1025.07 26
-4 -3 7 15793.3 789.383 94
4 3 -7 16541.3 990.69 25
-4 -3 7 15982.9 811.678 81
4 3 -7 12756.7 990.122 80
-4 -3 7 15641.6 775.39 73
4 3 -7 17556.4 1474.73 6
4 3 -7 16880.5 919.515 68
4 5 -8 1049.13 209.807 58
4 5 -8 1289.58 238.309 8
-4 -5 8 1479.3 370.183 47
4 5 -8 1043.39 240.439 17
4 5 -8 873.198 253.42 18
4 5 -8 1375.85 258.794 9
4 5 -8 1795.14 530.695 107
-4 -5 8 1498.57 320.687 26
4 5 -8 1230.62 269.375 25
4 5 -8 1332.88 248.202 24
4 5 -8 1606.65 363.202 16
4 5 -8 1526.49 340.878 80
-4 -5 8 1302.84 235.515 73
4 5 -8 1309.24 263.305 68
4 7 -9 5554.17 430.783 8
4 7 -9 5339.82 545.659 18
4 7 -9 6888.9 503.442 16
-4 -7 9 6718.06 526.529 26
4 7 -9 6369.9 473.028 25
4 7 -9 7367.22 547.461 80
4 7 -9 4526.04 393.475 9
4 -10 0 461.675 219.741 57
-4 10 0 554.201 126.018 19
4 -10 0 146.698 155.411 84
-4 10 0 476.204 148.948 14
4 -8 -1 34065.7 2040.08 59
4 -8 -1 41006.2 3273.13 52
-4 8 1 34429.1 1230.42 19
-4 8 1 38441.6 1144.37 17
4 -8 -1 41324.2 3707.71 109
4 -8 -1 28811.9 2593.52 105
-4 8 1 36333.3 1270.99 88
-4 8 1 37174.6 1499.69 14
-4 8 1 35993.9 1198.82 13
-4 6 2 14786.7 795.098 19
4 -6 -2 10548.3 1180.2 43
4 -6 -2 10486.8 1200.92 38
-4 6 2 16875.4 1150.24 36
-4 6 2 15485 762.702 17
4 -6 -2 10590.7 1037.53 34
-4 6 2 14473.2 807.737 28
-4 6 2 15016.6 811.059 88
4 -6 -2 15340.6 1745.27 105
-4 6 2 13974.1 1001.08 99
-4 6 2 13881.4 726.546 86
-4 6 2 12631 806.281 14
-4 6 2 14363.2 717.404 22
-4 6 2 15028.9 731.004 75
-4 6 2 14548.1 782.886 13
-4 4 3 95109.2 1822.53 20
-4 4 3 92168 1728.47 19
4 -4 -3 77205.8 2674.76 43
-4 4 3 90256 1818.85 88
4 -4 -3 72061 2678.77 38
-4 4 3 100964 2275.44 36
-4 4 3 93252.1 1671.93 17
-4 4 3 92797.9 1873.13 28
4 -4 -3 102444 3766.9 105
-4 4 3 93429 1763.73 13
-4 4 3 93299.5 2463.59 99
-4 4 3 101816 1574.93 89
-4 4 3 101247 1958.71 87
-4 4 3 97608.6 1778.17 22
-4 4 3 100724 1784.12 75
4 -2 -4 8523.62 1130.57 40
4 -2 -4 7593.59 977.808 52
-4 2 4 9588.38 656.757 36
4 -2 -4 8105.82 1114.89 109
4 -2 -4 7049.09 934.709 105
-4 2 4 7616.37 631.842 99
4 -2 -4 10461.7 1372.74 104
-4 0 5 8628.83 527.55 20
4 0 -5 8501.9 835.715 6
4 0 -5 8436.9 1271.06 51
-4 0 5 8233.25 626.832 47
4 0 -5 8151.05 1266.2 45
4 0 -5 6317.12 1085.72 107
-4 0 5 7955.14 584.33 99
-4 0 5 9166.09 551.216 96
-4 0 5 8837.54 524.304 94
-4 0 5 8760.49 526.063 23
-4 0 5 9108.73 519.683 82
-4 -2 6 128695 2168.01 20
4 2 -6 151822 2445.52 58
-4 -2 6 128194 2869.62 47
-4 -2 6 127065 2107.97 94
4 2 -6 105669 3234.42 33
4 2 -6 109141 4052.34 102
-4 -2 6 146977 2777.51 26
4 2 -6 104102 3587.13 97
4 2 -6 126139 2557.92 25
-4 -2 6 125105 2100.82 114
-4 -2 6 127048 2108.32 81
-4 -2 6 134067 2071.46 73
4 2 -6 157172 3601.33 72
4 2 -6 143535 2544.08 24
4 2 -6 106634 4603.68 107
4 2 -6 143289 2479.93 68
4 2 -6 134956 3727 6
4 4 -7 128325 2433.79 58
4 4 -7 136804 2343.59 8
-4 -4 7 129661 3315.7 47
4 4 -7 114974 2782.94 18
-4 -4 7 126188 2306.05 114
4 4 -7 129682 4812.35 107
4 4 -7 113825 3152.34 16
-4 -4 7 143005 3239.46 26
-4 -4 7 125887 2231.47 94
4 4 -7 133902 2864.04 25
4 4 -7 144025 2727.27 24
4 4 -7 137801 2572.87 9
4 4 -7 121978 3089.46 80
-4 -4 7 129800 2318.94 73
4 4 -7 141988 4161.94 6
4 4 -7 134418 2608.35 68
4 6 -8 6415.57 576.148 12
4 6 -8 7597.42 588.556 8
-4 -6 8 7404.25 794.251 47
4 6 -8 5965.51 662.664 18
4 6 -8 8938.69 1050.1 107
4 6 -8 7999.93 643.772 25
4 6 -8 7155.45 594.454 9
-4 -6 8 8500.65 755.754 26
4 6 -8 7973.86 614.372 24
4 6 -8 8008.53 701.895 16
4 6 -8 8238.8 711.603 80
-4 -6 8 7546.63 563.771 73
4 8 -9 2619.59 326.964 18
-4 -8 9 3365.52 305.579 26
4 8 -9 3475.34 269.24 16
4 8 -9 3371.51 280.633 25
4 -11 1 1068.13 298.625 84
4 -9 0 24335.5 1592.31 59
4 -9 0 26403.5 1969.45 57
4 -9 0 25380.1 2474.23 52
-4 9 0 24533.7 1002.68 19
4 -9 0 22569.2 2591.61 109
-4 9 0 26277.1 895.839 17
-4 9 0 23643.7 924.807 88
-4 9 0 25423.3 1202.4 14
4 -7 -1 4798.3 709.423 56
-4 7 1 3746.95 412.06 19
4 -7 -1 3140.15 693.915 43
-4 7 1 5212.69 674.859 36
-4 7 1 4677.18 419.364 17
4 -7 -1 3013.49 595.056 34
-4 7 1 3966.71 408.768 28
-4 7 1 5119.07 494.269 16
4 -7 -1 4067.33 946.666 105
-4 7 1 4450.56 447.498 88
-4 7 1 4157.07 487.185 14
-4 7 1 4163.15 421.873 13
-4 5 2 723.683 157.403 19
4 -5 -2 858.405 303.673 43
4 -5 -2 662.947 280.19 38
-4 5 2 1013.29 245.617 36
-4 5 2 749.049 162.47 17
4 -5 -2 872.599 257.737 34
-4 5 2 1010.57 201.249 28
-4 5 2 722.677 161.359 16
4 -5 -2 1359.13 464.763 105
-4 5 2 1006.24 262.226 99
-4 5 2 842.773 188.009 88
-4 5 2 932.639 187.429 87
-4 5 2 691.643 173.428 14
-4 5 2 992.266 179.806 75
-4 5 2 734.077 151.186 22
-4 5 2 1682.65 240.793 13
4 -3 -3 88399.4 3566.7 52
4 -3 -3 45138.2 1844.25 43
-4 3 3 59273.8 1545.38 36
4 -3 -3 88782.5 3947.08 109
4 -3 -3 65012.4 2860.05 105
-4 3 3 61432.1 1777.79 99
4 -1 -4 29650.6 1847.9 105
-4 1 4 50033.4 1367.62 47
4 -1 -4 40469.6 2384.4 40
4 -1 -4 30367.8 1989.13 109
-4 1 4 45471.6 1481.06 108
4 -1 -4 36312.3 2534.85 104
-4 1 4 45642.5 1356 99
4 -1 -4 48463.3 2862.5 107
4 -1 -4 48632 1184.48 68
4 1 -5 55392.2 2138.12 6
-4 -1 5 54743.6 1248.84 114
4 1 -5 49679.5 1086.77 60
4 1 -5 50214.6 3061.29 51
-4 -1 5 51568.4 1573.34 47
4 1 -5 46305.4 2956.1 45
4 1 -5 59847.8 2154.52 33
-4 -1 5 54213.2 1688.65 108
4 1 -5 37462.7 2610.52 107
4 1 -5 61480.9 2606.47 102
-4 -1 5 51092 1343.5 99
4 1 -5 63186.1 2475.82 97
-4 -1 5 55057.1 1266.49 94
4 1 -5 60744.4 1470.51 68
4 3 -6 29346.5 1098.22 58
4 3 -6 25704.4 899.355 8
-4 -3 6 27692.6 1390.88 47
4 3 -6 26222.2 1181.33 18
4 3 -6 25259.1 2199.94 107
-4 -3 6 26359.3 981.561 114
4 3 -6 18266.4 1234.01 16
-4 -3 6 28646.6 1381.72 26
-4 -3 6 26475.6 957.789 94
4 3 -6 26486.8 1224.13 25
4 3 -6 29684 1225.55 24
-4 -3 6 20180.7 840.76 81
-4 -3 6 27962.4 986.527 73
4 3 -6 28102.2 1111.46 68
4 3 -6 26626.7 1678.74 6
4 5 -7 44262.1 1606.3 12
4 5 -7 44670.8 1438.22 8
-4 -5 7 45438.9 1962.77 47
4 5 -7 41197.7 1781.56 18
4 5 -7 47692.1 1703.75 25
4 5 -7 47863.9 1929.88 16
4 5 -7 58178.8 3126.04 107
-4 -5 7 47119.1 1964.34 26
-4 -5 7 46114.1 1403.04 114
4 5 -7 50834.5 1682.46 24
-4 -5 7 46420.5 1431.05 73
4 5 -7 47414.8 1621.73 9
4 5 -7 47919.5 1901.56 80
4 5 -7 50137.2 2441.88 6
4 5 -7 42487.7 1452.34 68
4 7 -8 5152.98 468.341 8
4 7 -8 4870.2 567.829 18
4 7 -8 5620.55 485.505 25
4 7 -8 5893.48 493.397 16
-4 -7 8 4855.09 519.851 26
4 7 -8 5458.94 477.419 24
4 7 -8 6380.97 552.432 80
4 7 -8 4772.37 468.039 9
-4 -7 8 5201.48 442.881 73
4 -10 1 591.41 236.082 57
-4 10 -1 854.03 172.395 19
-4 10 -1 839.654 142.202 17
4 -10 1 653.489 326.589 84
-4 10 -1 841.452 207.156 14
-4 8 0 154.019 93.9468 13
4 -8 0 338.407 238.386 59
4 -8 0 189.507 144.426 56
4 -8 0 -55.4233 156.7 52
-4 8 0 92.8212 67.9356 19
4 -8 0 201.294 103.084 43
4 -8 0 -134.668 263.883 109
-4 8 0 198.362 116.423 16
4 -8 0 155.521 211.022 105
-4 8 0 117.497 88.5613 88
-4 8 0 197.901 99.2182 17
-4 8 0 57.0955 73.1076 14
-4 6 1 6245.97 507.677 19
4 -6 -1 5467.47 877.733 43
4 -6 -1 4908.03 817.075 38
-4 6 1 7697.04 743.831 36
-4 6 1 6660.08 496.431 17
4 -6 -1 5318.69 732.703 34
-4 6 1 6824.64 528.361 28
4 -6 -1 7350.94 1179.56 105
-4 6 1 5810.31 588.28 99
-4 6 1 5824.6 442.083 87
-4 6 1 6067.59 504.969 88
-4 6 1 5471.32 532.69 14
-4 6 1 6510.3 467.594 22
-4 6 1 6873.08 515.866 13
-4 6 1 6605.04 515.481 16
4 -6 -1 6719.23 751.806 66
4 -4 -2 471.47 306.245 52
4 -4 -2 147.817 105.638 43
-4 4 2 562.257 159.823 36
4 -4 -2 305.769 142.503 34
-4 4 2 528.853 125.395 16
4 -4 -2 32.1456 191.048 109
-4 4 2 361.885 103.3 13
4 -4 -2 588.481 263.139 105
-4 4 2 256.959 118.379 99
4 -2 -3 86363.1 3247.29 52
4 -2 -3 116611 3827.78 40
-4 2 3 100740 1788.68 36
4 -2 -3 128652 4441.67 104
4 -2 -3 94567.7 3729.83 109
4 -2 -3 84647 3214.82 105
-4 2 3 100221 2042.22 108
-4 2 3 94546.5 1911.18 99
4 0 -4 298322 4417.4 6
4 0 -4 315113 6939.65 51
-4 0 4 276355 3141.07 47
4 0 -4 257999 6382.85 45
-4 0 4 291784 3575.39 108
4 0 -4 199068 5592.64 107
4 0 -4 213883 4502.25 105
-4 0 4 271790 2962.56 99
4 0 -4 304479 2953.6 68
4 2 -5 33798.7 1696.47 6
4 2 -5 34669.7 1104.16 58
-4 -2 5 34655.5 1363.12 47
-4 -2 5 34193.1 1324.15 108
4 2 -5 28721.5 2260.89 107
4 2 -5 27530.1 1766.91 102
-4 -2 5 34190.6 984.325 94
4 2 -5 30085.7 1188.52 25
-4 -2 5 33078.3 1009.37 99
-4 -2 5 32969.6 987.349 114
4 2 -5 39734.1 1790.58 72
4 2 -5 34906.8 1132.67 68
4 4 -6 30548.1 1230.78 9
4 4 -6 26663.7 1093.47 58
4 4 -6 29772.3 1259.21 12
4 4 -6 29012.5 1080.64 8
-4 -4 6 31347.7 1537.28 47
4 4 -6 27431.2 1344.95 18
-4 -4 6 30678.4 1100.27 114
4 4 -6 33403.5 2442.2 107
4 4 -6 29431.3 1579.33 16
4 4 -6 21228.2 1124.26 15
-4 -4 6 29292.8 1550.68 26
-4 -4 6 30902.1 1046.61 94
4 4 -6 29364.4 1329.51 25
4 4 -6 32215.4 1336.01 24
-4 -4 6 30050.7 1282.6 95
4 4 -6 28014.7 1479.87 80
4 4 -6 32424.5 1893.05 6
4 4 -6 28132.5 1142.06 68
4 6 -7 16189.9 985.974 16
4 6 -7 13253.7 891.019 12
4 6 -7 14639.3 861.554 8
-4 -6 7 15215.3 1132.83 47
4 6 -7 14302.5 1088.15 18
4 6 -7 14894.2 918.293 25
4 6 -7 18613.7 1579.38 107
-4 -6 7 13444.2 1026.4 26
4 6 -7 15321.2 924.152 24
4 6 -7 14511.4 775.31 14
4 6 -7 14237.9 904.489 9
4 6 -7 16989.3 1053.41 80
-4 -6 7 15262.2 829.769 73
4 8 -8 3492.74 335.24 8
4 8 -8 3009.74 395.807 18
4 8 -8 3816.38 296.721 16
-4 -8 8 3881.33 375.003 26
4 8 -8 3628.1 319.708 25
-4 -8 8 3884.8 327.035 73
-4 11 -2 2820.2 309.729 14
4 -11 2 2363.32 459.898 84
4 -9 1 535.434 301.264 59
4 -9 1 1138.46 433.795 57
4 -9 1 845.775 411.697 52
-4 9 -1 788.574 179.399 19
4 -9 1 132.545 158.311 43
-4 9 -1 1046.28 192.49 17
4 -9 1 205.742 238.617 109
4 -9 1 1072.6 490.029 105
-4 9 -1 869.091 174.837 88
-4 9 -1 941.972 242.292 14
4 -9 1 977.257 325.745 79
-4 9 -1 1150.2 237.611 16
4 -7 0 27804.1 1713.77 56
4 -7 0 35043.4 3071.86 52
-4 7 0 23280.4 1000.36 19
4 -7 0 17871.3 1707.98 43
-4 7 0 27104.7 1490.95 36
-4 7 0 25771.3 1006.57 17
4 -7 0 18891.7 1522.82 34
4 -7 0 36775.8 3484.51 109
-4 7 0 23129.8 1078.02 10
4 -7 0 26267.5 2380.98 105
-4 7 0 23892.9 1017.91 88
-4 7 0 27413.7 1128.43 16
-4 7 0 23154.4 1172.6 14
-4 7 0 25675.8 1005.26 28
-4 7 0 27924.5 1071.08 13
-4 5 1 15148.2 714.929 28
-4 5 1 13468.1 677.098 19
4 -5 -1 11100.1 1149.57 43
-4 5 1 14478.3 868.52 36
-4 5 1 14033.5 671.105 17
4 -5 -1 12510.3 1009.81 34
-4 5 1 15015.1 678.21 13
4 -5 -1 16194.7 1614.12 105
-4 5 1 12830.6 635.769 16
-4 5 1 13493.9 842.434 99
-4 5 1 13427.3 698.343 88
-4 5 1 11551 713.888 14
-4 5 1 12669.1 782.582 4
-4 5 1 13597.9 633.581 22
4 -3 -2 48267.7 2601.11 52
4 -3 -2 30905.3 1524.7 43
-4 3 2 32763.4 1002.79 36
4 -3 -2 50329.7 2884.35 109
4 -3 -2 39426.6 2246.7 105
-4 3 2 37456.5 1210.33 99
-4 3 2 37784.7 1172.07 108
-4 1 3 702713 4974.64 49
-4 1 3 707125 4297.12 47
4 -1 -3 648912 8852.31 40
4 -1 -3 598030 9453.91 104
-4 1 3 702165 4600.19 99
4 -1 -3 727756 9989.83 107
-4 1 3 750072 5256.01 108
4 1 -4 61682.5 2032.81 6
4 1 -4 65198.6 1351.82 58
4 1 -4 61574.1 3145.88 51
-4 -1 4 64590.2 1577.99 49
-4 -1 4 68852.6 1653.9 47
4 1 -4 60353.6 3145.48 45
-4 -1 4 66933.6 1678.81 108
4 1 -4 58132.1 1997.82 105
-4 -1 4 65416 1369.41 99
4 1 -4 68157.8 1421.36 68
4 3 -5 9767 718.649 25
4 3 -5 9513.21 610.37 58
4 3 -5 10573.3 690.905 12
4 3 -5 9791.31 565.997 8
-4 -3 5 11116.3 619.278 90
-4 -3 5 10718.6 813.055 47
4 3 -5 10609.1 726.509 18
-4 -3 5 10996.7 639.637 115
-4 -3 5 10198.2 570.888 114
4 3 -5 11829 1487.49 107
4 3 -5 7460.52 757.53 16
-4 -3 5 8510.62 777.067 26
4 3 -5 8414.13 606.818 15
-4 -3 5 9528.65 654.012 95
-4 -3 5 10446.2 552.216 94
-4 -3 5 10028 730.933 108
4 3 -5 10504 723.785 24
4 3 -5 9943.98 635.955 9
4 3 -5 10317.4 694.981 32
4 3 -5 9665.36 618.932 68
4 3 -5 9817.84 962.889 6
4 5 -6 13810.2 922.091 12
4 5 -6 13914.6 820.279 8
-4 -5 6 14808.6 1094.7 47
4 5 -6 13817.4 1029.15 18
-4 -5 6 13862.6 823.811 115
4 5 -6 11071.6 864.132 15
-4 -5 6 10287.6 946.079 26
4 5 -6 17734.1 1675.66 107
-4 -5 6 13525.2 898.286 95
4 5 -6 14172.8 938.358 25
4 5 -6 14868.8 944.856 24
4 5 -6 16202.6 1101.91 16
4 5 -6 14760.3 915.452 9
4 5 -6 15115.2 1068.4 80
-4 -5 6 15094 781.742 114
4 7 -7 6849.61 572.079 8
4 7 -7 5740.59 656.061 18
4 7 -7 7841.51 568.376 16
-4 -7 7 5627.55 605.7 26
4 7 -7 6831.84 560.293 25
4 7 -7 6929.88 588.228 24
4 7 -7 6652.9 497.934 14
4 7 -7 6443.64 584.977 9
4 7 -7 8108.3 650.43 80
-4 -7 7 6752.93 526.944 73
4 -10 2 8204.44 1006.53 57
-4 10 -2 7313.64 524.337 19
-4 10 -2 8527.17 503.628 17
-4 10 -2 8637.81 564.203 16
-4 10 -2 6523.7 589.78 14
4 -10 2 5674.15 923.198 84
4 -10 2 5337.21 626.847 79
4 -10 2 5299.78 889.212 69
4 -8 1 17005.4 1509.72 59
4 -8 1 18481.4 1425.82 56
4 -8 1 22151.4 2474.76 52
-4 8 -1 16450.8 876.297 19
4 -8 1 9172.85 1299.9 43
-4 8 -1 18381.1 1278.86 36
-4 8 -1 17832 855.876 17
4 -8 1 13109.7 1358.78 34
-4 8 -1 19130.7 967.212 16
4 -8 1 22012 2714.85 109
-4 8 -1 15584 972.957 10
4 -8 1 17693.9 2049.36 105
-4 8 -1 16755.4 823.688 88
-4 8 -1 15203.3 984.822 14
4 -8 1 14274.2 1279.12 79
-4 8 -1 17949.5 825.444 13
4 -6 0 56282.9 3659.45 52
-4 6 0 34729.1 1137.9 19
4 -6 0 28357.5 2013.8 43
-4 6 0 40101.5 1625.22 36
-4 6 0 38438.6 1195.61 17
4 -6 0 31807.3 1810 34
4 -6 0 60775.2 4136.08 109
-4 6 0 39727.5 1211.16 28
-4 6 0 31986.8 1146.67 10
4 -6 0 45252.7 2911.67 105
-4 6 0 34044.2 1156.22 88
-4 6 0 33910.4 1352.43 14
-4 6 0 35736.6 1175.35 16
-4 6 0 34157.6 1364.19 4
-4 6 0 37620.5 1082.42 22
-4 6 0 41188.4 1191.74 13
4 -6 0 38180.9 1708.77 66
4 -4 -1 206938 5763.16 52
4 -4 -1 104928 3144.23 43
-4 4 1 128070 2139.3 36
4 -4 -1 139301 3114.72 34
4 -4 -1 204344 6299.25 109
-4 4 1 151810 2198.39 108
4 -4 -1 170146 4810.4 105
-4 4 1 150719 2693.44 106
-4 4 1 128670 2144.59 4
-4 4 1 148426 2487.38 99
4 -2 -2 61458 2740.75 52
-4 2 2 79706.2 1535.72 49
4 -2 -2 100135 3256.44 40
-4 2 2 76969.1 1291.75 36
4 -2 -2 61693.4 3014.89 109
4 -2 -2 115707 3833.04 104
-4 2 2 78428.9 1527.61 99
4 -2 -2 58020.5 2678.76 105
-4 2 2 81133.8 1623.25 108
4 0 -3 58338.9 2764.08 51
-4 0 3 52594.3 1332.42 49
-4 0 3 58722.9 1287.61 47
4 0 -3 47060.4 2535.34 45
4 0 -3 52252.6 2484.3 109
-4 0 3 56035.1 1442.75 108
4 0 -3 35895.5 2225.09 107
4 0 -3 44542 2145.15 105
-4 0 3 53968.1 1213.62 99
4 2 -4 2805.71 458.854 6
4 2 -4 2903.2 310.998 58
4 2 -4 3343.82 487.427 105
-4 -2 4 3065.9 346.095 49
-4 -2 4 3267.28 391.863 47
-4 -2 4 2985.03 354.425 108
4 2 -4 2341.3 648.325 107
-4 -2 4 3000.17 289.353 99
4 2 -4 2816.62 305.838 68
4 4 -5 49097.6 1886.48 16
4 4 -5 48770.1 1630.31 12
4 4 -5 43489.6 1335.9 8
-4 -4 5 51941.4 1888.52 47
4 4 -5 48438.1 1734.14 18
4 4 -5 51542.7 2222.18 1
-4 -4 5 48801.8 1447.28 115
4 4 -5 46685.4 1515.93 9
-4 -4 5 48510.8 1575.35 95
4 4 -5 47303.8 1665.17 25
-4 -4 5 46383.8 1206.02 94
-4 -4 5 51627.8 1438.27 90
4 4 -5 48798.5 1669.71 24
4 4 -5 39067.8 1447.9 15
4 4 -5 60532.4 3243.2 107
4 4 -5 52929.3 1713.78 32
4 4 -5 48479.8 1879.69 80
-4 -4 5 46598.1 1286.94 114
4 4 -5 55360 2325.83 6
-4 -4 5 66251.8 3208.79 70
4 6 -6 30225.3 1322.81 25
4 6 -6 27172.5 1326.72 12
4 6 -6 27594.8 1198.81 8
-4 -6 6 29008.8 1558.55 47
4 6 -6 27902.2 1471.52 18
4 6 -6 34957.8 2114.81 107
4 6 -6 21322.2 1245.18 15
-4 -6 6 17301.8 1214.25 26
-4 -6 6 26132 1245.93 95
4 6 -6 30178.9 1351.8 24
4 6 -6 26867.6 1269.84 9
-4 -6 6 30033.1 1170.3 73
4 6 -6 34809.9 1512.86 80
4 6 -6 32686 1320.18 16
4 8 -7 15666.8 766.746 8
4 8 -7 14151.6 894.534 18
4 8 -7 15436.7 591.97 16
-4 -8 7 13696.1 802.648 26
4 8 -7 15788.2 693.755 25
4 8 -7 14938 646.326 14
-4 -8 7 15607 681.383 73
-4 11 -3 2150.02 211.694 19
-4 11 -3 2346.98 291.136 14
4 -11 3 2786.45 523.008 84
4 -9 2 5506.99 805.868 59
4 -9 2 5339.73 953.229 57
4 -9 2 5343.05 1193.75 52
-4 9 -2 5450.15 510.762 19
-4 9 -2 6302.77 502.57 17
4 -9 2 4436.49 1202.33 109
-4 9 -2 6743.71 559.453 16
-4 9 -2 5830.48 608.555 10
4 -9 2 4486.11 1040.19 105
-4 9 -2 4696.39 555.852 14
4 -9 2 5174.52 999.201 84
4 -9 2 4776.54 707.455 79
4 -7 1 21777 1659.25 59
4 -7 1 20187.8 1496.78 56
4 -7 1 31136.7 2833.99 52
-4 7 -1 21627.7 937.933 19
4 -7 1 13966.6 1547.15 43
-4 7 -1 23373.4 1344.48 36
-4 7 -1 23460.7 979.834 17
4 -7 1 19640.8 1570.97 34
4 -7 1 33783.8 3244.84 109
-4 7 -1 24553.3 1281.2 106
-4 7 -1 21321.7 1066.33 10
4 -7 1 24772.6 2334.12 105
-4 7 -1 20493.7 902.027 88
-4 7 -1 20912.3 1143.59 14
-4 7 -1 23565.1 1025.05 16
-4 7 -1 20732.2 1148.35 4
-4 7 -1 22954.4 873.183 22
4 -7 1 20078.6 1476.84 79
-4 7 -1 25611.6 987.955 13
4 -5 0 8643.66 1262.65 52
-4 5 0 6211.82 429.573 19
4 -5 0 4374.32 716.659 43
-4 5 0 7012.93 574.924 36
-4 5 0 6981.69 469.166 17
4 -5 0 6994.06 776.654 34
4 -5 0 9051.27 1438.88 109
-4 5 0 5831.91 423.499 10
4 -5 0 7758.61 1108.9 105
-4 5 0 7241.19 554.357 99
-4 5 0 6459.93 433.89 16
-4 5 0 7045.58 568.462 14
-4 5 0 6340.24 509.098 4
-4 5 0 6938.26 613.402 106
-4 5 0 6708.68 427.419 22
4 -5 0 7127.61 701.163 66
4 -3 -1 12725.3 1300.03 52
-4 3 1 12685.9 575.218 49
-4 3 1 11431.6 511.42 36
4 -3 -1 12165.1 885.889 34
4 -3 -1 12764.4 1427.51 109
-4 3 1 13365 609.643 7
4 -3 -1 12079.3 1209.31 105
-4 3 1 12611.3 626.883 99
-4 3 1 13401.4 733.417 106
-4 3 1 15207.5 617.192 4
-4 3 1 12269 602.959 108
4 -1 -2 33447.3 2156.37 109
-4 1 2 46836.7 1279.11 7
-4 1 2 44876.2 1160.2 49
-4 1 2 43789.8 910.605 47
4 -1 -2 33967 1891.03 40
-4 1 2 47035.7 827.23 35
4 -1 -2 43030.9 2234.8 107
4 -1 -2 30871.4 1943.8 105
4 -1 -2 34739.7 2095.74 104
-4 1 2 43655.6 1076.05 99
-4 1 2 45803.5 1250.14 108
-4 -1 3 30612.5 1082.28 108
4 1 -3 27710.8 1220 6
4 1 -3 28510.7 875.34 58
4 1 -3 32195 2134.46 51
-4 -1 3 29159.4 999.842 49
-4 -1 3 35492.3 1095.96 35
4 1 -3 26076.6 1916.98 107
4 1 -3 30815.6 1633.83 105
4 1 -3 27331 867.837 68
4 3 -4 16503.2 872.058 12
4 3 -4 15642.4 1098 3
4 3 -4 14640.6 701.074 8
-4 -3 4 15388.2 803.432 49
-4 -3 4 17570.3 999.97 47
4 3 -4 17549.2 919.447 18
-4 -3 4 18214.1 798.868 115
4 3 -4 16240.6 1216.34 1
-4 -3 4 16080.9 859.099 108
4 3 -4 14360.4 1513.66 107
4 3 -4 12853.6 906.289 16
4 3 -4 13202.8 935.988 80
4 3 -4 15311.4 773.718 15
-4 -3 4 19422.3 897.704 95
4 3 -4 16054.7 909.961 25
-4 -3 4 16963.9 754.091 90
4 3 -4 15607.1 887.661 32
4 3 -4 16259.9 919.453 24
4 3 -4 16441 825.805 9
-4 -3 4 17418 1611.54 70
4 3 -4 16890.2 1166.74 6
4 5 -5 3845.17 488.95 15
4 5 -5 4146.16 509.467 12
4 5 -5 4270.82 459.374 8
-4 -5 5 4980.26 615.731 47
4 5 -5 4873.58 607.281 18
4 5 -5 5401.1 574.216 16
-4 -5 5 4511.55 850.197 70
-4 -5 5 4338.38 400.497 114
-4 -5 5 5733.77 526.034 115
4 5 -5 5809.92 955.835 107
-4 -5 5 4463.04 507.575 95
4 5 -5 4816.69 550.244 25
-4 -5 5 5062.99 480.956 90
4 5 -5 4946.64 556.813 24
4 5 -5 4459.05 511.005 9
4 5 -5 5184.87 604.588 80
4 7 -6 479.027 164.462 9
-4 -7 6 220.738 133.806 47
4 7 -6 462.071 197.765 18
4 7 -6 443.222 149.775 8
4 7 -6 234.026 160.394 107
4 7 -6 625.275 144.523 16
-4 -7 6 195.251 143.219 26
-4 -7 6 395.122 153.417 95
4 7 -6 558.952 176.684 25
4 7 -6 645.854 185.623 24
4 7 -6 299.165 150.658 15
4 7 -6 388.026 145.948 80
4 7 -6 531.596 161.268 14
-4 -7 6 570.547 152.47 73
4 -10 3 16312.2 1464.45 57
-4 10 -3 16339.9 808.832 19
-4 10 -3 13635.6 851.42 14
-4 10 -3 19201.7 804.81 17
-4 10 -3 17929.5 806.51 16
-4 10 -3 15832.1 947.744 10
4 -10 3 13631.2 1459.84 84
4 -10 3 14070.9 1068.05 79
4 -10 3 9817.16 1201.28 69
4 -8 2 9787.04 1153.39 59
4 -8 2 9625.03 1288.32 57
4 -8 2 11704.6 1139.11 56
4 -8 2 10913.8 1697.85 52
-4 8 -2 10382.2 697.709 19
4 -8 2 5759.46 705.324 11
-4 8 -2 10400.8 954.098 36
-4 8 -2 11254.2 697.387 17
4 -8 2 8967.96 1127.64 34
4 -8 2 11980.4 2011.74 109
-4 8 -2 10519.3 706.385 16
-4 8 -2 12013 942.114 106
-4 8 -2 9945.31 804.329 10
4 -8 2 9582.24 1542.58 105
-4 8 -2 8746.99 760.619 14
4 -8 2 9744.5 1431.29 84
-4 8 -2 10701.7 906.65 4
4 -8 2 10032 1093.49 79
4 -6 1 28957.2 1644.24 56
4 -6 1 38440.8 2895.22 52
-4 6 -1 29898.3 1360.94 106
4 -6 1 16316 1526.77 43
-4 6 -1 30145.8 1355.13 36
-4 6 -1 30668.2 1066.43 17
4 -6 1 26236.9 1691.3 34
-4 6 -1 26824.7 983.167 16
4 -6 1 38286.7 3186.21 109
-4 6 -1 28209.5 944.122 28
-4 6 -1 26538 1071.53 10
4 -6 1 29910 2349.52 105
-4 6 -1 26077.6 1210.29 14
-4 6 -1 27143 1152.78 4
4 -6 1 26912.8 1567.81 79
-4 6 -1 28367.1 924.161 22
-4 6 -1 32424.7 1001.67 13
4 -4 0 53233.6 2824.15 52
-4 4 0 51888.3 1128.75 49
-4 4 0 47404.2 1207.47 36
4 -4 0 53518.3 1994.59 34
4 -4 0 56982.4 3203.91 109
-4 4 0 52457.2 1202.8 108
-4 4 0 54213.6 1160.29 7
4 -4 0 49709.1 2603.56 105
-4 4 0 57029.6 1657.5 106
-4 4 0 53829.4 1344.55 99
-4 4 0 50094.9 1244.65 4
4 -4 0 52584.9 1769.51 66
-4 2 1 17729.7 760.902 7
4 -2 -1 20702.8 1345.71 40
-4 2 1 14506.1 406.418 36
4 -2 -1 12418.7 1389.22 109
-4 2 1 18446.5 773.286 106
4 -2 -1 11213.1 1203.43 105
4 -2 -1 22880.9 1570.16 104
-4 2 1 16811.2 539.632 4
-4 2 1 15890.2 719.262 108
4 0 -2 319.332 208.299 51
4 0 -2 151.865 229.276 107
4 0 -2 -48.7043 172.962 45
-4 0 2 141.522 63.5933 35
4 0 -2 356.932 223.112 109
-4 0 2 622.15 183.445 108
4 0 -2 429.853 305.011 105
4 0 -2 19.6775 56.8839 5
-4 0 2 261.602 100.98 7
4 2 -3 59891.5 1489.83 65
-4 -2 3 56633.9 1432.14 49
-4 -2 3 74047.1 1556.06 44
-4 -2 3 70025.5 1852.36 35
-4 -2 3 58584.6 1557.13 108
4 2 -3 66766 2399.14 105
4 2 -3 51694.5 2632.19 107
4 2 -3 62247 1463.7 9
-4 -2 3 66447.8 2955.4 70
4 2 -3 61652.5 1954.04 6
-4 -4 4 37334 2200.23 63
-4 -4 4 40211.6 1163.67 54
4 4 -4 36467.9 1418.35 12
4 4 -4 31744.9 1164.41 8
-4 -4 4 37323.2 1468.91 44
4 4 -4 37657.5 1480.99 18
-4 -4 4 38654.6 1267.94 115
4 4 -4 42860 2462.61 107
4 4 -4 32916.2 1257.53 15
-4 -4 4 40814.1 1398.34 95
4 4 -4 36814.3 1448.4 25
-4 -4 4 36728.2 1222.11 90
4 4 -4 36599.2 1467.96 24
4 4 -4 34128 1316.54 9
4 4 -4 35956.9 1513.86 80
4 4 -4 40055.5 1889.52 1
4 4 -4 35414.2 1399.97 16
-4 -4 4 35185.5 2432.66 70
4 4 -4 38755.4 1540.22 32
4 6 -5 19716.2 934.62 16
4 6 -5 16879.6 968.089 8
-4 -6 5 19633.2 1276.34 47
4 6 -5 16488.8 1135.98 18
-4 -6 5 18436.8 976.344 115
4 6 -5 15808.5 989.806 9
4 6 -5 22844.7 1674.51 107
4 6 -5 14632.4 1038.33 15
-4 -6 5 18109.1 1042.49 95
4 6 -5 18429.1 1032.31 25
-4 -6 5 19566.5 975.13 90
4 6 -5 18799.1 1105.03 24
4 6 -5 21361.1 1121.97 80
-4 -6 5 17431.1 1677.65 70
4 8 -6 130.971 95.4704 18
4 8 -6 76.8739 65.0063 8
-4 -8 6 77.4892 48.3213 26
-4 -8 6 18.4355 57.3915 95
4 8 -6 147.174 76.7984 25
4 8 -6 81.5916 55.3592 14
-4 -8 6 137.095 60.1112 73
-4 11 -4 3576.7 275.491 19
-4 11 -4 5043.53 330.342 16
-4 11 -4 4448.95 288.824 17
-4 11 -4 3757.85 360.8 14
4 -11 4 5121.29 689.693 84
4 -9 3 10081.4 1255.25 57
4 -9 3 6910.52 1311.04 52
-4 9 -3 11007.2 734.343 19
-4 9 -3 12419.8 735.483 17
4 -9 3 8381.15 728.928 111
4 -9 3 8164.42 1570.52 109
-4 9 -3 11799.7 901.284 10
-4 9 -3 9598.06 791.6 14
4 -9 3 10726.5 1457.39 84
-4 9 -3 11787 722.323 16
4 -9 3 9685.1 1044.41 79
4 -7 2 101156 5494.75 109
4 -7 2 81025 3177.88 59
4 -7 2 85231.5 3084.99 56
4 -7 2 96129.9 4797.36 52
-4 7 -2 89602.5 2567.67 36
-4 7 -2 91702.5 1976.58 17
4 -7 2 86991 3364.68 34
4 -7 2 81732.7 2362.96 111
-4 7 -2 88267.7 1934.04 16
-4 7 -2 85624.7 2218.24 10
-4 7 -2 80806.8 2306.89 14
4 -7 2 86014.5 4040.07 84
-4 7 -2 97963.8 2638.11 106
-4 7 -2 87433.8 2327.78 4
4 -7 2 79563.5 2960.92 79
-4 7 -2 91697.4 1765.53 22
4 -7 2 93229.4 4502.91 105
-4 7 -2 101101 1894.2 13
-4 5 -1 19549 816.098 99
4 -5 1 20241.5 1261.28 56
4 -5 1 18875.2 1817.01 52
-4 5 -1 18439.7 902.735 36
-4 5 -1 19445.6 791.619 17
4 -5 1 20122.7 1351.09 34
4 -5 1 21937.4 2163.09 109
-4 5 -1 17613 766.607 10
-4 5 -1 21158.9 1101.41 106
4 -5 1 18860.5 1723.5 105
-4 5 -1 20090.8 994.309 14
4 -5 1 19649.5 1612.27 84
-4 5 -1 18876.2 736.439 22
-4 5 -1 17311.5 804.24 4
4 -5 1 17912.8 1146.42 66
4 -3 0 8176.31 1074.53 52
4 -3 0 9037.06 557.899 48
-4 3 0 9281.63 406.797 36
4 -3 0 11588 875.966 34
4 -3 0 8719.77 1234.32 109
-4 3 0 12489.6 708.886 106
-4 3 0 11488.3 624.327 7
4 -3 0 8342.92 1049.02 105
-4 3 0 11019.5 563.505 99
-4 3 0 11311.2 515.778 4
-4 3 0 10478.8 573.386 108
4 -1 -1 80484.7 2824.66 45
-4 1 1 83280.1 1343.96 42
4 -1 -1 67476.5 2597.56 107
4 -1 -1 60632.2 2792.79 105
-4 1 1 72868.9 1635.91 7
4 -1 -1 53226.4 2487.92 104
-4 1 1 76560.8 1712.13 108
-4 1 1 74754.6 888.174 4
4 -1 -1 73517.5 3390.38 109
-4 1 1 71153.8 1381.16 106
-4 -1 2 37669.1 1251.72 35
-4 -1 2 34976.9 1210.44 7
4 1 -2 38488.3 1888.9 105
4 1 -2 36202.3 1255.21 6
-4 -1 2 37647 1243.97 108
-4 -1 2 40110.8 2172.4 70
-4 -3 3 2014.08 478.714 63
4 3 -3 2066.95 275.643 8
4 3 -3 2245.78 426.311 3
-4 -3 3 1898.33 272.397 49
-4 -3 3 2163.31 312.468 44
4 3 -3 2216.67 326.299 18
-4 -3 3 2652.78 422.89 35
4 3 -3 2397 537.96 107
4 3 -3 2116.91 275.807 15
4 3 -3 2141.6 307.38 9
4 3 -3 2087.52 339.274 24
-4 -3 3 1829.08 283.728 108
4 3 -3 1925.31 308.398 25
4 3 -3 2231.08 440.578 1
4 3 -3 2378.87 365.541 32
-4 -3 3 2133.7 255.657 71
-4 -3 3 1887.35 565.619 70
4 3 -3 1851.67 243.342 21
-4 -5 4 18793.7 1644.34 63
-4 -5 4 22797.6 966.308 54
4 5 -4 17967.7 962.007 8
-4 -5 4 21085.2 1265.99 47
-4 -5 4 20417.7 1190.65 44
4 5 -4 20167.2 1164.94 18
-4 -5 4 21939 1039.21 115
-4 -5 4 22988.8 1126.81 95
4 5 -4 24259.4 1709.62 107
-4 -5 4 20831.2 984.134 90
4 5 -4 18591.7 1060.05 15
4 5 -4 20845.4 1184.94 24
4 5 -4 20426.5 1080.22 25
4 5 -4 21572.1 1102.29 80
4 5 -4 18456.8 1044.99 9
-4 -5 4 17715.1 1800.08 70
4 7 -5 48650.3 1607.6 8
-4 -7 5 50487.4 1975.97 47
4 7 -5 43424.4 1760.69 18
-4 -7 5 48447.6 1522.94 115
4 7 -5 39192.7 1671.38 15
-4 -7 5 48247 1653.81 95
4 7 -5 52875.9 1493.43 25
4 7 -5 55546 1805.03 24
4 7 -5 50000.6 1561.37 14
-4 -7 5 49171.2 1406.36 73
-4 -7 5 56778.3 2826.6 70
-4 10 -4 222.182 91.7509 17
-4 10 -4 222.861 84.5648 19
4 -10 4 209.331 99.7511 111
-4 10 -4 252.545 96.9226 16
4 -10 4 142.769 150.297 27
-4 10 -4 296.7 131.59 10
4 -10 4 561.946 307.176 84
-4 10 -4 208.408 116.363 14
4 -10 4 394.038 229.768 79
4 -8 3 63913.3 2942.99 59
4 -8 3 58416.9 3016.78 57
-4 8 -3 59670.9 1700.37 12
4 -8 3 48335.2 3445.69 52
-4 8 -3 60890.1 1715.67 19
4 -8 3 39042.1 1800.59 11
-4 8 -3 57589.2 2201.47 36
-4 8 -3 65837.1 1743.75 17
4 -8 3 61776.5 3008 34
4 -8 3 57404.8 2060.05 111
4 -8 3 54487.2 4063.53 109
-4 8 -3 63714.7 1684.88 16
-4 8 -3 76241.5 2470.52 106
4 -8 3 48113.3 3374.2 105
4 -8 3 32421.3 2333.01 2
-4 8 -3 55695.7 1991.78 14
4 -8 3 63827.1 3631.88 84
-4 8 -3 69329.3 2296.17 4
-4 8 -3 64924.4 2095.67 10
4 -8 3 60287.6 2704.37 79
-4 8 -3 74390.7 1645.35 22
4 -6 2 8812.63 973.891 59
-4 6 -2 8650.33 543.083 12
4 -6 2 9155.28 923.026 56
4 -6 2 7867.35 1245.59 52
-4 6 -2 9298.78 740.457 36
-4 6 -2 9078.04 593.746 17
4 -6 2 8689.45 990.535 34
-4 6 -2 7787.42 515.694 16
-4 6 -2 8877.47 635.558 10
-4 6 -2 10270.9 847.754 106
4 -6 2 7809.97 1210.36 105
4 -6 2 8548.43 727.128 111
4 -6 2 8285.76 1401.21 109
-4 6 -2 8896.64 655.374 4
-4 6 -2 8126.75 700.82 14
4 -6 2 8452.38 1177.96 84
4 -6 2 8489.41 891.621 79
-4 6 -2 8801.65 541.485 22
4 -4 1 92009.9 2472.92 56
4 -4 1 64999.4 3151.51 52
4 -4 1 74422.4 2022.41 48
-4 4 -1 83665 1561.56 36
4 -4 1 97426.3 2723.43 34
4 -4 1 67765 3538.25 109
-4 4 -1 101357 1770.17 99
-4 4 -1 95340.1 1627.84 10
-4 4 -1 97901.6 2276.3 106
-4 4 -1 100044 1917.78 7
4 -4 1 57996.1 2853.02 105
-4 4 -1 87125 1637.18 4
-4 4 -1 87874.8 1645.04 108
4 -4 1 82959.1 2323.63 66
4 -2 0 78632.3 2492.97 40
-4 2 0 94638.2 1950.38 108
-4 2 0 85869 1704.05 106
-4 2 0 85539 1831.78 7
4 -2 0 57374.4 2853.19 105
4 -2 0 82962.4 2894.62 104
4 -2 0 69495.1 1819.49 1
4 -2 0 64062.1 3288.22 109
-4 0 1 64308.5 1401.52 42
-4 0 1 62063 1634.63 108
-4 0 1 55844.6 1484.31 7
4 0 -1 61278.8 2620.19 105
4 0 -1 52736.1 1805.8 1
4 0 -1 48459.9 2082.97 107
4 0 -1 56609.4 1662.47 5
-4 -2 2 44939.2 2039.51 63
4 2 -2 49410 2036.29 3
4 2 -2 43747.4 1185.89 8
-4 -2 2 50009.6 1697.13 35
4 2 -2 45582.4 2016.2 107
-4 -2 2 48228 1503.07 7
4 2 -2 45857.5 1866.27 1
-4 -2 2 46001.4 1436.45 108
4 2 -2 47691.9 1327.45 9
-4 -2 2 46122.6 2539.21 70
-4 -4 3 28940.3 1957.33 63
4 4 -3 37335.6 1601.89 32
4 4 -3 39213.9 1817.35 1
4 4 -3 30364.3 1190.38 8
-4 -4 3 37026.9 1471.98 44
4 4 -3 34973.6 1386.91 18
4 4 -3 34127.4 1802.64 107
4 4 -3 34232.2 1276.61 15
4 4 -3 32743.1 1287.74 25
-4 -4 3 32675.8 1172.02 90
4 4 -3 36285.1 1517.58 24
4 4 -3 31921.7 1295.14 9
-4 -4 3 29307.4 2314.03 70
4 4 -3 30334.4 1064.25 21
-4 -6 4 133357 4494.61 63
-4 -6 4 126351 2397.42 54
4 6 -4 115156 2845.11 15
4 6 -4 117666 2599.88 8
-4 -6 4 132627 3271.71 47
4 6 -4 116227 2890.68 18
-4 -6 4 136854 2686.18 115
4 6 -4 161235 3997.57 107
-4 -6 4 136692 2848.52 95
-4 -6 4 130457 2490.28 90
4 6 -4 142143 3112.57 24
4 6 -4 129258 2496.24 25
-4 -6 4 118984 4747 70
4 8 -5 30369.9 1090.42 8
4 8 -5 26666.5 1182.61 18
4 8 -5 21583.8 1069.7 15
-4 -8 5 17113.4 958.731 26
-4 -8 5 26884.5 1074.18 95
4 8 -5 31186.7 1035.23 14
-4 -8 5 25071.2 823.165 73
-4 11 -5 14328 513.432 17
-4 11 -5 13110.8 470.925 16
-4 11 -5 9828.17 539.823 14
4 -11 5 9003.28 675.53 27
4 -11 5 6016.64 536.348 83
4 -9 4 16405.5 1050.57 111
-4 9 -4 16878.7 917.474 12
-4 9 -4 17711.8 929.156 19
-4 9 -4 19269.9 928.327 17
-4 9 -4 18153 1110.05 10
-4 9 -4 15309.8 1010.15 14
4 -9 4 17602.5 1808.96 84
4 -9 4 19186.7 1454.64 79
-4 9 -4 17478.2 828.87 16
4 -7 3 55916.4 2631.47 59
-4 7 -3 54740.9 1568.56 12
4 -7 3 48354.8 2586.79 57
4 -7 3 36636.7 2833.01 52
4 -7 3 39264.7 1880.1 11
-4 7 -3 55736 1792.99 10
-4 7 -3 55863.7 2012.29 36
-4 7 -3 58094.4 1609.07 17
4 -7 3 60862.1 2866.94 34
4 -7 3 55582.3 2030.86 111
4 -7 3 43577.9 3394.94 109
-4 7 -3 53659.2 1466.78 16
-4 7 -3 67141.1 2314.97 106
4 -7 3 40761.9 2937.6 105
-4 7 -3 65504.9 2060.64 4
-4 7 -3 48641.4 1811.48 14
-4 7 -3 52018.3 1400.04 9
4 -7 3 51340 3080.26 84
4 -7 3 56078.4 2493.1 79
-4 7 -3 61303.7 1528.71 22
4 -7 3 30521.5 2256.35 2
4 -5 2 24605.6 1488.71 59
-4 5 -2 29519.3 934.376 12
4 -5 2 25069.8 1439.03 56
4 -5 2 18562.8 1814.47 52
-4 5 -2 27910.2 964.803 17
4 -5 2 30040 1689.19 34
-4 5 -2 29626.8 1075.35 30
-4 5 -2 30600.5 1063.56 10
4 -5 2 19836 1824.02 105
-4 5 -2 29010.4 1097.22 4
-4 5 -2 24183.3 1087.16 14
4 -5 2 22908.3 1783.23 84
4 -5 2 26752.1 1443.17 79
4 -5 2 21825.1 2164.8 109
-4 5 -2 29685.5 1007.15 22
-4 5 -2 32451.7 1474.91 106
4 -3 1 263192 3536.5 48
4 -3 1 332869 4676.22 40
-4 3 -1 305822 3632.39 108
4 -3 1 205744 6164.01 109
-4 3 -1 320373 3855.08 106
-4 3 -1 322651 3775.94 7
4 -3 1 368398 5435.42 104
4 -3 1 259583 3198.37 1
4 -3 1 269194 4054.62 66
-4 1 0 42545.3 1088.5 106
-4 1 0 46565.5 1123.36 42
-4 1 0 51795.6 1134.99 39
-4 1 0 44477.9 1439.46 108
4 -1 0 53284.6 2977.58 109
4 -1 0 31970.2 1743.18 5
-4 1 0 41625.3 1312.3 7
4 -1 0 39408.1 2202.36 105
-4 1 0 49707.3 1164.99 100
4 -1 0 31625.7 1440.87 98
4 -1 0 41772.6 1510.14 1
4 1 -1 168559 3720.87 3
-4 -1 1 191710 2722.44 42
-4 -1 1 195477 3003.67 108
-4 -1 1 180280 2828.76 7
4 1 -1 212522 4623.48 105
4 1 -1 160633 3241.58 107
4 1 -1 187336 3589.57 1
-4 -1 1 185153 4776.35 70
-4 -3 2 9775.73 1062.13 63
4 3 -2 13023.4 920.212 32
4 3 -2 12265.1 976.695 1
4 3 -2 11399 684.687 8
4 3 -2 14854.4 1121.46 3
-4 -3 2 11729.5 773.137 44
4 3 -2 11959.2 721.714 18
-4 -3 2 12513 966.392 35
4 3 -2 12407.3 993.988 107
-4 -3 2 11993.1 799.102 7
4 3 -2 12260.3 681.734 15
4 3 -2 12822.5 856.842 24
-4 -3 2 10607.8 551.094 31
-4 -3 2 10917.8 586.144 71
-4 -3 2 10515 1321.79 70
-4 -3 2 10430.4 707.156 108
4 3 -2 11569.2 604.119 21
-4 -5 3 21642.3 1799.62 63
-4 -5 3 27104.4 1067.08 54
4 5 -3 20984.3 1078.95 8
-4 -5 3 26038.8 1374.3 44
4 5 -3 21885.4 1181.44 18
4 5 -3 25645.1 1499.73 107
4 5 -3 22989 1165.52 15
-4 -5 3 23440.7 1050.59 90
4 5 -3 24800.1 1313.14 24
-4 -5 3 19581.3 2011.28 70
4 5 -3 19245.6 918.604 21
4 7 -4 16469.8 921.796 8
4 7 -4 15211.6 1018.23 18
-4 -7 4 16554.8 874.925 115
4 7 -4 14272.6 975.212 15
-4 -7 4 16411.8 952.17 95
4 7 -4 18824.1 1048.1 24
4 7 -4 17740.6 940.748 14
-4 -7 4 16077.6 1644.8 70
-4 10 -5 38.6937 35.9102 19
-4 10 -5 111.73 74.992 17
4 -10 5 181.431 112.687 111
-4 10 -5 128.909 61.7232 16
4 -10 5 146.491 149.084 27
-4 10 -5 64.4614 89.2947 10
-4 10 -5 121.707 82.4481 14
4 -8 4 37006 2328.46 57
-4 8 -4 39305 1424.42 12
4 -8 4 33086.7 2077.5 48
4 -8 4 31716.5 1570.16 11
-4 8 -4 41997.8 1395.85 17
4 -8 4 39489.9 1755.4 111
-4 8 -4 37879.3 1243.15 16
-4 8 -4 39762 1609.37 10
-4 8 -4 34069 1549.07 14
4 -8 4 37164.7 2664.87 84
-4 8 -4 38731.4 1318.16 9
4 -8 4 42329.5 2238.37 79
-4 8 -4 46421.4 1352.19 22
-4 8 -4 51346.4 2115.78 106
4 -6 3 10248.3 1054.3 59
-4 6 -3 11693.2 680.239 12
4 -6 3 9674.03 1069.34 57
4 -6 3 10759.8 1041.03 56
4 -6 3 7643.62 822.016 11
-4 6 -3 11297.2 675.397 17
4 -6 3 11833.1 1155.24 34
4 -6 3 10840 846.948 111
-4 6 -3 11599.1 734.164 30
4 -6 3 7596.42 1344.04 109
-4 6 -3 12058.5 693.297 22
-4 6 -3 10314.1 598.649 16
-4 6 -3 11571.2 743.016 10
-4 6 -3 13018.8 1032.47 106
4 -6 3 6854.44 1032.17 2
4 -6 3 6912.55 1117.07 105
-4 6 -3 12494.7 826.729 4
-4 6 -3 11597.1 618.156 9
-4 6 -3 9838.19 761.487 14
4 -6 3 9798.02 1274.78 84
-4 6 -3 11445.8 640.091 23
4 -6 3 10365.5 998.599 79
-4 4 -2 72.1469 50.1817 61
4 -4 2 71.6223 77.3916 59
4 -4 2 547.884 318.924 56
-4 4 -2 169.858 67.0348 12
-4 4 -2 15.6681 28.2652 108
4 -4 2 24.4024 81.205 48
4 -4 2 96.4454 93.7481 3
4 -4 2 120.291 78.7392 34
-4 4 -2 126.423 74.5185 106
4 -4 2 105.561 123.014 105
-4 4 -2 258.1 88.7901 10
-4 4 -2 84.6928 67.9223 7
-4 4 -2 301.969 86.5866 9
4 -4 2 452.932 429.206 109
4 -2 1 7761.07 613.69 1
-4 2 -1 11112.7 809.031 62
4 -2 1 7714.52 488.941 53
-4 2 -1 8046.37 433.398 39
-4 2 -1 8729.83 681.205 108
4 -2 1 4211.1 731.149 5
-4 2 -1 8632 595.961 106
-4 2 -1 7828.6 606.277 7
-4 2 -1 8488.41 463.908 100
4 -2 1 4178.57 664.165 98
4 -2 1 9249.92 1305.31 109
-4 2 -1 11328.2 789.218 67
-4 0 0 120317 2520.3 108
4 0 0 103764 2870.65 3
-4 0 0 120062 2047.85 42
-4 0 0 126169 2063.72 39
-4 0 0 133198 3794.18 70
-4 0 0 114700 2266.76 7
4 0 0 135690 3880.09 105
4 0 0 134657 2990.45 5
4 0 0 115733 2533.63 2
-4 0 0 125373 2164.24 100
4 0 0 122605 2736.2 1
-4 -2 1 8341.97 876.485 63
4 2 -1 9762.93 831.494 1
-4 -2 1 8871.96 489.972 31
4 2 -1 9616.09 865.815 3
4 2 -1 9659.41 596.135 8
4 2 -1 10450.8 610.274 18
-4 -2 1 10079.2 708.463 42
-4 -2 1 9404.47 803.672 35
-4 -2 1 9107.48 677.545 7
4 2 -1 12000.2 1180.44 105
4 2 -1 10021 572.958 15
-4 -2 1 8865.84 675.122 108
-4 -2 1 8635.5 508.696 71
-4 -2 1 8189.92 1122.72 70
4 2 -1 10449.9 541.331 21
-4 -4 2 30451 2056.58 63
4 4 -2 42047.8 1798.57 32
-4 -4 2 34611.5 1046.14 31
4 4 -2 33057.8 1291.09 8
-4 -4 2 36553.4 1554.37 44
4 4 -2 35999 1381.85 18
4 4 -2 39782.7 1818.37 1
-4 -4 2 41632.2 2011.63 35
4 4 -2 35279.8 1561.65 107
4 4 -2 36952.9 1326.6 15
4 4 -2 38746.1 1554.09 24
-4 -4 2 33550 1083.01 71
-4 -4 2 31650 2538.37 70
4 4 -2 35008.1 1169.23 21
-4 -6 3 72533 3360.99 63
-4 -6 3 80899.2 1959.07 54
4 6 -3 63221.6 1909.88 8
4 6 -3 61166.4 2063.15 18
-4 -6 3 75188.3 2456.73 44
-4 -6 3 73902.6 1943.86 115
4 6 -3 63199 2025.69 15
-4 -6 3 78212.3 2163.13 95
-4 -6 3 65996.3 1736.16 90
4 6 -3 72450.4 2193.68 24
-4 -6 3 63563.8 3660.92 70
4 8 -4 5960.72 495.786 18
-4 -8 4 3568.26 426.388 26
4 8 -4 5228.9 494.834 15
-4 -8 4 6733.78 517.206 95
4 8 -4 7577.66 508.565 14
-4 -8 4 4992.7 339.131 73
-4 -8 4 6867.92 901.682 70
-4 9 -5 6987.94 586.237 12
-4 9 -5 7158.73 567.691 19
-4 9 -5 7481.77 552.778 17
-4 9 -5 6995.29 484.59 16
-4 9 -5 6916.72 651.692 10
4 -9 5 6774.35 677.275 111
-4 9 -5 5717.03 576.423 14
-4 9 -5 6825.73 540.339 9
-4 7 -4 70117.9 1824.81 12
4 -7 4 66173.1 2930.87 57
4 -7 4 57551.9 2670.54 48
4 -7 4 55341.3 2131.03 11
-4 7 -4 70318.1 1775.41 17
4 -7 4 76508.6 3133.62 34
-4 7 -4 70191 1918.33 30
-4 7 -4 68213.5 1969.19 10
-4 7 -4 69773.2 1650.46 16
4 -7 4 67530.5 2286.17 111
-4 7 -4 83865.4 2744.85 106
4 -7 4 50176.9 2828.46 2
-4 7 -4 86727 2451.29 4
-4 7 -4 72041.2 1755.9 9
-4 7 -4 54834.5 1863.47 14
4 -7 4 68108.9 3493.44 84
4 -7 4 70427.9 2796.58 79
-4 7 -4 76658.1 1821.35 22
-4 5 -3 41857.4 1137.01 64
-4 5 -3 39492.6 1136.72 12
4 -5 3 36833.3 1879.18 59
-4 5 -3 39897 1154.23 20
4 -5 3 32959.9 1750.73 57
4 -5 3 31063.3 1652.51 48
4 -5 3 29508.7 1557.78 11
4 -5 3 36631.3 1835.88 34
-4 5 -3 37932.4 1163.47 17
4 -5 3 39278.7 1517.11 111
-4 5 -3 37528.4 1268.72 30
4 -5 3 25730.2 2405.87 109
-4 5 -3 42139.7 1285.72 10
4 -5 3 23254.3 1984.76 105
-4 5 -3 42981.6 1580.23 7
-4 5 -3 44013.1 1886.59 106
-4 5 -3 45105.3 1170.67 9
-4 5 -3 31633.6 1281.71 14
4 -5 3 39233.6 2446.8 84
-4 5 -3 41565 1285.31 23
4 -5 3 26880.8 1937.9 2
-4 5 -3 41149.5 1294.71 22
4 -5 3 31737.5 2151.18 93
-4 5 -3 46589.8 1144.23 28
-4 3 -2 100188 1867.97 61
4 -3 2 89849.8 2409.35 56
4 -3 2 74842.6 2243.45 3
4 -3 2 83695.9 1873.41 53
-4 3 -2 117242 2627.6 50
4 -3 2 91692.4 2410.54 48
4 -3 2 71360.5 2147.94 11
4 -3 2 90005.2 1909.87 1
4 -3 2 102010 4393.93 109
-4 3 -2 103241 1737.06 10
4 -3 2 51531.8 2826.28 5
4 -3 2 70205.2 3168.47 105
-4 3 -2 101829 2381.59 7
-4 3 -2 105695 2534.39 108
4 -3 2 63411.8 2700.99 2
-4 3 -2 100901 2474.54 106
-4 1 -1 30505 1397.07 62
4 -1 1 32017.6 1343.08 1
4 -1 1 27537.9 1423.72 3
-4 1 -1 36979.3 1469.86 50
-4 1 -1 33695.7 1047.89 39
4 -1 1 32972.5 1845.84 5
-4 1 -1 34240.1 1428.38 108
-4 1 -1 32132.6 1023.15 106
4 -1 1 32105.1 1861.55 105
-4 1 -1 33144.7 1084.25 100
4 -1 1 33982.1 1535.31 98
4 -1 1 29434.2 1481.95 2
-4 1 -1 33187.9 1286.7 7
-4 1 -1 26813.7 1270.18 67
4 1 0 63790.3 2083.77 1
4 1 0 62842.9 2210.53 3
-4 -1 0 63035.2 1696.36 42
-4 -1 0 66387 1724.39 39
-4 -1 0 63804.6 1919.93 108
-4 -1 0 61943.8 1773.3 7
-4 -1 0 66689.5 1807.98 100
-4 -3 1 19511.6 1517.89 63
-4 -3 1 21160.4 1088.25 108
-4 -3 1 21131.3 810.317 31
4 3 -1 22258.1 1000.25 8
4 3 -1 25026.5 1051.11 18
-4 -3 1 21342.3 854.83 71
4 3 -1 27731.6 1558.17 3
-4 -3 1 23572.2 1209.78 42
4 3 -1 23058.3 1327.11 1
-4 -3 1 25039.3 1482.08 35
-4 -3 1 24077 1162.37 7
4 3 -1 23772.5 982.344 15
4 3 -1 23597.9 1132.97 24
4 3 -1 24954.4 1294.2 32
-4 -3 1 20250.4 1958.5 70
4 3 -1 23445.2 897.713 21
-4 -5 2 75628.1 3396.99 63
4 5 -2 75236.7 2068.03 8
-4 -5 2 82470.3 2556.64 44
4 5 -2 80623.7 2266.56 18
-4 -5 2 76340.8 2584.89 103
4 5 -2 79438.5 2105.13 15
-4 -5 2 71950.4 1836.29 90
4 5 -2 84493.9 2313.65 24
-4 -5 2 72549.4 4120.47 70
4 5 -2 76758 1847.5 21
-4 -7 3 3537.32 391.237 54
4 7 -3 3394.34 447.09 18
-4 -7 3 4194 421.111 115
4 7 -3 3399.95 446.955 15
-4 -7 3 4428.19 477.875 95
-4 -7 3 3387.94 344.745 90
4 7 -3 4336.75 464.232 14
-4 -7 3 3970.97 831.962 70
-4 10 -6 250.271 92.0971 19
-4 10 -6 314.14 73.4896 16
-4 10 -6 305.853 94.4756 17
4 -10 6 127.338 95.5929 27
-4 10 -6 237.595 111.45 10
4 -10 6 167.796 132.429 83
-4 8 -5 2289.18 372.113 14
-4 8 -5 2894.63 386.075 12
4 -8 5 2890.31 612.457 48
4 -8 5 2434.13 401.373 11
-4 8 -5 2812.3 350.236 17
4 -8 5 2557.23 446.315 111
-4 8 -5 2698.76 311.713 16
-4 8 -5 4146.07 611.361 106
-4 8 -5 2632.31 409.739 10
4 -8 5 2140.07 517.346 27
-4 8 -5 3429.72 388.929 9
-4 8 -5 3510.67 376.884 22
-4 6 -4 34707 1204.94 12
-4 6 -4 36065.7 1020.79 8
4 -6 4 27611.6 1733.99 48
4 -6 4 28980.1 1545.5 11
-4 6 -4 40962.1 1963.98 106
4 -6 4 33782.7 1895.49 34
-4 6 -4 34569.8 1205.57 17
4 -6 4 33715.1 1549.55 111
-4 6 -4 33795.3 1298.03 30
4 -6 4 18289.6 2030.93 5
-4 6 -4 33467.4 1256 10
4 -6 4 11086.9 1562.28 98
-4 6 -4 41975.1 1632.65 4
4 -6 4 29490.4 2121.95 2
-4 6 -4 34987.9 1136.58 9
-4 6 -4 25611.5 1209.63 14
4 -6 4 39000.1 2582.95 84
-4 6 -4 36606.6 1249.2 23
4 -6 4 17418.4 1357.85 27
-4 6 -4 36949 1307.78 22
-4 4 -3 21900.7 824.068 64
-4 4 -3 20336.5 683.286 8
-4 4 -3 23480.8 980.272 61
-4 4 -3 21686.9 809.552 12
-4 4 -3 20435 867.605 20
-4 4 -3 23711.6 1243.17 108
-4 4 -3 26730.3 1306.67 50
4 -4 3 17281.7 1183.42 48
4 -4 3 18502.3 996.785 3
4 -4 3 16626.9 1117.61 11
-4 4 -3 19024 765.86 17
-4 4 -3 19441.1 871.927 30
4 -4 3 18692.6 1936.75 109
4 -4 3 11495.1 1479.97 5
-4 4 -3 21743.3 1319.84 106
4 -4 3 15127.1 1481.68 105
-4 4 -3 22559.8 1219.39 7
4 -4 3 9922.53 1277.95 98
4 -4 3 17558.1 1539.42 2
-4 4 -3 22625 881.961 10
-4 4 -3 13215.3 809.456 14
-4 4 -3 20491.5 918.419 23
4 -4 3 22267.9 1737.34 93
-4 4 -3 20363.1 908.861 22
-4 4 -3 22489.4 788.769 9
-4 2 -2 109468 2616.47 62
4 -2 2 94946.7 1978.64 53
4 -2 2 81688 2405.93 3
-4 2 -2 94679.8 2514.72 50
4 -2 2 77905 2135.4 11
4 -2 2 84959.5 2093.96 1
4 -2 2 115332 4490.94 109
4 -2 2 79833.6 3278.95 5
-4 2 -2 91202.4 2524.55 108
-4 2 -2 83870.8 2107.04 106
4 -2 2 81495 3080.34 105
-4 2 -2 90831.9 2321.06 7
4 -2 2 73527 2779.45 98
4 -2 2 76976.5 2680.53 2
-4 2 -2 99195.2 2427.91 67
-4 0 -1 198906 3588.5 50
4 0 1 185320 3784.16 3
4 0 1 195102 3571.74 1
-4 0 -1 191793 2880.64 39
4 0 1 197225 4440.51 105
-4 0 -1 189136 3230.41 7
-4 0 -1 192018 3020.11 100
-4 0 -1 186276 3470.61 108
4 0 1 207408 3522.86 2
-4 0 -1 189497 4697.61 70
4 2 0 39714.8 1825.06 3
4 2 0 41941.7 1272.2 18
-4 -2 0 38730.5 1494.26 42
4 2 0 38052.8 1681.77 1
4 2 0 38210.6 1472.76 32
-4 -2 0 38379.1 1476.92 7
-4 -2 0 41063 1630.38 100
4 2 0 38770.6 1200.6 15
-4 -2 0 36214.4 1496.39 108
4 2 0 39863.6 1136.58 21
-4 -4 1 2390.7 560.618 63
4 4 -1 2518.13 369.796 8
-4 -4 1 2623.72 444.831 44
4 4 -1 2924.46 406.592 18
-4 -4 1 2863.87 547.834 35
4 4 -1 2823.6 469.505 32
4 4 -1 2833.7 365.04 15
-4 -4 1 2635.67 299.471 31
4 4 -1 2296.81 348.608 24
-4 -4 1 2385.23 299.021 71
-4 -4 1 2004.25 734.102 70
4 4 -1 2748.74 332.036 21
-4 -6 2 20810.1 987.169 54
4 6 -2 17965.3 1065.1 18
-4 -6 2 19695.4 1259.13 44
-4 -6 2 17901 939.37 115
4 6 -2 18295.5 1057.86 15
-4 -6 2 16287.6 829.313 90
4 6 -2 18347.2 987.994 24
-4 -6 2 17272.1 1952.02 70
-4 -8 3 2471.17 287.333 95
4 8 -3 1705.64 260.86 15
4 8 -3 1902.06 193.694 88
4 8 -3 2574.26 270.797 14
-4 -8 3 1861.8 214.078 115
-4 9 -6 1585.86 257.441 12
-4 9 -6 1565.08 232.841 17
-4 9 -6 1293.59 259.498 10
4 -9 6 1391.07 331.421 27
-4 9 -6 1354.28 222.964 9
4 -9 6 1032.46 297.17 83
4 -7 5 20883.9 1280.93 111
-4 7 -5 19036.6 963.65 12
-4 7 -5 19415.5 801.792 8
4 -7 5 16609.5 1422.14 48
4 -7 5 16445 1076.36 11
-4 7 -5 19549.2 930.837 17
-4 7 -5 19317.3 1011.72 30
4 -7 5 14610.4 1832.62 5
-4 7 -5 17499.7 982.278 10
-4 7 -5 23567.2 1491.75 106
4 -7 5 13864 1211.96 27
4 -7 5 11416.3 1613.08 98
-4 7 -5 19506.9 915.671 9
-4 7 -5 13926.6 899.134 14
-4 7 -5 20972.5 909.415 23
-4 7 -5 21887.2 999.208 22
-4 5 -4 11533.8 648.95 64
-4 5 -4 13266.1 598.503 8
-4 5 -4 11165.4 636.168 12
-4 5 -4 11340.1 671.307 20
4 -5 4 9289.22 969.886 48
4 -5 4 9406.29 890.783 11
-4 5 -4 11026.2 650.904 17
4 -5 4 11259.9 861.504 111
-4 5 -4 10720.6 717.738 30
4 -5 4 9517.83 1149.03 2
-4 5 -4 11385.5 696.914 10
-4 5 -4 12300.9 1084.27 106
4 -5 4 7933 842.085 27
-4 5 -4 12150.4 953.291 7
4 -5 4 6352.19 1114.05 98
-4 5 -4 11636.1 625.265 9
4 -5 4 7946.11 910.215 83
4 -5 4 7666.52 1269.93 5
-4 5 -4 11049.2 716.108 23
-4 5 -4 10991.3 717.358 22
-4 3 -3 10745.9 593.771 10
-4 3 -3 9610.28 633.149 61
4 -3 3 10175 729.89 53
-4 3 -3 10848.3 893.778 50
4 -3 3 10160 813.875 3
4 -3 3 9241.89 787.891 11
-4 3 -3 10035.2 603.691 30
4 -3 3 12198 1473.39 109
-4 3 -3 10388.1 890.742 108
4 -3 3 8075.29 1080.76 98
-4 3 -3 9995.91 848.21 106
4 -3 3 8759.24 985.083 105
-4 3 -3 10958.8 883.496 7
4 -3 3 9024.86 1208.98 5
4 -3 3 8913.72 990.431 2
4 -3 3 10864.8 986.895 83
-4 3 -3 10400.4 647.959 23
-4 3 -3 9498.6 622.376 22
-4 1 -2 11925.5 919.94 62
4 -1 2 14535.3 1153.6 105
-4 1 -2 14672.3 1044.32 50
4 -1 2 14071.5 1026.54 3
4 -1 2 12653.3 746.526 11
-4 1 -2 13865.1 798.834 39
4 -1 2 14384.9 952.038 1
-4 1 -2 14190.4 820.186 106
-4 1 -2 14986.7 977.314 7
-4 1 -2 15203.4 865.868 100
4 -1 2 17318.1 1153.91 98
4 -1 2 15785.8 1039.1 92
4 -1 2 18777.9 1156.12 83
-4 1 -2 12901 656.634 23
4 -1 2 19211.7 1170.61 112
-4 1 -2 14095.2 1040.22 108
4 -1 2 13186 1022.52 2
4 -1 2 16505.4 1410.17 5
-4 1 -2 10779 866.488 67
-4 -1 -1 23975.7 866.038 20
-4 -1 -1 31996.1 1532.03 50
4 1 1 27539.3 1487.21 3
4 1 1 30986.3 1061.91 18
-4 -1 -1 29330.5 1284.55 39
4 1 1 29049.9 1480.52 1
4 1 1 24061 1066.61 32
-4 -1 -1 28994.2 1463.8 108
4 1 1 32027.8 1916.42 105
-4 -1 -1 28299.4 1324.79 7
-4 -1 -1 30199 1359.05 100
4 1 1 27970.7 1030.63 15
4 1 1 39620.1 1677.29 83
-4 -1 -1 24281.9 1893.03 70
4 1 1 29094.6 981.094 21
4 3 0 24776.9 1097.64 18
-4 -3 0 23468.6 1287.82 42
4 3 0 25675.3 1615.01 3
-4 -3 0 22296.4 1493.21 35
4 3 0 21996.6 1208.74 32
-4 -3 0 23488 1244.36 108
-4 -3 0 21637.5 1155.54 7
4 3 0 21321.2 964.521 15
-4 -3 0 18766 817.354 31
-4 -3 0 20103.5 884.477 71
-4 -3 0 20184.7 2110.43 70
4 3 0 22719.7 930.305 21
-4 -5 1 29362.3 2040.17 63
4 5 -1 31012.1 1420.75 18
-4 -5 1 29707.6 1581.14 44
4 5 -1 30150 1280.45 15
-4 -5 1 23531.9 1030.02 90
4 5 -1 26788.6 1134.54 24
4 5 -1 29425.3 1122.9 21
-4 -5 1 28996.7 2678.38 70
-4 -7 2 160.296 68.4313 90
-4 -7 2 236.26 115.194 95
4 7 -2 313.501 129.203 15
-4 -7 2 276.361 96.5433 115
4 7 -2 317.04 117.415 14
-4 10 -7 1534.11 176.654 19
-4 10 -7 2060.43 202.514 17
4 -10 7 1487.13 230.623 27
-4 8 -6 4552.13 457.148 12
4 -8 6 3651.74 516.178 53
4 -8 6 3996.69 686.276 48
4 -8 6 3908.7 440.904 11
-4 8 -6 4457.46 417.463 17
-4 8 -6 4637.96 466.864 30
-4 8 -6 5864.9 695.079 106
-4 8 -6 4824.36 511.026 10
4 -8 6 3712.65 563.957 27
-4 8 -6 4593.38 432.813 9
4 -8 6 3748.36 578.273 83
-4 8 -6 4938.36 428.919 22
-4 6 -5 93303.8 1700.07 8
-4 6 -5 86214.6 1951.46 12
4 -6 5 72414.5 2317.26 53
4 -6 5 76567.8 2984.3 48
4 -6 5 81499.1 2421.19 11
-4 6 -5 82505.7 1996.98 10
-4 6 -5 86985.7 1917.26 17
-4 6 -5 89068.7 2200.51 30
-4 6 -5 83600.6 1834.57 64
-4 6 -5 100122 3129.5 106
4 -6 5 67943.4 2472.18 27
4 -6 5 57212.7 3452.25 98
-4 6 -5 108025 2692.46 4
-4 6 -5 88015.5 1861.18 9
4 -6 5 71054.5 3887.23 5
4 -6 5 67976.5 2719.15 83
-4 6 -5 90954.5 2051.59 23
4 -6 5 83192 3400.96 2
-4 6 -5 90556.5 2075.02 22
-4 4 -4 65988.6 1542.25 64
-4 4 -4 66147.2 1336.82 8
-4 4 -4 71042.7 1801.19 61
-4 4 -4 68903.8 1544.88 12
4 -4 4 58292.6 1904.44 53
-4 4 -4 75564.9 2394.34 50
4 -4 4 64497.3 2514.05 48
4 -4 4 61384.5 2102.88 11
-4 4 -4 61634.6 1471.94 17
-4 4 -4 68726.4 1622.58 10
-4 4 -4 64705.4 1723.9 30
4 -4 4 79464 3674.38 109
4 -4 4 58122.9 3304.2 5
-4 4 -4 66737.3 2287.54 108
-4 4 -4 68540.4 2478.64 106
4 -4 4 55573.8 1939.61 27
-4 4 -4 75656.2 2545.35 7
4 -4 4 49273.8 2809.37 98
4 -4 4 62111.2 2487.97 83
4 -4 4 64828.5 2913.9 2
-4 4 -4 63599.2 1748.89 23
-4 4 -4 63955.6 1753.68 22
4 -4 4 53307.2 1480.64 21
-4 2 -3 4736.08 568.386 62
4 -2 3 4259.3 474.224 53
-4 2 -3 3725.69 560.74 50
4 -2 3 3666.3 523.78 3
4 -2 3 2963.85 395.473 11
4 -2 3 4132.56 754.667 5
-4 2 -3 4312.58 613.353 108
-4 2 -3 4045.14 533.579 106
4 -2 3 3968.51 584.436 105
-4 2 -3 4237.55 577.703 7
4 -2 3 4545.46 686.526 98
4 -2 3 3165.7 476.793 92
4 -2 3 4653.08 617.77 83
-4 2 -3 3527.22 381.047 23
4 -2 3 3290.53 561.793 2
4 -2 3 4885.35 595.224 112
-4 2 -3 3517.41 366.693 22
4 -2 3 3570.05 374.762 21
-4 2 -3 4415.15 536.311 67
4 0 2 56256.5 2018.55 2
-4 0 -2 32828.6 1692.07 62
-4 0 -2 47023.5 2033.49 108
-4 0 -2 52021.4 2081.15 50
4 0 2 49885.6 2033.96 3
-4 0 -2 49171.4 1689.7 39
4 0 2 52401.5 2254.68 105
-4 0 -2 57943 2700 70
-4 0 -2 51739.3 1926.62 7
-4 0 -2 48784.2 1767.36 100
4 0 2 43432.4 1341.74 15
4 0 2 67583.1 2259.73 83
-4 0 -2 44653.7 1255.26 23
4 0 2 50902.3 1364.9 21
4 2 1 11093.1 696.024 18
-4 -2 -1 9738.9 828.11 42
4 2 1 10995.8 1011.99 3
-4 -2 -1 10884.8 876.554 39
4 2 1 9918.59 728.249 32
4 2 1 8245.89 497.616 113
-4 -2 -1 9977.68 819.182 7
-4 -2 -1 10694.8 913.594 100
4 2 1 10311.5 658.75 15
-4 -2 -1 9707.35 884.457 108
-4 -2 -1 9012.02 1309.27 70
4 2 1 10332.4 623.966 21
-4 -4 0 1043.18 296.92 42
4 4 0 1086.8 247.665 18
-4 -4 0 1055.78 359.942 35
4 4 0 1372.81 257.532 15
-4 -4 0 850.071 173.013 31
-4 -4 0 805.297 176.09 71
-4 -4 0 1284.45 589.466 70
4 4 0 1019.27 208.425 21
-4 -6 1 3534.55 394.02 54
4 6 -1 3133.54 407.347 15
-4 -6 1 2381.63 295.607 90
4 6 -1 3534.29 403.228 14
4 6 -1 3157.83 342.901 21
-4 -6 1 2504.8 743.425 70
-4 -8 2 3219.36 281.357 95
-4 9 -7 5281.61 429.208 12
-4 9 -7 5944.41 401.739 17
4 -9 7 4847.77 481.838 27
-4 9 -7 5322.93 400.733 9
-4 9 -7 5741.81 490.181 10
-4 7 -6 37621.2 1322.44 12
-4 7 -6 37857.6 1101.84 8
4 -7 6 31285.5 1514.06 53
4 -7 6 34925.7 2033.3 48
-4 7 -6 37899.5 1254.02 9
4 -7 6 36961.9 1506.13 11
-4 7 -6 37668.7 1251.63 17
-4 7 -6 35822.6 1363.75 10
-4 7 -6 39804.7 1436.71 30
-4 7 -6 43913.8 1987.63 106
4 -7 6 30376 1557.74 27
4 -7 6 33086.2 1747.61 83
-4 7 -6 38982.7 1246.74 23
-4 7 -6 39545.5 1304.82 22
-4 5 -5 125374 2231.85 64
-4 5 -5 126754 1944.62 8
-4 5 -5 120680 2227.03 12
-4 5 -5 120981 2279.25 20
4 -5 5 99763.3 2668.73 53
4 -5 5 114558 3597.64 48
4 -5 5 119664 2971.98 11
-4 5 -5 124887 2263.89 17
-4 5 -5 126848 2609.61 30
4 -5 5 107555 4577.85 5
-4 5 -5 121742 2351.5 10
-4 5 -5 129397 3656.21 106
4 -5 5 110002 2933.21 27
-4 5 -5 129301 3424.47 7
4 -5 5 97550.4 4230.88 98
-4 5 -5 124192 2132.75 9
4 -5 5 109782 3319.36 83
-4 5 -5 122741 2496.19 23
4 -5 5 126195 4183.6 2
-4 5 -5 120887 2473.12 22
4 -5 5 107321 2225.61 21
-4 3 -4 34898.6 1290.63 61
4 -3 4 40743.1 1606.35 53
-4 3 -4 41933.4 1947.63 50
4 -3 4 36701.3 1519.23 11
4 -3 4 47376.9 1803.32 3
-4 3 -4 37644.7 1265.33 30
4 -3 4 36075.6 1635.61 112
-4 3 -4 40408.1 1950.53 106
4 -3 4 36128.9 1364.25 27
-4 3 -4 43824.4 2065.74 7
4 -3 4 39094.6 2344.43 98
-4 3 -4 41001.1 1984.24 108
-4 3 -4 39611.6 1223.99 10
4 -3 4 44142.1 1987.87 83
4 -3 4 41715 2583.05 5
-4 3 -4 37376.6 1361.89 23
4 -3 4 37194.1 2004.64 2
-4 3 -4 39001.8 1367.72 22
4 -3 4 35066.1 1241.04 21
4 -1 3 363.016 119.944 21
-4 1 -3 386.264 149.271 62
-4 1 -3 495.612 242.145 50
4 -1 3 303.709 113.108 11
4 -1 3 203.233 120.277 91
4 -1 3 521.185 188.891 2
4 -1 3 558.445 212.341 105
4 -1 3 347.605 190.413 3
4 -1 3 520.534 175.617 98
-4 1 -3 549.762 222.92 7
-4 1 -3 391.412 201.742 108
4 -1 3 485.65 203.916 83
-4 1 -3 486.254 143.115 23
-4 1 -3 309.32 116.398 22
-4 1 -3 285.554 154.089 67
-4 -1 -2 18556.5 852.903 20
-4 -1 -2 24178.8 1484.76 50
4 1 2 26811.8 1050.93 18
4 1 2 24077.3 1497.7 3
-4 -1 -2 23621.9 1296.89 39
4 1 2 19169 793.698 113
-4 -1 -2 22160.5 1436.58 108
-4 -1 -2 23625.3 1360.55 7
-4 -1 -2 23729.8 1364.19 100
4 1 2 22224.1 994.842 15
-4 -1 -2 20718.2 1808.11 70
4 1 2 24470.3 996.246 21
-4 -3 -1 13179.9 1025.12 108
-4 -3 -1 13202.5 1039.12 42
-4 -3 -1 12719.1 1202.44 35
4 3 1 13160.5 788.153 15
-4 -3 -1 12232.9 733.335 71
-4 -3 -1 12600.2 1683.86 70
4 3 1 13415.7 748.634 21
-4 -5 0 1461.66 348.695 44
4 5 0 1722.44 304.524 15
-4 -5 0 1096.47 211.584 90
-4 -5 0 955.833 454.572 70
4 5 0 1553.85 246.135 21
4 7 -1 5414.04 479.588 15
-4 -7 1 4134.92 342.908 115
-4 -7 1 4486.87 762.095 70
4 7 -1 4118.33 314.832 14
-4 8 -7 7031.55 537.31 12
4 -8 7 7377.58 662.777 53
4 -8 7 6757.78 519.176 11
-4 8 -7 7118.74 478.911 17
-4 8 -7 6663.01 549.39 10
4 -8 7 6456.77 590.315 27
-4 8 -7 6598.72 481.317 9
4 -8 7 5747.28 567.55 83
-4 8 -7 8061.43 496.171 22
-4 6 -6 11088.9 663.558 64
-4 6 -6 12090 607.185 8
-4 6 -6 11724.9 660.999 20
-4 6 -6 11190.9 710.089 12
4 -6 6 10904.7 899.087 53
4 -6 6 11272.8 861.652 11
-4 6 -6 11545.6 691.305 17
-4 6 -6 11556.5 803.965 30
-4 6 -6 11016.9 722.464 10
-4 6 -6 12585 1121.54 106
4 -6 6 9685.5 829.434 27
-4 6 -6 12011.8 683.361 9
4 -6 6 10740.1 992.718 83
-4 6 -6 10821.9 725.763 23
-4 6 -6 11782.7 747.411 22
-4 4 -5 60527.8 1566.12 64
-4 4 -5 61311.8 1362.82 8
-4 4 -5 65805.5 1792.64 61
-4 4 -5 64547.5 1608.63 12
4 -4 5 59979.7 2080.16 53
-4 4 -5 70353.7 2540.65 50
4 -4 5 59527.1 1999.48 11
-4 4 -5 66469.2 1582.23 17
-4 4 -5 63825.1 1812.8 30
-4 4 -5 66660.9 2557.24 108
-4 4 -5 70894 2816.65 106
4 -4 5 57393 1863.22 27
-4 4 -5 70467.8 2775.23 7
4 -4 5 56565.3 2910.62 98
4 -4 5 66760.3 3462.36 5
-4 4 -5 64649.8 1647.38 10
-4 4 -5 63661.7 1535.61 9
4 -4 5 63265.2 2437.69 83
-4 4 -5 60882.3 1827.47 23
-4 4 -5 58940.9 1780.06 22
4 -4 5 61774.8 2797.74 2
4 -4 5 55724.7 1658.39 21
-4 2 -4 35736.5 1945.33 50
4 -2 4 30373.5 1262.57 11
4 -2 4 42791.7 2599.04 5
-4 2 -4 33241.9 1158.39 10
-4 2 -4 36454.9 2008.65 108
-4 2 -4 35663.1 1792 106
-4 2 -4 40079.1 2024.89 7
4 -2 4 44575.8 2362.36 98
4 -2 4 31603.5 1432.9 91
4 -2 4 44665.3 1928.02 83
-4 2 -4 33828.8 1313.76 23
-4 2 -4 31284.5 1214.84 22
4 -2 4 34935.1 1861.23 2
4 -2 4 33809.2 1246.82 21
-4 2 -4 41976.9 1719.66 67
-4 0 -3 11140.3 1024.66 62
-4 0 -3 17370.9 1352.33 50
4 0 3 15574.1 835.299 11
-4 0 -3 17022.9 1134.11 39
4 0 3 18380.4 1348.26 3
-4 0 -3 16718.3 1172.16 100
4 0 3 16295.3 898.99 15
4 0 3 23291.7 1438.7 83
-4 0 -3 14947.5 1287.64 108
-4 0 -3 14723.8 788.637 23
-4 0 -3 17324.2 1253.46 7
4 0 3 17711.6 882.635 21
-4 0 -3 8872.56 918.769 67
4 2 2 1134.47 203.338 113
-4 -2 -2 941.035 298.544 108
-4 -2 -2 1371.15 334.427 42
-4 -2 -2 1608.35 392.257 100
-4 -2 -2 1341.47 333.01 39
-4 -2 -2 1401.95 335.279 7
4 2 2 1513.39 269.687 15
-4 -2 -2 1010.65 454.468 70
4 2 2 1392.11 238.264 21
-4 -4 -1 20317.4 1298.79 42
-4 -4 -1 18474 809.815 31
4 4 1 21145.6 1031.25 15
-4 -4 -1 18294.9 848.485 71
-4 -4 -1 16408.9 1881.35 70
4 4 1 20310 908.788 21
4 6 0 4247.44 450.931 15
-4 -6 0 2242.62 255.086 90
4 6 0 3894.07 341.623 21
-4 -6 0 2869.06 662.212 70
-4 9 -8 11046.2 452.144 17
4 -9 8 10141.5 509.006 27
-4 7 -7 21652.7 946.871 12
-4 7 -7 21302.9 764.246 8
4 -7 7 21567.9 1156.65 53
4 -7 7 20381.3 986.376 11
-4 7 -7 22659.1 890.692 17
-4 7 -7 23380.9 1045.87 30
-4 7 -7 21731 983.728 10
4 -7 7 19140.8 1012.27 27
-4 7 -7 21829.8 886.726 9
4 -7 7 20082 1102.81 83
-4 7 -7 21286.1 866.062 23
-4 7 -7 23249.1 936.183 22
-4 5 -6 14347.9 771.88 64
-4 5 -6 16231.8 699.636 8
-4 5 -6 16155.9 841.256 12
-4 5 -6 14303.3 798.103 20
4 -5 6 15254.6 1056.93 53
4 -5 6 15631.2 1003.19 11
-4 5 -6 16856.8 830.673 17
-4 5 -6 16233.1 947.531 30
-4 5 -6 15691.9 849.486 10
-4 5 -6 16942.2 1361.25 106
4 -5 6 14311.7 953.892 27
-4 5 -6 16381.6 809.779 9
4 -5 6 15688.5 1147.34 83
-4 5 -6 15256.2 921.592 23
-4 5 -6 15559 902.608 22
4 -5 6 14387.1 832.431 21
-4 3 -5 2974.66 392.265 61
-4 3 -5 3238.78 600.1 50
4 -3 5 2683.24 395.51 11
4 -3 5 3820.47 806.553 5
-4 3 -5 2725 347.269 30
-4 3 -5 3121.89 635.643 108
-4 3 -5 3520.48 625.529 106
4 -3 5 3446.98 414.181 27
-4 3 -5 3832.69 663.627 7
4 -3 5 3611 711.477 98
4 -3 5 2703.14 442.526 91
4 -3 5 3789.83 572.943 83
-4 3 -5 3434.55 384.519 10
-4 3 -5 3108.17 427.951 23
-4 3 -5 3046.58 408.962 22
4 -3 5 2831.22 376.697 21
4 -3 5 3087.33 564.196 2
-4 1 -4 58547.4 2174.93 62
-4 1 -4 51556.1 2455.97 50
4 -1 4 46775.9 1494.46 11
-4 1 -4 50888.2 2032.87 39
-4 1 -4 53469.6 2587.27 108
-4 1 -4 55466.5 2430.09 7
-4 1 -4 51108.7 2131.59 100
4 -1 4 56939.3 1913.31 91
-4 1 -4 46805.3 1537.44 23
-4 1 -4 46286.7 1450.95 22
4 -1 4 52240.7 1581.34 21
-4 1 -4 46937.9 1941.05 67
-4 -1 -3 13816 1258.09 62
-4 -1 -3 18203.7 912.421 20
-4 -1 -3 23704.2 1606.27 50
-4 -1 -3 22363.7 1376.67 39
4 1 3 21276.9 1037.21 15
-4 -1 -3 21040 1379.09 7
-4 -1 -3 22458.1 1450.29 100
-4 -1 -3 21638.5 1549.46 108
4 1 3 17719.6 829.254 113
4 1 3 21013.8 983.05 21
-4 -1 -3 10982.9 1097.14 67
-4 -3 -2 70564.4 2440.54 42
-4 -3 -2 67237.3 2373.42 108
4 3 2 71964.3 1879.23 15
4 3 2 68755.6 1698.01 21
4 5 1 6897.28 564.01 15
-4 -5 -1 3584.92 352.759 90
-4 -5 -1 3688.03 779.055 70
4 5 1 6773.33 483.489 21
-4 -7 0 1336.99 182.581 95
4 7 0 1341.21 150.598 88
-4 8 -8 9549.15 539.958 12
-4 8 -8 10084.1 477.676 17
-4 8 -8 10025.5 572.984 10
4 -8 8 8869.86 530.694 27
-4 8 -8 9420.44 492.723 9
-4 8 -8 10964.4 486.384 22
-4 6 -7 10220.5 605.833 64
-4 6 -7 11008.7 594.397 20
-4 6 -7 10817.1 542.63 8
-4 6 -7 11346.2 692.334 12
4 -6 7 11206.2 847.751 53
4 -6 7 11096.8 769.043 11
-4 6 -7 11983.9 656.501 17
-4 6 -7 12235.3 767.495 30
-4 6 -7 11124.5 701.116 10
-4 6 -7 12570.7 1080.47 106
4 -6 7 9944.77 713.78 27
-4 6 -7 11886.4 666.29 9
4 -6 7 10941.7 822.058 83
-4 6 -7 11549.9 718.79 23
-4 6 -7 11687.3 710.153 22
4 -6 7 10237.1 635.406 21
-4 4 -6 48908.9 1451.15 64
-4 4 -6 48267.1 1244.68 8
-4 4 -6 50423.3 1593.23 61
-4 4 -6 53061.3 1514.94 12
-4 4 -6 44689 1507.29 20
-4 4 -6 57341.3 2362.5 50
-4 4 -6 51226.4 1514.01 10
4 -4 6 46971.7 1688.46 11
-4 4 -6 48627.2 1528.62 30
-4 4 -6 48411.9 2205.93 108
4 -4 6 45875.9 1557.41 27
-4 4 -6 54647.8 2453.22 106
4 -4 6 39755.4 1683.1 91
-4 4 -6 51790.4 1417.91 9
4 -4 6 55604.9 2116.02 83
-4 4 -6 50551.5 1734.77 23
-4 4 -6 52323.7 1719.02 22
4 -4 6 45616.2 1516.52 21
-4 2 -5 11070.1 799.097 61
-4 2 -5 13299.1 1295.57 50
4 -2 5 10926 755.321 11
-4 2 -5 14010.8 1351.18 108
-4 2 -5 13025.8 762.094 10
-4 2 -5 13676.8 1280.67 7
4 -2 5 11780.7 705.704 27
4 -2 5 13935.2 992.485 91
4 -2 5 16020.2 1177.37 83
-4 2 -5 12213.6 834.612 23
-4 2 -5 11812.1 792.782 22
4 -2 5 11761.5 773.16 21
-4 0 -4 7259.21 817.371 62
-4 0 -4 7733.24 887.122 7
-4 0 -4 8293.14 1004.38 50
4 0 4 7465.24 573.677 11
-4 0 -4 6893.2 778.319 39
-4 0 -4 7582.37 995.63 108
-4 0 -4 6909.47 818.422 100
4 0 4 6967.17 609.072 15
-4 0 -4 6534.48 540.987 23
4 0 4 7343.37 592.556 21
-4 0 -4 6341.68 766.179 67
-4 -2 -3 26059.3 1744.06 62
-4 -2 -3 42838.9 2077.92 108
-4 -2 -3 45729.1 2000.41 42
-4 -2 -3 50322.5 2121.73 39
4 2 3 38304.1 1197.68 113
-4 -2 -3 49026.7 2206.04 100
4 2 3 45922.1 1506.77 15
4 2 3 44614.7 1394.04 21
-4 -2 -3 21939.6 1551.19 67
-4 -4 -2 706.96 296.694 62
4 4 2 1793.08 285.405 15
-4 -4 -2 1604.94 219.563 31
-4 -4 -2 1233.88 205.801 71
-4 -4 -2 690.564 363.648 70
4 4 2 1727.59 246.072 21
-4 -6 -1 2840.48 413.385 62
-4 -6 -1 3388.89 293.452 115
4 6 1 4213.85 362.062 15
4 6 1 4343.83 297.869 88
-4 -6 -1 2178.31 353.082 67
-4 7 -8 5314.03 419.18 12
-4 7 -8 4255.47 291.039 8
4 -7 8 5364.32 419.889 11
-4 7 -8 5485.19 362.439 17
-4 7 -8 5263.96 422.602 10
4 -7 8 4634.13 446.19 91
4 -7 8 4853.23 399.448 27
-4 7 -8 5484.08 399.177 9
-4 7 -8 5299.03 372.27 23
-4 7 -8 5701.08 405.028 22
-4 5 -7 10910.3 646.676 64
-4 5 -7 11659.3 576.262 8
-4 5 -7 11513.8 574.674 60
-4 5 -7 10590.7 646.819 12
-4 5 -7 10378.2 651.604 20
4 -5 7 10046.7 689.487 27
4 -5 7 10580.5 745.361 11
-4 5 -7 11031.2 705.7 30
-4 5 -7 11225.5 684.456 10
-4 5 -7 12039.3 1073.55 106
4 -5 7 10013.1 800.911 91
4 -5 7 12282 873.445 83
-4 5 -7 11485.6 767.429 23
-4 5 -7 12383.2 767.56 22
-4 5 -7 11127.3 637.158 9
4 -5 7 9644.99 638.93 21
-4 3 -6 74822.3 1992.05 61
-4 3 -6 77638.7 1792.87 12
-4 3 -6 76891.3 1809.47 10
-4 3 -6 85993.8 3176.23 50
4 -3 6 66677.8 1925.81 11
-4 3 -6 76695.6 3076.34 108
4 -3 6 71799.1 1841.85 27
-4 3 -6 73872.7 2742.77 106
4 -3 6 77676 2326.58 91
4 -3 6 87675.1 2582.66 83
-4 3 -6 74448.6 2104.88 23
-4 3 -6 72831 2011.15 22
4 -3 6 66285.2 1804.89 21
-4 1 -5 11378.5 754.843 23
-4 1 -5 13853 1328.51 50
4 -1 5 11518.4 755.173 11
-4 1 -5 10627.5 965.669 39
-4 1 -5 11527.6 714.405 10
-4 1 -5 13173.1 1339.15 108
-4 1 -5 10982.6 1029.6 100
4 -1 5 11144.9 786.209 15
-4 1 -5 11502.6 703.901 22
4 -1 5 10474.7 712.874 21
-4 1 -5 15490.5 1071.36 67
-4 -1 -4 23376.7 1486.82 62
-4 -1 -4 22319.8 1003 20
-4 -1 -4 30205.3 1831.96 50
4 1 4 23362.6 964.283 113
-4 -1 -4 26947.3 1744.51 108
4 1 4 28732.5 1207.77 15
4 1 4 27419.6 1107.03 21
-4 -1 -4 18183.4 1285.5 67
-4 -3 -3 14781.1 1205.83 62
-4 -3 -3 27003.8 1450.65 42
4 3 3 31385.4 1164.58 15
-4 -3 -3 22644.1 942.144 71
4 3 3 28553.6 1026.17 21
-4 -3 -3 12532.6 1078.35 67
-4 -5 -2 -11.4879 90.0611 62
4 5 2 -6.51912 24.7821 15
4 5 2 9.67932 32.4877 88
4 5 2 54.2753 38.2929 21
4 -6 8 172.899 58.9566 21
-4 6 -8 306.642 106.51 12
-4 6 -8 245.826 65.8839 8
4 -6 8 218.216 97.972 11
4 -6 8 132.767 61.5871 27
-4 6 -8 293 95.2066 10
4 -6 8 204.491 95.3512 91
-4 6 -8 192.561 83.2986 23
-4 6 -8 371.772 105.565 9
-4 6 -8 266.307 100.24 22
-4 4 -7 194.096 75.3555 64
4 -4 7 319.357 107.308 21
-4 4 -7 37.7467 41.0779 61
-4 4 -7 186.095 106.867 20
-4 4 -7 285.7 99.8745 12
-4 4 -7 136.343 59.7611 8
4 -4 7 411.872 135.051 27
-4 4 -7 243.3 99.8923 10
4 -4 7 182.467 106.218 91
4 -4 7 154.072 81.2986 83
-4 4 -7 224.892 116.21 23
-4 4 -7 260.731 102.717 9
4 -4 7 134.156 98.3688 11
-4 4 -7 246.62 111.669 22
-4 2 -6 3061.11 403.323 61
-4 2 -6 3603.89 374.017 12
-4 2 -6 4440.25 729.444 50
4 -2 6 3287.61 399.797 11
-4 2 -6 3368.62 659.808 108
4 -2 6 3365.71 352.927 27
4 -2 6 2920.02 394.875 15
-4 2 -6 3542.44 426.982 23
-4 2 -6 4054.35 404.287 10
-4 2 -6 3557.39 400.572 22
4 -2 6 3542 402.927 21
-4 0 -5 16151.4 884.594 20
-4 0 -5 22971.7 1607.45 50
-4 0 -5 19942 1520.38 108
4 0 5 20067.9 1002.18 15
4 0 5 17825.5 857.609 113
-4 0 -5 18239.1 862.39 10
-4 0 -5 17070.1 798.606 23
4 0 5 18904.8 916.25 21
-4 0 -5 23078.5 1292.56 67
-4 -2 -4 11312.7 926.395 62
4 2 4 14040.7 692.051 113
4 2 4 16196.4 823.999 15
-4 -2 -4 10717.3 951.338 108
4 2 4 14680.6 746.632 21
-4 -2 -4 8900.87 839.87 67
-4 -4 -3 592.311 182.494 62
4 4 3 1455.13 214.046 15
4 4 3 1462.85 199.321 21
-4 -4 -3 550.709 185.218 67
4 -5 8 166.357 71.4555 21
-4 5 -8 248.735 84.7733 64
-4 5 -8 375.002 107.336 9
-4 5 -8 251.252 89.0903 20
-4 5 -8 238.621 88.8292 12
-4 5 -8 374.129 92.4007 8
4 -5 8 287.993 107.601 11
4 -5 8 179.412 66.5704 27
-4 5 -8 227.607 79.2175 10
4 -5 8 348.148 126.933 91
-4 5 -8 234.395 92.1586 23
-4 5 -8 331.772 105.352 22
-4 3 -7 15554.9 765.759 64
-4 3 -7 15348.4 662.406 8
-4 3 -7 16067.3 819.178 61
-4 3 -7 16057 738.643 12
-4 3 -7 14462.3 820.352 20
4 -3 7 14180.6 777.908 11
-4 3 -7 15323.6 721.112 10
4 -3 7 14076 672.956 27
4 -3 7 11900.7 729.962 15
-4 3 -7 15936.2 720.999 9
-4 3 -7 14601.5 823.336 23
-4 3 -7 15820.9 807.683 22
4 -3 7 13258.6 721.113 21
-4 1 -6 42788.3 1460.75 61
-4 1 -6 40354.5 1381.58 20
-4 1 -6 55653.2 2447.01 50
4 -1 6 49122.2 1380.77 11
-4 1 -6 50050.3 1324.15 10
-4 1 -6 49397.9 2323.98 108
4 -1 6 48085.1 1468.13 15
4 -1 6 42809.7 1301.46 113
-4 1 -6 40257.2 1255.46 23
4 -1 6 46433 1390.49 21
-4 -1 -5 2827.21 311.328 20
4 1 5 2696.56 299.58 113
-4 -1 -5 2650.95 297.219 10
4 1 5 3311.72 362.643 15
4 1 5 2922.46 326.702 21
-4 -1 -5 2975.64 416.762 67
-4 -3 -4 9130.28 691.466 62
4 3 4 16649.3 693.992 15
-4 -3 -4 12119.5 548.653 31
-4 -3 -4 10838.8 545.972 71
4 3 4 14898.9 640.506 21
-4 -3 -4 9620.92 724.008 67
-4 6 -9 2064.17 189.132 22
-4 4 -8 17398.1 694.73 64
-4 4 -8 15889.5 585.971 60
-4 4 -8 18518.8 620.04 8
-4 4 -8 17482.6 685.669 12
-4 4 -8 16942.7 734.723 20
4 -4 8 17012.5 739.446 11
-4 4 -8 16798.4 656.648 10
4 -4 8 13825.8 538.192 27
4 -4 8 15210.9 689.661 15
-4 4 -8 18322.2 694.069 9
-4 4 -8 17733.6 773.813 23
-4 4 -8 18175.7 734.612 22
4 -4 8 16211.7 666.893 21
-4 2 -7 9106.47 548.872 64
-4 2 -7 9837.83 606.721 61
-4 2 -7 10025.8 536.806 12
-4 2 -7 8946.48 596.126 20
4 -2 7 9297.38 560.257 11
-4 2 -7 9452.61 518.199 10
4 -2 7 9191.02 575.964 15
-4 2 -7 9786.41 527.848 9
-4 2 -7 8328.78 537.43 23
-4 2 -7 8300.62 476.779 22
4 -2 7 8734.61 546.645 21
-4 0 -6 20547.8 910.047 61
-4 0 -6 20539.6 826.229 20
4 0 6 26519.9 935.894 15
4 0 6 23189 845.948 113
-4 0 -6 24383.1 824.055 10
4 0 6 24096 892.642 21
-4 -2 -5 3025.65 264.844 10
4 2 5 3977.38 310.752 15
-4 -2 -5 2898.58 285.473 71
4 2 5 3964.92 325.1 21
-4 3 -8 612.915 121.208 64
-4 3 -8 586.069 100.123 8
-4 3 -8 574.236 127.179 20
-4 3 -8 526.448 106.123 12
4 -3 8 542.552 116.671 11
4 -3 8 613.838 119.762 15
-4 3 -8 599.391 110.394 9
-4 3 -8 504.956 119.215 23
4 -3 8 506.917 107.039 113
-4 3 -8 337.913 78.9632 22
4 -3 8 530.147 110.643 21
-4 1 -7 9035.15 491.494 64
-4 1 -7 9575.94 532.259 61
-4 1 -7 9239.54 449.244 12
-4 1 -7 8273.49 485.135 20
4 -1 7 9086.14 482.982 113
4 -1 7 9316.78 480.732 15
-4 1 -7 9700.19 464.803 9
4 -1 7 8649.46 478.537 21
-4 -1 -6 901.46 161.538 61
4 1 6 1400.49 180.964 21
-4 2 -8 2659.99 228.702 20
4 -2 8 3371.29 236.801 113
4 -2 8 3292.08 242.142 21
4 0 7 2795.41 214.249 113
-4 0 -7 2582.69 225.689 71
4 0 7 2575.01 212.497 21
-5 2 10 1103.03 139.979 85
-5 5 8 9512.58 391.574 13
-5 3 9 527.158 113.659 85
-5 3 9 651.39 110.945 13
5 -1 -10 2674.23 276.639 58
5 -1 -10 2275.56 286.533 16
-5 1 10 6384.3 380.476 26
-5 1 10 5232.47 358.704 85
-5 1 10 5647.28 371.539 76
-5 -1 11 910.978 134.597 26
-5 -1 11 594.67 104.058 85
-5 -1 11 702.022 121.192 76
-5 6 7 18082.4 568.653 19
-5 6 7 16798.3 557.139 13
-5 4 8 598.485 122.176 19
-5 4 8 563.047 137.419 86
-5 4 8 423.374 104.307 85
-5 4 8 570.219 123.124 13
-5 2 9 4543.86 356.318 86
-5 2 9 4946.79 391.694 76
5 0 -10 209.034 82.6801 58
5 0 -10 -53.3609 61.8337 16
-5 0 10 386.325 102.312 26
-5 0 10 333.742 106.593 76
5 0 -10 104.175 65.8486 68
5 2 -11 3724.12 316.346 58
5 2 -11 2465.59 293.552 17
5 2 -11 3111.43 330.027 16
-5 -2 11 4151.8 311.401 26
-5 -2 11 2699.18 217.723 85
-5 -2 11 3182.76 273.52 76
5 2 -11 2859.07 278.976 68
-5 7 6 10548.5 438.939 19
-5 7 6 9704.03 419.074 13
-5 5 7 4835.09 383.091 19
-5 5 7 4152.83 370.508 86
-5 5 7 3875.89 342.746 13
-5 3 8 1401.96 205.327 19
-5 3 8 1158.37 207.259 86
-5 3 8 1609.13 240.179 26
-5 3 8 1420.09 209.611 81
-5 3 8 1482.59 241.854 76
-5 3 8 1159.05 192.049 13
-5 1 9 8921.83 557.076 26
-5 1 9 7379.28 462.518 86
-5 1 9 8146.7 571.034 78
-5 1 9 7591.34 518.927 76
5 1 -10 400.434 127.342 58
5 1 -10 330.36 143.115 16
-5 -1 10 478.155 133.513 26
-5 -1 10 427.065 122.156 78
-5 -1 10 281.794 88.527 76
5 1 -10 378.608 122.22 68
5 3 -11 2187.84 244.269 58
-5 -3 11 2663.28 260.889 26
-5 -3 11 2488.57 251.76 29
5 3 -11 1504.07 226.866 17
5 3 -11 2141.31 247.276 68
5 3 -11 2204.1 281.104 16
-5 8 5 6382.27 317.402 19
-5 6 6 534.512 136.722 19
-5 6 6 542.411 139.461 28
-5 6 6 533.713 142.329 86
-5 6 6 613.07 146.728 74
-5 6 6 491.973 133.51 13
-5 4 7 1397.58 186.101 89
-5 4 7 1155.62 201.182 19
5 -4 -7 823.232 460.01 51
-5 4 7 754.054 177.628 28
-5 4 7 1054.7 207.415 86
-5 4 7 973.189 173.921 81
-5 4 7 954.345 191.998 13
-5 2 8 12137.5 665.999 28
-5 2 8 13629.6 652.343 19
5 -2 -8 11077.2 1684.6 51
5 -2 -8 7343.96 1299.65 45
5 -2 -8 6541.39 1222.8 107
-5 2 8 15642.3 790.007 26
-5 2 8 11865.8 673.728 86
-5 2 8 12889 705.385 81
-5 2 8 12099.2 735.326 78
-5 2 8 13024.3 738.317 76
-5 2 8 11917.1 625.233 13
5 0 -9 3586.03 402.325 58
5 0 -9 3100.35 724.953 46
5 0 -9 1902.87 635.277 106
-5 0 9 4339.49 417.346 26
-5 0 9 3756.69 393.845 81
-5 0 9 3582.63 394.615 78
-5 0 9 3268.13 354.019 76
5 0 -9 2807.59 349.948 68
5 2 -10 8237.3 577.32 58
5 2 -10 6593.9 681.684 16
-5 -2 10 8952.39 589.322 26
5 2 -10 7466.26 599.938 80
-5 -2 10 7373.78 482.543 78
-5 -2 10 7827.53 565.33 77
5 2 -10 7588.84 552.996 68
-5 -4 11 121.727 63.4105 29
5 4 -11 117.622 69.0173 16
-5 -4 11 134.791 60.4248 26
5 4 -11 72.6865 46.97 17
5 4 -11 86.6657 50.012 80
-5 -4 11 105.521 60.9603 77
5 4 -11 121.768 60.1159 68
-5 7 5 1834.26 236.482 19
-5 7 5 1989.22 253.165 86
-5 7 5 2131.18 257.217 74
-5 7 5 1609.35 225.925 13
-5 5 6 14562.8 792.502 28
-5 5 6 16048.5 799.673 19
5 -5 -6 8322.54 1480.01 45
5 -5 -6 7723.11 1430.93 107
-5 5 6 14718.1 797.372 86
-5 5 6 14826.5 700.489 85
-5 5 6 17494.7 847.724 74
-5 5 6 13474.5 729.029 13
-5 3 7 23538.1 937.057 19
5 -3 -7 20291.7 2374.09 51
5 -3 -7 17099.1 2102.06 45
-5 3 7 21134.1 943.726 28
5 -3 -7 15388.2 1998.54 107
-5 3 7 29190.3 1110.8 26
-5 3 7 21120.1 964.907 86
-5 3 7 22540.4 932.188 81
-5 3 7 22414.8 1010.92 78
-5 3 7 25292.5 1093.02 76
-5 3 7 20305.9 884.181 13
5 -1 -8 3952.12 1049.22 51
5 -1 -8 2383.89 742.154 107
-5 1 8 4231.29 427.75 26
5 -1 -8 3011 813.969 102
-5 1 8 2959.26 329.707 86
-5 1 8 3039.55 324.865 28
-5 1 8 3844.47 405.376 81
-5 1 8 3307.16 397.809 78
-5 1 8 3515.63 388.087 76
5 -1 -8 2304.84 319.321 68
5 1 -9 11094.1 735.709 58
5 1 -9 8344.83 1191.15 46
5 1 -9 7659.64 1267.49 107
5 1 -9 6076.25 1136.73 106
-5 -1 9 11211 707.515 26
-5 -1 9 11642.3 720.212 81
5 1 -9 8237.36 748.188 80
-5 -1 9 9509.47 635.773 78
-5 -1 9 10665.7 707.827 77
5 1 -9 9167.54 665.2 68
5 3 -10 9933.36 638.967 58
5 3 -10 8937.54 778.604 16
-5 -3 10 10253.3 652.847 26
5 3 -10 9439.42 697.208 80
-5 -3 10 8379.8 486.049 78
-5 -3 10 9485.43 631.416 77
5 3 -10 9364.72 628.693 68
5 5 -11 2118.15 239.937 16
-5 -5 11 2348.15 230.731 26
-5 -5 11 2288.47 236.498 29
5 5 -11 2023.37 214.907 80
-5 -5 11 2096.36 218.619 77
-5 8 4 666.354 136.622 19
-5 8 4 975.987 166.093 74
-5 8 4 780.104 141.15 13
-5 6 5 3370.76 371.048 19
-5 6 5 3480.5 387.014 86
-5 6 5 3476.8 388.625 28
-5 6 5 4349.16 427.969 74
-5 6 5 3553.34 381.425 13
5 -4 -6 3362.8 957.414 107
-5 4 6 5199.03 460.613 19
5 -4 -6 4251.12 1080.27 45
5 -4 -6 2499.09 802.932 40
5 -4 -6 2752.87 907.432 104
-5 4 6 6047.78 491.004 26
-5 4 6 5780.45 398.899 89
-5 4 6 4339.83 447.617 86
-5 4 6 4221.41 443.084 28
-5 4 6 4837.79 463.765 78
-5 4 6 5924.13 525.542 76
-5 4 6 5314.53 480.428 74
-5 4 6 4076.43 412.949 13
-5 2 7 34349.5 1173.6 28
5 -2 -7 37090.8 2101.43 6
-5 2 7 41508.8 1214.32 19
5 -2 -7 38525.9 3294.27 51
5 -2 -7 31209 2884.92 45
5 -2 -7 30240.2 2806.49 107
-5 2 7 34464.9 1210.83 86
-5 2 7 49030.1 1470.06 26
5 -2 -7 42841.6 2951.13 102
-5 2 7 35048.4 1708.22 99
-5 2 7 39346.4 1276.88 81
-5 2 7 38874.9 1369.19 78
-5 2 7 41893.3 1378.96 76
-5 2 7 33365.6 1088.13 13
5 0 -8 5925.04 1315.13 51
5 0 -8 6469.15 1206.3 102
-5 0 8 8158.26 622.305 26
-5 0 8 6074.65 544.767 96
-5 0 8 5574.57 432.295 86
5 0 -8 5645.86 1181.14 107
-5 0 8 7965.39 595.421 81
-5 0 8 7019.63 585.891 78
-5 0 8 6687.88 575.848 77
5 0 -8 5427.19 513.626 68
5 2 -9 7393.12 606.06 58
5 2 -9 5617.91 965.542 46
5 2 -9 5917.53 1078.71 107
5 2 -9 4187.37 627.327 16
5 2 -9 2993.58 837.027 106
-5 -2 9 7881.45 640.858 26
5 2 -9 7090.67 573.679 25
5 2 -9 6153.7 684.787 80
-5 -2 9 6530.4 515.87 78
-5 -2 9 6817.94 579.438 77
-5 -2 9 6707.2 556.267 96
5 2 -9 6567.35 584.644 68
5 4 -10 1223.27 235.804 65
5 4 -10 1170.02 210.232 58
5 4 -10 862.958 198.605 17
5 4 -10 1388.73 295.019 16
-5 -4 10 1320.06 237.118 26
-5 -4 10 1123.28 189.156 96
5 4 -10 1185.56 199.32 25
5 4 -10 923.524 221.499 80
-5 -4 10 1229.32 228.096 77
5 4 -10 1205.61 226.489 68
-5 9 3 1775.34 198.103 19
-5 9 3 1982.67 210.83 74
-5 7 4 7518.84 558.426 28
-5 7 4 7252.24 530.712 19
5 -7 -4 3599.49 900.214 52
5 -7 -4 2262.03 788.297 109
-5 7 4 8184.82 614.978 88
-5 7 4 8150.67 565.766 86
-5 7 4 9191.14 606.394 74
-5 7 4 6746.38 507.033 13
-5 5 5 9244.34 635.026 19
5 -5 -5 7668.61 1407.49 40
-5 5 5 9977.81 688 28
5 -5 -5 6784.48 1468.75 104
-5 5 5 9189.85 659.502 88
-5 5 5 8949.46 652.1 86
-5 5 5 10760.1 686.702 74
-5 5 5 8796.53 616.974 13
-5 3 6 59613.6 1688.74 20
5 -3 -6 60462.2 2613.87 6
-5 3 6 55765.3 1549.59 28
-5 3 6 59937.7 1489.38 19
5 -3 -6 67149.6 4236.54 45
5 -3 -6 45612.1 3309.52 40
5 -3 -6 55387.8 3855.23 107
5 -3 -6 47680 3771.32 104
-5 3 6 76356.8 1740.64 26
-5 3 6 57703.4 2236.33 99
-5 3 6 62819.1 1713.73 78
-5 3 6 74666.3 1820.8 76
-5 3 6 63462.5 1623.65 74
-5 3 6 51694.1 1413.88 13
5 -1 -7 2959.06 601.287 6
-5 1 7 3405.19 402.814 20
5 -1 -7 2934.64 932.979 51
5 -1 -7 3040.33 898.899 45
5 -1 -7 3987.44 787.828 33
5 -1 -7 3404.83 958.049 107
-5 1 7 4081.47 428.145 26
5 -1 -7 3271.22 783.159 102
-5 1 7 3079.35 471.527 99
5 -1 -7 3830.68 863.813 97
-5 1 7 3217.12 398.849 96
-5 1 7 2912.71 339.044 87
-5 1 7 3399.92 380.187 81
-5 1 7 3485.45 414.612 78
-5 1 7 3911.1 450.343 77
5 -1 -7 2881.44 358.417 68
-5 1 7 2767.04 315.345 28
5 1 -8 38493.7 1431.25 58
5 1 -8 29920.5 2698.23 107
5 1 -8 28443.6 2515.77 102
-5 -1 8 39411.3 1438.8 26
-5 -1 8 32513.7 1260.91 96
5 1 -8 32517.6 1337.75 25
-5 -1 8 37077.4 1333.02 81
-5 -1 8 33634.1 1264.92 78
-5 -1 8 32911 1281.47 77
5 1 -8 32568.6 1315.82 68
5 1 -8 35734.9 2198.92 6
5 3 -9 6383.54 565.476 58
5 3 -9 4810.18 964.754 107
5 3 -9 4468.88 637.398 16
-5 -3 9 6212.88 586.022 26
-5 -3 9 5785.35 509.016 96
5 3 -9 5647.16 536.285 25
5 3 -9 5374.91 639.511 80
-5 -3 9 5816.74 464.23 78
-5 -3 9 5723.17 539.054 77
5 3 -9 6630.9 594.017 68
-5 -5 10 1207.61 192.966 110
5 5 -10 1139.89 228.267 16
-5 -5 10 1369.82 227.408 26
-5 -5 10 1051.22 166.449 96
5 5 -10 1391.57 215.328 25
5 5 -10 1372.6 245.26 80
-5 -5 10 1203.15 209.646 77
-5 8 3 6928.18 499.679 28
-5 8 3 6390.74 470.339 19
-5 8 3 7131.89 547.512 88
-5 8 3 6966.28 491.614 13
5 -6 -4 27271 2521.23 52
-5 6 4 34254.9 1229.63 19
5 -6 -4 26162.5 2598.46 40
5 -6 -4 35141 3306.8 104
-5 6 4 34358.4 1311.7 88
5 -6 -4 25352.7 2694.02 109
-5 6 4 34582.8 1289.18 28
5 -6 -4 20330.8 2141.72 105
-5 6 4 33524.9 1242.17 86
-5 6 4 35503.9 1082.69 82
-5 6 4 38969.1 1305.6 74
-5 6 4 31594.2 1180.22 13
-5 4 5 74138.1 1851 20
5 -4 -5 77580.9 2914.18 6
-5 4 5 75144.5 1703.38 19
5 -4 -5 64988.8 3883.16 40
-5 4 5 97575.5 2723.35 36
-5 4 5 70058.9 1803.27 28
5 -4 -5 68009.5 4388.63 104
-5 4 5 92938.7 1815.31 26
-5 4 5 71506.1 2530.82 99
-5 4 5 86911.6 1553.91 89
-5 4 5 67925.4 1803.92 87
-5 4 5 78141.1 1725.06 82
-5 4 5 77735.1 1841.73 78
-5 4 5 91302.1 1914.84 76
-5 4 5 75818.1 1748.63 74
-5 4 5 66387.1 1651.75 13
-5 2 6 35734.4 1301.28 20
5 -2 -6 37064.1 2022.68 6
-5 2 6 34452.8 1081.43 19
5 -2 -6 42048.5 3298.12 45
5 -2 -6 27034.2 2518.72 40
5 -2 -6 35689.5 3038.36 107
5 -2 -6 27824.9 2826.06 104
-5 2 6 44656.2 1332.91 26
-5 2 6 34374.3 1641.3 99
-5 2 6 34814 1228.32 87
-5 2 6 32103.9 1118.71 28
-5 2 6 40121.3 1378.95 78
-5 2 6 38510.9 1235.73 74
-5 2 6 30279.6 1016.26 13
5 0 -7 53731.3 2592.16 6
-5 0 7 48612.7 1499.68 20
5 0 -7 53027.9 3846.23 51
5 0 -7 45448.3 3506.52 45
-5 0 7 48379 1508.79 96
5 0 -7 47395 2643.86 33
5 0 -7 38939.3 3165.42 107
5 0 -7 58985.2 3376.92 102
-5 0 7 59969.1 1697.89 26
-5 0 7 43507.5 1688.55 99
5 0 -7 49192.2 3001.39 97
5 0 -7 48781.4 1620.62 25
-5 0 7 46695.4 1282.62 87
-5 0 7 54462.7 1524.27 81
-5 0 7 52997.6 1600.66 77
5 0 -7 50458 2121.36 72
5 0 -7 49004.1 1551.09 68
5 2 -8 15329.4 907.809 58
5 2 -8 12577.2 1707.58 107
5 2 -8 13763.3 1488.19 46
-5 -2 8 15483.7 936.194 26
-5 -2 8 13480.3 810.046 96
5 2 -8 14919.6 949.484 25
-5 -2 8 15743.5 851.808 81
-5 -2 8 13761.7 837.728 77
5 2 -8 15359.3 929.056 68
5 2 -8 15984.3 1493.52 6
5 4 -9 4785.65 475.226 58
5 4 -9 4880.17 873.582 107
5 4 -9 4589.35 581.81 16
-5 -4 9 5691.33 566.129 26
-5 -4 9 4583.51 439.815 96
5 4 -9 5645.39 533.719 25
5 4 -9 3080.91 397.363 17
5 4 -9 5235.75 598.69 80
-5 -4 9 5321.97 515.905 77
5 4 -9 4883.64 500.545 68
-5 -6 10 2136.1 233.82 110
-5 -6 10 2719.4 284.427 26
5 6 -10 3288.75 323.359 16
5 6 -10 2780.36 273.749 25
5 6 -10 3131.04 320.139 80
-5 -6 10 2738.89 278.564 77
5 -9 -2 2533.59 463.65 59
5 -9 -2 4634.77 761.067 57
-5 9 2 5207.3 393.662 19
5 -9 -2 2154.13 478.362 84
-5 9 2 5688.93 389.274 13
5 -7 -3 4202.62 1059.43 52
-5 7 3 5389.69 489.878 19
5 -7 -3 3806.68 1127.57 109
-5 7 3 6278.29 555.139 88
5 -7 -3 3903.17 974.485 105
-5 7 3 5664 480.96 86
-5 7 3 5434.5 485.93 13
-5 7 3 5836.15 518.766 28
-5 5 4 28337.6 1087.09 20
-5 5 4 26135.8 1116.78 28
5 -5 -4 24568.2 2309.14 52
-5 5 4 26396.8 1053.94 19
5 -5 -4 27643 2515.13 40
-5 5 4 32204.2 1566.76 36
5 -5 -4 24793.2 2613.93 109
5 -5 -4 20610.2 2071.68 105
5 -5 -4 32785.4 3041.63 104
-5 5 4 25883.1 1520.15 99
-5 5 4 26068 1112.28 88
-5 5 4 27844.2 1035.02 82
-5 5 4 26229.3 1044.34 22
-5 5 4 28622.1 1080.25 75
-5 5 4 25448.4 1045.39 13
-5 3 5 73622 1830.01 20
-5 3 5 65248.7 1472.85 19
5 -3 -5 71301.5 3978.07 40
-5 3 5 67578.4 1662.55 28
5 -3 -5 73193.6 4431.41 104
-5 3 5 84506.4 1672.83 26
-5 3 5 72204.1 2402.65 99
-5 3 5 72337.1 1788.16 87
-5 3 5 72235 1641.47 82
-5 3 5 68107.8 1643.47 22
-5 3 5 79284.3 1872.15 78
-5 3 5 83744.8 1779.14 76
-5 3 5 72455 1631.9 74
-5 3 5 63592.1 1512.09 13
5 -1 -6 14212.2 1244.29 6
-5 1 6 12519.6 744.263 20
5 -1 -6 13323.7 1883.26 51
5 -1 -6 14073.2 1892.08 45
-5 1 6 10879.8 599.292 28
5 -1 -6 9671.37 1568.7 107
-5 1 6 15054.7 793.888 26
-5 1 6 12511.8 926.962 99
-5 1 6 12433.8 752.075 96
-5 1 6 12750.7 726.768 94
-5 1 6 12387.1 690.459 87
-5 1 6 14974.4 834.357 77
5 -1 -6 11989.4 711.095 68
5 1 -7 12045.6 1234.04 6
-5 -1 7 10780.5 686.093 20
5 1 -7 13709.7 837.156 58
5 1 -7 9733.51 1695.78 51
-5 -1 7 11496.5 903.754 47
5 1 -7 9080.87 1112.58 33
5 1 -7 7685.33 1327.27 107
5 1 -7 10736.6 1408.77 102
-5 -1 7 13805.3 844.328 26
5 1 -7 7887.84 1157.91 97
-5 -1 7 11002.2 710.144 96
-5 -1 7 11584.2 716.71 94
5 1 -7 11162.7 809.068 25
-5 -1 7 11299.9 688.362 114
-5 -1 7 12773.3 738.641 81
-5 -1 7 11744.9 743.853 77
5 1 -7 12036.9 1069.92 72
5 1 -7 11604.8 775.247 68
5 3 -8 18880 1090.09 25
5 3 -8 20171 1042.84 58
-5 -3 8 20312.3 1359.48 47
5 3 -8 16918.6 1835.5 107
5 3 -8 12375.6 1074.29 16
-5 -3 8 22158.2 1151.21 26
-5 -3 8 18131.7 943.978 96
-5 -3 8 17131.1 859.762 94
5 3 -8 17093.9 1189.35 80
-5 -3 8 19324.3 871.493 73
5 3 -8 20754.4 1099.04 68
5 5 -9 30539.9 1344.21 16
-5 -5 9 32223 1271.35 26
-5 -5 9 28551.2 1018.46 96
5 5 -9 29991.2 1171.15 25
5 5 -9 31636.3 1344.97 80
-5 -5 9 27554.6 983.623 73
5 7 -10 5300.21 343.051 80
-5 -7 10 3889.55 267.596 77
-5 10 1 4703.17 326.432 19
5 -10 -1 1919.81 409.656 84
-5 8 2 1904.88 276.022 28
5 -8 -2 1590.78 394.527 56
-5 8 2 2032.12 287.082 19
5 -8 -2 1542.24 624.586 52
5 -8 -2 1411.15 725.762 109
-5 8 2 2121.68 306.463 88
-5 8 2 2352.09 365.175 14
-5 8 2 2266.78 301.758 13
-5 6 3 15025.7 855.678 28
5 -6 -3 14543.9 1908.99 52
-5 6 3 13662.3 781.445 19
-5 6 3 17938.2 1202.69 36
-5 6 3 16186.3 816.635 17
5 -6 -3 12836.5 2029.42 109
5 -6 -3 11426.1 1681.83 105
-5 6 3 13756.6 1101.14 99
-5 6 3 14670.9 855.117 88
-5 6 3 15365.2 754.714 82
-5 6 3 14906.9 770.001 22
-5 6 3 15954.9 792.017 75
-5 6 3 14262.8 799.201 13
-5 4 4 10149.4 661.58 20
5 -4 -4 8324.62 1283.36 52
-5 4 4 8183.49 543.667 19
5 -4 -4 10650.3 1478.87 40
-5 4 4 11022.4 828.491 36
5 -4 -4 7947.53 1385.12 109
-5 4 4 9318.59 633.857 28
5 -4 -4 7343.12 1212.57 105
5 -4 -4 12873.7 1790.86 104
-5 4 4 10217.5 904.734 99
-5 4 4 12298.8 573.604 89
-5 4 4 8993.45 638.178 88
-5 4 4 10729.7 697.17 87
-5 4 4 10073.2 614.076 23
-5 4 4 9765.02 604.297 82
-5 4 4 10286.7 643.225 78
-5 4 4 9577.16 616.745 22
-5 4 4 9099.17 562.382 74
-5 4 4 8729.79 576.452 13
-5 2 5 55511.7 1530.66 20
5 -2 -5 60363.6 2397.01 6
5 -2 -5 41102.7 2952.11 40
-5 2 5 50826.2 1334.94 28
5 -2 -5 44165.3 3346.82 104
-5 2 5 51304.2 1851.31 99
-5 2 5 61682.1 1642.53 96
-5 2 5 54641 1432.65 94
5 -2 -5 53525.7 3565.18 107
-5 2 5 53404.2 1446.79 87
-5 2 5 53928.4 1449.57 23
-5 2 5 53870.6 1366.91 82
-5 2 5 51846.4 1373.75 22
-5 2 5 64036.9 1638.86 77
-5 2 5 53973.5 1375.18 74
-5 2 5 46928.9 1189.74 13
5 0 -6 18656.1 1422.28 6
-5 0 6 18015.7 859.837 20
5 0 -6 21483.2 991.5 58
-5 0 6 19755.3 847.701 114
5 0 -6 18969.8 2159.58 51
-5 0 6 19277.5 1068.59 47
5 0 -6 15933.5 1982.46 45
-5 0 6 17923.6 778.158 87
5 0 -6 12884.9 1732.74 107
5 0 -6 20515.1 1795.45 102
-5 0 6 20716.1 975.024 26
-5 0 6 17363.7 1006.77 99
-5 0 6 18371 869.12 96
-5 0 6 19030 876.282 94
-5 0 6 18124.7 847.029 23
-5 0 6 21371.9 965.548 77
5 0 -6 17266.9 1251.36 72
5 0 -6 19598.4 944.41 68
-5 -2 7 68463.7 1691.64 20
5 2 -7 79454.8 2027.67 58
-5 -2 7 71680.7 2371.99 47
5 2 -7 71541.5 3133.68 46
-5 -2 7 69162.1 1700.09 114
5 2 -7 57989.3 3600.65 107
5 2 -7 57978.7 3083.12 106
5 2 -7 52497.8 3018.56 102
-5 -2 7 85787.5 2235.35 26
-5 -2 7 70973.8 1748.65 94
5 2 -7 72411.7 2124.28 25
-5 -2 7 72354.8 1755 81
-5 -2 7 75235.8 1631.54 73
5 2 -7 76475 2048.2 68
5 2 -7 75419.7 3072.6 6
5 4 -8 3436.49 421.118 58
-5 -4 8 3923.89 598.326 47
5 4 -8 3173.37 450.011 18
5 4 -8 3841.76 836.298 107
5 4 -8 2806.59 482.478 16
-5 -4 8 4349.96 529.376 26
-5 -4 8 3408.13 369.256 94
5 4 -8 3810.87 482.025 25
5 4 -8 4066.25 431.38 24
5 4 -8 3180.85 489.714 80
-5 -4 8 3930.09 405 73
5 4 -8 3530.11 444.555 68
5 6 -9 4155.86 466.786 18
5 6 -9 5265.46 462.974 16
-5 -6 9 5353.27 474.918 26
-5 -6 9 4844.89 369.011 96
5 6 -9 5777 467.739 25
5 6 -9 6031 519.85 80
-5 -6 9 5134.93 401.11 73
5 -9 -1 1648.82 422.988 59
5 -9 -1 2683.51 648.487 57
-5 9 1 1887.44 260.398 19
5 -9 -1 1059.09 531.772 52
5 -9 -1 1206.15 608.067 109
-5 9 1 2187.88 345.18 14
5 -9 -1 1470.52 456.893 84
-5 9 1 2187.62 264.861 13
5 -7 -2 2736.51 858.883 52
-5 7 2 1763.24 284.271 19
5 -7 -2 710.43 348.02 43
-5 7 2 2138.64 299.166 17
5 -7 -2 1633.76 715.196 109
5 -7 -2 1830.2 737.183 105
-5 7 2 2117.32 315.655 28
-5 7 2 2071.27 323.743 88
-5 7 2 1668.73 246.932 86
-5 7 2 1830.95 345.151 14
-5 7 2 2144.07 271.24 82
-5 7 2 1991.61 281.811 22
-5 7 2 2056.28 303.76 13
-5 5 3 32088.2 1128.16 20
5 -5 -3 33189.3 2754.42 52
-5 5 3 30182.5 1107.17 19
-5 5 3 35873.3 1509.3 36
-5 5 3 32405.9 1116.94 17
5 -5 -3 35041.9 3119.2 109
-5 5 3 31149.8 1176.97 28
5 -5 -3 27346.3 2426.91 105
-5 5 3 31651.4 1611.29 99
-5 5 3 30438.5 1193.44 88
-5 5 3 31814.8 1204.87 87
-5 5 3 26773.4 1201.9 14
-5 5 3 31774.7 1123.62 22
-5 5 3 31146 1087.72 75
-5 5 3 30416.6 1102.21 13
5 -3 -4 7472.54 1367.37 104
-5 3 4 7440.42 537.356 20
5 -3 -4 6643.71 1085.9 52
-5 3 4 4800.21 375.294 19
5 -3 -4 6930.42 1179.13 40
-5 3 4 7838.53 637.389 36
5 -3 -4 6358.49 1176.28 109
-5 3 4 5766.2 458.418 28
5 -3 -4 4752.26 944.9 105
-5 3 4 6431.23 652.976 99
-5 3 4 6712.41 513.457 87
-5 3 4 6728.2 492.892 23
-5 3 4 6010.77 454.822 82
-5 3 4 5950.02 460.656 22
-5 3 4 5499.9 416.848 74
-5 3 4 5788.89 437.307 13
-5 1 5 89025.9 1837.75 20
5 -1 -5 90085.3 2894.13 6
5 -1 -5 94249.4 1933.19 58
5 -1 -5 98973.9 4690.64 51
5 -1 -5 86117.2 4423.44 45
-5 1 5 73774.2 1488.67 28
5 -1 -5 75879.5 4136.84 107
5 -1 -5 56178.4 3796.57 104
-5 1 5 82912.1 2155.47 99
-5 1 5 91673.5 1900.57 96
-5 1 5 86601.1 1749.44 94
-5 1 5 87063.2 1644.1 114
-5 1 5 84523.5 1756.25 23
-5 1 5 87747.2 1703.52 82
-5 1 5 83637.7 1663.01 22
-5 1 5 102486 2045.16 77
-5 1 5 85109.1 1652.57 74
5 -1 -5 85732.1 1827.36 68
5 1 -6 3831.16 646.722 6
-5 -1 6 3797.25 386.003 20
5 1 -6 3910.69 420.043 58
-5 -1 6 3597.04 365.534 114
5 1 -6 4218.76 1040.55 51
-5 -1 6 3433.13 466.102 47
5 1 -6 2963.58 546.072 33
5 1 -6 3635.82 727.348 102
-5 -1 6 4000.6 437.653 26
-5 -1 6 4306.95 461.695 99
5 1 -6 3065.22 632.82 97
-5 -1 6 3590.56 376.101 94
5 1 -6 3711.76 420.902 24
-5 -1 6 3576.09 374.88 23
-5 -1 6 3671.49 369.662 81
5 1 -6 3342.24 864.556 107
5 1 -6 4321.28 630.496 72
5 1 -6 4001.99 440.73 68
5 3 -7 4756.41 493.851 58
-5 -3 7 5544.24 687.431 47
5 3 -7 4512 517.781 18
5 3 -7 4390.59 923.334 107
5 3 -7 2948.96 518.026 16
-5 -3 7 6154.49 635.63 26
-5 -3 7 5225.61 467.228 94
5 3 -7 4902.23 563.279 25
5 3 -7 5923.53 563.285 24
-5 -3 7 4945.92 439.408 81
5 3 -7 4425.38 605.623 80
-5 -3 7 4639.55 447.919 114
-5 -3 7 5247.31 453.306 73
5 3 -7 5128.23 803.14 6
5 3 -7 5044.81 524.145 68
-5 -5 8 6959.6 777.119 47
5 5 -8 6109.28 639.76 18
5 5 -8 8536.85 1097.27 107
5 5 -8 7683.78 707.595 16
-5 -5 8 8872.38 748.114 26
5 5 -8 7398.9 638.758 25
5 5 -8 8252.18 625.057 24
5 5 -8 8287.16 740.089 80
-5 -5 8 7875.93 563.676 73
5 7 -9 1607.12 258.651 18
5 7 -9 2118.67 221.076 16
-5 -7 9 2065.02 239.221 26
5 7 -9 1891.87 225.174 25
5 7 -9 2650.77 281.296 80
5 -10 0 742.428 298.202 57
-5 10 0 893.953 161.451 19
5 -10 0 191.371 230.116 84
-5 10 0 615.436 174.809 14
5 -8 -1 7408.56 906.573 56
5 -8 -1 8326.68 1519.85 52
-5 8 1 7028.78 561.94 19
-5 8 1 8588.37 572.41 17
5 -8 -1 8040.28 1647.64 109
5 -8 -1 6275.15 1258.21 105
-5 8 1 8217.36 612.393 88
-5 8 1 7645.54 710.327 14
-5 8 1 8245.03 580.345 28
-5 8 1 8881.86 614.723 13
5 -6 -2 23845.7 2522.43 52
-5 6 2 21732.2 980.703 19
-5 6 2 26700.6 1369.99 36
-5 6 2 25132 1027.21 17
5 -6 -2 24351.4 2830.45 109
-5 6 2 23523.7 1047.61 28
5 -6 -2 20838.5 2284.05 105
-5 6 2 26525.1 1141.69 88
-5 6 2 23024.1 993.179 87
-5 6 2 21140.8 1129.32 14
-5 6 2 21903.6 1321.26 99
-5 6 2 23460.4 960.205 22
-5 6 2 22870.3 973.332 13
5 -6 -2 23620.6 1476.36 66
5 -4 -3 78494.5 1866.62 65
-5 4 3 79274.9 1695.97 20
5 -4 -3 80578.9 4070.47 52
-5 4 3 65843.5 1488.01 19
-5 4 3 80901.4 1977.9 36
-5 4 3 74617.5 1571.5 17
5 -4 -3 80463.1 4475.66 109
-5 4 3 73014.4 1654.07 28
5 -4 -3 65683.5 3515.89 105
-5 4 3 76348.3 2284.55 99
-5 4 3 71004.3 1747.32 88
-5 4 3 80070.4 1791.69 87
-5 4 3 61068.9 1758.05 14
-5 4 3 78280.1 1619.81 23
-5 4 3 76244.9 1672.15 22
-5 4 3 73466.7 1581.06 13
-5 2 4 11244.5 625.291 20
5 -2 -4 9778.55 571.381 58
5 -2 -4 9865.91 1356.06 40
-5 2 4 9787.71 716.765 99
-5 2 4 10550.6 560.627 28
5 -2 -4 12038.6 1567.78 107
5 -2 -4 6707.69 1065.78 105
5 -2 -4 10748.8 1567.06 104
-5 2 4 10797.8 575.545 94
-5 2 4 11126.4 803.207 108
-5 2 4 11568.7 622.996 23
-5 2 4 10422.6 565.975 82
5 -2 -4 6538.91 1104.2 109
-5 2 4 11825.2 675.098 96
-5 2 4 10945.2 591.988 22
-5 2 4 11158.5 574.688 74
-5 2 4 9769.74 513.045 13
-5 0 5 141183 2215.24 20
5 0 -5 147984 3666.19 6
5 0 -5 150292 2409.83 58
5 0 -5 147794 5573.57 51
-5 0 5 135251 2532.68 47
5 0 -5 138640 5409.99 45
-5 0 5 145994 2133.09 114
-5 0 5 149834 3043.92 108
-5 0 5 139416 2554.09 99
-5 0 5 142761 2183.35 94
5 0 -5 143686 2605.95 24
-5 0 5 139560 2225.24 23
-5 0 5 140631 2125.84 82
-5 0 5 137896 2086.14 22
5 0 -5 152661 2487.94 68
-5 -2 6 1114.79 218.867 20
5 2 -6 1471.55 257.749 58
-5 -2 6 1051.63 274.686 47
5 2 -6 1395.3 262.307 18
5 2 -6 1003.76 333.378 6
-5 -2 6 1536.97 241.086 94
-5 -2 6 1777.23 257.799 114
5 2 -6 709.277 397.479 107
-5 -2 6 1745.62 310.288 26
5 2 -6 1587.31 306.955 25
5 2 -6 1523.61 285.659 24
-5 -2 6 962.012 185.459 81
-5 -2 6 1397.78 214.298 73
5 2 -6 1646.97 404.226 72
5 2 -6 1551.97 278.357 68
-5 -4 7 5848.22 716.479 47
5 4 -7 4864.16 575.711 18
-5 -4 7 5450.61 486.532 114
5 4 -7 5844.22 1029.61 107
5 4 -7 4816.97 628.182 16
-5 -4 7 5944.74 666.295 26
-5 -4 7 5548.65 474.203 94
5 4 -7 5191.07 574.6 25
5 4 -7 6046.63 586.109 24
5 4 -7 5027.37 623.558 80
-5 -4 7 6055.7 505.572 73
5 4 -7 4368.66 718.518 6
5 6 -8 11817.3 685.317 8
5 6 -8 10246.5 806.249 18
-5 -6 8 13004.7 815.629 26
5 6 -8 12208.3 741.406 25
5 6 -8 12707.6 741.988 24
5 6 -8 13281.6 770.662 16
5 6 -8 13451.4 832.038 80
-5 -6 8 11612.7 655.452 73
5 -9 0 971.314 379.702 59
5 -9 0 1693.85 556.24 57
5 -9 0 734.766 234.653 56
5 -9 0 972.828 490.321 52
-5 9 0 1248.69 229.221 19
-5 9 0 1229.22 204.855 17
5 -9 0 1168.75 686.975 109
5 -9 0 689.731 316.134 84
-5 9 0 971.037 243.421 14
-5 9 0 953.147 177.508 13
5 -7 -1 8815.11 1602.15 52
-5 7 1 6795.48 566.066 19
-5 7 1 7850.23 794.774 36
-5 7 1 9060.78 628.002 17
5 -7 -1 5628.4 854.289 34
5 -7 -1 8723.62 1778.18 109
-5 7 1 8254.04 624.632 28
5 -7 -1 8017.59 1461.42 105
-5 7 1 7394.08 610.886 88
-5 7 1 7685.22 711.876 14
-5 7 1 8192.37 554.038 22
-5 7 1 10051.6 688.901 16
-5 7 1 7957.86 594.14 13
5 -7 -1 6246.71 748.577 66
5 -5 -2 10507.6 1589.08 52
-5 5 2 10572.9 641.301 19
-5 5 2 10402.3 738.174 36
-5 5 2 9836.73 609.691 17
5 -5 -2 11698.5 1854.42 109
-5 5 2 9817.99 623.62 28
5 -5 -2 9293.38 1424.88 105
-5 5 2 10831.3 870.056 99
-5 5 2 9534.74 652.615 88
-5 5 2 10815 667.833 87
-5 5 2 8343.45 677.1 14
-5 5 2 10241.7 615.744 22
-5 5 2 10017.7 594.23 13
-5 3 3 16129.4 720.03 20
5 -3 -3 12562.9 1503.69 52
5 -3 -3 17434.1 1721.46 40
-5 3 3 17882.1 840.604 36
-5 3 3 14269.1 650.921 28
-5 3 3 15095.5 651.806 17
5 -3 -3 12248.3 1635.02 109
-5 3 3 16366 906.457 108
5 -3 -3 11336.3 1463.25 105
5 -3 -3 20595.9 2056.86 104
-5 3 3 15080.6 883.698 99
-5 3 3 15717 705.722 23
-5 3 3 15569.1 710.395 22
-5 3 3 15736.6 667.498 13
-5 1 4 10869.7 588.056 20
5 -1 -4 10782.5 598.644 58
5 -1 -4 13206.9 1606.31 45
5 -1 -4 8208.39 1189.15 40
5 -1 -4 11416.6 1348.58 109
-5 1 4 11008.8 765.774 108
5 -1 -4 10778.5 1464.04 107
5 -1 -4 8191.57 1088.47 105
5 -1 -4 8174.88 1359.82 104
-5 1 4 10259.3 668.698 99
-5 1 4 10802.9 551.568 94
-5 1 4 10705.1 583.946 23
-5 1 4 10557.2 554.597 82
5 -1 -4 10521 599.791 68
5 1 -5 20695.8 1367.48 6
-5 -1 5 21203.6 846.153 20
5 1 -5 21144.8 912.627 58
5 1 -5 27782.8 2475.34 51
-5 -1 5 20292.5 1030.8 47
5 1 -5 22643.1 930.215 18
5 1 -5 20102.6 2019.95 107
5 1 -5 19438.8 1478.05 102
-5 -1 5 22539.5 1149.11 108
-5 -1 5 21524.3 947.248 99
-5 -1 5 21775.2 846.797 94
5 1 -5 23857.1 1088.45 24
-5 -1 5 22019.4 890.21 23
5 1 -5 25104.9 1482.28 72
5 1 -5 22743.3 977.918 68
5 3 -6 54949 1700.65 65
5 3 -6 38871.8 1374.11 58
-5 -3 6 45187.5 1869.51 47
5 3 -6 43552.6 1586.12 18
5 3 -6 48346.1 1595.76 32
5 3 -6 45570.3 2956.61 107
5 3 -6 34104.9 1690.55 16
-5 -3 6 48941.8 1816.39 26
-5 -3 6 44076.6 1286.38 94
5 3 -6 42902.2 1640.34 25
-5 -3 6 46920.4 1544.83 95
5 3 -6 46898.6 1649.83 24
5 3 -6 37063 1707.69 80
-5 -3 6 45356.7 1340.6 114
5 3 -6 43835 2209.27 6
5 3 -6 41651.9 1457.54 68
5 5 -7 52769.7 1574 8
-5 -5 7 51901.6 2116.89 47
5 5 -7 44555.1 1776.17 18
-5 -5 7 50648.6 1443.52 114
5 5 -7 61419.5 3036.64 107
5 5 -7 53780.7 1827.14 16
-5 -5 7 53067.3 1920.05 26
5 5 -7 50693.3 1718.39 25
-5 -5 7 49916.9 1345.3 94
5 5 -7 56359.2 1784.87 24
5 5 -7 54660.9 1950.9 80
5 5 -7 49075.9 1605.53 9
-5 -5 7 51842.4 1494.47 73
5 7 -8 3561.56 435.037 18
5 7 -8 4774.44 345.003 16
-5 -7 8 4218.59 398.861 26
5 7 -8 4778.99 390.279 25
5 7 -8 4597.73 401.79 24
-5 -7 8 4521.99 365.629 73
5 -10 1 872.312 306.582 57
-5 10 -1 901.666 176.528 19
-5 10 -1 1099.08 174.297 17
-5 10 -1 900.256 216.118 14
5 -10 1 1172.7 435.177 84
5 -8 0 13206.8 1357.91 59
5 -8 0 12130.7 1194.12 56
5 -8 0 11571.6 1854.2 52
-5 8 0 11549.8 732.436 19
-5 8 0 13156.6 748.169 17
5 -8 0 12335.3 2152.71 109
-5 8 0 13272.9 805.922 16
5 -8 0 12239.3 1846.21 105
-5 8 0 11938.9 686.594 28
-5 8 0 11490.7 715.125 88
-5 8 0 10471.6 855.741 14
5 -8 0 10807.8 1476.14 84
-5 8 0 12878.5 741.557 13
5 -6 -1 6299.97 1297.85 52
-5 6 1 4745.03 449.224 19
5 -6 -1 2751.57 639.582 43
-5 6 1 5725.06 600.101 36
-5 6 1 5574.23 485.238 17
5 -6 -1 4540.79 711.585 34
5 -6 -1 6209.77 1449.58 109
-5 6 1 5139.43 453.314 16
-5 6 1 5461.03 486.139 28
5 -6 -1 5378.3 1159.5 105
-5 6 1 5296.47 600.734 99
-5 6 1 4821.34 477.403 88
-5 6 1 5379.04 457.778 87
-5 6 1 4396.71 516.417 14
-5 6 1 5244.61 443.952 22
-5 6 1 5554.35 458.774 13
5 -6 -1 5693.67 729.653 66
5 -4 -2 70447.9 1748.77 65
-5 4 2 71341.8 1457.72 20
-5 4 2 66442.2 1423.59 28
5 -4 -2 68434 3752.81 52
-5 4 2 65183 1445.73 19
-5 4 2 72223.6 1675.81 36
-5 4 2 68285.1 1449.86 17
5 -4 -2 75217.5 4322.38 109
-5 4 2 73703.8 1852.25 108
5 -4 -2 66407.5 3672.65 105
-5 4 2 71362.4 1968.01 99
-5 4 2 67469.2 1845.86 14
-5 4 2 71897.4 1467.33 23
-5 4 2 71372 1553.59 22
-5 4 2 73601.1 1458.21 13
5 -2 -3 1357.42 202.518 58
-5 2 3 1385.36 242.973 49
5 -2 -3 801.61 373.786 40
5 -2 -3 763.652 423.56 109
-5 2 3 1331.4 250.34 108
5 -2 -3 949.765 402.666 105
5 -2 -3 1047.41 484.104 104
-5 2 3 1098.9 204.453 99
-5 0 4 33706.4 994.862 20
5 0 -4 34174 1604.88 6
5 0 -4 34810.3 1079.08 58
5 0 -4 35547.1 2507.35 51
-5 0 4 37805.9 1339.54 49
-5 0 4 33261.6 1153.33 47
5 0 -4 31320 2402.3 45
5 0 -4 41284.9 2366.43 109
-5 0 4 40577.7 1446.58 108
5 0 -4 26761.7 2220.56 107
5 0 -4 28644 1758.49 105
-5 0 4 35362.9 1171.92 99
-5 0 4 33963.4 1020.59 23
5 0 -4 33136.6 1085.7 68
5 2 -5 4309.05 631.823 6
5 2 -5 5749.86 535.969 65
-5 -2 5 4873.71 403.822 20
5 2 -5 4141.08 419.038 58
-5 -2 5 5078.58 570.345 47
5 2 -5 4965.55 472.597 18
-5 -2 5 4792.94 422.311 115
-5 -2 5 4647.71 525.018 108
-5 -2 5 4084.22 500.836 26
-5 -2 5 5033.82 408.425 94
5 2 -5 3970.78 465.541 25
-5 -2 5 5666.33 441.62 90
-5 -2 5 4350.85 406.462 99
5 2 -5 4903.9 513.652 24
-5 -2 5 4969.07 419.902 23
5 2 -5 3781.64 862.985 107
5 2 -5 5306.67 715.413 72
5 2 -5 4364.88 439.373 68
-5 -4 6 24487.7 958.882 94
5 4 -6 25449.6 1080.59 8
-5 -4 6 25555.6 1457.62 47
5 4 -6 24064.7 1302.62 18
-5 -4 6 25154.6 1088.5 115
5 4 -6 28845.9 1289.1 32
5 4 -6 28487 2284.25 107
-5 -4 6 23296.3 1342.86 26
5 4 -6 18041.5 1038.47 15
-5 -4 6 24055.7 1172.43 95
5 4 -6 24416.3 1234.2 25
5 4 -6 24785.7 1369 16
-5 -4 6 25120.2 1015.89 114
5 4 -6 25939.2 1267.51 24
5 4 -6 24466.4 1146.84 9
5 4 -6 22893.6 1320.65 80
-5 -4 6 26361.6 1083.66 90
5 6 -7 29754.3 1177.63 8
-5 -6 7 28883 1521.06 47
5 6 -7 26542.7 1374.43 18
5 6 -7 36778.7 2012.88 107
-5 -6 7 25511.5 1234.39 26
5 6 -7 29652.4 1206.89 25
5 6 -7 30709.1 1256.41 24
5 6 -7 29809 1069.92 14
5 6 -7 34362.8 1358.26 80
5 6 -7 27389.7 1176.85 9
-5 -6 7 29550.9 1088 73
5 6 -7 31915.5 1160.01 16
5 8 -8 2141.32 267.009 18
-5 -8 8 2686.98 218.879 73
-5 11 -2 1116.79 153.676 19
-5 11 -2 1182.84 198.745 14
5 -11 2 1390.94 329.658 84
5 -9 1 16107.1 1407.18 59
5 -9 1 17049.9 1630.01 57
5 -9 1 13175.8 1885.6 52
-5 9 -1 15256.9 830.208 19
-5 9 -1 16995.9 817.626 17
5 -9 1 14127.6 2177.69 109
-5 9 -1 12756.3 780.699 10
-5 9 -1 13300.1 931.414 14
5 -9 1 13264.4 1603.87 84
-5 9 -1 15680.1 732.654 13
-5 9 -1 17123.8 864.431 16
5 -7 0 11340.5 1164.36 56
5 -7 0 10911.6 1805.03 52
-5 7 0 10201 681.341 19
-5 7 0 11058.5 916.717 36
-5 7 0 12305.2 744.979 17
5 -7 0 8696.93 1061.52 34
5 -7 0 12472.3 2155.27 109
-5 7 0 11913 730.169 28
-5 7 0 11593.6 716.665 16
5 -7 0 10140.6 1663.28 105
-5 7 0 10211.3 689.815 88
-5 7 0 10411 856.49 14
5 -7 0 9808.84 1401.14 84
-5 7 0 11330.2 651.424 22
-5 7 0 11884.8 705.771 13
-5 5 1 12354.8 865.675 99
5 -5 -1 13215.6 1782.55 52
-5 5 1 11410.6 644.212 19
-5 5 1 11599.8 724.183 36
-5 5 1 12431.2 666.774 17
5 -5 -1 10412.3 1010.68 34
5 -5 -1 10844.7 1766.09 109
-5 5 1 10887 591.567 16
-5 5 1 11577.6 621.943 28
5 -5 -1 11353.4 1542.69 105
-5 5 1 9946.44 636.579 88
-5 5 1 10424 759.772 14
5 -5 -1 10684.6 1291.44 84
-5 5 1 11224.4 762.831 4
-5 5 1 11620.5 632.856 22
-5 5 1 11213.1 587.945 13
5 -5 -1 12758.3 1054.99 66
5 -3 -2 63897.5 1641.86 65
5 -3 -2 43320.5 2789.81 52
-5 3 2 59748.9 1500.61 49
5 -3 -2 71841.9 3259.03 40
5 -3 -2 47122.9 3190.93 109
-5 3 2 60223.9 1586.32 108
5 -3 -2 42517.2 2781.55 105
5 -3 -2 83801.3 3884.68 104
-5 3 2 54994.2 1510.85 99
5 -1 -3 29438.3 1119.82 65
5 -1 -3 21473.5 791.988 58
-5 1 3 24110 1015.79 49
5 -1 -3 27209.4 2135.9 45
5 -1 -3 23162.6 1982.38 109
5 -1 -3 18336.2 1659.83 105
5 -1 -3 20718.9 1866.01 107
5 -1 -3 16908 1786.1 104
-5 1 3 22869.1 914.458 99
-5 1 3 24781.7 1074.13 108
5 1 -4 12165.1 741.543 65
-5 -1 4 11070.2 764.311 108
5 1 -4 9274.78 834.3 6
5 1 -4 9152.55 582.443 58
5 1 -4 9869.28 1361.33 51
-5 -1 4 10129.8 696.631 49
-5 -1 4 11813.9 760.642 47
5 1 -4 10966.4 628.374 18
5 1 -4 7978.77 1215.99 107
5 1 -4 10035.4 973.462 105
-5 -1 4 11046.7 652.953 99
5 1 -4 10945.2 725.814 24
-5 -1 4 9994.15 561.281 23
5 1 -4 10603.1 949.717 72
5 1 -4 9469.07 596.471 68
5 3 -5 1976.37 318.982 65
-5 -3 5 2810.95 445.255 47
5 3 -5 1669.84 395.523 6
5 3 -5 1894.92 338.655 18
-5 -3 5 2070.64 300.599 115
5 3 -5 1858.53 320.114 32
-5 -3 5 1631.58 313.458 108
5 3 -5 1835.4 599.474 107
5 3 -5 1459.02 336.022 16
-5 -3 5 1690.32 363.016 26
5 3 -5 2294.55 326.533 15
5 3 -5 1647.97 450.472 1
-5 -3 5 1975.95 317.929 95
-5 -3 5 2613.72 301.881 94
5 3 -5 1891.69 344.996 25
5 3 -5 2100.01 355.501 24
5 3 -5 1856.02 297.03 9
5 3 -5 1881.51 387.809 80
-5 -3 5 3157.15 351.244 90
5 5 -6 24691.3 1116.02 8
-5 -5 6 26470.6 1487.77 47
5 5 -6 24201.1 1331.41 18
-5 -5 6 25092.1 1114.69 115
5 5 -6 30835.9 2161.16 107
5 5 -6 26851.3 1211 16
-5 -5 6 22013.7 1304.75 26
5 5 -6 18269.6 1084.01 15
-5 -5 6 23940.3 1176.25 95
5 5 -6 24499.9 1205.85 25
5 5 -6 25543.8 1260.13 24
-5 -5 6 24881.6 1001.04 114
5 5 -6 27627.7 1365.77 80
5 5 -6 24116.4 1189.85 9
5 7 -7 1337.73 223.487 8
5 7 -7 1255.66 267.665 18
-5 -7 7 1370.89 245.943 26
5 7 -7 1332.67 216.319 25
5 7 -7 1783.11 274.31 24
5 7 -7 1376.78 203.128 14
5 7 -7 1699.81 240.683 80
-5 -7 7 1477.59 219.825 73
5 -10 2 2719.1 567.798 57
-5 10 -2 2096.61 283.719 19
-5 10 -2 2658.62 290 17
-5 10 -2 2340.58 280.206 16
-5 10 -2 1686.94 298.885 14
5 -10 2 2257.73 578.513 84
5 -8 1 10873 1243.76 59
5 -8 1 12575 1229.45 56
5 -8 1 9277.69 1677.26 52
-5 8 -1 11147.4 725.102 19
-5 8 -1 12361 755.904 16
-5 8 -1 12555.6 754.948 17
5 -8 1 10348.8 1945.24 109
-5 8 -1 9949.85 745.385 10
5 -8 1 9435.14 1685.9 105
-5 8 -1 9969.66 861.89 14
5 -8 1 11278.5 1558 84
-5 8 -1 12790.2 691.692 22
-5 8 -1 13728.3 761.399 13
5 -6 0 33494.5 2983.08 52
-5 6 0 29459.9 1085.82 19
-5 6 0 33293 1381.13 36
-5 6 0 34049.9 1186.31 17
5 -6 0 28927.5 1842.42 34
5 -6 0 34593.3 3323.22 109
-5 6 0 33181 1117.69 28
-5 6 0 35751.5 1640.41 106
-5 6 0 26477.6 1010.9 10
5 -6 0 29495.7 2673.55 105
-5 6 0 30919.6 1417 14
5 -6 0 30801.2 2405.32 84
-5 6 0 31929.2 1363.58 4
-5 6 0 28876.3 1033.49 16
-5 6 0 32799 1079.15 22
-5 6 0 32387.7 1054.66 13
5 -6 0 32675.7 1753.16 66
5 -4 -1 95702.8 2046.82 65
5 -4 -1 83650.6 4082.02 52
-5 4 1 105596 1932.46 49
-5 4 1 98491.6 1683.47 17
-5 4 1 114391 2604.59 106
5 -4 -1 87235.4 4611.63 109
-5 4 1 112204 2071.88 108
-5 4 1 97043.8 1572.06 28
-5 4 1 104123 2164.97 99
5 -4 -1 84005.4 3983.29 105
-5 4 1 94061.6 2257.13 14
-5 4 1 105923 2037.21 4
-5 4 1 107600 1847.65 22
5 -4 -1 117429 2965.98 66
5 -2 -2 17841.6 845.836 65
-5 2 2 17017.5 804.974 49
5 -2 -2 15374.4 1449.66 40
5 -2 -2 12537.5 1563.14 109
-5 2 2 16505.2 841.04 108
-5 2 2 19118.1 933.941 7
5 -2 -2 10821.8 1359.16 105
5 -2 -2 14590 1572.81 104
-5 2 2 16083.3 755.891 99
5 0 -3 26273.2 1044.23 65
5 0 -3 24727 1236.46 6
5 0 -3 20454.4 804.757 58
5 0 -3 25287.1 1949.72 51
-5 0 3 24544.3 1034.3 49
-5 0 3 25131.9 966.409 47
5 0 -3 22245 1917.27 45
5 0 -3 29644.5 2147.81 109
-5 0 3 24574.3 1097.5 108
-5 0 3 26960.8 1197.01 7
5 0 -3 18334.3 1709.76 107
5 0 -3 21276.1 1597.69 105
-5 0 3 24282 961.356 99
5 2 -4 19795.1 971.141 65
-5 -2 4 17533.2 927.148 49
-5 -2 4 21163.6 1124.53 47
5 2 -4 20281.4 944.556 18
-5 -2 4 22137.3 895.368 115
5 2 -4 15089.4 1603.01 107
5 2 -4 20586.2 1379.01 105
-5 -2 4 19407.4 873.096 99
5 2 -4 16530.6 755.462 15
5 2 -4 16352.3 921.412 25
-5 -2 4 18960 1009.45 108
-5 -2 4 18561.4 797.407 90
5 2 -4 17875.9 975.912 24
5 2 -4 21524.4 1459.98 72
5 2 -4 16722.1 1161.27 6
5 4 -5 17710.8 919.638 8
-5 -4 5 19907.2 1241.09 47
5 4 -5 19841 1132.44 32
5 4 -5 17602 1063.89 18
-5 -4 5 19863.9 968.179 115
5 4 -5 22415.9 1903.95 107
5 4 -5 19942.8 1119.38 16
-5 -4 5 13153.2 1032.95 26
5 4 -5 14001.7 868.144 15
-5 -4 5 19492.7 1040.67 95
5 4 -5 18027.4 1056.32 25
-5 -4 5 18533 804.076 94
-5 -4 5 19892.8 939.086 90
5 4 -5 18204.3 1078.6 24
5 4 -5 18541.7 1162.83 80
5 4 -5 17564.6 1001.5 9
5 6 -6 5770.97 537.854 8
-5 -6 6 6072.2 697.073 47
5 6 -6 5347.47 624.265 18
5 6 -6 8175.95 953.949 107
5 6 -6 4224.95 529.895 15
-5 -6 6 4470.33 544.633 26
-5 -6 6 5316.01 536.683 95
5 6 -6 6072.27 553.085 25
5 6 -6 6404.11 600.186 24
5 6 -6 7108.08 599.916 80
-5 -6 6 6007.43 500.573 73
5 8 -7 6195.4 482.039 18
-5 -8 7 7331.45 380.767 73
-5 11 -3 4425.56 317.859 19
-5 11 -3 4558.81 291.738 17
-5 9 -2 3540.27 382.806 16
5 -9 2 3864.79 697.506 59
5 -9 2 3187.52 715.191 57
5 -9 2 3155.25 911.091 52
-5 9 -2 3218.72 384.5 19
5 -9 2 1597.86 336.77 11
-5 9 -2 3754.52 401.98 17
5 -9 2 2550.93 953.53 109
-5 9 -2 2825.01 437.073 14
5 -9 2 3382.93 835.49 84
5 -9 2 3302.62 555.596 79
-5 9 -2 2964.06 424.666 10
-5 7 -1 7645.95 564.359 16
5 -7 1 7010.76 972.16 59
5 -7 1 6439.66 891.5 56
5 -7 1 7091.17 1456.61 52
-5 7 -1 6490.83 537.253 19
-5 7 -1 7896.73 608.217 17
5 -7 1 6384.74 945.72 34
-5 7 -1 8504.27 583.498 28
5 -7 1 6449.07 1495.66 109
-5 7 -1 7373.76 622.153 10
5 -7 1 6789.12 1380.54 105
-5 7 -1 8306.9 817.923 106
-5 7 -1 7813.72 761.104 14
5 -7 1 7393.42 1247.85 84
-5 7 -1 7119.34 691.438 4
-5 7 -1 7630.95 535.422 22
-5 7 -1 7845.7 559.737 13
5 -5 0 30386.4 2596.7 52
-5 5 0 34569.5 1003.66 28
-5 5 0 41528.4 1672.42 106
-5 5 0 34267.7 1097.4 17
5 -5 0 34104 1890.48 34
5 -5 0 30850.8 2908.99 109
5 -5 0 27577.6 2447.02 105
-5 5 0 36063.4 1336.46 99
-5 5 0 31120.5 963.533 16
-5 5 0 31068.2 1358.42 14
5 -5 0 32444.7 2199.49 84
-5 5 0 35918 1282.24 4
-5 5 0 29900.8 971.501 10
-5 5 0 33068.5 996.754 23
-5 5 0 34060.7 1077.69 22
5 -5 0 32703.9 1665.78 66
5 -3 -1 43035.6 1329.09 65
-5 3 1 44378.8 1241.11 49
5 -3 -1 53224.6 2610.31 40
-5 3 1 50213.4 1575.31 106
-5 3 1 51404.7 1478.24 7
5 -3 -1 27526 2231.39 105
5 -3 -1 27906.6 2431.57 109
5 -3 -1 58474 2977.39 104
-5 3 1 44704.1 1291.24 99
-5 3 1 47302.3 1152.82 4
-5 3 1 44700.8 1351.68 108
5 -3 -1 48311.9 1794.16 66
5 -1 -2 49397.6 1403.31 65
-5 1 2 50237.8 1445.17 49
5 -1 -2 47178.4 2601.23 45
5 -1 -2 51001.5 2998.06 109
-5 1 2 51142.5 1594.66 108
5 -1 -2 35533 2248.06 107
-5 1 2 53526.3 1635.4 7
5 -1 -2 34841.7 2305.92 105
5 1 -3 92058.8 2019.94 65
5 1 -3 83302.2 2287.96 6
-5 -1 3 93379.2 2444.24 62
-5 -1 3 86444.9 1968.89 49
5 1 -3 96631.9 1854.91 18
-5 -1 3 103203 2190.93 35
-5 -1 3 88975.3 2137.86 108
-5 -1 3 93248.6 2292.93 7
5 1 -3 73255.1 3402.07 107
5 1 -3 89715.8 3105.36 105
5 1 -3 85996.5 2051.19 24
5 1 -3 96448 2850.66 72
-5 -1 3 90760.8 1728.3 71
-5 -3 4 37941.2 1462.33 108
5 3 -4 36598.6 1253.91 8
-5 -3 4 37084.5 1376.53 49
5 3 -4 39802.9 1453.09 18
-5 -3 4 39644.8 1254.66 90
-5 -3 4 40547.8 1289.54 115
5 3 -4 36688.3 1503.01 32
5 3 -4 38974.7 2474.04 107
5 3 -4 35142.5 1215.23 15
-5 -3 4 45234.8 1461.2 95
5 3 -4 36804.2 1473.38 25
5 3 -4 39718.3 1560.4 24
5 3 -4 40401.3 2124.67 1
5 3 -4 34138.7 1526.29 80
5 3 -4 37268.1 1382.49 9
5 5 -5 10903.5 760.501 8
-5 -5 5 13438.4 1038.56 47
5 5 -5 11449 905.956 18
-5 -5 5 13575.9 815.636 115
-5 -5 5 11463.4 657.12 114
5 5 -5 13660.6 1323.25 107
-5 -5 5 13721.8 812.697 90
-5 -5 5 6824.14 748.343 26
5 5 -5 9557.48 783.187 15
-5 -5 5 12198.2 833.586 95
5 5 -5 12269.2 843.841 25
5 5 -5 12339.9 902.803 24
5 5 -5 13522.6 893.201 80
5 5 -5 10855.8 812.458 9
-5 -5 5 17861.7 1744.65 70
5 7 -6 12927.2 720.917 8
5 7 -6 13468.5 893.71 18
5 7 -6 14442.7 671.816 25
5 7 -6 9591.45 728.152 15
-5 -7 6 12302.1 777.024 26
-5 -7 6 11671.2 713.36 95
5 7 -6 15375.2 825.32 24
5 7 -6 14550.7 712.038 14
-5 -7 6 14695.9 699.655 73
5 -10 3 6671.17 911.954 57
-5 10 -3 5812.01 481.269 19
-5 10 -3 6409.75 467.106 17
-5 10 -3 5385.85 405.168 16
-5 10 -3 5038.58 504.695 10
5 -10 3 4440.17 754.632 93
-5 10 -3 4456.99 490.635 14
5 -10 3 6003.37 965.929 84
5 -8 2 23008.4 1806.81 59
5 -8 2 17988.7 1709.94 57
5 -8 2 20727.5 1601.45 56
5 -8 2 14578.1 2056.67 52
-5 8 -2 17284 921.342 19
5 -8 2 9813.82 983.955 11
-5 8 -2 20377.9 982.906 17
5 -8 2 15998.9 2374.78 109
-5 8 -2 22119.3 1369.72 106
-5 8 -2 18040.6 1056.67 10
5 -8 2 14678.9 2080.06 105
-5 8 -2 16062.7 1111.69 14
5 -8 2 18395.1 2007.77 84
-5 8 -2 18520.8 893.482 16
5 -8 2 19346 1454.28 79
-5 8 -2 20971.5 902.547 22
-5 8 -2 21097.5 928.447 13
5 -6 1 12638.2 1172.26 56
5 -6 1 10926.2 1749.1 52
-5 6 -1 13022.8 729.872 17
5 -6 1 12980.6 1272.59 34
5 -6 1 11326.5 1868.95 109
-5 6 -1 14602.9 710.706 28
-5 6 -1 15555.2 1089.41 106
5 -6 1 9945.77 1522.84 105
-5 6 -1 12642.1 742.444 10
-5 6 -1 11728.5 637.741 16
-5 6 -1 11006.4 866.667 14
-5 6 -1 13594.1 863.736 4
5 -6 1 11991.1 1493.96 84
-5 6 -1 14132.7 724.469 22
5 -4 0 78378.1 3864.18 52
-5 4 0 115171 1979.77 49
5 -4 0 81539.9 4367.64 109
-5 4 0 118697 2139.38 108
-5 4 0 113559 1671.66 28
-5 4 0 103420 1642.12 10
5 -4 0 71651.7 3710.67 105
-5 4 0 121595 2236.76 99
-5 4 0 128142 2300.93 7
5 -4 0 88791.1 2140.97 1
-5 4 0 119282 2044.05 4
-5 4 0 117789 2543.83 14
-5 4 0 119532 1949.19 23
-5 4 0 128782 2736.54 106
-5 4 0 117877 1951.25 22
5 -4 0 103541 2781.43 66
-5 2 1 6701.99 570.604 108
5 -2 -1 5917.7 486.639 65
5 -2 -1 4834.8 776.033 40
5 -2 -1 5577.32 1079.07 109
5 -2 -1 5982.67 898.773 107
-5 2 1 7436.45 601.789 7
5 -2 -1 5800.97 1037.06 105
5 -2 -1 4327.64 885.287 104
-5 2 1 6544.2 354.692 4
-5 2 1 8106.18 574.341 106
5 -2 -1 6865.81 645.804 66
5 0 -2 13254.7 752.809 65
-5 0 2 16421.6 1026.65 62
-5 0 2 13229.7 838.733 7
5 0 -2 12672.7 1237.2 51
-5 0 2 13923.9 761.522 35
5 0 -2 18653.3 1830.49 109
5 0 -2 10089.7 1180.76 107
5 0 -2 12640.5 1299.62 105
-5 0 2 13047.7 831.546 108
-5 0 2 13200.8 861.89 67
5 2 -3 30632.3 1230.57 65
-5 -2 3 23258.3 1396.2 62
5 2 -3 30369.2 1866.75 3
-5 -2 3 27611.3 1139.59 49
5 2 -3 31103.5 1160.45 18
5 2 -3 25966.7 1885.18 107
-5 -2 3 35875.8 1495.98 35
-5 -2 3 27893.1 1225.24 108
5 2 -3 33089.7 1892.17 105
5 2 -3 29267.4 993.911 15
5 2 -3 27344.2 1188.2 25
5 2 -3 28949.9 1256.78 24
5 2 -3 30627.2 1822.86 1
-5 -2 3 29536 1020.59 71
-5 -2 3 38939.6 2574.53 70
5 2 -3 27815.9 945.432 21
-5 -2 3 17975.2 1124.57 67
5 4 -4 91466.6 3081.13 1
-5 -4 4 85312.6 1975.87 90
5 4 -4 83739.3 2064.06 8
-5 -4 4 90850.6 2619.48 47
5 4 -4 84899.1 2273.53 18
-5 -4 4 90474.7 2072 115
5 4 -4 90576.5 2539.91 32
5 4 -4 97376.7 3571.53 107
5 4 -4 82924.7 2091.42 15
-5 -4 4 96730.1 2242.86 95
5 4 -4 86119.4 2243 25
5 4 -4 86576.8 2415.71 24
5 4 -4 86905.9 2227.63 80
-5 -4 4 96053.1 4324.65 70
5 6 -5 31837.8 1269.88 8
-5 -6 5 36553.7 1705.62 47
5 6 -5 30658 1476 18
-5 -6 5 35607.2 1301 115
5 6 -5 39544.5 1978.05 107
5 6 -5 28741.5 1388.49 15
-5 -6 5 32176.6 1311.98 95
5 6 -5 35932.1 1262.58 25
-5 -6 5 37237.4 1294.85 90
5 6 -5 36997.5 1467.38 24
5 8 -6 1994.16 266.408 18
5 8 -6 2394 225.072 14
-5 -8 6 2499.56 218.563 73
-5 11 -4 1179.49 157.824 19
-5 11 -4 1445.3 164.142 17
-5 11 -4 1085.87 191.423 14
5 -9 3 13062.9 1381.49 57
-5 9 -3 13614.5 811.317 19
5 -9 3 7908.64 753.427 11
-5 9 -3 13629.6 768.844 17
5 -9 3 8283.82 1539.5 109
-5 9 -3 12791.1 899.414 10
-5 9 -3 12194.9 681.604 16
5 -9 3 9469.24 1269.5 93
-5 9 -3 10855.7 881.122 14
5 -9 3 13926 1664.05 84
5 -9 3 13067.4 1117.41 79
5 -7 2 11996.7 1266 59
5 -7 2 11461.8 1301.34 57
5 -7 2 12086.6 1190.55 56
-5 7 -2 13803.7 1086.76 106
5 -7 2 8197.03 1481.91 52
-5 7 -2 12758.5 777.804 17
5 -7 2 11065.5 1267.92 34
5 -7 2 8674.09 1687.48 109
-5 7 -2 11148.1 659.924 16
-5 7 -2 11869.7 812.381 10
5 -7 2 8361.53 1487.04 105
-5 7 -2 10725.3 899.97 14
5 -7 2 11737.5 1556.59 84
-5 7 -2 12738.1 924.708 4
5 -7 2 13073.9 1175.73 79
-5 7 -2 12557.1 716.463 22
-5 7 -2 15079.3 763.625 13
-5 5 -1 16240.7 693.859 20
5 -5 1 17245.2 1286.02 56
5 -5 1 11432 1577.37 52
-5 5 -1 15864.1 731.58 17
5 -5 1 16584.9 1335.68 34
-5 5 -1 17369.8 713.916 28
5 -5 1 14908.9 2087.62 109
-5 5 -1 16330.4 767.589 10
-5 5 -1 19085.1 1166.17 106
5 -5 1 11783.2 1608.28 105
-5 5 -1 18233.1 896.737 99
-5 5 -1 17322.1 876.531 4
-5 5 -1 14983.8 967.958 14
5 -5 1 16126.6 1560.15 84
-5 5 -1 15933.9 745.708 23
-5 5 -1 16522.4 783.271 22
-5 3 0 3992.5 443.641 106
-5 3 0 4373.1 471.959 7
5 -3 0 3914.27 664.274 40
5 -3 0 2963.6 808.387 109
-5 3 0 4035.02 437.625 108
-5 3 0 4100 322.722 10
5 -3 0 2593.95 712.397 105
5 -3 0 2967.47 630.036 104
-5 3 0 4175.37 345.913 4
5 -3 0 3228.56 438.066 1
5 -3 0 3244.24 470.056 66
-5 1 1 11002.4 851.713 62
5 -1 -1 6458.71 878.583 45
5 -1 -1 9492.68 1351.2 109
5 -1 -1 6345.62 759.335 5
5 -1 -1 5856.73 820.02 107
-5 1 1 8712.65 672.365 7
5 -1 -1 6929.57 1028.63 105
5 -1 -1 7495.11 748.941 1
-5 1 1 8440.96 685.277 108
-5 1 1 10373.3 769.194 67
5 -1 -1 7486.93 665.503 66
-5 -1 2 70050.2 2373.38 62
5 1 -2 71781.8 2809.76 3
5 1 -2 91702.4 1841.88 18
-5 -1 2 89229.1 2251.82 35
-5 -1 2 88993.8 1643.51 31
-5 -1 2 88013.3 2221.97 108
5 1 -2 79767.2 3053.19 107
-5 -1 2 88696.6 2242.98 7
5 1 -2 94512.8 3318.37 105
5 1 -2 107274 2734.32 92
5 1 -2 94664.8 2217.87 24
5 1 -2 87564.8 2890.82 1
5 1 -2 108594 3032.43 72
-5 -1 2 86883.4 1705.64 71
-5 -1 2 129325 4411.52 70
5 1 -2 84734.6 1512.69 21
-5 -1 2 60137.5 2018.54 67
5 3 -3 5173.76 740.92 1
-5 -3 3 2664.44 532.226 62
-5 -3 3 4256.72 461.483 49
5 3 -3 4607.68 468.368 8
5 3 -3 5359.33 727.331 3
-5 -3 3 5155.93 512.393 44
5 3 -3 5090.9 526.548 18
-5 -3 3 5182.64 652.248 35
5 3 -3 4339.7 547.521 32
5 3 -3 4505.74 686.13 107
5 3 -3 4816.52 451.152 15
5 3 -3 4214.68 475.822 25
5 3 -3 4484.89 542.526 24
-5 -3 3 3927.46 470.362 108
-5 -3 3 4365.81 404.224 71
-5 -3 3 4145.68 903.75 70
5 3 -3 4786.01 423.032 21
5 5 -4 7418.68 636.013 8
-5 -5 4 8545.91 827.661 47
5 5 -4 8077.32 749.059 18
-5 -5 4 8618.65 656.114 115
5 5 -4 9738.76 973.318 107
5 5 -4 7637.85 691.554 15
-5 -5 4 8585.31 689.391 95
5 5 -4 8575.23 648.971 25
-5 -5 4 8216.36 632.584 90
5 5 -4 8563.3 761.391 24
-5 -5 4 10170.1 1400.11 70
5 7 -5 901.879 189.051 8
5 7 -5 788.342 226.822 18
-5 -7 5 1014.77 196.88 115
-5 -7 5 417.851 152.087 26
-5 -7 5 918.929 198.154 95
5 7 -5 709.132 210.504 15
5 7 -5 822.489 200.649 24
5 7 -5 933.294 195.282 14
-5 -7 5 1038.04 180.222 73
-5 10 -4 4049.31 390.123 19
-5 10 -4 3745.51 309.533 16
-5 10 -4 4417.26 381.505 17
-5 10 -4 3921.4 446.738 10
-5 10 -4 3058.53 400.171 14
5 -8 3 38088.9 2239.64 59
5 -8 3 35580.7 2257.08 57
5 -8 3 26079.2 1560.35 11
-5 8 -3 39693 1370.54 17
-5 8 -3 45226.2 2011.79 106
-5 8 -3 35400.6 1177.87 16
5 -8 3 35576.4 1535.43 111
5 -8 3 24417 2770.13 109
-5 8 -3 37693.7 1556.9 10
5 -8 3 29623.2 2360.69 93
-5 8 -3 32905.7 1624.39 14
5 -8 3 39322.6 2862.25 84
5 -8 3 39895.4 2101.76 79
-5 8 -3 42569.9 1319.99 22
-5 8 -3 42204.5 1265.59 13
5 -6 2 2501.51 692.998 93
-5 6 -2 3542.95 445.3 4
5 -6 2 2491.77 547.779 59
5 -6 2 3344.27 652.518 57
5 -6 2 2650.8 527.765 56
-5 6 -2 3341.34 367.161 17
5 -6 2 2973.47 609.89 34
5 -6 2 1720.52 717.841 109
-5 6 -2 3927.55 362.213 28
-5 6 -2 3148.88 324.085 16
-5 6 -2 3104.47 388.578 10
-5 6 -2 4248.32 591.835 106
5 -6 2 1640.91 619.096 105
-5 6 -2 2895.77 445.876 14
5 -6 2 3207.44 794.563 84
-5 6 -2 3535.89 360.809 23
5 -6 2 2694.88 505.98 79
-5 6 -2 3498.21 383.794 22
-5 4 -1 46109.3 1115.62 12
-5 4 -1 46211.4 1229.77 20
5 -4 1 39414.2 1756.62 56
-5 4 -1 51508.8 1302.09 10
5 -4 1 36845.9 1264.28 53
-5 4 -1 37143 1009.68 17
5 -4 1 26870.6 2560.63 109
-5 4 -1 46834.3 1516.5 108
-5 4 -1 46089.4 1126.49 28
-5 4 -1 50098.9 1645.18 7
5 -4 1 23749.6 2187.95 105
-5 4 -1 48392.9 1438.89 99
5 -4 1 36434.1 2342.71 93
-5 4 -1 48094 1347.94 4
-5 4 -1 43159.5 1574.73 14
5 -4 1 49321.3 2619.11 84
-5 4 -1 44543.7 1276.35 23
-5 4 -1 43797.9 1244.11 22
-5 4 -1 49628.8 1767.74 106
-5 2 0 72014.7 1396.71 10
-5 2 0 79207.4 2149.92 108
-5 2 0 68317.3 1673.7 106
5 -2 0 37252.6 2244.51 5
-5 2 0 75163.6 2021.66 7
5 -2 0 50531.2 2983.11 105
-5 2 0 81609.3 1414.21 4
5 -2 0 62578.3 2033.25 1
-5 2 0 104490 2545.8 67
5 -2 0 68923.8 3810.49 109
5 -2 0 69189.8 2179.16 66
-5 0 1 108600 2873.85 62
5 0 -1 96940.8 3272.96 3
-5 0 1 118972 2562.19 7
-5 0 1 135259 2410.55 42
5 0 -1 126974 2088.46 18
-5 0 1 125210 1928.18 31
5 0 -1 130132 4278.6 105
5 0 -1 138159 3214.6 92
5 0 -1 120204 3146.61 1
-5 0 1 119360 2625.09 108
-5 0 1 124970 2030.82 71
-5 0 1 99690.1 2605.73 67
-5 -2 2 5474.61 720.743 62
5 2 -2 9439.17 997.982 3
5 2 -2 9244.67 618.124 8
-5 -2 2 8841.8 640.644 44
5 2 -2 8920.23 625.741 18
-5 -2 2 10248.6 872.644 35
-5 -2 2 9036.02 545.103 31
-5 -2 2 8321.85 692.123 108
5 2 -2 8716.86 879.185 107
-5 -2 2 8683.7 733.046 7
5 2 -2 11082.2 1201.4 105
5 2 -2 9239.36 582.298 15
5 2 -2 8760.15 724.639 24
-5 -2 2 8542.27 557.729 71
-5 -2 2 9280.24 1309.78 70
5 2 -2 8916.48 539.297 21
5 2 -2 9259.05 950.088 1
5 4 -3 94179.4 2238.86 8
5 4 -3 109517 3333.33 1
-5 -4 3 115211 2711.72 44
5 4 -3 102725 2505.86 18
5 4 -3 115795 3004.36 32
5 4 -3 105790 2351.75 15
-5 -4 3 101702 2187.41 90
5 4 -3 110597 2786.6 24
-5 -4 3 101223 4556.07 70
5 4 -3 93604.4 2002.39 21
-5 -6 4 39732.5 1753.12 47
5 6 -4 31158 1250.81 8
5 6 -4 30558.9 1405.09 18
-5 -6 4 40597.8 1386.25 115
5 6 -4 29648 1361.6 15
-5 -6 4 35641.2 1374.57 95
-5 -6 4 36701.6 1258.59 90
5 6 -4 36266.1 1466.75 24
-5 -6 4 42831.3 2740.36 70
-5 -8 5 9336.59 489.773 95
5 8 -5 10154.8 462.656 14
-5 9 -4 42936.3 1405.73 19
5 -9 4 32032.2 1413.48 11
-5 9 -4 44037.7 1335.51 17
-5 9 -4 41303.2 1156.15 16
-5 9 -4 44160.3 1670.07 10
5 -9 4 23759.5 1589.98 27
-5 9 -4 34622.9 1504.86 14
-5 9 -4 52253.7 1332.67 22
5 -7 3 387.108 213.881 2
5 -7 3 177.072 192.298 59
5 -7 3 96.6461 134.714 57
-5 7 -3 320.643 121.932 12
5 -7 3 378.182 208.626 48
5 -7 3 202.146 150.258 11
5 -7 3 228.865 182.102 34
5 -7 3 503.956 173.764 111
-5 7 -3 292.49 118.224 17
5 -7 3 573.63 529.487 109
-5 7 -3 371.079 200.555 106
-5 7 -3 188.901 98.7202 16
5 -7 3 359.857 332.93 105
5 -7 3 125.794 64.9137 27
-5 7 -3 399.215 155.492 10
5 -7 3 719.596 440.697 93
5 -7 3 91.2644 141.963 84
-5 7 -3 104.399 112.897 14
-5 7 -3 297.145 121.762 22
-5 7 -3 284.529 142.692 4
-5 5 -2 12829.5 658.515 12
-5 5 -2 11969.7 655.715 20
5 -5 2 9358.45 959.481 59
5 -5 2 10487.1 982.108 56
5 -5 2 10550.2 931.279 48
-5 5 -2 13423 647.84 28
5 -5 2 6161.71 747.961 11
-5 5 -2 10528.5 601.21 17
5 -5 2 8439.76 1476.17 109
-5 5 -2 11820.7 699.129 10
-5 5 -2 12847.8 994.369 106
-5 5 -2 13072.5 858.102 7
5 -5 2 7880.67 1281.15 105
5 -5 2 9073.96 1214.67 93
-5 5 -2 12467.9 787.03 4
-5 5 -2 8651.77 740.278 14
5 -5 2 11786.7 1392.27 84
-5 5 -2 11809.7 697.219 23
-5 5 -2 11477.2 680.401 22
-5 3 -1 32112.4 1020.99 61
5 -3 1 27171.7 1215.06 1
-5 3 -1 34415.1 1107.51 20
5 -3 1 26207.2 1336.67 56
5 -3 1 29821 1072.68 53
-5 3 -1 38094 1504.09 108
5 -3 1 31710.7 2708.63 109
-5 3 -1 32691.6 1324.73 106
-5 3 -1 34644.7 1431.26 7
5 -3 1 21152.2 1962.3 105
-5 3 -1 34965.6 1051.19 10
5 -3 1 37380.5 2387.44 93
-5 3 -1 27185.2 1247.33 14
5 -3 1 24349.6 1419.3 83
-5 3 -1 29112.4 1019.74 23
-5 3 -1 31824.4 1013.59 22
-5 1 0 11268.1 911.215 62
-5 1 0 10113 562.506 20
5 -1 0 8105.69 902.707 3
5 -1 0 12544.7 949.811 112
-5 1 0 12061.3 683.616 42
5 -1 0 9532.52 966.458 5
5 -1 0 14676.8 1781.42 109
-5 1 0 11511.2 842.175 108
-5 1 0 9871.05 746.287 7
5 -1 0 10307.3 1255.61 105
5 -1 0 8492.17 887.805 2
5 -1 0 10572.9 920.334 92
-5 1 0 9277.16 566.689 106
5 -1 0 10313.1 865.876 1
-5 1 0 10111.3 831.789 67
5 1 -1 137851 3517.54 1
-5 -1 1 92148.7 2856.66 62
-5 -1 1 122422 1846.43 20
5 1 -1 134542 3792.9 3
-5 -1 1 128072 2011.18 31
5 1 -1 135928 2290.64 18
-5 -1 1 142677 2710.55 42
-5 -1 1 131298 2814.49 7
5 1 -1 148664 4351.39 105
5 1 -1 131376 2136.46 15
5 1 -1 180897 3873.55 92
5 1 -1 139549 2748.8 24
-5 -1 1 129662 2805.07 108
-5 -1 1 132273 2144.06 71
-5 -1 1 155246 4868.14 70
5 1 -1 131026 1948.47 21
5 3 -2 69402.5 2589.13 1
-5 -3 2 62057.8 1800.36 49
5 3 -2 66209.5 1809.16 8
5 3 -2 84067.9 2942.2 3
-5 -3 2 68267.4 2025.45 44
5 3 -2 68054.5 1872.32 18
-5 -3 2 76353.4 2662.21 35
5 3 -2 70369.9 2317.9 32
-5 -3 2 62898.8 1495.85 31
-5 -3 2 62377.1 1966.93 108
-5 -3 2 68782.2 2156.96 7
5 3 -2 69158.2 1755.32 15
5 3 -2 72382.5 2191.44 24
-5 -3 2 61699.2 1553.78 71
-5 -3 2 63860.7 3579.49 70
5 3 -2 65685.7 1600.97 21
5 5 -3 29000.5 1259.66 8
-5 -5 3 32563.5 1540.26 44
5 5 -3 31175.8 1450.21 18
-5 -5 3 35389.1 1345.92 115
5 5 -3 30451.8 1345.52 15
-5 -5 3 33016.6 1257.97 90
5 5 -3 34429.1 1511.54 24
-5 -5 3 36075.2 2774.67 70
5 7 -4 3922.01 436.106 18
-5 -7 4 4399.15 401.093 115
5 7 -4 3441.81 416.301 15
-5 -7 4 2705.73 351.587 26
-5 -7 4 4415.37 426.77 95
5 7 -4 4326.92 422.448 24
5 7 -4 4373.78 406.09 14
-5 10 -5 3684.09 341.308 19
-5 10 -5 3850.72 325.384 17
5 -10 5 2355.72 375.283 27
-5 10 -5 3470.13 397.673 10
-5 10 -5 2802.26 337.522 14
5 -10 5 2447.6 433.452 83
-5 8 -4 28964.4 1170.63 12
5 -8 4 20300.8 1247.6 11
-5 8 -4 27702.8 1098.88 17
-5 8 -4 35006.4 1775.82 106
-5 8 -4 29391.4 1361.6 10
5 -8 4 16452.9 1341.25 27
5 -8 4 26699.1 1957.14 93
-5 8 -4 22746.1 1289.56 14
5 -8 4 29480.9 1449.7 111
-5 8 -4 31696.8 1149.54 22
-5 8 -4 31121 1009.28 13
5 -6 3 3144.64 586.148 59
-5 6 -3 3419.18 373.075 12
5 -6 3 1941.99 599.312 2
5 -6 3 3623.02 598.16 48
5 -6 3 2357.2 471.267 11
-5 6 -3 3274.29 363.82 17
5 -6 3 2597.62 862.922 109
-5 6 -3 3511.09 557.7 106
5 -6 3 1851.11 631.29 105
5 -6 3 1387.14 381.813 27
5 -6 3 2756.58 710.79 93
-5 6 -3 3837.76 483.017 4
-5 6 -3 2598.38 415.819 14
-5 6 -3 4262.32 371.631 28
-5 6 -3 3530.7 391.503 23
-5 6 -3 3570.33 406.413 22
-5 6 -3 3546.57 418.981 10
-5 4 -2 74011.4 1699.14 61
-5 4 -2 70669.4 1487.38 12
5 -4 2 55727.4 2157.49 59
-5 4 -2 70752.9 1656.45 20
5 -4 2 58539.1 2209.21 56
5 -4 2 47719.4 1961.32 3
5 -4 2 52421.2 1632.37 53
5 -4 2 44716.8 1926.26 11
-5 4 -2 52675.7 1229.02 17
5 -4 2 64009.4 3917.15 109
-5 4 -2 78189.5 2188.14 108
-5 4 -2 72004.9 1643.62 10
5 -4 2 31139.4 2486.33 5
-5 4 -2 69316.4 2186.51 106
5 -4 2 44328.9 2866.31 105
-5 4 -2 75249 2254.36 7
5 -4 2 41766.5 2529.23 2
5 -4 2 72333.6 3371.36 93
-5 4 -2 70685.6 1388.28 9
-5 4 -2 53038.3 1792.63 14
5 -4 2 44123.1 2071.34 83
-5 4 -2 64858.8 1642.41 23
-5 4 -2 63039.5 1566.54 22
-5 2 -1 32748.9 1090.65 61
5 -2 1 47956.3 1970.8 112
-5 2 -1 44880.4 1263.5 20
5 -2 1 41446.4 1624.51 1
5 -2 1 35914.1 1894.18 3
5 -2 1 34185.5 1527.1 11
-5 2 -1 47931.2 1321.93 42
5 -2 1 55820.6 3527.79 109
5 -2 1 36997.2 2304.42 5
-5 2 -1 44952.3 1748.24 108
-5 2 -1 42763.1 1390.41 106
5 -2 1 37249.7 2391.03 105
-5 2 -1 44523.2 1647.31 7
5 -2 1 32810.6 1792.7 98
5 -2 1 35026.3 1998.8 2
-5 2 -1 31379.2 1355.19 14
5 -2 1 45171.4 1864.64 83
-5 2 -1 41014.5 1180.06 23
-5 2 -1 55757 1931.01 67
-5 0 0 9725.04 896.423 62
5 0 0 12291.9 990.03 1
-5 0 0 11622.5 598.832 20
5 0 0 11814.1 1102.92 3
-5 0 0 12500.5 769.004 42
5 0 0 16302.9 1130.22 5
-5 0 0 13159.5 945.023 108
5 0 0 17556.4 1165.58 112
-5 0 0 11888 851.753 7
5 0 0 13325.3 1331.49 105
5 0 0 11659.7 652.117 15
5 0 0 15302.9 1135.6 92
5 0 0 13423 823.047 24
5 0 0 16338.8 989.386 83
-5 0 0 10548.1 552.712 23
-5 0 0 14158.6 697.517 71
5 0 0 11177.7 559.477 21
-5 0 0 8388.84 798.933 67
-5 -2 1 45503.5 1261.44 31
5 2 -1 49750.4 2130.16 1
5 2 -1 53888.9 2373.95 3
5 2 -1 51059.1 1512.4 18
-5 -2 1 49978.9 1769.16 42
-5 -2 1 52069.5 2150.14 35
5 2 -1 47247.6 1801.02 32
-5 -2 1 47088 1761.15 108
-5 -2 1 49895.7 1819.95 7
5 2 -1 61940.8 3054.07 105
5 2 -1 49402.3 1418.66 15
5 2 -1 53253.3 1762.49 24
-5 -2 1 45502.7 1321.19 71
-5 -2 1 43561.6 2862.82 70
5 2 -1 49759.8 1321.65 21
-5 -4 2 38383.5 1650.77 44
5 4 -2 37845.6 1517.3 18
-5 -4 2 44870 2206.17 35
5 4 -2 42329.3 1887.95 32
-5 -4 2 35410.2 1133.44 31
5 4 -2 38189.9 1404.72 15
5 4 -2 35699.3 1911.47 1
5 4 -2 39588.7 1610.49 24
-5 -4 2 33671.7 1165.13 71
-5 -4 2 35222.9 2817.64 70
5 4 -2 36003.4 1258.15 21
-5 -6 3 406.184 199.172 62
5 6 -3 720.833 216.707 18
-5 -6 3 775.006 181.801 115
-5 -6 3 925.093 217.913 95
5 6 -3 638.137 192.959 15
-5 -6 3 594.989 151.796 90
5 6 -3 759.586 192.937 24
-5 -6 3 680.336 349.362 70
-5 9 -5 3346.86 367.103 12
5 -9 5 3166.6 456.523 53
-5 9 -5 4055.44 405.049 19
5 -9 5 2617.16 349.023 11
-5 9 -5 3693.78 360.255 17
-5 9 -5 3440.64 429.678 10
5 -9 5 2867.59 477.104 27
-5 9 -5 2952.53 392.929 14
5 -9 5 2978.01 535.643 83
-5 9 -5 4391.9 369.072 22
-5 7 -4 12843.6 779.17 12
5 -7 4 11690.8 1156.99 48
5 -7 4 10976 977.955 11
-5 7 -4 12559.2 733.821 17
-5 7 -4 12420.1 847.091 10
-5 7 -4 15683 1211.24 106
5 -7 4 9115.02 940.503 27
5 -7 4 13904.9 1412.62 93
-5 7 -4 9645.24 813.07 14
-5 7 -4 12624.1 695.936 9
-5 7 -4 14035.1 751.323 23
-5 7 -4 14235.2 809.509 22
-5 5 -3 11599.1 736.203 23
-5 5 -3 11864.6 662.336 12
-5 5 -3 11780.2 690.487 20
5 -5 3 7898.07 708.863 53
5 -5 3 9314.13 932.196 48
5 -5 3 8615.45 901.695 11
-5 5 -3 9435.87 582.179 17
5 -5 3 8487.02 1437.1 109
-5 5 -3 12629.6 752.431 10
5 -5 3 7116.68 1305.92 5
-5 5 -3 12774.2 655.687 28
-5 5 -3 12558.1 1028.7 106
5 -5 3 7254.74 1176.73 105
-5 5 -3 12523.9 944.643 7
5 -5 3 4177.49 941.435 98
-5 5 -3 13089.6 859.369 4
5 -5 3 11665.5 1368.87 93
5 -5 3 8287.31 1168.38 2
-5 5 -3 13012.6 655.995 9
-5 5 -3 8651.19 743.649 14
5 -5 3 7105.01 877.219 83
-5 5 -3 11201.8 704.596 22
-5 3 -2 25884.5 1021.3 61
-5 3 -2 27069.3 1053.19 20
5 -3 2 25200.4 1116.1 53
5 -3 2 21027.1 1329.64 3
5 -3 2 21229.8 1265.57 11
5 -3 2 23852.5 1163.15 1
-5 3 -2 26902 978.534 10
-5 3 -2 29663.7 1494.81 108
-5 3 -2 26507 1259.82 106
5 -3 2 20435.3 1758.38 105
-5 3 -2 27134.1 1377.11 7
5 -3 2 19249.8 1656.91 98
5 -3 2 19821.3 1573.55 2
5 -3 2 30990.6 2639.16 109
-5 3 -2 19776.6 1100.5 14
5 -3 2 24479.9 1480.8 83
-5 3 -2 25095.5 1004.18 23
5 -3 2 20324.4 1945.35 5
-5 3 -2 24566.3 948.684 22
-5 1 -1 16042 1121.23 62
-5 1 -1 15471.9 741.82 20
5 -1 1 14700.2 1182.08 3
5 -1 1 15351.8 1058.14 1
5 -1 1 13470.9 839.54 11
-5 1 -1 16077.6 858.991 42
-5 1 -1 18943.9 899.6 39
5 -1 1 21546.4 1317.88 112
-5 1 -1 17216.9 1136.55 108
5 -1 1 18153.1 1455.56 5
5 -1 1 15968.8 1461.94 105
-5 1 -1 15791.3 1013.64 7
-5 1 -1 18711.5 938.672 100
5 -1 1 13705.4 745.891 15
5 -1 1 18353.7 1257.76 92
5 -1 1 20289.9 1182.72 83
5 -1 1 14589.6 1100.05 2
-5 1 -1 15043.8 714.179 23
5 -1 1 13115.3 628.097 21
-5 1 -1 15647.3 1075.62 67
-5 -1 0 5989.42 797.77 62
-5 -1 0 8199.48 510.463 20
5 1 0 9304.22 962.714 3
5 1 0 9758.89 926.666 1
5 1 0 9805.9 637.373 18
-5 -1 0 9554.57 744.506 42
-5 -1 0 9745.4 824.118 108
-5 -1 0 9224.54 791.386 7
5 1 0 10867.4 1218.78 105
5 1 0 9445.48 620.391 15
5 1 0 9269.62 689.009 24
-5 -1 0 9098.67 589.138 71
-5 -1 0 11832.6 1379.06 70
5 1 0 9196.54 556.604 21
-5 -3 1 17596 1107.11 44
5 3 -1 18178.7 980.285 18
5 3 -1 20593.5 1493.65 3
-5 -3 1 19311.8 1417.4 35
5 3 -1 18357 1191.62 32
-5 -3 1 15821.8 772.68 31
-5 -3 1 16301.2 1077.62 7
5 3 -1 16822.3 884.439 15
5 3 -1 17420.6 1307.71 1
-5 -3 1 17214.3 1088.01 108
5 3 -1 17570.7 1018.88 24
-5 -3 1 16027 818.13 71
-5 -3 1 16121.6 1890.77 70
5 3 -1 17666.2 851.323 21
-5 -5 2 21429.4 954.057 54
5 5 -2 19041.3 1094.16 18
-5 -5 2 19423.9 1207.12 44
5 5 -2 19594.2 1057.61 15
-5 -5 2 17517.9 887.598 90
5 5 -2 19291.6 1015.21 24
-5 -5 2 19556.1 2085.03 70
5 5 -2 17318.7 868.509 21
-5 -7 3 6396.1 439.809 115
-5 -7 3 7233.18 510.6 95
5 7 -3 7469.65 487.021 14
-5 10 -6 3196.05 276.216 19
5 -10 6 2434.02 285.391 27
5 -10 6 2571.16 339.553 83
-5 8 -5 13857.2 784.275 12
5 -8 5 11931.3 925.926 53
5 -8 5 11919.3 866.709 11
-5 8 -5 13342.7 715.369 17
-5 8 -5 13447.6 857.544 10
5 -8 5 10319.2 910.19 27
-5 8 -5 17347 1199.31 106
-5 8 -5 10597.9 772.869 14
-5 8 -5 13769.6 712.726 9
5 -8 5 10587.2 1050.94 83
-5 8 -5 15459.1 779.143 22
-5 6 -4 26452.5 1014.99 20
-5 6 -4 22794.1 993.73 12
5 -6 4 18558.2 1160.36 53
5 -6 4 22134.6 1557.44 48
5 -6 4 19166.7 1303.48 11
-5 6 -4 20198.9 908.21 17
-5 6 -4 21439.1 1052.09 10
-5 6 -4 24762.2 1523.22 106
5 -6 4 16821.2 1178.01 27
5 -6 4 12433.4 1611.73 98
5 -6 4 25333.1 1899.35 93
-5 6 -4 26734.3 1322.38 4
-5 6 -4 24571.7 954.642 9
-5 6 -4 14678.4 967.179 14
5 -6 4 16898 1618.84 2
5 -6 4 17396.9 1418.65 83
-5 6 -4 22521 1030.3 23
-5 6 -4 22853.7 1042.18 22
-5 6 -4 26136.1 899.841 28
5 -6 4 16956.4 2019.07 5
-5 4 -3 2900.96 310.128 64
-5 4 -3 3120.08 377.003 61
-5 4 -3 3430.07 343.5 12
-5 4 -3 2975.11 366.043 20
5 -4 3 2397.81 378.1 53
5 -4 3 2496.79 466.026 11
5 -4 3 2423.24 737.044 109
-5 4 -3 2887.3 466.864 108
-5 4 -3 3398.79 371.59 10
-5 4 -3 2791.35 455.326 106
-5 4 -3 3595.4 529.97 7
5 -4 3 2079.21 527.631 105
5 -4 3 2314.68 673.694 5
5 -4 3 2428.73 679.719 98
-5 4 -3 2569.51 399.31 14
5 -4 3 2842.64 654.799 2
5 -4 3 2491.04 506.816 83
-5 4 -3 3177.49 384.084 23
-5 4 -3 2960.32 360.456 22
5 -2 2 24793.1 1454.4 112
-5 2 -2 19564.4 897.999 20
5 -2 2 19977 1328.43 3
5 -2 2 19912.7 1111.09 11
5 -2 2 22271.1 1866.2 5
-5 2 -2 21864.3 1337.12 108
-5 2 -2 20586.9 1050.4 106
5 -2 2 19108.8 1565.38 105
-5 2 -2 21757.8 1278.01 7
5 -2 2 20523.7 1404.54 98
5 -2 2 20087.9 1325.19 92
5 -2 2 21061.6 1195.61 1
5 -2 2 23651.4 1401.86 83
5 -2 2 21139.1 1531.46 2
-5 2 -2 20811 913.533 23
-5 2 -2 19833.4 818.234 22
5 -2 2 17317.9 755.267 21
-5 2 -2 24071.1 1313.11 67
-5 0 -1 15557.6 1194.57 62
-5 0 -1 18493 818.262 20
5 0 1 19594 1383.34 3
-5 0 -1 20159.1 1077.2 42
-5 0 -1 22676.5 1117.26 39
5 0 1 20088.3 1299.48 1
-5 0 -1 21128.5 1306.96 108
-5 0 -1 20955.1 1243.58 7
5 0 1 22555.7 1705.37 105
-5 0 -1 22625.8 1166.57 100
5 0 1 19472.8 920.022 15
5 0 1 27235.6 1587.89 92
5 0 1 26817.4 1400.32 83
-5 0 -1 17214 765.695 23
5 0 1 19642 825.623 21
-5 0 -1 12999.3 1058.73 67
5 2 0 14985.8 848.028 18
5 2 0 16106.9 1295.95 3
-5 -2 0 14419.4 1016.9 42
-5 -2 0 14332.8 1219.05 35
5 2 0 15001.2 997.347 32
-5 -2 0 14753.7 1074.59 108
-5 -2 0 13213.3 717.967 31
-5 -2 0 14108.1 1029.35 7
5 2 0 14772.7 814.85 15
5 2 0 14776.7 1192.3 1
-5 -2 0 13857.2 769.026 71
-5 -2 0 14785 1736.3 70
5 2 0 15209.4 778.638 21
-5 -4 1 90090.1 2659.95 44
5 4 -1 88040.9 2283.69 18
-5 -4 1 81362.5 1724.95 31
5 4 -1 85490.4 2099.14 15
5 4 -1 79774.6 1989.47 24
-5 -4 1 81349.8 1813.15 71
-5 -4 1 88633.1 4582.18 70
5 4 -1 85884.4 1950.68 21
5 6 -2 8672.26 640.066 18
-5 -6 2 9082.96 600.246 115
5 6 -2 8770.81 658.358 15
-5 -6 2 10635.6 700.632 95
-5 -6 2 7618.17 508.095 90
-5 -6 2 9331.1 1279.13 70
-5 9 -6 7220.89 492.029 12
5 -9 6 6583.74 488.92 11
-5 9 -6 7831.57 465.221 17
-5 9 -6 8333.88 607.832 10
5 -9 6 6940.47 590.99 27
5 -9 6 6374.2 634.968 83
-5 9 -6 8906.76 463.79 22
-5 7 -5 26032.9 1068.98 12
5 -7 5 22115.2 1260.82 53
5 -7 5 24627.6 1688.16 48
5 -7 5 24150.1 1304.56 11
-5 7 -5 25117.8 1002.3 17
-5 7 -5 26149.2 1191.37 10
-5 7 -5 30553.9 1647.51 106
5 -7 5 21224.8 1242.88 27
-5 7 -5 26407.5 1007.28 9
5 -7 5 20499.6 1469.98 83
-5 7 -5 26549.4 1035.71 23
-5 7 -5 27250.4 1092.38 22
-5 5 -4 3583.56 360.521 64
-5 5 -4 3947.59 396.645 12
-5 5 -4 3896.75 410.562 20
5 -5 4 2986.54 455.985 53
5 -5 4 3128.62 509.074 11
-5 5 -4 3909.3 381.817 17
-5 5 -4 3686.41 407.342 10
-5 5 -4 3369.31 335.698 28
-5 5 -4 3741.45 571.375 106
-5 5 -4 3600.28 547.726 7
5 -5 4 2327.83 718.725 5
5 -5 4 1430.15 527.042 98
5 -5 4 2545.85 468.185 92
-5 5 -4 4349.72 386.349 9
5 -5 4 3257.77 598.371 83
5 -5 4 3434.73 737.342 2
-5 5 -4 3811.55 434.196 23
-5 5 -4 4154.41 444.682 22
-5 3 -3 3197.69 384.221 61
-5 3 -3 3508.84 402.239 20
5 -3 3 3624.63 463.838 53
5 -3 3 3300.75 516.133 3
5 -3 3 2874.2 454.382 11
5 -3 3 3901.62 595.046 112
5 -3 3 3556.14 794.116 5
-5 3 -3 3591.03 374.705 10
-5 3 -3 4181.82 598.935 108
-5 3 -3 3647.15 513.827 106
5 -3 3 3349.39 635.598 105
-5 3 -3 3880.59 573.998 7
5 -3 3 3827.49 719.881 98
5 -3 3 3220.37 522.236 92
5 -3 3 3683.51 591.346 83
-5 3 -3 3516.65 407.852 23
5 -3 3 3715.11 685.459 2
-5 3 -3 3312.89 371.28 22
5 -3 3 2665.22 314.027 21
-5 1 -2 108401 3062.38 62
-5 1 -2 97241.7 2022.62 20
5 -1 2 103470 3096.62 3
5 -1 2 101340 2241.27 11
-5 1 -2 114417 2557.76 39
5 -1 2 131885 4248.35 5
5 -1 2 150289 3631.22 112
-5 1 -2 110439 3128.6 108
5 -1 2 109181 2995.09 1
5 -1 2 102030 3472.4 105
-5 1 -2 110241 3018.27 7
-5 1 -2 117042 2678.36 100
5 -1 2 94681.3 2127.31 15
5 -1 2 124840 3308.03 92
5 -1 2 136834 3389.24 83
-5 1 -2 98003.8 1992.9 23
5 -1 2 116635 3143.55 2
5 -1 2 101543 1958.81 21
-5 1 -2 92221.3 2747.08 67
-5 -1 -1 16209 1371.18 62
-5 -1 -1 21791.3 901.191 20
5 1 1 24191.3 1566.95 3
5 1 1 25315.1 1071.99 18
-5 -1 -1 24479 1317.72 42
-5 -1 -1 22115.2 1376.57 108
5 1 1 25280 1558.97 1
-5 -1 -1 24540.6 1410.96 7
-5 -1 -1 26363.5 1432.34 100
5 1 1 23677.5 1041.72 15
5 1 1 22226 1109.97 32
-5 -1 -1 30444.3 2311.49 70
5 1 1 25150 1000.13 21
-5 -1 -1 12813.6 1151.23 67
5 3 0 43446.9 1528.5 18
-5 -3 0 43094.7 1887.77 42
-5 -3 0 42954.3 2227.04 35
5 3 0 41594.1 1707.46 32
-5 -3 0 37754.9 1238.92 31
5 3 0 38845 1376.02 15
-5 -3 0 40538.9 1749.73 108
-5 -3 0 37246.8 1288.92 71
-5 -3 0 41888.6 3089.47 70
5 3 0 40743.4 1331.21 21
5 5 -1 28673.2 1231.64 18
5 5 -1 28517 1183.9 15
5 5 -1 28040.1 1066.69 21
-5 -7 2 2205.66 223.755 115
5 7 -2 2024 259.419 15
-5 -7 2 2718.27 278.447 95
-5 8 -6 12521.3 691.868 12
5 -8 6 12361.7 859.989 53
5 -8 6 12148.5 756.542 11
-5 8 -6 13622.6 661.789 17
-5 8 -6 12543.2 769.993 10
5 -8 6 11707.5 782.011 27
-5 8 -6 12630.2 639.836 9
5 -8 6 12686.9 967.09 83
-5 8 -6 14759.7 691.629 22
-5 6 -5 5194.32 433.431 64
-5 6 -5 6351.42 491.714 20
-5 6 -5 6470.15 529.961 12
5 -6 5 4895 590.482 53
5 -6 5 5927.5 672.618 11
5 -6 5 4654.31 614.666 112
-5 6 -5 5553.87 470.808 17
-5 6 -5 6206.64 552.762 10
-5 6 -5 6705.19 783.856 106
5 -6 5 4985.68 557.289 27
-5 6 -5 6172.84 478.223 9
5 -6 5 4690.53 687.342 83
-5 6 -5 6065.06 539.855 23
-5 6 -5 5877.61 530.913 22
-5 4 -4 18932.3 843.137 64
-5 4 -4 18833.1 708.463 8
-5 4 -4 19920.6 984.279 61
-5 4 -4 19569.1 879.763 12
-5 4 -4 19586.2 962.485 20
5 -4 4 18199 1104.93 53
5 -4 4 16429.7 1094.83 11
5 -4 4 18835.7 1935.16 5
-5 4 -4 22416.1 1391.99 108
-5 4 -4 20944.7 1372.55 106
5 -4 4 17655.1 1664.33 98
5 -4 4 18715.5 1202.96 92
-5 4 -4 19603.4 828.05 9
5 -4 4 19805.8 1416.59 83
-5 4 -4 19176.6 915.733 10
-5 4 -4 18760.5 993.775 23
5 -4 4 16892 1528 2
-5 4 -4 19001.7 948.522 22
5 -4 4 17806.1 1244.47 112
-5 4 -4 21359.8 1429.67 7
5 -4 4 15002.1 791.685 21
-5 2 -3 16438.6 888.83 20
-5 2 -3 20020.5 1409.6 50
5 -2 3 14653.7 1153.18 3
5 -2 3 15021.9 929.322 11
5 -2 3 18100.6 1713.09 5
-5 2 -3 15254 797.051 10
-5 2 -3 18559 1365.75 108
-5 2 -3 14810.1 960.706 106
5 -2 3 16399.2 1363.03 105
-5 2 -3 18814.6 1336.79 7
5 -2 3 19913.1 1488 98
5 -2 3 18979.3 1259.87 92
5 -2 3 15913.6 959.73 91
5 -2 3 21649.7 1368.08 112
5 -2 3 20842.8 1370.13 83
-5 2 -3 15842.9 863.622 23
-5 2 -3 15699.4 794.425 22
5 -2 3 15913.1 1325.95 2
5 -2 3 13850.4 758.956 21
-5 2 -3 19409.8 1240.28 67
-5 0 -2 2273.41 495.332 62
-5 0 -2 2459.39 329.376 20
5 0 2 2560.45 289.131 113
5 0 2 2450.56 331.634 18
5 0 2 2842.63 528.645 3
-5 0 -2 2992.17 459.241 42
-5 0 -2 3569.98 492.877 39
-5 0 -2 3371.07 569.452 108
5 0 2 3466.23 658.58 105
-5 0 -2 3017 513.575 7
-5 0 -2 3319.84 506.866 100
5 0 2 2492.48 357.577 15
5 0 2 3459.33 555.267 83
-5 0 -2 2570.08 312.429 23
5 0 2 2784.21 342.362 21
-5 0 -2 2532.19 495.027 67
5 2 1 25454.8 1129.09 18
-5 -2 -1 23126.6 1378.3 42
-5 -2 -1 22374.1 1611.61 35
-5 -2 -1 22394.4 1403.18 108
-5 -2 -1 21064.9 1308.56 7
5 2 1 22130.3 1037.21 15
-5 -2 -1 20011.9 927.895 31
-5 -2 -1 22051.6 1017.97 71
-5 -2 -1 25149.4 2265.9 70
5 2 1 22137.4 1136.72 32
5 2 1 22618.1 993.325 21
5 4 0 20720.1 1066.4 18
-5 -4 0 20073 1262.6 44
5 4 0 18741.7 961.149 15
-5 -4 0 18179.1 800.052 31
-5 -4 0 17522.1 824.275 71
-5 -4 0 20615.4 2106.08 70
5 4 0 19480.8 900.501 21
-5 -6 1 1791.68 362.609 62
-5 -6 1 2882.99 303.172 115
5 6 -1 2729.21 335.423 15
-5 -6 1 3286.95 354.024 95
-5 -6 1 2245.26 240.42 90
5 6 -1 2683.06 267.057 14
-5 -6 1 3061.85 619.933 70
-5 -6 1 1769.73 348.839 67
-5 9 -7 157.125 64.7745 19
-5 9 -7 128.453 53.8873 17
5 -9 7 62.8021 74.6769 91
-5 7 -6 3477.57 381.1 12
5 -7 6 3038.26 441.109 53
5 -7 6 2984.7 403.951 11
-5 7 -6 3603.44 354.279 17
-5 7 -6 3383.36 402.51 10
5 -7 6 2997.3 387.494 27
-5 7 -6 3402.13 341.748 9
5 -7 6 2990.63 477.114 83
-5 7 -6 3648.63 359.53 23
-5 7 -6 3537.38 368.229 22
-5 5 -5 17481.3 816.378 64
-5 5 -5 19132.7 710.408 8
-5 5 -5 19054.3 892.479 12
-5 5 -5 17954.3 897.428 20
5 -5 5 17302.8 1098.11 53
5 -5 5 17512.6 1096.65 11
-5 5 -5 18869.7 942.07 10
-5 5 -5 19053.4 777.683 28
-5 5 -5 20567.3 1428.6 106
-5 5 -5 19036.7 833.605 9
5 -5 5 17684.5 1314.74 83
-5 5 -5 17805.3 968.741 23
-5 5 -5 18984.2 965.96 22
-5 3 -4 9723.42 700.401 61
5 -3 4 12765.1 1021.3 112
-5 3 -4 10295.9 727.916 20
-5 3 -4 14413.6 1207.18 50
5 -3 4 9574.75 781.687 11
5 -3 4 11981.9 1472.84 5
-5 3 -4 11881.8 719.254 10
-5 3 -4 11027 953.44 106
-5 3 -4 11687 1113.82 7
5 -3 4 10661.8 1182.17 98
5 -3 4 11304 924.01 92
5 -3 4 6394.49 659.292 91
-5 3 -4 11811.8 1086.51 108
5 -3 4 12614.6 1118.07 83
-5 3 -4 11368.4 784.079 23
-5 3 -4 11085.2 730.335 22
5 -3 4 10590.9 1127.87 2
5 -3 4 9524.49 658.217 21
-5 1 -3 151582 3995.54 108
-5 1 -3 172508 3955.83 62
-5 1 -3 134444 2571.02 20
-5 1 -3 173050 4331.12 50
5 -1 3 140674 2618.35 11
5 -1 3 153401 3947.27 3
-5 1 -3 158796 3359.81 39
-5 1 -3 156637 3951.64 7
-5 1 -3 151178 3443.27 100
5 -1 3 138350 2723.45 15
5 -1 3 153245 2900.37 91
5 -1 3 188687 4161.26 83
-5 1 -3 138501 2549.52 23
5 -1 3 146406 2603.44 21
-5 1 -3 144280 3559.42 67
5 1 2 357.057 128.774 21
-5 -1 -2 522.342 239.874 62
-5 -1 -2 459.612 137.687 20
-5 -1 -2 583.238 215.638 42
-5 -1 -2 608.135 220.444 39
5 1 2 556.524 166.38 18
5 1 2 386.056 103.671 113
-5 -1 -2 711.01 260.349 108
-5 -1 -2 562.291 227.947 100
-5 -1 -2 579.064 228.203 7
5 1 2 446.816 157.054 15
-5 -1 -2 464.131 270.894 67
-5 -3 -1 3349.48 667.756 62
-5 -3 -1 5393.66 681.445 42
-5 -3 -1 4869.49 445.172 31
5 3 1 5429.62 505.776 15
-5 -3 -1 4738.06 599.786 108
-5 -3 -1 5130.99 480.593 71
-5 -3 -1 4999.5 1010.08 70
5 3 1 5359.93 477.409 21
-5 -5 0 794.805 281.828 62
5 5 0 1259.66 237.303 15
-5 -5 0 932.388 173.586 90
5 5 0 1305.67 206.04 21
-5 -5 0 739.613 292.749 70
-5 -5 0 726.04 271.377 67
-5 8 -7 5261.43 406.401 12
5 -8 7 5423.68 418.062 11
-5 8 -7 6085.78 378.639 17
-5 8 -7 5420.69 445.215 10
5 -8 7 4678.27 377.061 27
5 -8 7 3481.12 384.644 91
-5 8 -7 4664.89 340.422 9
5 -8 7 4565.84 427.523 83
-5 8 -7 6186.07 391.348 22
-5 6 -6 649.818 147.32 20
5 -6 6 592.435 205.595 53
-5 6 -6 692.345 168.466 12
-5 6 -6 860.454 165.141 17
5 -6 6 743.487 210.905 11
-5 6 -6 1114.56 313.569 106
5 -6 6 438.598 141.554 27
-5 6 -6 610.228 162.397 10
5 -6 6 705.698 250.169 83
-5 6 -6 902.118 200.942 23
-5 6 -6 577.226 141.994 9
-5 6 -6 707.506 179.438 22
-5 4 -5 12949.4 720.956 64
-5 4 -5 13394.7 616.843 8
-5 4 -5 14448.1 848.902 61
-5 4 -5 15163.9 801.247 12
-5 4 -5 13369.3 828.793 20
5 -4 5 12891 905.931 11
-5 4 -5 14386.2 1159.35 108
-5 4 -5 14927.8 818.629 10
-5 4 -5 16224.6 1245.59 106
-5 4 -5 14484.3 734.189 9
5 -4 5 14790.5 1146.33 83
-5 4 -5 15662.7 940.268 23
-5 4 -5 14301 845.263 22
5 -4 5 11861.5 731.439 21
-5 2 -4 24922.6 1166.97 61
-5 2 -4 29504.3 1274.66 20
-5 2 -4 38483.7 2098.63 50
5 -2 4 28606.4 1245.12 11
5 -2 4 41373.8 2756.56 5
-5 2 -4 32581.8 1227.74 10
-5 2 -4 34351.8 1999.92 108
-5 2 -4 36475.7 2005.89 7
5 -2 4 32881.4 1445.92 91
5 -2 4 38865.7 1915.08 83
-5 2 -4 31745.8 1297.31 23
-5 2 -4 31491.4 1171.68 22
5 -2 4 31137.6 1215.85 21
-5 0 -3 36595.3 1933.17 62
-5 0 -3 35526.2 1316.15 20
5 0 3 42282.6 1406.57 18
-5 0 -3 39672 1832.46 42
-5 0 -3 42067.6 1851.14 39
-5 0 -3 39898.5 2117.81 108
-5 0 -3 39016.1 1983.97 7
-5 0 -3 40685.1 1918.87 100
5 0 3 37624.2 1402.45 15
5 0 3 32214.4 1082.26 113
-5 0 -3 34573.1 1204.8 23
5 0 3 39755.1 1353.26 21
-5 0 -3 32881.6 1819.84 67
-5 -2 -2 5323.03 795.65 62
-5 -2 -2 7628.58 811.996 42
-5 -2 -2 7602.17 827.064 108
5 2 2 7032.46 580.92 15
-5 -2 -2 7032.27 578.35 71
5 2 2 7170.62 557.021 21
-5 -2 -2 4787.6 738.062 67
-5 -4 -1 13331.1 1187.23 62
-5 -4 -1 19360.7 750.273 31
5 4 1 21665.3 960.971 15
-5 -4 -1 18441 769.617 71
5 4 1 21465.7 870.852 21
-5 -4 -1 10606.2 1012.37 67
-5 -6 0 92.9334 31.3493 115
5 6 0 72.393 26.3143 88
-5 7 -7 814.241 166.366 12
5 -7 7 826.499 180.021 11
-5 7 -7 829.401 140.998 17
-5 7 -7 873.393 183.161 10
5 -7 7 576.1 152.694 91
-5 7 -7 882.399 158.704 9
5 -7 7 620.119 165.282 83
-5 7 -7 1009.62 167.251 23
-5 7 -7 986.035 172.63 22
5 -7 7 769.84 152.761 27
-5 5 -6 29807 1034.87 64
-5 5 -6 32675.8 903.845 8
-5 5 -6 33377.6 1167.94 12
-5 5 -6 31973.8 1156.38 20
5 -5 6 30317 1292.79 11
-5 5 -6 33452.1 944.54 28
-5 5 -6 32757.5 1197.6 10
-5 5 -6 36148.5 1789.01 106
5 -5 6 23853.2 1235.11 91
-5 5 -6 34301 1101.4 9
5 -5 6 35936.2 1646.42 83
-5 5 -6 34492.5 1306.69 23
-5 5 -6 34917.4 1274.78 22
5 -5 6 27909.8 1043.46 21
-5 3 -5 4579.44 491.901 61
-5 3 -5 4897.38 456.882 12
-5 3 -5 4843.12 509.923 20
-5 3 -5 6112.14 811.428 50
5 -3 5 4201.25 482.826 11
-5 3 -5 4946.92 725.048 108
-5 3 -5 4831.68 461.221 10
5 -3 5 4781.58 563.178 91
5 -3 5 5663.27 708.465 83
-5 3 -5 4773.94 512.382 23
-5 3 -5 5020.82 490.696 22
5 -3 5 3890.09 430.045 21
-5 1 -4 11616 787.486 20
-5 1 -4 15401.6 1353.82 50
5 -1 4 12552.6 757.815 18
5 -1 4 12054.7 744.611 11
-5 1 -4 11917.5 744.853 10
-5 1 -4 13069.3 1243.64 108
5 -1 4 11371.6 784.509 15
-5 1 -4 11145 729.507 23
5 -1 4 11495.9 736.49 21
-5 1 -4 14707.8 1116.76 67
-5 -1 -3 22833.7 1529.3 62
-5 -1 -3 22410.1 958.122 20
-5 -1 -3 25925.5 1484.43 42
5 1 3 19945.6 826.068 113
-5 -1 -3 23233.6 1533.8 108
5 1 3 22918 1062.64 15
5 1 3 24090.8 1033.5 21
-5 -1 -3 19630 1409.34 67
-5 -3 -2 9148.13 959.271 62
-5 -3 -2 12395.8 657.689 31
5 3 2 14200.7 784.609 15
-5 -3 -2 12170.2 685.338 71
5 3 2 13364.9 704.573 21
-5 -3 -2 8518.41 905.737 67
-5 -5 -1 5836.96 590.961 62
5 5 1 8037.6 499.793 15
-5 -5 -1 3930.31 284.481 90
5 5 1 8601.18 445.9 21
-5 -5 -1 5002.9 523.078 67
-5 6 -7 1294.42 184.98 20
-5 6 -7 1309.2 211.343 12
5 -6 7 1228.85 227.165 11
-5 6 -7 1382.15 231.076 10
5 -6 7 1297.44 250.281 91
-5 6 -7 1424.68 204.606 9
5 -6 7 1452.44 267.238 83
-5 6 -7 1360.54 218.637 23
-5 6 -7 1536.27 235.094 22
5 -4 6 172.877 80.8164 21
-5 4 -6 65.0012 47.9312 64
-5 4 -6 307.647 114.69 61
-5 4 -6 103.97 69.823 20
-5 4 -6 97.9465 77.6492 12
-5 4 -6 168.276 66.8482 8
5 -4 6 111.588 98.6299 11
-5 4 -6 -4.9344 40.5971 108
-5 4 -6 155.516 69.2686 10
5 -4 6 53.5832 78.7593 91
5 -4 6 100.153 56.7912 83
-5 4 -6 170.312 104.018 23
-5 4 -6 52.1589 37.6918 9
-5 4 -6 136.929 73.9992 22
-5 2 -5 17518.2 969.313 61
-5 2 -5 17860.2 982.63 20
5 -2 5 16392.2 882.146 11
-5 2 -5 20842.7 1538.76 108
5 -2 5 15537.8 903.589 15
-5 2 -5 18560.2 898.561 10
5 -2 5 22906.6 1395.9 83
-5 2 -5 17389.7 937.103 23
-5 2 -5 17800.6 842.298 22
5 -2 5 15769.3 849.496 21
-5 0 -4 2060.54 410.29 62
-5 0 -4 1554.46 265.657 20
-5 0 -4 1573.74 357.299 42
5 0 4 1187.01 203.957 113
-5 0 -4 1384.98 245.11 10
-5 0 -4 1625.58 419.943 108
5 0 4 1546.82 272.171 15
5 0 4 1359.4 242.579 21
-5 0 -4 1670.6 376.707 67
5 2 3 538.567 147.404 21
-5 -2 -3 553.953 221.136 62
-5 -2 -3 556.434 139.55 31
5 2 3 515.534 139.782 15
-5 -2 -3 531.316 144.992 71
-5 -2 -3 580.703 246.959 67
-5 -4 -2 3730.98 482.9 62
-5 -4 -2 2332.53 245.151 90
-5 -4 -2 2959.14 250.005 71
5 4 2 4985.84 359.882 21
-5 -4 -2 3266.08 439.988 67
5 4 2 5230.57 412.3 15
5 -7 8 3918.46 329.157 91
-5 7 -8 4261.93 286.407 22
-5 5 -7 10516.6 552.18 64
-5 5 -7 10155.7 455.942 8
-5 5 -7 11460.6 610.442 20
-5 5 -7 11763.1 626.006 12
5 -5 7 10221.6 632.753 11
-5 5 -7 11262.3 622.427 10
5 -5 7 11009.6 716.17 91
-5 5 -7 11651.6 585.758 9
5 -5 7 13962 833.691 83
-5 5 -7 11968.3 682.186 23
-5 5 -7 12138.6 650.09 22
5 -5 7 9354.3 513.928 21
-5 3 -6 7784.06 542.671 64
-5 3 -6 8037.05 468.008 8
-5 3 -6 8641.12 622.469 61
-5 3 -6 8999.77 573.638 12
-5 3 -6 8310.68 628.439 20
5 -3 6 8165.49 605.208 11
-5 3 -6 8767.96 926.941 108
-5 3 -6 8919.22 580.713 10
5 -3 6 7059.82 574.355 15
-5 3 -6 8918.02 557.563 9
-5 3 -6 8396.81 625.687 23
-5 3 -6 8621.88 579.092 22
5 -3 6 7849.85 554.027 21
-5 1 -5 12822.8 816.442 61
-5 1 -5 14140.8 809.991 20
5 -1 5 12269.3 647.254 113
-5 1 -5 16525.8 1322.07 108
-5 1 -5 12899.2 697.4 23
-5 1 -5 15001.3 770.634 10
5 -1 5 13804.9 799.437 15
5 -1 5 13757.9 754.29 21
-5 -1 -4 1095.69 276.866 62
-5 -1 -4 963.77 172.992 20
5 1 4 1286.3 191.624 113
-5 -1 -4 1189.92 205.247 10
5 1 4 1444.74 241.007 15
5 1 4 1306.53 223.899 21
-5 -1 -4 1032.62 272.221 67
-5 -3 -3 3366.56 441.503 62
-5 -3 -3 3505.81 291.435 31
5 3 3 4509.59 377.264 15
-5 -3 -3 3132.73 289.433 71
5 3 3 4320.58 340.717 21
-5 -3 -3 3299.88 428.461 67
-5 6 -8 5298.81 337.469 23
-5 6 -8 6041.64 355.526 22
-5 4 -7 6315.17 425.877 64
-5 4 -7 5468.91 331.994 8
-5 4 -7 6393.1 436.321 12
-5 4 -7 6215.14 463.097 20
5 -4 7 5711.92 446.537 11
-5 4 -7 6422.98 448.884 10
5 -4 7 5325.59 434.678 15
-5 4 -7 6277.27 416.7 9
-5 4 -7 6396.27 478.345 23
-5 4 -7 6670.28 449.565 22
5 -4 7 5443.06 390.521 21
-5 2 -6 1671.86 263.626 61
-5 2 -6 2090.96 258.369 12
-5 2 -6 1994.23 286.169 20
5 -2 6 1754.97 241.325 11
5 -2 6 1670.03 256.305 15
5 -2 6 1465.12 212.474 113
-5 2 -6 1933.55 252.2 10
-5 2 -6 1633.8 242.281 23
5 -2 6 1750.2 246.978 21
-5 0 -5 5064.53 468.348 61
-5 0 -5 5559.54 424.411 20
5 0 5 5642.19 391.124 113
-5 0 -5 6030.76 438.989 10
5 0 5 6440.27 488.89 15
5 0 5 5614.56 435.996 21
-5 -2 -4 9019.84 480.702 31
5 2 4 11721.6 583.426 15
-5 -2 -4 8761.9 475.467 10
-5 -2 -4 8224.48 481.53 71
5 2 4 11061.3 539.51 21
-5 -2 -4 9330.07 663.029 67
5 -5 8 2455.79 226.083 15
-5 5 -8 2462.62 230.941 23
-5 5 -8 2567.43 213.844 22
-5 3 -7 4685.47 347.604 64
-5 3 -7 3863.76 263.734 8
-5 3 -7 4215.46 326.28 12
-5 3 -7 4689.64 378.1 20
5 -3 7 3735.52 316.019 11
5 -3 7 3712.9 291.763 113
-5 3 -7 4022.92 316.885 10
5 -3 7 3821.89 332.726 15
-5 3 -7 4365.74 321.084 9
-5 3 -7 3712.98 323.552 23
-5 3 -7 3151.33 247.028 22
-5 3 -7 4012.49 315.436 71
5 -3 7 3567.66 296.034 21
-5 1 -6 15265.4 719.536 61
-5 1 -6 15496 618.433 12
-5 1 -6 13849.2 634.489 20
5 -1 6 13526.5 555.443 113
-5 1 -6 15640.1 633.194 10
5 -1 6 15297.2 679.922 15
5 -1 6 13862.4 612.744 21
-5 -1 -5 965.183 171.628 61
-5 -1 -5 1279.44 166.754 10
5 1 5 1570.02 196.127 15
-5 -1 -5 1216.01 170.937 31
-5 -1 -5 1097.18 170.328 71
5 1 5 1530.24 188.838 21
-5 2 -7 10124 468.858 20
5 -2 7 8841.81 381.056 113
5 -2 7 10625.8 464.699 15
-5 2 -7 9937.34 433.424 31
-5 2 -7 9791.64 451.008 71
5 -2 7 10181.4 440.424 21
-5 0 -6 13953.9 521.922 31
-5 0 -6 13965.3 549.535 71
5 0 6 14751.2 527.052 21
-6 2 10 4734.35 284.336 85
-6 5 8 12599.6 482.163 86
-6 5 8 13329 465.753 13
-6 3 9 2469.85 238.579 86
-6 3 9 2005.4 206.445 85
-6 1 10 1040.32 144.468 26
-6 1 10 908.685 148.102 76
6 1 -11 1646.38 221.061 16
-6 -1 11 1892.71 175.106 85
-6 -1 11 2224.69 206.964 76
-6 6 7 9199.06 403.713 19
-6 6 7 8260.97 405.538 86
-6 6 7 8589.83 406.576 13
-6 4 8 17179 602.732 19
-6 4 8 14878.7 649.491 86
-6 4 8 14115.1 569.75 85
-6 4 8 12897.8 526.234 81
-6 4 8 16558.9 644.17 13
-6 2 9 9381.63 502.285 86
-6 2 9 10510.2 564.456 81
-6 2 9 9298.05 543.806 78
-6 2 9 9723.82 534.527 76
6 0 -10 3882.65 357.221 58
6 0 -10 2989.9 400.347 16
-6 0 10 6133.13 396.156 26
6 0 -10 3793.51 366.607 80
-6 0 10 5015.86 387.616 78
-6 0 10 4582.03 355.405 76
6 0 -10 2231.83 256.785 68
6 2 -11 2101.25 269.274 16
-6 -2 11 2523.1 215.643 26
-6 -2 11 2025.5 208.65 76
-6 7 6 6040.73 335.964 19
-6 7 6 5471 321.802 13
-6 5 7 3013.91 289.861 19
-6 5 7 2581.11 288.016 28
-6 5 7 2502.28 274.844 86
-6 5 7 2695.71 281.411 13
-6 3 8 6837.68 476.294 28
-6 3 8 6802.32 487.504 86
-6 3 8 7399.22 495.892 81
-6 3 8 6790.22 491.895 78
-6 3 8 7839.91 523.162 76
-6 3 8 6880.16 446.463 13
6 -1 -9 1508.58 244.808 58
-6 1 9 2362.39 273.361 26
-6 1 9 1907.22 231.878 86
-6 1 9 2312.23 288.803 81
-6 1 9 1873.17 268.265 78
-6 1 9 1945.18 258.182 76
6 1 -10 24273.4 943.505 58
6 1 -10 17987 1055.13 16
-6 -1 10 29368.2 930.384 26
6 1 -10 22983.1 1025.63 80
-6 -1 10 24214.5 869.771 78
-6 -1 10 24067.9 866.206 76
6 1 -10 19037 820.563 68
6 3 -11 3412.84 334.286 16
-6 -3 11 3374.52 252.174 26
6 3 -11 3066.29 271.92 80
-6 8 5 7442.71 354.429 19
-6 8 5 8573.66 390.453 74
-6 6 6 2746.61 298.616 28
-6 6 6 3207.4 313.861 19
-6 6 6 2969.83 310.116 86
-6 6 6 3456.82 343.216 74
-6 6 6 2679.76 285.379 13
-6 4 7 5146.16 408.301 19
6 -4 -7 3410.16 956.568 51
-6 4 7 4307.35 413.874 28
-6 4 7 4241.56 404.662 86
-6 4 7 5021.86 416.323 81
-6 4 7 4728.22 415.684 78
-6 4 7 4663.68 404.227 13
6 -2 -8 2317.32 308.969 58
6 -2 -8 3484.92 965.085 51
6 -2 -8 2876.73 870.149 45
-6 2 8 2986.24 322.123 28
6 -2 -8 2754.91 803.769 107
-6 2 8 3866.99 365.283 26
-6 2 8 3415.69 351.694 86
-6 2 8 3615.13 379.211 81
-6 2 8 3503.12 383.714 78
-6 2 8 3610.2 372.405 76
6 0 -9 3549.13 397.402 58
-6 0 9 4087.25 385.077 26
-6 0 9 4323.63 411.992 81
-6 0 9 3846.21 398.966 78
6 0 -9 2730.95 339.389 68
6 2 -10 741.427 168.123 58
-6 -2 10 823.044 166.562 26
6 2 -10 682.739 221.024 16
6 2 -10 714.962 185.894 80
-6 -2 10 648.375 132.727 78
-6 -2 10 812.421 180.065 77
6 2 -10 507.408 144.628 68
-6 -4 11 1695.51 189.917 29
6 4 -11 1808.16 221.985 16
6 4 -11 1614.33 192.583 80
-6 -4 11 1797.53 198.56 77
-6 7 5 1098.53 183.131 19
-6 7 5 885.306 168.307 28
-6 7 5 1016.62 177.965 86
-6 7 5 1300.52 209.743 74
-6 7 5 904.254 165.7 13
-6 5 6 9535.22 599.839 19
6 -5 -6 6267.68 1323.85 45
-6 5 6 8172.32 581.736 28
-6 5 6 8493.39 585.015 86
-6 5 6 8924.86 541.758 81
6 -5 -6 4836.72 1192.43 107
-6 5 6 10476.8 652.291 74
-6 5 6 7994.66 549.469 13
-6 3 7 20276.9 795.886 19
6 -3 -7 18120 2272.22 51
6 -3 -7 14167 1965.51 45
-6 3 7 16946.1 832.454 28
6 -3 -7 11743.4 1799.63 107
-6 3 7 23421.7 886.218 26
-6 3 7 16582.7 842.073 86
-6 3 7 19208.2 885.442 81
-6 3 7 18141.7 883.482 78
-6 3 7 21698.5 938.138 76
-6 3 7 15844.1 756.137 13
6 -1 -8 7498.19 599.223 58
6 -1 -8 8497.85 1560.19 51
6 -1 -8 7656.23 1371.8 107
-6 1 8 10743.6 641.767 26
6 -1 -8 8542.66 626.462 25
-6 1 8 8055.89 542.904 86
-6 1 8 10008.5 655 81
-6 1 8 9406.3 665.586 78
-6 1 8 8735.22 600.661 76
6 -1 -8 6478.85 528.008 68
6 1 -9 14940.8 850.582 58
6 1 -9 10261.8 1274.81 46
-6 -1 9 15753.9 809.292 26
-6 -1 9 13955.4 788.246 96
6 1 -9 14390.8 804.985 25
-6 -1 9 15785.3 812.558 81
-6 -1 9 13858.7 762.185 78
-6 -1 9 14621 817.397 77
6 1 -9 12661.3 1570.49 107
6 1 -9 12466.8 768.41 68
6 3 -10 2292.88 325.191 65
6 3 -10 1733.06 256.017 58
6 3 -10 1266.43 228.215 17
-6 -3 10 2120.53 266.547 96
6 3 -10 1690.66 311.647 16
-6 -3 10 2403.43 289.245 26
6 3 -10 1908.48 248.532 25
6 3 -10 1979.29 314.592 80
-6 -3 10 1809.67 212.297 78
-6 -3 10 2460.51 307.754 77
-6 8 4 3008.52 290.282 28
6 -8 -4 895.391 313.715 59
-6 8 4 2853.49 275.514 19
6 -8 -4 615.394 256.416 93
-6 8 4 3917.97 342.167 74
-6 8 4 2879.19 273.53 13
-6 6 5 9843.11 614.187 19
6 -6 -5 5816.58 1286.19 107
-6 6 5 9150.83 609.405 28
-6 6 5 8560.97 589.414 86
-6 6 5 11752.5 695.936 74
-6 6 5 8405.71 567.134 13
6 -6 -5 4226.84 594.433 66
6 -4 -6 13049.7 837.773 65
-6 4 6 20315.8 860.706 19
6 -4 -6 21043.9 2473.12 45
6 -4 -6 14818.1 1959.78 40
-6 4 6 19233.8 922.519 28
6 -4 -6 19681.5 2381.18 107
6 -4 -6 15790.2 2261.3 104
-6 4 6 20950.7 946.501 78
-6 4 6 24102.4 962.622 76
-6 4 6 21930.9 965.546 74
-6 4 6 19130.6 876.74 13
-6 2 7 8872.91 588.509 28
-6 2 7 10186.8 717.987 20
6 -2 -7 8095.31 609.458 58
6 -2 -7 12045.4 1873.61 51
6 -2 -7 9598.45 1634.79 45
6 -2 -7 8200.41 1499.72 107
-6 2 7 12307.7 672.347 26
6 -2 -7 9802.54 1421.94 102
-6 2 7 9958.57 661.374 87
-6 2 7 10607.3 669.367 81
-6 2 7 10620.4 710.835 78
-6 2 7 11179.4 688.202 76
-6 2 7 9034.32 546.862 13
6 -2 -7 9258.53 913.04 72
6 0 -8 11593.3 783.185 58
6 0 -8 8107.99 1398.17 107
6 0 -8 8753.08 1366.26 102
-6 0 8 13413.2 768.144 26
-6 0 8 10497.3 714.121 96
6 0 -8 10423.6 748.263 25
-6 0 8 12309.8 733.795 81
-6 0 8 11911.3 767.866 78
-6 0 8 12127.8 772.009 77
6 0 -8 12691.4 1030.2 72
6 0 -8 9424.81 688.96 68
6 2 -9 15006.8 873.252 58
6 2 -9 12564.9 1523.96 107
6 2 -9 10328.5 932.371 16
-6 -2 9 17690.5 886.458 26
-6 -2 9 15271.8 840.087 96
6 2 -9 15491.6 874.978 25
6 2 -9 12691 967.282 80
-6 -2 9 14692.7 767.497 78
-6 -2 9 15975.3 878.515 77
6 2 -9 14595.7 860.769 68
6 4 -10 247.957 122.992 16
-6 -4 10 168.725 66.3253 26
-6 -4 10 176.735 70.6935 96
6 4 -10 137.158 67.6997 25
6 4 -10 143.192 67.1952 80
-6 -4 10 196.756 91.1044 77
-6 9 3 3334.33 269.519 19
-6 9 3 3427.61 265.899 13
6 -7 -4 6770.69 1240.22 52
-6 7 4 12469 688.648 19
6 -7 -4 5372.86 1235.77 109
-6 7 4 12686.3 709.24 28
-6 7 4 13057.8 701.906 86
-6 7 4 16206.9 805.843 74
-6 7 4 11270.2 643.105 13
-6 5 5 7484.68 551.139 19
6 -5 -5 6591.21 1322.85 40
6 -5 -5 9370.86 1686.07 107
6 -5 -5 7749.49 1573.36 104
-6 5 5 8841.46 591.63 82
-6 5 5 7866.4 603.121 28
-6 5 5 8819.1 611.258 74
-6 5 5 7769.94 572.251 13
-6 3 6 11644.2 760.994 20
6 -3 -6 11796.2 1206.21 6
6 -3 -6 14609.3 2047.63 45
6 -3 -6 9169.58 1536.9 40
-6 3 6 11044.3 690.484 28
6 -3 -6 12033.8 1845.94 107
-6 3 6 11242.3 989.514 99
-6 3 6 11711.8 737.481 87
-6 3 6 12179.9 719.863 82
6 -3 -6 9849.71 1780.66 104
-6 3 6 12349.9 753.967 78
-6 3 6 13531.7 727.402 76
-6 3 6 12617.6 722.827 74
-6 3 6 10438.5 628.425 13
6 -1 -7 73308.3 3080.6 6
-6 1 7 68753.3 1849.91 20
6 -1 -7 62830.5 1796.67 58
6 -1 -7 74247.6 4691.02 51
6 -1 -7 60844.7 4182.44 45
6 -1 -7 59222.8 2998.52 33
6 -1 -7 50308.9 3720.12 107
6 -1 -7 77756.6 3881.14 102
-6 1 7 82882.9 1809.56 26
-6 1 7 62028.8 2216.54 99
6 -1 -7 58713.6 3325.66 97
-6 1 7 68657 1826.03 96
-6 1 7 64454.8 1637.44 87
-6 1 7 69994.8 1743.97 81
-6 1 7 78952.6 1974.61 77
6 -1 -7 65268.9 2490.7 72
6 -1 -7 56521.5 1632.17 68
6 1 -8 1222.69 264.438 58
6 1 -8 216.319 198.551 46
6 1 -8 643.388 444.511 107
6 1 -8 393.082 277.94 106
-6 -1 8 1013.22 220.924 26
-6 -1 8 1120.16 240.933 96
6 1 -8 1238.98 275.934 25
-6 -1 8 1015.59 218.207 81
-6 -1 8 1024.39 227.407 77
6 1 -8 954.682 226.68 68
6 3 -9 3498.91 437.166 65
6 3 -9 2510.45 351.889 58
6 3 -9 2371.14 419.971 16
-6 -3 9 3463.84 397.767 26
-6 -3 9 2970.34 367.88 96
6 3 -9 2747.63 371.533 25
6 3 -9 2739.03 446.475 80
-6 -3 9 2871.09 314.267 78
-6 -3 9 2952.17 380.12 77
6 3 -9 2744.5 379.717 68
6 5 -10 6950.44 466.518 16
-6 -5 10 6393.21 395.07 26
-6 -5 10 5967.1 366.201 96
6 5 -10 6645.22 422.256 25
6 5 -10 7244.59 497.323 80
-6 -5 10 6518.95 430.939 77
-6 8 3 2931.88 316.187 19
-6 8 3 3748.56 371.232 74
-6 8 3 2738.5 303.626 13
-6 8 3 2989.02 327.228 28
6 -6 -4 18793.5 2146.98 52
-6 6 4 28242.1 1098.45 19
6 -6 -4 23013.9 2490.55 40
6 -6 -4 19694.4 2437.15 109
6 -6 -4 13066.8 1844.34 105
6 -6 -4 27142.7 2954.76 104
-6 6 4 27929.6 1123.95 86
-6 6 4 30831.5 1069.3 82
-6 6 4 27531.4 1135.56 28
-6 6 4 31046.2 1139.55 74
-6 6 4 25928.7 1040.64 13
6 -6 -4 19680.5 1359.71 66
6 -4 -5 25667.2 1199.15 65
-6 4 5 33266.4 1243.5 20
-6 4 5 30642.2 1050.63 19
6 -4 -5 32712.8 3091.14 107
6 -4 -5 31139.2 2813.3 40
-6 4 5 32379.9 1222.53 28
6 -4 -5 29097.9 3025.07 104
-6 4 5 32303.1 1692.86 99
-6 4 5 31780.1 1222.55 87
-6 4 5 33718 1190.49 82
-6 4 5 34801.7 1235.91 78
-6 4 5 31965.1 1197.1 22
-6 4 5 32778.7 1149.59 74
-6 4 5 30706.6 1122.57 13
-6 2 6 2455.83 354.452 20
6 -2 -6 2456.27 539.386 6
6 -2 -6 1773.1 286.632 58
6 -2 -6 1965.72 796.915 51
6 -2 -6 1409.44 660.186 45
-6 2 6 2036.51 287.763 28
6 -2 -6 1371.6 633.838 107
-6 2 6 2017.99 399.276 99
-6 2 6 2063.46 318.458 96
-6 2 6 1988.97 288.862 94
-6 2 6 1895.19 288.645 87
-6 2 6 2451.68 314.846 82
-6 2 6 1867.67 250.778 13
6 0 -7 26252.2 1848.1 6
-6 0 7 23311.1 1059.92 20
-6 0 7 24470.4 1015.98 114
6 0 -7 24994.9 1173.95 58
6 0 -7 25034.4 2724.92 51
6 0 -7 20069.7 2288.87 107
6 0 -7 22525 2062.34 102
-6 0 7 28188.5 1113.09 26
-6 0 7 21274.7 1228.74 99
-6 0 7 22930.3 1055.87 96
-6 0 7 24459.9 1071.14 94
-6 0 7 22611.2 926.122 87
-6 0 7 25922.3 1054.71 81
-6 0 7 27015.1 1158.66 77
6 0 -7 24067.8 1557.14 72
6 0 -7 22401.8 1097.56 68
6 2 -8 3443.34 439.792 58
-6 -2 8 3284.09 530.565 47
6 2 -8 1938.75 695.896 107
-6 -2 8 4155.9 466.125 26
6 2 -8 1657.47 377.982 16
-6 -2 8 3048.71 393.263 96
-6 -2 8 2881.55 364.925 94
6 2 -8 2960.51 434.596 25
-6 -2 8 3015.09 361.341 81
-6 -2 8 3228.04 415.175 77
6 2 -8 2886.06 415.551 68
6 4 -9 12447.8 848.96 16
-6 -4 9 13858.4 768.54 26
-6 -4 9 13334.7 733.145 96
6 4 -9 12880.7 771.716 25
6 4 -9 13454.4 887.644 80
-6 -4 9 13556.1 778.411 77
6 6 -10 6561.68 356.113 25
6 6 -10 7140.81 405.877 80
-6 -6 10 5835.78 337.202 77
-6 9 2 9658.7 527.576 19
-6 9 2 10342.7 531.871 13
6 -7 -3 17777.2 2182.58 52
-6 7 3 25874.2 1054.94 19
6 -7 -3 17452.2 2410.99 109
-6 7 3 26745 1098.7 28
6 -7 -3 14990.1 2003.88 105
-6 7 3 27062.7 1061.18 86
-6 7 3 28750.9 984.211 82
-6 7 3 24559.8 941.381 22
-6 7 3 24668.6 1000.9 13
6 -7 -3 12456.5 1068.31 66
-6 5 4 74003 1797.26 20
6 -5 -4 51685.5 3508.15 52
-6 5 4 65407.9 1650.31 19
6 -5 -4 69792.4 4192.26 40
6 -5 -4 58569.3 4130.88 109
-6 5 4 71172.5 1829.26 28
6 -5 -4 45428.2 3396.33 105
6 -5 -4 85218.4 5114.09 104
-6 5 4 73753 2593.92 99
-6 5 4 72300 1875.38 87
-6 5 4 82559.6 1869.13 82
-6 5 4 72180.5 1786.92 22
-6 5 4 72569.7 1687.24 74
-6 5 4 69722.5 1718.19 13
-6 3 5 24662.1 1073.58 20
6 -3 -5 18491.5 2169.99 40
-6 3 5 23130.7 986.634 28
6 -3 -5 23559.7 2560.36 107
6 -3 -5 16745.5 1885.06 105
6 -3 -5 18999.8 2459.71 104
-6 3 5 24042.9 1375.74 99
-6 3 5 24216.9 959.112 94
-6 3 5 23696.5 1029.61 87
-6 3 5 25343.1 1048.28 23
-6 3 5 23761 982.344 82
-6 3 5 23583.5 1012.16 22
-6 3 5 24930.7 985.934 74
-6 3 5 21676.7 893.707 13
6 -1 -6 46234.2 2334.8 6
-6 1 6 43248.2 1428.95 20
6 -1 -6 44634.1 1509.01 58
6 -1 -6 49250.9 3714.85 51
6 -1 -6 42325.2 3447.55 45
-6 1 6 38282.7 1156.78 28
6 -1 -6 36632.4 3181.25 107
-6 1 6 43180.1 1271.37 114
-6 1 6 42883.3 1767.23 99
-6 1 6 45529 1460.22 96
-6 1 6 43136.9 1356.77 94
-6 1 6 43747.8 1341.45 87
-6 1 6 43024.8 1394.23 23
-6 1 6 53335.6 1568.59 77
6 -1 -6 36398.6 1309.84 68
6 1 -7 38244.9 2232.62 6
-6 -1 7 34481 1250.6 20
6 1 -7 40297.4 1513.53 58
-6 -1 7 38552.7 1686.53 47
-6 -1 7 38460.4 1304.14 114
6 1 -7 33622.6 2908.82 107
-6 -1 7 45439.9 1494.62 26
-6 -1 7 37172 1352.6 96
-6 -1 7 38511.3 1339.84 94
6 1 -7 37483.1 1547.34 25
6 1 -7 41912.6 1454.6 24
-6 -1 7 38649 1274.42 81
-6 -1 7 40626.7 1428.27 77
6 1 -7 44127.3 2125.66 72
6 1 -7 36652.3 1453.2 68
6 3 -8 2734.95 412.461 65
6 3 -8 2104.13 345.214 58
-6 -3 8 2360.16 461.421 47
-6 -3 8 1957.32 290.854 114
6 3 -8 1708.44 589.932 107
6 3 -8 1658.59 392.773 16
-6 -3 8 2312.1 355.239 26
-6 -3 8 2431.57 352.424 96
-6 -3 8 2110.64 296.615 94
6 3 -8 2326.56 379.86 25
6 3 -8 2587.9 345.056 24
6 3 -8 2059.15 414.631 80
-6 -3 8 2308.75 292.53 73
6 5 -9 1584.22 267.47 18
6 5 -9 1939.47 287.464 16
-6 -5 9 2014.33 268.55 26
-6 -5 9 2160.96 264.98 96
6 5 -9 2005.5 278.785 25
6 5 -9 2293.91 325.49 80
-6 -5 9 2035.3 240.901 73
-6 10 1 5365.02 346.741 19
-6 10 1 5589.13 331.575 74
6 -8 -2 3955.63 661.579 56
6 -8 -2 3344.11 929.795 52
-6 8 2 4469.91 423.623 19
6 -8 -2 2881.86 967.323 109
-6 8 2 4688.03 436.027 28
-6 8 2 4388.19 523.71 14
6 -8 -2 2751.92 596.704 84
-6 8 2 4652.85 366.3 82
-6 8 2 3919.82 346.707 22
-6 8 2 4526.07 418.525 13
6 -6 -3 10307.1 1685.61 52
-6 6 3 13388.9 775.617 19
6 -6 -3 14424.5 1890.56 40
-6 6 3 15491.4 839.328 17
6 -6 -3 11391.6 1966.82 109
-6 6 3 13991.7 817.166 28
6 -6 -3 8958.51 1567.32 105
6 -6 -3 16443.7 2201.16 104
-6 6 3 14141.7 1146.37 99
-6 6 3 14485.1 830.012 87
-6 6 3 12900 911.097 14
-6 6 3 16577.6 834.292 82
-6 6 3 14012.7 764.47 22
-6 6 3 13225.9 755.057 13
6 -6 -3 12214.7 1122.85 66
6 -4 -4 41551.8 1521.28 65
-6 4 4 49950.1 1473.9 20
6 -4 -4 34211.5 2792.55 52
-6 4 4 42473.3 1202.97 19
6 -4 -4 44762.7 3269.35 40
6 -4 -4 36685.9 3216.58 109
-6 4 4 46810.4 1423.02 28
6 -4 -4 35287.2 2961.02 105
6 -4 -4 48084.4 3729.98 104
-6 4 4 47554.7 1940.65 99
-6 4 4 49201.5 1490.67 87
-6 4 4 50337.4 1420.79 23
-6 4 4 49281 1442.01 82
-6 4 4 49642.1 1468.35 22
-6 4 4 47852 1323.25 74
-6 4 4 46878.9 1356.57 13
-6 2 5 6997.13 559.756 20
6 -2 -5 7827.49 921.769 6
6 -2 -5 6248.26 520.958 58
6 -2 -5 6458.06 1339.74 45
-6 2 5 6360.25 449.355 114
-6 2 5 6447.85 490.371 28
6 -2 -5 6395.44 1340.36 107
6 -2 -5 5808.79 1058.58 105
6 -2 -5 7735.76 1555.1 104
-6 2 5 5730.89 625.914 99
-6 2 5 7467.09 584.787 96
-6 2 5 6589.68 497.664 94
6 -2 -5 6308.01 581.19 24
-6 2 5 7375.16 562.375 23
-6 2 5 6575.78 501.453 82
-6 2 5 6250.38 498.616 22
-6 2 5 6569.61 496.326 74
-6 2 5 5937.77 433.924 13
6 0 -6 34385.7 2009.81 6
-6 0 6 32964.6 1216.28 20
6 0 -6 34269.1 1322.15 58
6 0 -6 31130.8 2890.49 51
6 0 -6 31919.8 2954.37 45
-6 0 6 34489.1 1169.67 114
6 0 -6 26734.4 2623.94 107
6 0 -6 32378.9 2249.29 102
-6 0 6 31445.1 1421.74 99
-6 0 6 32231.2 1201.67 96
-6 0 6 33869.2 1205.84 94
6 0 -6 33813.9 1330.79 24
-6 0 6 33792.8 1217.29 23
-6 0 6 37478.2 1299.55 77
6 0 -6 34921.8 1891.09 72
6 0 -6 32168.8 1294.45 68
6 2 -7 149.164 103.313 65
-6 -2 7 24.6824 52.61 20
6 2 -7 373.056 148.927 58
-6 -2 7 87.4752 109.42 47
6 2 -7 -146.849 145.123 6
6 2 -7 240.767 275.709 107
6 2 -7 58.605 113.278 16
-6 -2 7 4.78315 63.5463 26
-6 -2 7 106.284 89.0764 94
6 2 -7 76.7771 45.4392 25
6 2 -7 -112.748 82.5378 24
-6 -2 7 223.746 100.621 81
-6 -2 7 114.769 65.9652 73
-6 -2 7 22.7051 36.4893 114
6 2 -7 66.13 96.192 68
-6 -4 8 21354.5 1379.43 47
6 4 -8 19979.6 1761.67 107
-6 -4 8 22779.2 1086.03 26
-6 -4 8 19162.9 843.362 94
6 4 -8 19713.7 1044.73 25
6 4 -8 19782.2 1154.03 16
6 4 -8 21890.9 1006.14 24
6 4 -8 20027.1 1169.5 80
-6 -4 8 20921.9 889.817 73
6 6 -9 1509.09 239.899 18
6 6 -9 2316.51 228.607 16
-6 -6 9 2078.79 221.362 26
-6 -6 9 2203.94 224.263 96
6 6 -9 2320.99 260.409 25
6 6 -9 2666.91 288.509 80
-6 -6 9 2185.89 225.615 73
6 -9 -1 8799.49 966.89 59
6 -9 -1 7721.42 820.338 56
-6 9 1 7757.11 520.637 19
-6 9 1 9560.17 537.569 17
-6 9 1 8818.17 702.572 14
-6 9 1 9060.78 540.016 13
6 -7 -2 9728.52 1706.62 52
-6 7 2 11403.2 727.428 19
-6 7 2 13318.3 777.618 17
6 -7 -2 9019.68 1837.39 109
-6 7 2 11960.9 758.167 28
6 -7 -2 7119.88 1453.44 105
-6 7 2 10457.9 854.323 14
6 -7 -2 9030.74 1213.23 84
-6 7 2 11476 666.899 22
-6 7 2 11528 713.105 13
6 -7 -2 8228.61 904.443 66
-6 5 3 1524.85 250.215 20
6 -5 -3 1078.69 546.029 52
-6 5 3 1454.46 239.93 19
6 -5 -3 1102.6 515.918 40
-6 5 3 1729.85 274.565 17
6 -5 -3 733.699 554.041 109
-6 5 3 1291.44 238.674 28
6 -5 -3 547.86 453.612 105
6 -5 -3 1167.82 545.742 104
-6 5 3 1344.2 337.448 99
-6 5 3 1609.28 278.531 87
-6 5 3 1351.51 295.792 14
-6 5 3 1647.02 247.06 23
-6 5 3 1596 265.945 22
-6 5 3 1432.72 242.678 13
6 -3 -4 35050.7 1452.72 65
-6 3 4 31986.1 1154.21 20
6 -3 -4 25247.4 2519.22 40
6 -3 -4 25773.9 2015.04 93
6 -3 -4 24693.6 2559.95 109
-6 3 4 31070.6 1432.93 108
-6 3 4 29700.9 1057.41 28
6 -3 -4 31835.2 2888.82 107
6 -3 -4 20428.6 2185.9 105
6 -3 -4 26682.7 2838.11 104
-6 3 4 29054.2 1394.64 99
-6 3 4 35246.2 1208.39 96
-6 3 4 29554.2 1011.59 94
-6 3 4 23113.3 1165.21 14
-6 3 4 33480.5 1169.34 23
-6 3 4 29426 1063.61 82
-6 3 4 32637.4 1146.67 22
-6 3 4 30149.5 1029.05 74
-6 3 4 29753.9 1015.05 13
-6 1 5 25610.6 1041.27 20
6 -1 -5 26681.7 1664.24 6
6 -1 -5 24598.1 1067.4 58
6 -1 -5 27117.8 2582.89 51
6 -1 -5 24850.5 2505.7 45
-6 1 5 26791.4 1406.96 108
-6 1 5 22963.8 863.638 28
6 -1 -5 21418.3 2324.8 107
6 -1 -5 23399.6 1864.11 105
-6 1 5 24648.1 1218.42 99
-6 1 5 25407.9 1043.23 96
-6 1 5 25610.2 978.495 94
6 -1 -5 25571.9 1181.59 24
-6 1 5 25115.1 1018.78 23
-6 1 5 23540.5 922.585 82
-6 1 5 23059.9 906.336 22
-6 1 5 25975.8 942.59 114
6 -1 -5 22784.4 1016.29 68
6 1 -6 3233.15 613.228 6
-6 -1 6 3160 366.219 20
6 1 -6 3100.6 402.78 58
-6 -1 6 3271.09 471.364 47
-6 -1 6 3469.84 380.633 114
-6 -1 6 4329.28 575.856 108
6 1 -6 2557.06 782.43 107
-6 -1 6 3168.33 424.535 99
-6 -1 6 3390.03 379.913 94
6 1 -6 3423.01 444.281 24
-6 -1 6 3467.51 387.792 23
-6 -1 6 3039.55 337.644 81
6 1 -6 3045.84 582.856 72
6 1 -6 3223.77 425.7 68
6 3 -7 28523.9 1308.43 65
-6 -3 7 29494.8 1624.16 47
6 3 -7 23947.3 1195.29 18
6 3 -7 25177.8 2273.85 107
6 3 -7 21866.5 1330.05 16
-6 -3 7 30617.3 1320.52 26
-6 -3 7 26207.6 1059.97 94
6 3 -7 26819.5 1317.87 25
6 3 -7 29717.2 1303.16 24
-6 -3 7 26626.1 1079.48 114
6 3 -7 22259.4 1321.23 80
-6 -3 7 29482.4 1090.67 73
6 5 -8 7208.52 658.048 18
6 5 -8 9003.37 641.331 16
-6 -5 8 9127.52 624.66 26
6 5 -8 8660.03 632.913 25
6 5 -8 9099.91 623.344 24
6 5 -8 9115.29 689.606 80
-6 -5 8 8698.36 547.546 73
6 -10 0 3543.99 535.78 59
6 -10 0 5238.96 723.419 57
-6 10 0 5521.78 390.811 19
6 -10 0 2977.17 601.035 93
-6 10 0 5276.34 483.331 14
6 -10 0 3857.01 631.465 84
6 -8 -1 26769.7 1910.65 59
6 -8 -1 26807.2 1765.92 56
6 -8 -1 18460.1 2337.59 52
-6 8 1 24386.3 1041.26 19
-6 8 1 29637.6 1122.07 17
6 -8 -1 18000.3 2551.56 109
-6 8 1 27005.5 1080.03 28
6 -8 -1 15199 2107.92 105
-6 8 1 24119.2 1315.95 14
6 -8 -1 20036.1 1855.58 84
-6 8 1 25577.5 945.921 22
-6 8 1 25292.7 1032.22 13
6 -6 -2 946.192 347.208 66
6 -6 -2 680.836 403.394 52
-6 6 2 782.854 190.827 19
-6 6 2 869.498 204.934 17
6 -6 -2 1198.97 666.159 109
-6 6 2 827.647 192.453 28
6 -6 -2 539.839 431.125 105
-6 6 2 511.184 212.816 99
-6 6 2 934.902 211.476 87
6 -6 -2 485.099 220.23 84
-6 6 2 553.156 168 14
-6 6 2 815.061 188.992 22
-6 6 2 819.35 186.215 13
6 -4 -3 3094.17 409.284 65
-6 4 3 3574.76 368.508 20
6 -4 -3 2176.07 738.754 52
-6 4 3 2543.77 288.588 19
6 -4 -3 3074.17 828.508 40
-6 4 3 2608.03 305.671 17
6 -4 -3 2325.46 823.007 109
-6 4 3 2984.09 422.243 108
-6 4 3 2824.71 326.347 28
6 -4 -3 2062.66 651.964 105
6 -4 -3 3489.14 975.18 104
-6 4 3 3044.25 457.97 99
-6 4 3 2413.41 395.762 14
-6 4 3 3116.2 342.783 23
-6 4 3 3253.61 367.199 22
-6 4 3 2659.74 291.779 74
-6 4 3 2911.95 327.854 13
6 -2 -4 66630.3 2017.25 65
-6 2 4 56372.3 1491.16 20
6 -2 -4 47555.9 1367.59 58
6 -2 -4 61637.5 3857.72 45
6 -2 -4 40254.1 3025.51 40
-6 2 4 56751 1901.4 108
-6 2 4 52077 1299.99 28
6 -2 -4 56394.7 3691.03 107
6 -2 -4 43978.7 2986.54 105
6 -2 -4 47037.8 3622.14 104
-6 2 4 49555.8 1666.06 99
-6 2 4 61514.9 1595.72 96
-6 2 4 53404 1305.85 94
6 -2 -4 55991.1 1792.83 24
-6 2 4 56119.2 1498.37 23
-6 2 4 52288.6 1346.04 82
-6 2 4 52348.1 1382.11 22
6 -2 -4 51768.7 3405.6 109
-6 2 4 51251.5 1285.39 74
-6 2 4 48891.3 1198.78 13
6 0 -5 18456.8 1369.01 6
-6 0 5 18667.7 861.266 20
6 0 -5 17467.5 900.311 58
6 0 -5 18780.2 2095.99 51
-6 0 5 18344.8 987.895 47
6 0 -5 18313.7 2124.69 45
-6 0 5 20368.8 1205.64 108
6 0 -5 12347.9 1693.62 107
6 0 -5 17893.1 1436.39 105
-6 0 5 19385 1035.82 99
-6 0 5 19764.9 868.372 94
6 0 -5 18907 1040.11 24
-6 0 5 18314.5 859.924 23
-6 0 5 17353.6 771.883 82
-6 0 5 16196 728.109 22
6 0 -5 18372.1 1377.18 72
6 2 -6 18251 1068.63 65
-6 -2 6 13305.1 732.553 20
6 2 -6 15101.7 910.785 32
-6 -2 6 15704.9 1119.45 47
6 2 -6 14646 881.493 18
-6 -2 6 14919.7 789.574 114
-6 -2 6 15284.6 1074.03 108
6 2 -6 11066.3 1526.87 107
6 2 -6 9394.8 890.605 16
-6 -2 6 15940.8 815.898 94
6 2 -6 14061.9 946.821 25
6 2 -6 15913.7 977.147 24
-6 -2 6 14613.5 779.85 23
6 2 -6 17921.4 1417.03 72
6 2 -6 14413.6 1273.28 6
-6 -4 7 18186 1257.75 47
6 4 -7 15956.9 1018.31 18
-6 -4 7 17607 860.599 114
6 4 -7 18785.7 1737.33 107
6 4 -7 17843.3 1054.08 16
-6 -4 7 19069.9 1032.3 26
6 4 -7 17678.5 1027.08 25
-6 -4 7 16557.9 799.97 94
6 4 -7 19241.5 1051.18 24
6 4 -7 16953.6 1098.72 80
-6 -4 7 18440.6 858.889 73
6 6 -8 2087.34 331.205 18
6 6 -8 2354.39 237.742 16
-6 -6 8 2816.39 296.095 26
6 6 -8 2480.85 287.735 25
6 6 -8 2879.67 317.652 24
6 6 -8 2905.97 321.202 80
-6 -6 8 2595.81 273.571 73
-6 9 0 363.501 118.491 13
6 -9 0 227.26 224.595 59
6 -9 0 775.252 418.559 57
6 -9 0 184.616 137.513 56
6 -9 0 193.961 243.416 52
-6 9 0 303.006 109.054 19
-6 9 0 354.549 114.205 17
6 -9 0 388.661 218.724 109
6 -9 0 409.841 287.11 84
-6 9 0 186.115 115.664 14
6 -7 -1 6395.08 908.308 56
6 -7 -1 4819.81 1248.25 52
-6 7 1 5650.61 522.962 19
-6 7 1 6996.55 573.966 17
6 -7 -1 4994.68 1431.89 109
-6 7 1 6381.76 558.932 28
6 -7 -1 3345.64 1006.44 105
-6 7 1 5193.39 616.72 14
6 -7 -1 5016.09 999.744 84
-6 7 1 6163.32 506.429 22
-6 7 1 5743.65 495.663 13
6 -7 -1 5379.51 767.023 66
-6 5 2 13545.8 706.144 20
6 -5 -2 10864.5 1759.75 52
-6 5 2 12431.1 707.281 19
6 -5 -2 15745.7 1845.44 40
-6 5 2 13640.1 740.258 17
6 -5 -2 10963.7 1944.38 109
-6 5 2 12008.6 685.621 28
6 -5 -2 10609.2 1730.43 105
6 -5 -2 16656.3 2110.97 104
-6 5 2 14268.2 1026.47 99
-6 5 2 14730.8 803.335 87
-6 5 2 10686.9 852.353 14
-6 5 2 13392 682.889 23
-6 5 2 13774.5 769.423 22
-6 5 2 13200.7 696.06 13
6 -5 -2 15334.9 1291.3 66
6 -3 -3 20550.4 1079.94 65
-6 3 3 19022.2 835.846 20
6 -3 -3 16710.1 1893.07 40
-6 3 3 17063 717.504 17
6 -3 -3 14997.9 2012.96 109
-6 3 3 18499.3 1012.46 108
-6 3 3 17039.7 736.755 28
6 -3 -3 12845.9 1750.95 105
6 -3 -3 17941.5 2181.46 104
-6 3 3 17309.4 971.45 99
-6 3 3 17113.8 701.756 94
6 -3 -3 15916.7 1618.6 93
-6 3 3 17711.6 1075.64 14
-6 3 3 18944.4 849.857 23
-6 3 3 18915.1 845.104 22
-6 3 3 16138.9 701.898 74
-6 3 3 18362 762.028 13
6 -1 -4 29152.5 1303.74 65
-6 1 4 23193.8 928.73 20
6 -1 -4 25602 1526.75 6
6 -1 -4 19705.6 899.385 58
6 -1 -4 23201.7 2218.01 51
6 -1 -4 19200.2 2082.68 45
6 -1 -4 26009.6 2215.72 109
-6 1 4 25537.6 1286.13 108
-6 1 4 21393.5 773.466 28
6 -1 -4 18716 2036.55 107
6 -1 -4 19392.9 1757.31 105
-6 1 4 21983.8 1062.86 99
-6 1 4 23299.1 875.826 94
6 -1 -4 23760.9 1161.64 24
-6 1 4 23302.5 938.206 23
-6 1 4 22779.4 859.535 82
-6 1 4 21476.4 829.815 22
6 1 -5 25690.9 1234.69 65
6 1 -5 18759.2 1369.18 6
-6 -1 5 21186.9 893.439 20
6 1 -5 17653 925.899 58
-6 -1 5 22839.6 1200.71 47
6 1 -5 21042.7 971.913 18
-6 -1 5 23560.1 1284.54 108
6 1 -5 17688.7 1945.18 107
6 1 -5 22036.4 1497.79 105
-6 -1 5 22043.3 1062.31 99
-6 -1 5 23008.5 941.408 94
-6 -1 5 24694.2 928.369 90
6 1 -5 21814.3 1128.37 24
-6 -1 5 20155.8 896.433 23
6 1 -5 24932.4 1583.74 72
6 3 -6 9687.9 750.526 65
-6 -3 6 10617.2 944.169 47
6 3 -6 9330.32 761.522 18
6 3 -6 9518.02 1312.9 107
-6 -3 6 9867.25 647.394 114
6 3 -6 10488.2 781.507 32
6 3 -6 8521.89 810.914 16
-6 -3 6 9562.8 621.677 94
6 3 -6 9613.9 777.674 25
6 3 -6 8513.54 1043.53 1
-6 -3 6 10898.4 685.28 90
6 3 -6 10898.5 832.379 24
-6 -3 6 9503.01 836.532 108
6 3 -6 8916.82 839.021 80
6 5 -7 4593.84 538.084 18
-6 -5 7 5110.5 430.185 114
6 5 -7 5701.87 481.072 16
-6 -5 7 5608.18 516.136 26
6 5 -7 5240.35 510.122 25
-6 -5 7 4638.8 380.215 94
6 5 -7 5929.77 549.366 24
6 5 -7 5655.37 553.83 80
-6 -5 7 5442.81 458.539 73
6 7 -8 209.571 87.9907 18
-6 -7 8 300.291 77.4566 73
6 -10 1 6974.06 861.737 57
-6 10 -1 6191.27 446.198 19
-6 10 -1 7716.61 460.307 17
6 -10 1 4604 809.956 93
-6 10 -1 5831.51 535.513 14
6 -10 1 6513.04 883.038 84
6 -8 0 1561.13 494.966 59
6 -8 0 1831.06 506.991 56
6 -8 0 1301.67 642.553 52
-6 8 0 1544.36 262.855 19
-6 8 0 2121.99 324.051 17
6 -8 0 1783.55 899.097 109
-6 8 0 2088.33 303.386 28
6 -8 0 1890.44 783.536 105
-6 8 0 1747.55 361.114 14
6 -8 0 1439.53 579.621 84
-6 8 0 2218.94 285.927 22
-6 8 0 1863.96 285.1 13
6 -6 -1 4959.17 1239.26 52
-6 6 1 6258.33 535.757 19
-6 6 1 6471.86 542.808 17
6 -6 -1 7603.18 1938.96 109
-6 6 1 6367.21 520.553 28
6 -6 -1 4741.47 1215.52 105
-6 6 1 6661.74 717.163 99
-6 6 1 6990.94 549.337 87
-6 6 1 5665.55 654.764 14
6 -6 -1 6530.6 1118.78 84
-6 6 1 6852.98 543.03 22
-6 6 1 6212.78 485.792 13
6 -6 -1 6791.38 872.437 66
6 -4 -2 26141 1199.91 65
-6 4 2 27384.8 972.086 20
6 -4 -2 28550.1 2417.07 40
-6 4 2 25673 925.105 17
-6 4 2 24610.9 884.863 28
6 -4 -2 18785.7 2374.93 109
6 -4 -2 18087.4 2196.63 105
6 -4 -2 33424.9 2881.73 104
-6 4 2 25105.9 1211.18 99
-6 4 2 26947.7 1340.05 14
-6 4 2 27746.9 1194.72 108
-6 4 2 29592.5 1047.88 23
-6 4 2 28681.4 1070.92 22
-6 4 2 26677.4 926.687 13
6 -4 -2 33177.5 1785.48 66
6 -2 -3 9856.8 741.345 65
-6 2 3 9512.49 584.192 20
-6 2 3 9510.69 707.839 49
6 -2 -3 8652.61 1354.14 45
6 -2 -3 8250.97 1352.01 109
-6 2 3 9568.17 745.324 108
-6 2 3 8622.94 491.529 28
6 -2 -3 9365.92 1420.12 107
6 -2 -3 7043.48 1199.68 105
6 -2 -3 6504.16 1293.51 104
-6 2 3 8136.11 629.181 99
6 -2 -3 9670.04 1184.05 93
-6 2 3 9128.07 781.826 14
-6 2 3 9193.22 580.859 23
-6 2 3 8746.11 536.104 22
-6 2 3 8585.44 481.794 13
6 0 -4 16253.1 961.053 65
6 0 -4 14543.7 1123.04 6
-6 0 4 14932.9 723.333 20
6 0 -4 14309.6 1688.44 51
-6 0 4 15296.7 965.931 49
-6 0 4 14245.9 826.178 47
6 0 -4 15593.3 760.973 18
-6 0 4 17058.4 1070.2 108
6 0 -4 11407.6 1489.72 107
6 0 -4 13254.3 1311.92 105
-6 0 4 15849.5 897.398 99
6 0 -4 15336.6 930.052 24
-6 0 4 13558.3 708.817 23
-6 0 4 11772.1 593.666 82
6 0 -4 14464 1177.51 72
6 2 -5 6703.38 628.986 65
-6 -2 5 7013.44 724.878 47
6 2 -5 6636.53 597.077 18
-6 -2 5 7692.6 565.641 115
-6 -2 5 6588.17 674.411 108
6 2 -5 5811.94 1082.27 107
6 2 -5 4186.03 559.821 16
6 2 -5 7057.6 861.621 105
6 2 -5 5772.26 858.816 1
-6 -2 5 6699.13 508.143 94
6 2 -5 5636.04 582.046 25
-6 -2 5 7582.88 549.123 90
6 2 -5 6492.7 636.88 24
-6 -2 5 6304.65 493.7 23
6 2 -5 7863.02 944.227 72
6 2 -5 5272.52 715.778 6
-6 -4 6 31145.7 1622.45 47
6 4 -6 27508.7 1351.2 18
-6 -4 6 30178 1188.29 115
6 4 -6 33053.3 1410.6 32
-6 -4 6 29009.8 1095.81 114
6 4 -6 35055.9 2363.83 107
6 4 -6 29315.4 1238.93 16
-6 -4 6 28598.4 1304.73 26
6 4 -6 22128.5 1129.42 15
-6 -4 6 27574 1191.84 95
6 4 -6 29814.2 1335 25
-6 -4 6 29180.1 1053.27 94
-6 -4 6 30887 1175.86 90
6 4 -6 30072.1 1357.68 24
6 4 -6 29552.6 1401.53 80
6 6 -7 4621.51 511.304 18
-6 -6 7 5311.13 431.386 26
6 6 -7 5352.63 432.095 25
6 6 -7 5468.3 477.228 24
6 6 -7 5217.9 401.662 14
6 6 -7 6209.42 459.563 80
-6 -6 7 5285.85 410.726 73
6 -9 1 12342.2 1236.48 59
6 -9 1 11133.9 1287.52 57
-6 9 -1 11300.2 702.779 19
6 -9 1 5785.59 702.984 11
-6 9 -1 12997.7 726.856 17
6 -9 1 7318.25 1555.66 109
-6 9 -1 10577.9 858.556 14
6 -9 1 13953.1 1603.01 84
-6 9 -1 12850.9 685.79 13
6 -7 0 2954.38 623.512 56
6 -7 0 2670.28 998.357 52
-6 7 0 2741.64 364.065 19
-6 7 0 3658.33 421.77 17
6 -7 0 2624.77 1102.16 109
-6 7 0 4051.67 436.673 28
6 -7 0 2020.92 792.208 105
-6 7 0 3032.83 484.889 14
6 -7 0 3152.97 826.197 84
-6 7 0 3300.54 377.724 22
-6 7 0 2850.53 351.597 13
-6 5 1 26282.6 944.512 20
6 -5 -1 20177.2 2337.19 52
-6 5 1 24932.3 995.541 19
6 -5 -1 31612.5 2509.05 40
-6 5 1 25675.8 991.204 17
6 -5 -1 20685.2 2636.15 109
6 -5 -1 19014.9 2300.82 105
6 -5 -1 37305.2 2995.89 104
-6 5 1 28724.5 1373.02 99
-6 5 1 24416.5 1338.18 14
6 -5 -1 29087.4 2192.1 84
-6 5 1 27493.5 989.37 23
-6 5 1 27417.5 1238.02 4
-6 5 1 25027.5 927.762 28
-6 5 1 28535.6 1100.2 22
-6 5 1 26806.1 949.302 13
6 -5 -1 30905.4 1795.91 66
6 -3 -2 139840 2757 65
-6 3 2 141246 2219.87 20
-6 3 2 136998 2549.24 49
6 -3 -2 118590 4661.1 40
-6 3 2 115192 1797.96 17
6 -3 -2 103337 5268.13 109
6 -3 -2 94219.1 4706.81 105
6 -3 -2 115037 5116.21 104
-6 3 2 144228 2745.57 108
-6 3 2 128166 2495.09 99
6 -3 -2 130731 4646.5 93
-6 3 2 140612 3053.44 14
-6 3 2 143052 2333.64 23
-6 3 2 136137 2180.63 22
-6 3 2 130617 1929.66 28
6 -3 -2 172533 3820.19 66
6 -1 -3 10953.6 772.547 65
-6 1 3 10999.5 615.667 20
-6 1 3 10950.4 533.767 28
6 -1 -3 10944.4 1373.1 51
-6 1 3 11476.3 799.752 49
6 -1 -3 12116.7 1517.43 45
6 -1 -3 9622.23 587.908 18
6 -1 -3 10128.9 811.604 112
6 -1 -3 12051.7 1565.05 109
-6 1 3 11508.7 850.788 108
6 -1 -3 9235.62 1250.23 105
-6 1 3 10066.5 699.65 99
6 -1 -3 8861.06 1339.71 107
6 -1 -3 10115.8 782.64 24
-6 1 3 10480 606.797 23
-6 1 3 9402 528.181 82
-6 1 3 10067.1 542.896 22
6 1 -4 54100.9 1766.19 65
6 1 -4 48688.4 2016.6 6
-6 -1 4 49481.6 1290.65 20
-6 -1 4 53824.8 1792.85 49
-6 -1 4 60305.5 1939.39 47
6 1 -4 55157.8 1567.81 18
-6 -1 4 54172.3 1873.79 108
6 1 -4 38131.1 2672.33 107
6 1 -4 46879.6 2356.74 105
-6 -1 4 52480.7 1642.3 99
-6 -1 4 55983.4 1426.19 90
6 1 -4 49292.2 1728.59 24
-6 -1 4 49254.9 1336.36 23
6 1 -4 56698.8 2382.57 72
6 3 -5 13465.9 936.763 32
-6 -3 5 15480.1 1105.38 47
6 3 -5 14147.8 926.718 18
-6 -3 5 15227.7 832.87 115
-6 -3 5 13675.9 960.614 108
6 3 -5 15464.5 1634.59 107
6 3 -5 11593.5 753.402 15
6 3 -5 13074.6 904.816 25
-6 -3 5 13741.2 726.149 94
-6 -3 5 15341.1 815.645 90
6 3 -5 14269 954.753 24
6 3 -5 13608 1323.15 1
6 3 -5 12970 973.084 80
-6 -5 6 13735.6 702.925 114
-6 -5 6 14918.8 1080.32 47
6 5 -6 13024.9 922.655 18
6 5 -6 14477.3 1238.13 107
-6 -5 6 12915.2 810.847 26
6 5 -6 10248.7 778.369 15
-6 -5 6 11684.1 743.8 95
6 5 -6 13361.3 809.276 25
-6 -5 6 13235.2 642.867 94
6 5 -6 14265.3 899.31 24
6 5 -6 15682.3 877.175 80
6 7 -7 5577.13 471.559 18
6 7 -7 6682.48 427.23 24
-6 -7 7 6941.26 390.364 73
6 -10 2 4600.3 679.691 57
-6 10 -2 5131.05 422.418 19
-6 10 -2 5775.34 419.632 17
6 -10 2 3686.48 714.934 93
-6 10 -2 3918.07 452.374 14
6 -10 2 5380.45 842.954 84
6 -8 1 39081 2372.24 59
6 -8 1 41043.9 2566.83 57
6 -8 1 40761.7 2265.51 56
-6 8 -1 37335.6 1339.24 19
-6 8 -1 45328.7 1472.97 17
6 -8 1 29789.1 3416.9 109
-6 8 -1 43593.7 1344.57 28
-6 8 -1 40698.3 1291.78 16
-6 8 -1 36584.6 1355.88 10
6 -8 1 27872.5 2987.51 105
-6 8 -1 36574 1702.81 14
6 -8 1 39991.1 2944.03 84
-6 8 -1 43480.1 1340.04 22
-6 8 -1 43372.5 1373.3 13
6 -6 0 2662.95 579.009 66
6 -6 0 2025.18 521.672 56
6 -6 0 2327.16 930.631 52
-6 6 0 2000.02 296.883 19
-6 6 0 2046.34 296.973 17
6 -6 0 2077.5 932.339 109
-6 6 0 2260.83 297.471 28
6 -6 0 1726.25 722.91 105
-6 6 0 2211.1 430.184 14
6 -6 0 2530.22 683.285 84
-6 6 0 2244.59 280.207 23
-6 6 0 2746.67 419.609 4
-6 6 0 1960.08 296.672 22
-6 6 0 2461.03 300.246 13
-6 4 1 34700.9 1098.89 20
-6 4 1 31527.2 966.536 28
-6 4 1 33246.9 1213.21 49
6 -4 -1 33106.8 2409.65 40
-6 4 1 29872 961.318 17
6 -4 -1 22703.1 2599.69 109
-6 4 1 34599.8 1305.14 108
-6 4 1 37877.1 1406.62 7
6 -4 -1 22519.5 2382.2 105
6 -4 -1 36363.9 2781.03 104
-6 4 1 34075.7 1344.81 99
6 -4 -1 25339.7 1387.06 1
6 -4 -1 28240.6 2260.65 93
-6 4 1 34289.1 1565.04 14
6 -4 -1 40486.8 2398.93 84
-6 4 1 35152.3 1164.82 23
-6 4 1 33630.5 1198.06 4
-6 4 1 34983.1 1160.07 22
6 -4 -1 36577.4 1842.56 66
6 -2 -2 49736.6 1637.05 65
-6 2 2 55792.7 1401.88 20
-6 2 2 57488.6 1735.41 49
6 -2 -2 52552.9 3033.32 45
6 -2 -2 47923.3 1908.28 112
6 -2 -2 50426.7 3494.44 109
-6 2 2 57520.6 1872.33 108
-6 2 2 54721.2 1218.24 28
-6 2 2 63507.4 2018.01 7
6 -2 -2 45785.1 2888.97 107
6 -2 -2 39117.1 2773.18 105
-6 2 2 51450.7 1570.57 99
6 -2 -2 58428.6 2960.52 93
-6 2 2 58144.4 1936.71 14
-6 2 2 54049.4 1405.36 23
-6 2 2 51038.5 1253 22
6 -2 -2 59664.9 2130.72 66
6 0 -3 16290.1 944.467 65
6 0 -3 16561.7 1098.94 6
-6 0 3 16015.4 722.205 20
-6 0 3 16220.4 972.939 49
-6 0 3 17995.5 946.313 47
6 0 -3 17310.1 826.511 18
6 0 -3 19041.9 1112.16 112
-6 0 3 17365 1101.31 7
6 0 -3 11711.2 1457.46 107
6 0 -3 13646.5 1387.59 105
-6 0 3 16205.1 931.586 99
6 0 -3 13410.6 985.982 92
-6 0 3 16109.8 1026.27 108
6 0 -3 14755.2 912.062 24
-6 0 3 15015.9 715.128 23
6 0 -3 14440.1 1170.56 72
-6 0 3 15092.2 609.943 28
6 0 -3 17903.9 1110.64 66
6 2 -4 24385.5 1198.96 65
6 2 -4 20989 1675.87 3
-6 -2 4 22259.5 1156.69 49
-6 -2 4 24697.3 1330.87 47
6 2 -4 23768.6 1105.13 18
-6 -2 4 27040.7 1058.76 115
-6 -2 4 22594.8 1223.82 108
6 2 -4 20595 1881.14 107
6 2 -4 26475.5 1774.65 105
-6 -2 4 23410.6 1094.69 99
6 2 -4 21729.9 935.844 15
6 2 -4 20639 1098.27 25
-6 -2 4 23054.6 961.546 90
6 2 -4 22366.4 1187.26 24
6 2 -4 22800.3 1729.19 1
6 2 -4 17136.2 1085.98 80
-6 -4 5 46761.6 1946.27 47
6 4 -5 41757.8 1684.4 18
-6 -4 5 45912.6 1464.3 115
6 4 -5 46992.7 1776.28 32
6 4 -5 51411.4 2623.29 107
6 4 -5 36784.4 1462.49 15
-6 -4 5 45013 1529.24 95
6 4 -5 42348.5 1557.89 25
-6 -4 5 42831 1249.41 94
-6 -4 5 42320 1299.99 114
-6 -4 5 46377.7 1447.98 90
6 4 -5 44444.4 1698.4 24
6 4 -5 45721.2 1613.26 80
6 6 -6 16784.2 993.045 18
-6 -6 6 15415.5 763.407 95
6 6 -6 17290 740.423 25
6 6 -6 19196.6 916.937 24
-6 -6 6 18548.8 786.946 73
6 -9 2 10977.1 1153.64 59
6 -9 2 10711.3 1199.39 57
-6 9 -2 10684.6 695.7 19
6 -9 2 6384.39 713.767 11
-6 9 -2 12397.7 716.904 17
6 -9 2 7936.02 1625.38 109
-6 9 -2 9242.36 700.051 10
6 -9 2 4592.59 679.659 27
6 -9 2 8726.08 1296.23 93
-6 9 -2 9002.05 807.883 14
6 -9 2 12395.4 1510.66 84
-6 9 -2 12464.4 662.171 22
-6 9 -2 12012.8 642.995 13
6 -7 1 15863.7 1486.79 59
6 -7 1 15712 1409.02 56
-6 7 -1 14144 824.989 19
-6 7 -1 16716.1 889.97 17
6 -7 1 9388.23 1845.57 109
-6 7 -1 15327.6 772.977 16
-6 7 -1 16922.4 856.211 28
-6 7 -1 18390.7 1319.7 106
-6 7 -1 14857.2 854.203 10
6 -7 1 13223.3 2048.51 105
6 -7 1 12484.6 1704.85 93
-6 7 -1 14211.9 1093.57 14
6 -7 1 16209.2 1861.05 84
-6 7 -1 16046.2 1084.49 4
-6 7 -1 16343 849.953 22
-6 7 -1 16732.9 835.049 13
-6 5 0 40228.7 1176.16 20
6 -5 0 43008.4 2124.43 56
-6 5 0 36544.5 1179.91 19
6 -5 0 45045.8 2799.53 40
-6 5 0 35314 1133.42 17
6 -5 0 26920 2925.32 109
-6 5 0 38222.2 1133.2 28
-6 5 0 45095.8 1903.05 106
6 -5 0 24830.4 2589.03 105
6 -5 0 47359.5 3125.6 104
-6 5 0 43544.1 1596.95 99
6 -5 0 32206 2513.42 93
-6 5 0 33847.1 1609.43 14
6 -5 0 63771.4 3397.62 84
-6 5 0 42022 1489.62 4
-6 5 0 40425.7 1249.78 23
-6 5 0 39080.6 1282.67 22
6 -5 0 39424.2 2025.5 66
-6 3 1 9674.69 590.025 20
-6 3 1 9408.91 682.659 49
6 -3 -1 5985.49 956.89 40
6 -3 -1 7615.02 1451.36 109
-6 3 1 9254.67 723.93 108
-6 3 1 8810.58 502.594 28
-6 3 1 10181.6 797.458 7
6 -3 -1 5836.1 1140.85 105
6 -3 -1 6040.72 1080.8 104
-6 3 1 8825.29 657.358 99
6 -3 -1 7179.31 764.641 1
6 -3 -1 8224.95 1151.74 93
-6 3 1 8412.73 755.079 14
6 -3 -1 6520.6 711.38 83
-6 3 1 8626.19 570.201 23
-6 3 1 8266.59 526.187 22
6 -3 -1 10184.5 935.375 66
6 -1 -2 974.84 224.836 65
-6 1 2 1183.47 201.66 20
-6 1 2 1187.2 266.163 49
6 -1 -2 1347.07 464.702 45
6 -1 -2 1326.48 217.19 18
-6 1 2 1302.56 211.825 31
6 -1 -2 1131.05 279.283 112
6 -1 -2 1232.77 523.764 109
-6 1 2 1411.94 320.596 108
-6 1 2 1353.33 193.633 28
-6 1 2 1265.12 286.74 7
6 -1 -2 1323.23 514.206 107
6 -1 -2 1057.55 435.6 105
6 -1 -2 1185.42 360.117 1
6 -1 -2 1233.69 355.589 92
6 -1 -2 1141.52 259.214 24
-6 1 2 1034.41 187.23 23
-6 1 2 1942.44 273.84 71
6 -1 -2 1858.54 433.759 66
-6 -1 3 44270 1929.98 62
-6 -1 3 28719.8 954.677 20
6 1 -3 24581 1845.94 3
-6 -1 3 30480.1 1326.66 49
6 1 -3 31235.1 1183.15 18
-6 -1 3 30876.9 1428.34 108
-6 -1 3 31930.3 1532.63 7
6 1 -3 27610.7 2049.88 107
6 1 -3 28632.7 1954.56 105
6 1 -3 30795.6 1011.71 15
6 1 -3 36673.5 1657.82 92
6 1 -3 30066.2 1887.3 1
6 1 -3 30322.8 1362.75 24
-6 -1 3 28118.5 978.358 23
6 1 -3 34653 1869.57 72
-6 -1 3 32889.4 1164.82 71
6 1 -3 24995.8 934.517 21
-6 -1 3 38468.1 1609.24 67
-6 -3 4 31529.8 1370.46 49
-6 -3 4 33204.1 1590.74 47
6 3 -4 32245.8 1379.86 18
-6 -3 4 35313.3 1261.61 115
6 3 -4 29948 1457.22 32
-6 -3 4 29841.3 1396.28 108
6 3 -4 34735.6 2191.23 107
6 3 -4 30076.9 1218.05 15
-6 -3 4 35792.6 1322.09 95
6 3 -4 30142.2 1343.56 25
-6 -3 4 31032.9 1177.12 90
6 3 -4 31801.6 1449.04 24
6 3 -4 33740.7 2043.4 1
-6 -5 5 49215.4 1958.94 47
6 5 -5 46456.8 1799.34 18
-6 -5 5 45522.2 1430.1 115
-6 -5 5 43463.3 1213.27 114
6 5 -5 36853.2 1461.13 15
-6 -5 5 39955.3 1386.98 95
6 5 -5 43918.3 1388.74 25
-6 -5 5 50003.5 1480.64 90
6 5 -5 47003 1648.27 24
6 7 -6 13848.2 730.493 18
6 7 -6 16251.8 678.964 24
6 7 -6 14397.3 572.223 14
-6 -7 6 17556.7 623.396 73
-6 10 -3 2129.43 271.692 19
-6 10 -3 2193.54 254.683 17
6 -10 3 1914.32 440.217 93
-6 10 -3 1752.74 304.845 14
6 -8 2 7459.23 1002.63 59
6 -8 2 8320.76 1118.71 57
-6 8 -2 8046.87 620.613 19
6 -8 2 5292.75 748.231 11
-6 8 -2 8999.2 646.753 17
6 -8 2 5874.53 1513.98 109
-6 8 -2 8229.31 554.742 16
-6 8 -2 9418.59 934.022 106
-6 8 -2 7717.37 668.247 10
6 -8 2 3688.2 1037.27 105
6 -8 2 6926.42 1238.7 93
-6 8 -2 7125.36 782.252 14
6 -8 2 11030.6 1523.62 84
-6 8 -2 8519.09 602.719 22
-6 8 -2 9626.73 641.089 13
-6 6 -1 15677.9 738.539 20
6 -6 1 12617.2 1319.54 59
6 -6 1 12576.6 1216.04 56
-6 6 -1 13519.3 747.143 17
6 -6 1 8802.07 1744.65 109
-6 6 -1 14599.9 747.271 28
-6 6 -1 15424.9 836.742 10
-6 6 -1 15789.9 1191.83 106
6 -6 1 9191.92 1625.8 105
6 -6 1 10230.2 1462.47 93
-6 6 -1 12087.4 1000.12 14
6 -6 1 15231 1705.45 84
-6 6 -1 15142.3 970.397 4
-6 6 -1 15455.1 777.646 23
-6 6 -1 14699.1 823.042 22
-6 4 0 2978.95 332.37 20
6 -4 0 2402.12 469.734 56
-6 4 0 3122.32 385.798 49
-6 4 0 2482.43 271.555 17
6 -4 0 1557.72 680.591 109
-6 4 0 2981.13 411.388 108
-6 4 0 2715.55 291.076 28
-6 4 0 2615.35 286.473 10
-6 4 0 3326.02 451.919 7
-6 4 0 3163.16 461.951 106
6 -4 0 1446.94 595.805 105
-6 4 0 2747.28 379.394 99
6 -4 0 2769.88 689.651 93
-6 4 0 2861.15 460.38 14
-6 4 0 2947.36 351.905 4
-6 4 0 2832.5 338.805 23
-6 4 0 2826.62 330.475 22
6 -4 0 2603.39 511.619 66
-6 2 1 7723.31 535.401 20
-6 2 1 8261.09 521.442 31
6 -2 -1 6544.9 1299.48 109
-6 2 1 7681.48 714.086 108
6 -2 -1 4617.11 797.882 5
-6 2 1 7382.35 468.65 28
-6 2 1 8065.78 739.095 7
6 -2 -1 5906.7 1060.2 105
6 -2 -1 6480.11 733.516 112
6 -2 -1 8627.46 1182.35 93
6 -2 -1 6266.8 742.971 1
-6 2 1 6798.73 671.54 14
-6 2 1 7119.04 511.208 23
-6 2 1 6019.62 420.691 22
-6 2 1 8375.38 548.716 71
6 -2 -1 6671.24 724.234 66
-6 0 2 67320.6 2350.31 62
-6 0 2 45351.2 1215.39 20
-6 0 2 49356.8 1711.67 49
6 0 -2 50440.2 1443.82 18
-6 0 2 50066.8 1369.79 31
-6 0 2 50411.7 1882.31 108
-6 0 2 50260.3 1174.09 28
-6 0 2 51968.3 1898.9 7
6 0 -2 45817.2 2580.05 105
6 0 -2 47662.3 1217.8 15
6 0 -2 50696.3 2026.62 92
6 0 -2 63003.1 2149.59 112
6 0 -2 46802.5 1640.1 24
6 0 -2 47543.4 2279.8 1
-6 0 2 43370.8 1211.77 23
6 0 -2 53467.3 2229.19 72
-6 0 2 49548.5 1430.73 71
6 0 -2 43120.9 1138.66 21
-6 0 2 62036.4 2094.74 67
-6 -2 3 34133.8 1784.95 62
6 2 -3 30658.1 1942.08 3
-6 -2 3 29446.6 1318.37 49
6 2 -3 31668.5 1306.32 18
-6 -2 3 28716.4 1377.75 108
6 2 -3 35509.6 2210.27 105
6 2 -3 30991.8 1135.78 15
6 2 -3 28135.2 1248.5 25
6 2 -3 29360.1 1390.66 24
6 2 -3 31400.7 1947.4 1
-6 -2 3 30341.1 1133.68 71
6 2 -3 25235.8 990.205 21
-6 -2 3 29132.6 1495.87 67
-6 -4 4 39000.3 1750.04 47
6 4 -4 37498.2 1573.03 18
-6 -4 4 40131.8 1375.93 115
6 4 -4 41023.5 1739.7 32
6 4 -4 33102.3 1338.31 15
-6 -4 4 40134.4 1418.48 95
6 4 -4 35923.1 1340.62 25
-6 -4 4 38357.3 1345.25 90
6 4 -4 38041.2 1571.24 24
6 6 -5 3135.98 411.958 18
-6 -6 5 2992.56 335.503 115
6 6 -5 2313.98 349.293 15
-6 -6 5 2278.29 297.538 95
6 6 -5 3093.69 373.115 24
6 -9 3 8733.96 1013.44 57
-6 9 -3 8278.88 600.421 19
6 -9 3 6351.09 676.961 11
-6 9 -3 9247.61 596.302 17
-6 9 -3 9211.88 716.083 10
6 -9 3 4619.81 643.154 27
6 -9 3 8401.72 1118.77 93
-6 9 -3 7551.08 729.727 14
-6 9 -3 10688.8 615.966 22
-6 9 -3 8949.72 516.422 13
6 -7 2 14943.3 1403.59 59
6 -7 2 15465.5 1421.34 57
6 -7 2 16468.9 1421.4 56
6 -7 2 11168.3 1096.42 11
-6 7 -2 17037.2 880.452 17
6 -7 2 11375.7 1943.07 109
-6 7 -2 20837.1 1409.14 106
-6 7 -2 19103.2 862.74 28
-6 7 -2 17617.6 998.82 10
6 -7 2 10874.9 1744.47 105
6 -7 2 9050.72 1369.3 2
6 -7 2 15694.9 1792.03 93
-6 7 -2 15526.3 1165.23 14
6 -7 2 20234.9 2053.11 84
-6 7 -2 17935.9 1137.64 4
-6 7 -2 18405.4 932.604 22
-6 5 -1 24720.1 969.142 20
6 -5 1 19383.8 1424.45 59
6 -5 1 19481.4 1407.08 56
-6 5 -1 19546.4 830.815 17
6 -5 1 16440 2234.89 109
-6 5 -1 23882.9 911.323 28
-6 5 -1 24361.3 1001.56 10
-6 5 -1 25800.3 1433.78 106
6 -5 1 13194.4 1826.41 105
-6 5 -1 24182.8 1159.29 99
6 -5 1 18154.7 1875.86 93
-6 5 -1 24987.4 1136.11 4
-6 5 -1 21358.2 1305.82 14
-6 5 -1 24319.4 1038.31 23
-6 5 -1 23136.1 1012.09 22
-6 3 0 20952.9 911.185 20
6 -3 0 25469.5 1412.53 56
-6 3 0 20993.5 815.971 31
6 -3 0 18993.8 2210.11 109
-6 3 0 22631.7 1236.18 108
-6 3 0 22365 842.271 10
-6 3 0 21053.3 822.429 28
6 -3 0 9193.73 1262.72 5
-6 3 0 19593.4 1053.21 106
-6 3 0 22651.3 1259.09 7
6 -3 0 12925.2 1657.43 105
6 -3 0 21787.1 1912.09 93
-6 3 0 17682.5 1109.84 14
6 -3 0 16760.8 1184.25 83
-6 3 0 18778.5 868.319 23
-6 3 0 18511.3 788.043 22
6 -3 0 16477.3 1104.64 1
-6 3 0 19300.1 820.893 71
6 -3 0 27196.9 1623.68 66
-6 1 1 11351.8 966.454 62
-6 1 1 7819.49 526.294 20
6 -1 -1 6555.8 949.835 3
-6 1 1 9005.68 571.686 31
6 -1 -1 10049 1550.81 109
-6 1 1 7954.91 757.434 108
6 -1 -1 9844.1 880.072 112
-6 1 1 8680.11 773.23 7
6 -1 -1 6368.66 1013.66 105
6 -1 -1 7758.33 506.978 15
6 -1 -1 6781.16 792.277 92
6 -1 -1 7980.61 682.823 24
6 -1 -1 8450.58 701.5 83
-6 1 1 7317.12 503.569 23
6 -1 -1 8097.1 884.164 1
6 -1 -1 7359.56 794.002 72
-6 1 1 8361.22 577.871 71
-6 1 1 10481.6 872.675 67
-6 -1 2 13739.9 1126.02 62
-6 -1 2 11773.8 607.687 20
6 1 -2 13632 1359.77 3
6 1 -2 14830.5 833.273 18
-6 -1 2 15888.8 1071.72 35
-6 -1 2 13379.1 714.489 31
-6 -1 2 12036.3 919.743 108
-6 -1 2 14319.3 1018.12 7
6 1 -2 14250.5 1419.1 105
6 1 -2 13997.1 718.721 15
6 1 -2 14187.7 936.674 24
-6 -1 2 12426.9 641.932 23
6 1 -2 14522.6 1283.35 1
-6 -1 2 13188.8 746.847 71
6 1 -2 13115.1 670.548 21
-6 -1 2 11334 964.762 67
-6 -3 3 26861.6 1624.48 62
6 3 -3 33752.3 1963.97 1
-6 -3 3 30388 1333.24 49
6 3 -3 30779.7 1353.79 18
-6 -3 3 29108.5 1391.11 108
6 3 -3 30477.2 1201.38 15
6 3 -3 30688.8 1546.76 32
-6 -3 3 29227.2 1163.47 90
6 3 -3 31238.8 1471.93 24
6 3 -3 26275.8 1053.74 21
-6 -3 3 23691.5 1414.5 67
-6 -5 4 4148.29 560.278 47
6 5 -4 3290.57 454.116 18
-6 -5 4 4345.24 451.792 115
-6 -5 4 3226.63 311.456 114
6 5 -4 3486.71 443.035 15
-6 -5 4 3220.13 393.82 95
-6 -5 4 3753.36 402.08 90
6 5 -4 3516.9 445.126 24
6 7 -5 640.532 147.435 18
6 7 -5 429.665 125.595 15
6 7 -5 534.715 113.842 14
-6 -7 5 611.51 111.809 73
-6 10 -4 4324.14 359.585 19
-6 10 -4 4394.96 334.086 17
-6 10 -4 3718.84 410.803 14
6 -10 4 3229 487.962 83
6 -8 3 9562.23 1077.61 57
-6 8 -3 10163.9 691.294 19
6 -8 3 6889.62 780.898 11
-6 8 -3 10306.3 663.135 17
6 -8 3 6465.65 1368.63 109
-6 8 -3 12872.1 1075.26 106
-6 8 -3 10420.3 787.891 10
6 -8 3 9889.16 1307.61 93
-6 8 -3 7964.29 794.615 14
-6 8 -3 10300.5 662.455 22
-6 8 -3 11162.6 658.296 13
-6 6 -2 6112.67 480.991 20
6 -6 2 4357.12 697.753 59
6 -6 2 3988.86 658.392 56
6 -6 2 3192.47 615.565 11
-6 6 -2 5067.89 449.719 17
6 -6 2 3774.27 1107.61 109
-6 6 -2 6218.46 481.082 28
-6 6 -2 5763.18 541.851 10
-6 6 -2 5879.59 728.668 106
6 -6 2 3263.45 878.591 105
6 -6 2 3199.34 805.111 2
6 -6 2 4997.41 984.153 93
-6 6 -2 5723.45 595.516 4
-6 6 -2 4758.23 627.322 14
-6 6 -2 5981.09 517.47 23
-6 6 -2 5462.72 511.767 22
-6 4 -1 5776.58 495.41 20
6 -4 1 5595.28 709.766 59
6 -4 1 5105.49 710.54 56
6 -4 1 3101.37 583.445 3
6 -4 1 4372.87 1095.64 109
-6 4 -1 6284.61 652.929 108
-6 4 -1 5322.22 450.553 10
-6 4 -1 6102.25 458.147 28
6 -4 1 2725.63 794.961 5
-6 4 -1 5723.02 630.542 106
-6 4 -1 5643.41 634.855 7
6 -4 1 4170.7 949.831 105
-6 4 -1 6011.47 577.83 99
6 -4 1 6052.87 1076.45 93
-6 4 -1 5700.93 501.545 4
-6 4 -1 4225.95 560.496 14
6 -4 1 3744.5 627.722 83
-6 4 -1 4863.63 461.819 23
-6 4 -1 4654.99 432.992 22
6 -2 0 20458.4 1303.07 1
-6 2 0 22534.4 937.925 20
6 -2 0 16271.4 1423.35 3
6 -2 0 15955.7 1096.29 11
6 -2 0 21568.9 1377.02 112
6 -2 0 24768 2548.33 109
6 -2 0 17580.8 1566.48 5
-6 2 0 23647.4 881.901 10
-6 2 0 23198.9 1321.34 108
-6 2 0 19836.9 991.601 106
-6 2 0 23285.6 1290.44 7
6 -2 0 19190 1858.15 105
6 -2 0 18792.8 836.553 15
6 -2 0 15977.2 1429.93 2
6 -2 0 21447.6 1144.51 24
6 -2 0 21805.3 1271.36 83
-6 2 0 20285 874.43 23
-6 2 0 24799.5 940.329 31
-6 2 0 17992.6 730.19 22
-6 2 0 24754.4 979.732 71
6 0 -1 20607.8 1455.12 1
-6 0 1 21491.4 1421.32 62
-6 0 1 18179.9 791.663 20
6 0 -1 18334.1 1555.48 3
6 0 -1 20199.7 949.803 18
-6 0 1 19653 857.393 31
-6 0 1 20447.8 1220.63 108
-6 0 1 20047.8 1206.72 7
6 0 -1 20356.8 1742.46 105
6 0 -1 19274.4 844.161 15
6 0 -1 22807.1 1445.77 92
6 0 -1 20666.7 1108.46 24
6 0 -1 24397.9 1213.92 83
-6 0 1 16493.1 749.098 23
6 0 -1 22634.9 1410.14 72
-6 0 1 20524.6 921.046 71
6 0 -1 16296.6 703.439 21
-6 0 1 19658.8 1266.03 67
-6 -2 2 9662.6 995.267 62
6 2 -2 12357.6 1186.78 1
-6 -2 2 11500.3 836.54 49
6 2 -2 13617.6 1283.3 3
6 2 -2 12356.5 804.799 18
-6 -2 2 13443.1 1093.43 35
-6 -2 2 11349.8 672.425 31
-6 -2 2 10903.6 889.079 108
-6 -2 2 12167.4 979.215 7
6 2 -2 12718.6 737.775 15
6 2 -2 11282.2 922.645 32
6 2 -2 12534.4 909.732 24
-6 -2 2 10899 688.113 71
6 2 -2 11746.1 678.652 21
-6 -2 2 8630.98 894.223 67
-6 -4 3 5341.36 714.111 62
6 4 -3 6537.33 635.342 18
-6 -4 3 7430.12 599.016 115
6 4 -3 7796.99 784.085 32
6 4 -3 6774.33 595.439 15
-6 -4 3 6473.48 571.347 95
-6 -4 3 6860.26 568.427 90
6 4 -3 7491.15 690.586 24
6 4 -3 6200.67 524.673 21
-6 -4 3 4785.97 629.579 67
6 6 -4 6316.48 558.472 18
-6 -6 4 8265.26 547.276 115
6 6 -4 6419.01 572.399 15
-6 -6 4 7460.28 533.747 95
-6 -6 4 7641.7 499.509 90
6 6 -4 7811.85 556.646 24
-6 9 -4 7847.32 549.007 19
6 -9 4 5244.02 541.65 11
-6 9 -4 7415.81 495.534 17
-6 9 -4 7748.25 621.62 10
-6 9 -4 6270.33 609.005 14
6 -9 4 6300.09 790.146 83
-6 9 -4 8618.2 525.531 22
6 -7 3 54485.9 1952.54 53
6 -7 3 53768 2303.2 11
-6 7 -3 64120 1639.76 17
6 -7 3 57179.5 3998.21 109
-6 7 -3 75428.3 1610 28
-6 7 -3 67394.1 1953.56 10
-6 7 -3 78002 2671.91 106
6 -7 3 72981.5 3541.71 93
-6 7 -3 51868.3 2030.1 14
6 -7 3 48332.8 2464.9 83
-6 7 -3 75767.3 1737.79 23
-6 7 -3 68939.3 1789.76 22
-6 5 -2 8245.47 542.096 12
-6 5 -2 8180.51 593.331 20
6 -5 2 6323.57 774.833 59
6 -5 2 6016.53 760.86 56
6 -5 2 6954.44 632.224 53
6 -5 2 4743.81 718.162 11
-6 5 -2 6257.99 463.977 17
6 -5 2 5710.5 1260.5 109
-6 5 -2 7839.88 534.462 28
-6 5 -2 7736.07 593.703 10
6 -5 2 3700.19 963.279 5
-6 5 -2 7313.77 771.677 106
6 -5 2 4130.83 938.429 105
6 -5 2 2312.83 764.507 98
6 -5 2 7837.06 1205.73 93
6 -5 2 5346.16 993.734 2
-6 5 -2 8596.32 688.808 4
-6 5 -2 6180.7 683.176 14
6 -5 2 5338.34 767.377 83
-6 5 -2 7624.67 596.777 23
-6 5 -2 6950.05 566.137 22
-6 3 -1 26673.1 986.086 61
-6 3 -1 24459.5 1028.98 20
6 -3 1 19640.9 1531.8 3
6 -3 1 22132.8 1237.08 1
6 -3 1 17405.7 1242.09 11
6 -3 1 21054.3 1418.6 112
-6 3 -1 26497.3 956.906 31
6 -3 1 26605.9 2686.94 109
6 -3 1 15922.8 1674.24 5
-6 3 -1 27187.1 995.936 10
-6 3 -1 24656.5 1209.43 106
-6 3 -1 26909.4 1425.62 7
6 -3 1 20684.1 2033.91 105
6 -3 1 17634.1 1649.42 2
-6 3 -1 20243.3 1201.34 14
6 -3 1 20725.8 1366.39 83
-6 3 -1 23384 987.191 23
-6 3 -1 29374.4 1501.98 108
-6 3 -1 21751.4 886.053 22
-6 3 -1 26414.6 1002.99 71
-6 1 0 2080.59 434.373 62
-6 1 0 1375.08 230.001 20
6 -1 0 1779.16 400.82 1
-6 1 0 2088.37 324.155 42
6 -1 0 1255.4 403.968 3
-6 1 0 1866.81 266.188 31
-6 1 0 1382.45 334.188 108
6 -1 0 1993.73 412.981 112
-6 1 0 1709.21 361.09 7
6 -1 0 1277.32 466.28 105
6 -1 0 1619.39 256.125 15
6 -1 0 1442.29 365.002 92
6 -1 0 1576.24 307.094 24
6 -1 0 1571.43 333.989 83
-6 1 0 1464.21 232.999 23
-6 1 0 1625.81 260.07 71
6 -1 0 1367.55 199.726 21
-6 1 0 1714.85 372.699 67
-6 -1 1 3835.11 628.089 62
-6 -1 1 3772.32 357.081 20
6 1 -1 4068.72 654.018 1
6 1 -1 4442.83 728.511 3
6 1 -1 4159.12 448.476 18
-6 -1 1 4490.01 636.221 35
-6 -1 1 3854.84 386.306 31
-6 -1 1 4153.79 570.836 7
-6 -1 1 3686.96 542.716 108
6 1 -1 4337.35 802.982 105
6 1 -1 4120.55 421.305 15
6 1 -1 4261.75 514.852 24
-6 -1 1 3850.86 406.752 71
6 1 -1 3626.47 361.344 21
-6 -1 1 3025.2 532.75 67
-6 -3 2 35968.9 2006.52 62
-6 -3 2 46285 1673.32 49
6 3 -2 48826.8 1678.81 18
6 3 -2 48387.5 1965.96 32
-6 -3 2 45276.1 1344.37 31
-6 -3 2 43134.8 1730.38 108
6 3 -2 51204 1607.44 15
6 3 -2 48972 1794.77 24
-6 -3 2 43915.9 1385.35 71
-6 -3 2 68455.7 3891.68 70
6 3 -2 47090.2 1441.98 21
-6 -3 2 29813 1715.66 67
6 5 -3 13188.9 856.622 18
-6 -5 3 15156.1 815.812 115
6 5 -3 13058.6 842.177 15
-6 -5 3 14617.9 823.083 95
-6 -5 3 14502.1 773.144 90
6 5 -3 14208.1 840.55 24
-6 10 -5 1073.97 158.412 19
-6 10 -5 1190.91 151.597 17
6 -10 5 844.271 207.921 83
6 -8 4 1289.25 285.567 53
6 -8 4 1096.07 308.765 11
-6 8 -4 1339.57 226.343 17
-6 8 -4 1054.67 240.258 10
-6 8 -4 1573.67 359.707 106
6 -8 4 1694.99 487.818 83
-6 8 -4 974.053 255.107 14
-6 8 -4 1327.83 231.625 22
-6 8 -4 1461.52 219.152 13
-6 6 -3 8278.52 577.624 20
-6 6 -3 6774.76 523.736 12
6 -6 3 6079.54 638.27 53
6 -6 3 5382.71 712.995 11
-6 6 -3 6423.35 505.056 17
6 -6 3 6300.37 1305.02 109
-6 6 -3 8044.89 533.37 28
-6 6 -3 7254.8 605.67 10
-6 6 -3 7591.14 825.666 106
6 -6 3 2941.38 822.664 98
6 -6 3 4277.85 1020.12 5
6 -6 3 7540.83 1123.43 93
-6 6 -3 8043.09 713.957 4
6 -6 3 4257.12 837.925 2
-6 6 -3 5184.79 631.001 14
6 -6 3 4713.28 746.091 83
-6 6 -3 7328.01 591.957 23
-6 6 -3 7104.69 583.404 22
-6 4 -2 33747 1183.86 61
-6 4 -2 34423.6 1099.87 12
-6 4 -2 32761.6 1225.92 20
6 -4 2 30773.2 1317.45 53
6 -4 2 24794.6 1534.59 3
6 -4 2 23788.5 1496.57 11
6 -4 2 26389.9 1637.41 112
6 -4 2 34029 3033.86 109
6 -4 2 22413.6 2225.08 5
-6 4 -2 34667.8 1627.46 108
-6 4 -2 33380.3 1184.38 10
-6 4 -2 29207.5 1054.04 28
-6 4 -2 31630.5 1509.23 106
-6 4 -2 36104.1 1717.98 7
6 -4 2 23569.3 2070.71 105
6 -4 2 17285.4 1703.49 98
-6 4 -2 36129.7 1340.96 4
6 -4 2 23898.3 1952.8 2
-6 4 -2 24995.6 1346.99 14
6 -4 2 27117.8 1662.35 83
-6 4 -2 30468.5 1192.49 23
-6 4 -2 29533.1 1108.95 22
-6 2 -1 56790.8 1512.37 61
-6 2 -1 63199.5 1627.59 20
6 -2 1 54851.3 2506.15 3
6 -2 1 57200.4 2055.55 11
6 -2 1 73499 2626.11 112
6 -2 1 60714.2 2207.73 1
-6 2 -1 68044.5 1597.35 31
6 -2 1 58692.3 2862.77 5
-6 2 -1 61904.8 1512.01 10
-6 2 -1 71963.2 2427.19 108
-6 2 -1 66380.8 2284.96 7
6 -2 1 62736 3291.58 105
6 -2 1 56045.3 1602.53 15
6 -2 1 59482 2446.14 92
6 -2 1 61540.6 1914.01 24
6 -2 1 57503.6 2624.5 2
6 -2 1 68566.7 2383.3 83
-6 2 -1 60414.3 1562.96 23
-6 2 -1 54404.4 1310.24 22
-6 2 -1 69340.5 1693.53 71
-6 2 -1 76931.1 2483.1 67
-6 0 0 17260.7 1289.13 62
-6 0 0 15350 761.315 20
6 0 0 18271.8 1521.15 3
6 0 0 18124.1 1333.51 1
6 0 0 18401.5 940.605 18
-6 0 0 19496.8 1078.72 42
-6 0 0 17148.4 816.797 31
-6 0 0 16601.3 1148.12 108
-6 0 0 17928.6 1203.69 7
6 0 0 18643 1699.06 105
6 0 0 18015.6 891 15
6 0 0 21409.1 1486.05 92
6 0 0 18618.9 1026.85 24
6 0 0 22166.8 1278.85 83
-6 0 0 16370.4 769.149 23
-6 0 0 16488.3 842.331 71
6 0 0 16169.5 744.854 21
-6 0 0 17084.6 1234.61 67
-6 -2 1 2887.67 570.203 62
6 2 -1 4395.72 727.874 3
6 2 -1 4515.7 486.584 18
6 2 -1 4257.83 680.794 1
-6 -2 1 4515.95 688.141 35
-6 -2 1 3813.85 397.506 31
-6 -2 1 3444.77 517.375 108
-6 -2 1 3932.19 568.591 7
6 2 -1 5091.88 498.038 15
6 2 -1 4198.49 508.337 24
6 2 -1 3387.24 508.374 32
-6 -2 1 3406.56 393.419 71
6 2 -1 4427.11 423.606 21
-6 -2 1 2028.29 464.224 67
-6 -4 2 820.235 292.873 62
6 4 -2 799.691 219.8 18
6 4 -2 896.169 221.107 15
-6 -4 2 1003.24 213.797 90
6 4 -2 847.37 214.24 24
6 4 -2 966.258 207.854 21
-6 -4 2 950.012 439.217 70
-6 -4 2 782.59 283.341 67
6 6 -3 570.653 161.016 18
-6 -6 3 623.965 141.714 115
-6 -6 3 548.754 144.425 95
6 6 -3 686.499 173.469 15
-6 -6 3 546.162 123.219 90
6 6 -3 772.631 162.605 14
-6 9 -5 2081.73 254.374 19
6 -9 5 1988.8 290.412 11
-6 9 -5 2320.6 251.135 17
-6 9 -5 2182.36 301.562 10
6 -9 5 1824.65 319.164 112
6 -9 5 2039.08 382.418 83
-6 9 -5 2496.65 253.143 22
-6 7 -4 17175.4 844.849 12
6 -7 4 16480 1044.35 53
6 -7 4 14839.7 1082.71 11
-6 7 -4 16532.2 800.1 17
-6 7 -4 17065.8 958.121 10
-6 7 -4 20531.1 1337.12 106
-6 7 -4 12055.1 878.822 14
6 -7 4 14156.1 1242.71 83
-6 7 -4 17789.5 843.219 23
-6 7 -4 18627.8 900.678 22
-6 5 -3 8430.74 570.301 12
-6 5 -3 8512.71 614.755 20
6 -5 3 7157 672.817 53
6 -5 3 6315.22 772.692 11
6 -5 3 6675.31 826.338 112
6 -5 3 8309.94 1444.51 109
6 -5 3 6298.19 1206.22 5
-6 5 -3 9026.82 574.568 28
-6 5 -3 8296.73 628.706 10
-6 5 -3 8021.95 825.807 106
6 -5 3 4483.73 960.558 98
-6 5 -3 8246.14 695.563 4
-6 5 -3 5290.85 611.108 14
6 -5 3 6043.11 961.121 2
6 -5 3 6127.54 812.113 83
-6 5 -3 7754.4 620.125 23
-6 5 -3 7423.31 584.611 22
-6 3 -2 30874.4 1157.35 61
-6 3 -2 29193.9 1167.9 20
6 -3 2 25069.4 1585.04 3
6 -3 2 28898.2 1535.52 11
6 -3 2 29320.4 1708.86 112
6 -3 2 24454.6 2108.97 5
-6 3 -2 31460.9 1118.28 10
-6 3 -2 33911.1 1693.18 108
-6 3 -2 27906.6 1336.96 106
6 -3 2 29965.6 1498.62 1
-6 3 -2 35003.5 1739.97 7
6 -3 2 26753.3 2111.49 105
6 -3 2 24916 1594.73 92
6 -3 2 26626.8 1927.77 2
6 -3 2 29950.6 1699.67 83
-6 3 -2 31161.6 1073.26 31
-6 3 -2 29631.4 1172.77 23
-6 3 -2 27894.5 1036.94 22
-6 3 -2 32685.1 1151.36 71
-6 1 -1 13032.9 1097.52 62
-6 1 -1 10897.3 673.775 20
6 -1 1 10324.1 1091.9 3
-6 1 -1 12296.2 830.401 42
-6 1 -1 10721.9 653.979 31
6 -1 1 10672.6 980.998 1
-6 1 -1 11719.7 1004.53 108
-6 1 -1 11757.5 1000.78 7
6 -1 1 12163.8 1373.01 105
6 -1 1 11512.8 745.879 15
6 -1 1 12791.3 1147.71 92
6 -1 1 13674.9 1048.98 83
-6 1 -1 9854.41 629.799 23
6 -1 1 15193.6 1209.12 112
-6 1 -1 11372.1 700.126 71
6 -1 1 9298.14 566.398 21
-6 1 -1 12443.2 1026.96 67
-6 -1 0 10694.8 1106.75 62
-6 -1 0 11143.8 635.477 20
6 1 0 13427.9 1262.13 3
6 1 0 12117.4 781.356 18
-6 -1 0 12946.2 956.424 42
6 1 0 12672.5 1163.38 1
6 1 0 11304.7 883.446 32
-6 -1 0 11160.2 686.552 31
-6 -1 0 11900.2 994.103 108
-6 -1 0 13339 1069.29 7
6 1 0 15413.6 1601.75 105
6 1 0 13084.2 788.819 15
-6 -1 0 11496 727.627 71
6 1 0 12130.6 690.707 21
-6 -1 0 9779.84 1010.55 67
-6 -3 1 17955.3 1477.34 62
-6 -3 1 20778.1 1128.57 49
6 3 -1 22519.9 1126.16 18
6 3 -1 24707 1362.28 32
-6 -3 1 21543.4 931.357 31
-6 -3 1 20374.9 1211.53 108
6 3 -1 22307.5 1053.46 15
6 3 -1 21561.8 1053.46 24
-6 -3 1 21641.4 982.688 71
6 3 -1 22577.9 995.303 21
-6 -5 2 6565.54 734.24 62
6 5 -2 8517.1 654.149 18
-6 -5 2 9844.24 628.531 115
6 5 -2 8801.09 631.941 15
-6 -5 2 10674.4 676.46 95
-6 -5 2 8588.49 554.485 90
-6 -5 2 6558.19 682.257 67
-6 8 -5 831.503 172.567 12
6 -8 5 1101.57 246.756 11
-6 8 -5 1025.11 177.883 17
-6 8 -5 1132.32 226.276 10
6 -8 5 1151.31 271.346 112
6 -8 5 1195.5 318.58 83
-6 8 -5 1151.02 195.595 22
-6 8 -5 1090.12 162.904 13
-6 6 -4 1062.04 206.284 20
-6 6 -4 1168.98 216.355 12
6 -6 4 1154.85 271.487 53
6 -6 4 857.111 276.573 11
-6 6 -4 1093.9 200.35 17
6 -6 4 1151.03 327.811 112
-6 6 -4 1273.01 198.633 28
-6 6 -4 979.334 221.635 10
-6 6 -4 1308.62 335.845 106
6 -6 4 944.134 288.02 92
6 -6 4 1123.34 351.434 83
-6 6 -4 724.819 211.782 14
-6 6 -4 1132.79 229.315 23
-6 6 -4 999.18 219.865 22
-6 4 -3 14770 817.809 61
-6 4 -3 14214.7 735.742 12
-6 4 -3 14202.2 822.427 20
6 -4 3 11967.8 977.376 11
-6 4 -3 14091.1 782.293 10
6 -4 3 12113.6 1571.3 5
-6 4 -3 17201.5 1181.4 108
6 -4 3 13367.1 1144.11 112
-6 4 -3 14742.8 1074.4 106
-6 4 -3 15042.8 1181.58 7
6 -4 3 11679.3 1268.13 105
-6 4 -3 13686.2 867.834 4
6 -4 3 11119.6 1040.41 92
-6 4 -3 14510.7 685.152 9
6 -4 3 13768.6 1175.48 83
-6 4 -3 13504.4 825.807 23
6 -4 3 12427.8 1334.88 2
-6 4 -3 13172.2 767.515 22
-6 2 -2 11845.5 741.298 61
-6 2 -2 14083.1 808.021 20
6 -2 2 12034.9 1122.26 3
6 -2 2 12664.3 910.49 11
6 -2 2 13389.7 1437 5
-6 2 -2 13583.9 748.86 10
-6 2 -2 15516.6 1206.97 108
-6 2 -2 14630.2 1165.89 7
6 -2 2 14296.6 1434.14 105
6 -2 2 11907.8 797.113 15
6 -2 2 14916.5 1229.34 92
6 -2 2 17518.1 1255.52 83
-6 2 -2 12234.5 743.292 23
6 -2 2 16845.6 1275.13 112
-6 2 -2 12798.6 673.58 22
-6 2 -2 14703.9 805.946 71
6 -2 2 11468 649.988 21
-6 2 -2 16980.2 1188.59 67
-6 0 -1 34859.1 1910.38 62
-6 0 -1 32428.6 1170.98 20
6 0 1 35778 2049.06 3
6 0 1 37666.6 1378.09 18
-6 0 -1 38600.6 1618.46 42
-6 0 -1 33494.3 1197.49 31
-6 0 -1 37527.1 1844.15 108
6 0 1 36718.8 1942.38 1
-6 0 -1 37917.8 1861.49 7
6 0 1 40691.1 2496.14 105
6 0 1 36663.2 1347.42 15
-6 0 -1 34236.2 1157.31 23
6 0 1 29688.6 1340.84 32
-6 0 -1 33970.3 1267.42 71
6 0 1 35189.1 1187.33 21
-6 0 -1 30983.7 1742.77 67
-6 -2 0 12051.7 1231.38 62
6 2 0 14651.4 875.639 18
-6 -2 0 15614.9 1125.23 42
6 2 0 14057.6 985.72 32
-6 -2 0 13238.3 756.877 31
-6 -2 0 12678.9 1028.62 108
6 2 0 14369.3 841.054 15
-6 -2 0 13937.3 814.221 71
6 2 0 14526.3 787.528 21
-6 -2 0 10175 1078.73 67
-6 -4 1 4628.84 698 62
6 4 -1 5669.35 546.737 18
6 4 -1 5932.02 534.868 15
-6 -4 1 5290.26 469.461 90
6 4 -1 5619.26 477.38 21
-6 -4 1 4104.09 635.309 67
-6 -6 2 972.87 160.602 115
6 6 -2 834.784 171.611 15
-6 -6 2 840.138 152.411 95
-6 -6 2 707.539 119.657 90
-6 9 -6 3364.14 276.313 19
-6 9 -6 3892.19 270.019 17
6 -9 6 3471.64 381.068 83
-6 9 -6 4217.18 278.353 22
-6 7 -5 12460.1 686.767 12
6 -7 5 11586.2 840.588 53
6 -7 5 10376.3 785.674 11
-6 7 -5 12715.5 643.938 17
6 -7 5 8935.09 761.502 112
-6 7 -5 12219.6 760.42 10
6 -7 5 10545.2 929.929 83
-6 7 -5 12740 664.79 23
-6 7 -5 12980.4 700.324 22
-6 5 -4 16885.5 822.128 12
-6 5 -4 17910.6 889.346 20
6 -5 4 17260.9 1068.86 53
6 -5 4 14805.2 1052.99 11
-6 5 -4 17191.5 763.917 28
-6 5 -4 17424.7 902.618 10
-6 5 -4 18727.9 1272.9 106
6 -5 4 15266.7 1090.78 92
6 -5 4 15254 1161.64 112
-6 5 -4 18276.5 781.683 9
6 -5 4 15554.1 1249.55 83
-6 5 -4 17123.7 931.66 23
-6 5 -4 17042.7 893.748 22
-6 3 -3 34491 1280.59 61
-6 3 -3 37623.6 1894.5 108
-6 3 -3 35821 1327.06 20
6 -3 3 32977.6 1526.62 11
6 -3 3 29600.5 1666.19 3
6 -3 3 34166.8 2458.48 5
6 -3 3 41112.5 1979.24 112
-6 3 -3 35388.1 1239.56 10
-6 3 -3 40432.8 1993.84 7
6 -3 3 29865.7 1962.76 105
6 -3 3 36150 1839.81 92
6 -3 3 29310.4 1294.48 91
6 -3 3 36550.9 1845.36 83
-6 3 -3 34450 1319.26 23
-6 3 -3 33979.3 1197.41 22
6 -3 3 32864.4 2006.24 2
-6 3 -3 36412.5 1249.4 71
6 -3 3 28062.4 1033.48 21
-6 1 -2 45054.1 2104.71 62
-6 1 -2 37651 1326.24 20
6 -1 2 36069.8 2001.23 3
-6 1 -2 41272.4 1669.91 42
-6 1 -2 38627.1 1969.54 108
-6 1 -2 39962.8 1974.65 7
6 -1 2 40306.3 2376.32 105
6 -1 2 37626.8 1422.89 15
6 -1 2 47887.3 2071.67 83
-6 1 -2 34720.6 1247.14 23
-6 1 -2 36722.6 1326.47 71
6 -1 2 34822.3 1203.67 21
-6 1 -2 44590 2029.51 67
-6 -1 -1 1102.57 329.037 62
-6 -1 -1 1205.39 216.66 20
-6 -1 -1 1120.92 295.289 42
6 1 1 1111.34 229.303 18
6 1 1 1152.06 265.097 32
-6 -1 -1 1422.67 254.504 31
-6 -1 -1 1253.27 341.286 108
6 1 1 921.971 216.309 15
-6 -1 -1 1382.06 259.679 71
6 1 1 1099.9 216.858 21
-6 -1 -1 959.824 311.642 67
-6 -3 0 3198.64 622.711 62
6 3 0 4327.79 470.587 18
-6 -3 0 4159.47 399.16 31
6 3 0 4683.86 465.854 15
-6 -3 0 3941.08 409.856 71
6 3 0 4781.1 446.852 21
-6 -3 0 2614.07 542.348 67
-6 -5 1 100.875 104.305 62
-6 -5 1 455.801 133.433 95
6 5 -1 428.503 130.9 15
-6 -5 1 329.483 97.8255 90
-6 -5 1 408.182 116.527 115
6 5 -1 250.473 82.7531 14
-6 -5 1 319.864 150.16 67
-6 8 -6 2050.2 238.178 12
6 -8 6 2184.86 279.977 11
-6 8 -6 2494.16 235.067 17
-6 8 -6 2480.75 306.238 10
6 -8 6 2604.78 367.219 83
-6 8 -6 2690.11 264.2 22
-6 6 -5 12321.9 649.566 20
-6 6 -5 10657.2 636.966 12
6 -6 5 10232 794.564 11
6 -6 5 8794.62 756.61 112
-6 6 -5 12102.5 549.977 28
-6 6 -5 11032.1 697.711 10
-6 6 -5 13415.9 1058.76 106
-6 6 -5 10653 565.328 9
6 -6 5 10598.8 938.272 83
-6 6 -5 11872.6 703.354 23
-6 6 -5 11926.5 702.533 22
-6 4 -4 6779.09 479.931 64
-6 4 -4 7351.5 577.231 61
-6 4 -4 7664.27 556.928 12
-6 4 -4 7475.93 604.275 20
6 -4 4 6989.66 681.573 11
6 -4 4 8028.49 824.49 112
-6 4 -4 8226.29 828.299 108
-6 4 -4 7555.88 575.489 10
-6 4 -4 7763.33 795.189 106
6 -4 4 7583.06 762.968 92
6 -4 4 4388.04 533.721 91
-6 4 -4 7279.82 499.342 9
6 -4 4 7684.79 862.896 83
-6 4 -4 7517.82 626.639 23
-6 4 -4 7666.45 592.745 22
-6 2 -3 42016.1 1452.11 61
-6 2 -3 50001.3 1593.48 20
6 -2 3 50171 1662.53 11
-6 2 -3 50055.3 1495.61 10
-6 2 -3 53305.4 2338.6 108
-6 2 -3 56330.7 2442.04 7
6 -2 3 49561.4 1667.54 15
6 -2 3 61573.5 2402.7 83
-6 2 -3 48815.1 1555.41 23
-6 2 -3 49562.2 1351.84 22
6 -2 3 43353.3 1344.86 21
-6 0 -2 39266.7 2026.36 62
-6 0 -2 30509.1 1167.34 20
6 0 2 32890.8 1274.16 18
-6 0 -2 33763.7 1612.51 42
-6 0 -2 30315.2 1185.86 31
-6 0 -2 35816.2 1877.45 108
6 0 2 31846.7 1277.06 15
-6 0 -2 30787.4 1102.61 23
-6 0 -2 32575 1289.57 71
6 0 2 31148 1169.75 21
-6 0 -2 34697 1851.55 67
-6 -2 -1 10220.1 1085.11 62
6 2 1 11070.5 728.432 18
-6 -2 -1 12728.5 1022.11 42
-6 -2 -1 11354.1 976.308 108
6 2 1 9985.26 682.473 15
-6 -2 -1 10508.4 666.101 31
-6 -2 -1 10459.6 699.543 71
6 2 1 10272.7 656.684 21
-6 -2 -1 7885 920.396 67
-6 -4 0 1602.04 364.68 62
6 4 0 2107.03 292.785 15
-6 -4 0 1503.94 226.381 90
6 4 0 2163.76 270.917 21
-6 -4 0 1187.89 304.176 67
-6 7 -6 5423.01 411.926 12
6 -7 6 4686.59 436.753 11
-6 7 -6 5542.43 460.605 10
6 -7 6 5721.62 561.854 83
-6 7 -6 5511.12 392.469 23
-6 7 -6 5874.35 425.459 22
-6 5 -5 5612.94 407.685 64
-6 5 -5 6049.97 485.506 12
-6 5 -5 6208.35 498.212 20
6 -5 5 5421.79 556.574 11
-6 5 -5 6360.11 429.381 28
-6 5 -5 5695 495.468 10
-6 5 -5 6116.97 713.571 106
6 -5 5 4692.52 518.589 91
-6 5 -5 6770.05 463.82 9
6 -5 5 6200.02 711.579 83
-6 5 -5 6174.46 538.638 23
-6 5 -5 6129.67 510.038 22
-6 3 -4 4142.49 443.918 61
-6 3 -4 4746.83 495.523 20
6 -3 4 4523.53 515.65 11
-6 3 -4 4997.7 701.004 108
-6 3 -4 4563.8 445.376 10
6 -3 4 3621.41 449.331 15
6 -3 4 4562.89 506.174 91
6 -3 4 5312.38 694.33 83
-6 3 -4 4318.15 469.779 23
-6 3 -4 4460.73 430.604 22
6 -3 4 3614.93 383.893 21
-6 1 -3 2555.33 373.499 61
-6 1 -3 3287.62 399.178 20
6 -1 3 2987.53 379.697 18
-6 1 -3 3140.77 486.823 42
-6 1 -3 3394.3 396.385 10
-6 1 -3 3598.77 627.423 108
6 -1 3 3028.62 395.858 15
-6 1 -3 3003.05 364.636 23
6 -1 3 3021.79 367.635 21
-6 1 -3 3811.92 586.736 67
-6 -1 -2 12364.4 1143.3 62
-6 -1 -2 10658.5 621.16 20
6 1 2 12063.4 746.258 18
-6 -1 -2 12061.5 983.484 42
-6 -1 -2 10526.2 683.53 31
-6 -1 -2 11662.6 1045.02 108
6 1 2 11315.1 732.863 15
-6 -1 -2 10967.7 728.69 71
6 1 2 11576.9 700.563 21
-6 -1 -2 10272.8 1006.26 67
-6 -3 -1 5446.09 704.63 62
-6 -3 -1 5445.93 418.76 31
6 3 1 5686.76 470.905 15
-6 -3 -1 5405.8 439.444 71
6 3 1 5944.69 458.774 21
-6 -3 -1 5161.31 675.612 67
-6 -5 0 2799.14 250.033 115
6 5 0 2549.78 261.89 15
6 -8 7 253.653 81.801 91
-6 8 -7 417.973 84.8743 22
-6 6 -6 6608.94 423.198 20
-6 6 -6 6874.92 480.887 12
6 -6 6 5999.06 508.132 11
-6 6 -6 6591.04 502.766 10
6 -6 6 5000.78 482.363 91
-6 6 -6 6350.15 405.821 9
6 -6 6 6593.6 613.064 83
-6 6 -6 6890.58 495.25 23
-6 6 -6 7009.45 486.635 22
-6 4 -5 8637.12 530.148 64
-6 4 -5 8648.33 601.31 61
-6 4 -5 9249.14 591.294 12
-6 4 -5 9517.12 653.597 20
6 -4 5 7893.52 640.959 11
-6 4 -5 9406.98 865.934 108
-6 4 -5 8971.6 612.497 10
6 -4 5 8518.43 673.708 91
-6 4 -5 8955.99 540.765 9
6 -4 5 9904.14 881.974 83
-6 4 -5 9230.28 677.137 23
-6 4 -5 8893.19 597.991 22
6 -4 5 6834.52 485.744 21
-6 2 -4 24623.7 1103.4 61
-6 2 -4 26607.2 1153.39 20
6 -2 4 24192.1 1042.21 18
6 -2 4 25160.7 1082.37 11
-6 2 -4 27725.6 1106.86 10
-6 2 -4 28382 1715.7 108
6 -2 4 23220 1093.02 15
-6 2 -4 25188.2 1077.52 23
6 -2 4 22287.2 962.134 21
-6 0 -3 17746.3 854.627 20
6 0 3 20097.3 920.195 18
-6 0 -3 18361.4 1190.89 42
-6 0 -3 17346.6 873.853 10
-6 0 -3 19870.4 1384.16 108
6 0 3 18188.6 928.945 15
-6 0 -3 18797.8 915.165 31
-6 0 -3 19041 962.501 71
6 0 3 19036.5 885.892 21
-6 0 -3 22199.7 1390.53 67
-6 -2 -2 3480.46 551.262 62
-6 -2 -2 3007.79 328.788 31
6 2 2 3136.8 354.224 15
-6 -2 -2 3290.45 360.58 71
6 2 2 3510.73 351.872 21
-6 -2 -2 3180.42 512.375 67
-6 -4 -1 917.001 219.267 62
6 4 1 1130.11 184.524 15
-6 -4 -1 885.211 140.642 90
6 4 1 1144.03 162.294 21
-6 -4 -1 1189.53 245.23 67
6 -7 7 1026.35 161.353 15
6 -7 7 1258.1 193.408 91
-6 7 -7 1412.31 159.201 23
-6 7 -7 1584.51 181.918 22
-6 5 -6 9770.08 493.709 64
-6 5 -6 13184.8 656.909 20
-6 5 -6 12495.2 631.644 12
6 -5 6 11511.1 681.917 11
-6 5 -6 13528.4 523.739 28
-6 5 -6 12656.4 680.01 10
6 -5 6 8974.91 597.337 15
6 -5 6 12377.9 740.204 91
-6 5 -6 12232.4 577.66 9
6 -5 6 14393.7 905.723 83
-6 5 -6 13367.3 714.727 23
-6 5 -6 13555.4 674.578 22
-6 3 -5 9919.15 576.221 64
-6 3 -5 11188.3 691.249 61
-6 3 -5 11460.5 653.186 12
-6 3 -5 10983.9 708.137 20
6 -3 5 9327.98 627.79 11
-6 3 -5 11019.3 623.006 31
-6 3 -5 11689 678.788 10
6 -3 5 9353.57 652.392 15
-6 3 -5 11343.3 609.378 9
6 -3 5 13204.7 995.906 83
-6 3 -5 10754.8 688.757 23
-6 3 -5 10951.2 604.454 22
-6 3 -5 11158.2 656.664 71
6 -3 5 8751.96 554.554 21
-6 1 -4 6439.36 558.066 61
-6 1 -4 6921.16 540.993 20
6 -1 4 6623.18 497.089 18
-6 1 -4 6692.48 524.493 10
-6 1 -4 7499.13 841.402 108
6 -1 4 6410.91 530.795 15
-6 1 -4 5995.23 455.321 23
-6 1 -4 7271.33 579.173 71
6 -1 4 5731.01 469.898 21
-6 -1 -3 10969.8 631.391 31
-6 -1 -3 9960.44 603.058 10
6 1 3 11051.3 651.443 15
-6 -1 -3 10400.5 645.736 71
6 1 3 11604.6 628.28 21
-6 -1 -3 12456.7 946.861 67
6 3 2 155.846 66.3426 21
-6 -3 -2 -2.67537 61.7988 62
-6 -3 -2 38.6274 35.7929 31
6 3 2 112.158 66.0632 15
-6 -3 -2 36.0768 18.4113 71
-6 -3 -2 10.6398 41.1685 67
6 -6 7 664.96 129.284 15
6 -6 7 905.752 161.749 91
-6 6 -7 1080.22 157.216 23
-6 6 -7 874.462 138.052 22
-6 4 -6 8368.02 463.424 64
-6 4 -6 9889.42 553.511 12
-6 4 -6 10824.8 612.128 20
6 -4 6 8735.74 554.679 11
-6 4 -6 9031.06 450.534 28
-6 4 -6 9754.87 567.557 10
6 -4 6 8087.91 537.114 15
-6 4 -6 10204.1 518.608 9
-6 4 -6 9941 598.026 23
-6 4 -6 9607.25 522.24 22
6 -4 6 7474.01 430.795 21
-6 2 -5 5836.56 483.609 61
-6 2 -5 5596.11 427.795 12
-6 2 -5 5697.94 473.526 20
6 -2 5 4346.86 325.278 113
-6 2 -5 5497.92 436.175 31
-6 2 -5 5642.88 449.299 10
6 -2 5 4533.11 420.192 15
-6 2 -5 4946.18 408.933 23
-6 2 -5 5970.17 477.87 71
6 -2 5 4401.76 374.888 21
-6 0 -4 5870.15 493.026 61
-6 0 -4 5976.78 416.805 20
-6 0 -4 6713.86 468.659 10
6 0 4 6649.05 489.845 15
-6 0 -4 6582.51 474.622 31
-6 0 -4 6150.47 482.379 71
6 0 4 6574.89 454.98 21
6 2 3 96.6018 53.0384 21
-6 -2 -3 159.632 83.5069 61
-6 -2 -3 125.272 63.1659 31
-6 -2 -3 90.5555 51.6324 10
6 2 3 170.093 64.025 15
-6 -2 -3 142.13 67.1916 71
-6 -2 -3 201.384 109.663 67
-6 5 -7 6737.01 360.91 20
-6 5 -7 6608.93 386.181 23
-6 5 -7 5900.66 327.379 22
-6 3 -6 1784.57 206.07 64
-6 3 -6 1919.59 222.133 12
-6 3 -6 1753.82 233.846 20
6 -3 6 1255.95 152.866 113
-6 3 -6 1684.76 195.669 31
-6 3 -6 1852.36 229.467 10
6 -3 6 1656.25 223.816 15
-6 3 -6 2099.4 221.079 9
-6 3 -6 1572.6 206.973 23
-6 3 -6 1699.78 206.029 71
6 -3 6 1339.79 174.296 21
6 -1 5 370.803 102.659 21
-6 1 -5 247.325 96.5727 61
-6 1 -5 221.228 77.4409 20
-6 1 -5 277.216 85.7979 12
-6 1 -5 284.002 90.1626 31
6 -1 5 245.837 89.1866 15
-6 1 -5 331.418 102.758 71
-6 -1 -4 7713.31 421.105 31
-6 -1 -4 7632.3 415.005 10
6 1 4 7699.26 442.138 15
-6 -1 -4 7697.51 443.071 71
6 1 4 7467.36 407.632 21
6 -4 7 7790.41 376.075 15
-6 2 -6 15069.8 575.47 20
6 -2 6 15214.1 583.85 15
-6 2 -6 16080.7 558.94 31
-6 2 -6 15077.6 569.472 71
6 -2 6 13928.6 505.303 21
-6 0 -5 822.549 125.53 31
6 0 5 840.026 128.018 15
-6 0 -5 743.539 127.092 71
6 0 5 727.161 115.914 21
-7 5 8 9777.98 410.14 86
-7 3 9 614.767 119.525 86
7 -1 -10 486.381 140.473 16
-7 1 10 751.04 120.589 76
-7 6 7 3016.26 235.928 86
-7 6 7 3153.24 237.866 13
-7 4 8 954.214 161.753 28
-7 4 8 1041.36 167.285 86
-7 4 8 1133.33 166.603 81
-7 4 8 925.872 143.912 13
-7 2 9 1475.64 190.906 86
-7 2 9 1911.36 238.038 81
-7 2 9 1729.32 222.081 78
-7 2 9 1612.31 197.806 76
7 0 -10 2710.98 339.376 65
7 0 -10 1979.56 242.11 58
7 0 -10 1989.42 317.425 16
7 0 -10 2215.59 290.146 80
-7 0 10 3179.45 293.861 78
-7 0 10 2964.77 264.307 76
-7 7 6 14151.7 503.426 13
-7 5 7 12210.2 602.684 28
-7 5 7 11704 574.413 86
-7 5 7 12348.4 544.008 81
-7 5 7 12910.1 593.479 13
-7 3 8 8587.13 502.689 28
-7 3 8 7926.75 501.596 86
-7 3 8 9522.88 566.144 81
-7 3 8 8486.47 517.162 78
7 -1 -9 2863.21 386.196 65
7 -1 -9 1987.4 271.556 58
-7 1 9 2611.74 253.11 86
-7 1 9 3512.32 345.332 81
-7 1 9 2938.85 323.699 78
-7 1 9 2892.01 294.057 76
7 1 -10 1319.46 245.699 65
7 1 -10 1385.89 215.16 58
7 1 -10 913.809 233.705 16
7 1 -10 1104.26 219.97 80
-7 -1 10 1254.91 185.846 78
-7 -1 10 1342.23 187.547 76
-7 6 6 11472.5 587.653 28
-7 6 6 11562.7 577.423 86
-7 6 6 10179.7 471.727 81
-7 6 6 11512.1 566.982 13
-7 4 7 1208.53 214.202 28
-7 4 7 988.941 184.831 86
-7 4 7 1097.56 193.057 81
-7 4 7 1130.55 190.432 78
-7 4 7 1054.53 184.577 13
7 -4 -7 979.133 267.605 72
7 -2 -8 1155.93 249.23 65
7 -2 -8 735.343 173.753 58
7 -2 -8 1182.47 577.287 51
7 -2 -8 1382.62 242.724 25
-7 2 8 1562.03 235.956 86
-7 2 8 1726.05 259.814 81
-7 2 8 1542.61 246.439 78
-7 2 8 1543.33 218.206 76
7 0 -9 6300.93 604.834 65
7 0 -9 4754.83 448.165 58
7 0 -9 5925.37 488.579 25
-7 0 9 6747.45 491.95 81
-7 0 9 6119.46 484.898 78
-7 0 9 5754.31 439.617 76
7 2 -10 1353.21 239.57 65
7 2 -10 604.052 136.837 17
7 2 -10 1160.73 249.472 16
7 2 -10 1196.77 180.999 25
7 2 -10 1230.42 235.179 80
-7 -2 10 1407.75 187.133 78
-7 -2 10 1606.95 222.474 77
-7 7 5 7460.15 451.004 19
-7 7 5 6556.81 433.874 28
-7 7 5 7263.62 446.551 86
-7 7 5 6235.09 409.238 13
-7 5 6 16342.5 701.28 19
7 -5 -6 12405 1867.71 51
-7 5 6 14104.5 736.093 28
-7 5 6 13509.5 708.568 86
-7 5 6 16999 780.189 74
-7 5 6 14367.5 714.547 13
7 -3 -7 6311.11 618.854 65
-7 3 7 8723.09 627.619 20
7 -3 -7 10547 1718.85 51
7 -3 -7 7596.89 1422.43 45
-7 3 7 8796.91 580.143 28
7 -3 -7 6418.9 1317.97 107
-7 3 7 8739.22 587.704 78
-7 3 7 8398.37 522.012 13
7 -3 -7 7067.24 792.954 72
7 -1 -8 35702.6 1556.62 65
7 -1 -8 24792.1 1082.86 58
7 -1 -8 32691.9 3013.06 51
7 -1 -8 25448.1 2499.45 107
7 -1 -8 30822.8 1244.78 25
-7 1 8 34689.3 1179.25 81
-7 1 8 34037.8 1231.75 78
-7 1 8 32194.8 1082.41 76
7 -1 -8 33114.6 1634.76 72
7 1 -9 681.448 204.56 65
7 1 -9 560.287 164.667 58
7 1 -9 151.694 96.9413 16
-7 -1 9 611.569 170.462 96
7 1 -9 333.973 122.782 25
-7 -1 9 713.504 156.834 81
7 1 -9 267.217 152.979 80
-7 -1 9 703.434 166.61 78
-7 -1 9 595.003 151.706 77
7 3 -10 3409.5 375.068 16
-7 -3 10 3773.7 327.923 96
7 3 -10 3492.62 311.32 25
7 3 -10 3461.91 371.037 80
-7 -3 10 2628.51 226.844 78
-7 -3 10 3832.11 336.064 77
7 -8 -4 97.0501 205.885 59
-7 8 4 683.403 132.639 19
-7 8 4 852.236 148.765 28
7 -8 -4 311.884 183.921 93
-7 8 4 1001.4 161.902 74
-7 8 4 734.236 133.357 13
-7 6 5 19345.9 807.517 19
-7 6 5 17511.2 815.102 28
-7 6 5 16508.3 787.674 86
-7 6 5 20430.8 820.401 82
-7 6 5 22101 893.135 74
-7 6 5 17611.1 792.606 13
7 -4 -6 5631.58 570.493 65
-7 4 6 8477.64 611.497 20
7 -4 -6 8883.32 1625.73 51
7 -4 -6 8900.14 1594.73 45
-7 4 6 8661.24 614.638 28
7 -4 -6 6714.07 1389.2 107
-7 4 6 7622.29 576.386 87
-7 4 6 9130.55 601.633 78
-7 4 6 7845.34 547.371 13
7 -2 -7 3503.54 494.472 65
-7 2 7 3188.51 408.207 20
7 -2 -7 2365.64 332.849 58
7 -2 -7 3275.68 970.032 51
7 -2 -7 2450.53 862.289 45
-7 2 7 3238.99 343.386 28
7 -2 -7 2367.42 875.28 107
-7 2 7 3183.68 375.24 87
-7 2 7 3408.37 392.827 78
-7 2 7 3417.93 349.937 76
7 -2 -7 2862.76 536.882 72
7 0 -8 16541.7 1089.56 65
-7 0 8 12346.8 742.978 20
7 0 -8 11928.6 790.491 58
7 0 -8 11295.4 1668.66 107
-7 0 8 13730.4 807.747 96
7 0 -8 13495.8 865.123 25
-7 0 8 12280.9 630.369 87
-7 0 8 13531.3 744.303 81
-7 0 8 14115.7 793.973 77
7 0 -8 14216.7 1148.46 72
7 2 -9 1142.29 257.394 65
7 2 -9 594.363 218.013 16
-7 -2 9 1116.14 222.454 96
7 2 -9 1033.64 219.106 25
7 2 -9 970.129 266.985 80
-7 -2 9 1095.67 197.835 78
-7 -2 9 1296.89 235.02 77
7 4 -10 11294.9 573.227 16
-7 -4 10 10304.5 488.427 96
7 4 -10 11033.5 520.14 25
7 4 -10 11597 613.769 80
-7 -4 10 11350.4 521.535 77
-7 9 3 4329.28 293.604 19
-7 9 3 5124.57 310.692 74
-7 9 3 4155.48 281.596 13
-7 7 4 4271.08 384.944 19
-7 7 4 3764.57 368.61 28
7 -7 -4 2646.06 598.874 93
-7 7 4 3865.11 366.419 86
-7 7 4 3929.54 337.29 82
-7 7 4 4678.18 406.991 74
-7 7 4 3230.24 331.793 13
-7 5 5 1559.5 253.723 20
-7 5 5 1427.61 220.769 19
7 -5 -5 1584.82 708.936 45
7 -5 -5 1928.28 718.164 40
-7 5 5 1551.73 264.92 28
7 -5 -5 616.144 290.359 107
7 -5 -5 1568.55 834.027 104
-7 5 5 1469.08 255.433 87
-7 5 5 1743.29 271.432 82
-7 5 5 1747.15 259.584 74
-7 5 5 1489.96 245.451 13
7 -3 -6 5695.57 629.636 65
-7 3 6 7342.74 606.344 20
7 -3 -6 5905.16 1356.27 51
7 -3 -6 5707.79 1290.92 45
-7 3 6 7258.7 562.914 28
7 -3 -6 4621.12 1209.09 107
-7 3 6 7111.93 568.367 87
-7 3 6 7955.63 597.359 82
-7 3 6 6460.18 485.801 13
7 -1 -7 7468.95 760.221 65
-7 1 7 6390.31 573.716 20
7 -1 -7 4942.07 515.708 58
7 -1 -7 5938.34 1326.02 51
7 -1 -7 3847.39 1037.79 107
7 -1 -7 3405.6 801.842 102
-7 1 7 5863.4 535.337 96
-7 1 7 6290.2 529.949 94
-7 1 7 5510.64 483.378 87
-7 1 7 5961.29 502.85 81
-7 1 7 6455.96 527.655 77
7 -1 -7 5809.35 772.845 72
7 1 -8 4542.75 570.951 65
-7 -1 8 2774.65 336.821 20
7 1 -8 3136.36 420.409 58
7 1 -8 2538 785.035 107
-7 -1 8 3929.55 446.458 96
-7 -1 8 3510.43 404.037 94
7 1 -8 3316.75 453.92 25
-7 -1 8 3662.62 383.97 81
-7 -1 8 4214.99 449.545 77
7 3 -9 1410.9 257.492 65
7 3 -9 1392.73 281.869 16
-7 -3 9 1668.61 261.031 96
7 3 -9 1453.02 249.607 25
7 3 -9 1457.88 289.048 80
-7 -3 9 1468.95 209.124 78
-7 -3 9 1728.74 261.02 77
-7 8 3 7625.28 500.387 28
7 -8 -3 5601.67 708.675 56
-7 8 3 7665.38 494.366 19
7 -8 -3 4084.25 777.508 93
-7 8 3 7438.25 415.245 82
-7 8 3 8994.04 526.348 74
-7 8 3 6609.61 450.372 13
-7 6 4 19013.1 853.976 19
7 -6 -4 12303 1928.73 109
-7 6 4 18343.3 892.11 28
7 -6 -4 10738.9 1690.43 105
7 -6 -4 15516.4 1642.13 93
-7 6 4 18968.8 913.46 87
-7 6 4 22275.6 953.256 82
-7 6 4 18550.4 872.897 22
-7 6 4 21206.1 894.311 74
-7 6 4 17846.5 850.33 13
7 -6 -4 14888.7 1216.36 66
7 -4 -5 14458.1 951.8 65
-7 4 5 20180.6 973.525 20
7 -4 -5 19412.9 2403.93 45
7 -4 -5 13933.6 1965.01 40
-7 4 5 19368.6 948.82 28
7 -4 -5 19336.6 2399.59 107
7 -4 -5 13885.1 2178.82 104
7 -4 -5 17330.2 998.389 24
-7 4 5 19586.7 949.933 87
-7 4 5 20383 941.004 23
-7 4 5 20842.3 968.296 82
-7 4 5 21312.4 960.59 78
-7 4 5 20240.2 985.107 22
-7 4 5 20712.2 903.362 74
-7 4 5 18508.2 870.378 13
7 -2 -6 10385 901.795 65
-7 2 6 9671.61 714.521 20
7 -2 -6 10159.7 1135.04 6
7 -2 -6 8101.69 639.337 58
7 -2 -6 11762 1872.12 51
7 -2 -6 9453.48 1676.35 45
-7 2 6 8624.32 540.934 114
-7 2 6 9094.19 605.426 28
7 -2 -6 8748.32 1638.61 107
-7 2 6 9416.68 891.197 99
-7 2 6 9959.23 700.353 96
-7 2 6 8851.91 608.585 94
7 -2 -6 9224.9 704.262 24
-7 2 6 9328.85 658.642 87
-7 2 6 9799.38 701.934 23
-7 2 6 9274.04 627.076 82
7 0 -7 40957.4 1799.17 65
-7 0 7 31653.4 1230.06 20
7 0 -7 30784 1337.07 58
-7 0 7 34022.4 1217.05 114
7 0 -7 25961.6 2609.28 107
-7 0 7 33187.5 1298.26 96
-7 0 7 33785.2 1275.17 94
7 0 -7 30852.6 1399.11 25
7 0 -7 36250.1 1357.27 24
-7 0 7 33117.2 1143.29 87
-7 0 7 32569.6 1165.36 81
-7 0 7 35289 1277.5 77
7 0 -7 36455 1974.67 72
7 2 -8 1323.64 294.123 65
7 2 -8 1092.96 457.406 107
7 2 -8 689.501 222.627 16
-7 -2 8 1280.1 261.039 96
-7 -2 8 1120.5 227.5 94
-7 -2 8 1048.71 206.33 114
7 2 -8 1436.64 290.354 25
7 2 -8 1342.41 241.107 24
7 2 -8 869.528 274.631 80
-7 -2 8 1379.49 254.478 77
7 4 -9 755.75 165.39 16
-7 -4 9 678.85 145.807 96
7 4 -9 635.819 160.42 25
7 4 -9 780.999 185.836 80
-7 -4 9 656.302 142.939 77
-7 9 2 285.546 89.5985 13
7 -9 -2 511.959 224.929 59
7 -9 -2 375.574 276.611 57
7 -9 -2 308.416 155.559 56
-7 9 2 356.877 97.0165 19
-7 9 2 257.848 82.6946 28
7 -9 -2 232.842 208.563 93
-7 9 2 366.99 92.1129 74
-7 7 3 20664.9 905.412 19
7 -7 -3 12427.5 2024.62 109
-7 7 3 19449.5 911.402 28
7 -7 -3 14934.7 1669.45 93
-7 7 3 19979.9 1113.32 14
-7 7 3 21319.6 919.653 86
-7 7 3 22922.2 924.919 82
-7 7 3 19781 855.62 22
-7 7 3 22576.1 897.41 74
-7 7 3 19157 864.382 13
7 -7 -3 9872.83 977.298 66
-7 5 4 57976.4 1592.43 20
-7 5 4 51779.8 1355.95 19
7 -5 -4 49122.2 3636.49 40
7 -5 -4 46162.3 3802.14 109
-7 5 4 57731.8 1623.32 28
7 -5 -4 59193.6 4200.4 107
7 -5 -4 35087.4 3147.13 105
7 -5 -4 50156.9 4075.95 104
7 -5 -4 50341.8 3025.34 93
-7 5 4 48936.1 1740.98 14
-7 5 4 58433.4 1665.86 87
-7 5 4 59333.2 1529.49 23
-7 5 4 65962.5 1751.5 82
-7 5 4 62247.9 1733.98 22
-7 5 4 61442.2 1525.11 74
-7 5 4 57894.8 1589.62 13
7 -3 -5 1587.74 348.697 65
-7 3 5 2037.35 322.681 20
7 -3 -5 1558.24 642.669 45
7 -3 -5 1833.29 467.575 6
-7 3 5 1883.08 291.313 28
7 -3 -5 1325.13 679.044 107
7 -3 -5 1972.65 666.458 105
-7 3 5 1686.28 362.755 99
-7 3 5 1759.75 260.337 94
7 -3 -5 1884.79 335.83 24
-7 3 5 1718.54 279.85 87
-7 3 5 2042.77 315.162 23
-7 3 5 1813.3 286.956 82
-7 3 5 1668.89 279.149 22
-7 3 5 1784.72 262.896 13
7 -1 -6 21281.2 1298.5 65
7 -1 -6 17279.8 1479.37 6
-7 1 6 17415.1 938.29 20
7 -1 -6 15312.4 922.462 58
7 -1 -6 15828.8 2147.41 51
7 -1 -6 17123.2 2268.69 45
-7 1 6 17687.7 839.397 114
7 -1 -6 13486.7 1974.55 107
-7 1 6 17839.7 1176.19 99
-7 1 6 17877.7 938.23 96
-7 1 6 17838.3 895.28 94
7 -1 -6 17386.3 997.487 24
-7 1 6 18137 892.837 87
-7 1 6 17208.4 921.531 23
7 -1 -6 18162.2 1449.86 72
7 1 -7 604.81 204.733 65
-7 -1 7 341.68 125.346 20
-7 -1 7 570.231 157.794 114
7 1 -7 451.46 366.53 107
-7 -1 7 476.188 153.073 96
-7 -1 7 440.709 147.182 94
7 1 -7 586.609 192.55 25
7 1 -7 524.028 164.705 24
-7 -1 7 428.209 124.464 81
-7 -1 7 552.698 167.447 77
7 1 -7 531.528 263.556 72
7 3 -8 16464.9 944.769 65
-7 -3 8 16737.8 805.96 114
7 3 -8 16343 1005.83 16
-7 -3 8 17868.4 927.457 96
-7 -3 8 17056.8 808.323 94
7 3 -8 17879.4 982.002 25
7 3 -8 19620.1 925.285 24
7 3 -8 16132.2 1029 80
-7 -3 8 18455 770.172 73
-7 -5 9 4845.45 341.437 96
7 5 -9 5523.6 390.594 25
7 5 -9 5456.01 402.313 80
-7 -5 9 4556.39 327.145 77
-7 10 1 2433.65 217.166 19
7 -10 -1 1711.54 393.374 93
7 -8 -2 18507.8 1381.49 56
-7 8 2 19059.3 844.044 19
-7 8 2 20227.3 890.3 28
7 -8 -2 16958.7 1750.49 93
-7 8 2 19324.1 1088.43 14
-7 8 2 21174.5 821.77 82
-7 8 2 17719 744.688 22
-7 8 2 21490.4 808.19 74
-7 8 2 18293.1 815.834 13
-7 6 3 63719.9 1596.76 20
-7 6 3 61604.3 1604.35 19
7 -6 -3 58563.7 3919.73 40
7 -6 -3 45805.9 4041.31 109
-7 6 3 62400.9 1693.39 28
7 -6 -3 39381.6 3515.79 105
7 -6 -3 64131.5 4510.95 104
7 -6 -3 56329.7 3426.56 93
-7 6 3 56871.2 1973 14
-7 6 3 67731.1 1797.45 87
-7 6 3 73141.9 1867.84 82
-7 6 3 67704.5 1762.38 22
-7 6 3 66365.9 1548.27 74
-7 6 3 62953.1 1629.5 13
7 -6 -3 65556.7 2681.98 66
7 -4 -4 73636.8 2202.93 65
-7 4 4 84815.9 1991.92 20
7 -4 -4 66426.4 4273.62 40
7 -4 -4 67832.7 4569.6 109
-7 4 4 81164.2 1892.13 28
7 -4 -4 86000.2 5083.77 107
7 -4 -4 53430.1 3867.17 105
7 -4 -4 70534.2 4901.16 104
-7 4 4 82923.5 2599.06 99
7 -4 -4 78403.9 3767.36 93
-7 4 4 69511.7 2151.29 14
-7 4 4 80782.7 1912.85 87
-7 4 4 90284.6 2017.55 23
-7 4 4 87563.3 1981.82 82
-7 4 4 87244.3 2071.66 22
-7 4 4 84995.8 1783.59 74
-7 4 4 82386 1861.27 13
7 -2 -5 1054.08 274.877 65
-7 2 5 966.337 222.225 20
7 -2 -5 1315.11 682.786 51
7 -2 -5 876.534 568.121 45
7 -2 -5 864.485 318.008 6
-7 2 5 661.879 148.293 114
-7 2 5 878.559 264.383 108
-7 2 5 585.789 149.426 28
7 -2 -5 220.245 379.891 107
7 -2 -5 504.395 241.813 105
-7 2 5 935.559 267.614 99
-7 2 5 802.9 198.162 96
-7 2 5 692.69 160.885 94
7 -2 -5 804.883 228.676 24
-7 2 5 803.817 176.957 82
-7 2 5 772.153 192.693 23
-7 2 5 789.928 181.579 22
7 0 -6 3894.59 561.816 65
-7 0 6 3521.59 410.959 20
7 0 -6 2574.5 552.244 6
-7 0 6 3567.16 564.744 108
7 0 -6 2318.36 750.355 107
-7 0 6 3497.77 503.4 99
-7 0 6 3664.19 430.772 96
-7 0 6 3389.92 398.4 94
7 0 -6 3267.34 444.872 24
-7 0 6 3205.19 373.568 114
-7 0 6 3565.06 408.962 23
7 0 -6 3274.99 629.205 72
7 2 -7 17399.5 1091.09 65
-7 -2 7 13462.9 715.421 20
7 2 -7 15245.8 893.705 18
-7 -2 7 16901.3 867.557 114
7 2 -7 14833.6 1717.3 107
7 2 -7 12516.9 994.993 16
-7 -2 7 16297.6 856.081 94
7 2 -7 16265.8 1020.72 25
7 2 -7 18261.5 1019.16 24
7 2 -7 11844.9 976.525 80
7 4 -8 837.125 204.639 18
7 4 -8 1085.81 211.477 16
-7 -4 8 1375.21 244.839 96
7 4 -8 1128.9 226.67 25
-7 -4 8 1064.15 177.987 94
7 4 -8 1381.33 236.541 24
7 4 -8 934.468 208.312 80
-7 -4 8 1107.01 183.07 73
7 -9 -1 11648.9 1081 59
7 -9 -1 13413.5 1257.38 57
7 -9 -1 12369.1 1018.12 56
-7 9 1 13079.8 648.539 19
7 -9 -1 9538.64 1216.83 93
-7 9 1 11994.2 804.517 14
-7 9 1 13623.1 576.918 82
-7 9 1 11766.1 519.991 74
-7 9 1 13419.8 637.298 13
7 -7 -2 6646.09 901.882 56
-7 7 2 5616.11 497.954 19
-7 7 2 6010.14 520.174 17
7 -7 -2 3621.64 1164.82 109
-7 7 2 5566.2 507.354 28
7 -7 -2 3545.06 1091.77 105
7 -7 -2 4245.9 978.254 93
-7 7 2 5947.07 495.307 87
-7 7 2 4742.96 589.648 14
-7 7 2 5683.56 484.919 22
-7 7 2 5759.51 436.767 74
-7 7 2 5054.63 458.258 13
7 -7 -2 3890.06 716.943 66
-7 5 3 3524.81 389.304 20
-7 5 3 2953.38 328.474 19
7 -5 -3 2995.43 891.798 40
-7 5 3 3271.18 368.462 17
7 -5 -3 2863.08 1084.12 109
-7 5 3 3076.61 369.167 28
7 -5 -3 2211.54 873.549 105
7 -5 -3 2673.49 990.669 104
-7 5 3 3253.84 521.284 99
7 -5 -3 2987.25 820.205 93
-7 5 3 2810.48 450.018 14
-7 5 3 3757.24 425.059 87
-7 5 3 3760.36 392.008 23
-7 5 3 3555.84 427.133 22
-7 5 3 3370.91 344.122 74
-7 5 3 3244.72 369.214 13
7 -5 -3 3703.39 662.74 66
7 -3 -4 19674.4 1195.45 65
-7 3 4 18876.8 949.185 20
7 -3 -4 20959.9 2457.19 45
7 -3 -4 20874.3 2422.47 109
-7 3 4 18186.7 1150.56 108
-7 3 4 17858.2 859.083 28
7 -3 -4 17713.5 2261.52 107
7 -3 -4 16329.7 2035.16 105
7 -3 -4 12862.8 2067.52 104
-7 3 4 17901.9 1126.13 99
-7 3 4 17413 786.846 94
7 -3 -4 22532.4 1959.76 93
7 -3 -4 16220.7 1045.31 24
-7 3 4 19941 974.58 23
-7 3 4 18354.6 866.221 82
-7 3 4 17902.5 897.618 22
-7 3 4 17705.8 815.008 13
7 -1 -5 8452.01 813.681 65
-7 1 5 7569.95 601.313 20
7 -1 -5 7880.07 955.784 6
7 -1 -5 6661.73 1321.88 51
7 -1 -5 6059.42 1293.78 45
-7 1 5 7821.36 555.394 114
-7 1 5 7802.77 814.624 108
-7 1 5 7234.61 501.558 28
7 -1 -5 5045.48 1146.27 107
7 -1 -5 6131.63 958.298 105
-7 1 5 7150.91 706.045 99
-7 1 5 7332.44 583.513 96
-7 1 5 7450.11 561.612 94
7 -1 -5 7526.19 693.597 24
-7 1 5 7775.44 602.384 23
-7 1 5 6970.51 515.613 82
-7 1 5 6525.49 492.233 22
7 -1 -5 6910.01 914.825 72
7 1 -6 6665.8 893.911 6
7 1 -6 8922.13 801.596 65
-7 -1 6 7840.3 581.844 20
7 1 -6 8193.22 652.008 18
-7 -1 6 8142.16 602.686 114
-7 -1 6 8422.95 846.666 108
7 1 -6 7392.81 1313.34 107
-7 -1 6 9275.57 652.79 94
7 1 -6 7390.39 707.314 25
7 1 -6 9025.49 750.545 24
-7 -1 6 8650.21 621.702 23
-7 -1 6 8072.74 538.05 81
7 1 -6 9931.59 1066.99 72
7 3 -7 23537.3 1154.6 65
-7 -3 7 26614.5 1501.5 47
7 3 -7 24068.6 1158 18
-7 -3 7 25393.6 1021.94 114
7 3 -7 28258.6 2181.11 107
7 3 -7 24793.4 1219.27 16
-7 -3 7 24801.2 997.158 94
7 3 -7 25287.9 1219.25 25
7 3 -7 28663.5 1260.83 24
7 3 -7 23663.8 1262.51 80
-7 -3 7 27697.2 1009.15 73
7 5 -8 2498.91 335.07 18
-7 -5 8 2750.44 285.923 96
7 5 -8 2859.5 305.643 25
7 5 -8 2874.17 307.579 24
7 5 -8 2952.63 311.842 80
-7 -5 8 2490.6 249.702 73
-7 10 0 8621.36 451.613 19
7 -10 0 6677.93 829.35 93
-7 10 0 7646.17 543.178 14
7 -8 -1 13511.7 1335.52 59
7 -8 -1 13087.7 1244.01 56
-7 8 1 13543.3 759.527 19
-7 8 1 16573.2 832.165 17
7 -8 -1 10793.5 2007.87 109
-7 8 1 15304.5 806.902 28
7 -8 -1 13300.4 1666.35 93
-7 8 1 11967.5 918.276 14
7 -8 -1 14635.1 1499.12 84
-7 8 1 14129.3 715.421 22
-7 8 1 13889.3 636.298 74
-7 8 1 13853.9 741.685 13
-7 6 2 9578.34 620.516 20
-7 6 2 8613.08 612.169 19
7 -6 -2 7418.71 1383.76 40
-7 6 2 10461.9 685.392 17
7 -6 -2 7530.83 1802.6 109
-7 6 2 9116.51 646.31 28
7 -6 -2 6638.96 1528.36 105
7 -6 -2 8443.85 1690.56 104
7 -6 -2 8866.4 1470.72 93
-7 6 2 8772.94 836.932 14
-7 6 2 10392.7 715.516 87
-7 6 2 9908.33 602.494 23
-7 6 2 10873.9 728.034 22
-7 6 2 9430.54 625.334 13
7 -6 -2 8401.52 1008.79 66
7 -4 -3 18817.5 1135.48 65
-7 4 3 21721.1 971.322 20
7 -4 -3 17924.1 2181.72 40
-7 4 3 17843.6 805.754 17
7 -4 -3 15238.1 2259.51 109
-7 4 3 20127.5 1157.23 108
-7 4 3 18775.8 866.132 28
7 -4 -3 25203.9 2681.08 107
7 -4 -3 15750.6 2201.98 105
7 -4 -3 16647 2374.05 104
-7 4 3 19672.9 1193.13 99
7 -4 -3 19485.1 1999.28 93
-7 4 3 17298.4 1154.85 14
-7 4 3 22341.3 1005.94 23
-7 4 3 22392.6 1027.42 22
-7 4 3 20391.5 901.647 13
7 -4 -3 26794.6 1788.65 66
7 -2 -4 107825 2814.24 65
-7 2 4 105516 2228.91 20
7 -2 -4 106031 5177.93 51
7 -2 -4 89227 4914.14 45
7 -2 -4 111927 5264.52 109
-7 2 4 106599 2852.63 108
-7 2 4 97419.8 1906.77 28
7 -2 -4 83578 4729.05 107
7 -2 -4 83945.9 4195.13 105
-7 2 4 97375.6 2549.53 99
-7 2 4 105424 2104.41 96
-7 2 4 98337 1903.8 94
7 -2 -4 130297 4500.94 93
7 -2 -4 99884 2608.86 24
-7 2 4 102823 2191.34 23
-7 2 4 86579.5 1823.07 82
-7 2 4 90422.4 1888.61 22
-7 2 4 94067.3 1740.53 13
7 0 -5 4871.02 598.631 65
7 0 -5 3928.68 662.799 6
-7 0 5 4601.91 452.686 20
7 0 -5 4504.88 451.883 18
-7 0 5 4530.15 613.714 108
7 0 -5 2822.43 794.582 107
7 0 -5 4100.97 739.672 105
-7 0 5 4774.48 560.215 99
-7 0 5 4755.42 460.289 94
7 0 -5 4851.67 568.166 24
-7 0 5 4278.54 437.383 23
7 0 -5 4572.06 739.109 72
7 2 -6 4598.86 555.909 65
-7 -2 6 4796.69 634.686 47
7 2 -6 4798.55 526.087 18
7 2 -6 4125.54 499.518 32
-7 -2 6 4469.51 441.184 114
-7 -2 6 4232.49 591.652 108
7 2 -6 3438.95 831.465 107
7 2 -6 3268.2 476.06 16
-7 -2 6 4622.72 450.833 94
7 2 -6 4331.88 529.846 25
7 2 -6 5082.74 573.233 24
7 2 -6 3810.44 548.606 80
7 4 -7 1949.8 341.023 18
-7 -4 7 1974.14 266.769 114
7 4 -7 2064.49 315.626 25
-7 -4 7 2104.72 265.315 94
7 4 -7 2443.51 342.327 24
7 4 -7 2172.68 334.129 80
-7 -4 7 2364.84 282.753 73
-7 -6 8 3741.26 267.789 96
7 6 -8 3761.3 287.406 24
-7 -6 8 3409.97 242.95 73
7 -9 0 24019.9 1608.42 59
7 -9 0 27766.8 1826.87 57
7 -9 0 27512.6 1584.68 56
-7 9 0 25064.4 955.034 19
-7 9 0 30997.1 1037.51 17
7 -9 0 22439.3 1950.13 93
-7 9 0 23919 1214.56 14
-7 9 0 27751.5 893.833 22
-7 9 0 27957.6 966.33 13
7 -7 -1 28270.2 1916 56
-7 7 1 24305.8 1066.79 19
-7 7 1 29130.9 1167.48 17
7 -7 -1 15734.7 2600.35 109
-7 7 1 27133.5 1138.61 28
7 -7 -1 17693.3 2525.44 105
7 -7 -1 23507.9 2402.41 93
-7 7 1 22532.4 1370.95 14
7 -7 -1 27731.3 2233.78 84
-7 7 1 28129.3 1135.82 22
-7 7 1 23898.6 1015.78 13
-7 5 2 35321.5 1199.67 20
7 -5 -2 32359.6 2895.7 40
-7 5 2 32681.1 1136.41 17
7 -5 -2 26084.5 3193.83 109
-7 5 2 31662.3 1139.62 28
7 -5 -2 22044.2 2708.68 105
7 -5 -2 34096.6 3321.8 104
-7 5 2 35784.6 1678.09 99
7 -5 -2 30766.6 2645.5 93
-7 5 2 28250.8 1540.87 14
-7 5 2 37472.8 1274.44 23
-7 5 2 38258.8 1381.74 22
-7 5 2 33318.7 1158.78 13
7 -5 -2 40888.9 2227.63 66
7 -3 -3 60040.9 2065.03 65
-7 3 3 65989.3 1722.6 20
7 -3 -3 66031.2 4152.87 45
7 -3 -3 51693.4 2104.32 112
7 -3 -3 61309.1 4345.18 109
-7 3 3 65044.8 2117.97 108
7 -3 -3 56786.3 3898.32 107
7 -3 -3 48621.8 3505.78 105
-7 3 3 56102.2 1896.81 99
-7 3 3 62477.1 1427.55 94
7 -3 -3 73691.7 3688.68 93
-7 3 3 60658.5 1496.37 28
-7 3 3 61601.7 2157.63 14
-7 3 3 66693.7 1765.82 23
-7 3 3 60560.3 1601.39 22
-7 3 3 63099.9 1509.41 13
7 -3 -3 77611.3 2896.84 66
7 -1 -4 31575 1494.48 65
-7 1 4 30000.5 1147.59 20
7 -1 -4 29872.9 1773.91 6
7 -1 -4 24714 2347.7 51
-7 1 4 31190.1 1517.95 49
7 -1 -4 24755.7 2476.22 45
7 -1 -4 31084.6 1121.81 18
-7 1 4 31466.2 1602.85 108
-7 1 4 28477.4 963.563 28
7 -1 -4 19620.7 2184.66 107
7 -1 -4 25557.9 2132.03 105
-7 1 4 30710 1418.15 99
-7 1 4 31083.2 1119.26 94
7 -1 -4 25159.5 1415.22 92
7 -1 -4 28979.7 1395.43 24
-7 1 4 28276.3 1115.02 23
-7 1 4 25285.2 943.869 82
-7 1 4 24627.2 936.281 22
7 -1 -4 26373.6 1744.6 72
7 1 -5 51080 1891.71 65
-7 -1 5 49537 1414.33 20
7 1 -5 55144.4 1659.32 18
-7 -1 5 55118 2090.22 108
7 1 -5 36312.5 2703.68 107
7 1 -5 55057.9 2562.16 105
-7 -1 5 47897.9 1723.87 99
7 1 -5 43397.7 2462.84 1
-7 -1 5 55439.9 1559.1 94
7 1 -5 46065.5 1705.66 25
-7 -1 5 63003.7 1567.31 90
7 1 -5 54075.6 1899.84 24
-7 -1 5 49671.9 1456.94 23
7 1 -5 60397.5 2610.01 72
-7 -3 6 83903.9 2646.05 47
7 3 -6 79156.9 2210.48 18
7 3 -6 79873.8 2174.01 32
-7 -3 6 75730.8 1764.02 114
-7 -3 6 70232 2257.29 108
7 3 -6 80430.9 3488.8 107
7 3 -6 75499.1 2107.62 25
-7 -3 6 76180.7 1736.31 94
7 3 -6 82021.3 2222.19 24
7 3 -6 69915.3 2122.72 80
7 5 -7 5621.22 542.631 18
-7 -5 7 5582.23 385.45 114
7 5 -7 5592.69 432.494 25
7 5 -7 6305.05 504.117 24
7 5 -7 5933.68 424.442 80
-7 -5 7 5817.17 409.771 73
-7 10 -1 190.155 66.2814 19
-7 10 -1 322.11 91.341 17
7 -10 1 252.726 131.693 93
7 -10 1 295.039 156.554 83
-7 10 -1 175.185 63.3689 82
-7 10 -1 335.982 128.806 14
7 -8 0 29689.2 1996.43 59
7 -8 0 34373.6 2022.61 56
-7 8 0 29917.8 1154.93 19
-7 8 0 36977.6 1272.34 17
7 -8 0 21472.8 2871.19 109
-7 8 0 35175.1 1234.41 28
7 -8 0 27118.8 2492.41 93
-7 8 0 28266.8 1498.54 14
7 -8 0 37122.9 2586.79 84
-7 8 0 34267.5 1179.29 22
-7 8 0 32763.3 1175.03 13
-7 6 1 3077.77 344.713 20
7 -6 -1 3328.71 661.546 56
-7 6 1 2591.22 339.859 19
7 -6 -1 2566.36 814.871 40
-7 6 1 3045.34 367 17
7 -6 -1 1879.08 909.431 109
-7 6 1 2891.53 358.556 28
7 -6 -1 1550.79 757.416 105
7 -6 -1 1536.3 643.84 104
7 -6 -1 2542.7 815.683 93
-7 6 1 2495.86 465.777 14
-7 6 1 3367.93 393.039 87
-7 6 1 3076.22 347.41 23
-7 6 1 3230.55 404.776 22
-7 6 1 2915.62 346.944 13
7 -6 -1 2995.61 622.785 66
7 -4 -2 2470.21 521.339 66
-7 4 2 2320.34 312.803 20
7 -4 -2 1708.13 628.355 40
-7 4 2 2058.3 263.445 17
7 -4 -2 1588.7 715.286 109
-7 4 2 2464.89 396.024 108
-7 4 2 2273.27 288.392 28
7 -4 -2 2043.7 725.339 107
7 -4 -2 1373.91 740.017 105
7 -4 -2 1580.23 573.073 104
-7 4 2 2086.6 380.384 99
7 -4 -2 2447.38 732.504 93
-7 4 2 2036.43 426.127 14
-7 4 2 2490.27 335.76 23
-7 4 2 2245.61 323.329 22
-7 4 2 2315.53 293.967 13
7 -2 -3 46623 1822.55 65
-7 2 3 52626.7 1513.27 20
7 -2 -3 48354.4 3173.03 51
-7 2 3 52718.1 1908.83 49
7 -2 -3 43148 3132.71 45
7 -2 -3 48344 1351.83 18
7 -2 -3 45480.1 1906.7 112
7 -2 -3 54213.3 3792.55 109
-7 2 3 55195.1 2028.45 108
-7 2 3 48619.1 1290.56 28
7 -2 -3 37381.6 2947.05 107
7 -2 -3 42138.6 3019.25 105
-7 2 3 48222.1 1734.68 99
7 -2 -3 49567.6 1883.6 24
-7 2 3 49063.1 1479.28 23
-7 2 3 43255.8 1247.88 82
-7 2 3 43822.4 1266.53 22
-7 2 3 48557.1 1231.61 13
7 -2 -3 58036.4 2356.76 66
7 0 -4 20441.6 1200.76 65
-7 0 4 20227.9 902.222 20
-7 0 4 22751.8 1289.99 49
7 0 -4 21930.3 997.987 18
-7 0 4 23718.9 1384.65 108
7 0 -4 17279.6 1902.4 107
7 0 -4 19381.7 1697.78 105
-7 0 4 22848 1215.48 99
7 0 -4 18562.2 1559.86 1
7 0 -4 21602 1274.86 92
7 0 -4 21939.2 1209.76 24
-7 0 4 19682.9 909.771 23
7 0 -4 21601.4 1554.44 72
-7 -2 5 1517.56 346.751 47
7 2 -5 1508.02 301.203 18
7 2 -5 1497.02 322.529 32
-7 -2 5 1487.32 340.101 108
7 2 -5 1529.06 514.864 107
-7 -2 5 1639.55 265.179 94
7 2 -5 1204.42 283.48 25
-7 -2 5 1743.2 271.439 90
7 2 -5 1577.33 326.497 24
-7 -2 5 1457.92 237.052 23
7 2 -5 1539.22 357.013 80
7 2 -5 1390.02 423.812 1
7 4 -6 22125.3 1170.3 18
7 4 -6 24792.4 1165.4 32
-7 -4 6 20962.2 876.664 114
7 4 -6 20492.5 989.21 25
-7 -4 6 21909 861.239 94
7 4 -6 23052.6 1122.83 24
7 4 -6 22465.5 1004.83 80
7 6 -7 8499.78 568.331 18
7 6 -7 9831.98 513.151 24
-7 -6 7 9831.99 451.588 73
7 -9 1 1667.89 445.998 59
7 -9 1 2375.23 527.355 57
-7 9 -1 2115.97 287.009 19
7 -9 1 1059.01 292.669 11
-7 9 -1 2625.02 307.113 17
7 -9 1 1845.63 577.052 93
-7 9 -1 1973.96 364.992 14
-7 9 -1 2213.79 269.642 22
-7 9 -1 2368.85 283.244 13
7 -7 0 16729.1 1533.36 59
7 -7 0 16481.9 1486.28 56
-7 7 0 15238.1 851.299 19
-7 7 0 17809.1 894.777 17
7 -7 0 12400.2 2295.14 109
-7 7 0 17662.5 907.207 28
7 -7 0 10627.5 1959.62 105
7 -7 0 15879 1966.7 93
-7 7 0 14267.9 1127.97 14
-7 7 0 17453.2 918.151 22
-7 7 0 16506 847.243 13
-7 5 1 3871.7 395.523 20
-7 5 1 3406.67 358.95 17
7 -5 -1 2769.85 1079.03 109
-7 5 1 3601.53 374.383 28
7 -5 -1 3336.08 1132.34 105
-7 5 1 3424.31 504.648 99
7 -5 -1 3429.54 899.433 93
-7 5 1 4161.17 607.401 14
7 -5 -1 3169.59 580.669 83
-7 5 1 4383.1 443.389 23
-7 5 1 4620.92 476.72 22
-7 5 1 3369.04 361.249 13
7 -5 -1 3353.75 632.957 66
7 -3 -2 254.009 218.846 66
-7 3 2 1136.52 222.939 20
-7 3 2 117.588 78.9494 49
7 -3 -2 1067.68 514.521 45
7 -3 -2 19.6215 34.7738 18
7 -3 -2 170.079 143.108 112
7 -3 -2 119.946 251.047 109
-7 3 2 170.423 100.548 108
-7 3 2 192.652 81.9043 28
7 -3 -2 260.782 303.561 107
7 -3 -2 -36.7595 191.128 105
-7 3 2 139.509 100.504 99
7 -3 -2 161.766 158.474 1
7 -3 -2 100.042 166.238 93
-7 3 2 274.558 169.448 14
-7 3 2 113.19 79.3585 23
-7 3 2 194.387 91.1882 22
7 -1 -3 24311.5 1289.24 65
-7 1 3 24425.1 1009.28 20
7 -1 -3 25409.9 1522.82 6
-7 1 3 26288.7 1370.47 49
7 -1 -3 24745.5 1014.54 18
7 -1 -3 29290.6 1510.44 112
-7 1 3 27557.9 1496.54 108
-7 1 3 24174.1 873.604 28
7 -1 -3 18209.9 1906.97 107
7 -1 -3 21184.2 1904.05 105
-7 1 3 26284.1 1310.67 99
7 -1 -3 21238.8 1613.48 1
7 -1 -3 20427.2 1337.21 92
7 -1 -3 23789.5 1281.69 24
-7 1 3 23993.5 989.859 23
-7 1 3 21350.1 833.84 82
7 -1 -3 23259.1 1574.64 72
7 -1 -3 27460.8 1555.78 66
-7 -1 4 46370.6 1322.43 20
7 1 -4 39056.5 2428.19 3
-7 -1 4 50431.4 1883.42 49
-7 -1 4 60618.1 2061.98 47
7 1 -4 50511.9 1618.37 18
-7 -1 4 52050.8 1995.2 108
7 1 -4 42400.6 2643.37 107
7 1 -4 48609 2557.75 105
-7 -1 4 50620.9 1774.99 99
7 1 -4 41736.6 1579.04 25
-7 -1 4 55261 1497.03 90
7 1 -4 47152.3 1798.87 24
7 1 -4 46380.8 2522.84 1
-7 -1 4 46288.7 1367.62 23
7 1 -4 59202.1 2590.97 72
-7 -3 5 118084 3045.58 47
7 3 -5 115265 2706.46 18
-7 -3 5 117196 2220.55 115
7 3 -5 106972 2656.76 32
-7 -3 5 101322 2669.58 108
7 3 -5 91272 2150.32 15
7 3 -5 104186 2398.64 25
-7 -3 5 108325 2041.26 94
-7 -3 5 121790 2261.58 90
7 3 -5 115458 2722.25 24
7 5 -6 21084.3 1074.78 18
-7 -5 6 21012.5 748.052 114
7 5 -6 21011.3 787.447 25
7 5 -6 23187.1 990.382 24
-7 -5 6 23014.7 844.085 73
-7 10 -2 698.698 134.135 19
-7 10 -2 932.799 148.888 17
7 -10 2 715.189 294.608 93
7 -10 2 644 212.019 83
-7 10 -2 606.755 168.688 14
7 -8 1 2505.48 544.622 59
7 -8 1 2806.37 636.485 57
7 -8 1 2613.75 570.095 56
-7 8 -1 2399.22 331.9 19
7 -8 1 848.33 322.155 11
-7 8 -1 2129.36 305.319 17
7 -8 1 2078.56 873.276 109
-7 8 -1 2602.18 324.684 28
7 -8 1 2367.41 737.74 93
-7 8 -1 2032.11 406.544 14
-7 8 -1 2291.42 313.232 22
-7 8 -1 2683.14 335.073 13
-7 6 0 16106.6 793.677 20
7 -6 0 14847.5 1388.78 59
7 -6 0 14135.2 1329.47 56
-7 6 0 13514.9 771.68 19
-7 6 0 14009.1 761.243 17
7 -6 0 12094.2 2176.36 109
-7 6 0 14673.9 789.391 28
7 -6 0 10279 1853.48 105
7 -6 0 15579.7 1892.52 93
-7 6 0 14127.8 1137.8 14
-7 6 0 15642.4 817.127 23
-7 6 0 15626.8 892.089 22
-7 6 0 14738.9 778.934 13
-7 4 1 24534.8 1032.86 20
-7 4 1 23602.1 1174.87 49
-7 4 1 19860 802.837 17
7 -4 -1 19674.8 2531.24 109
-7 4 1 24114.7 1263.84 108
-7 4 1 21665.2 890.212 28
-7 4 1 26055.7 1371.38 7
7 -4 -1 17782.1 2213.58 105
-7 4 1 22851.9 1216.76 99
7 -4 -1 28269.4 2410.89 93
-7 4 1 21616.4 1370.05 14
7 -4 -1 18371.1 1310.3 83
-7 4 1 24229.5 1075.15 23
-7 4 1 22542.3 996.795 22
7 -4 -1 23529.2 1602.89 66
-7 2 2 66433.4 1699.18 20
-7 2 2 70096.9 2211.51 49
7 -2 -2 61197.2 1590.31 18
7 -2 -2 60332.7 2324.32 112
7 -2 -2 67972.9 4305.12 109
-7 2 2 70827.6 2372.88 108
-7 2 2 64798.7 1490.39 28
-7 2 2 76357.6 2522.66 7
7 -2 -2 49853 3160.49 105
-7 2 2 62969.9 2015.21 99
7 -2 -2 49695.8 2359.27 1
7 -2 -2 63339.6 2126.1 24
-7 2 2 61304.2 1612.84 23
-7 2 2 52811.9 1366.23 22
7 -2 -2 62976 2423.56 66
-7 0 3 123956 2185.77 20
-7 0 3 133069 3061.67 49
7 0 -3 129981 2525.08 18
-7 0 3 133822 3265.39 108
-7 0 3 130828 1926.34 28
7 0 -3 128971 4533.37 105
-7 0 3 140174 3089.24 99
7 0 -3 134397 3365.86 92
7 0 -3 122897 2872.93 24
7 0 -3 120155 3987.57 1
-7 0 3 117686 2178.6 23
7 0 -3 140386 3875.04 72
-7 -2 4 7505.33 710.626 49
-7 -2 4 9145.24 833.754 47
7 2 -4 8278.13 702.041 18
-7 -2 4 8963.28 613.949 115
7 2 -4 7172.23 709.711 32
-7 -2 4 7145.88 737.657 108
7 2 -4 8409.6 615.999 15
7 2 -4 7646.92 670.752 25
-7 -2 4 8254.56 596.384 90
7 2 -4 7747.17 723.064 24
7 2 -4 7566.85 1007.8 1
7 4 -5 18431.6 1060.07 18
-7 -4 5 18240.5 848.647 115
7 4 -5 21104.3 1125.47 32
-7 -4 5 17867 799.422 114
7 4 -5 15194.4 861.585 15
7 4 -5 17497.2 844.302 25
-7 -4 5 18072.3 769.642 94
-7 -4 5 20264.7 905.618 90
7 4 -5 18654.5 1019.16 24
7 6 -6 1000.19 200.459 18
7 6 -6 1228.39 185.283 24
7 6 -6 851.053 137.335 14
-7 -6 6 1179.98 161.738 73
7 -9 2 1783.65 402.864 57
-7 9 -2 2145.97 283.087 19
7 -9 2 1117.11 293.279 11
-7 9 -2 2392.18 284.197 17
7 -9 2 2816.23 647.299 93
-7 9 -2 1920.97 374.53 14
7 -9 2 2049.84 474.96 83
-7 9 -2 2633.67 295.863 22
-7 9 -2 2751.83 291.994 13
7 -7 1 8157.77 1029.18 59
7 -7 1 8606.28 1055.76 57
7 -7 1 8732.62 1050.24 56
-7 7 -1 8292.66 617.922 19
7 -7 1 5407 787.579 11
-7 7 -1 9064.4 623.595 17
7 -7 1 5245.31 1387.95 109
-7 7 -1 9957.62 656.762 28
7 -7 1 5593.04 1293.47 105
7 -7 1 9028.35 1437.2 93
-7 7 -1 7726.84 844.714 14
-7 7 -1 10031 621.877 23
-7 7 -1 10375.1 706.116 22
-7 7 -1 9447.09 634.313 13
-7 5 0 24666.1 1028.15 20
7 -5 0 20898.7 1535.81 59
7 -5 0 21603 1560.68 56
-7 5 0 20816 863.959 17
7 -5 0 17518.6 2440.99 109
-7 5 0 22793.6 939.665 28
7 -5 0 18241.5 2271.76 105
-7 5 0 23294.9 1270.51 99
7 -5 0 23694.3 2245.46 93
-7 5 0 21245.8 1397.78 14
7 -5 0 17744.8 1417.17 83
-7 5 0 25591.7 1111.59 23
-7 5 0 24213.8 1075.16 22
-7 3 1 8983.88 635.449 20
7 -3 -1 8574.91 860.379 56
-7 3 1 8901.97 768.473 49
7 -3 -1 9580.16 993.358 112
7 -3 -1 7903.17 1514.84 109
-7 3 1 8798.36 822.086 108
-7 3 1 8427.08 554.158 28
-7 3 1 9852.29 897.889 7
7 -3 -1 6427.61 1193.01 105
-7 3 1 7998.7 717.614 99
7 -3 -1 8574.22 1264.5 93
7 -3 -1 7655.15 778.195 83
-7 3 1 8677.17 630.907 23
7 -3 -1 6318.37 800.023 1
-7 3 1 7279.19 522.931 22
7 -3 -1 8914.79 963.526 66
-7 1 2 101517 2026.31 20
-7 1 2 114419 2849.39 49
7 -1 -2 106660 2201.11 18
7 -1 -2 120974 3238.68 112
-7 1 2 108916 2998.9 108
-7 1 2 107011 1886.29 28
-7 1 2 116817 3133.35 7
7 -1 -2 91485.9 4083.48 105
7 -1 -2 96945.8 3023.56 92
7 -1 -2 102606 2624.11 24
-7 1 2 95310.4 1987.14 23
7 -1 -2 93667.2 3336.86 1
7 -1 -2 98887.6 3136.56 72
-7 1 2 117642 2364.11 71
7 -1 -2 105362 3066.67 66
-7 -1 3 2941.32 324.439 20
-7 -1 3 3087.42 456.703 49
-7 -1 3 3260.98 469.925 47
7 1 -3 3331.54 431.06 18
7 1 -3 2267.76 580.184 3
-7 -1 3 2667.44 444.591 108
7 1 -3 2476.04 600.386 105
7 1 -3 3415.98 364.622 15
7 1 -3 2565.94 377.771 25
7 1 -3 2863.63 438.561 24
-7 -1 3 2797.2 328.636 23
7 1 -3 3505.61 667.72 1
7 1 -3 2309.52 300.684 21
-7 -1 3 4083.18 549.678 67
-7 -3 4 2880.37 470.503 47
7 3 -4 2740.74 417.476 18
-7 -3 4 2635.14 336.488 115
7 3 -4 2824.85 448.008 32
-7 -3 4 2181.2 383.681 108
7 3 -4 2345.86 334.094 15
7 3 -4 2370.45 331.307 25
-7 -3 4 2653.12 342.906 90
7 3 -4 2948.1 429.971 24
7 5 -5 47520.8 1560.37 18
-7 -5 5 46975.2 1240 115
7 5 -5 49963 1445.96 24
-7 10 -3 156.945 63.5999 19
-7 10 -3 103.493 36.9879 17
7 -10 3 25.2162 50.3926 83
-7 10 -3 186.614 78.972 14
7 -8 2 2137.56 458.735 59
-7 8 -2 2094.36 299.254 19
7 -8 2 1363.68 398.283 11
-7 8 -2 2801.17 331.96 17
7 -8 2 1159.42 560.275 109
-7 8 -2 2500.13 292.567 28
-7 8 -2 2495.67 348.252 10
7 -8 2 2239.98 668.456 93
-7 8 -2 2604.74 468.66 14
7 -8 2 1871.28 484.803 83
-7 8 -2 2846.45 349.186 22
-7 8 -2 2589.69 319.031 13
-7 6 -1 11513 685.474 20
7 -6 1 10824.4 1142.9 59
7 -6 1 15787.1 1809.78 56
-7 6 -1 9489.53 633.27 19
7 -6 1 5893.49 835.965 11
-7 6 -1 9367.73 604.822 17
7 -6 1 7966.39 1666.89 109
-7 6 -1 10538.8 657.397 28
-7 6 -1 9887.84 667.839 10
-7 6 -1 11460.5 1030.59 106
7 -6 1 9116.44 1634.74 105
7 -6 1 12397.7 1668.26 93
-7 6 -1 8688.83 897.007 14
7 -6 1 8408.19 1023.32 83
-7 6 -1 11730.7 736.385 23
-7 6 -1 10713 724.41 22
-7 4 0 17108.4 889.965 20
7 -4 0 13668.7 1135.53 56
-7 4 0 17614.7 1052.17 49
7 -4 0 11481.6 1885.47 109
-7 4 0 17111.2 1118.41 108
7 -4 0 7880.26 1272.61 5
-7 4 0 16408.1 790.929 28
-7 4 0 19381 1252.72 7
-7 4 0 16232.1 1092.37 106
7 -4 0 12059.1 1761.06 105
-7 4 0 16433.7 1037.72 99
7 -4 0 16613 1804.99 93
-7 4 0 13536.5 1085.95 14
7 -4 0 13422.1 1135.04 83
-7 4 0 16577.2 889.514 23
-7 4 0 14557 784.13 22
-7 2 1 15258.9 815.35 20
7 -2 -1 9972.04 1273.06 3
-7 2 1 17478.2 1118.55 49
7 -2 -1 8649.35 846.062 11
7 -2 -1 15706.3 858.666 18
-7 2 1 17478 850.896 31
7 -2 -1 19366.6 2324.07 109
-7 2 1 17557.8 1220.34 108
-7 2 1 17489.7 800.023 28
-7 2 1 17744.5 1232.34 7
7 -2 -1 13362.1 1656.96 105
7 -2 -1 12491 1126.14 92
7 -2 -1 14872.2 1020.08 24
7 -2 -1 15712.6 1051.69 83
-7 2 1 14372.2 783.758 23
7 -2 -1 15846.4 1224.78 112
-7 2 1 12878.5 655.103 22
7 -2 -1 13112.2 1157.17 1
7 -2 -1 11719.3 1052.46 72
-7 2 1 17905 899.97 71
-7 0 2 36426.8 1173 20
7 0 -2 34029.3 2299.81 3
-7 0 2 42071 1717.56 49
7 0 -2 41587.8 1452.56 18
-7 0 2 41303.7 1340.25 31
-7 0 2 42656.9 1836.68 108
-7 0 2 41032.7 1121.76 28
-7 0 2 42461.9 1912.98 7
7 0 -2 36774.4 2442.58 105
7 0 -2 40097.1 1204.31 15
7 0 -2 43430.2 2029.8 92
7 0 -2 39057.9 1623.55 24
-7 0 2 35959.2 1194.29 23
7 0 -2 44585.4 2123.19 72
-7 0 2 40416.1 1388.57 71
7 0 -2 31127.7 1045.48 21
7 0 -2 39272 2176.93 1
-7 0 2 54246.1 2106.62 67
-7 -2 3 5832.2 727.829 62
-7 -2 3 3835.48 500.433 49
7 2 -3 3806.06 534.575 32
7 2 -3 3644.35 462.052 18
-7 -2 3 3831.64 537.454 108
7 2 -3 3732.7 402.774 15
-7 -2 3 3773.91 408.927 90
7 2 -3 4154 525.441 24
7 2 -3 2817.72 344.579 21
-7 -2 3 5630.26 646.281 67
7 4 -4 4796.16 532.232 18
-7 -4 4 5204.16 456.124 115
7 4 -4 5518.85 590.826 32
7 4 -4 4279.4 457.042 15
-7 -4 4 4719.9 385.192 94
-7 -4 4 5414.83 470.632 90
7 4 -4 4675.02 495.25 24
7 6 -5 5469.08 428.878 18
7 6 -5 5789.42 372.971 24
7 6 -5 5428.51 347.537 14
-7 -6 5 6479.81 365.143 73
-7 9 -3 6308.72 459.496 19
7 -9 3 4820.49 532.25 11
-7 9 -3 6653.11 441.535 17
-7 9 -3 5656.61 472.887 10
7 -9 3 7838.83 948.36 93
-7 9 -3 5558.37 571.92 14
7 -9 3 6171.31 745.278 83
-7 9 -3 7627.09 481.996 22
-7 9 -3 7026.45 423.956 13
7 -7 2 16614.9 1373.95 59
-7 7 -2 14557.7 790.834 19
7 -7 2 11413.9 1082.74 11
-7 7 -2 16609 810.102 17
7 -7 2 12426.9 1953.99 109
-7 7 -2 19132.5 853.714 28
-7 7 -2 16775.3 926.104 10
-7 7 -2 20470.6 1382.51 106
7 -7 2 10036.2 1563.09 105
7 -7 2 19017.5 1905.87 93
-7 7 -2 14620.8 1119.31 14
7 -7 2 14038.1 1317.37 83
-7 7 -2 20148.8 890.634 23
-7 7 -2 18509.7 930.083 22
-7 5 -1 37790.7 1310.96 20
7 -5 1 31393.7 1789.84 56
7 -5 1 22413.3 1538.8 11
-7 5 -1 32330.5 1059.36 17
7 -5 1 25586.7 2831.25 109
7 -5 1 17173.5 2048.78 5
-7 5 -1 36174.4 1191.88 28
-7 5 -1 37323 1268.91 10
-7 5 -1 37218.7 1759.98 106
7 -5 1 25139.8 2517.45 105
7 -5 1 20593.5 2014.36 2
7 -5 1 37927.4 2764.08 93
-7 5 -1 29514.5 1629.96 14
7 -5 1 28330.4 1774.54 83
-7 5 -1 37970.6 1365.89 23
-7 5 -1 35942.5 1294.08 22
7 -3 0 1698.45 531.811 2
-7 3 0 3561.63 409.228 20
7 -3 0 3032.83 514.4 1
7 -3 0 2539.09 602.16 3
7 -3 0 2242.49 460.827 11
-7 3 0 3702.74 381.079 31
7 -3 0 3568.19 624.974 112
7 -3 0 3167.66 918.751 109
-7 3 0 3394.26 530.393 108
-7 3 0 4058.52 380.091 10
-7 3 0 3997.17 390.759 28
-7 3 0 4068.11 595.318 7
-7 3 0 4547.87 561.155 99
7 -3 0 3510.24 499.304 24
7 -3 0 3817.27 572.987 83
-7 3 0 3255.17 384.951 23
-7 3 0 3015.51 333.477 22
-7 3 0 3924.39 411.203 71
-7 1 1 305.478 111.238 20
7 -1 -1 684.679 188.049 18
7 -1 -1 927.017 387.632 3
-7 1 1 684.602 169.037 31
-7 1 1 372.617 188.77 108
-7 1 1 974.854 193.562 28
7 -1 -1 1076.11 323.587 112
7 -1 -1 358.459 259.375 105
7 -1 -1 579.717 252.943 1
-7 1 1 753.559 250.795 7
7 -1 -1 552.11 223.017 92
7 -1 -1 699.248 166.748 15
7 -1 -1 570.479 191.517 24
7 -1 -1 693.487 214.301 83
-7 1 1 721.572 173.012 23
-7 -1 2 17216.6 1317.75 62
-7 -1 2 11295.2 633.194 20
7 1 -2 12905.2 1260.99 1
-7 -1 2 11529 884.322 49
7 1 -2 13233.5 1376.06 3
7 1 -2 13646.9 874.394 18
-7 -1 2 12159.2 722.947 31
-7 -1 2 11280.2 936.819 108
-7 -1 2 12987.2 1074.53 7
7 1 -2 12549.8 1407.73 105
7 1 -2 12739.8 726.398 15
7 1 -2 11742.6 888.55 24
-7 -1 2 11785.1 660.882 23
-7 -1 2 11594.2 740.567 71
7 1 -2 10652.7 643.235 21
-7 -1 2 15660.7 1161.42 67
-7 -3 3 24995.9 1430.23 62
-7 -3 3 18274.8 1055.45 49
-7 -3 3 20683.5 1237.98 47
7 3 -3 20488.3 1110.42 18
-7 -3 3 21192.6 954.819 115
7 3 -3 20477.3 1215.92 32
-7 -3 3 17329.6 1067.04 108
7 3 -3 19241 956.92 15
-7 -3 3 19557.4 934.865 90
7 3 -3 20023.1 1102.38 24
-7 -3 3 23095.8 1257.68 67
7 5 -4 3930.78 427.212 18
-7 -5 4 4265.47 368.79 115
7 5 -4 3477.52 385.133 15
-7 -5 4 4613.27 384.595 90
7 5 -4 4093.64 386.084 24
-7 10 -4 1731.38 182.547 19
-7 10 -4 1652.3 164.107 17
7 -10 4 1722.29 283.08 83
-7 8 -3 1421.53 230.675 19
7 -8 3 1138.38 310.721 11
-7 8 -3 1324.38 210.574 17
-7 8 -3 1053.62 230.582 10
7 -8 3 1445.6 454.754 93
7 -8 3 1331.96 400.615 83
-7 8 -3 906.574 247.06 14
-7 8 -3 1281.19 220.381 22
-7 8 -3 1590.16 239.814 13
-7 6 -2 28792.2 1089.09 20
7 -6 2 18695.7 1381.49 11
-7 6 -2 23046.2 925.997 17
7 -6 2 20521.8 2460.1 109
-7 6 -2 26981.8 1010.45 28
-7 6 -2 24630.2 1088.35 10
-7 6 -2 27238 1553.18 106
7 -6 2 18048.9 1959.57 105
7 -6 2 27821.2 2275.3 93
-7 6 -2 17909 1226.14 14
7 -6 2 20982.3 1571.55 83
-7 6 -2 26623.9 1111.41 23
-7 6 -2 25419.7 1097.19 22
-7 4 -1 15146.2 850.123 20
7 -4 1 8164.47 1013.01 3
7 -4 1 9380.14 947.589 11
7 -4 1 12761.7 1175.59 112
7 -4 1 15258.4 2101.85 109
7 -4 1 8515.56 1306.95 5
-7 4 -1 15532.5 1109.31 108
-7 4 -1 14212.5 754.705 10
-7 4 -1 15269 778.138 28
-7 4 -1 13499 990.632 106
-7 4 -1 16272.5 1190.36 7
7 -4 1 10242.9 1477.32 105
-7 4 -1 14704.5 981.921 99
7 -4 1 8426.83 1239.18 2
-7 4 -1 10576.9 931.735 14
7 -4 1 12382.7 1097.92 83
-7 4 -1 13018.5 794.541 23
-7 4 -1 12467.4 720.676 22
-7 2 0 5113.97 476.862 20
7 -2 0 3869.83 752.063 3
7 -2 0 4525.05 652.757 1
-7 2 0 5648.19 490.577 31
7 -2 0 5442.35 738.618 112
-7 2 0 5624.16 448.063 10
-7 2 0 5314.28 682.677 108
-7 2 0 5557.59 470.527 28
-7 2 0 5143.54 670.945 7
7 -2 0 4808.58 921.812 105
7 -2 0 4622.82 435.66 15
7 -2 0 4634.78 704.453 92
7 -2 0 4665.38 560.647 24
7 -2 0 5540.82 661.024 83
-7 2 0 4532.35 441.972 23
-7 2 0 4298.7 381.114 22
-7 2 0 5637.81 512.198 71
-7 0 1 5850.24 769.035 62
-7 0 1 5092.15 443.595 20
7 0 -1 5302.3 769.234 1
7 0 -1 5408.33 888.179 3
7 0 -1 5699.5 546.333 18
-7 0 1 4983.76 463.449 31
-7 0 1 4925.48 640.865 108
-7 0 1 3809.88 362.053 28
-7 0 1 5786.06 713.703 7
7 0 -1 5266.86 932.526 105
7 0 -1 5707.28 492.214 15
7 0 -1 5405.27 590.734 24
-7 0 1 5025.48 446.873 23
-7 0 1 4737.89 478.041 71
7 0 -1 4867.6 413.011 21
-7 0 1 5857.1 717.509 67
-7 -2 2 94.0531 74.338 62
-7 -2 2 340.901 144.249 49
7 2 -2 354.316 134.91 18
7 2 -2 212.694 141.489 32
-7 -2 2 369.782 173.171 108
7 2 -2 114.767 62.3896 15
7 2 -2 118.028 72.7218 24
-7 -2 2 199.866 95.3586 71
-7 -2 2 299.704 140.608 67
7 2 -2 108.247 76.8433 21
-7 -4 3 20900.3 1181.95 62
7 4 -3 17644.6 949.253 18
-7 -4 3 19156.2 864.253 115
7 4 -3 17494.3 899.229 15
-7 -4 3 19187.9 871.167 90
7 4 -3 18271.8 919.356 24
-7 9 -4 12586.4 579.46 19
7 -9 4 11537.9 694.991 11
-7 9 -4 14813.9 590.712 17
7 -9 4 12893.3 878.778 112
-7 9 -4 14206.5 704.987 10
-7 9 -4 10170.7 652.83 14
7 -9 4 13536.9 958.403 83
-7 9 -4 17138.6 658.017 22
7 -7 3 13303.8 1081.44 11
-7 7 -3 16390.1 763.92 17
7 -7 3 14196.1 1830.58 109
-7 7 -3 18140.2 754.869 28
-7 7 -3 16819.3 892.891 10
-7 7 -3 17716.1 1222.86 106
-7 7 -3 12407.9 940.584 14
7 -7 3 15135.7 1259.24 83
-7 7 -3 19021.8 846.77 23
-7 7 -3 18378.1 881.453 22
-7 5 -2 57868.9 1616.22 20
7 -5 2 39178.9 1925.73 11
7 -5 2 44720.3 2190.68 112
7 -5 2 50085 3736.64 109
-7 5 -2 58222.7 1494.16 28
-7 5 -2 53266.9 1534.03 10
-7 5 -2 55307.9 2131.15 106
7 -5 2 42492.6 2846.42 105
-7 5 -2 38521.8 1755.72 14
7 -5 2 46937.9 2232.61 83
-7 5 -2 56454.4 1662.67 23
-7 5 -2 52228 1526.25 22
-7 3 -1 41788 1409.02 20
7 -3 1 32206.9 1993.17 3
7 -3 1 35017.2 1708.5 11
-7 3 -1 46648 1362.06 31
7 -3 1 40630.6 2041.31 112
-7 3 -1 44580 1970.25 108
-7 3 -1 43677.1 1302.9 10
-7 3 -1 40951.5 1286.37 28
-7 3 -1 47819.7 2104.37 7
7 -3 1 36472.9 2639 105
7 -3 1 38155.7 1321.66 15
7 -3 1 34909.2 1945.62 92
7 -3 1 37872.2 1547.13 24
7 -3 1 39756.9 1889.38 83
-7 3 -1 39516.8 1359.35 23
-7 3 -1 37209.7 1186.29 22
-7 3 -1 45523.4 1405.38 71
-7 1 0 20094.8 922.095 20
7 -1 0 21756.6 1754.95 3
7 -1 0 19840 1433.22 1
7 -1 0 22708.8 1113.5 18
-7 1 0 21971.8 976.487 31
-7 1 0 20814 889.083 10
-7 1 0 22134.3 1399.45 108
-7 1 0 22534.6 1427.59 7
7 -1 0 20658.3 1889.38 105
7 -1 0 21503 986.743 15
7 -1 0 23285.8 1576.74 92
7 -1 0 21178 1137.83 24
7 -1 0 25343.1 1398.1 83
-7 1 0 19836.5 909.395 23
-7 1 0 21585.1 1011.63 71
7 -1 0 18138.6 775.853 21
-7 1 0 26913.3 1534.45 67
-7 -1 1 2072.42 463.876 62
-7 -1 1 1873.69 255.913 20
-7 -1 1 2080.59 383.062 49
7 1 -1 1894.93 321.05 18
7 1 -1 1266.64 301.154 32
-7 -1 1 1838.73 286.909 31
-7 -1 1 1543.35 362.92 108
-7 -1 1 1219.84 190.561 28
7 1 -1 2009.47 306.034 15
7 1 -1 2078.02 356.421 24
-7 -1 1 1799.1 297.348 71
7 1 -1 1904.62 274.169 21
-7 -1 1 1904.2 427.13 67
-7 -3 2 4324.15 628.896 62
7 3 -2 3961.79 467.041 18
7 3 -2 3480.6 493.936 32
7 3 -2 4104.24 443.942 15
-7 -3 2 3585.79 400.905 90
7 3 -2 4066.86 452.025 24
7 3 -2 3780.65 388.216 21
-7 -3 2 3317.51 506.87 67
7 5 -3 2790.92 323.111 18
-7 -5 3 3278.74 309.571 115
7 5 -3 2855.29 335.254 15
-7 -5 3 3522.43 313.269 90
-7 8 -4 1049.9 181.696 19
-7 8 -4 1164.44 180.338 17
7 -8 4 1174.65 256.163 11
7 -8 4 1290.71 312.868 112
-7 8 -4 1171.91 219.307 10
7 -8 4 1185.44 311.951 83
-7 8 -4 861.215 200.391 14
-7 8 -4 1354.58 211.367 22
-7 8 -4 1102.48 170.975 13
7 -6 3 6983.13 831.338 112
-7 6 -3 8901.3 583.778 20
7 -6 3 6028.98 714.609 11
7 -6 3 7212.57 1286.1 109
-7 6 -3 8841.94 543.469 28
-7 6 -3 8825.03 641.272 10
-7 6 -3 9047.95 871.443 106
7 -6 3 6772.16 776.14 92
-7 6 -3 5613.8 616.867 14
7 -6 3 7458.17 880.22 83
-7 6 -3 9013.83 626.087 23
-7 6 -3 8404.44 602.859 22
-7 4 -2 14081.9 702.752 12
-7 4 -2 14211.8 822.38 20
7 -4 2 10765 942.919 11
7 -4 2 12792.5 1143.67 112
-7 4 -2 13978.5 1066.87 108
-7 4 -2 14116.2 771.267 10
-7 4 -2 13302.9 715.691 28
-7 4 -2 13390.1 998.984 106
7 -4 2 12119.7 1444.74 105
7 -4 2 11247.8 746.945 15
7 -4 2 10669.2 1051.94 92
7 -4 2 11107.1 795.908 24
7 -4 2 11924.4 1058.48 83
-7 4 -2 13563.6 810.173 23
-7 4 -2 12666.5 734.549 22
-7 2 -1 862.14 203.194 20
7 -2 1 960.058 320.102 1
7 -2 1 1368.03 370.965 112
-7 2 -1 1281.07 225.287 10
-7 2 -1 823.263 292.627 108
7 -2 1 803.926 308.471 3
7 -2 1 1027.31 432.068 105
-7 2 -1 1037.66 309.18 7
7 -2 1 924.786 352.767 92
7 -2 1 788.792 191.097 15
7 -2 1 1309.62 330.968 83
-7 2 -1 713.283 177.834 23
-7 2 -1 890.584 198.268 31
-7 2 -1 926.536 211.693 71
-7 0 0 20393.9 1465.43 62
-7 0 0 14779.2 769.752 20
7 0 0 16142 930.396 18
7 0 0 13231.6 954.348 32
-7 0 0 15357.2 819.584 31
-7 0 0 14918.2 1142.01 108
7 0 0 17233.5 1700.35 105
7 0 0 15579.7 862.335 15
7 0 0 15873.2 947.463 24
-7 0 0 15046.5 769.128 23
-7 0 0 14787.5 845.652 71
7 0 0 13083.6 695.411 21
-7 0 0 19690.4 1363.74 67
-7 -2 1 47795.8 1777.97 49
7 2 -1 51846.6 1670.41 18
7 2 -1 51554.5 1906.8 32
-7 -2 1 50139.9 1441 31
-7 -2 1 48968 1920.16 108
7 2 -1 55439.8 1616.12 15
7 2 -1 50081.3 1575.29 24
-7 -2 1 51667.3 1528.34 71
7 2 -1 50790.3 1428.28 21
-7 -2 1 53693.7 2201.38 67
-7 -4 2 3298.31 476.001 62
7 4 -2 3096.09 376.427 18
-7 -4 2 2981.82 329.687 115
7 4 -2 3315.02 376.841 15
-7 -4 2 3145.49 332.576 90
-7 -4 2 2771.96 411.409 67
-7 9 -5 758.989 120.852 19
7 -9 5 1370.18 250.942 83
-7 9 -5 1280.94 151.793 22
7 -7 4 7590.09 689.02 11
7 -7 4 6801.42 697.673 112
-7 7 -4 7868.18 575.576 10
7 -7 4 7653.23 791.753 83
-7 7 -4 9155.49 552.951 23
-7 7 -4 8873.67 570.397 22
-7 5 -3 12865.4 663.884 12
-7 5 -3 13063.3 752.625 20
7 -5 3 12259.4 983.074 11
7 -5 3 13183.6 1104.72 112
-7 5 -3 14125.4 697.948 28
-7 5 -3 12461 733.993 10
-7 5 -3 13232.5 1032.23 106
7 -5 3 11166.2 993.059 92
7 -5 3 11918 1046.37 83
-7 5 -3 13083 792.242 23
-7 5 -3 12887.1 749.679 22
-7 3 -2 50437.2 1404.15 61
-7 3 -2 49675.6 1544.6 20
7 -3 2 45315.9 1741.39 11
-7 3 -2 55228.2 1468.1 31
7 -3 2 56676 2366.07 112
-7 3 -2 54802.4 2219.21 108
-7 3 -2 50588.3 1432.17 10
7 -3 2 44011.9 2574.31 105
7 -3 2 45666.8 1539.96 15
7 -3 2 48401.3 2222.39 92
7 -3 2 54435.9 2210.69 83
-7 3 -2 48044.1 1526.35 23
-7 3 -2 47308.1 1352.86 22
-7 3 -2 54558 1527.61 71
-7 1 -1 7678.16 584.729 20
7 -1 1 9136.08 706.201 18
-7 1 -1 8305.24 605.544 31
-7 1 -1 8076.51 576.894 10
-7 1 -1 8022.58 864.235 108
7 -1 1 8541.55 1161.2 105
7 -1 1 8916.98 666.271 15
7 -1 1 9925.28 908.945 83
-7 1 -1 7767.27 578.721 23
-7 1 -1 8326.77 638.112 71
7 -1 1 7472.31 519.716 21
-7 1 -1 10305.4 960.659 67
-7 -1 0 32830 1075.97 20
7 1 0 35115.4 1349.51 18
7 1 0 32477.3 1450.96 32
-7 -1 0 32505.6 1195.33 31
-7 -1 0 31003.4 1630.6 108
7 1 0 35328.5 1292.33 15
-7 -1 0 30777.7 1215.88 71
7 1 0 31377 1114.52 21
-7 -1 0 36501.4 1878.94 67
7 3 -1 9328.79 662.187 18
7 3 -1 9716.11 640.219 15
-7 -3 1 9852.02 630.037 90
7 3 -1 9258.22 582.055 21
-7 -3 1 10578.5 905.975 67
-7 -5 2 1542.17 187.486 115
7 5 -2 1322.48 206.016 15
-7 -5 2 1331.57 168.069 90
-7 8 -5 2030.39 218.148 19
7 -8 5 2877.25 332.171 11
-7 8 -5 3398.32 331.425 10
7 -8 5 769.457 180.877 91
7 -8 5 3354.14 427.25 83
-7 8 -5 3440.11 292.813 22
-7 8 -5 1909.36 187.932 13
7 -6 4 158.407 133.283 112
-7 6 -4 105.572 37.266 20
-7 6 -4 53.8734 68.4634 12
7 -6 4 77.298 61.4115 11
-7 6 -4 163.664 70.2423 28
-7 6 -4 88.6341 57.3899 10
7 -6 4 182.051 121.502 92
7 -6 4 336.126 170.908 83
-7 6 -4 157.109 80.8532 23
-7 6 -4 196.51 89.5168 22
-7 4 -3 30043.7 1031.29 12
-7 4 -3 30445.8 1186.09 20
7 -4 3 26195.6 1278.25 11
7 -4 3 32399.7 1710.84 112
-7 4 -3 34335.7 1663.2 108
-7 4 -3 30205.4 1125.36 10
-7 4 -3 29248.3 1034.31 28
7 -4 3 25213.9 1151.05 15
7 -4 3 27934.4 1556.39 92
7 -4 3 30625.9 1642.94 83
-7 4 -3 30775.3 1216.41 23
-7 4 -3 29232.7 1092.38 22
-7 2 -2 25823.4 1042.69 61
-7 2 -2 26231.7 1112.97 20
7 -2 2 27937.4 1225.32 18
-7 2 -2 26879.3 1070.45 31
-7 2 -2 26698.7 1052.17 10
-7 2 -2 27259.4 1599.91 108
7 -2 2 24231.2 1840.12 105
7 -2 2 26208.6 1165.56 15
7 -2 2 31831.8 1642.35 83
-7 2 -2 25794.2 1088.62 23
-7 2 -2 27119.7 1129.5 71
7 -2 2 21741.8 869.881 21
-7 0 -1 14351.2 761.319 20
7 0 1 14363.8 848.942 18
7 0 1 13963.6 877.491 32
-7 0 -1 14572.8 804.349 31
-7 0 -1 15768.1 1208.68 108
7 0 1 14637.3 843.259 15
-7 0 -1 15078.6 741.931 23
-7 0 -1 16028.2 888.853 71
7 0 1 13170.4 709.733 21
7 2 0 38126.8 1346.18 18
-7 -2 0 37854.4 1206.64 31
7 2 0 39186.8 1307.42 15
-7 -2 0 36649.4 1245.1 71
7 2 0 38028 1195.97 21
-7 -2 0 42434.1 1931.49 67
-7 -4 1 3245.87 432.518 62
-7 -4 1 3368.96 318.092 115
7 4 -1 3419.16 341.252 15
-7 -4 1 3088.21 293.52 90
7 -7 5 7253.96 554.877 11
-7 7 -5 7983.52 521.758 10
7 -7 5 8420.83 697.117 83
-7 7 -5 8762.96 481.431 23
-7 7 -5 8834.22 507.965 22
-7 5 -4 480.602 141.233 20
-7 5 -4 650.749 142.828 12
7 -5 4 568.763 170.658 11
7 -5 4 322.707 131.518 112
-7 5 -4 471.196 118.401 28
-7 5 -4 630.94 158.773 10
7 -5 4 445.917 145.856 92
7 -5 4 537.578 148.615 91
7 -5 4 383.026 130.988 15
7 -5 4 620.151 226.224 83
-7 5 -4 599.125 158.325 23
-7 5 -4 440.681 131.057 22
-7 3 -3 87.6736 62.4913 61
-7 3 -3 184.923 80.4202 20
7 -3 3 290.992 119.225 11
-7 3 -3 95.3827 61.9775 31
-7 3 -3 -97.2273 99.2691 108
-7 3 -3 135.437 83.449 10
7 -3 3 124.167 93.2949 15
7 -3 3 114.588 116.161 83
-7 3 -3 110.396 74.8836 23
-7 3 -3 82.671 57.9776 22
-7 3 -3 44.3402 45.4422 71
-7 1 -2 9245.74 643.767 61
-7 1 -2 10239.2 665.836 20
7 -1 2 10615.3 719.825 18
-7 1 -2 10515.8 679.425 31
-7 1 -2 10193.8 658.08 10
-7 1 -2 10625.3 999.079 108
7 -1 2 9894.16 698.79 15
-7 1 -2 9887.93 633.071 23
-7 1 -2 10026 694.233 71
7 -1 2 9177.01 584.654 21
-7 -1 -1 11836.8 1077.03 62
7 1 1 8094.04 599.815 18
-7 -1 -1 8459.22 590.125 31
-7 -1 -1 8552.44 841.808 108
7 1 1 7685.25 579.747 15
-7 -1 -1 8472.09 618.104 71
7 1 1 7850.83 543.276 21
-7 -1 -1 11827.6 1019.79 67
-7 -3 0 1224.39 296.492 62
7 3 0 918.815 173.179 18
7 3 0 1098.98 203.325 15
-7 -3 0 774.001 156.456 90
7 3 0 898.569 167.083 21
-7 -3 0 817.983 236.924 67
-7 6 -5 1892.27 221.18 20
-7 6 -5 1439.93 199.594 12
7 -6 5 1560.77 262.995 11
-7 6 -5 1696.78 179.175 28
-7 6 -5 1489.36 225.956 10
7 -6 5 1406.38 229.339 15
7 -6 5 1129.15 205.019 91
7 -6 5 1988.18 338.19 83
-7 6 -5 1517.12 225.192 23
-7 6 -5 1684.85 230.27 22
-7 4 -4 160.398 82.0498 20
-7 4 -4 65.6536 63.7224 12
7 -4 4 -1.13007 42.8995 11
-7 4 -4 227.025 85.52 28
-7 4 -4 60.4314 47.7054 10
7 -4 4 -8.42394 48.3957 15
7 -4 4 -26.6725 79.7541 83
-7 4 -4 51.6637 45.0495 23
-7 4 -4 185.26 66.6827 9
-7 4 -4 108.592 65.3445 22
-7 2 -3 23428.4 972.851 61
-7 2 -3 26709 1090.01 20
7 -2 3 24651.1 1054.15 18
-7 2 -3 27303.7 1040.79 31
-7 2 -3 27315.4 1578.86 108
-7 2 -3 26524.3 1035.58 10
7 -2 3 24951.8 1087.67 15
7 -2 3 32565.9 1620.08 83
-7 2 -3 25216.3 1034.36 23
-7 2 -3 27512.5 1099.16 71
7 -2 3 21140.2 852.951 21
-7 0 -2 4646.61 447.297 61
-7 0 -2 5486.09 441.662 20
7 0 2 5567.6 482.924 18
-7 0 -2 5998.96 496.799 31
-7 0 -2 5684.56 477.914 10
-7 0 -2 6281.82 738.248 108
7 0 2 5629.24 491.363 15
-7 0 -2 5271.48 487.249 71
7 0 2 5424.44 441.839 21
7 2 1 12025.6 630.5 18
-7 -2 -1 11967.6 611.7 31
7 2 1 12034.6 649.272 15
-7 -2 -1 11360 625.812 71
7 2 1 12304.2 617.774 21
7 -7 6 3946.28 361.653 83
-7 7 -6 4711.13 306.543 22
-7 5 -5 11903.8 600.14 20
-7 5 -5 11149.2 559.506 12
7 -5 5 10240.7 630.305 11
-7 5 -5 11660.6 499.57 28
-7 5 -5 11193.2 619.404 10
7 -5 5 10968 635.157 15
7 -5 5 10147.4 587.664 91
7 -5 5 11787.3 817.727 83
-7 5 -5 12220.1 656.167 23
-7 5 -5 11984 600.215 22
-7 3 -4 4529.87 402.103 61
-7 3 -4 4575.18 392.115 12
-7 3 -4 4512.72 427.547 20
7 -3 4 3403.82 368.608 18
-7 3 -4 4431.67 375.112 31
-7 3 -4 4094.92 387.361 10
-7 3 -4 3359.17 336.016 28
7 -3 4 3734.63 397.002 15
-7 3 -4 4272.2 341.733 9
7 -3 4 4993.7 593.864 83
-7 3 -4 4160.43 407.373 23
-7 3 -4 4414 393.691 71
-7 1 -3 3900.91 393.876 61
-7 1 -3 4035.77 387.953 20
7 -1 3 3961.8 385.055 18
-7 1 -3 4163.96 399.603 31
-7 1 -3 4190.94 398.661 10
7 -1 3 3786.15 391.964 15
-7 1 -3 3813.83 339.608 23
-7 1 -3 4134.42 421.715 71
7 -1 3 3587.7 346.442 21
-7 -1 -2 879.391 170.503 61
7 1 2 926.089 168.87 18
-7 -1 -2 1207.49 197.429 31
-7 -1 -2 1626.89 228.079 10
7 1 2 1094.79 194.159 15
-7 -1 -2 1180.91 205.536 71
7 1 2 1179.56 191.228 21
7 3 1 1066.73 162.67 15
-7 -3 -1 858.394 133.538 90
7 3 1 1042.5 145.905 21
7 -6 6 11428.3 634.515 83
-7 6 -6 11203.5 497.264 23
-7 6 -6 11337.6 480.711 22
-7 4 -5 15521.2 662.183 12
-7 4 -5 16206.1 722.984 20
7 -4 5 12695.2 612.314 18
7 -4 5 11547.6 587.541 11
-7 4 -5 13838.1 563.426 28
-7 4 -5 14628.7 679.49 10
7 -4 5 13108.6 660.243 15
-7 4 -5 13189.6 534.105 9
-7 4 -5 15587 721.146 23
-7 4 -5 13731.7 567.977 22
-7 2 -4 2252.75 275.026 61
-7 2 -4 2425.51 275.865 12
-7 2 -4 2541.01 297.163 20
7 -2 4 1902.13 243.265 18
-7 2 -4 2536.66 285.998 31
-7 2 -4 2512.02 290.77 10
7 -2 4 2002.68 268.59 15
-7 2 -4 2069.45 247.841 23
-7 2 -4 2372.24 289.03 71
7 -2 4 1644.68 213.283 21
-7 0 -3 2394.1 283.357 61
-7 0 -3 2379 236.06 20
-7 0 -3 2894.13 298.953 31
-7 0 -3 2838.22 295.76 10
7 0 3 2783.18 296.261 15
-7 0 -3 2879.12 316.702 71
7 0 3 2789.88 276.004 21
7 2 2 3935.38 306.076 15
-7 -2 -2 3779.81 287.046 71
7 2 2 4302.56 296.852 21
-7 5 -6 16616.1 557.024 20
-7 5 -6 17496.3 618.743 23
-7 3 -5 32.0519 37.7485 20
-7 3 -5 59.2829 41.408 12
7 -3 5 14.3816 22.4196 18
-7 3 -5 152.849 55.6289 31
-7 3 -5 43.938 35.2486 28
-7 3 -5 83.2577 56.0466 10
7 -3 5 112.989 69.6984 15
-7 3 -5 114.633 55.9328 23
-7 3 -5 135.443 57.8893 71
-7 1 -4 4340.36 323.972 12
-7 1 -4 3808.6 299.456 20
-7 1 -4 4889.95 358.834 31
-7 1 -4 4816.69 360.638 10
7 -1 4 4175.79 339.724 15
-7 1 -4 4127.52 347.64 71
7 -1 4 3684.25 287.574 21
-7 -1 -3 4954.03 312.416 31
7 1 3 4743.9 322.233 15
-7 -1 -3 4522.09 313.237 71
7 1 3 4655.85 295.179 21
-7 2 -5 6695.45 360.993 20
7 -2 5 6194.56 361.606 15
8 -1 -10 7482.75 499.982 16
-8 1 10 11745.2 470.534 78
8 -4 -8 610.517 219.153 66
-8 4 8 923.122 138.677 28
-8 4 8 931.742 146.012 86
-8 4 8 1056.29 160.084 81
-8 2 9 2373.42 215.311 86
-8 2 9 2968.17 271.477 78
8 0 -10 14280.4 719.099 16
8 0 -10 15753.2 706.737 80
-8 5 7 1346.72 186.436 28
-8 5 7 1225.73 173.364 86
-8 5 7 1357.69 183.677 81
-8 5 7 1413.84 179.297 13
-8 3 8 5216.27 345.274 28
-8 3 8 5531.2 394.831 86
-8 3 8 5756.47 399.127 78
8 -1 -9 15340.9 855.867 65
8 -1 -9 16378.5 700.536 25
-8 1 9 19281.4 735.679 81
-8 1 9 19386 772.987 78
8 1 -10 5382.41 452.027 16
8 1 -10 5709.26 441.312 80
-8 -1 10 5789.67 350.248 78
8 -6 -6 162.871 161.416 66
-8 6 6 376.758 103.228 13
-8 6 6 558.758 120.013 28
-8 6 6 466.9 112.697 86
-8 6 6 386.6 94.6286 81
-8 4 7 7639.13 493.273 28
-8 4 7 7303.21 483.968 86
-8 4 7 8860.64 548.162 81
-8 4 7 7772.25 464.81 78
-8 4 7 7523.88 436.509 13
8 -2 -8 2930.49 402.429 65
8 -2 -8 2819.46 340.812 25
-8 2 8 3502.74 343.552 81
-8 2 8 3579.08 355.282 78
8 -2 -8 3329.86 478.893 72
8 0 -9 1171.34 253.141 65
8 0 -9 851.038 232.35 16
8 0 -9 1138.27 200.334 25
-8 0 9 1404.72 198.495 81
-8 0 9 1426.06 219.223 78
8 2 -10 369.794 109.852 16
8 2 -10 371.587 93.8767 25
8 2 -10 359.059 104.834 80
-8 -2 10 321.029 72.4844 78
-8 7 5 3600.57 300.943 28
-8 7 5 3682.03 292.053 86
-8 7 5 3531.88 291.356 13
8 -5 -6 1113.13 339.755 66
-8 5 6 1406.94 223.476 28
-8 5 6 1312.25 203.805 13
8 -3 -7 3203.7 432.912 65
-8 3 7 4421.43 437.974 20
8 -3 -7 3503.46 983.108 51
-8 3 7 4183.27 373.763 28
-8 3 7 3709.25 379.455 87
-8 3 7 4780.69 423.755 81
-8 3 7 4312.51 395.247 78
8 -3 -7 3272.48 533.216 72
8 -1 -8 11285.9 848.28 65
-8 1 8 11485.9 692.332 20
8 -1 -8 10977.9 720.296 25
-8 1 8 11266.4 598.316 87
-8 1 8 11549.5 635.15 81
-8 1 8 12738.7 726.998 78
8 -1 -8 11909.7 967.926 72
8 1 -9 12579.8 803.831 65
8 1 -9 10692.7 790.732 16
-8 -1 9 14546.1 729.57 96
8 1 -9 13029.5 707.983 25
8 1 -9 11557.7 793.438 80
-8 -1 9 14190.4 685.961 78
-8 -3 10 8557.56 406.913 96
8 3 -10 9315.4 485.698 80
-8 8 4 759.657 131.641 28
-8 8 4 711.427 121.929 13
-8 6 5 934.073 181.976 28
-8 6 5 1127.24 190.749 86
-8 6 5 1474.61 225.101 82
-8 6 5 1282.78 204.909 13
8 -4 -6 807.38 242.55 65
-8 4 6 1369.52 244.265 20
8 -4 -6 1254.81 595.404 51
-8 4 6 1285.84 229.085 28
-8 4 6 1272.02 228.018 87
-8 4 6 1187.53 203.114 78
-8 4 6 1173.57 202.395 13
8 -2 -7 659.843 209.052 65
-8 2 7 788.751 194.737 20
8 -2 -7 1346.71 605.887 51
8 -2 -7 495.356 357.676 107
-8 2 7 725.502 172.731 87
-8 2 7 731.065 169.118 81
8 -2 -7 638.581 223.029 72
8 0 -8 13967.7 968.06 65
-8 0 8 11189.4 654.536 20
-8 0 8 13904.9 780.043 96
8 0 -8 12122 791.816 25
-8 0 8 11762.6 575.965 87
-8 0 8 13167.4 670.691 81
8 2 -9 93.6343 103.227 65
8 2 -9 32.6807 87.0841 16
-8 -2 9 51.4665 49.7514 96
8 2 -9 39.3068 48.7346 25
8 2 -9 280.837 151.257 80
-8 -2 9 23.0246 37.9149 78
-8 -2 9 38.3762 33.7592 77
8 -7 -4 3634.1 593.986 56
-8 7 4 4677.92 342.59 19
-8 7 4 4853.46 398.417 28
8 -7 -4 3963.92 689.256 93
-8 7 4 5102.57 392.055 86
-8 7 4 5395.03 400.793 82
-8 7 4 5379.13 368.524 74
-8 7 4 4631 378.468 13
-8 5 5 8816.66 587.273 20
8 -5 -5 10569.8 1672.6 51
8 -5 -5 8089.21 1496.78 45
-8 5 5 9789.63 645.893 28
8 -5 -5 6211.61 1321.41 107
8 -5 -5 7482.81 617.615 24
-8 5 5 9089.82 609.428 87
-8 5 5 11180.7 685.979 82
-8 5 5 10288.8 671.979 22
-8 5 5 9969.63 615.479 13
8 -5 -5 9438.27 1013.91 66
8 -3 -6 1473.18 320.26 65
-8 3 6 1819.81 308.342 20
8 -3 -6 1838.47 693.516 51
8 -3 -6 369.387 339.54 45
-8 3 6 1755.76 271.965 28
8 -3 -6 784.447 502.807 107
8 -3 -6 1411.22 266.377 24
-8 3 6 1661.81 273.021 87
-8 3 6 2093.3 313.866 23
8 -1 -7 12588.8 981.052 65
-8 1 7 11364.6 744.194 20
-8 1 7 11680.5 658.167 114
-8 1 7 12377.6 757.225 96
-8 1 7 11359.7 710.733 94
8 -1 -7 11401 734.279 24
-8 1 7 12054.8 705.777 87
-8 1 7 10666.2 635.595 81
8 -1 -7 13690 1178.67 72
8 1 -8 1229.76 278.738 65
-8 -1 8 1226.02 202.664 20
8 1 -8 611.086 203.624 16
-8 -1 8 1433.84 255.611 96
-8 -1 8 1589.49 254.976 94
8 1 -8 1557.62 290.064 25
8 1 -8 1443.31 228.259 24
-8 -1 8 1499.23 215.787 81
8 1 -8 854.788 252.117 80
8 3 -9 1959.34 230.524 16
-8 -3 9 2834.27 288.89 96
8 3 -9 3043.75 315.977 25
8 3 -9 2924.65 329.717 80
-8 -3 9 2387.14 222.102 78
-8 -3 9 2185.23 217.828 77
8 -8 -3 2612.34 498.128 59
8 -8 -3 2985.98 492.548 56
-8 8 3 3972.4 309.954 19
-8 8 3 4098.9 341.852 28
8 -8 -3 3289.27 630.445 93
8 -8 -3 1990.57 278.177 24
-8 8 3 4654.87 332.856 82
-8 8 3 3783.74 322.439 13
-8 6 4 7487.65 506.464 20
8 -6 -4 4896.46 1163.38 109
-8 6 4 7240.39 538.811 28
8 -6 -4 7700.89 1087.36 93
8 -6 -4 5328.65 546.362 24
-8 6 4 8070.36 572.002 87
-8 6 4 8731.24 599.371 82
-8 6 4 8461.29 592.508 22
-8 6 4 8541.08 504.58 74
-8 6 4 7712.58 546.662 13
8 -6 -4 5231.02 746.264 66
8 -4 -5 2418.98 422.6 65
-8 4 5 2480.14 351.839 20
8 -4 -5 2338.32 820.123 51
8 -4 -5 1884.54 792.308 45
-8 4 5 2290.07 327.357 28
8 -4 -5 2114.57 902.284 107
8 -4 -5 1833.7 330.434 24
-8 4 5 2295.15 325.493 87
-8 4 5 2827.43 359.2 23
-8 4 5 2730.09 351.148 82
-8 4 5 2700.6 356.114 22
-8 4 5 2439.27 310.364 13
8 -4 -5 3081.07 596.9 66
8 -2 -6 342.995 168.933 65
-8 2 6 224.571 116.924 20
8 -2 -6 525.51 399.686 51
8 -2 -6 -165.936 271.642 45
-8 2 6 272.352 104.914 114
-8 2 6 219.617 95.8381 28
8 -2 -6 176.638 141.12 107
-8 2 6 294.151 111.146 96
-8 2 6 270.698 120.386 94
-8 2 6 285.775 113.917 87
8 -2 -6 461.086 160.911 24
-8 2 6 302.258 131.534 23
8 -2 -6 146.818 135.156 72
8 0 -7 39004 1739.16 65
-8 0 7 33542.1 1223.29 20
-8 0 7 38490.8 1285.91 114
8 0 -7 27244 2532.61 107
-8 0 7 37239.5 1356.16 96
-8 0 7 39280.9 1362.31 94
8 0 -7 31896 1396.22 25
8 0 -7 35022.3 1318.65 24
-8 0 7 36103.9 1163.25 87
-8 0 7 32577.7 1086.84 81
8 0 -7 40832.4 2087.85 72
8 0 -7 44692 1994.15 66
8 2 -8 6523.48 597.03 65
-8 -2 8 6103.94 465.453 114
8 2 -8 5394.01 529.649 16
-8 -2 8 7267.74 559.158 96
-8 -2 8 6185.87 474.791 94
8 2 -8 6381.28 558.256 25
8 2 -8 6590.48 500.392 24
8 2 -8 5734.54 593.236 80
-8 -2 8 6154.3 437.956 77
-8 -4 9 6418.95 372.281 96
8 4 -9 6494.27 390.232 25
8 4 -9 6064.78 383.325 80
-8 9 2 1388.24 164.84 19
8 -9 -2 1675.86 408.867 93
-8 9 2 1859.7 202.183 13
8 -7 -3 9068.84 975.998 56
-8 7 3 7373 473.091 19
8 -7 -3 7246.98 1460.56 109
-8 7 3 8344.32 566.511 28
8 -7 -3 8566.35 1203.08 93
-8 7 3 6268.72 595.2 14
-8 7 3 9104.46 587.3 82
-8 7 3 8559.76 563.458 22
-8 7 3 7967.18 533.191 13
-8 5 4 7372.57 574.705 20
8 -5 -4 7827.26 1527.82 45
8 -5 -4 7431.03 1467.8 109
-8 5 4 7414.53 589.026 28
8 -5 -4 5386.64 1276.1 107
8 -5 -4 4582.82 1069.25 105
8 -5 -4 8319.37 1185.6 93
8 -5 -4 6108.68 621.36 24
-8 5 4 7128.84 574.353 87
-8 5 4 8245.04 587.2 23
-8 5 4 9198.02 650.622 82
-8 5 4 8502.45 643.942 22
-8 5 4 7729.27 573.387 13
8 -5 -4 9050.49 1034.38 66
8 -3 -5 -29.5592 71.2694 65
-8 3 5 176.4 79.8628 13
-8 3 5 603.134 187.151 20
8 -3 -5 -28.1768 351.663 51
8 -3 -5 -72.0866 188.884 45
-8 3 5 154.644 89.2571 28
8 -3 -5 -41.8602 303.289 107
-8 3 5 85.113 62.5718 94
-8 3 5 52.1322 61.1473 87
8 -3 -5 143.468 137.103 24
-8 3 5 925.671 221.271 23
-8 3 5 122.115 71.7455 82
-8 3 5 251.499 107.302 22
8 -3 -5 510.111 263.94 66
8 -1 -6 12153.4 1009.31 65
-8 1 6 11831.7 773.291 20
-8 1 6 12175.1 714.876 114
8 -1 -6 9217.86 1598.4 107
-8 1 6 11554.4 747.959 96
-8 1 6 11760.1 740.42 94
8 -1 -6 10895.3 799.787 24
-8 1 6 11741.4 756.321 23
8 -1 -6 12103.7 1220.46 72
8 1 -7 4936.93 592.716 65
-8 -1 7 4259.56 401.55 20
-8 -1 7 4917.23 457.828 114
8 1 -7 4122.51 932.025 107
8 1 -7 3638.31 504.273 16
-8 -1 7 5298.97 511.869 96
-8 -1 7 4672.94 459.152 94
8 1 -7 4963.19 543.833 25
8 1 -7 4911.65 501.852 24
-8 -3 8 308.162 99.4602 114
-8 -3 8 346.599 117.518 96
-8 -3 8 392.836 110.73 94
8 3 -8 324.656 126.956 25
8 3 -8 219.146 80.7805 24
8 3 -8 277.087 118.931 80
-8 -3 8 356.993 100.592 77
8 -8 -2 14219.2 1211.39 59
8 -8 -2 14189.4 1156.12 56
-8 8 2 14367.1 648.669 19
-8 8 2 16480.4 754.156 28
8 -8 -2 16569.7 1616.38 93
-8 8 2 13817.7 863.802 14
-8 8 2 17636.7 751.086 82
-8 8 2 16269.4 707.397 22
-8 8 2 15156.3 699.085 13
-8 6 3 7086.02 532.855 20
8 -6 -3 6660.51 1381.14 45
8 -6 -3 5623.51 1405.69 109
-8 6 3 7015.72 562.287 28
8 -6 -3 6223 1355.65 107
8 -6 -3 4447.48 1157.61 105
8 -6 -3 7511.43 1201.99 93
-8 6 3 6092.6 645.636 14
-8 6 3 8058.05 603.225 87
-8 6 3 6915.82 499.723 23
-8 6 3 8191.03 614.795 82
-8 6 3 8612.17 640.549 22
-8 6 3 7169.47 548.874 13
8 -6 -3 6432.92 875.645 66
-8 4 4 40691.8 1427.42 20
8 -4 -4 40701.1 3389.85 51
8 -4 -4 34310.6 3205.73 45
8 -4 -4 36001.9 3282.8 109
-8 4 4 37843.8 1338.12 28
8 -4 -4 27261.2 2905.59 107
8 -4 -4 26078 2623.17 105
8 -4 -4 44678.7 2784.5 93
8 -4 -4 33645.7 1522.39 24
-8 4 4 36617.1 1312.11 87
-8 4 4 41516.3 1446.83 23
-8 4 4 38237.3 1304.11 82
-8 4 4 37970.7 1361.92 22
-8 4 4 37742.3 1265.61 13
8 -4 -4 46089.3 2397.21 66
8 -2 -5 2268.96 449.203 65
-8 2 5 2264.57 352.907 20
8 -2 -5 1535.81 683.535 45
-8 2 5 2119.12 284.055 114
-8 2 5 1873.24 415.553 108
-8 2 5 1897.36 280.608 28
8 -2 -5 1969.88 813.731 107
8 -2 -5 908.455 394.63 105
-8 2 5 1977.48 290.328 96
-8 2 5 2011.9 297.917 94
8 -2 -5 1792.25 343.518 24
-8 2 5 2132.04 336.965 23
-8 2 5 1806.31 267.862 82
-8 2 5 1801.08 269.409 22
8 -2 -5 1809.27 479.661 72
8 -2 -5 3525.64 667.064 66
8 0 -6 1373.76 344.156 65
-8 0 6 1307.97 242.417 20
-8 0 6 1546.49 263.758 114
-8 0 6 1463.72 374.756 108
8 0 -6 991.633 484.052 107
-8 0 6 1498.14 281.147 96
-8 0 6 1511.53 272.948 94
8 0 -6 1103.06 264.623 25
8 0 -6 1164.75 274.756 24
-8 0 6 1234.5 232.569 23
-8 0 6 1070.47 197.135 81
8 0 -6 1447.2 404.689 72
8 2 -7 15611.1 851.118 18
8 2 -7 17862.9 896.075 32
-8 -2 7 17232.2 819.427 114
-8 -2 7 18279.7 924.663 96
-8 -2 7 17233.9 823.786 94
8 2 -7 17510.6 979.138 25
8 2 -7 18276.7 954.041 24
8 2 -7 14557.4 958.873 80
8 4 -8 2305.63 271.384 18
-8 -4 8 3205.1 294.608 96
8 4 -8 3011.25 296.957 25
8 4 -8 3375.56 308.661 24
8 4 -8 3039.52 285.434 80
8 -9 -1 669.356 246.3 59
-8 9 1 732.707 131.615 19
8 -9 -1 138.728 115.176 11
8 -9 -1 1032.85 356.045 93
-8 9 1 783.4 183.786 14
-8 9 1 843.783 138.669 82
-8 9 1 550.541 105.865 22
-8 9 1 989.49 163.503 13
8 -7 -2 33195.6 1936.68 56
-8 7 2 26953 957.475 19
8 -7 -2 24119.7 2927.56 109
-8 7 2 31776.3 1170.52 28
8 -7 -2 30337.2 2468.24 93
-8 7 2 27054.7 1379.48 14
-8 7 2 32230.5 1095.73 87
-8 7 2 34501.3 1210.72 22
-8 7 2 30271.2 1099.55 13
8 -5 -3 1977.75 547.16 66
-8 5 3 1538.74 269.11 20
8 -5 -3 1141.43 570.015 45
8 -5 -3 1283.43 353.364 112
8 -5 -3 1347.77 569.073 109
-8 5 3 1573.78 270.992 28
8 -5 -3 1090.15 689.22 107
8 -5 -3 1132.31 616.128 105
8 -5 -3 1131.41 603.065 104
8 -5 -3 1101.73 487.563 93
-8 5 3 1724.62 283.324 87
-8 5 3 1752.09 283.005 23
-8 5 3 1300.63 325.443 14
-8 5 3 1820.98 293.619 82
-8 5 3 1883.06 311.695 22
-8 5 3 1824.11 280.842 13
8 -3 -4 28193.3 1514.6 65
-8 3 4 29832.4 1260.43 20
8 -3 -4 26317.4 2662.37 51
8 -3 -4 24137.6 2647.92 45
8 -3 -4 27372.5 2805.59 109
-8 3 4 28303.4 1535.25 108
-8 3 4 28116.9 1130.76 28
8 -3 -4 20402.3 2443.69 107
8 -3 -4 21999.7 2298.68 105
-8 3 4 26831.2 1480.93 99
-8 3 4 26098.3 998.171 94
8 -3 -4 24890.2 1344.59 24
-8 3 4 30205.1 1264.11 23
-8 3 4 25546.1 1022.18 82
-8 3 4 25162.1 1053.88 22
-8 3 4 26395.9 999.811 13
8 -3 -4 33617.6 2044.19 66
8 -1 -5 1577.33 403.642 66
8 -1 -5 1594.47 383.119 65
-8 1 5 1632.51 261.431 114
-8 1 5 1802.41 302.657 20
-8 1 5 2062.63 442.035 108
8 -1 -5 892.2 489.916 107
8 -1 -5 1673.82 498.582 105
-8 1 5 1795.2 286.405 96
-8 1 5 1927.5 299.692 94
8 -1 -5 1561.86 334.168 24
-8 1 5 1858.75 305.228 23
-8 1 5 1212.93 206.865 22
8 -1 -5 1536.86 468.373 72
8 1 -6 17717.9 1128.51 65
-8 -1 6 14919.9 774.367 20
8 1 -6 17569.5 923.982 18
-8 -1 6 18329.5 885.899 114
8 1 -6 15793.3 965.683 32
-8 -1 6 16739 1179.95 108
8 1 -6 15035.4 1685.16 107
-8 -1 6 18972.4 935.508 94
8 1 -6 16712.5 1020.43 25
8 1 -6 18425.5 1073.03 24
-8 -1 6 15781.1 800.977 23
8 3 -7 6609.35 559.455 18
8 3 -7 8023.37 566.772 32
-8 -3 7 7062.44 484.529 114
8 3 -7 7145.56 566.974 25
-8 -3 7 6925.78 475.906 94
8 3 -7 7898.37 599.367 24
8 3 -7 6987.35 559.02 80
-8 -3 7 7057.88 433.276 73
8 -8 -1 24529.7 1636.43 59
8 -8 -1 27656.5 1652.51 56
-8 8 1 23128.5 867.758 19
-8 8 1 29209.6 1010.72 17
-8 8 1 27852.7 1026.19 28
8 -8 -1 25373.8 2138.49 93
-8 8 1 21952.8 1192.82 14
-8 8 1 28966.3 1014.71 22
-8 8 1 26203.1 972.488 13
8 -6 -2 2516.85 589.996 66
-8 6 2 2562.77 327.801 20
8 -6 -2 2535.54 599.912 56
-8 6 2 2199.83 292.88 17
8 -6 -2 1815.89 794.787 109
-8 6 2 2813.15 356.609 28
8 -6 -2 1994.59 828.829 105
8 -6 -2 2785.29 812.579 93
-8 6 2 2358.28 444.704 14
-8 6 2 2789.7 361.158 87
-8 6 2 2645.43 333.013 23
-8 6 2 2830.08 380.844 22
-8 6 2 2357.13 320.208 13
-8 4 3 42893.4 1476.4 20
8 -4 -3 34409.6 3116.33 45
8 -4 -3 30725.7 1651.05 112
8 -4 -3 36576.6 3515.58 109
-8 4 3 41142.2 1766.09 108
-8 4 3 39024.9 1321.39 28
8 -4 -3 33391.6 3128.45 107
8 -4 -3 30932.3 3012.1 105
8 -4 -3 49493.5 3158.85 93
8 -4 -3 36764.5 1709.89 24
-8 4 3 45622.2 1545.1 23
-8 4 3 36608 1269.84 82
-8 4 3 40608.3 1398.93 22
-8 4 3 40111.3 1310.33 13
8 -4 -3 46009.1 2430.98 66
8 -2 -4 3241.97 532.684 65
-8 2 4 3920.03 451.635 20
8 -2 -4 3432.56 639.594 6
-8 2 4 3901.01 588.571 108
-8 2 4 3235.77 364.317 28
8 -2 -4 3170.9 890.366 107
8 -2 -4 2814.97 788.375 105
-8 2 4 3207.11 504.754 99
8 -2 -4 2727.1 634.341 1
-8 2 4 3407.09 382.906 94
8 -2 -4 2575.1 484.36 92
8 -2 -4 3444.28 513.088 24
-8 2 4 3577.23 426.537 23
-8 2 4 3184.03 350.34 82
-8 2 4 3422.65 364.124 22
8 -2 -4 2343.11 561.106 72
8 -2 -4 4118.9 678.578 66
8 0 -5 9451.59 863.329 65
-8 0 5 8804.19 625.045 20
8 0 -5 9292.79 665.32 18
-8 0 5 9338.07 909.507 108
8 0 -5 5774.18 1080.9 107
-8 0 5 9860.64 685 94
8 0 -5 9408.72 802.838 24
-8 0 5 8625.25 620.389 23
8 0 -5 9719.67 1077.67 72
8 2 -6 4245.52 472.795 18
8 2 -6 4164.65 489.343 32
-8 -2 6 4113.83 405.113 114
-8 -2 6 4252.23 562.609 108
-8 -2 6 4450.5 421.497 94
8 2 -6 3640.3 449.539 25
8 2 -6 4358.81 505.988 24
8 2 -6 3815.17 484.801 80
8 4 -7 361.787 121.425 18
-8 -4 7 141.573 58.1458 114
-8 -4 7 216.431 72.6446 94
8 4 -7 227.384 85.8288 25
8 4 -7 303.201 106.583 24
-8 -4 7 214.616 73.873 73
8 -9 0 23448.8 1408.28 59
-8 9 0 19500 712.881 19
8 -9 0 11561.9 851.064 11
-8 9 0 26022.9 835.326 17
8 -9 0 27670.9 1908.62 93
-8 9 0 19403.7 1001.49 14
8 -9 0 13963.5 871.744 83
-8 9 0 23470.9 783.36 22
-8 9 0 23873.7 818.09 13
8 -7 -1 30110.5 1965.72 59
8 -7 -1 29823.9 1894.05 56
-8 7 1 25807.1 966.089 19
-8 7 1 29527.4 1063.62 17
8 -7 -1 21424.3 2877.78 109
-8 7 1 30343 1169.67 28
8 -7 -1 31287.7 2638.98 93
-8 7 1 23473.2 1388.1 14
-8 7 1 32374.5 1235.78 22
-8 7 1 29942.4 1111.15 13
-8 5 2 10535 701.967 20
-8 5 2 9419.32 580.309 17
8 -5 -2 9783.96 1901.03 109
-8 5 2 9581.18 651.492 28
8 -5 -2 7259.95 1482.06 105
8 -5 -2 12079 1653.31 93
-8 5 2 8410.96 889.757 14
-8 5 2 10966.8 731.407 23
-8 5 2 11586 776.191 22
-8 5 2 9235.27 636.512 13
8 -5 -2 11312.3 1220.16 66
-8 3 3 41178.2 1462.98 20
8 -3 -3 35565.4 1766.25 112
8 -3 -3 42249.2 3615.23 109
-8 3 3 43450.3 1904.81 108
-8 3 3 38932.9 1285.15 28
8 -3 -3 36754.1 3054.74 105
-8 3 3 38664.2 1733.94 99
-8 3 3 38280.5 1205.97 94
8 -3 -3 26232.8 1876.49 1
8 -3 -3 37530.1 1728.63 24
-8 3 3 39315.4 1419.73 23
-8 3 3 31943.1 1128.73 82
-8 3 3 32509.9 1183.02 22
-8 3 3 37454.1 1193.07 13
8 -3 -3 38175.1 2129.61 66
-8 1 4 16842.6 886.148 20
8 -1 -4 16819.4 875.788 18
-8 1 4 19149.6 1324.49 108
-8 1 4 15605.4 736.993 28
8 -1 -4 13899.7 1530.58 105
-8 1 4 18389 1203.69 99
-8 1 4 18897.4 929.93 94
8 -1 -4 17153.4 1204.69 92
8 -1 -4 14190.5 1422.66 1
8 -1 -4 16176.2 1096.97 24
-8 1 4 16254.2 876.235 23
-8 1 4 15104.7 724.819 82
8 -1 -4 16409.3 1408.68 72
8 -1 -4 16000.9 1255.4 66
-8 -1 5 14291.3 747.387 20
8 1 -5 16202.3 924.81 18
-8 -1 5 14826.1 1097.79 108
-8 -1 5 16055.8 840.132 94
8 1 -5 14137.5 928.492 25
8 1 -5 15208.9 1015.65 24
-8 -1 5 13896.4 750.26 23
8 3 -6 11941.5 779.54 18
8 3 -6 14661.3 868.511 32
-8 -3 6 12518.4 657.594 114
8 3 -6 12331.2 724.742 25
-8 -3 6 12274.5 636.286 94
8 3 -6 13394.2 821.445 24
-8 -5 7 25187.1 703.334 96
8 5 -7 25348.3 777.998 24
8 -8 0 28561.6 1761.81 59
8 -8 0 32605.2 1844.77 56
-8 8 0 25375.7 929.533 19
8 -8 0 16175.8 1233.96 11
-8 8 0 30962.9 1024.66 17
8 -8 0 25506.2 2879.64 109
-8 8 0 32640.6 1112.2 28
8 -8 0 39353.2 2715.89 93
-8 8 0 25201.8 1350.48 14
8 -8 0 24000.1 1414.99 83
-8 8 0 33039.4 1135.06 22
-8 8 0 31634.9 1088.27 13
-8 6 1 6479.15 521.727 20
8 -6 -1 6333.81 918.955 59
8 -6 -1 5879.03 862.503 56
-8 6 1 5080.29 435.466 17
8 -6 -1 3724.87 1167.49 109
-8 6 1 5863.42 511.951 28
8 -6 -1 5294.82 1319.05 105
8 -6 -1 7602.71 1313.93 93
-8 6 1 4887.9 665.891 14
-8 6 1 6724.8 547.671 87
8 -6 -1 4999.01 676.666 83
-8 6 1 6974.67 554.824 23
-8 6 1 6556.38 577.418 22
-8 6 1 6167.77 522.29 13
-8 4 2 50380 1592.54 20
8 -4 -2 40038.7 2055.51 112
8 -4 -2 38748.1 3643.09 109
-8 4 2 50442.6 1954.35 108
-8 4 2 45148.3 1399.5 28
8 -4 -2 36118.5 3147.6 105
-8 4 2 45779.7 1909.53 99
8 -4 -2 54678.3 3400.4 93
8 -4 -2 45387.6 1941.53 24
-8 4 2 51226 1635.08 23
-8 4 2 46411.2 1475.42 22
-8 4 2 45199.9 1377.57 13
8 -4 -2 48170.4 2450.24 66
-8 2 3 32105.9 1253.94 20
-8 2 3 33468.2 1650.35 49
8 -2 -3 30426.9 1149.66 18
8 -2 -3 33467.8 1695.37 112
-8 2 3 35475.6 1778.8 108
-8 2 3 30232.1 1081.35 28
8 -2 -3 23875 2187.93 105
-8 2 3 31797.9 1572.1 99
8 -2 -3 25555.3 1598.59 92
8 -2 -3 29630.9 1513.89 24
8 -2 -3 23605.2 1793.34 1
-8 2 3 29665.7 1202.35 23
-8 2 3 27254 999.416 82
-8 2 3 26217.5 997.943 22
8 -2 -3 25732.6 1748.69 72
8 -2 -3 29896.7 1788.83 66
-8 0 4 20085.7 922.778 20
-8 0 4 22538.7 1332.92 49
8 0 -4 21775.2 1049.12 18
-8 0 4 22285.3 1385.4 108
8 0 -4 18420 1642.23 105
8 0 -4 21658.7 1234.89 24
-8 0 4 19810.7 924.871 23
8 0 -4 23991.6 1651.74 72
8 2 -5 13684.3 851.769 18
8 2 -5 13454.7 926.219 32
-8 -2 5 12152.3 946.11 108
8 2 -5 12743.1 811.279 25
-8 -2 5 13517.1 725.402 94
-8 -2 5 14729 736.914 90
8 2 -5 14540.4 941.895 24
8 4 -6 16573.9 856.718 18
-8 -4 6 16976.3 673.339 114
-8 -4 6 16110.1 629.944 94
8 4 -6 17944.6 840.46 24
-8 -4 6 15807.6 630.746 73
-8 9 -1 4462.1 339.782 19
8 -9 1 3236.97 444.073 11
-8 9 -1 5532.12 376.487 17
8 -9 1 7072.14 967.184 93
-8 9 -1 4358.4 487.56 14
8 -9 1 4805.74 561.754 83
-8 9 -1 6027.74 406.76 22
-8 9 -1 5749.46 394.706 13
8 -7 0 5211.64 785.194 59
8 -7 0 6119.86 846.24 56
-8 7 0 4168.37 390.934 19
8 -7 0 2481.99 569.54 11
-8 7 0 4630.99 412.891 17
8 -7 0 3732.31 1185.4 109
-8 7 0 5581.57 490.435 28
8 -7 0 7447.78 1277.63 93
-8 7 0 5174.13 666.392 14
8 -7 0 4458.32 675.111 83
-8 7 0 5767.7 458.772 23
-8 7 0 5699.58 518.871 22
-8 7 0 5404.27 473.122 13
-8 5 1 17546.7 906.765 20
8 -5 -1 14838.3 1299.93 59
8 -5 -1 15090 1325.87 56
8 -5 -1 11387.2 687.971 18
-8 5 1 13660.4 680.166 17
8 -5 -1 13691.2 1270.09 112
8 -5 -1 14208.4 2253.99 109
-8 5 1 15541.9 821.326 28
8 -5 -1 13466.5 2040.69 105
8 -5 -1 18336.9 2031.73 93
-8 5 1 14071.1 1164.03 14
-8 5 1 17370.6 942.188 23
-8 5 1 16581.4 906.227 22
-8 5 1 15697.3 824.208 13
-8 3 2 21571.8 1044.79 20
-8 3 2 22553.8 1315.86 49
8 -3 -2 16600.7 860.316 18
8 -3 -2 19235.5 1383.05 112
8 -3 -2 19501 2490.24 109
-8 3 2 23154.8 1398.11 108
-8 3 2 19975.4 905.48 28
8 -3 -2 16742 1981.44 105
-8 3 2 21090.6 1271.17 99
8 -3 -2 16191.2 1353.39 92
8 -3 -2 18738.1 1241.95 24
-8 3 2 20777.9 1017.36 23
8 -3 -2 13114 1268.4 1
-8 3 2 16956.2 832.094 22
8 -3 -2 20351.7 1529.56 66
-8 1 3 10479.1 675.31 20
8 -1 -3 6915.56 1115.87 3
-8 1 3 11403.4 957.138 49
8 -1 -3 10807.3 717.655 18
-8 1 3 11293.2 1001.19 108
-8 1 3 10621.7 605.253 28
8 -1 -3 9969.69 1336.94 105
-8 1 3 11831.1 956.958 99
8 -1 -3 10668.8 1004.51 92
8 -1 -3 10375.3 877.737 24
-8 1 3 10087.2 671.549 23
8 -1 -3 8687.48 1079.35 1
8 -1 -3 11050.5 1101.14 72
-8 -1 4 20948.6 885.169 20
-8 -1 4 22914.1 1285.33 49
8 1 -4 24719.2 1163.52 18
-8 -1 4 22624 1327.64 108
8 1 -4 24712.4 1866.75 105
8 1 -4 20325.5 1049.32 25
-8 -1 4 25873.9 1003.36 90
8 1 -4 22942.1 1253.9 24
-8 -1 4 21163.6 909.792 23
8 3 -5 9086.09 694.219 18
8 3 -5 9863.78 738.857 32
-8 -3 5 9317.69 563.903 114
8 3 -5 8444.3 548.81 25
-8 -3 5 9365.68 550.193 94
-8 -3 5 10429.7 596.96 90
8 3 -5 9233.84 683.321 24
8 5 -6 776.558 160.952 18
8 5 -6 829.058 142.563 24
-8 -5 6 1037.69 135.344 73
8 -8 1 4256.69 644.645 59
-8 8 -1 3810.38 354.548 19
8 -8 1 2982.74 512.377 11
-8 8 -1 4511.53 379.059 17
-8 8 -1 4814.58 402.708 28
8 -8 1 6111.99 1035.99 93
-8 8 -1 3872.96 530.44 14
8 -8 1 4161.52 620.406 83
-8 8 -1 4933.03 435.782 22
-8 8 -1 4657.28 412.575 13
-8 6 0 8430.85 598.085 20
8 -6 0 7516.33 908.765 59
8 -6 0 8047.57 960.263 56
8 -6 0 4132.79 694.632 11
-8 6 0 6864.74 490.891 17
8 -6 0 7978.55 1668.05 109
-8 6 0 7899.93 579.72 28
8 -6 0 6089.25 1340.32 105
8 -6 0 10484.1 1509.11 93
-8 6 0 6476.87 779.63 14
8 -6 0 6851.58 824.802 83
-8 6 0 8724.48 632.564 23
-8 6 0 7961.66 632.769 22
-8 6 0 9001.21 618.639 13
-8 4 1 53968 1640.83 20
8 -4 -1 44510.7 2091.42 56
-8 4 1 56099.5 1990.07 49
8 -4 -1 37917.9 1288.41 18
8 -4 -1 44275 2203.8 112
8 -4 -1 45240.3 3817.61 109
-8 4 1 57772.3 2116.73 108
-8 4 1 50961 1465.31 28
8 -4 -1 40958.4 3243.59 105
8 -4 -1 47510.7 1986.88 24
-8 4 1 51819.4 1638.15 23
-8 4 1 46348.7 1434.21 22
-8 2 2 17336.2 898.768 20
8 -2 -2 10908.5 1352.73 3
-8 2 2 19303 1240.79 49
8 -2 -2 16419.8 877.031 18
8 -2 -2 18979.5 1346.78 112
-8 2 2 19665.9 1317.41 108
-8 2 2 17429.1 816.923 28
-8 2 2 20498.1 1415.4 7
8 -2 -2 14342.9 1708.27 105
-8 2 2 18746.6 1208.33 99
8 -2 -2 15390.8 1270.26 92
8 -2 -2 15352.3 1090.64 24
-8 2 2 15813.4 857.966 23
-8 2 2 15277.9 740.141 22
8 -2 -2 13761.9 1289.92 1
8 -2 -2 15001.4 1251.5 72
-8 0 3 8807.49 593.297 20
-8 0 3 9507.66 845.478 49
8 0 -3 9982.2 723.469 18
-8 0 3 9125.02 867.039 108
8 0 -3 9220.56 1203.3 105
8 0 -3 7965.57 661.009 25
-8 0 3 9640.8 613.979 90
8 0 -3 8727.2 777.48 24
-8 0 3 8204.11 584.962 23
8 2 -4 4636.07 512.24 18
8 2 -4 3643.07 497.236 32
-8 -2 4 3357.17 487.088 108
-8 -2 4 4347.26 406.465 90
8 2 -4 3942.78 486.314 24
8 4 -5 559.921 164.86 18
-8 -4 5 535.635 117.693 114
-8 -4 5 560.518 118.19 94
8 4 -5 629.271 161.078 24
-8 9 -2 439.631 100.05 13
-8 9 -2 363.855 87.582 19
8 -9 2 332.891 155.691 11
-8 9 -2 305.974 85.6861 17
8 -9 2 843.002 268.211 112
8 -9 2 437.766 169.211 83
-8 9 -2 323.623 130.103 14
-8 9 -2 552.079 116.818 22
8 -7 1 26903.8 1651.53 59
-8 7 -1 21908.6 865.861 19
8 -7 1 15307.2 1243.52 11
-8 7 -1 25298.5 920.584 17
8 -7 1 17812.5 2349.72 109
-8 7 -1 27426.8 1028.69 28
8 -7 1 31801.5 2459.67 93
-8 7 -1 22834.6 1385.33 14
8 -7 1 24220.8 1560.82 83
-8 7 -1 30894.9 1081.37 23
-8 7 -1 29062.5 1136.72 22
-8 7 -1 26174.9 1025.11 13
-8 5 0 920.439 215.145 20
8 -5 0 816.682 299.462 56
8 -5 0 540.145 245.727 11
8 -5 0 866.584 345.079 112
8 -5 0 486.016 520.216 109
-8 5 0 792.237 187.323 28
8 -5 0 917.937 525.189 105
8 -5 0 699.83 385.838 93
8 -5 0 611.65 235.271 83
-8 5 0 620.825 262.507 14
-8 5 0 759.579 185.175 23
-8 5 0 577.915 169.915 22
-8 3 1 35749 1319.94 20
8 -3 -1 22619.8 1922.28 3
-8 3 1 37504.1 1701.79 49
8 -3 -1 20834.5 1343.38 11
8 -3 -1 31058.9 1243.15 18
8 -3 -1 34768.1 1902.35 112
8 -3 -1 33467.9 3172 109
-8 3 1 37934 1810.59 108
-8 3 1 35763.1 1206.56 28
-8 3 1 40138 1957.28 7
8 -3 -1 27982.8 2402.25 105
-8 3 1 35999.5 1654.75 99
8 -3 -1 28171.2 1759.92 92
8 -3 -1 33038.4 1578.14 24
-8 3 1 33932.8 1283.46 23
-8 3 1 30022.3 1075.24 22
8 -3 -1 27577.9 1636.08 72
-8 1 2 98244.7 2041.16 20
-8 1 2 107755 2884.95 49
8 -1 -2 106505 2367.63 18
-8 1 2 104447 3016.89 108
-8 1 2 96643.2 1809.03 28
8 -1 -2 92584.9 3978.18 105
8 -1 -2 103376 3218.06 92
8 -1 -2 97267.1 2599 24
-8 1 2 95842.2 2050.03 23
8 -1 -2 103525 3173.82 72
-8 -1 3 24509.4 927.583 20
-8 -1 3 25323.9 1319.53 49
8 1 -3 27604.7 1240.54 18
8 1 -3 23109 1289.66 32
-8 -1 3 24506.6 1359.51 108
-8 -1 3 26140.8 1023.89 90
8 1 -3 24417.7 1254.06 24
8 3 -4 8285.16 657.322 18
-8 -3 4 7307.85 470.598 115
8 3 -4 7393.25 644.441 32
8 3 -4 6120.64 478.012 15
-8 -3 4 7313.92 473.926 94
-8 -3 4 7648.16 517.463 90
8 3 -4 7792.19 605.842 24
8 5 -5 2142.21 257.826 18
-8 8 -2 3413.49 312.498 19
8 -8 2 3342.55 504.045 11
-8 8 -2 4064 333.766 17
8 -8 2 4013.01 616.284 112
-8 8 -2 3930.57 324.116 28
-8 8 -2 3671.75 489.804 14
8 -8 2 3897.44 571.296 83
-8 8 -2 4769.46 409.542 22
-8 8 -2 4659.02 382.35 13
-8 6 -1 5973.67 492.736 20
8 -6 1 3850.53 610.813 11
8 -6 1 4749.15 744.35 112
8 -6 1 3893.65 1071.26 109
-8 6 -1 5388.15 453.797 28
-8 6 -1 4313.02 610.415 14
8 -6 1 4349.17 661.82 83
-8 6 -1 5986.46 519.775 23
-8 6 -1 5809.64 514.783 22
-8 4 0 5955.8 535.198 20
-8 4 0 6471.73 675.781 49
8 -4 0 3084.96 540.396 11
8 -4 0 5043.21 745.045 112
8 -4 0 5021.05 1212.1 109
-8 4 0 6123.46 695.428 108
-8 4 0 5568.53 483.621 28
8 -4 0 3684.72 895.789 105
8 -4 0 4648.39 735.406 92
8 -4 0 4587.45 585.564 24
8 -4 0 5055.68 663.3 83
-8 4 0 5962.12 546.383 23
-8 4 0 5374.69 472.005 22
-8 2 1 45019.3 1422.59 20
-8 2 1 49146.1 1957.92 49
8 -2 -1 46284.5 1554.38 18
8 -2 -1 54440.8 2341.24 112
-8 2 1 48736.7 2089.06 108
-8 2 1 48480.3 1354.47 28
8 -2 -1 39781.1 2714.41 105
8 -2 -1 42440.7 2108.75 92
8 -2 -1 41042.8 1685.65 24
-8 2 1 42644.3 1392.59 23
-8 0 2 77971.5 1742.51 20
-8 0 2 85458.1 2489.57 49
8 0 -2 91066.2 2235.4 18
-8 0 2 79206.6 2541.27 108
-8 0 2 81174.1 1520.55 28
8 0 -2 88577.4 3800.19 105
8 0 -2 85828.1 1777.05 15
8 0 -2 79990.9 2269.61 24
-8 0 2 80762.1 1805.46 23
-8 -2 3 3175.66 448.422 49
8 2 -3 3716.94 454.41 18
-8 -2 3 3677.54 349.754 115
8 2 -3 3736.88 489.562 32
-8 -2 3 3100.44 457.829 108
8 2 -3 3351.35 361.285 15
-8 -2 3 3663.26 380.313 90
8 2 -3 3407.28 431.393 24
8 4 -4 6422.68 524.09 18
-8 -4 4 5447.25 360.318 115
-8 -4 4 5694.85 350.969 114
-8 -4 4 5826.98 348.657 94
-8 -4 4 6738.42 432.739 90
8 4 -4 6010.21 432.633 24
8 -9 3 5665.31 547.956 112
-8 9 -3 3755.66 264.29 19
-8 9 -3 4182.09 266.614 17
8 -9 3 5846.74 552.681 83
-8 9 -3 6464.71 372.988 22
-8 7 -2 434.881 114.777 13
-8 7 -2 302.821 95.7346 19
8 -7 2 355.156 212.399 11
-8 7 -2 221.397 77.4317 17
8 -7 2 515.095 270.244 112
8 -7 2 858.818 504.636 109
-8 7 -2 393.953 112.201 28
8 -7 2 534.573 220.807 92
8 -7 2 424.138 234.466 83
-8 7 -2 117.827 80.0011 14
-8 7 -2 384.976 120.911 23
-8 7 -2 268.982 94.5658 22
-8 5 -1 35698.6 1274.32 20
8 -5 1 22643.4 1411.37 11
8 -5 1 31174.9 1825.93 112
8 -5 1 25914.2 2715.91 109
-8 5 -1 34369.4 1153.57 28
8 -5 1 26953.2 2343.21 105
8 -5 1 24608.7 1615.23 92
8 -5 1 27996.2 1390.05 24
8 -5 1 31181.8 1700.55 83
-8 5 -1 35177.5 1298.64 23
-8 5 -1 31817.6 1170.24 22
-8 3 0 33238.8 1259.37 20
-8 3 0 36722.6 1668.27 49
8 -3 0 23530 1314.79 11
8 -3 0 33618.7 1355.26 18
8 -3 0 36147.8 1932.96 112
-8 3 0 37759.3 1803.64 108
-8 3 0 34579.5 1173.26 28
8 -3 0 28200.6 2258.38 105
8 -3 0 31296.6 1830.69 92
8 -3 0 28740.9 1390.9 24
8 -3 0 37500.2 1722.06 83
-8 3 0 32560 1236.82 23
-8 3 0 29642.9 1056.45 22
-8 3 0 37223.2 1281.52 71
-8 1 1 60997.2 1585.99 20
-8 1 1 65286 2216 49
8 -1 -1 68179.2 1952.17 18
-8 1 1 64118.5 2334.08 108
-8 1 1 63348 1466.64 28
8 -1 -1 60945 3162.04 105
8 -1 -1 61958.6 1514.81 15
8 -1 -1 71952.3 2730 92
8 -1 -1 60519.3 1937.4 24
-8 1 1 60548 1601.88 23
-8 1 1 65111 1781.02 71
-8 -1 2 26302.2 925.53 20
-8 -1 2 26096.7 1321.84 49
8 1 -2 29607 1284.86 18
8 1 -2 23064.8 1262.28 32
-8 -1 2 23884.3 1338.3 108
8 1 -2 27951 1055.22 15
8 1 -2 25840.8 1206.31 24
8 1 -2 20199.8 837.086 21
8 3 -3 4762.89 478.249 18
-8 -3 3 4726.34 374.655 115
8 3 -3 4921.25 500.718 32
8 3 -3 4831.61 435.617 15
-8 -3 3 4902.07 408.488 90
8 3 -3 4378.07 413.485 24
-8 8 -3 543.437 115.242 19
8 -8 3 847.224 211.148 11
8 -8 3 879.049 254.553 112
8 -8 3 517.011 161.505 92
8 -8 3 534.057 141.379 24
8 -8 3 689.367 207.282 83
-8 8 -3 892.576 160.891 22
-8 8 -3 711.662 135.91 13
-8 6 -2 16823.4 783.234 20
8 -6 2 11436.7 928.182 11
8 -6 2 13800.9 1151.72 112
-8 6 -2 15464.8 717.967 28
-8 6 -2 15121.6 771.639 10
8 -6 2 12455.1 1062.9 92
8 -6 2 12642.3 843.157 24
8 -6 2 14653.9 1145.58 83
-8 6 -2 16585.9 827.562 23
-8 6 -2 15510.7 795.115 22
-8 4 -1 16648.6 875.182 20
-8 4 -1 17961.3 1107.15 49
8 -4 1 11128.3 903.79 11
8 -4 1 15491.9 1244.58 112
-8 4 -1 16985.6 1146.65 108
-8 4 -1 16078.4 785.908 28
-8 4 -1 16141.5 770.648 10
8 -4 1 13199.4 1496.25 105
8 -4 1 13561 1171.73 92
8 -4 1 12955.6 882.002 24
8 -4 1 16277.4 1162.39 83
-8 4 -1 15774.2 858.87 23
-8 4 -1 14216.8 752.341 22
-8 2 0 13502.9 774.627 20
-8 2 0 14663.4 1052.13 49
8 -2 0 15184.1 921.546 18
-8 2 0 14215.9 777.837 31
-8 2 0 14707 1147.08 108
-8 2 0 15110.2 711.095 10
-8 2 0 13706 716.546 28
8 -2 0 12069.5 1418.11 105
8 -2 0 12706 706.648 15
8 -2 0 13518.2 1178.84 92
8 -2 0 12562.1 864.314 24
8 -2 0 16229.1 1100.71 83
-8 2 0 12527.7 744.028 23
-8 2 0 14536.7 827.266 71
-8 0 1 27997.7 1018.51 20
-8 0 1 29366.5 1443.94 49
8 0 -1 31451.9 1311.17 18
8 0 -1 24976.5 1307.74 32
-8 0 1 28718 1528.65 108
-8 0 1 27929.2 906.592 28
8 0 -1 34393.9 2341.51 105
8 0 -1 28476.9 1064.5 15
8 0 -1 27011.4 1219.71 24
-8 0 1 29118.1 1045.02 23
-8 0 1 30078.4 1179.38 71
8 0 -1 22350.2 858.373 21
8 2 -2 8501.83 648.615 18
-8 -2 2 8448.68 530.953 115
8 2 -2 7637.02 670.989 32
8 2 -2 9083.51 600.765 15
-8 -2 2 8083.78 555.908 90
8 2 -2 7878.46 580.59 24
8 4 -3 1019.41 186.229 18
8 4 -3 805.142 159.35 15
8 -7 3 3774.41 471.943 11
8 -7 3 4523.68 567.968 112
-8 7 -3 4620.09 332.644 28
-8 7 -3 4073.19 369.374 10
8 -7 3 4024.46 497.28 92
8 -7 3 4276.23 557.152 83
-8 7 -3 5193.85 391.851 23
-8 7 -3 4818.38 400.348 22
-8 5 -2 8385.94 586.051 20
8 -5 2 6458.14 682.409 11
8 -5 2 7760.63 841.377 112
-8 5 -2 8074.05 519.373 28
-8 5 -2 7242.45 521.685 10
8 -5 2 6798.54 777.996 92
8 -5 2 8406.22 843.734 83
-8 5 -2 7891.55 587.133 23
-8 5 -2 8009.29 565.816 22
-8 3 -1 1303.82 237.032 20
-8 3 -1 1338.49 303.649 49
8 -3 1 1373.16 282.96 18
-8 3 -1 1427.54 231.125 31
8 -3 1 1561.55 385.644 112
-8 3 -1 1217.14 204.889 10
-8 3 -1 1208.73 324.965 108
-8 3 -1 1348.23 223.973 28
8 -3 1 979.835 391.408 105
8 -3 1 1233.39 224.294 15
8 -3 1 1246.53 352.335 92
8 -3 1 1074.34 233.333 24
8 -3 1 1612.43 356.476 83
-8 3 -1 1283.99 240.496 23
-8 3 -1 1319.63 212.946 22
-8 3 -1 1432.69 239.676 71
-8 1 0 21253.4 928.886 20
-8 1 0 22769.9 1293.11 49
8 -1 0 25288.5 1172.95 18
-8 1 0 23733.7 1001.79 31
-8 1 0 25034.2 921.002 10
-8 1 0 21668.1 1368.25 108
-8 1 0 20927.4 844.333 28
8 -1 0 23297.1 1904.34 105
8 -1 0 23787.8 990.078 15
8 -1 0 19844.5 1011.91 24
-8 1 0 22322.8 954.364 23
-8 1 0 21682.5 998.712 71
-8 -1 1 4841.13 557.75 49
8 1 -1 5586.03 527.457 18
8 1 -1 4343.04 512.372 32
-8 -1 1 3859.13 533.312 108
8 1 -1 5231.12 457.988 15
-8 -1 1 4628 443.768 71
8 1 -1 4043.74 367.478 21
8 3 -2 40466.6 1260.52 18
-8 -3 2 43849.4 1095.46 115
8 3 -2 40059 1172.21 15
-8 -3 2 46098.6 1189.46 90
8 -8 4 546.586 150.199 112
8 -8 4 1090.65 228.388 83
-8 8 -4 1020.94 150.718 22
-8 8 -4 624.311 104.823 13
-8 6 -3 5549.12 410.529 20
8 -6 3 4194.1 499.274 11
8 -6 3 4960.36 601.019 112
-8 6 -3 5164.3 369.68 28
-8 6 -3 4914.76 410.303 10
8 -6 3 4753.44 554.783 92
8 -6 3 5206.95 622.321 83
-8 6 -3 5398.83 436.682 23
-8 6 -3 5425.38 437.184 22
-8 4 -2 9551.67 633.748 20
-8 4 -2 8341.11 721.837 49
8 -4 2 6962.21 613.866 11
8 -4 2 10122.4 932.013 112
-8 4 -2 8904.98 805.679 108
-8 4 -2 9643.45 570.831 28
-8 4 -2 8395.76 551.151 10
8 -4 2 7504.4 549.359 15
8 -4 2 8491.13 855.737 92
8 -4 2 9401.26 846.63 83
-8 4 -2 8440.24 615.751 23
-8 4 -2 8227.89 548.163 22
-8 2 -1 37626.8 1264.68 20
8 -2 1 41197.5 1479.25 18
-8 2 -1 41776.7 1289.56 31
-8 2 -1 38694 1815.12 108
-8 2 -1 40256.8 1182.54 10
-8 2 -1 35434.5 1129.42 28
8 -2 1 36903.7 1244.15 15
-8 2 -1 38360.3 1277.87 23
-8 2 -1 40845.1 1334.04 71
-8 0 0 6447.99 472.815 20
-8 0 0 6381.98 664.839 49
8 0 0 6272.97 548.554 18
8 0 0 5941.7 572.516 32
-8 0 0 6482.28 505.437 31
-8 0 0 6670.49 472.691 10
-8 0 0 5904.88 686.022 108
-8 0 0 5948.78 407.979 28
8 0 0 5888.8 487.955 15
-8 0 0 6418.92 529.003 71
8 0 0 4999.41 399.5 21
8 2 -1 5993.92 502.896 18
8 2 -1 6435.52 485.518 15
-8 -2 1 5854.58 451.444 90
8 2 -1 5150.53 392.645 21
8 -7 4 1369.35 230.041 11
8 -7 4 1616.49 273.271 112
8 -7 4 1881.59 314.18 83
-8 7 -4 1834.34 204.584 23
-8 7 -4 1971.26 225.61 22
-8 5 -3 2415.44 292.16 20
8 -5 3 1809.67 293.736 11
8 -5 3 2070.4 371.337 112
-8 5 -3 2177.2 243.407 28
-8 5 -3 2131.29 264.403 10
8 -5 3 1940.07 260.962 15
8 -5 3 1657.22 331.034 92
8 -5 3 2416.45 410.002 83
-8 5 -3 2345.07 307.73 23
-8 5 -3 2275.27 278.994 22
-8 3 -2 8511.68 502.738 12
-8 3 -2 8593.02 600.548 20
8 -3 2 9192.09 675.679 18
-8 3 -2 9369.72 552.945 31
-8 3 -2 8373.89 811.253 108
-8 3 -2 8175.32 527.56 10
-8 3 -2 8160.57 522.562 28
8 -3 2 7650.03 559.784 15
8 -3 2 9998.78 852.853 83
-8 3 -2 8785.84 604.618 23
-8 3 -2 9186.54 575.869 71
-8 1 -1 6409.87 491.651 20
8 -1 1 5936.86 521.049 18
-8 1 -1 6278.9 494.512 31
-8 1 -1 6668.03 740.217 108
-8 1 -1 6798.83 488.232 10
-8 1 -1 6327.95 456.44 28
8 -1 1 6395.05 511.835 15
-8 1 -1 6340.32 476.307 23
-8 1 -1 6787.85 541.353 71
8 -1 1 4930.13 380.094 21
8 1 0 15142.7 778.77 18
8 1 0 13633.2 760.485 32
-8 -1 0 15916 688.651 10
8 1 0 15686.7 754.774 15
-8 -1 0 15133.2 756.147 71
8 1 0 13731.9 639.753 21
8 3 -1 141.955 70.3726 15
-8 -3 1 347.345 89.1342 90
-8 6 -4 7009.24 401.537 20
8 -6 4 5236.18 440.105 11
-8 6 -4 6264.09 344.82 28
-8 6 -4 6227.3 425.021 10
8 -6 4 4493.13 338.416 15
8 -6 4 6889.56 604.348 83
-8 6 -4 7157.67 452.818 23
-8 6 -4 7083.01 445.073 22
-8 4 -3 2493.85 302.825 20
-8 4 -3 2343.4 247.492 12
8 -4 3 2358.91 319.046 18
8 -4 3 1703.6 254.643 11
-8 4 -3 2312.01 254.011 28
-8 4 -3 2543.43 286.935 10
8 -4 3 2377.63 298.169 15
8 -4 3 2446.03 399.285 83
-8 4 -3 2461.07 310.098 23
-8 4 -3 2622.59 279.881 22
-8 2 -2 7996.57 547.961 20
8 -2 2 7813.64 579.827 18
-8 2 -2 9419.12 570.7 31
-8 2 -2 8571.25 537.573 10
-8 2 -2 7828.2 505.7 28
8 -2 2 7625.62 547.947 15
-8 2 -2 8066.37 541.846 23
-8 2 -2 8331.57 570.502 71
-8 0 -1 5510.9 391.148 20
8 0 1 6027.97 482.428 18
-8 0 -1 5809.96 453.234 31
-8 0 -1 6295.76 444.485 10
-8 0 -1 4932.83 356.212 28
8 0 1 5457.73 442.822 15
-8 0 -1 5625.98 463.935 71
8 0 1 4941.4 374.355 21
8 2 0 11601.7 570.19 18
-8 -2 0 12167 539.297 115
8 2 0 13418.4 619.633 15
-8 -2 0 12770.9 587.014 90
8 2 0 11375.6 510.806 21
-8 5 -4 259.248 81.8205 20
8 -5 4 258.828 79.6605 18
8 -5 4 129.608 66.5788 11
-8 5 -4 306.16 77.0359 28
-8 5 -4 173.985 63.202 10
8 -5 4 176.213 72.6894 15
8 -5 4 288.924 119.48 83
-8 5 -4 308.124 93.0358 23
-8 5 -4 310.242 85.1394 22
-8 3 -3 3283.46 293.889 12
-8 3 -3 3348.67 343.771 20
8 -3 3 3449.85 358.177 18
-8 3 -3 3589.87 305.095 31
-8 3 -3 3519.35 329.228 10
-8 3 -3 3303.48 302.023 28
8 -3 3 3363.76 345.195 15
-8 3 -3 3418.32 343.505 23
-8 3 -3 3546.55 318.303 71
8 -1 2 134.757 58.4867 21
-8 1 -2 103.889 52.5337 20
8 -1 2 -43.8865 41.8242 18
-8 1 -2 113.524 71.7147 31
-8 1 -2 120.434 61.4009 28
-8 1 -2 41.3862 39.0119 10
8 -1 2 28.6051 45.7419 15
-8 1 -2 121.572 63.0209 71
8 1 1 5807.01 388.397 18
8 1 1 6432.4 426.971 15
-8 -1 -1 6886.15 446.762 71
8 1 1 5479.21 353.967 21
8 -6 5 3702.44 351.904 83
-8 4 -4 4453.04 351.137 20
8 -4 4 3592.04 318.122 18
-8 4 -4 4235.12 295.281 28
-8 4 -4 3916.46 324.138 10
8 -4 4 3460.89 308.312 15
-8 4 -4 4351.04 352.567 23
-8 2 -3 2911.71 270.968 12
-8 2 -3 3010.11 293.152 20
8 -2 3 2815.76 285.845 18
-8 2 -3 3238.73 292.027 31
-8 2 -3 3277.07 303.432 10
-8 2 -3 2810.51 264.875 28
8 -2 3 2611.12 279.43 15
-8 2 -3 2561.33 249.415 23
-8 2 -3 3181.76 304.71 71
8 0 2 936.291 149.442 18
-8 0 -2 1265.64 179.807 31
-8 0 -2 780.725 117.387 28
8 0 2 1148.42 174.784 15
-8 0 -2 1015.11 169.347 71
8 0 2 792.243 127.766 21
-8 3 -4 6073.88 380.216 20
8 -3 4 4306.55 298.601 18
-8 3 -4 5547.62 326.192 28
8 -3 4 4655.24 327.498 15
-8 3 -4 5181.18 328.453 23
-8 1 -3 8125.32 413.71 31
8 -1 3 7077.2 395.402 15
-8 1 -3 7910.28 428.683 71
-9 2 9 3675.16 257.138 81
9 -2 -9 2364.47 273.517 80
-9 5 7 207.12 62.0096 86
-9 5 7 268.298 73.1062 81
9 -3 -8 579.352 129.345 25
-9 3 8 742.012 127.484 86
-9 3 8 959.475 153.814 81
-9 3 8 846.406 134.612 78
9 -3 -8 640.308 172.414 72
9 -1 -9 2009.65 270.267 16
9 -1 -9 2715.81 253.239 25
9 -1 -9 2840.77 321.979 80
-9 6 6 291.204 83.4 28
-9 6 6 224.961 63.6878 86
-9 6 6 252.14 72.0233 81
9 -6 -6 197.733 111.071 72
9 -4 -7 541.649 192.168 66
-9 4 7 476.978 107.717 28
-9 4 7 547.07 121.787 81
9 -4 -7 492.647 169.038 72
9 -2 -8 6656.14 485.038 25
-9 2 8 7480.44 438.234 81
-9 2 8 8191.2 489.163 78
9 -2 -8 7767.94 666.212 72
9 -2 -8 7608.11 730.472 66
9 0 -9 1081.99 194.277 16
9 0 -9 1777.68 215.944 25
9 0 -9 1410.97 236.642 80
-9 0 9 1892.09 218.656 78
-9 7 5 895.66 134.877 28
-9 7 5 927.449 131.716 13
-9 5 6 4417.81 359.385 28
-9 5 6 3918.82 300.86 13
9 -5 -6 3765.45 511.738 72
9 -5 -6 3255.48 502.685 66
-9 3 7 3007.71 337.118 20
-9 3 7 2065.34 224.106 28
-9 3 7 2467.92 287.739 87
-9 3 7 2742.21 289.727 81
-9 3 7 2777.87 292.447 78
9 -3 -7 2384.14 416.992 72
9 -3 -7 3409.57 543.655 66
9 -1 -8 5726.82 558.863 65
9 -1 -8 6405.46 496.931 25
-9 1 8 5938.72 375.193 87
-9 1 8 6423.29 404.163 81
9 1 -9 1176.23 176.502 25
9 1 -9 972.986 186.314 80
-9 -1 9 1244.36 166.357 78
9 -6 -5 842.277 279.7 66
-9 6 5 1034.04 175.842 28
-9 6 5 844.326 150.361 13
-9 4 6 5532.63 465.292 20
-9 4 6 5230.1 419.45 28
-9 4 6 4966.37 425.718 87
-9 4 6 5058.69 380.891 78
9 -4 -6 4102.9 583.021 72
9 -4 -6 5458.66 724.932 66
9 -2 -7 7737.59 700.722 65
-9 2 7 9497.28 627.786 20
9 -2 -7 7544.84 595.388 25
-9 2 7 8761.69 561.749 87
-9 2 7 8318.23 505.289 81
9 -2 -7 8539.27 837.559 72
9 -2 -7 9969.31 945.695 66
9 0 -8 541.1 167.711 65
9 0 -8 320.742 120.157 16
-9 0 8 432.176 120.62 96
9 0 -8 390.993 119.366 25
-9 0 8 355.301 92.5898 81
9 0 -8 440.118 165.931 80
-9 -2 9 3335.1 259.022 96
9 2 -9 3486.28 286.371 25
9 -7 -4 1324.76 356.979 59
9 -7 -4 1010.85 307.729 56
-9 7 4 1802.39 224.084 28
-9 7 4 1314.53 172.508 86
9 -7 -4 653.811 145.269 24
-9 7 4 2135.49 240.296 82
-9 7 4 1491.52 197.078 13
-9 5 5 4060.55 383.174 20
-9 5 5 4053.15 392.341 28
9 -5 -5 2708.41 343.107 24
-9 5 5 3877.4 376.637 87
-9 5 5 4142.92 388.264 82
-9 5 5 3550.48 329.365 13
9 -5 -5 2902.65 530.711 66
-9 3 6 2859.81 370.708 20
-9 3 6 2313.48 285.427 28
9 -3 -6 2327.98 325.383 24
-9 3 6 2720.99 338.75 87
-9 3 6 3085.68 368.863 23
9 -3 -6 2235.09 464.209 72
9 -3 -6 3398.74 593.794 66
9 -1 -7 2109.47 424.746 66
9 -1 -7 2029.47 375.573 65
-9 1 7 1627.54 254.476 20
9 -1 -7 1138.13 259.219 16
-9 1 7 1596.92 235.336 96
-9 1 7 1614.59 250.828 94
9 -1 -7 1633.68 286.566 25
9 -1 -7 1627.84 259.213 24
-9 1 7 1551.04 228.422 87
-9 1 7 1494.64 209.837 81
9 -1 -7 2107.81 443.057 72
-9 -1 8 9030.38 531.958 96
-9 -1 8 8738.92 516.466 94
9 1 -8 8572.69 576.774 25
9 1 -8 7823.47 467.529 24
9 1 -8 7890.12 613.388 80
-9 8 3 1709.25 196.385 28
-9 8 3 1806.07 196.301 82
-9 8 3 1719.52 195.237 13
-9 6 4 15294.9 687.08 20
9 -6 -4 16749.4 1252.69 56
-9 6 4 16126.4 767.584 28
9 -6 -4 11795.4 748.701 24
-9 6 4 16007 744.563 87
-9 6 4 18433.8 808.967 82
-9 6 4 17813.1 811.292 22
-9 6 4 16732 745.468 13
9 -6 -4 9996.85 975.006 66
9 -4 -5 1363.82 403.559 66
-9 4 5 745.859 152.471 13
-9 4 5 1027.02 220.684 20
-9 4 5 692.635 179.268 28
-9 4 5 766.09 175.576 87
9 -4 -5 871.348 223.274 24
-9 4 5 1158.83 229.905 23
-9 4 5 868.154 180.681 82
-9 4 5 745.933 176.809 22
-9 2 6 16331.8 885.907 20
-9 2 6 15808.4 792.283 94
9 -2 -6 14668.3 860.681 24
-9 2 6 17129.3 867.305 87
-9 2 6 16406.2 855.505 23
9 -2 -6 15112.8 1246.29 72
9 -2 -6 18792.8 1379.97 66
-9 0 7 1771.22 245.519 20
-9 0 7 2249.52 282.566 114
-9 0 7 2288.23 290.627 96
-9 0 7 2762.91 334.184 94
9 0 -7 1955.27 323.258 25
9 0 -7 2091.29 302.368 24
-9 0 7 2321.59 259.896 87
-9 -2 8 2420.91 258.073 96
-9 -2 8 2399.5 243.799 94
9 2 -8 2537.94 287.645 25
9 2 -8 2122.99 232.922 24
9 2 -8 2213.87 264.886 80
9 -7 -3 6293.69 757.927 59
9 -7 -3 6344.89 746.694 56
-9 7 3 7103.19 485.29 28
9 -7 -3 7063.12 915.163 93
9 -7 -3 4827.34 473.553 24
-9 7 3 8559.08 527.923 82
-9 7 3 8018.7 512.111 22
-9 7 3 7169.07 470.848 13
-9 5 4 6885.42 543.716 20
-9 5 4 6638.86 537.141 28
9 -5 -4 5664.51 569.746 24
-9 5 4 7296.85 552.578 87
-9 5 4 7406.07 550.126 23
-9 5 4 6956.4 513.644 82
-9 5 4 7102.89 551.146 22
-9 5 4 6820.18 506.591 13
9 -5 -4 6395.6 843.012 66
-9 3 5 13706.1 844.288 20
-9 3 5 11808 703.752 28
-9 3 5 11322.7 642.721 94
9 -3 -5 10971.1 804.991 24
-9 3 5 13565.6 797.575 87
-9 3 5 13507.1 811.24 23
-9 3 5 10858.1 624.078 82
-9 3 5 10401.7 614.869 22
9 -3 -5 11218 1122.57 72
9 -3 -5 14936.7 1319.2 66
-9 1 6 6289.75 527.025 20
-9 1 6 6801.27 511.227 114
-9 1 6 6172.36 472.85 96
-9 1 6 7294.35 562.409 94
9 -1 -6 5741.68 577.612 25
9 -1 -6 5768.87 556.954 24
-9 1 6 7380.01 549.936 87
-9 1 6 6035.94 497.834 23
-9 1 6 5540.56 413.706 81
9 -1 -6 7473.55 896.071 72
-9 -1 7 852.569 151.556 20
-9 -1 7 1300.44 206.488 114
9 1 -7 847.556 176.033 32
-9 -1 7 965.231 187.047 96
-9 -1 7 1134.07 199.92 94
9 1 -7 1002.93 220.895 25
9 1 -7 862.189 189.888 24
9 1 -7 805.467 214.24 80
-9 -3 8 6016.62 343.937 96
9 3 -8 5983.73 364.882 25
9 -8 -2 1410.81 352.666 59
9 -8 -2 1373.51 309.059 56
-9 8 2 1220.53 184.045 28
9 -8 -2 919.482 336.759 93
9 -8 -2 792.442 174.324 24
-9 8 2 1480.8 195.008 82
-9 8 2 1187.6 177.413 22
-9 8 2 1229.15 183.15 13
-9 6 3 4110.92 391.866 20
9 -6 -3 5221.82 726.953 56
-9 6 3 4624.48 437.588 28
9 -6 -3 5750.73 933.238 93
9 -6 -3 3715.95 461.33 24
-9 6 3 4433.81 414.917 87
-9 6 3 4591.11 397.863 23
-9 6 3 4799.21 426.993 82
-9 6 3 4443.25 427.781 22
-9 6 3 4539.85 413.819 13
9 -6 -3 3485.35 614.817 66
9 -4 -4 1648.26 490.559 66
-9 4 4 1553.1 279.163 20
9 -4 -4 551.686 426.753 109
-9 4 4 1202.62 236.559 28
9 -4 -4 1006.95 293.819 92
9 -4 -4 1156.87 279.241 24
-9 4 4 1399.31 254.267 87
-9 4 4 1443.71 270.937 23
-9 4 4 1163.17 210.125 82
-9 4 4 1159.37 217.491 22
-9 4 4 1198.89 211.258 13
-9 2 5 8990.12 670.015 20
-9 2 5 8887.82 571.051 114
-9 2 5 7678.17 847.635 108
-9 2 5 7695.83 525.239 28
-9 2 5 8747.25 608.58 94
9 -2 -5 7709.93 695.384 24
-9 2 5 8731.34 639.426 23
9 -2 -5 8032.09 958.627 72
9 -2 -5 9245.04 987.468 66
-9 0 6 7182.06 518.694 20
-9 0 6 8297.6 563.8 114
-9 0 6 7883.82 543.836 96
-9 0 6 8222.79 587.392 94
9 0 -6 6846.49 619.379 25
9 0 -6 7799.14 652.104 24
-9 0 6 7105.36 507.084 23
9 2 -7 15074 699.599 32
-9 -2 7 15366.2 656.671 114
-9 -2 7 15080 670.361 96
-9 -2 7 15214.3 659.73 94
9 2 -7 15662.4 758.304 25
9 2 -7 16794.3 789.001 24
9 -7 -2 8072.5 891.22 59
9 -7 -2 8853.75 920.007 56
9 -7 -2 5906.42 618.868 112
-9 7 2 8906.91 574.907 28
9 -7 -2 11571.3 1347.68 93
-9 7 2 8209.67 477.177 87
9 -7 -2 6841.07 616.001 24
-9 7 2 8995.48 563.085 82
-9 7 2 9968.31 610.608 22
-9 7 2 8683.82 550.368 13
9 -5 -3 1951.87 496.874 66
-9 5 3 1711.28 278.268 20
9 -5 -3 2098.24 488.738 56
9 -5 -3 1682.58 334.227 112
9 -5 -3 2294.27 803.742 109
-9 5 3 1822.72 289.04 28
9 -5 -3 1331.91 307.79 24
-9 5 3 1586.1 264.32 87
-9 5 3 1912.48 298.256 23
-9 5 3 1483.66 243.687 82
-9 5 3 1952.86 292.234 22
-9 5 3 1665.24 263.137 13
-9 3 4 7987.35 651.699 20
-9 3 4 7379.18 803.048 108
-9 3 4 7348.79 562.179 28
-9 3 4 6968.75 514.67 94
9 -3 -4 6414.16 734.772 92
9 -3 -4 6467.1 669.741 24
-9 3 4 7506.49 617.105 23
-9 3 4 5855.03 460.345 82
-9 3 4 5983.34 469.644 22
9 -3 -4 6274.07 871.916 72
9 -3 -4 7568.77 951.485 66
-9 1 5 4721.18 452.94 20
-9 1 5 5094.92 453.326 114
-9 1 5 4443.52 629.74 108
-9 1 5 5229.34 482.029 94
9 -1 -5 5263.36 576.849 24
-9 1 5 4699.4 444.56 23
9 -1 -5 4896.22 735.644 72
-9 -1 6 10017.5 536.645 20
9 1 -6 11659.2 692.166 18
9 1 -6 12300.2 778.835 32
-9 -1 6 12284.5 653.228 114
-9 -1 6 12220.8 657.564 96
-9 -1 6 12922.6 684.977 94
9 1 -6 11884.7 756.447 25
9 1 -6 13519.3 827.188 24
-9 -3 7 11773.8 503.23 114
-9 -3 7 11435.6 506.943 96
9 3 -7 10701.1 491.054 25
-9 -3 7 11094.1 478.503 94
9 3 -7 12486 604.144 24
9 -8 -1 8864.02 826.076 59
9 -8 -1 10706.4 902.271 56
9 -8 -1 5092.14 608.07 11
9 -8 -1 6587 624.627 112
-9 8 1 10132.5 544.66 28
9 -8 -1 12915.4 1307.45 93
9 -8 -1 7672.37 600.765 24
-9 8 1 11190.6 567.676 82
-9 8 1 11018.3 571.706 22
-9 8 1 10265.3 541.99 13
-9 6 2 6921.6 525.413 20
9 -6 -2 6040.68 810.293 59
9 -6 -2 7164.48 877.825 56
9 -6 -2 5227.42 649.751 112
9 -6 -2 5788.21 1334.8 109
-9 6 2 6727.55 538.069 28
9 -6 -2 7500.94 1157.05 93
9 -6 -2 4927.87 575.399 24
-9 6 2 6705.81 515.793 87
-9 6 2 7656.22 549.715 23
-9 6 2 6529.95 505.547 82
-9 6 2 7068.42 560.174 22
-9 6 2 6732.66 517.655 13
-9 4 3 16302 913.639 20
9 -4 -3 16005.4 1298.38 56
9 -4 -3 13777.2 1021.06 112
9 -4 -3 13721.7 2017.31 109
-9 4 3 13291.8 1028.55 108
-9 4 3 14942.6 814.622 28
9 -4 -3 13364.7 1741.65 105
9 -4 -3 12324.9 1117.82 92
9 -4 -3 13482.7 1004.72 24
-9 4 3 16927.9 923.23 23
-9 4 3 13014 696.196 82
-9 4 3 13243.3 738.573 22
-9 4 3 14241.2 735.305 13
9 -4 -3 15638.3 1392.07 66
-9 2 4 7660.44 609.759 20
-9 2 4 7766.24 851.088 108
-9 2 4 7138.47 522.27 28
9 -2 -4 5976.23 1008.51 105
-9 2 4 7957.5 577.842 94
9 -2 -4 7271.05 763.138 92
9 -2 -4 6959.07 715.407 24
-9 2 4 7415.86 591.926 23
-9 2 4 6544.53 464.592 82
-9 2 4 5826.29 427.751 22
9 -2 -4 7935.08 953.979 72
9 -2 -4 7229.16 847.711 66
-9 0 5 2858.92 330.91 20
9 0 -5 2784.04 352.469 18
-9 0 5 2944.65 336.047 114
-9 0 5 2064.48 407.276 108
-9 0 5 2674.28 304.404 96
-9 0 5 2848.28 340.463 94
9 0 -5 2668.78 387.479 25
9 0 -5 3231.75 448.277 24
-9 0 5 2808.77 328.4 23
9 2 -6 7853.48 570.032 18
9 2 -6 8926.93 619.563 32
-9 -2 6 8533.16 500.915 114
-9 -2 6 8153.66 496.489 96
9 2 -6 8061.6 531.44 25
-9 -2 6 7951.49 484.089 94
9 2 -6 9055.92 630.688 24
9 -9 0 1332.74 213.043 24
-9 9 0 1977.94 194.733 82
9 -7 -1 6459.78 777.227 59
9 -7 -1 6823.94 809.083 56
9 -7 -1 3630.81 590.229 11
9 -7 -1 5673.35 678.616 112
-9 7 1 6886.55 507.841 28
9 -7 -1 8626.85 1213.61 93
9 -7 -1 5781.17 593.942 24
-9 7 1 6942.1 452.45 23
-9 7 1 7382.35 537.2 22
-9 7 1 6842.09 493.728 13
-9 5 2 2541.66 344.323 20
9 -5 -2 1616.67 420.714 56
9 -5 -2 2077.98 431.571 112
9 -5 -2 1625.02 768.245 109
-9 5 2 2082.65 301.676 28
9 -5 -2 1699.28 362.76 24
-9 5 2 2297.04 328.852 23
-9 5 2 1908.36 268.744 82
-9 5 2 2145.3 305.508 22
-9 5 2 2152.23 296.303 13
-9 3 3 7546.73 614.01 20
9 -3 -3 7639.55 776.619 112
-9 3 3 7048.48 786.554 108
-9 3 3 7089 548.528 28
9 -3 -3 5990.23 1103.6 105
-9 3 3 7555.87 532.814 94
9 -3 -3 6295.4 784.272 92
9 -3 -3 6577.08 713.059 24
-9 3 3 7718.2 615.294 23
-9 3 3 5641.61 446.43 82
-9 3 3 5712.83 456.097 22
9 -3 -3 5837.99 811.149 72
-9 3 3 6601.55 460.295 13
-9 1 4 6365.73 517.539 20
9 -1 -4 6317.76 519.504 18
-9 1 4 6277.22 731.45 108
-9 1 4 7244.91 554.967 94
9 -1 -4 6490.34 661.501 24
-9 1 4 6432.09 520.134 23
9 -1 -4 7401.83 878.702 72
9 1 -5 5112.3 481.917 18
9 1 -5 5095.26 538.283 32
-9 -1 5 5251.67 423.898 114
-9 -1 5 5099.52 411.123 96
9 1 -5 4680.8 450.207 25
-9 -1 5 5258.79 428.757 94
9 1 -5 5484.1 546.771 24
-9 -1 5 4643.11 368.183 23
9 3 -6 57.684 47.3606 18
-9 -3 6 56.0301 39.72 114
-9 -3 6 135.137 56.8225 96
-9 -3 6 81.7365 31.4658 94
9 3 -6 57.6634 34.1936 24
9 -8 0 1336.29 304.874 11
9 -8 0 2051.43 382.017 112
-9 8 0 2051.45 236.338 28
9 -8 0 1938.05 308.599 24
-9 8 0 2393.35 268.027 22
-9 8 0 2219.27 249.922 13
-9 6 1 3979.43 396.033 20
9 -6 -1 2723.1 506.864 56
9 -6 -1 2130.22 478.032 11
9 -6 -1 2585.33 507.184 112
9 -6 -1 3427.01 1028.2 109
-9 6 1 3165.31 359.405 28
9 -6 -1 2887.13 455.403 24
-9 6 1 3477.6 352.091 87
-9 6 1 3898.6 397.75 23
-9 6 1 3468.11 386.938 22
-9 6 1 3324.38 364.898 13
-9 4 2 11208.2 744.765 20
9 -4 -2 4884.75 673.051 11
9 -4 -2 8009.98 550.316 18
9 -4 -2 11142.8 1006.05 112
9 -4 -2 8835.42 1668.11 109
-9 4 2 10384.3 896.843 108
-9 4 2 10805.8 677.613 28
9 -4 -2 8674.88 1415.63 105
9 -4 -2 8865.81 977.235 92
9 -4 -2 9582.11 852.454 24
-9 4 2 11087.5 741.688 23
-9 4 2 8493.92 555.481 82
-9 4 2 9323.85 608.75 22
9 -4 -2 7788.69 905.025 72
-9 4 2 10347.8 624.507 13
-9 2 3 6344.16 535.987 20
-9 2 3 7400.96 780.071 49
9 -2 -3 5531.3 488.087 18
-9 2 3 6652.87 765.698 108
-9 2 3 5963.82 461.054 28
9 -2 -3 4783.05 926.265 105
-9 2 3 6782.66 526.228 94
9 -2 -3 6740.29 784.897 92
9 -2 -3 5903.53 657.978 24
-9 2 3 6210.31 524.489 23
9 -2 -3 5988.91 783.508 72
-9 0 4 15381.4 747.928 20
9 0 -4 17197.9 896.119 18
-9 0 4 15475.2 1086.65 108
-9 0 4 17824.3 834.633 94
9 0 -4 15310 862.418 25
9 0 -4 17664.7 1050.26 24
-9 0 4 15442 761.114 23
9 2 -5 9566.44 631.233 18
9 2 -5 9079.22 663.989 32
-9 -2 5 8659.36 504.066 114
-9 -2 5 8576.04 496.866 94
9 2 -5 9704.07 659.657 24
9 -9 1 915.54 197.067 112
-9 9 -1 1065.59 137.8 82
9 -7 0 1727.78 388.145 11
9 -7 0 2407.51 461.284 112
-9 7 0 2796.64 309.764 28
9 -7 0 2282.82 370.296 24
9 -7 0 1647.16 296.623 83
-9 7 0 2914.41 299.287 23
-9 7 0 2458.01 306.685 22
-9 7 0 2637.64 298.305 13
-9 5 1 9442.13 648.48 20
9 -5 -1 5486.83 734.936 11
9 -5 -1 5967.3 465.688 18
9 -5 -1 9358.13 941.44 112
9 -5 -1 7367.69 1530.61 109
-9 5 1 8807.35 601.553 28
9 -5 -1 7736.5 918.947 92
9 -5 -1 7934.96 765.624 24
-9 5 1 9760.47 671.897 23
-9 5 1 8290.67 588.076 22
9 -5 -1 6854.67 787.954 72
-9 5 1 8833 589.546 13
-9 3 2 1795.32 290.607 20
-9 3 2 1878.25 387.038 49
9 -3 -2 1361.92 243.324 18
9 -3 -2 1784.52 404.228 112
-9 3 2 1576.23 376.078 108
-9 3 2 1727.59 264.599 28
9 -3 -2 1548.85 549.128 105
-9 3 2 1875.88 257.987 94
9 -3 -2 1321.03 363.194 92
9 -3 -2 1900.55 375.305 24
-9 3 2 1950.17 305.355 23
-9 3 2 1371.77 217.804 22
9 -3 -2 1558.86 384.823 72
-9 3 2 1499.83 217.156 13
-9 1 3 9648.93 619.04 20
-9 1 3 10829.1 900.493 49
9 -1 -3 10986.2 706.473 18
-9 1 3 9157.83 869.032 108
-9 1 3 9192.36 517.797 28
9 -1 -3 8067.04 621.775 25
9 -1 -3 9580.37 787.974 24
-9 1 3 9116.16 614.585 23
9 1 -4 2496.86 351.092 18
9 1 -4 2385.43 377.936 32
-9 -1 4 2328.49 280.471 94
-9 -1 4 2597.54 268.485 90
9 1 -4 2668.58 366.812 24
9 3 -5 7604.28 536.568 18
-9 -3 5 7306.71 403.003 114
-9 -3 5 7425.38 396.824 94
9 3 -5 7532.33 478.354 24
9 -8 1 7234.45 650.238 11
9 -8 1 10592.3 836.552 112
-9 8 -1 10156.7 474.745 28
9 -8 1 9464.73 789.402 92
9 -8 1 9758.84 655.109 24
9 -8 1 7999.63 600.767 83
-9 8 -1 12350.1 583.348 22
-9 8 -1 11110.2 529.842 13
-9 6 0 9434.07 587.513 20
9 -6 0 5915.51 723.114 11
9 -6 0 5315.74 416.519 18
9 -6 0 8657.48 903.168 112
9 -6 0 8227.99 1515.61 109
-9 6 0 8900.98 572.249 28
9 -6 0 7517.33 857.605 92
9 -6 0 7688.55 703.94 24
9 -6 0 7651.74 701.49 83
-9 6 0 10161.4 632.667 23
-9 6 0 9022.63 597.911 22
-9 6 0 8436.37 557.284 13
-9 4 1 8229.56 612.516 20
-9 4 1 8189.43 749.982 49
9 -4 -1 7265.89 553.82 18
9 -4 -1 7615.63 855.259 112
-9 4 1 7194.41 733.299 108
-9 4 1 8005.35 560.513 28
9 -4 -1 6776.54 832.394 92
9 -4 -1 7170.75 708.482 24
-9 4 1 8712.88 639.693 23
-9 4 1 7423.44 501.069 82
-9 4 1 7241.36 522.831 22
-9 4 1 6505.16 480.464 13
-9 2 2 493.679 151.154 20
-9 2 2 454.069 190.059 49
9 -2 -2 483.481 141.808 18
-9 2 2 697.826 239.854 108
-9 2 2 507.944 135.96 28
9 -2 -2 540.984 224.411 92
9 -2 -2 414.774 167.33 24
-9 2 2 576.972 159.906 23
9 -2 -2 309.103 166.309 72
-9 0 3 14108.1 690.697 20
-9 0 3 15600.9 1021.14 49
9 0 -3 16229.7 881.059 18
9 0 -3 12680.6 895.78 32
-9 0 3 12273.9 944.422 108
9 0 -3 14029.5 891.588 24
-9 0 3 14041 699.972 23
9 2 -4 4405.89 441.942 18
9 2 -4 4047.33 441.278 32
-9 -2 4 3859.51 325.257 94
-9 -2 4 4154.71 323.869 90
9 2 -4 3854.7 389.042 24
9 -7 1 2344.81 410.924 11
9 -7 1 2953.19 491.647 112
-9 7 -1 3211.42 306.334 28
9 -7 1 2735.44 469.869 92
9 -7 1 2537.98 356.481 24
9 -7 1 2999.61 420.91 83
-9 7 -1 3526.86 316.266 23
-9 7 -1 3210.69 324.177 22
-9 7 -1 3015.57 301.745 13
-9 5 0 791.732 179.922 20
9 -5 0 531.413 148.446 18
9 -5 0 429.208 183.776 11
9 -5 0 632.649 257.919 112
-9 5 0 816.363 170.136 28
9 -5 0 504.445 225.826 92
9 -5 0 780.727 221.46 24
-9 5 0 942.692 206.303 23
9 -5 0 760.82 222.469 83
-9 5 0 884.474 187.744 22
-9 3 1 47515.3 1441.42 20
-9 3 1 52356.7 1941.52 49
9 -3 -1 46233.5 1450.27 18
-9 3 1 48891.4 1963.27 108
-9 3 1 45490.4 1272.33 28
9 -3 -1 42630.2 2024.34 92
9 -3 -1 42110.9 1640.91 24
-9 3 1 45899.1 1411.93 23
-9 3 1 42380.1 1177.41 22
-9 1 2 3105.57 341.574 20
-9 1 2 3254.3 475.573 49
9 -1 -2 3752.84 428.406 18
-9 1 2 2782.84 459.281 108
-9 1 2 2666.61 270.5 28
9 -1 -2 3427.74 436.302 24
-9 1 2 2955.89 337.785 23
9 1 -3 180.251 106.337 18
9 1 -3 82.1239 74.4361 32
-9 -1 3 106.783 53.8192 90
9 1 -3 230.268 105.652 24
9 3 -4 3133.37 319.375 18
-9 -3 4 3093.62 246.243 114
-9 -3 4 3106.89 241.715 94
9 -8 2 13142.3 834.434 112
9 -8 2 10681.7 702.047 92
9 -8 2 9683.42 628.997 83
-9 8 -2 13178 547.416 22
-9 8 -2 10791.4 465.375 13
-9 6 -1 224.014 91.8311 13
-9 6 -1 302.526 100.478 20
9 -6 1 234.181 91.9916 18
9 -6 1 309.774 168.701 11
9 -6 1 165.822 113.457 112
-9 6 -1 395.8 116.72 28
9 -6 1 219.687 147.791 92
9 -6 1 270.863 131.65 24
9 -6 1 143.149 127.28 83
-9 6 -1 372.714 115.504 23
-9 6 -1 372.485 118.401 22
-9 4 0 18568.7 875.643 20
9 -4 0 15990.2 851.044 18
9 -4 0 18562.7 1299.04 112
-9 4 0 17380.9 775.487 28
9 -4 0 15944.6 1212.73 92
9 -4 0 14373.3 897.228 24
9 -4 0 18851.7 1095.91 83
-9 4 0 17868.3 866.858 23
-9 4 0 16383.7 749.076 22
-9 2 1 25984.9 1008.71 20
-9 2 1 29248.6 1426.38 49
9 -2 -1 27532.1 1167.4 18
-9 2 1 25111.6 1401.1 108
-9 2 1 25792.2 902.642 28
9 -2 -1 28528.2 1608.79 92
9 -2 -1 23164.8 1119.38 24
-9 2 1 25516.4 1010.62 23
-9 0 2 8435.56 509.508 20
9 0 -2 9794.91 689.721 18
9 0 -2 6863.13 621.52 32
-9 0 2 8423.33 503.625 90
9 0 -2 8546.06 632.857 24
-9 0 2 7585.37 484.702 23
9 2 -3 847.188 188.145 18
9 2 -3 881.969 194.298 32
-9 -2 3 914.503 151.006 94
-9 -2 3 957.13 152.652 90
9 2 -3 799.74 153.506 24
9 -7 2 7667.1 609.92 11
9 -7 2 5999.1 397.207 18
9 -7 2 12116.8 875.277 112
-9 7 -2 10398.1 471.952 28
9 -7 2 10227.1 754.792 92
9 -7 2 10442.2 731.528 83
-9 7 -2 12151.1 533.27 23
-9 7 -2 11956.4 572.869 22
-9 7 -2 8951.85 468.306 13
-9 5 -1 1776.84 252.215 20
9 -5 1 1409.7 244.93 18
9 -5 1 971.529 244.409 11
9 -5 1 1562.84 349.272 112
-9 5 -1 1685.41 231.192 28
9 -5 1 1461.65 340.995 92
9 -5 1 1346.53 250.937 24
9 -5 1 1585.05 311.687 83
-9 5 -1 1634.15 251.223 23
-9 5 -1 1541.7 227.99 22
-9 3 0 5092.21 448.4 20
9 -3 0 4813.07 471.441 18
-9 3 0 4979.82 401.863 28
9 -3 0 5239.72 674.667 92
9 -3 0 3745.59 428.401 24
9 -3 0 5975.9 593.804 83
-9 3 0 4772.26 438.86 23
-9 1 1 24767.6 916.261 20
9 -1 -1 27957.2 1157.33 18
9 -1 -1 21111.6 1067.42 32
-9 1 1 24650.6 794.698 28
9 -1 -1 22689 989.007 24
-9 1 1 24973.6 931.737 23
9 1 -2 8345.01 593.782 18
9 1 -2 6837.6 556.266 32
-9 -1 2 8363.66 481.475 90
9 1 -2 6643.15 452.653 24
-9 6 -2 2622.88 261.459 20
9 -6 2 1642.47 259.265 11
9 -6 2 1994.74 259.853 18
9 -6 2 2376.65 389.823 112
-9 6 -2 2447.19 241.425 28
9 -6 2 2242.59 360.889 92
9 -6 2 2475.72 369.023 83
-9 6 -2 2474.27 270.264 23
-9 6 -2 2432.37 263.69 22
-9 4 -1 583.477 153.003 20
9 -4 1 789.808 191.447 18
-9 4 -1 604.039 131.635 28
9 -4 1 489.507 193.097 92
9 -4 1 658.703 196.751 83
-9 4 -1 827.683 177.874 23
-9 4 -1 607.186 130.844 22
-9 2 0 26105.8 960.518 20
9 -2 0 28470.1 1155.56 18
-9 2 0 26686.9 869.683 28
-9 2 0 26912.9 983.661 23
-9 0 1 2010.62 229.205 20
9 0 -1 2262.23 311.67 18
9 0 -1 1899.63 293.445 32
9 0 -1 1916.31 227.173 15
-9 0 1 2206.71 252.669 90
9 2 -2 15242.2 686.127 18
-9 -2 2 15499.8 565.695 94
-9 -2 2 16458.7 594.394 90
-9 7 -3 246.779 71.4483 13
9 -7 3 337.984 85.2174 18
9 -7 3 348.498 122.483 83
-9 7 -3 538.853 105.269 22
-9 5 -2 1022.74 173.811 20
9 -5 2 1050.4 196.12 18
-9 5 -2 930.402 152.371 28
9 -5 2 834.094 211.352 92
9 -5 2 997.219 234.153 83
-9 5 -2 1073.07 188.45 23
-9 5 -2 1049.14 169.624 22
-9 3 -1 25112.9 937.527 20
9 -3 1 26385.4 1060.5 18
-9 3 -1 24025.7 816.963 28
-9 3 -1 25738.8 950.964 23
-9 1 0 13231.3 624.75 20
9 -1 0 14621.3 775.163 18
9 -1 0 10807.7 640.552 32
-9 1 0 12634.5 541.45 28
9 -1 0 11186.5 555.328 15
-9 1 0 13423.4 606.398 23
9 1 -1 4586.47 388.368 18
9 1 -1 3573.75 296.972 15
-9 -1 1 4341.94 323.324 90
-9 6 -3 2040.93 193.355 20
9 -6 3 1846.82 226.591 18
-9 6 -3 2114.31 190.738 28
9 -6 3 2415.66 318.182 83
-9 6 -3 2256.92 227.448 23
-9 6 -3 2088.99 210.795 22
-9 4 -2 13604.6 642.12 20
9 -4 2 13099.3 694.564 18
-9 4 -2 12329.7 545.063 28
-9 4 -2 13818.6 666.296 23
-9 2 -1 24592.6 857.547 20
9 -2 1 24925.2 964.706 18
-9 2 -1 23432.4 754.332 28
-9 2 -1 24376 843.315 23
9 0 0 12744.9 632.508 18
-9 0 0 12420.5 557.12 90
-9 5 -3 5331.56 338.13 20
9 -5 3 4531.31 355.332 18
-9 5 -3 4801.83 293.004 28
-9 5 -3 5203.06 360.82 23
-9 3 -2 6113.97 413.651 20
9 -3 2 5192.67 407.855 18
-9 3 -2 5669.84 358.562 28
-9 3 -2 5566.5 387.7 23
-9 1 -1 11946.2 500.644 20
-9 1 -1 11526.6 459.66 28
-9 4 -3 1679.72 189.42 20
9 -4 3 1293.65 174.81 18
-9 4 -3 1687.69 169.725 28
-9 4 -3 1598.64 186.809 23
-9 2 -2 10899.7 477.425 20
9 -2 2 10655.7 507.43 18
-9 2 -2 10660.9 438.672 28
-10 4 7 1819.79 188.174 86
-10 5 6 217.769 62.5622 86
-10 5 6 164.352 59.7206 81
10 -5 -6 123.845 70.2687 72
-10 3 7 14232.7 616.584 20
10 -3 -7 11637.8 594.814 25
-10 3 7 14452.4 582.79 87
-10 3 7 10815.6 457.029 81
10 -3 -7 12255.3 805.843 72
10 -1 -8 2500.29 248.651 25
-10 1 8 2986.26 252.893 78
-10 6 5 7574.52 397.147 28
10 -6 -5 5654.26 528.475 72
10 -4 -6 2015.11 380.192 66
-10 4 6 3198.94 309.089 20
-10 4 6 2286.9 221.089 28
-10 4 6 3236.46 302.577 87
-10 4 6 2706.12 248.471 81
10 -4 -6 2703.17 412.663 72
-10 2 7 15145 646.234 20
10 -2 -7 14327.4 693.799 25
-10 2 7 15202.3 603.512 87
10 0 -8 186.152 64.8103 25
-10 0 8 181.676 66.1573 78
-10 5 5 3293.35 307.26 20
-10 5 5 3241.04 303.807 28
10 -5 -5 2329.22 274.664 24
-10 5 5 3622.99 322.557 87
10 -5 -5 2751.33 420.715 72
-10 3 6 10371.3 605.815 20
10 -3 -6 7795.22 509.314 24
-10 3 6 9921.19 566.604 87
-10 3 6 7288.08 408.138 81
-10 3 6 9917.23 519.78 78
10 -3 -6 9053.45 809.053 72
10 -3 -6 7850.11 780.928 66
-10 1 7 6865.98 411.015 20
10 -1 -7 8480.86 541.89 25
10 -1 -7 7563.7 455.356 24
-10 1 7 7488.75 393.525 87
10 -1 -7 6139.36 492.041 80
-10 6 4 1394.53 180.489 20
-10 6 4 1965.01 237.933 28
10 -6 -4 1258.82 206.205 24
-10 6 4 1750.3 204.82 87
-10 6 4 1710.32 205.433 82
-10 6 4 1600.49 186.241 13
10 -6 -4 1191.33 282.643 72
-10 4 5 19423.6 850.055 20
-10 4 5 16756.1 701.693 28
10 -4 -5 14140.3 752.899 24
-10 4 5 17648.2 784.842 87
-10 4 5 20103.3 834.178 23
10 -4 -5 14759.3 1072 72
-10 2 6 1870.12 254.577 20
-10 2 6 1481.89 204.66 94
10 -2 -6 1556.19 258.04 25
10 -2 -6 1654.93 253.749 24
-10 2 6 1602.36 228.479 87
10 -2 -6 1512.32 338.663 72
-10 0 7 3751.56 307.042 94
10 0 -7 3631.82 344.148 25
10 0 -7 3342.76 303.304 24
-10 7 3 7113.29 408.491 28
10 -7 -3 4754.59 382.423 24
-10 7 3 7316.03 391.61 82
-10 7 3 7416.48 407.616 22
10 -7 -3 4760.9 500.334 72
-10 7 3 6444.72 361.332 13
-10 5 4 345.434 90.7831 13
-10 5 4 510.112 133.292 20
-10 5 4 436.852 121.911 28
10 -5 -4 332.78 132.242 92
-10 5 4 487.972 131.987 87
10 -5 -4 369.386 125.115 24
-10 5 4 424.37 109.047 82
-10 5 4 487.333 126.908 23
-10 5 4 304.062 86.2145 22
10 -5 -4 371.752 180.146 72
-10 3 5 3183.87 355.506 20
-10 3 5 2843.28 280.288 28
10 -3 -5 2745.28 350.219 24
-10 3 5 3347.55 353.266 87
-10 3 5 3712.24 371.583 23
10 -3 -5 2688.81 486.129 72
-10 1 6 14953.3 659.546 20
-10 1 6 17300.2 669.828 114
-10 1 6 16820.5 718.654 94
10 -1 -6 16001 814.342 25
10 -1 -6 16600.3 809.766 24
-10 1 6 16195.8 669.116 87
-10 -1 7 1124.75 146.486 114
-10 -1 7 1347.88 168.12 94
10 1 -7 1332.38 180.024 24
-10 6 3 8507.51 483.744 20
10 -6 -3 4016.51 529.558 11
-10 6 3 8941.79 532.84 28
10 -6 -3 6188.55 597.767 92
10 -6 -3 6910.01 544.031 24
-10 6 3 7885.62 456.357 87
-10 6 3 8841.79 485.036 23
-10 6 3 8367.55 461.951 82
-10 6 3 8559.01 494.036 22
10 -6 -3 6408.81 677.442 72
-10 6 3 7952.77 451.078 13
-10 4 4 12568.1 717.256 20
-10 4 4 11633.9 638.67 28
10 -4 -4 9894.44 738.406 92
10 -4 -4 9340.37 684.127 24
-10 4 4 12534.9 689.846 87
-10 4 4 12716.5 704.874 23
-10 4 4 9316.14 498.654 82
-10 4 4 9003.73 496.702 22
10 -4 -4 10197.4 944.861 72
-10 2 5 2679.97 312.049 20
-10 2 5 2288.59 245.556 114
-10 2 5 2482.23 281.19 94
10 -2 -5 2336.4 331.437 25
10 -2 -5 2321.54 333.842 24
-10 2 5 2666.57 301.758 23
10 -2 -5 2318.87 451.429 72
10 0 -6 16602.3 770.081 32
-10 0 6 18693.5 684.153 114
-10 0 6 18093.5 708.243 94
10 0 -6 17422.1 773.856 25
10 0 -6 19569 859.936 24
-10 0 6 15638.9 565.87 87
-10 7 2 8982.34 483.28 28
10 -7 -2 7057.92 616.222 92
10 -7 -2 6640.53 498.048 24
-10 7 2 9121.03 448.96 82
-10 7 2 9710.84 491.281 22
10 -7 -2 5713.1 547.693 72
-10 7 2 8872.29 453.496 13
-10 5 3 22427.3 917.767 20
10 -5 -3 8977.77 790.953 11
-10 5 3 19807.2 842.511 28
10 -5 -3 15866.1 1032.3 92
10 -5 -3 15489.2 882.263 24
-10 5 3 19585.1 817.304 87
-10 5 3 22600.3 907.461 23
-10 5 3 17079.1 674.244 82
-10 5 3 17976.1 727.532 22
10 -5 -3 15287 1106.13 72
-10 5 3 17587.6 680.695 13
-10 3 4 11909.6 691.144 20
-10 3 4 10099.7 557.113 28
10 -3 -4 9493.95 737.152 92
10 -3 -4 9679.99 728.317 24
-10 3 4 11745.9 666.826 23
10 -3 -4 9117.02 894.92 72
-10 1 5 2863.06 294.33 20
-10 1 5 3206.68 300.62 114
-10 1 5 2964.26 306.696 94
10 -1 -5 2793.55 339.474 25
10 -1 -5 3027.57 379.911 24
-10 1 5 2756.99 287.851 23
10 1 -6 1666.19 225.322 32
-10 -1 6 1973.21 205.002 114
-10 -1 6 2052.36 215.462 94
10 1 -6 2352.6 275.283 24
-10 6 2 486.936 114.609 13
-10 6 2 505.849 126.044 20
10 -6 -2 5.9199 53.7367 11
10 -6 -2 74.1293 65.4658 112
-10 6 2 500.083 130.942 28
10 -6 -2 474.81 205.727 92
-10 6 2 433.991 105.263 87
10 -6 -2 309.035 114.242 24
-10 6 2 443.896 110.032 82
-10 6 2 494.205 118.005 23
-10 6 2 450.949 110.455 22
10 -6 -2 474.508 148.608 72
-10 4 3 4121.08 408.864 20
-10 4 3 3802.75 363.624 28
10 -4 -3 3672.13 511.057 92
10 -4 -3 3533.11 444.454 24
-10 4 3 3993.11 393.885 23
-10 4 3 3268.02 289.393 82
-10 4 3 2824.4 278.718 22
10 -4 -3 2926.35 482.753 72
-10 4 3 3219.54 275.414 13
-10 2 4 4986.64 423.242 20
-10 2 4 5692.74 399.537 114
-10 2 4 4537.22 332.312 28
-10 2 4 5066.76 397.567 94
10 -2 -4 4358.36 442.202 25
10 -2 -4 4947.75 518.321 24
-10 2 4 4804.59 407.586 23
10 -2 -4 5136.25 643.049 72
-10 0 5 2822.12 255.503 20
10 0 -5 2851.64 288.58 18
10 0 -5 3583.55 398.062 32
-10 0 5 3662.48 308.667 114
-10 0 5 3629.44 316.272 94
10 0 -5 2850.42 288 25
10 0 -5 4049.78 410.496 24
10 -7 -1 817.453 189.709 112
-10 7 1 1359.77 183.481 28
10 -7 -1 1025.88 255.109 92
10 -7 -1 1134.97 211.009 24
-10 7 1 1125.73 155.001 82
-10 7 1 1538.14 193.207 22
-10 7 1 1251.34 166.858 13
-10 5 2 19034 832.364 20
10 -5 -2 18238.4 1038.34 112
-10 5 2 17977.7 781.162 28
10 -5 -2 17144.7 1137.06 92
10 -5 -2 15885.2 923.628 24
-10 5 2 19908.8 846.642 23
-10 5 2 14919 617.2 82
-10 5 2 15832.6 678.365 22
10 -5 -2 13370.1 939.749 72
-10 5 2 15976.8 657.382 13
-10 3 3 1036.26 201.66 20
-10 3 3 979.615 176.493 28
10 -3 -3 928.596 265.074 92
10 -3 -3 995.881 232.673 24
-10 3 3 1077.86 199.886 23
10 -3 -3 788.854 252.821 72
-10 1 4 2419.83 270.085 20
10 -1 -4 2365.79 283.21 18
-10 1 4 2761.57 276.676 114
10 -1 -4 2273.96 346.598 32
-10 1 4 2840.58 291.577 94
10 -1 -4 2770.44 370.164 24
-10 1 4 2436.16 268.896 23
10 1 -5 2894.05 287.804 18
10 1 -5 3505.8 354.675 32
-10 -1 5 3372.86 269.474 114
-10 -1 5 3417.67 273.416 94
10 1 -5 3864.81 357.647 24
-10 6 1 5227.71 379.958 20
10 -6 -1 5006.39 541.756 112
-10 6 1 5101.69 387.064 28
10 -6 -1 4926.79 587.481 92
10 -6 -1 4293.73 451.461 24
-10 6 1 3899.72 285.353 87
-10 6 1 5424.9 396.173 23
-10 6 1 4015.76 306.405 82
-10 6 1 4797.44 361.062 22
-10 6 1 4823.27 354.46 13
-10 4 2 2258.52 288.888 20
-10 4 2 2246.89 271.172 28
10 -4 -2 2126.98 400.305 92
10 -4 -2 2292.96 357.977 24
-10 4 2 2240.17 287.397 23
-10 4 2 1738.37 210.371 22
-10 4 2 1833.28 207.631 13
-10 2 3 11060.3 611.776 20
10 -2 -3 10722.3 593.337 18
-10 2 3 9576.77 479.3 28
-10 2 3 10413.7 551.771 94
10 -2 -3 10730.4 754.197 24
-10 2 3 11213.9 611.093 23
10 0 -4 931.665 176.595 18
10 0 -4 897.999 204.099 32
-10 0 4 1000.44 157.694 114
-10 0 4 1008.25 163.701 94
10 0 -4 1180 221.53 24
10 -7 0 1523.01 270.332 112
-10 7 0 1211.23 159.357 28
10 -7 0 1556.12 289.857 92
10 -7 0 1258.99 202.407 24
-10 7 0 1343.71 173.223 22
-10 7 0 1506.53 176.752 13
-10 5 1 20.7505 37.4301 13
-10 5 1 44.9035 60.3303 20
-10 5 1 13.4859 27.4474 28
10 -5 -1 30.1195 71.4326 92
10 -5 -1 115.472 51.33 24
-10 5 1 -2.82227 22.2926 23
-10 5 1 105.822 50.3798 22
-10 3 2 12990.9 673.209 20
10 -3 -2 11259 602.148 18
-10 3 2 12116.4 586.693 28
10 -3 -2 13617.7 997.629 92
10 -3 -2 11703 764.221 24
-10 3 2 12589.1 656.026 23
-10 1 3 13764.7 622.939 20
10 -1 -3 15445.5 736.271 18
-10 1 3 14411.9 629.161 94
10 -1 -3 14845.4 797.284 24
-10 1 3 14491.1 636.044 23
10 1 -4 1027.67 173.478 18
10 1 -4 927.2 181.313 32
-10 -1 4 958.736 140.675 114
-10 -1 4 1098.23 151.315 94
10 1 -4 853.349 150.723 24
-10 6 0 1985.33 217.928 20
10 -6 0 2094.5 357.106 112
-10 6 0 2160.04 229.781 28
10 -6 0 1909.65 341.621 92
10 -6 0 1738.55 253.298 24
-10 6 0 2262.71 242.744 23
-10 6 0 2213.68 231.036 22
-10 6 0 1844.46 206.576 13
-10 4 1 23371.3 877.372 20
10 -4 -1 17541.1 733.944 18
-10 4 1 21821.8 782.501 28
10 -4 -1 21830.6 1250.16 92
10 -4 -1 19073.7 926.25 24
-10 4 1 22956.3 873.875 23
-10 4 1 14798.5 576.453 13
-10 2 2 5921.72 423.042 20
10 -2 -2 5999.87 457.702 18
-10 2 2 5017.99 333.965 28
-10 2 2 5790.31 383.124 94
10 -2 -2 5123.14 463.366 24
-10 2 2 5345.81 405.71 23
10 0 -3 4773.32 401.461 18
10 0 -3 4004.88 399.056 32
-10 0 3 4235.09 316.231 94
10 0 -3 3882.45 345.779 24
-10 5 0 20074.9 745.051 20
10 -5 0 12106.5 562.528 18
-10 5 0 18595 683.509 28
10 -5 0 19084 1096.19 92
10 -5 0 14634.7 708.84 24
-10 5 0 20610.9 771.057 23
-10 5 0 16251.3 601.984 22
-10 5 0 12375 525.426 13
-10 3 1 6883.34 458.977 20
10 -3 -1 6969.09 485.66 18
-10 3 1 6579.81 402.763 28
10 -3 -1 5853.2 462.458 24
-10 3 1 6946.14 466.112 23
-10 1 2 15969.2 627.206 20
10 -1 -2 14576 761.822 32
-10 1 2 16488.9 626.041 94
10 -1 -2 13790 648.444 24
-10 1 2 13620.4 558.847 23
-10 -1 3 1289.38 151.137 114
-10 -1 3 1434.92 160.189 94
-10 6 -1 113.463 50.1036 13
-10 6 -1 86.2728 38.9862 28
10 -6 1 14.0022 64.4869 92
-10 6 -1 90.4278 40.1389 23
-10 4 0 7787.59 468.955 20
10 -4 0 6352.81 440.765 18
-10 4 0 7121.69 410.698 28
-10 4 0 7943.53 479.905 23
-10 2 1 5647.45 387.838 20
10 -2 -1 6796.39 475.794 18
10 -2 -1 4234.07 385.839 32
-10 2 1 5229.99 321.9 28
-10 2 1 5352.16 335.561 94
-10 2 1 6030.63 394.407 23
10 0 -2 2668.86 282.705 18
10 0 -2 1937.72 238.659 32
-10 0 2 2751.46 233.943 94
-10 5 -1 5714.8 352.392 20
-10 5 -1 5615.24 329.287 28
-10 5 -1 5414.03 361.856 23
-10 3 0 15411.2 631.501 20
10 -3 0 14762.3 676.938 18
-10 3 0 13711.3 535.108 28
-10 3 0 14860 618.466 23
10 -1 -1 248.985 92.4603 18
-10 1 1 374.471 89.5628 94
-10 4 -1 495.681 104.693 20
10 -4 1 406.041 97.7261 18
-10 4 -1 489.022 95.2548 28
-10 4 -1 494.491 105.841 23
-10 2 0 1788.57 191.453 20
10 -2 0 2336.17 251.555 18
-11 3 5 2709.53 240.863 20
11 -3 -5 2260.11 243.902 24
-11 3 5 2384.66 219.401 87
-11 4 4 185.226 62.3943 20
-11 4 4 178.843 68.1126 87
11 -4 -4 110.293 58.5047 24
-11 4 4 119.823 52.8981 23
11 -2 -5 5678.69 393.476 24
-11 3 4 6688.97 388.172 20
11 -3 -4 6316.82 443.587 24
-11 3 4 6828.61 385.15 87
-11 3 4 6061.69 357.126 23
-11 4 3 7963.08 424.363 20
11 -4 -3 7275.6 468.954 24
-11 4 3 8271.87 410.717 87
-11 4 3 7668.88 407.904 23
11 -2 -4 3695.84 337.217 32
11 -2 -4 4667.23 364.388 24
-11 2 4 4370.04 287.006 87
-11 3 3 516.204 106.305 20
11 -3 -3 240.216 81.5932 32
11 -3 -3 435.233 110.875 24
-11 3 3 525.301 104.137 23
