#------------------------------------------------------------------------------
#$Date: 2019-11-23 21:43:06 +0200 (Sat, 23 Nov 2019) $
#$Revision: 235164 $
#$URL: file:///home/coder/svn-repositories/cod/cif/1/55/35/1553577.cif $
#------------------------------------------------------------------------------
#
# This file is available in the Crystallography Open Database (COD),
# http://www.crystallography.net/
#
# All data on this site have been placed in the public domain by the
# contributors.
#
data_1553577
loop_
_publ_author_name
'Li, Jing'
'Li, Zequan'
'Zhang, Xun'
'Xu, Bing'
'Shi, Yian'
_publ_section_title
;
 Catalytic enantioselective bromohydroxylation of aryl olefins with
 flexible functionalities
;
_journal_issue                   6
_journal_name_full               'Organic Chemistry Frontiers'
_journal_page_first              1084
_journal_paper_doi               10.1039/C6QO00636A
_journal_volume                  4
_journal_year                    2017
_chemical_absolute_configuration ad
_chemical_formula_moiety         'C15 H15 Br O2'
_chemical_formula_sum            'C15 H15 Br O2'
_chemical_formula_weight         307.18
_space_group_crystal_system      monoclinic
_space_group_IT_number           4
_space_group_name_Hall           'P 2yb'
_space_group_name_H-M_alt        'P 1 21 1'
_atom_sites_solution_hydrogens   mixed
_audit_creation_date             2015-10-15
_audit_creation_method
;
Olex2 1.2
(compiled 2015.09.30 svn.r3233 for OlexSys, GUI svn.r5103)
;
_audit_update_record
;
2015-11-22 deposited with the CCDC.
2017-02-22 downloaded from the CCDC.
;
_cell_angle_alpha                90
_cell_angle_beta                 91.594(8)
_cell_angle_gamma                90
_cell_formula_units_Z            2
_cell_length_a                   7.813(4)
_cell_length_b                   5.321(3)
_cell_length_c                   15.394(8)
_cell_measurement_reflns_used    2339
_cell_measurement_temperature    173.1500
_cell_measurement_theta_max      27.4607
_cell_measurement_theta_min      1.3234
_cell_volume                     639.7(6)
_computing_cell_refinement       'CrystalClear (Rigaku Inc., 2007)'
_computing_data_collection       'CrystalClear (Rigaku Inc., 2007)'
_computing_data_reduction        'CrystalClear (Rigaku Inc., 2007)'
_computing_molecular_graphics    'Olex2 (Dolomanov et al., 2009)'
_computing_publication_material  'CIFTAB (Sheldrick, 2013)'
_computing_structure_refinement  'SHELXL (Sheldrick, 2014)'
_computing_structure_solution
;
'SHELXT (Sheldrick, 2014)'
;
_diffrn_ambient_temperature      173.1500
_diffrn_detector_area_resol_mean 28.5714
_diffrn_measured_fraction_theta_full 0.988
_diffrn_measured_fraction_theta_max 0.988
_diffrn_measurement_details
;
scan:
	Number of images: 360
	           Slice: -110.0000 - 70.0000
	     Image width: 0.5000
	        Exp time: 7.0000
	   Rotation axis: Omega
	           Omega: 0.0000
	             Chi: 45.0000
	             Phi: 270.0000
	             XTD: 45.0571
	          2theta: -20.0297
scan:
	Number of images: 330
	           Slice: -110.0000 - 55.0000
	     Image width: 0.5000
	        Exp time: 7.0000
	   Rotation axis: Omega
	           Omega: 0.0000
	             Chi: 45.0000
	             Phi: 180.0000
	             XTD: 45.0571
	          2theta: -20.0297
scan:
	Number of images: 360
	           Slice: -110.0000 - 70.0000
	     Image width: 0.5000
	        Exp time: 7.0000
	   Rotation axis: Omega
	           Omega: 0.0000
	             Chi: 45.0000
	             Phi: 0.0000
	             XTD: 45.0571
	          2theta: -20.0297
;
_diffrn_measurement_device
;
Saturn724+ (2x2 bin mode)
;
_diffrn_measurement_device_details
;
AFC10: Fixed Chi 2 circle
;
_diffrn_measurement_device_type  'MM007-HF CCD(Saturn 724+)'
_diffrn_measurement_method       '\w scans at fixed \c = 45\%'
_diffrn_orient_matrix_type       d*Trek
_diffrn_orient_matrix_UB_11      0.0135
_diffrn_orient_matrix_UB_12      0.0828
_diffrn_orient_matrix_UB_13      -0.0967
_diffrn_orient_matrix_UB_21      0.0388
_diffrn_orient_matrix_UB_22      0.1370
_diffrn_orient_matrix_UB_23      0.1227
_diffrn_orient_matrix_UB_31      0.0634
_diffrn_orient_matrix_UB_32      -0.0134
_diffrn_orient_matrix_UB_33      -0.0050
_diffrn_radiation_detector       CCD
_diffrn_radiation_monochromator  Confocal
_diffrn_radiation_type           MoK\a
_diffrn_radiation_wavelength     0.71073
_diffrn_reflns_av_R_equivalents  0.0430
_diffrn_reflns_av_unetI/netI     0.0353
_diffrn_reflns_Laue_measured_fraction_full 0.988
_diffrn_reflns_Laue_measured_fraction_max 0.988
_diffrn_reflns_limit_h_max       10
_diffrn_reflns_limit_h_min       -10
_diffrn_reflns_limit_k_max       6
_diffrn_reflns_limit_k_min       -6
_diffrn_reflns_limit_l_max       19
_diffrn_reflns_limit_l_min       -19
_diffrn_reflns_number            7124
_diffrn_reflns_point_group_measured_fraction_full 0.991
_diffrn_reflns_point_group_measured_fraction_max 0.990
_diffrn_reflns_theta_full        26.000
_diffrn_reflns_theta_max         27.498
_diffrn_reflns_theta_min         2.608
_diffrn_source                   'Rotating Anode'
_diffrn_source_current           24.0000
_diffrn_source_power             1.2000
_diffrn_source_voltage           50.0000
_exptl_absorpt_coefficient_mu    3.204
_exptl_absorpt_correction_T_max  1.0000
_exptl_absorpt_correction_T_min  0.4523
_exptl_absorpt_correction_type   multi-scan
_exptl_absorpt_process_details   'CrystalClear (Rigaku Inc., 2007)'
_exptl_crystal_colour            Colorless
_exptl_crystal_density_diffrn    1.595
_exptl_crystal_description       plate
_exptl_crystal_F_000             312
_exptl_crystal_size_max          0.25
_exptl_crystal_size_mid          0.22
_exptl_crystal_size_min          0.05
_refine_diff_density_max         2.433
_refine_diff_density_min         -0.770
_refine_diff_density_rms         0.108
_refine_ls_abs_structure_details
;
 Refined as an inversion twin.
;
_refine_ls_abs_structure_Flack   0.04(3)
_refine_ls_extinction_method     none
_refine_ls_goodness_of_fit_ref   1.071
_refine_ls_hydrogen_treatment    mixed
_refine_ls_matrix_type           full
_refine_ls_number_parameters     169
_refine_ls_number_reflns         2875
_refine_ls_number_restraints     1
_refine_ls_restrained_S_all      1.071
_refine_ls_R_factor_all          0.0582
_refine_ls_R_factor_gt           0.0575
_refine_ls_shift/su_max          0.000
_refine_ls_shift/su_mean         0.000
_refine_ls_structure_factor_coef Fsqd
_refine_ls_weighting_details
'w=1/[\s^2^(Fo^2^)+(0.0725P)^2^+1.8060P] where P=(Fo^2^+2Fc^2^)/3'
_refine_ls_weighting_scheme      calc
_refine_ls_wR_factor_gt          0.1494
_refine_ls_wR_factor_ref         0.1501
_reflns_Friedel_coverage         0.810
_reflns_Friedel_fraction_full    0.994
_reflns_Friedel_fraction_max     0.994
_reflns_number_gt                2833
_reflns_number_total             2875
_reflns_threshold_expression     'I > 2\s(I)'
_cod_data_source_file            c6qo00636a2.cif
_cod_data_source_block           mx4171
_cod_database_code               1553577
_shelx_space_group_comment
;
The symmetry employed for this shelxl refinement is uniquely defined
by the following loop, which should always be used as a source of
symmetry information in preference to the above space-group names.
They are only intended as comments.
;
_diffrn_number_total             1605
_olex2_refinement_description
;
1. Twinned data refinement
 Scales: 0.96(3) 0.04(3)
2. Fixed Uiso
 At 1.2 times of:
  All C(H) groups, All C(H,H) groups
 At 1.5 times of:
  All O(H) groups
3.a Secondary CH2 refined with riding coordinates:
 C2(H2A,H2B), C3(H3A,H3B)
3.b Aromatic/amide H refined with riding coordinates:
 C5(H5), C6(H6), C8(H8), C9(H9), C11(H11), C12(H12), C13(H13), C14(H14),
 C15(H15)
3.c Idealised tetrahedral OH refined as rotating group:
 O2(H2)
;
_shelx_res_file
;
    mx4171.res created by SHELXL-2014/7

TITL mx4171 in P2(1)
CELL 0.71073 7.813 5.3206 15.3936 90 91.594 90
ZERR 2 0.004 0.0027 0.0077 0 0.008 0
LATT -1
SYMM -X,0.5+Y,-Z
SFAC C H Br O
UNIT 30 30 2 4
EQIV $1 -X,0.5+Y,-1-Z
EQIV $2 -1-X,0.5+Y,-1-Z

L.S. 4
PLAN  20
HTAB O2 O2_$1
HTAB O1 Br1_$2
BOND
MORE -1
BOND $H
CONF
fmap 2
acta 52
htab
TWIN -1 0 0 0 -1 0 0 0 -1 2
OMIT 0 0 1
REM <olex2.extras>
REM <HklSrc "%.\\mx4171.hkl">
REM </olex2.extras>

WGHT    0.072500    1.806000
BASF   0.04421
FVAR       1.36221
BR1   3   -0.619166   -0.372130   -0.387331    11.00000    0.02688    0.08840 =
         0.03323    0.01315    0.00086    0.00900
O1    4   -0.249810   -0.096514   -0.391290    11.00000    0.06143    0.02575 =
         0.01908    0.00563    0.00414   -0.00090
O2    4   -0.048428   -0.480783   -0.474431    11.00000    0.03615    0.05218 =
         0.02346   -0.00243    0.01096    0.00183
AFIX 147
H2    2   -0.021515   -0.340102   -0.490986    11.00000   -1.50000
AFIX   0
C1    1   -0.249357   -0.349633   -0.362375    11.00000    0.02520    0.02664 =
         0.02194   -0.00512    0.00519    0.00199
C2    1   -0.390572   -0.500882   -0.408469    11.00000    0.02743    0.04370 =
         0.02191   -0.00496   -0.00082   -0.00072
AFIX  23
H2A   2   -0.383766   -0.674098   -0.389026    11.00000   -1.20000
H2B   2   -0.371788   -0.498961   -0.470489    11.00000   -1.20000
AFIX   0
C3    1   -0.077003   -0.474717   -0.383089    11.00000    0.02098    0.04569 =
         0.02201    0.00031    0.00710    0.00166
AFIX  23
H3A   2    0.015307   -0.382729   -0.354102    11.00000   -1.20000
H3B   2   -0.075778   -0.645051   -0.360619    11.00000   -1.20000
AFIX   0
C4    1   -0.259806   -0.347253   -0.263681    11.00000    0.02012    0.02222 =
         0.01735    0.00131    0.00253    0.00191
C5    1   -0.337715   -0.539127   -0.217702    11.00000    0.03267    0.02386 =
         0.02564   -0.00280    0.00211   -0.00926
AFIX  43
H5    2   -0.392593   -0.669093   -0.247749    11.00000   -1.20000
AFIX   0
C6    1   -0.334386   -0.538610   -0.127221    11.00000    0.03709    0.02331 =
         0.02382   -0.00071    0.00392   -0.00975
AFIX  43
H6    2   -0.387361   -0.668837   -0.097944    11.00000   -1.20000
AFIX   0
C7    1   -0.254116   -0.348922   -0.079638    11.00000    0.01679    0.01993 =
         0.01919   -0.00043    0.00169    0.00213
C8    1   -0.174169   -0.160667   -0.125802    11.00000    0.03749    0.02304 =
         0.02683   -0.00136    0.00018   -0.01330
AFIX  43
H8    2   -0.116902   -0.033026   -0.095677    11.00000   -1.20000
AFIX   0
C9    1   -0.177770   -0.158642   -0.215842    11.00000    0.03973    0.02699 =
         0.02502    0.00288    0.00353   -0.01181
AFIX  43
H9    2   -0.124224   -0.028474   -0.244881    11.00000   -1.20000
AFIX   0
C10   1   -0.250291   -0.352917    0.017774    11.00000    0.01985    0.02378 =
         0.01873    0.00105    0.00135    0.00325
C11   1   -0.334648   -0.536631    0.063891    11.00000    0.03588    0.02734 =
         0.02226   -0.00142    0.00071   -0.00823
AFIX  43
H11   2   -0.394936   -0.661486    0.033850    11.00000   -1.20000
AFIX   0
C12   1   -0.330828   -0.537792    0.154568    11.00000    0.04006    0.03391 =
         0.02189    0.00596    0.00359   -0.00754
AFIX  43
H12   2   -0.386534   -0.664719    0.184220    11.00000   -1.20000
AFIX   0
C13   1   -0.244770   -0.351479    0.200585    11.00000    0.03377    0.03407 =
         0.01667   -0.00150    0.00045    0.00340
AFIX  43
H13   2   -0.244148   -0.350213    0.261006    11.00000   -1.20000
AFIX   0
C14   1   -0.158920   -0.165493    0.155218    11.00000    0.05464    0.03735 =
         0.02361   -0.00546   -0.00218   -0.00775
AFIX  43
H14   2   -0.098437   -0.041267    0.185478    11.00000   -1.20000
AFIX   0
C15   1   -0.163405   -0.165140    0.065462    11.00000    0.03798    0.03052 =
         0.02380   -0.00074   -0.00085   -0.01130
AFIX  43
H15   2   -0.107694   -0.037827    0.036005    11.00000   -1.20000
AFIX   0
H1    2   -0.255547   -0.083671   -0.437480    11.00000    0.02116
HKLF 4

REM  mx4171 in P2(1)
REM R1 =  0.0575 for    2833 Fo > 4sig(Fo)  and  0.0582 for all    2875 data
REM    169 parameters refined using      1 restraints

END

WGHT      0.0725      1.8121

REM Instructions for potential hydrogen bonds
HTAB O2 O2_$1
EQIV $3 x, y-1, z
HTAB C2 O1_$3
EQIV $4 -x-1, y-1/2, -z-1
HTAB C2 Br1_$4
EQIV $5 x+1, y, z
HTAB C3 Br1_$5
HTAB O1 Br1_$2

REM Highest difference peak  2.433,  deepest hole -0.770,  1-sigma level  0.108
Q1    1  -0.5811 -0.2005 -0.3812  11.00000  0.05    2.43
Q2    1  -0.5744 -0.5492 -0.3812  11.00000  0.05    1.57
Q3    1  -0.1797 -0.5589  0.1596  11.00000  0.05    0.61
Q4    1  -0.4997 -0.3512 -0.3957  11.00000  0.05    0.48
Q5    1  -0.1158 -0.6560 -0.3853  11.00000  0.05    0.40
Q6    1  -0.0549 -0.6396 -0.4776  11.00000  0.05    0.39
Q7    1  -0.2597 -0.4640 -0.2446  11.00000  0.05    0.37
Q8    1  -0.2467 -0.4502  0.0391  11.00000  0.05    0.36
Q9    1  -0.2973 -0.3877  0.0375  11.00000  0.05    0.33
Q10   1  -0.1398 -0.1246 -0.3789  11.00000  0.05    0.32
Q11   1  -0.2769 -0.1518 -0.1400  11.00000  0.05    0.32
Q12   1  -0.1151 -0.3597  0.1659  11.00000  0.05    0.32
Q13   1  -0.4341 -0.8262 -0.1643  11.00000  0.05    0.32
Q14   1  -0.2156 -0.3247 -0.2435  11.00000  0.05    0.31
Q15   1  -0.2185 -0.3032  0.0341  11.00000  0.05    0.30
Q16   1  -0.4885 -0.0779 -0.3948  11.00000  0.05    0.28
Q17   1  -0.3284 -0.3779 -0.0988  11.00000  0.05    0.28
Q18   1  -0.2439 -0.2526 -0.3955  11.00000  0.05    0.27
Q19   1  -0.3321 -0.5324 -0.1622  11.00000  0.05    0.27
Q20   1  -0.2614 -0.1794 -0.2212  11.00000  0.05    0.26
;
_shelx_res_checksum              39697
_shelx_hkl_file
;
   0   0  -1    2.23    0.41
   0   0   1    3.40    0.43
   0   0  -2  494.81   10.14
   0   0   2  509.34   10.40
   0   0  -2  480.21    9.88
   0   0   2  497.36   10.30
   0   0   2  500.35   10.17
   0   0   2  479.63    9.76
   0   0  -3  122.34    5.60
   0   0   3  116.23    5.42
   0   0  -3  109.12    5.06
   0   0   3  122.71    5.83
   0   0   3  121.80    5.53
   0   0   3  108.12    4.92
   0   0  -6 2847.85   31.24
   0   0  -6 2556.20   28.27
   0   0   6 2572.41   28.28
   0   0   6 2576.37   28.01
   0   0  -7 2079.48   23.40
   0   0   7 1941.16   21.80
   0   0   7 2113.82   23.32
   0   0   8 5445.05   58.73
   0   0  -8 5816.93   62.98
   0   0   8 5547.69   59.83
   0   0   8 6999.36  403.21
   0   0  -9 6192.84   68.33
   0   0   9 7376.34  424.92
   0   0   9 6599.55   70.78
   0   0  10 1249.98   26.17
   0   0 -10 1309.29   27.80
   0   0  10 1432.25   29.70
   0   0  10 1450.66   29.92
   0   0  11   70.63    4.89
   0   0 -11   82.49   12.42
   0   0  11   73.59    4.86
   0   0  12 1292.25   30.97
   0   0 -12 1259.47   31.97
   0   0  12 1496.03   35.44
   0   0  13 2683.61  205.36
   0   0 -13 2683.67  205.54
   0   0  13 3052.00  233.41
   0   0  14  401.75   12.63
   0   0 -14  399.64   13.22
   0   0  14  437.51   13.23
   0   0  15  876.07   33.93
   0   0 -15  812.01   32.98
   0   0  15  927.67   35.57
   0   0  16   33.06    3.07
   0   0 -16   32.71    3.62
   0   0  16   34.00    2.74
   0   0  17  525.42   28.63
   0   0 -17  513.48   28.24
   0   0  17  425.48   22.94
   0   0  18  362.43   20.89
   0   0 -18  337.92   19.89
   0   0  19   25.63    3.22
   0   0 -19   26.81    3.56
   0  -1   0    0.53    0.81
   0   1   0    0.75    0.87
   0   1   0    1.53    0.58
   0  -1   0    0.98    0.74
   0  -1   0    2.28    1.28
   0   1   0    1.19    0.85
   0   1  -1 7885.54  454.01
   0   1  -3 7481.66  430.84
   0  -1   3 8067.32  464.49
   0  -1  -4  659.34   13.57
   0   1   4  565.96   11.57
   0  -1   4  652.44   13.77
   0   1   4  539.79   11.13
   0   1  -4  615.53   13.01
   0  -1   4  680.75   14.25
   0  -1  -4  699.53   14.70
   0   1   4  585.13   12.27
   0  -1   5  554.76   11.84
   0   1   5  654.30   13.41
   0  -1   5  590.10   12.72
   0   1   5  587.51   12.22
   0   1  -5  667.99   14.25
   0  -1   5  565.44   12.08
   0  -1  -5  619.43   13.15
   0   1   5  630.07   13.33
   0  -1   5  633.54   13.18
   0   1  -5  627.20   12.91
   0  -1  -6 2166.39   23.78
   0  -1   6 2157.01   24.52
   0   1   6 2041.12   22.39
   0   1  -6 2353.66   26.65
   0  -1   6 2172.65   23.90
   0   1  -6 2313.95   25.14
   0  -1  -7 7033.22  405.05
   0  -1   7 6683.60   72.33
   0   1  -7 7476.63  430.90
   0   1   7 7265.95  418.54
   0   1  -7 6934.47   73.77
   0  -1  -8  134.00    7.18
   0   1   8  213.61    9.77
   0  -1   8  142.91    7.24
   0   1   8  182.40    8.52
   0   1  -8  217.24   10.40
   0  -1  -8  124.35    6.08
   0   1   8  209.48    9.77
   0  -1   8  131.70    6.29
   0   1  -8  193.27    8.81
   0  -1  -9  310.14   14.27
   0   1   9  266.78   12.10
   0  -1   9  339.80   15.81
   0   1  -9  266.91   14.14
   0   1   9  253.35   12.03
   0  -1  -9  308.33   14.11
   0  -1   9  262.03   11.95
   0   1  -9  253.65   11.52
   0   1 -10 1877.33   24.31
   0  -1 -10 2074.49   23.71
   0  -1  10 1873.39   20.97
   0  -1  10 1826.38   20.77
   0  -1 -11 2221.33   52.05
   0  -1  11 2159.28   51.05
   0   1 -11 1907.42   45.32
   0  -1  11 1920.09   44.97
   0   1  11 2044.73   47.91
   0  -1 -12 1259.40   30.18
   0  -1  12 1186.33   28.80
   0   1 -12 1061.88   27.63
   0  -1  12 1136.40   27.08
   0   1  12 1093.54   26.19
   0  -1 -13   78.27    6.77
   0  -1  13   90.36    7.67
   0   1 -13   78.36   10.00
   0  -1  13   92.65    7.57
   0   1  13   71.83    6.32
   0  -1  14   81.20    7.09
   0   1  14  115.65    9.42
   0   1 -14  100.88   14.32
   0  -1  14   84.21    7.03
   0   1  14  107.90    8.77
   0  -1  15  501.94   21.47
   0   1  15  669.46   28.21
   0   1 -15  498.42   25.00
   0  -1  15  508.89   21.44
   0   1  15  573.12   24.08
   0  -1  16  300.15   15.89
   0   1  16  398.23   20.53
   0   1 -16  307.51   16.58
   0  -1  16  299.05   15.36
   0   1  16  334.76   17.21
   0  -1  17   58.57    4.96
   0   1  17   80.18    5.51
   0   1 -17   73.25    6.41
   0   1  17   72.90    4.84
   0  -1  18   32.38    3.19
   0   1  18   35.20    3.30
   0   1 -18   20.38    6.04
   0   1  18   28.95    2.80
   0  -1  19  122.47   12.75
   0   1  19  146.70   14.99
   0   1 -19  100.21   11.08
   0  -2  -2  524.54   10.86
   0   2   2  471.86    9.82
   0  -2   2  573.38   12.15
   0   2  -2  440.36   19.67
   0   2  -2  449.31   20.20
   0  -2   2  494.71   10.62
   0   2   2  483.33   10.15
   0  -2  -2  484.21   10.10
   0  -2  -2  526.83   11.40
   0   2   2  413.94   18.59
   0  -2   2  483.30   10.39
   0   2  -2  446.59   19.98
   0  -2  -3 3691.20   39.37
   0   2   3 3812.85   40.67
   0   2  -3 4095.98   44.32
   0   2  -3 3894.77   42.33
   0  -2   3 3710.22   40.33
   0   2   3 3871.60   41.42
   0  -2  -3 3770.82   40.28
   0  -2  -3 3877.47   42.26
   0   2   3 3876.69   42.20
   0  -2  -4  348.81   15.54
   0   2   4  213.01    9.59
   0  -2   4  374.17   16.93
   0   2  -4  252.79   11.61
   0   2  -4  228.26   10.59
   0   2   4  210.97    9.56
   0  -2  -4  307.39   13.69
   0  -2  -4  334.59   16.42
   0   2   4  221.41   10.33
   0  -2   4  360.04   16.27
   0   2  -4  243.52   11.07
   0   2   5 1542.91   88.94
   0  -2   5 1606.33   18.71
   0   2  -5 1575.43   91.07
   0   2   5 1608.15   17.64
   0  -2  -5 1692.77   18.44
   0  -2  -5 1688.76   20.08
   0  -2   5 1568.77   90.57
   0  -2  -6  208.40    9.42
   0   2   6  166.43    7.55
   0  -2   6  204.86    9.67
   0   2  -6  187.04    9.12
   0   2   6  176.98    8.02
   0  -2  -6  232.44   11.90
   0  -2   6  211.49    9.78
   0   2  -6  167.70    7.74
   0  -2  -7  295.29   13.29
   0   2   7  242.03   10.90
   0  -2   7  249.38   11.69
   0   2   7  236.32   10.71
   0   2  -7  280.58   13.26
   0   2   7  241.95   10.87
   0  -2  -7  320.77   14.93
   0  -2   7  287.97   13.18
   0   2  -7  246.64   11.19
   0  -2  -8 1224.66   25.30
   0   2   8  963.38   19.75
   0  -2   8 1072.23   22.92
   0   2  -8 1115.78   24.01
   0   2   8  947.39   19.39
   0  -2   8 1191.58   24.80
   0   2  -8  980.58   20.26
   0   2   9  916.88   18.92
   0  -2   9 1055.76   22.93
   0   2  -9 1052.09   24.03
   0   2   9  919.93   18.89
   0  -2   9 1099.01   23.07
   0   2  -9  905.72   18.81
   0  -2 -10  800.68   19.21
   0  -2  10  739.00   18.67
   0   2  10  582.18   14.12
   0   2 -10  755.85   20.57
   0   2  10  671.01   15.96
   0  -2  10  699.27   17.13
   0   2 -11  717.61   19.17
   0   2  11  655.94   15.73
   0  -2 -11  781.72   19.48
   0  -2  11  565.62   14.18
   0  -2 -12   81.71    8.89
   0  -2  12   80.69    7.15
   0   2 -12   71.63   11.81
   0  -2 -12   75.18   11.42
   0  -2  12   70.79    6.04
   0  -2 -13  264.31   20.96
   0  -2  13  267.30   21.11
   0   2 -13  156.23   14.97
   0   2  13  154.48   12.15
   0  -2 -13  261.10   20.62
   0  -2  13  252.70   19.81
   0  -2 -14  570.92   24.01
   0  -2  14  520.64   22.46
   0   2 -14  419.68   21.86
   0   2  14  411.74   17.22
   0  -2 -14  470.13   20.09
   0  -2  14  492.06   20.76
   0  -2  15  117.64    7.00
   0   2 -15   84.97   13.21
   0   2  15   65.94    3.94
   0  -2  15  108.81    6.19
   0   2  15   79.50    4.88
   0  -2  16  108.18    6.99
   0   2  16  103.60    6.41
   0   2 -16   88.69   11.07
   0   2  16   99.56    6.32
   0  -2  17  379.91   21.06
   0   2 -17  382.21   21.98
   0   2  17  375.96   20.49
   0  -2  18   13.24    2.63
   0   2 -18    6.46    2.93
   0   2  18    7.57    2.37
   0  -2  19   41.73    4.90
   0   2 -19   28.15   11.58
   0   2  19   47.66    5.21
   0  -3   0    5.45    0.86
   0   3   0    2.00    0.96
   0   3   0    3.25    1.55
   0  -3   0    2.06    0.84
   0  -3   0    1.08    2.58
   0  -3  -1  840.29   17.44
   0  -3   1  891.16   18.62
   0   3   1  787.26   16.43
   0   3  -1  737.60   15.85
   0   3   1  740.68   15.77
   0  -3  -1  727.02   15.17
   0  -3  -1  857.23   18.60
   0  -3   1  875.68   18.83
   0  -3  -2 2013.12   22.31
   0   3   2 1840.22   20.60
   0   3   2 1774.59   20.14
   0  -3  -2 1737.73   19.35
   0  -3  -2 1985.13   23.24
   0  -3   2 1905.13   22.12
   0  -3  -3 2563.26   28.03
   0   3   3 2446.81   26.85
   0   3  -3 2299.17   26.33
   0   3   3 2344.84   25.93
   0  -3  -3 2260.95   24.82
   0  -3  -3 2485.95   28.53
   0  -3   3 2298.54   26.18
   0  -3  -4  929.74   19.09
   0   3   4  818.92   16.91
   0   3  -4  751.58   16.39
   0   3   4  801.80   16.67
   0  -3  -4  874.50   17.99
   0  -3  -4  928.28   20.84
   0  -3   4  843.64   18.02
   0  -3  -5  206.02    9.45
   0   3   5  190.93    8.68
   0  -3   5  246.99   11.75
   0   3  -5  209.98   10.29
   0   3   5  185.76    8.55
   0  -3  -5  174.99    7.99
   0  -3  -5  207.76   10.02
   0  -3   5  200.11    9.45
   0  -3  -6  797.95   16.53
   0   3   6  643.98   13.41
   0   3  -6  750.40   16.77
   0   3   6  666.00   13.91
   0  -3  -6  695.92   14.39
   0  -3  -6  792.74   18.25
   0  -3   6  747.60   16.15
   0  -3  -7 1215.45   28.46
   0  -3   7 1234.59   29.92
   0   3  -7 1128.67   27.74
   0   3   7 1006.30   23.62
   0  -3  -7 1182.73   30.91
   0  -3   7 1150.72   27.56
   0  -3  -8  576.96   14.28
   0   3   8  563.51   13.51
   0  -3   8  596.42   15.51
   0   3  -8  603.86   15.87
   0   3   8  551.92   13.25
   0  -3  -8  618.95   17.97
   0  -3   8  550.24   13.94
   0  -3  -9    7.29    1.63
   0   3   9    7.51    1.01
   0  -3   9    7.98    3.64
   0   3   9    6.65    1.44
   0   3  -9    7.28    3.13
   0   3   9    9.42    1.08
   0  -3  -9   10.13    1.91
   0  -3   9    5.28    2.56
   0  -3 -10 2213.68   61.47
   0  -3  10 2151.30   60.74
   0   3 -10 2394.14   68.66
   0   3  10 2154.73   59.62
   0  -3 -10 2395.63   67.28
   0  -3  10 1946.94   54.50
   0  -3 -11  688.94   20.43
   0  -3  11  656.17   19.87
   0   3 -11  451.86   20.02
   0  -3  11  535.46   15.97
   0  -3 -12  563.73   21.74
   0  -3  12  571.96   23.08
   0   3 -12  500.55   21.98
   0   3  12  480.92   18.44
   0  -3 -12  576.59   23.49
   0  -3  12  435.71   17.22
   0  -3 -13  115.26    6.11
   0  -3  13  113.69    6.70
   0   3 -13  101.55   10.10
   0  -3 -13  126.09    8.16
   0  -3  13   89.02    4.70
   0  -3 -14  210.54   11.16
   0  -3  14  267.25   14.05
   0   3 -14  254.13   14.21
   0  -3 -14  262.51   13.76
   0  -3  14  240.31   12.22
   0  -3  15  232.76   13.64
   0   3 -15  185.38   13.14
   0  -3 -15  214.03   12.65
   0  -3  16  175.95   11.13
   0   3 -16  154.90   19.24
   0  -3 -16  171.33   10.83
   0  -3  17   86.64    6.85
   0   3 -17   51.17   12.27
   0   3  17   72.39    5.52
   0  -4   0 1407.30   33.26
   0   4   0 1546.30   36.75
   0  -4   0 1490.35   35.92
   0  -4  -1  114.72    7.09
   0  -4   1  105.86    6.75
   0   4  -1   67.02    5.09
   0   4   1   60.78    4.32
   0  -4  -1  111.68    7.75
   0  -4   1  111.51    7.59
   0  -4  -2   31.99    2.43
   0  -4   2   16.57    2.12
   0   4  -2   14.72    2.70
   0   4   2   18.66    2.14
   0  -4  -2   27.71    2.92
   0  -4   2   13.70    2.64
   0  -4  -3  493.51   12.19
   0  -4   3  447.59   11.63
   0   4  -3  473.11   12.67
   0   4   3  444.86   11.28
   0  -4  -3  452.94   12.29
   0  -4   3  430.82   11.59
   0  -4  -4  396.25    9.83
   0  -4   4  464.95   12.11
   0   4  -4  441.90   12.14
   0   4   4  375.33    9.71
   0  -4  -4  409.16   11.33
   0  -4   4  400.54   10.84
   0  -4  -5  558.08   15.91
   0  -4   5  624.10   18.49
   0   4  -5  609.63   18.37
   0   4   5  466.16   13.55
   0  -4  -5  442.25   13.99
   0  -4   5  531.13   16.02
   0  -4  -6   99.66    3.45
   0  -4   6  130.53    5.55
   0   4  -6  116.40    5.16
   0   4   6  103.05    3.72
   0  -4  -6  109.03    7.09
   0  -4   6  102.77    4.58
   0  -4  -7   76.20    6.17
   0  -4   7   73.23    6.84
   0   4  -7   67.41    6.60
   0   4   7   71.41    5.90
   0  -4  -7   73.43    7.54
   0  -4   7   62.95    5.66
   0  -4  -8  262.80   20.32
   0  -4   8  300.05   13.12
   0   4  -8  279.56   22.29
   0   4   8  251.27   19.44
   0  -4  -8  253.67   20.16
   0  -4   8  251.66   19.81
   0  -4  -9  186.27    7.48
   0  -4   9  260.51   11.50
   0   4  -9  271.09   11.99
   0   4   9  210.80    8.41
   0  -4  -9  253.71   11.21
   0  -4   9  206.61    8.93
   0  -4 -10  126.67    6.09
   0  -4  10  158.24    8.52
   0   4 -10  159.35    9.39
   0  -4 -10  137.82    7.32
   0  -4  10  129.10    6.41
   0  -4  11   69.14    5.71
   0   4 -11   50.19   10.94
   0  -4 -11   97.78   12.20
   0  -4  11   63.58    4.25
   0  -4  12   66.11    5.30
   0   4 -12   53.59   10.39
   0  -4 -12   52.20   12.50
   0  -4  12   44.74    3.19
   0  -4  13   95.99    7.37
   0   4 -13   78.01    8.23
   0  -4 -13   92.40    7.46
   0  -4  14   68.88    6.27
   0   4 -14   31.53    8.63
   0  -4 -14   58.08    6.25
   0  -4  15   36.81    4.30
   0   4 -15   38.03    8.59
   0  -4 -15   20.10    8.15
   0  -4  16   36.30    5.94
   0   4 -16   21.70    7.52
   0  -4 -16   18.93    7.59
   0  -5   0    2.80    2.43
   0   5   0    2.95    1.60
   0  -5   0    8.49    3.66
   0  -5  -1  121.64    5.46
   0  -5   1  120.51    5.73
   0   5  -1  150.18    7.17
   0   5   1  150.20    7.00
   0  -5  -1  128.64    6.91
   0  -5   1  110.45    5.90
   0  -5  -2   67.21    3.92
   0  -5   2   52.90    3.38
   0   5  -2   90.38    4.94
   0   5   2   69.40    3.76
   0  -5  -2   61.00    4.11
   0  -5   2   62.73    4.59
   0  -5  -3   10.10    2.42
   0  -5   3   -1.11    1.64
   0   5  -3    4.32    2.99
   0   5   3    1.61    1.32
   0  -5  -3   15.10    2.55
   0  -5   3    0.37    2.19
   0  -5  -4    3.46    1.32
   0  -5   4    2.87    1.60
   0   5  -4    7.35    2.38
   0   5   4    3.10    1.69
   0  -5  -4    6.23    2.72
   0  -5   4    6.23    3.00
   0  -5  -5   37.79    2.61
   0  -5   5   49.09    3.74
   0   5  -5   39.82    4.00
   0   5   5   27.42    2.15
   0  -5  -5   31.92    4.85
   0  -5   5   38.67    3.55
   0  -5  -6   20.69    1.64
   0  -5   6   24.62    2.72
   0   5  -6   25.18    3.63
   0   5   6   19.24    2.01
   0  -5  -6   22.00    4.09
   0  -5   6   29.28    2.88
   0  -5   7  376.30   19.70
   0   5  -7  455.73   23.93
   0   5   7  357.95   18.06
   0  -5  -7  353.50   19.09
   0  -5   7  329.16   17.33
   0  -5   8   61.80    5.23
   0   5  -8   27.15    3.64
   0  -5  -8   68.21   12.20
   0  -5   8   54.02    4.16
   0  -5   9   18.54    3.11
   0   5  -9   16.86    4.16
   0  -5  -9   14.33    6.34
   0  -5   9    6.03    2.41
   0  -5  10    7.89    3.86
   0   5 -10    6.39    1.73
   0  -5 -10    7.02    2.28
   0  -5  10    0.42    2.00
   0  -5  11   37.91    4.77
   0   5 -11   51.29   18.34
   0  -5 -11   39.08    8.64
   0  -5  11   39.21    3.66
   0  -5  12   15.36    4.36
   0   5 -12   -5.51    3.15
   0  -5 -12    7.97    2.50
   0  -5  13   51.30    6.63
   0   5 -13   23.47    8.12
   0  -5 -13   36.20   12.49
   0  -6   0  621.60   33.35
   0   6   0  572.82   30.90
   0  -6   0  616.06   33.65
   0  -6  -1  116.62    7.13
   0  -6   1   85.81    5.51
   0   6  -1   68.23    4.90
   0   6   1   76.71    5.42
   0  -6  -1   92.16   15.41
   0  -6   1   90.22    6.51
   0  -6  -2    3.79    2.02
   0  -6   2   11.00    2.34
   0   6  -2    1.77    1.88
   0   6   2    3.87    1.96
   0  -6  -2    5.99    2.21
   0  -6   2   11.89    2.72
   0  -6  -3    6.76    1.51
   0  -6   3   16.30    2.53
   0   6   3    4.91    1.86
   0  -6  -3    4.13    1.56
   0  -6   3   16.40    2.84
   0  -6   4   33.95    3.16
   0   6  -4   28.31    3.22
   0   6   4   27.16    3.13
   0  -6  -4   22.35    4.31
   0  -6   4   36.37    4.29
   0  -6   5   29.28    3.26
   0   6  -5   37.64    4.94
   0  -6  -5   25.42    6.01
   0  -6   5   29.94    3.64
   0  -6   6   13.73    2.80
   0   6  -6   12.87    4.25
   0  -6  -6    9.17    3.51
   0  -6   6    3.27    2.30
   0  -6   7   16.17    3.20
   0   6  -7   22.72    3.84
   0  -6  -7   11.11    4.27
   0  -6   7   21.16    3.57
   0  -6   8    9.78    2.91
   0   6  -8   18.39    4.34
   0  -6  -8   10.47    3.33
   0  -6   8   12.47    3.39
   0  -6   9   13.55    2.91
   0   6  -9    5.61    4.48
   0  -6  -9    8.61    2.80
   0  -6   9   15.61    3.57
  -1   0  19   16.95    3.11
   1   0 -19   16.36    3.43
  -1   0  18  121.53    8.21
   1   0 -18  130.99    8.94
  -1   0  18  124.86    8.09
  -1   0  17  311.44   17.46
   1   0 -17  322.63   18.30
  -1   0  17  309.05   17.17
  -1   0  16  394.31   20.52
   1   0 -16  388.18   20.50
  -1   0  16  400.08   20.47
  -1   0  15   64.42    4.00
   1   0 -15   99.51    8.52
  -1   0  15   80.92    4.78
  -1   0  14   44.89    4.50
   1   0 -13  679.81   20.18
   1   0 -13  635.49   19.53
  -1   0  13  739.81   21.52
   1   0 -12  688.12   17.35
   1   0 -12  621.13   17.79
  -1   0  12  712.86   17.69
   1   0 -11   23.46    4.36
   1   0 -11   22.60    3.37
  -1   0  11   22.31    2.40
  -1   0  10  102.09    5.43
   1   0  -9 1590.87   19.57
   1   0  -9 1564.35   90.53
  -1   0   9 1568.24   90.56
  -1   0   9 1773.98   20.59
   1   0  -8 5239.18   57.07
   1   0  -8 5391.72   58.79
  -1   0   8 5356.79   57.62
  -1   0   8 5336.99   57.69
  -1   0   8 5392.08   58.38
   1   0  -7 1005.68   20.90
  -1   0   7  892.93   18.64
   1   0  -7  998.38   20.93
  -1   0   7  989.74   20.41
  -1   0   7  963.34   20.07
   1   0  -6  169.51    9.22
  -1   0   6  254.88   11.66
   1   0  -5 2303.98   25.20
  -1   0   5 2229.04   24.41
   1   0  -5 2227.68   24.27
  -1   0   5 2107.82   22.88
  -1   0   5 2245.81   24.77
   1   0  -5 2348.19   25.74
   1   0  -4 4204.62   44.98
   1   0  -4 4276.82   45.56
  -1   0   4 4110.55   44.20
   1   0  -3 5132.15   54.56
  -1   0   3 5190.71   55.41
   1   0  -3 4992.01   53.20
  -1   0   2   16.58    0.95
   1   0  -2   12.15    0.78
   1   0  -2   14.36    0.84
  -1   0   2   15.96    0.89
  -1   0   2   23.08    1.38
   1   0  -2   21.11    1.33
   1   0  -1 2302.18   24.55
  -1   0   1 2464.77   26.20
   1   0  -1 2400.02   25.73
   1   0   0 2238.40   23.81
   1   0   0 1968.68   20.98
   1   0   1  180.04    8.01
  -1   0  -1  179.49    7.97
  -1   0  -1  182.75    8.11
   1   0   1  174.71    7.76
   1   0   2  126.15    5.67
  -1   0  -2  139.36    6.25
   1   0   2  111.81    5.17
  -1   0  -2  112.66    5.03
   1   0   2  117.39    5.23
   1   0   3  335.22   14.92
  -1   0  -3  299.21   13.31
  -1   0  -3  350.10   15.82
   1   0   3  320.27   14.43
  -1   0  -3  209.19    9.34
   1   0   3  207.30    9.22
  -1   0  -4 4361.39   46.53
  -1   0  -4 3984.63   43.12
   1   0   4 3922.59   42.29
  -1   0  -5 5964.61   64.15
  -1   0  -5 6606.99   70.00
   1   0   5 6155.58   65.21
  -1   0  -6 6314.74   68.07
  -1   0  -6 6970.73   73.91
   1   0   7  509.67   10.95
   1   0   7  564.68   12.16
  -1   0  -7  463.33   27.12
   1   0   7  564.89   12.04
   1   0   7  552.13   11.47
  -1   0  -8  373.09   17.51
   1   0   8  498.43   10.79
   1   0   8  456.07   26.46
   1   0   9  928.86   19.63
  -1   0  -9  858.28   19.42
   1   0   9  980.11   20.57
   1   0   9  944.20   19.47
   1   0  10 2766.67   31.10
   1   0  10 2813.89   31.00
   1   0  10 2871.93   31.41
   1   0  11  275.25   16.34
  -1   0 -11  258.22   16.90
   1   0  11  278.85   16.39
   1   0  12   40.47    3.20
  -1   0 -12   41.47    4.62
   1   0  12   51.31    3.57
   1   0  13  171.96    6.12
  -1   0 -13  181.96    7.71
   1   0  13  192.20    6.15
   1   0  14  959.78   27.41
  -1   0 -14 1044.49   30.52
   1   0  14 1116.49   31.42
   1   0  15  396.22   17.11
  -1   0 -15  424.73   18.63
   1   0  15  405.61   17.02
   1   0  16   92.84    5.68
  -1   0 -16  100.76    7.11
   1   0  16   82.91    4.79
   1   0  17   64.83    4.92
   1   0  18  304.25   17.69
   1   0  19  274.26   17.01
  -1  -1  19  255.92   25.82
  -1   1  19  259.75   26.12
   1   1 -19  193.48   21.89
  -1   1  19  238.25   23.89
  -1  -1  18  300.04   17.69
  -1   1  18  336.50   19.62
   1   1 -18  257.70   15.38
  -1   1  18  298.54   17.17
  -1  -1  17   12.05    2.59
  -1   1  17   14.77    2.70
   1   1 -17    7.66    3.33
  -1   1  17   14.18    2.06
   1  -1 -16  150.86    8.89
  -1  -1  16  132.86    8.14
   1   1 -16  113.51    9.99
  -1  -1  16  111.32    6.40
  -1   1  16  136.97    7.67
   1  -1 -15  296.62   13.36
  -1  -1  15  254.78   11.81
   1   1 -15  215.15   10.45
  -1  -1  15  230.88   10.37
  -1   1  15  234.13   10.53
   1  -1 -14 1323.36   37.66
  -1  -1  14 1208.25   34.89
   1   1 -14 1139.83   32.86
  -1  -1  14 1173.47   33.32
  -1   1  14 1263.95   35.84
   1  -1 -13  339.73   10.99
  -1  -1  13  322.75   10.56
   1  -1 -13  305.14    9.70
   1   1 -13  249.87   21.94
  -1  -1  13  319.83   10.05
  -1   1  13  290.81   11.87
   1  -1 -12   34.78    6.72
  -1  -1  12   62.00    4.89
   1  -1 -12   57.35    4.32
   1   1 -12   49.83    6.56
  -1   1  12   38.94    2.77
  -1  -1  12   54.11    4.09
  -1   1  12   64.78    4.52
   1  -1 -11 1173.91   29.06
  -1  -1  11 1042.24   25.50
   1  -1 -11  962.81   23.16
   1   1 -11  931.17   22.98
  -1  -1  11  938.99   22.72
  -1   1  11  957.50   23.08
   1  -1 -10 1379.96   29.44
  -1  -1  10 1265.26   27.03
  -1   1  10 1417.00   28.96
   1  -1  -9  475.78   12.93
   1  -1  -9  396.39   17.90
   1   1  -9  535.63   13.42
  -1   1   9  441.51   19.72
  -1  -1   9  378.67   17.30
  -1   1   9  534.65   11.85
   1   1  -8  165.29    8.31
   1  -1  -8  155.35    7.81
   1  -1  -8  146.22    6.88
   1   1  -8  134.46    6.88
  -1   1   8  121.10    5.65
   1  -1  -8  163.21    7.93
  -1  -1   8  199.24    9.49
   1   1  -8  166.15    7.76
   1   1  -7 3269.69   36.52
  -1   1   7 3067.25   33.39
   1  -1  -7 3166.97   34.17
   1   1  -7 3181.40   35.18
  -1   1   7 3008.72   32.34
   1  -1  -7 3320.43   36.55
  -1  -1   7 3159.47   34.83
   1   1  -6 3325.27   36.85
  -1  -1   6 3028.02   33.55
  -1   1   6 3236.16   34.98
   1  -1  -6 3144.36   33.68
   1   1  -6 3288.96   36.03
  -1   1   6 3288.99   35.12
  -1  -1   6 3069.06   33.55
   1  -1  -6 3259.16   36.18
   1   1  -6 3018.27   32.85
   1   1  -5 2783.44   30.96
  -1  -1   5 2735.33   30.41
   1  -1  -5 2872.47   31.07
   1   1  -5 2635.39   28.97
  -1   1   5 2665.64   28.37
  -1  -1   5 2771.69   30.27
   1  -1  -5 2926.84   32.25
  -1   1   5 2920.21   32.29
  -1  -1   5 2890.52   31.69
   1   1  -4 1294.20   26.73
  -1  -1   4 1145.31   23.55
   1  -1  -4 1220.67   24.83
  -1   1   4 1100.41   22.36
  -1   1   4 1061.88   21.28
   1   1  -4 1136.17   23.30
  -1  -1   4 1187.66   24.28
   1  -1  -4 1253.66   25.93
  -1   1   4 1341.09   27.63
   1   1  -4 1157.32   23.61
   1  -1  -3  679.55   13.96
  -1   1   3  816.58   16.66
   1   1  -3  741.94   15.34
   1  -1  -3  724.67   15.20
   1   1  -3  820.21   16.86
   1   1  -2 3573.08   38.61
  -1  -1   2 3760.74   40.37
   1  -1  -2 3855.07   41.14
  -1   1   2 3718.94   39.66
  -1  -1   2 3502.03   37.55
  -1  -1   2 3770.80   40.56
  -1  -1   0 4115.83   43.70
   1  -1   0 3891.21   41.49
   1   1   0 3824.44   40.89
  -1   1   0 3587.18   38.32
  -1  -1   0 3851.69   41.28
   1   1   0 3791.55   40.67
  -1  -1  -1 1380.44   27.70
  -1   1  -1 1144.36   23.24
  -1  -1  -1 1401.63   28.11
  -1   1  -1 1291.94   26.91
   1  -1   1 1213.16   24.75
   1   1   1 1368.85   27.75
  -1  -1  -1 1249.87   25.32
   1  -1   1 1206.55   24.45
  -1   1  -1 1101.61   22.32
  -1  -1  -1 1352.00   27.46
   1   1   1 1391.72   28.28
   1  -1   2 1550.76   89.43
  -1   1  -2 1334.96   27.11
  -1   1  -2 1328.43   27.29
   1  -1   2 1363.54   27.90
   1   1   2 1212.09   24.57
  -1  -1  -2 1202.55   24.33
   1  -1   2 1445.49   29.15
  -1  -1  -2 1231.31   25.07
  -1   1  -2 1100.87   22.20
   1   1   2 1217.64   24.77
   1  -1   3 5049.90   54.06
  -1   1  -3 4634.31   50.18
   1   1   4 3901.44   41.25
   1   1   4 3990.20   42.33
  -1   1  -4 3823.96   41.88
   1  -1   4 4178.23   45.41
  -1  -1  -4 4353.23   46.74
   1   1   5  270.35   12.04
  -1   1  -5  314.69   14.24
   1   1   5  325.55   14.53
  -1   1  -5  260.28   12.12
   1  -1   5  309.41   14.14
  -1  -1  -5  343.03   15.48
   1   1   5  324.71   14.64
   1  -1   5  369.58   16.40
  -1   1  -5  244.88   10.90
   1   1   6 1077.96   21.89
   1  -1   6 1140.88   23.70
  -1   1  -6 1171.86   24.28
   1   1   6 1210.04   24.66
  -1   1  -6 1121.65   23.68
   1  -1   6  999.05   21.00
   1   1   6 1260.35   25.84
   1   1   6 1124.78   23.18
   1  -1   6 1188.29   24.05
  -1   1  -6 1133.32   22.88
   1   1   7 2289.32   24.97
   1  -1   7 2488.12   28.01
   1   1   7 2579.96   28.18
  -1   1  -7 2342.01   27.45
   1   1   7 2338.40   25.94
  -1   1  -7 2359.06   25.35
   1   1   8 2457.55   26.83
   1  -1   8 2542.61   28.87
  -1   1  -8 2526.08   30.01
   1  -1   8 2682.28   28.90
   1   1   8 2608.70   28.94
   1  -1   8 2407.24   26.16
   1  -1   9 1376.78   28.77
   1   1   9 1343.41   27.58
  -1   1  -9 1209.07   26.57
  -1  -1  -9 1559.52   90.19
   1   1   9 1339.80   27.76
   1  -1   9 1196.57   24.45
   1  -1  10  979.77   21.08
   1   1  10  984.25   20.53
  -1   1 -10 1018.45   24.77
  -1  -1 -10  950.92   19.99
   1  -1  10  836.77   17.35
   1  -1  11  248.38   15.03
   1   1  11  206.51   12.33
  -1   1 -11  181.41   14.15
  -1  -1 -11  258.24   15.32
   1  -1  11  269.79   15.90
   1  -1  11  232.49   13.74
   1  -1  12  920.14   22.65
   1   1  12 1013.03   24.34
  -1   1 -12  897.58   23.56
  -1  -1 -12  833.40   20.14
   1  -1  12  910.05   21.70
   1  -1  13  565.27   16.84
   1   1  13  615.89   17.92
  -1   1 -13  538.05   17.95
   1  -1  13  538.97   15.46
   1   1  13  535.59   15.57
   1  -1  14  387.09   15.66
   1   1  14  422.78   16.79
  -1   1 -14  359.69   15.08
   1  -1  14  404.02   15.71
   1   1  14  362.56   14.35
   1  -1  15  300.77   13.21
   1   1  15  353.56   15.29
  -1   1 -15  282.19   19.41
   1   1  15  285.18   12.26
   1  -1  16  409.89   20.42
   1   1  16  478.30   23.46
  -1   1 -16  392.20   20.64
   1   1  16  388.17   19.02
   1  -1  17  285.28   16.03
   1   1  17  263.79   14.66
  -1   1 -17  236.49   14.23
   1   1  17  223.02   12.33
   1  -1  18  373.94   24.94
   1   1  18  392.62   25.94
  -1   1 -18  377.58   25.65
   1  -1  19   60.38    7.35
  -1   1 -19   51.58    6.97
  -1  -2  19   45.99    5.69
   1   2 -19   11.82    7.08
  -1   2  19   38.11    4.59
  -1  -2  18  194.25   12.49
   1   2 -18  199.13   15.06
  -1   2  18  176.32   11.29
   1  -2 -17  352.00   20.30
  -1  -2  17  333.80   19.47
   1   2 -17  353.31   20.72
  -1   2  17  339.08   19.48
   1  -2 -16  507.34   28.25
  -1  -2  16  445.99   24.55
   1   2 -16  460.17   25.60
  -1  -2  16  464.44   25.29
  -1   2  16  421.86   22.99
   1  -2 -15  133.61    9.34
  -1  -2  15  119.89    7.33
   1   2 -15  112.12   18.64
  -1  -2  15  134.67    7.65
  -1   2  15  147.85    8.39
   1  -2 -14  118.88    8.07
  -1  -2  14  134.53    7.35
   1   2 -14  161.90   14.77
  -1  -2  14  127.23    6.62
  -1   2  14  151.45    7.39
   1  -2 -13  500.53   15.02
  -1  -2  13  521.33   16.10
   1   2 -13  574.85   17.79
  -1   2  13  499.17   14.20
  -1  -2  13  444.15   13.78
  -1   2  13  539.08   16.24
   1  -2 -12  747.13   21.83
  -1  -2  12  769.78   22.81
   1   2 -12  864.03   25.65
  -1   2  12  752.79   21.05
   1  -2 -12  673.54   19.97
  -1  -2  12  619.22   18.35
   1  -2 -11 3662.95  102.13
  -1  -2  11 3591.42  100.05
   1   2 -11 3816.77  106.39
  -1   2  11 2873.52   66.48
   1  -2 -11 3341.01   92.85
  -1  -2  11 2765.99   64.98
   1  -2 -10  658.07   16.78
  -1  -2  10  707.88   18.25
   1   2 -10  757.40   19.20
  -1   2  10  616.09   14.57
   1  -2 -10  626.93   16.03
  -1  -2  10  554.36   14.17
   1  -2  -9  687.97   15.99
  -1  -2   9  706.90   16.01
   1   2  -9  754.04   16.97
  -1   2   9  643.75   13.17
   1  -2  -9  702.65   15.90
  -1  -2   9  635.78   14.26
   1  -2  -8 1341.29   28.23
  -1  -2   8 1317.58   28.05
  -1   2   8 1396.83   28.29
   1   2  -8 1481.71   31.15
  -1   2   8 1502.77   30.28
   1  -2  -8 1421.41   29.90
  -1  -2   8 1284.25   26.97
   1  -2  -7 1870.74   20.95
  -1   2   7 1753.35   18.97
   1   2  -7 1863.38   21.95
   1  -2  -7 1883.93   22.36
  -1  -2   7 1707.90   20.15
   1  -2  -6  818.65   17.06
  -1   2   6  778.64   16.14
  -1  -2   6  753.01   16.46
  -1   2   6  695.84   14.12
   1   2  -6  750.12   16.18
  -1   2   6  771.86   15.59
   1  -2  -6  886.04   19.15
  -1  -2   6  890.95   18.94
   1  -2  -5  305.65   13.82
  -1   2   5  266.26   12.02
  -1  -2   5  360.26   16.55
   1   2  -5  268.05   12.40
  -1   2   5  259.49   11.53
   1  -2  -5  348.03   16.02
   1   2  -5  307.96   13.95
  -1  -2   4 6309.75   67.88
  -1   2   4 6424.39   68.43
  -1  -2   4 6106.10   65.92
  -1  -2   4 6768.60   72.80
  -1  -2   3 1553.35   89.69
  -1   2   3 1918.94   21.08
  -1   2   3 1872.98   20.17
   1  -2  -3 1687.09   18.15
   1  -2  -3 1860.95   21.61
  -1   2   3 1802.57   20.47
  -1  -2   3 1645.44   18.90
   1   2  -3 1877.20   21.14
   1  -2  -2 1786.71   19.77
  -1   2   2 1587.87   17.57
  -1  -2   2 1766.70   19.73
  -1   2   2 1619.72   17.67
   1   2  -2 1723.80   19.53
   1  -2  -2 1670.85   18.10
  -1  -2   2 1549.39   89.41
  -1   2   2 1622.20   18.50
  -1  -2   2 1707.48   19.44
   1   2  -2 1677.12   19.07
   1  -2  -1  454.36   20.30
   1   2  -1  543.44   11.50
  -1   2   1  473.24    9.98
   1  -2  -1  444.89   19.79
   1   2  -1  432.24   19.46
   1  -2  -1  568.63   12.33
  -1   2   1  555.23   11.91
  -1  -2   1  516.55   11.20
   1   2  -1  513.45   11.10
   1  -2   0 1508.66   30.69
  -1   2   0 1552.06   89.54
   1   2   0 1552.99   89.57
  -1   2   0 1512.23   30.83
   1  -2   0 1521.93   30.86
   1   2   0 1595.62   17.98
  -1  -2   0 1527.61   31.06
   1  -2   0 1643.17   18.66
  -1   2   0 1398.20   28.59
  -1  -2   0 1626.56   18.48
   1   2   0 1466.39   30.03
  -1  -2  -1 4081.72   43.89
   1   2   1 4240.86   45.85
   1  -2   2 2705.10   29.69
   1  -2   2 2579.44   28.33
  -1  -2  -2 2732.43   30.25
   1   2   2 2638.14   28.99
  -1   2  -3   44.55    3.01
   1   2   3   19.89    1.72
  -1  -2  -3   19.09    1.22
  -1   2  -3   31.75    1.84
  -1  -2  -4  742.44   15.00
   1   2   4  681.01   13.81
  -1   2  -4  634.12   14.09
  -1  -2  -4  667.81   13.87
  -1   2  -4  640.49   13.39
   1   2   5 2189.59   23.35
   1  -2   5 1996.39   22.93
  -1   2  -5 2154.35   25.06
   1   2   5 2257.02   24.82
  -1  -2  -5 2281.23   24.92
  -1  -2  -5 2159.27   24.50
   1  -2   5 2010.25   22.13
  -1   2  -5 2047.47   22.47
   1   2   6 3146.55   33.49
  -1   2  -6 3085.84   35.08
   1   2   6 3001.99   32.61
  -1  -2  -6 3265.45   36.31
  -1  -2  -7  946.09   19.37
   1   2   7  867.88   17.61
   1  -2   7 1030.18   22.01
  -1   2  -7  810.35   18.50
   1   2   7  796.38   16.51
  -1  -2  -7  966.15   20.58
   1  -2   7  878.59   18.19
  -1   2  -7  832.24   17.11
  -1  -2  -8  164.63    7.76
   1   2   8  191.25    8.63
   1  -2   8  195.65    9.62
   1   2   8  162.43    7.67
  -1   2  -8  179.16   12.02
   1   2   8  159.56    7.42
  -1  -2  -8  184.04    9.00
   1  -2   8  197.30    9.09
  -1   2  -8  192.89    8.78
  -1  -2  -9  617.76   13.00
   1  -2   9  608.29   14.11
  -1   2  -9  619.45   15.00
   1   2   9  577.50   13.97
  -1  -2  -9  685.28   19.22
   1  -2   9  556.53   13.50
  -1   2  -9  619.03   12.93
  -1  -2 -10   64.27    4.29
   1   2  10   56.04    3.59
   1  -2  10   83.35    6.26
  -1   2 -10   38.87    5.65
   1   2  10   54.72    3.79
  -1  -2 -10   54.53    6.29
   1  -2  10   69.86    4.54
  -1   2 -10   39.99    2.65
   1   2  11 3011.55  230.14
   1  -2  11 3188.19  244.00
  -1   2 -11 2917.02  223.38
   1   2  11 3267.11  249.77
  -1  -2 -11 3494.50  267.50
   1  -2  12   66.95    6.35
  -1   2 -12   72.51   12.19
   1   2  12   54.78    4.83
  -1  -2 -12   53.39    8.69
   1  -2  12   78.52    6.43
   1  -2  13  197.91   16.03
   1   2  13  220.16   17.24
  -1   2 -13  148.52   13.11
   1   2  13  170.52   13.52
  -1  -2 -13  180.46   14.64
   1  -2  13  159.40   12.55
   1  -2  14  265.62   12.13
   1   2  14  437.80   18.47
  -1   2 -14  329.51   14.92
   1   2  14  371.76   15.89
  -1  -2 -14  298.18   13.08
   1  -2  15  521.54   26.76
   1   2  15  528.81   26.54
  -1   2 -15  477.49   25.13
   1   2  15  420.98   21.27
  -1  -2 -15  464.32   23.62
   1  -2  16  200.07   11.72
  -1   2 -16  195.48   11.94
   1   2  16  176.47    9.98
   1   2  16  206.43   11.68
   1  -2  17   36.38    4.48
  -1   2 -17   24.84    6.76
   1   2  17   44.18    3.44
   1  -2  18   75.49    5.95
  -1   2 -18   22.28    7.75
   1   2  18   36.72    3.20
  -1  -3  17   33.06    3.72
   1   3 -17   33.00    9.11
  -1   3  17   32.99    3.25
  -1  -3  16   88.20    6.85
   1   3 -16   93.34    7.33
  -1   3  16   84.13    6.05
   1  -3 -15  217.27   12.69
  -1  -3  15  274.46   15.82
   1   3 -15  311.71   20.21
   1  -3 -15  257.27   14.73
  -1  -3  15  255.23   14.40
   1  -3 -14  101.43    5.86
  -1  -3  14  110.03    7.16
   1   3 -14  124.83   13.46
   1  -3 -14   83.80    5.50
  -1  -3  14   90.17    5.86
   1  -3 -13  295.61   13.04
  -1  -3  13  309.51   14.16
   1   3 -13  312.50   14.97
   1  -3 -13  298.04   16.04
  -1  -3  13  259.76   11.82
   1  -3 -12   56.36    5.71
  -1  -3  12   65.72    4.93
   1   3 -12   37.42    5.85
   1  -3 -12   43.41   11.48
  -1  -3  12   56.63    3.77
   1  -3 -11 1660.18   46.19
  -1  -3  11 1736.85   49.45
   1   3 -11 2062.81   58.30
   1  -3 -11 1745.84   49.62
   1  -3 -10  419.80   13.15
  -1  -3  10  382.93   12.50
   1   3 -10  530.67   16.40
  -1   3  10  478.51   13.33
   1  -3 -10  460.90   14.77
  -1  -3  10  360.92   11.53
   1  -3  -9  617.26   17.72
  -1  -3   9  461.38   14.38
  -1   3   9  546.97   15.26
   1   3  -9  648.91   19.36
  -1   3   9  626.24   17.40
   1  -3  -9  617.79   18.68
  -1  -3   9  511.28   15.58
   1  -3  -8  196.63   11.75
  -1  -3   8  145.77    9.36
  -1   3   8  175.59   10.39
   1   3  -8  191.05   11.92
  -1   3   8  198.68   11.56
   1  -3  -8  204.91   12.87
  -1  -3   8  178.46   11.30
   1  -3  -7  299.97   17.67
  -1  -3   7  273.63   16.55
   1   3  -7  220.73   13.69
  -1   3   7  262.27   15.23
   1  -3  -7  323.63   10.57
  -1  -3   7  295.67   17.68
   1  -3  -6  547.96   11.80
  -1  -3   6  558.19   12.81
   1   3  -6  632.70   14.24
  -1   3   6  617.00   12.73
   1  -3  -6  581.59   11.94
   1  -3  -6  651.40   15.14
  -1  -3   6  610.45   13.74
   1  -3  -5  381.26   17.19
  -1  -3   5  354.35   16.39
  -1   3   5  457.80   26.54
   1   3  -5  428.18   19.62
   1  -3  -5  331.66   14.78
   1  -3  -5  384.81   17.86
  -1  -3   5  352.76   16.32
   1  -3  -4  881.72   18.35
  -1  -3   4  876.98   18.78
  -1   3   4 1018.28   20.91
   1   3  -4  824.56   17.96
   1  -3  -4  871.16   17.84
   1  -3  -4  977.45   21.24
  -1  -3   4  815.50   17.67
   1  -3  -3 1365.71   28.04
  -1  -3   3 1526.03   31.49
  -1   3   3 1489.51   30.41
   1   3  -3 1543.06   89.27
   1  -3  -3 1273.08   25.90
   1  -3  -3 1314.43   27.88
  -1  -3   3 1303.93   27.31
   1  -3  -2  756.78   15.93
  -1  -3   2  813.27   17.19
  -1   3   2  878.60   18.30
   1  -3  -2  682.65   14.20
   1  -3  -2  727.33   16.02
  -1  -3   2  690.68   15.06
   1  -3  -1  527.87   11.42
  -1  -3   1  617.41   13.20
   1  -3  -1  516.33   11.03
   1  -3  -1  508.39   11.76
  -1  -3   1  518.31   11.86
   1  -3   0  950.15   19.82
  -1  -3   0 1057.07   21.84
   1   3   0 1083.90   22.39
  -1   3   0 1027.38   21.41
   1  -3   0  863.19   17.96
   1  -3   0  945.91   20.17
  -1  -3   0  879.65   18.92
   1  -3   1  100.38    5.08
  -1  -3  -1   94.66    4.60
   1   3   1   91.83    4.42
  -1   3  -1   68.14    4.08
   1   3   1   67.62    3.74
   1  -3   1   94.21    5.06
  -1  -3  -1  112.89    6.10
  -1  -3  -2  461.52   26.75
   1  -3   2  518.99   11.47
   1   3   2  478.30   10.11
  -1   3  -2  472.74   10.69
   1   3   2  437.25   19.78
   1  -3   2  508.42   11.42
  -1  -3  -2  519.50   11.88
   1   3   3  104.06    4.87
  -1   3  -3   72.91    4.28
   1  -3   4 1999.21   23.22
  -1   3  -4 2082.50   24.61
   1   3   4 2034.77   22.85
  -1  -3  -4 1970.28   23.31
   1  -3   4 1823.76   21.00
  -1  -3  -5   46.79    2.33
   1  -3   5   75.46    4.36
  -1   3  -5   99.22    7.72
   1   3   5   76.85    3.93
  -1  -3  -5   60.41    4.14
   1  -3   5   69.50    3.84
  -1   3  -5   90.98    4.60
  -1  -3  -6  110.13    5.06
   1  -3   6  138.12    7.15
  -1   3  -6  102.63    7.47
   1   3   6   75.12    3.85
  -1  -3  -6  117.20    6.56
   1  -3   6  128.25    6.43
  -1   3  -6   96.65    4.80
  -1  -3  -7  239.45   13.93
   1   3   7  248.15   14.42
   1  -3   7  300.50   18.06
  -1   3  -7  266.07   21.36
   1   3   7  239.36   14.18
  -1  -3  -7  238.28   15.97
   1  -3   7  230.94   13.75
  -1   3  -7  178.70   10.62
  -1  -3  -8  419.36   10.29
   1   3   8  328.75    9.30
  -1   3  -8  396.00   11.38
   1   3   8  362.54    9.34
  -1  -3  -8  386.30   13.33
   1  -3   8  342.00   10.30
  -1   3  -8  326.09    9.56
  -1  -3  -9  175.55    5.67
   1   3   9  155.93    4.66
   1  -3   9  183.78    7.49
  -1   3  -9  164.08   14.12
   1   3   9  161.64    5.31
  -1  -3  -9  176.91    6.57
   1  -3   9  149.58    5.05
  -1   3  -9  158.09    5.06
  -1  -3 -10  194.13   15.07
   1  -3  10  206.37   16.71
  -1   3 -10  167.90   17.69
   1   3  10  155.81   12.31
  -1  -3 -10  188.03   15.41
  -1  -3 -11   88.43    7.11
  -1   3 -11   78.60   17.54
   1   3  11   92.73    7.63
  -1  -3 -11  106.10   12.31
   1  -3  11  117.06    9.42
   1  -3  12  596.19   23.92
  -1   3 -12  621.58   24.96
   1   3  12  635.43   24.43
  -1  -3 -12  663.11   26.17
   1  -3  12  462.62   17.91
   1  -3  13  520.31   27.03
  -1   3 -13  518.55   27.41
   1   3  13  497.26   24.92
  -1  -3 -13  477.96   24.67
   1  -3  14   19.05    3.34
  -1   3 -14   12.17    3.25
   1   3  14    2.70    1.27
  -1  -3 -14    9.85    2.72
   1  -3  15   55.69    5.01
  -1   3 -15   23.52    5.05
  -1  -3 -15   26.97    7.38
   1  -3  16  128.16   10.12
  -1   3 -16   84.49   11.99
  -1  -3 -16   97.87    7.72
   1  -3  17   41.65    5.46
  -1   3 -17    6.31    3.61
  -1  -3 -17   33.03    4.30
  -1  -4  16   63.39    7.18
   1   4 -16   32.42   10.48
   1  -4 -16   53.50    6.55
  -1  -4  15   17.67    3.37
   1   4 -15    5.62    1.93
   1  -4 -15   15.15    3.57
  -1  -4  14  133.02    9.33
   1   4 -14  118.65    9.54
   1  -4 -14  108.15    7.73
  -1  -4  14  101.17    6.67
  -1  -4  13  213.73   12.79
   1   4 -13  208.75   15.76
   1  -4 -13  172.85   10.59
  -1  -4  13  142.75    8.58
   1  -4 -12  124.80    7.36
  -1  -4  12  169.78    9.78
   1   4 -12  182.66   13.83
   1  -4 -12  157.44   10.78
  -1  -4  12  125.76    7.30
   1  -4 -11  360.83   18.67
  -1  -4  11  352.68   18.74
   1   4 -11  401.17   21.26
   1  -4 -11  432.67   23.32
  -1  -4  11  303.72   15.88
   1  -4 -10   92.37    4.59
  -1  -4  10   89.61    5.57
   1   4 -10  109.71    6.91
   1  -4 -10  102.80   10.41
  -1  -4  10   74.06    4.52
   1  -4  -9  193.06    8.02
  -1  -4   9  147.72    7.41
   1   4  -9  164.72    8.22
   1  -4  -9  185.49    8.75
  -1  -4   9  137.46    6.53
   1  -4  -8  457.69   13.37
  -1  -4   8  387.77   12.58
   1   4  -8  428.49   14.03
  -1   4   8  406.65   11.54
   1  -4  -8  421.45   19.78
  -1  -4   8  345.50   11.12
   1  -4  -7  102.18    8.22
  -1  -4   7  129.75   11.03
   1   4  -7   83.94    7.34
  -1   4   7   65.67    5.33
   1  -4  -7  114.86   12.39
  -1  -4   7  111.08    9.41
   1  -4  -6   70.95    3.02
  -1  -4   6   82.16    4.19
   1   4  -6   70.93    4.72
  -1   4   6   58.05    2.29
   1  -4  -6   62.62    8.14
  -1  -4   6   71.64    4.26
   1  -4  -5   84.43    3.73
  -1  -4   5   80.37    3.92
   1   4  -5   67.15    3.81
   1  -4  -5   79.98   12.64
  -1  -4   5   74.55    4.07
   1  -4  -4  395.43   10.05
  -1  -4   4  416.18   11.04
  -1   4   4  421.61   10.47
   1   4  -4  460.45   12.47
   1  -4  -4  400.87   14.18
  -1  -4   4  362.42   10.17
   1  -4  -3  477.87   11.99
  -1  -4   3  512.96   13.15
  -1   4   3  361.59    9.36
   1   4  -3  377.94   10.43
   1  -4  -3  472.52   12.83
  -1  -4   3  432.63   11.95
   1  -4  -2   50.81    3.89
  -1  -4   2   64.31    4.52
  -1   4   2   26.27    2.87
   1   4  -2   26.58    3.06
   1  -4  -2   44.57    6.05
  -1  -4   2   55.14    4.21
   1  -4  -1  284.00   17.06
  -1  -4   1  258.36   15.34
  -1   4   1  300.14   18.02
   1   4  -1  241.58   14.89
   1  -4  -1  264.97   16.06
  -1  -4   1  241.53   14.88
   1  -4   0  307.92   18.35
  -1  -4   0  303.85   17.85
  -1   4   0  431.04   11.36
   1   4   0  413.19   10.84
   1  -4   0  285.64   17.36
  -1  -4   0  297.69   18.05
   1  -4   1  667.14   16.47
  -1  -4  -1  651.33   15.72
  -1   4  -1  611.01   15.48
   1   4   1  544.00   13.73
   1  -4   1  659.68   16.75
  -1  -4  -1  684.16   17.74
  -1  -4  -2  324.60    9.51
   1  -4   2  323.30    9.95
  -1   4  -2  319.84   19.25
   1   4   2  290.00   17.27
  -1  -4  -2  361.74   10.23
   1  -4   2  311.77   18.76
  -1  -4  -3    9.27    1.95
   1  -4   3   20.54    2.39
  -1   4  -3   15.22    2.42
  -1  -4  -3   16.15    2.82
   1  -4   3   26.58    2.97
  -1  -4  -4   19.54    1.65
   1  -4   4   22.13    2.41
   1   4   4   38.76    2.58
  -1   4  -4   14.25    2.41
   1   4   4   29.07    2.85
   1  -4   4   20.59    2.51
  -1  -4  -4   23.60    3.10
  -1  -4  -5  168.92    5.14
   1  -4   5  209.32    7.35
   1   4   5  141.64    4.37
  -1   4  -5  189.17    7.53
   1   4   5  167.15    5.74
  -1  -4  -5  182.47    7.00
   1  -4   5  190.66    6.68
  -1  -4  -6  221.29    6.47
   1  -4   6  260.61    8.96
  -1   4  -6  214.56    9.25
   1   4   6  195.47    6.33
  -1  -4  -6  228.23   13.56
   1  -4   6  226.45    7.75
  -1  -4  -7  174.47   13.45
   1  -4   7  160.64   13.11
  -1   4  -7  102.29   10.92
   1   4   7  119.83    9.57
  -1  -4  -7  192.86   15.82
   1  -4   7  144.48   11.76
   1  -4   8   63.00    6.12
  -1   4  -8   49.37    8.04
   1   4   8   40.56    3.82
  -1  -4  -8   55.48    6.80
   1  -4   8   54.97    5.77
   1  -4   9  195.26    9.09
  -1   4  -9  188.91   10.68
   1   4   9  145.53    6.23
  -1  -4  -9  146.33    7.39
   1  -4   9  170.74    7.62
  -1   4 -10   85.72    9.86
  -1  -4 -10  174.11    9.77
   1  -4  10  156.03    7.40
   1  -4  11  142.32    8.91
  -1   4 -11  170.92   10.15
   1   4  11  164.93    8.75
  -1  -4 -11  144.72   15.43
   1  -4  11  117.54    6.71
   1  -4  12   59.73    5.34
  -1   4 -12   48.88   10.97
  -1  -4 -12   73.70   14.52
   1  -4  13   69.67    5.81
  -1   4 -13   57.91   16.21
  -1  -4 -13   40.38   13.20
   1  -4  14  276.55   17.55
  -1   4 -14  173.25   13.22
  -1  -4 -14  224.12   13.75
   1  -4  15   33.17    4.52
  -1   4 -15   37.26    8.14
  -1  -4 -15   18.77    7.47
   1  -4  16   25.02    4.38
  -1   4 -16   15.12    3.96
  -1  -4 -16   18.57    7.34
  -1  -5  13   15.39    3.58
   1   5 -13    5.28    1.71
   1  -5 -13   10.16    2.82
  -1  -5  12   12.97    2.84
   1   5 -12   21.98    8.58
   1  -5 -12   20.63    6.81
  -1  -5  12   15.00    2.70
  -1  -5  11   61.25    5.41
   1   5 -11   98.04    8.38
   1  -5 -11   71.78   12.44
  -1  -5  11   49.91    4.13
  -1  -5  10  342.86   19.55
   1   5 -10  395.62   22.26
   1  -5 -10  425.12   23.78
  -1  -5  10  277.48   15.76
  -1  -5   9  196.64   12.08
   1   5  -9  183.77   11.69
   1  -5  -9  183.91   13.09
  -1  -5   9  133.90    8.42
   1  -5  -8   15.95    1.84
  -1  -5   8   19.91    3.70
   1   5  -8   17.22    3.42
   1  -5  -8    3.84    2.19
  -1  -5   8   14.13    2.84
   1  -5  -7   66.62    4.04
  -1  -5   7   55.45    4.92
   1   5  -7   69.17    5.40
   1  -5  -7   46.65   10.56
  -1  -5   7   30.99    3.34
   1  -5  -6  202.92    9.15
  -1  -5   6  192.77    9.35
   1   5  -6  136.70    7.19
   1  -5  -6  174.20   10.43
  -1  -5   6  155.06    7.95
   1  -5  -5  183.34    8.33
  -1  -5   5  203.97    9.50
  -1   5   5  152.25    7.01
   1   5  -5  170.23    8.72
   1  -5  -5  187.01    9.61
  -1  -5   5  175.37    8.75
   1  -5  -4   71.64    3.87
  -1  -5   4   98.17    5.19
  -1   5   4   47.64    3.12
   1   5  -4   74.82    4.74
   1  -5  -4   68.43   11.44
  -1  -5   4   84.55    5.05
   1  -5  -3   38.15    3.06
  -1  -5   3   24.32    2.47
  -1   5   3   15.87    1.94
   1   5  -3    9.05    2.13
   1  -5  -3   25.85    5.24
  -1  -5   3   29.18    3.21
   1  -5  -2  249.37   10.33
  -1  -5   2  236.32    9.79
  -1   5   2  217.42    9.27
   1   5  -2  237.52   10.16
   1  -5  -2  234.69   10.41
  -1  -5   2  221.25   10.15
   1  -5  -1 1097.60   42.00
  -1  -5   1  925.88   35.40
  -1   5   1 1002.33   38.46
   1   5  -1  969.37   37.34
   1  -5  -1  954.71   37.27
  -1  -5   1  940.00   36.55
   1  -5   0  996.08   38.15
  -1  -5   0 1001.42   38.09
  -1   5   0  828.48   32.09
   1   5   0  816.60   31.61
   1  -5   0  943.16   36.76
  -1  -5   0 1022.92   39.62
   1  -5   1  302.74   12.41
  -1  -5  -1  380.70   14.91
  -1   5  -1  305.30   13.14
   1   5   1  319.78   13.07
   1  -5   1  276.76   11.87
  -1  -5  -1  389.73   16.48
  -1  -5  -2   21.60    1.98
   1  -5   2   26.72    2.50
  -1   5  -2   26.73    3.09
   1   5   2   12.79    1.80
   1  -5   2   25.97    3.55
  -1  -5  -2   22.18    3.39
  -1  -5  -3  340.74   13.42
   1  -5   3  322.59   13.11
  -1   5  -3  419.73   17.67
   1   5   3  326.78   13.25
   1  -5   3  313.93   13.32
  -1  -5  -3  330.54   14.10
  -1  -5  -4  194.41    8.40
   1  -5   4  162.30    7.69
  -1   5  -4  190.75    9.75
   1   5   4  157.66    7.43
  -1  -5  -4  156.87    8.00
   1  -5   4  151.87    7.55
  -1  -5  -5  113.68    5.18
   1  -5   5   91.60    5.03
  -1   5  -5   95.06    7.85
   1   5   5  103.55    5.23
  -1  -5  -5  124.83    8.72
   1  -5   5   87.56    5.46
   1  -5   6   33.91    3.13
  -1   5  -6   48.16    9.97
   1   5   6   43.95    3.34
  -1  -5  -6   44.85    6.67
   1  -5   6   40.22    4.09
   1  -5   7   19.93    3.33
  -1   5  -7   19.98    4.44
   1   5   7   19.23    2.17
  -1  -5  -7    9.71    2.61
   1  -5   7   20.63    3.09
   1  -5   8  112.70    6.93
  -1   5  -8   95.35   15.85
   1   5   8  110.75    6.12
  -1  -5  -8  117.60   10.38
   1  -5   8  109.82    6.43
   1  -5   9   67.68    5.50
  -1   5  -9   65.84   13.26
  -1  -5  -9   74.99   15.12
   1  -5   9   72.24    5.44
  -1   5 -10   10.07    3.30
  -1  -5 -10   11.68    2.54
   1  -5  10    9.06    2.96
   1  -5  11   45.53    4.54
  -1   5 -11   36.68   11.13
  -1  -5 -11   41.44   10.92
   1  -5  12   97.18    7.72
  -1   5 -12   46.40   17.19
  -1  -5 -12   84.72    7.63
   1  -5  13   71.06    8.71
  -1   5 -13   31.52   10.76
  -1  -5 -13   59.60   19.19
  -1  -6   9   18.90    3.81
   1   6  -9   43.63    6.79
   1  -6  -9   16.50    7.75
  -1  -6   9   20.08    3.88
  -1  -6   8  125.99    8.94
   1   6  -8  147.20   10.36
   1  -6  -8  133.77   17.74
  -1  -6   8   98.46    7.53
  -1  -6   7   55.09    4.50
   1   6  -7   43.57    4.61
   1  -6  -7   59.40   13.04
  -1  -6   7   74.99    6.42
  -1  -6   6   29.27    3.47
   1   6  -6   21.02    3.52
   1  -6  -6   27.54    6.24
  -1  -6   6   27.79    3.84
   1  -6  -5    9.78    1.73
  -1  -6   5   12.01    2.01
   1   6  -5    5.50    2.63
   1  -6  -5    4.48    1.61
  -1  -6   5   10.87    3.31
   1  -6  -4   71.79    4.55
  -1  -6   4   71.16    4.96
   1   6  -4   80.95    6.08
   1  -6  -4   69.24   12.42
  -1  -6   4   67.70    5.81
   1  -6  -3   36.27    3.39
  -1  -6   3   36.31    3.05
   1   6  -3   47.28    4.29
   1  -6  -3   32.21    7.56
  -1  -6   3   31.49    4.11
   1  -6  -2   12.82    2.30
  -1  -6   2   14.54    2.11
  -1   6   2   11.46    2.20
   1   6  -2    9.48    2.54
   1  -6  -2    7.40    3.07
  -1  -6   2   14.81    3.48
   1  -6  -1   17.57    2.40
  -1  -6   1   25.11    2.45
  -1   6   1   19.75    2.93
   1   6  -1   31.12    3.17
   1  -6  -1   20.87    5.90
  -1  -6   1   23.17    3.17
   1  -6   0  159.38    9.44
  -1  -6   0  135.01    8.00
  -1   6   0  137.96    8.42
   1   6   0  103.08    6.71
   1  -6   0  148.80   13.10
  -1  -6   0  132.43    9.04
   1  -6   1   31.56    3.33
  -1  -6  -1   38.08    3.11
  -1   6  -1   25.71    3.20
   1   6   1   23.73    2.79
   1  -6   1   27.67    5.61
  -1  -6  -1   42.62    4.52
  -1   6  -2   24.41    3.46
   1   6   2   46.69    4.26
   1  -6   2   25.80    4.84
  -1  -6  -2   50.31    4.89
   1  -6   3   43.02    3.88
  -1   6  -3   36.88    4.23
   1   6   3   34.42    3.28
  -1  -6  -3   52.32    5.35
   1  -6   3   27.47    5.61
   1  -6   4    6.12    1.76
  -1   6  -4    3.54    1.45
   1   6   4    4.14    2.49
  -1  -6  -4    4.83    1.51
   1  -6   4    6.16    2.32
   1  -6   5   21.24    2.50
  -1   6  -5   36.86    7.15
   1   6   5   31.34    3.22
  -1  -6  -5   26.48    6.88
   1  -6   5   21.68    3.28
   1  -6   6   62.60    5.16
  -1   6  -6   89.03   11.30
  -1  -6  -6   57.86   12.79
   1  -6   6   64.46    5.58
   1  -6   7   43.91    3.95
  -1   6  -7   27.32    6.58
  -1  -6  -7   36.51   10.28
   1  -6   7   34.69    3.95
   1  -6   8   17.36    3.49
  -1   6  -8   13.50    5.36
  -1  -6  -8   26.31    7.36
   1  -6   8   17.25    3.50
   1  -6   9   10.56    2.78
  -1   6  -9    8.10    3.85
  -1  -6  -9   17.81    3.65
  -2   0  19  280.31   28.39
  -2   0  19  236.62   23.79
  -2   0  18   28.75    3.37
  -2   0  18   34.53    3.15
   2   0 -17    4.93    2.28
  -2   0  17    4.58    2.66
   2   0 -16  467.25   23.51
   2   0 -16  371.48   18.87
  -2   0  16  431.96   21.45
   2   0 -15 1313.36   54.56
   2   0 -15 1141.39   47.26
  -2   0  15 1319.21   54.51
   2   0 -14   20.67    2.62
   2   0 -13   50.76    7.72
   2   0 -13   44.43    7.28
  -2   0  13   48.85    5.13
   2   0 -12 1025.82   26.31
   2   0 -12  962.01   24.54
  -2   0  12 1181.15   28.78
   2   0 -11 2331.27   55.42
   2   0 -11 2298.05   53.97
  -2   0  11 2638.44   62.04
   2   0 -10 1812.24   22.07
   2   0 -10 1764.39   20.55
  -2   0  10 1887.28   22.52
   2   0  -9  238.76   11.33
   2   0  -9  244.11   11.28
  -2   0   9  214.72    9.85
  -2   0   9  269.58   12.68
   2   0  -8  470.67   12.03
   2   0  -8  458.53   26.72
  -2   0   8  434.87   19.49
  -2   0   8  459.41   27.01
   2   0  -7 2265.17   25.41
   2   0  -7 2378.38   26.17
  -2   0   7 2383.57   26.08
  -2   0   7 2392.70   27.28
   2   0  -6 5533.29   59.54
  -2   0   6 5566.93   59.39
   2   0  -6 5271.71   56.81
   2   0  -5 2306.62   25.58
  -2   0   5 2325.97   25.55
   2   0  -5 2303.33   25.00
  -2   0   5 2416.48   26.16
  -2   0   5 2357.29   26.39
   2   0  -5 2154.75   23.93
  -2   0   4   71.76    3.49
  -2   0   4   82.33    3.87
   2   0  -4  101.11    4.88
   2   0  -3 4269.56   45.70
  -2   0   2 3087.87   33.18
  -2   0   2 3136.52   33.54
   2   0  -1  259.82   11.67
  -2   0   1  251.68   11.28
   2   0  -1  263.47   11.79
  -2   0   1  237.28   10.60
  -2   0  -4  748.12   15.36
   2   0   4  625.35   13.34
  -2   0  -4  690.34   14.00
   2   0   4  739.24   15.01
   2   0   5  216.04    9.81
  -2   0  -5  183.55    8.34
   2   0   5  169.06    7.94
  -2   0  -5  180.74    8.24
   2   0   5  196.76    8.81
  -2   0  -6 1744.05   19.39
  -2   0  -6 1837.24   19.83
  -2   0  -7 2713.34   29.78
  -2   0  -7 2604.07   29.95
  -2   0  -7 2997.85   32.27
   2   0   8  419.04   18.87
   2   0   8  491.32   10.79
  -2   0  -8  407.38   18.86
  -2   0  -8  432.44   19.23
   2   0   8  368.36   16.41
   2   0   9  298.87   13.75
  -2   0  -9  233.42   11.62
   2   0   9  260.65   11.74
   2   0   9  273.57   12.27
   2   0  10 2127.84   24.35
   2   0  10 2003.73   21.96
   2   0  11 2655.65   62.09
  -2   0 -11 2221.06   52.92
   2   0  11 2395.45   55.60
   2   0  11 2628.75   60.90
   2   0  12  940.84   26.97
   2   0  12  875.44   24.61
   2   0  13   14.65    2.28
   2   0  13   13.14    1.48
   2   0  14  943.41   36.15
   2   0  14  895.17   33.88
   2   0  15  513.29   21.75
   2   0  16  614.60   30.06
   2   0  17  240.76   13.78
   2   0  18   76.25    5.90
   2   0  19  274.90   27.69
  -2  -1  19  142.30   14.88
   2   1 -19   96.59   13.48
  -2   1  19  150.74   15.58
   2  -1 -18  266.54   18.41
  -2  -1  18  282.35   19.52
   2   1 -18  258.08   17.72
  -2  -1  18  216.07   14.69
  -2   1  18  313.06   21.01
   2  -1 -17  313.41   17.65
  -2  -1  17  320.26   18.14
   2   1 -17  228.72   15.59
  -2  -1  17  297.87   16.58
  -2   1  17  282.01   15.68
   2  -1 -16   21.95    4.89
  -2  -1  16   30.20    3.62
   2   1 -16   33.49    5.23
  -2  -1  16   27.00    2.80
  -2   1  16   29.62    2.80
   2  -1 -15   82.86    7.22
  -2  -1  15   64.94    4.15
   2  -1 -15   68.74    4.00
   2   1 -15   74.66   13.20
  -2  -1  15   65.98    4.27
  -2   1  15   94.14    5.11
   2  -1 -14  988.52   38.73
  -2  -1  14  896.28   34.89
   2  -1 -14  947.89   36.18
   2   1 -14  854.84   33.32
  -2  -1  14  977.22   37.67
  -2   1  14  862.19   33.47
   2   1 -13  859.12   25.28
   2  -1 -13  794.23   25.79
   2  -1 -13  657.80   19.06
   2   1 -13  847.83   24.94
  -2  -1  13  756.33   22.35
  -2   1  13  866.26   25.23
   2   1 -12  527.46   16.24
   2  -1 -12  426.47   18.41
   2   1 -12  536.45   16.75
  -2   1  12  472.51   13.56
  -2  -1  12  438.57   13.89
  -2   1  12  526.60   16.06
   2   1 -11  295.47   17.92
   2  -1 -11  309.51   20.29
   2  -1 -11  278.09   16.47
   2   1 -11  316.36   19.27
  -2   1  11  291.59   17.06
  -2  -1  11  254.44   15.38
  -2   1  11  331.03   10.48
   2   1 -10  942.16   25.56
   2  -1 -10 1268.73   30.89
   2  -1 -10 1097.96   25.92
   2   1 -10 1058.28   25.75
  -2  -1  10 1056.29   25.58
  -2   1  10  985.47   24.01
   2   1  -9 2535.58   31.03
   2  -1  -9 2415.47   26.75
   2   1  -9 2542.47   28.92
  -2   1   9 2623.66   28.37
  -2   1   9 2452.84   28.08
   2   1  -8 1305.95   27.49
   2  -1  -8 1345.50   28.93
   2  -1  -8 1233.71   25.28
   2   1  -8 1321.36   27.49
  -2   1   8 1321.70   26.75
  -2  -1   8 1252.44   26.36
  -2   1   8 1267.62   26.64
   2   1  -7 1732.43   21.03
   2  -1  -7 1658.82   19.26
   2  -1  -7 1496.64   30.32
  -2   1   7 1663.58   17.94
  -2  -1   7 1537.75   88.94
  -2   1   7 1606.85   18.84
   2   1  -6  977.44   20.91
   2  -1  -6  945.59   19.66
   2  -1  -6  931.57   18.91
   2   1  -6  897.66   18.72
  -2  -1   6  804.79   16.81
  -2   1   6  989.23   19.94
  -2  -1   6  864.64   18.55
  -2   1   6  938.32   19.77
   2  -1  -5 3024.03   33.00
  -2   1   5 2752.96   29.98
   2   1  -5 2914.32   31.86
  -2   1   5 2699.43   28.56
  -2  -1   5 3109.08   34.48
   2   1  -5 2877.49   31.58
  -2   1   5 2989.82   33.10
  -2   1   4 2445.74   26.68
  -2  -1   4 2461.04   27.53
   2   1  -3  716.63   15.06
  -2  -1   3  633.34   13.19
   2  -1  -3  631.29   13.19
   2  -1  -3  640.23   13.01
   2   1  -3  574.14   12.09
  -2  -1   3  653.96   13.66
   2  -1  -3  687.62   13.89
   2  -1  -3  711.40   15.09
  -2   1   3  737.68   15.74
   2   1  -3  598.50   12.59
   2   1  -2 1708.65   18.95
  -2  -1   2 1709.87   18.75
   2  -1  -2 1822.90   20.08
   2  -1  -2 1672.68   18.15
   2   1  -2 1597.57   17.83
   2  -1  -2 1711.81   18.33
   2  -1  -2 1646.73   18.55
  -2   1   2 1646.60   18.68
   2  -1  -1 9711.79  559.19
  -2   1   1 8128.41  468.04
   2  -1  -1 9459.69  544.72
  -2  -1   1 9999.00  575.78
   2   1   1 5437.81   58.11
  -2  -1  -1 5512.44   58.77
   2   1   1 5309.20   56.81
   2   1   2  134.10    5.99
  -2  -1  -2  115.96    5.18
   2  -1   2  104.41    4.94
  -2   1  -2  121.14    5.64
  -2   1  -2  118.62    5.82
   2  -1   2  124.76    6.10
   2   1   2  118.53    5.50
  -2  -1  -2  109.03    5.07
   2  -1   2  141.12    6.42
  -2   1  -2  117.61    5.51
  -2  -1  -2  107.95    5.19
   2   1   2  130.09    6.05
   2   1   3 4398.82   46.42
  -2   1  -3 4347.56   46.73
   2  -1   3 4498.98   48.77
  -2   1  -3 4193.46   44.42
  -2   1  -4 7305.84  420.75
  -2   1  -4 6488.55   70.78
   2  -1   4 6420.03   69.18
   2   1   4 7158.82  412.28
   2   1   4 7022.07  404.39
  -2   1  -4 6975.65   73.46
   2  -1   5 3258.68   35.70
  -2   1  -5 2874.62   31.44
   2   1   5 3201.22   34.89
  -2  -1  -5 3141.89   34.13
   2   1   5 2955.41   32.09
   2   1   6  205.62    9.40
   2  -1   6  146.25    7.23
   2   1   6  223.60   10.01
   2   1   6  168.14    7.96
  -2   1  -6  173.64   12.93
   2   1   6  228.09   10.60
   2   1   6  200.36    9.17
   2   1   7   24.58    1.93
   2   1   8 2822.59   30.60
   2   1   8 2989.08   32.34
   2  -1   8 3116.30   34.96
   2   1   9 1966.72   21.67
  -2   1  -9 2029.75   26.83
   2  -1   9 1977.58   20.98
   2  -1  10  946.34   23.18
   2   1  10  960.67   22.79
  -2   1 -10  897.24   24.03
  -2  -1 -10  906.70   21.78
   2  -1  10  915.33   21.23
   2  -1  11  965.48   23.72
   2   1  11  905.32   21.68
  -2   1 -11  817.61   22.51
  -2  -1 -11  910.25   21.86
   2  -1  11  947.93   22.07
   2  -1  11  757.96   17.73
   2  -1  12 1094.95   31.49
   2   1  12 1050.46   29.65
  -2   1 -12  894.62   27.36
  -2  -1 -12 1012.83   28.53
   2  -1  12  891.09   24.78
   2  -1  13 1679.02   47.60
   2   1  13 1678.97   46.86
  -2   1 -13 1545.14   44.62
  -2  -1 -13 1458.52   40.73
   2  -1  14 1083.01   41.67
   2   1  14  983.98   37.60
  -2   1 -14  858.15   34.49
   2   1  14  786.43   30.00
   2  -1  15   34.91    3.05
   2   1  15   71.69    4.42
  -2   1 -15   86.06    7.75
   2   1  15   53.44    3.29
   2  -1  16  181.19    9.88
   2   1  16  178.47    9.29
  -2   1 -16  130.16    8.36
   2  -1  17  412.16   22.58
  -2   1 -17  353.85   20.15
   2  -1  18  322.04   21.66
  -2   1 -18  325.72   22.39
   2   1  18  378.67   25.25
   2  -1  19   53.36    6.25
  -2   1 -19   49.09    6.40
   2   1  19   52.97    5.79
   2  -2 -18  121.31   13.93
  -2  -2  18  139.21   14.63
   2   2 -18  140.25   14.72
  -2   2  18  140.99   14.60
  -2  -2  17   26.71    3.74
   2   2 -17   11.83    4.79
  -2  -2  17   21.18    2.98
  -2   2  17   18.43    2.70
   2  -2 -16  225.15   14.02
  -2  -2  16  207.08   12.43
   2   2 -16  211.21   13.14
  -2  -2  16  217.54   12.84
  -2   2  16  226.62   12.98
   2  -2 -15  240.56   14.46
  -2  -2  15  223.56   12.30
   2   2 -15  219.76   12.13
  -2  -2  15  223.48   11.97
  -2   2  15  232.29   12.42
   2  -2 -14   43.16    7.65
  -2  -2  14   65.64    4.80
   2   2 -14   35.91    5.00
  -2  -2  14   55.40    3.98
  -2   2  14   39.75    3.33
   2  -2 -13  371.89   16.61
  -2  -2  13  347.85   14.86
   2   2 -13  389.25   16.12
  -2  -2  13  311.96   13.01
  -2   2  13  331.98   13.64
   2  -2 -12 1206.29   34.08
  -2  -2  12 1202.18   34.89
   2   2 -12 1105.84   32.03
  -2  -2  12  902.74   26.36
  -2   2  12 1012.17   29.32
   2   2 -11  118.03    5.44
  -2   2  11  126.20    3.59
  -2   2  11  130.96    3.72
   2  -2 -10  949.73   23.98
   2   2 -10  767.65   19.29
   2  -2 -10  893.85   22.18
  -2  -2  10  824.53   20.67
   2  -2  -9   34.09    4.99
  -2  -2   9   27.08    2.80
   2   2  -9   26.44    2.71
   2  -2  -9   27.10    3.29
  -2  -2   9   19.89    2.51
   2  -2  -8  898.18   19.01
  -2  -2   8  859.55   19.15
   2   2  -8  704.47   15.51
   2  -2  -8  807.90   17.75
  -2  -2   8  814.62   17.99
   2  -2  -7 1260.52   26.13
  -2  -2   7 1237.43   26.47
   2   2  -7 1126.06   23.81
   2  -2  -7 1191.11   25.39
  -2  -2   7 1229.55   26.24
   2  -2  -6 1348.13   27.79
  -2  -2   6 1293.32   27.47
   2   2  -6 1127.08   23.72
   2  -2  -6 1290.11   27.14
  -2  -2   6 1373.85   28.95
  -2  -2   5  154.35    7.87
   2   2  -5  137.20    6.75
   2  -2  -5  176.16    9.24
  -2  -2   5  188.89    9.40
   2  -2  -4 1939.26   21.67
  -2  -2   4 1542.06   89.19
   2   2  -4 2009.57   22.85
   2  -2  -4 2027.43   24.00
  -2  -2   4 1898.11   22.07
  -2  -2   3 1033.26   21.44
   2  -2  -3 1109.25   22.96
   2  -2  -3 1090.00   21.99
   2   2  -3  867.32   18.30
   2  -2  -3 1108.84   23.68
  -2  -2   2 2214.01   24.52
   2  -2  -2 2191.31   24.29
  -2   2   2 2204.31   24.29
  -2   2   2 2122.72   23.12
   2  -2  -2 2089.94   22.57
  -2   2   2 2184.30   24.57
  -2  -2   2 2344.52   26.49
  -2  -2   1  417.60   18.64
   2  -2  -1  447.76   20.10
  -2   2   1  511.54   10.87
  -2  -2   1  510.20   10.99
  -2   2   1  468.57   10.01
   2  -2  -1  414.70   18.49
   2  -2  -1  521.00   11.65
  -2  -2   1  479.60   10.69
  -2  -2   0  142.12    6.48
   2  -2   0  180.22    8.42
  -2   2   0  155.03    7.18
  -2  -2   0  162.93    7.47
  -2   2   0  144.53    6.88
   2  -2   0  184.21    8.49
   2   2   0  147.79    7.11
  -2  -2   0  146.52    6.87
  -2   2   0  147.89    6.92
  -2  -2   0  138.93    6.74
   2   2   0  133.78    6.45
  -2  -2  -1 2299.17   24.74
   2  -2   1 2347.64   25.98
  -2  -2  -1 2426.16   26.06
   2  -2   1 2363.64   26.18
   2   2   1 2387.89   26.60
  -2  -2  -1 2362.19   26.08
   2  -2   1 2373.19   26.42
  -2  -2  -1 2362.15   26.42
   2  -2   2 3390.00   37.23
  -2  -2  -2 3273.47   35.57
   2  -2   2 3426.63   37.35
  -2   2  -2 3083.04   33.42
  -2  -2  -2 3466.60   38.07
  -2   2  -3 4315.42   48.49
  -2   2  -3 4019.94   43.04
   2  -2   4  135.95    6.64
  -2   2  -4  109.87    9.06
  -2  -2  -4  109.84    5.21
  -2  -2  -4  131.83    6.68
   2  -2   5  535.11   11.91
  -2   2  -5  493.10   11.69
   2   2   5  516.16   11.21
   2  -2   5  483.24   10.28
  -2  -2  -5  586.22   12.88
  -2   2  -5  513.80   10.72
  -2   2  -6 1765.83   22.76
   2   2   6 1674.26   18.99
   2  -2   6 1803.06   19.76
  -2  -2  -6 1957.61   22.54
  -2   2  -6 1718.37   18.70
   2  -2   7 2108.02   24.77
  -2   2  -7 2004.25   26.04
   2   2   7 1910.61   21.54
  -2  -2  -7 1904.33   22.01
   2  -2   7 1867.05   20.32
  -2   2  -7 1958.03   21.09
   2  -2   8  523.32   12.39
   2   2   8  510.98   10.44
  -2   2  -8  428.40   22.64
   2   2   8  445.20   20.12
  -2  -2  -8  433.76   21.42
   2  -2   8  443.98   19.73
  -2   2  -8  431.19   19.11
   2   2   9   87.45    5.18
   2  -2   9   96.17    6.49
  -2   2  -9   74.19    9.94
   2   2   9   82.43    5.35
  -2  -2  -9  117.33    8.68
  -2   2  -9   57.60    3.45
   2   2  10  998.56   23.27
  -2   2 -10 1014.66   29.44
   2   2  10 1004.73   24.14
   2  -2  10 1338.93   30.99
  -2  -2 -10 1381.31   33.82
   2  -2  10 1281.82   29.71
   2  -2  11 2517.64   70.79
   2   2  11 2639.35   72.85
  -2   2 -11 2308.64   65.38
   2   2  11 2545.68   70.86
  -2  -2 -11 2613.90   72.83
   2  -2  11 2187.38   60.23
   2  -2  12  499.40   15.96
   2   2  12  430.37   12.39
  -2   2 -12  371.86   12.79
   2   2  12  344.64   10.62
  -2  -2 -12  466.51   15.01
   2  -2  13   96.08    6.49
   2   2  13   77.26    3.59
  -2   2 -13   49.57    9.27
   2   2  13   55.17    3.24
  -2  -2 -13   95.37    5.04
   2  -2  14  306.06   13.96
  -2   2 -14  210.92   10.74
   2   2  14  198.61    9.05
  -2  -2 -14  264.34   11.59
   2  -2  15  507.33   25.52
  -2   2 -15  357.01   18.95
   2   2  15  344.10   17.21
  -2  -2 -15  393.62   19.42
   2  -2  16  364.77   20.43
  -2   2 -16  280.86   17.13
   2   2  16  261.50   14.49
  -2  -2 -16  308.65   16.93
   2  -2  17  138.08    9.97
  -2   2 -17  160.84   11.91
   2   2  17  135.10    9.46
  -2   2 -18  151.07   16.13
  -2  -3  17   73.65    8.49
   2   3 -17   35.65    8.99
  -2   3  17   41.95    5.26
   2  -3 -16    4.74    2.03
  -2  -3  16    8.76    2.62
   2   3 -16    3.16    2.88
  -2  -3  16    4.75    1.68
  -2   3  16    2.62    1.79
   2  -3 -15   55.46    6.21
  -2  -3  15   61.66    5.56
   2   3 -15   50.96   13.23
  -2  -3  15   49.38    4.33
  -2   3  15   52.90    4.53
   2  -3 -14   69.97    7.20
  -2  -3  14   81.78    5.80
   2   3 -14   75.09   11.71
  -2  -3  14   81.01    5.46
  -2   3  14   72.11    4.99
   2  -3 -13  315.89   16.63
  -2  -3  13  331.55   17.65
   2   3 -13  303.07   16.53
   2  -3 -13  303.28   16.07
  -2  -3  13  252.04   13.59
   2  -3 -12  247.21   10.86
  -2  -3  12  233.10   11.32
   2   3 -12  204.45   10.31
   2  -3 -12  251.70   11.91
  -2  -3  12  161.66    8.03
   2  -3 -11  486.16   19.18
  -2  -3  11  513.42   20.87
   2   3 -11  558.31   22.21
   2  -3 -11  472.72   19.03
  -2  -3  11  384.92   15.97
   2  -3 -10  207.15   16.24
  -2  -3  10  293.12   12.81
   2  -3 -10  240.43   19.24
  -2  -3  10  294.55   12.94
   2  -3  -9  502.74   14.79
  -2  -3   9  505.83   15.77
   2   3  -9  396.06   12.52
   2  -3  -9  478.43   19.38
  -2  -3   9  510.59   16.03
   2  -3  -8  573.88   14.24
  -2  -3   8  487.47   13.43
   2   3  -8  438.17   11.86
   2  -3  -8  591.26   15.88
  -2  -3   8  542.95   14.53
   2  -3  -7  144.37    8.90
  -2  -3   7   98.77    6.58
   2   3  -7  104.23    6.90
   2  -3  -7   94.97   10.08
  -2  -3   7  127.26    8.42
   2  -3  -6  355.09   10.69
  -2  -3   6  299.76   17.98
   2   3  -6  388.79   10.73
   2  -3  -6  373.67   10.76
  -2  -3   6  369.27   10.26
   2  -3  -5 1146.32   23.99
  -2   3   5 1019.63   20.66
   2   3  -5 1114.18   23.79
   2  -3  -5 1029.77   20.74
   2  -3  -5 1240.57   26.90
  -2  -3   5 1063.37   23.04
   2  -3  -4  599.42   13.10
  -2  -3   4  633.08   14.19
  -2   3   4  440.26   19.66
   2  -3  -4  530.75   10.92
  -2  -3   4  633.81   14.64
   2  -3  -3  935.90   19.65
  -2  -3   3  892.96   18.97
  -2   3   3  906.44   19.00
   2   3  -3  986.40   21.28
   2  -3  -3  916.82   18.74
   2  -3  -3 1054.53   24.73
  -2  -3   3  855.26   18.63
  -2  -3   2   19.81    3.87
   2  -3  -2   33.28    2.47
  -2  -3   2   32.87    2.42
  -2   3   2   23.79    2.71
   2   3  -2   27.11    2.75
   2  -3  -2   27.58    1.73
   2  -3  -2   37.14    5.05
  -2  -3   2   26.12    2.81
  -2  -3   1  238.26   10.95
   2  -3  -1  261.23   12.15
  -2  -3   1  296.73   13.52
  -2   3   1  323.69   15.37
   2  -3  -1  233.57   10.65
   2   3  -1  329.52   15.36
   2  -3  -1  310.43   14.75
  -2  -3   1  276.70   13.04
  -2  -3   0 1840.64   20.73
  -2   3   0 1826.34   21.67
   2  -3   0 1784.11   20.07
   2  -3   0 2068.71   24.33
  -2  -3   0 1905.09   22.36
  -2  -3  -1  742.35   15.47
   2  -3   1  854.50   18.28
  -2  -3  -1  856.81   17.66
  -2   3  -1  914.84   19.90
   2   3   1  780.07   16.81
   2  -3   1  830.24   17.91
  -2  -3  -1  755.40   16.55
  -2  -3  -2  138.66    6.46
   2  -3   2  160.05    7.73
  -2  -3  -2  154.88    7.02
  -2   3  -2  185.56    9.32
   2   3   2  156.07    7.64
   2  -3   2  159.60    8.85
  -2  -3  -2  159.75    8.02
  -2  -3  -3   35.53    1.91
  -2  -3  -3   35.59    1.82
   2  -3   3   50.04    3.25
   2  -3   3   50.00    3.03
  -2  -3  -3   42.33    3.00
  -2   3  -3   54.69    2.86
  -2  -3  -4 1979.53   21.05
  -2  -3  -4 2020.12   21.45
   2  -3   4 2012.33   23.41
  -2   3  -4 2013.29   24.93
   2   3   4 1993.15   22.81
  -2   3  -4 1553.92   89.70
   2  -3   5 1015.70   21.78
  -2   3  -5  897.50   20.73
   2   3   5  799.94   17.09
   2  -3   5  822.81   17.36
  -2  -3  -5  942.20   20.64
  -2   3  -5  794.53   16.63
   2  -3   6  293.70   17.75
  -2   3  -6  233.23   15.74
   2   3   6  247.33   14.72
   2  -3   6  248.73   14.72
  -2  -3  -6  294.55   17.71
  -2   3  -6  230.41   13.59
   2  -3   7   14.39    2.34
  -2   3  -7   40.67    6.10
   2   3   7   40.43    2.93
  -2  -3  -7   22.56    2.43
   2  -3   7   14.27    1.66
  -2   3  -7   29.62    2.24
   2  -3   8  341.02   11.19
  -2   3  -8  289.38   18.07
   2   3   8  276.56   16.45
  -2  -3  -8  280.06   17.76
  -2   3  -8  271.59   15.90
   2  -3   9  647.78   19.62
  -2   3  -9  560.47   18.11
   2   3   9  583.11   16.99
  -2  -3  -9  552.22   16.99
   2  -3   9  538.55   15.43
   2  -3  10 1512.01   43.17
  -2   3 -10 1357.42   40.40
   2   3  10 1508.13   42.23
  -2  -3 -10 1435.64   40.73
   2  -3  10 1270.24   35.36
   2  -3  11  243.76   11.14
  -2   3 -11  172.90   10.93
   2   3  11  231.91    9.58
  -2  -3 -11  284.87   12.64
   2  -3  12   50.37    4.17
  -2   3 -12   30.64    5.25
   2   3  12   19.34    2.07
  -2  -3 -12   46.72    8.49
   2  -3  13  277.92   15.28
  -2   3 -13  204.35   19.13
   2   3  13  167.42    9.03
  -2  -3 -13  253.18   13.79
   2  -3  14  191.18   11.79
  -2   3 -14  163.62   10.48
   2   3  14  166.21    9.49
  -2  -3 -14  172.86   10.30
   2  -3  15  133.69    8.67
  -2   3 -15  110.75   10.71
   2   3  15  102.05    6.21
  -2  -3 -15  136.26    8.61
   2  -3  16   35.23    4.40
  -2   3 -16   29.58   10.88
  -2  -3 -16   15.43    8.69
   2  -3  17   74.64    8.77
  -2   3 -17   34.72   14.16
  -2  -3 -17   45.42    5.15
  -2  -4  15  161.04   16.75
   2   4 -15  168.48   17.63
   2  -4 -15  141.11   14.81
  -2  -4  15  132.81   13.84
   2  -4 -14   18.92    4.36
  -2  -4  14   23.80    4.05
   2   4 -14   38.66    5.16
   2  -4 -14   36.83    4.58
  -2  -4  14   19.68    3.03
   2  -4 -13    6.84    2.48
  -2  -4  13    9.03    2.82
   2   4 -13   18.55    4.19
   2  -4 -13    8.37    2.76
  -2  -4  13    5.20    1.78
   2  -4 -12   24.36    5.01
  -2  -4  12   34.67    3.63
   2   4 -12   37.46    4.11
   2  -4 -12   28.00    7.27
  -2  -4  12   29.48    3.61
   2  -4 -11  508.64   24.90
  -2  -4  11  537.57   26.92
   2   4 -11  410.99   21.12
   2  -4 -11  523.33   26.58
  -2  -4  11  409.03   20.75
   2  -4 -10  155.31    7.24
  -2  -4  10  120.59    6.79
   2   4 -10  179.22    8.78
   2  -4 -10  169.17   10.26
  -2  -4  10  101.63    5.67
   2  -4  -9   22.13    2.02
  -2  -4   9    2.32    2.19
   2   4  -9    7.82    2.04
   2  -4  -9   24.04    4.97
  -2  -4   9   10.43    2.57
   2  -4  -8   12.08    2.03
   2   4  -8   17.52    2.76
   2  -4  -8   13.74    2.45
  -2  -4   8   20.73    3.38
   2  -4  -7  435.69   13.17
  -2  -4   7  391.76   12.71
   2   4  -7  391.22   12.90
   2  -4  -7  439.49   14.21
  -2  -4   7  436.70   14.01
   2  -4  -6  350.90   10.75
  -2  -4   6  327.69   10.50
  -2   4   6  289.23   11.07
   2   4  -6  387.20   12.49
   2  -4  -6  354.16   16.83
  -2  -4   6  350.85   11.68
   2  -4  -5  212.99    7.04
  -2  -4   5  188.52    6.70
  -2   4   5  169.77    5.23
   2   4  -5  195.67    7.40
   2  -4  -5  205.26    7.54
  -2  -4   5  178.76    7.09
   2  -4  -4  245.15    7.73
  -2  -4   4  241.30    7.97
   2   4  -4  204.26    7.48
   2  -4  -4  263.48   16.46
  -2  -4   4  201.50    7.32
   2  -4  -3  100.80    6.61
  -2  -4   3  130.80    8.34
  -2   4   3  109.68   10.24
   2   4  -3  121.95    8.19
   2  -4  -3   97.03    5.94
   2  -4  -3  124.14   13.19
  -2  -4   3   92.92    6.39
   2  -4  -2  588.14   14.79
  -2  -4   2  630.50   15.67
  -2   4   2  544.37   13.82
   2   4  -2  561.02   14.59
   2  -4  -2  568.64   15.35
  -2  -4   2  517.87   13.78
   2  -4  -1  282.72   16.95
  -2  -4   1  331.49   10.15
  -2   4   1  242.24   16.58
   2   4  -1  272.76   16.56
   2  -4  -1  272.51   20.59
  -2  -4   1  276.77   16.88
   2  -4   0 1139.63   27.41
  -2  -4   0 1083.70   25.71
  -2   4   0 1060.27   26.10
   2   4   0 1072.54   26.13
   2  -4   0 1012.37   24.88
  -2  -4   0  992.11   24.64
  -2  -4  -1  176.36   10.50
   2  -4   1  232.92   14.23
  -2  -4  -1  224.27   13.22
  -2   4  -1  179.88   14.87
   2   4   1  181.37   11.16
   2  -4   1  202.42   18.85
  -2  -4  -1  223.55   14.00
  -2  -4  -2  330.34    9.86
  -2  -4  -2  357.10    8.79
   2  -4   2  402.83   10.86
  -2   4  -2  325.38   10.95
   2   4   2  324.32   10.11
   2  -4   2  367.63   14.73
  -2  -4  -2  410.01   11.84
  -2  -4  -3  304.55    8.82
   2  -4   3  319.72   10.18
  -2   4  -3  359.62   11.73
   2   4   3  375.54   11.48
   2  -4   3  289.98   11.67
  -2  -4  -3  313.64   10.54
  -2  -4  -4  205.71    5.97
   2  -4   4  187.97    6.72
  -2   4  -4  161.35    6.62
   2   4   4  202.42    6.84
   2  -4   4  163.14    6.31
  -2  -4  -4  224.66    8.42
  -2  -4  -5   10.64    1.56
  -2  -4  -5   13.57    0.66
  -2   4  -5    7.21    2.01
   2   4   5   10.20    1.71
   2  -4   5   23.19    3.68
  -2  -4  -5   21.75    3.43
   2  -4   6  200.03   16.07
  -2   4  -6  152.32   13.83
   2   4   6  147.75   11.88
  -2  -4  -6  199.20   16.16
   2  -4   6  196.45   15.75
   2  -4   7  731.47   21.90
  -2   4  -7  633.38   19.39
   2   4   7  649.71   18.92
   2  -4   7  704.90   20.53
  -2  -4  -7  716.39   21.42
   2  -4   8  210.70    9.50
  -2   4  -8  241.52   11.04
   2   4   8  234.89    9.90
  -2  -4  -8  194.23   12.91
   2  -4   8  213.42    9.06
   2  -4   9   28.27    3.77
  -2   4  -9   25.10    4.03
   2   4   9   29.06    2.37
  -2  -4  -9   24.61    4.31
   2  -4   9   22.18    2.21
   2  -4  10   65.45    5.03
  -2   4 -10  142.47    9.39
   2   4  10  149.13    8.23
  -2  -4 -10   86.03   14.17
   2  -4  11  666.45   33.05
  -2   4 -11  516.89   27.71
   2   4  11  556.55   26.99
  -2  -4 -11  687.98   34.22
   2  -4  12   74.14    5.81
  -2   4 -12   86.19    7.20
   2   4  12   77.80    5.16
  -2  -4 -12   60.40   13.10
   2  -4  13    6.54    3.11
  -2   4 -13   13.20    4.01
  -2  -4 -13   13.70    2.89
   2  -4  14   31.32    4.21
  -2   4 -14   35.56   11.46
  -2  -4 -14   26.21   10.52
   2  -4  15   28.91    4.77
  -2   4 -15    7.97    4.05
  -2  -4 -15   14.24    7.10
  -2  -5  13   30.38    4.38
   2   5 -13   20.68    4.46
   2  -5 -13   15.68    6.10
  -2  -5  13   18.79    3.55
  -2  -5  12   10.85    3.78
   2   5 -12    5.33    2.85
   2  -5 -12    3.64    1.71
  -2  -5  12    3.68    1.79
  -2  -5  11   46.86    5.52
   2   5 -11   41.64    4.96
   2  -5 -11   47.17   13.75
  -2  -5  11   32.98    3.82
   2  -5 -10   26.84    2.75
  -2  -5  10   20.93    3.98
   2   5 -10   16.77    2.75
   2  -5 -10   27.06   10.13
  -2  -5  10   16.49    3.38
   2  -5  -9   39.94    3.08
  -2  -5   9   44.71    4.16
   2   5  -9   21.24    3.65
   2  -5  -9   34.69    9.64
  -2  -5   9   26.61    3.33
   2  -5  -8   18.20    2.08
  -2  -5   8   24.88    3.56
   2   5  -8   11.24    3.92
   2  -5  -8   14.00    3.22
  -2  -5   8   25.99    3.01
   2  -5  -7  156.54    8.26
  -2  -5   7  120.20    7.10
   2   5  -7  139.25    8.27
   2  -5  -7  150.91   13.91
  -2  -5   7  110.05    6.85
   2  -5  -6  164.33    8.94
  -2  -5   6  127.99    7.64
   2   5  -6  138.45    8.27
   2  -5  -6  157.89   12.16
  -2  -5   6  119.85    7.50
   2  -5  -5  168.58    7.87
  -2  -5   5  177.27    8.58
   2   5  -5  150.29    7.62
   2  -5  -5  169.83   11.82
  -2  -5   5  136.17    7.13
   2  -5  -4  151.86    7.26
  -2  -5   4  190.39    8.87
  -2   5   4   95.60    6.43
   2   5  -4  155.89    8.17
   2  -5  -4  133.30   17.12
  -2  -5   4  140.11    7.30
   2  -5  -3   12.73    1.70
  -2  -5   3   16.57    2.35
  -2   5   3   20.40    3.76
   2   5  -3   20.10    2.98
   2  -5  -3   23.21    3.64
  -2  -5   3    7.73    2.31
   2  -5  -2   25.70    3.02
  -2  -5   2    5.98    1.48
  -2   5   2   13.74    2.89
   2   5  -2    6.31    1.96
   2  -5  -2   21.51    3.49
  -2  -5   2    3.09    3.30
   2  -5  -1   38.90    3.44
  -2  -5   1   24.22    2.19
  -2   5   1   12.24    2.56
   2   5  -1   10.78    1.70
   2  -5  -1   32.11    3.80
  -2  -5   1   28.41    3.84
   2  -5   0  360.32   14.83
  -2  -5   0  349.29   13.71
  -2   5   0  242.02   10.63
   2   5   0  298.91   12.53
   2  -5   0  313.41   13.38
  -2  -5   0  352.61   15.14
   2  -5   1  101.48    5.14
  -2  -5  -1   91.52    4.32
  -2   5  -1  141.21    6.77
   2   5   1  133.65    6.36
   2  -5   1   80.86   10.69
  -2  -5  -1   86.92    5.42
   2  -5   2   15.42    2.74
  -2  -5  -2    5.00    1.10
  -2   5  -2   22.50    2.87
   2   5   2    4.75    2.30
   2  -5   2   10.92    2.59
  -2  -5  -2    5.31    2.53
  -2  -5  -3   30.90    1.90
   2  -5   3   27.85    3.32
  -2   5  -3   31.98    6.51
   2   5   3   31.68    2.45
   2  -5   3   24.52    4.18
  -2  -5  -3   28.52    4.33
   2  -5   4  201.84    9.45
  -2   5  -4  196.24   13.13
   2   5   4  186.10    8.65
   2  -5   4  190.82    9.42
  -2  -5  -4  234.91   11.59
   2  -5   5   99.13    6.19
  -2   5  -5   88.90   16.05
   2   5   5  115.78    6.76
   2  -5   5   67.89   12.90
  -2  -5  -5  122.53    8.01
   2  -5   6   28.18    3.36
  -2   5  -6   22.95    3.86
   2   5   6   33.80    3.21
  -2  -5  -6   43.13    4.13
   2  -5   6   24.25    4.91
   2  -5   7   51.61    3.90
  -2   5  -7   42.42   11.18
   2   5   7   43.94    3.33
  -2  -5  -7   44.54    9.68
   2  -5   7   36.36    8.91
   2  -5   8  162.06   10.11
  -2   5  -8  141.19   12.43
   2   5   8  169.91    9.82
  -2  -5  -8  161.43   13.62
   2  -5   8  152.84    8.96
   2  -5   9  141.71    8.93
  -2   5  -9  122.70    8.07
   2   5   9  129.07    7.76
  -2  -5  -9  131.85   11.88
   2  -5  10   46.42    4.92
  -2   5 -10   47.69    7.06
  -2  -5 -10   52.07    8.35
   2  -5  11   36.77    4.78
  -2   5 -11   23.34    9.41
  -2  -5 -11   32.57    9.29
   2  -5  12   13.78    3.89
  -2   5 -12    9.41    3.10
  -2  -5 -12   14.40    3.21
   2  -5  13   63.95    7.72
  -2   5 -13   37.26   15.88
  -2  -5 -13   44.59   16.03
  -2  -6   9    5.57    2.38
   2   6  -9    6.07    2.83
   2  -6  -9    1.90    2.02
  -2  -6   9    6.42    2.73
  -2  -6   8   42.23    5.74
   2   6  -8   42.24    6.14
   2  -6  -8   39.82   13.50
  -2  -6   8   34.67    5.26
  -2  -6   7   12.58    2.90
   2   6  -7    6.10    2.88
   2  -6  -7    8.83    4.29
  -2  -6   7    7.50    2.32
   2  -6  -6   28.39    3.59
  -2  -6   6   25.60    3.26
   2   6  -6   18.46    3.24
   2  -6  -6   17.14    5.61
  -2  -6   6   22.68    3.89
   2  -6  -5    7.24    2.39
  -2  -6   5    5.69    2.56
   2   6  -5    5.80    2.72
   2  -6  -5    6.66    2.76
  -2  -6   5    2.19    2.42
  -2  -6   4    9.06    2.05
   2   6  -4   29.43    4.31
   2  -6  -4    7.44    2.82
  -2  -6   4    8.76    3.41
   2  -6  -3   54.30    4.09
  -2  -6   3   48.84    3.88
   2   6  -3   48.32    4.69
   2  -6  -3   62.91   11.79
  -2  -6   3   46.52    4.52
   2  -6  -2   49.32    4.04
  -2  -6   2   54.58    3.81
   2   6  -2   45.05    4.60
   2  -6  -2   43.98    8.47
  -2  -6   2   55.81    4.90
   2  -6  -1   97.40    6.21
  -2  -6   1   69.30    4.54
  -2   6   1   69.18    6.57
   2   6  -1   56.10    4.65
   2  -6  -1   73.76   13.14
  -2  -6   1  105.35    7.55
   2  -6   0  174.70   10.22
  -2   6   0  128.77   11.15
   2   6   0  138.23    8.61
   2  -6   0  161.82   14.52
  -2  -6   0  154.71    9.75
   2  -6   1   67.29    5.12
  -2   6  -1   64.60    9.32
   2   6   1   78.59    5.70
   2  -6   1   51.33   11.19
  -2  -6  -1   73.86    5.63
   2  -6   2   24.70    3.20
  -2   6  -2   21.69    8.22
   2   6   2   25.67    2.89
   2  -6   2   17.17    4.14
  -2  -6  -2   26.41    3.64
   2  -6   3   54.66    4.68
  -2   6  -3   35.50    8.71
   2   6   3   45.55    3.78
   2  -6   3   43.46   10.60
  -2  -6  -3   51.43    5.42
   2  -6   4   21.30    2.77
  -2   6  -4   10.76    2.12
   2   6   4   14.44    2.56
   2  -6   4   10.43    2.79
  -2  -6  -4   14.68    3.24
   2  -6   5   11.12    2.55
  -2   6  -5    9.25    3.11
   2   6   5   10.16    1.61
   2  -6   5    7.22    3.68
  -2  -6  -5   16.25    4.34
   2  -6   6   32.09    3.52
  -2   6  -6   27.57    7.15
   2   6   6   27.92    2.94
   2  -6   6   18.00    5.81
  -2  -6  -6   26.85    6.84
   2  -6   7   14.27    3.01
  -2   6  -7   23.35    7.86
  -2  -6  -7   22.91    7.76
   2  -6   8   75.01    8.63
  -2   6  -8   42.60   15.27
  -2  -6  -8   90.77   10.94
   2  -6   9   30.84    4.39
  -2  -6  -9   28.23    6.52
  -3   0  19  138.68   13.51
   3   0 -18  156.42   10.61
  -3   0  18  143.18    9.62
   3   0 -17   -0.53    2.79
  -3   0  17    5.68    2.66
   3   0 -16  250.32   14.10
   3   0 -16  218.84   11.31
  -3   0  16  286.36   14.98
   3   0 -15  893.87   44.85
   3   0 -15  878.43   44.96
  -3   0  15  976.87   48.92
   3   0 -14  975.79   39.62
   3   0 -14  883.10   34.65
  -3   0  14  955.36   36.89
   3   0 -13  515.42   15.93
   3   0 -13  482.35   14.43
  -3   0  13  538.22   16.71
   3   0 -12   53.37    8.24
   3   0 -12   46.52    6.77
  -3   0  12   45.76    3.07
   3   0 -11  296.15   17.79
   3   0 -11  308.10   18.32
  -3   0  11  295.89   17.92
   3   0 -10 2654.45   62.76
   3   0 -10 2650.05   61.74
  -3   0  10 2705.70   63.74
   3   0  -9 1035.98   22.18
   3   0  -9 1065.75   22.14
  -3   0   9  857.55   17.86
  -3   0   9 1043.98   22.64
   3   0  -8   17.77    3.06
   3   0  -8   15.58    1.58
  -3   0   8   12.97    1.31
   3   0  -7 2742.07   30.84
   3   0  -7 2830.64   30.94
  -3   0   7 2861.25   31.19
  -3   0   7 2872.44   33.14
   3   0  -5 3567.48   39.18
   3   0  -5 3286.06   35.48
  -3   0   5 3703.16   39.89
  -3   0   5 3608.05   40.00
   3   0  -4 1643.33   18.54
   3   0  -4 1614.89   17.88
  -3   0   4 1682.72   18.61
  -3   0   4 1746.39   20.33
   3   0  -3  923.12   19.10
  -3   0   3  864.75   17.88
  -3   0   3  881.60   18.08
   3   0  -3  937.74   19.52
  -3   0   2 5130.46   54.89
  -3   0   2 4932.49   52.62
   3   0  -2 5335.48   57.37
  -3   0   0 4017.02   43.06
  -3   0   0 3849.37   41.34
  -3   0   0 4072.94   43.90
   3   0   1   15.27    1.39
  -3   0  -1   17.24    1.15
   3   0   1   16.78    1.47
  -3   0  -1   18.92    1.40
   3   0   1   18.98    1.37
  -3   0  -2 1258.94   25.57
   3   0   2 1335.34   27.30
  -3   0  -2 1289.31   26.19
   3   0   2 1535.40   88.55
  -3   0  -3 3617.17   38.79
  -3   0  -3 3789.12   40.56
   3   0   4  631.42   13.17
  -3   0  -4  633.11   13.18
  -3   0  -4  599.14   12.35
   3   0   4  594.94   12.28
   3   0   5   11.76    1.28
  -3   0  -5   11.75    1.08
  -3   0  -5   10.30    0.81
   3   0   6  748.90   15.65
  -3   0  -6  724.65   15.10
  -3   0  -6  740.56   15.11
   3   0   6  833.59   17.01
   3   0   7 4617.33   49.74
  -3   0  -7 4235.20   45.70
  -3   0  -7 4613.19   49.08
   3   0   7 4669.45   49.70
   3   0   8 2659.06   29.39
  -3   0  -8 2345.41   26.05
  -3   0  -8 2558.88   27.50
   3   0   8 2504.47   27.00
   3   0   9  686.62   14.67
  -3   0  -9  624.60   12.79
   3   0  10  249.47   14.86
   3   0  10  279.85   16.29
   3   0  11  118.17    4.48
   3   0  11  117.89    3.66
   3   0  11  116.98    3.55
   3   0  12  949.62   27.01
   3   0  12  921.76   25.53
   3   0  13  294.38   11.89
   3   0  14    9.25    1.59
   3   0  15  171.94    9.37
   3   0  16  355.58   19.61
   3   0  17  262.67   15.23
   3  -1 -19   11.38    4.22
  -3  -1  19    2.64    3.31
  -3  -1  19   -1.35    1.90
  -3   1  19    2.31    1.94
   3  -1 -18   17.22    6.81
  -3  -1  18   28.68    3.81
   3   1 -18   13.83    2.41
  -3  -1  18   25.79    3.33
  -3   1  18   12.56    2.83
   3  -1 -17  584.03   33.84
  -3  -1  17  551.33   31.61
   3   1 -17  515.18   29.32
  -3  -1  17  379.35   21.82
  -3   1  17  471.55   26.87
   3   1 -16  385.68   21.53
   3  -1 -16  417.53   24.75
   3   1 -16  368.31   21.22
  -3  -1  16  403.31   22.38
  -3   1  16  392.59   21.68
   3   1 -15   32.59    4.43
   3  -1 -15   52.40    9.76
   3   1 -15   23.56    4.77
  -3  -1  15   53.90    4.38
  -3   1  15   33.10    3.29
   3   1 -14   29.37    3.59
   3  -1 -14   51.31    7.39
   3  -1 -14   29.98    4.46
   3   1 -14   29.10    4.85
  -3  -1  14   40.63    3.52
  -3   1  14   35.76    3.33
   3   1 -13  572.27   26.98
   3  -1 -13  533.93   21.21
   3   1 -13  605.44   18.28
  -3  -1  13  473.49   19.17
  -3   1  13  629.43   19.05
   3   1 -12  976.91   29.83
   3  -1 -12  911.17   26.72
   3  -1 -12  781.56   22.43
   3   1 -12 1040.69   29.84
  -3  -1  12  813.90   23.92
  -3   1  12  994.27   28.71
   3   1 -11 2073.91   58.41
   3  -1 -11 2451.64   68.39
   3  -1 -11 2151.50   59.70
   3   1 -11 2284.79   63.82
  -3  -1  11 2157.76   60.67
  -3   1  11 2128.55   59.74
   3   1 -10  101.62    7.86
   3  -1 -10  119.89    7.91
   3  -1 -10  104.04    6.60
   3   1 -10  106.97    7.20
  -3   1  10   87.11    5.22
  -3  -1  10  132.03    8.54
  -3   1  10  145.98    9.47
   3  -1  -9  618.52   16.48
   3  -1  -9  601.05   14.38
   3   1  -7 2074.30   25.62
   3   1  -7 1916.64   21.81
  -3  -1   7 2092.16   24.68
  -3   1   7 1914.01   22.51
   3   1  -6   38.15    4.72
   3  -1  -6   35.77    2.38
   3  -1  -6   38.92    2.01
   3   1  -6   27.49    2.22
  -3   1   6   22.06    1.17
   3   1  -5 1592.26   18.46
   3  -1  -5 1537.85   88.82
   3   1  -5 1526.58   31.28
   3  -1  -5 1427.63   28.78
  -3   1   5 1477.35   29.75
  -3  -1   5 1627.07   19.37
  -3   1   5 1480.91   30.67
   3   1  -4 2538.58   28.17
   3  -1  -4 2813.88   30.97
   3   1  -4 2548.94   28.17
   3  -1  -2 3319.51   35.84
   3   1  -2 3352.97   36.62
  -3   1   2 2962.65   32.73
   3   1  -1 2525.15   27.52
  -3  -1   1 2352.62   25.57
   3  -1  -1 2425.66   26.63
  -3   1   1 2474.80   27.12
   3  -1  -1 2337.68   25.69
  -3  -1   1 2326.22   25.63
   3  -1  -1 2462.63   26.68
  -3  -1   1 2429.23   27.17
   3   1  -1 2326.76   25.74
  -3   1   1 2536.50   28.00
   3   1   0 8420.92  484.86
  -3  -1   0 7527.90  433.53
  -3  -1   0 7714.34  444.31
   3   1   0 8264.23  475.94
   3   1   1 1886.35   20.46
   3  -1   1 1704.68   19.23
  -3   1  -1 1735.61   19.30
   3   1   1 1860.50   20.79
   3   1   2 1115.17   22.57
   3  -1   2 1276.60   26.26
  -3  -1  -2 1221.64   24.70
  -3   1  -2 1060.00   21.80
   3  -1   2 1019.97   21.22
   3   1   2 1126.14   23.21
  -3   1  -2 1284.66   26.15
  -3  -1  -2 1180.75   24.28
   3   1   2 1113.43   22.94
  -3   1  -2 1302.28   26.47
   3   1   3   68.61    3.22
   3  -1   3   63.03    3.61
  -3  -1  -3   64.08    2.98
  -3   1  -3   52.14    2.84
  -3   1  -3   47.25    3.07
   3  -1   3   45.73    3.12
   3   1   3   66.94    3.70
  -3   1  -3   60.67    3.57
  -3  -1  -3   62.10    3.22
  -3   1  -3   55.14    2.70
  -3  -1  -4 1453.37   29.32
  -3   1  -4 1653.91   19.85
   3   1   4 1636.70   18.66
  -3   1  -4 1669.94   17.92
   3   1   4 1674.35   18.87
  -3   1  -4 1726.37   18.51
  -3  -1  -5 2793.22   29.89
  -3   1  -5 2835.19   32.36
   3   1   5 3206.42   35.37
  -3  -1  -5 2793.09   30.57
   3   1   5 3096.78   33.81
   3  -1   6 1925.90   21.89
  -3  -1  -6 1906.10   20.71
  -3   1  -6 2014.93   24.06
   3   1   6 2157.42   24.42
  -3  -1  -6 1996.34   22.30
   3   1   6 2074.36   23.13
   3   1   7  561.97   11.68
   3   1   7  608.13   12.56
  -3   1  -7  554.26   12.96
   3   1   7  623.13   13.75
   3   1   7  615.55   13.15
   3   1   8  263.54   11.90
   3   1   8  281.80   12.65
   3  -1   8  300.32   13.97
  -3   1  -8  222.51   11.50
   3   1   8  279.91   13.07
  -3  -1  -8  314.41   14.93
   3   1   8  301.59   13.76
   3   1   9 1167.49   27.32
   3  -1   9 1054.70   25.40
  -3   1  -9 1011.79   25.37
   3   1   9 1200.09   28.79
  -3  -1  -9 1084.45   26.03
   3   1  10 2085.16   48.48
   3   1  10 2436.03   56.55
   3  -1  10 1804.93   42.74
  -3   1 -10 2177.56   52.06
   3   1  10 2433.93   57.24
  -3  -1 -10 1898.44   44.52
   3   1  10 1858.09   43.42
   3  -1  11  890.65   25.69
  -3   1 -11  654.78   20.81
   3   1  11  728.48   21.43
  -3  -1 -11  879.61   24.95
   3  -1  12   41.41    4.39
   3   1  12   38.36    3.43
  -3   1 -12   50.92    5.25
   3   1  12   45.01    4.85
  -3  -1 -12   20.26    4.48
   3  -1  13  101.81    5.25
   3   1  13  135.68    5.99
  -3   1 -13  121.73    6.83
   3   1  13  127.78    6.35
  -3  -1 -13  104.44    4.65
   3   1  14  464.43   19.51
   3  -1  14  313.19   14.21
  -3   1 -14  438.95   19.68
   3   1  14  419.49   18.32
   3  -1  15  358.64   18.20
  -3   1 -15  383.23   20.01
   3   1  15  373.36   18.94
   3  -1  16   18.86    2.80
   3   1  16   19.71    3.17
   3  -1  17  165.09   11.58
   3   1  17  171.09   12.00
   3  -1  18   53.26    6.47
   3   1  18   84.28    9.22
   3  -2 -18  166.00   17.10
  -3  -2  18  155.01   16.13
   3   2 -18  139.48   15.83
  -3  -2  18  151.74   15.67
  -3   2  18  159.14   16.37
   3  -2 -17   65.88    7.51
  -3  -2  17   66.12    5.74
   3   2 -17   53.50   13.38
  -3  -2  17   77.70    6.71
  -3   2  17   68.64    5.98
   3  -2 -16   39.66    9.14
  -3  -2  16   42.13    4.00
   3   2 -16   26.37    7.20
  -3  -2  16   60.49    4.95
  -3   2  16   20.05    3.15
   3  -2 -15  393.33   21.80
  -3  -2  15  379.54   21.29
   3   2 -15  310.83   18.70
  -3  -2  15  356.62   20.09
  -3   2  15  287.28   16.37
   3  -2 -14  348.20   18.20
  -3  -2  14  310.93   16.67
   3   2 -14  403.12   21.06
  -3  -2  14  303.03   16.09
  -3   2  14  353.87   18.47
   3  -2 -13  281.68   13.72
  -3  -2  13  269.56   12.43
   3   2 -13  236.30   11.30
  -3  -2  13  265.18   12.42
  -3   2  13  217.61   10.19
   3  -2 -12   70.90    3.75
  -3  -2  12   51.96    3.82
   3   2 -12   85.64    5.07
  -3  -2  12   52.84    4.01
  -3   2  12   89.14    5.05
   3   2 -11   42.30    4.94
   3   2 -11   34.59    3.64
  -3  -2  11   93.93    8.08
  -3   2  11   29.90    3.46
   3   2 -10 1943.07   55.00
   3  -2 -10 1682.07   47.32
   3   2 -10 1760.37   49.51
  -3   2  10 1695.04   47.85
   3   2  -9  738.19   18.95
   3  -2  -9  700.82   17.37
   3   2  -9  667.83   16.80
  -3  -2   9  620.21   16.34
  -3   2   9  670.20   17.05
   3   2  -8  159.44   10.39
   3  -2  -8  186.45   11.43
   3   2  -8  147.62    9.33
  -3  -2   8  152.98    9.90
  -3   2   8  143.76    9.03
   3   2  -7  864.19   19.12
   3  -2  -7  874.76   18.70
   3   2  -7  787.38   17.24
  -3  -2   7  842.95   18.76
   3   2  -6  751.76   19.02
   3  -2  -6  782.44   16.94
   3   2  -6  666.29   14.61
   3  -2  -6  704.28   15.65
  -3  -2   6  735.68   16.63
   3   2  -5 1055.23   22.58
   3  -2  -5 1095.75   22.93
   3   2  -5 1033.49   21.87
   3  -2  -5  993.08   21.32
  -3  -2   5 1126.99   24.11
   3   2  -4 1488.31   32.51
   3  -2  -4 1605.32   18.72
   3  -2  -4 1566.68   90.25
   3   2  -4 1476.99   30.62
   3  -2  -4 1491.33   29.96
   3  -2  -4 1470.45   30.81
  -3  -2   4 1663.34   20.14
   3   2  -3  263.38   12.23
  -3  -2   3  266.91   12.23
   3  -2  -3  323.38   14.86
   3  -2  -3  318.88   14.27
   3   2  -3  265.23   12.38
   3  -2  -3  318.40   14.18
   3  -2  -3  279.94   13.10
  -3  -2   3  317.27   14.69
   3   2  -2 1611.08   19.09
   3  -2  -2 1524.56   31.34
   3  -2  -2 1636.80   18.36
   3   2  -2 1719.47   19.94
   3  -2  -2 1508.31   31.41
  -3  -2   2 1561.61   90.32
   3   2  -1 2360.79   26.59
   3  -2  -1 2285.42   25.65
   3  -2  -1 2281.64   25.36
   3  -2  -1 2163.62   24.83
   3   2   0 3800.68   41.72
  -3  -2   0 3934.75   43.26
   3   2   1   15.84    2.46
  -3  -2  -1   20.77    1.29
   3  -2   1   19.17    2.14
  -3   2  -1   19.83    4.12
   3  -2   1   23.08    3.06
   3   2   1   12.44    1.60
   3  -2   1   25.72    4.08
  -3   2  -1   14.92    1.74
  -3  -2  -1   24.88    2.45
  -3  -2  -2 1101.65   22.24
   3  -2   2 1079.02   22.53
  -3   2  -2 1068.10   22.51
   3   2   2 1233.94   25.64
   3  -2   2 1153.01   23.89
  -3   2  -2 1120.76   23.02
  -3  -2  -2 1012.00   21.31
   3  -2   3 2403.75   27.03
  -3   2  -3 2597.18   30.27
   3  -2   3 2556.06   28.13
   3  -2   4  356.28   16.29
  -3   2  -4  281.78   13.61
   3   2   4  290.99   13.34
   3  -2   4  397.02   17.77
  -3   2  -4  287.43   12.88
  -3  -2  -4  374.45   17.07
   3  -2   5   90.17    4.80
  -3   2  -5  103.93    6.81
   3   2   5  106.66    5.30
   3  -2   5   91.89    4.26
  -3  -2  -5   92.70    4.97
  -3   2  -5  110.26    5.06
   3  -2   6   19.28    2.03
  -3   2  -6   29.81    4.86
   3   2   6   45.06    3.15
  -3  -2  -6   33.69    2.66
  -3   2  -6   26.77    1.37
  -3   2  -6   27.14    1.39
   3  -2   7 1819.01   43.02
  -3   2  -7 1649.40   40.46
   3   2   7 1801.84   42.45
  -3  -2  -7 1947.88   45.82
   3  -2   8  728.71   18.14
  -3   2  -8  634.62   17.14
   3   2   8  650.17   16.03
  -3  -2  -8  720.36   17.77
   3  -2   9  390.15   10.58
  -3   2  -9  367.59   18.40
   3   2   9  340.16   10.51
  -3  -2  -9  386.53   12.09
   3   2  10  242.35    6.81
   3   2  10  237.54    6.67
   3  -2  10  289.82    9.67
   3   2  10  246.94    8.15
  -3  -2 -10  274.34    9.08
   3   2  11  306.43    8.63
  -3   2 -11  298.01   13.13
   3   2  11  317.53   10.00
  -3  -2 -11  175.49   14.03
   3  -2  12  463.65   18.89
  -3   2 -12  438.86   18.47
   3   2  12  450.48   17.84
  -3  -2 -12  467.15   18.93
   3  -2  13  346.69   15.42
  -3   2 -13  276.24   13.48
   3   2  13  257.56   11.53
  -3  -2 -13  352.23   15.82
   3  -2  14   14.10    2.98
  -3   2 -14   36.31    7.31
   3   2  14   14.76    1.99
  -3  -2 -14    6.26    2.68
   3  -2  15   68.68    5.22
  -3   2 -15   63.93   16.77
   3   2  15   91.90    6.08
  -3  -2 -15   71.80    4.76
   3  -2  16  107.77    7.45
  -3   2 -16  102.96    8.81
   3   2  16  112.89    7.22
   3  -2  17  118.91    8.55
  -3   2 -17  140.09   10.64
   3   2  17  122.45    8.24
   3  -2  18   80.22    8.40
   3   2  18   50.28    5.48
   3  -3 -17  146.25   16.08
  -3  -3  17  207.19   19.79
   3   3 -17  192.11   18.58
  -3  -3  17  170.74   16.26
  -3   3  17  153.30   14.65
   3  -3 -16  107.73    7.32
  -3  -3  16   80.60    6.48
   3   3 -16   69.87   16.39
  -3  -3  16   89.34    6.76
  -3   3  16  106.23    7.95
   3  -3 -15    4.11    2.39
  -3  -3  15    9.46    2.86
   3   3 -15   16.96    3.75
  -3  -3  15    8.92    2.71
  -3   3  15   14.28    2.81
   3  -3 -14   19.22    4.43
  -3  -3  14   29.31    3.63
   3   3 -14   27.10    4.05
  -3  -3  14   28.10    3.32
  -3   3  14   19.51    3.19
   3  -3 -13  239.81   12.40
  -3  -3  13  274.13   14.62
   3   3 -13  214.54   11.53
  -3  -3  13  222.19   12.08
  -3   3  13  203.81   11.22
   3  -3 -12  255.68   13.58
  -3  -3  12  317.35   17.14
   3   3 -12  209.21   11.76
  -3  -3  12  211.67   12.01
  -3   3  12  205.01   11.47
   3  -3 -11  329.20   14.37
  -3  -3  11  320.12   14.69
   3   3 -11  364.76   16.31
  -3  -3  11  246.62   11.63
   3  -3 -10   20.16    2.51
  -3  -3  10   21.73    3.59
   3   3 -10   26.04    3.68
   3  -3 -10   22.60    3.43
  -3  -3  10   25.81    3.63
   3  -3  -9  429.99   13.06
  -3  -3   9  455.97   14.62
   3   3  -9  424.37   13.53
   3  -3  -9  397.94   12.86
  -3  -3   9  389.63   12.99
   3  -3  -8 1039.88   29.59
  -3  -3   8  978.28   28.71
   3   3  -8  907.89   26.33
   3  -3  -8  925.35   27.07
  -3  -3   8  939.75   27.65
   3  -3  -7  712.40   17.67
  -3  -3   7  610.30   15.93
   3   3  -7  660.09   16.70
   3  -3  -7  647.62   17.46
  -3  -3   7  624.92   16.59
   3  -3  -6   36.39    2.92
  -3  -3   6   25.17    2.73
   3   3  -6   42.14    4.13
   3  -3  -6   46.02    5.30
   3  -3  -5  453.44   11.62
  -3  -3   5  372.74   10.39
   3   3  -5  364.72   10.20
   3  -3  -5  434.10   12.17
  -3  -3   5  483.32   13.21
   3  -3  -4  555.49   13.92
   3   3  -4  493.46   13.09
   3  -3  -4  520.66   12.24
   3  -3  -4  532.38   18.91
  -3  -3   4  533.31   14.30
   3  -3  -3 1352.19   28.10
  -3  -3   3 1195.36   25.25
  -3   3   3 1201.12   24.61
   3  -3  -3 1335.86   27.14
   3   3  -3 1271.48   26.96
   3  -3  -3 1369.16   29.36
  -3  -3   3 1332.93   28.50
   3  -3  -2  221.51   10.49
  -3  -3   2  221.49   10.46
  -3   3   2  148.56    7.06
   3  -3  -2  197.52    9.05
   3   3  -2  160.35    7.99
   3  -3  -2  219.95   10.84
  -3  -3   2  201.97   10.15
  -3  -3   1   48.13    2.83
   3  -3  -1   54.79    3.47
  -3  -3   1   60.85    3.31
  -3   3   1   43.38    3.28
   3  -3  -1   46.04    2.44
   3   3  -1   57.82    3.76
   3  -3  -1   59.50    6.42
  -3  -3   1   41.00    2.98
  -3  -3   0 3059.60   33.35
   3  -3   0 3227.33   37.15
  -3  -3   0 3067.10   35.03
  -3  -3  -1  923.71   18.93
   3  -3   1 1120.68   23.79
  -3  -3  -1  978.14   20.05
  -3   3  -1  951.99   20.44
   3   3   1  997.86   21.34
   3  -3   1 1088.31   23.24
  -3  -3  -1  888.68   19.35
  -3  -3  -2  606.98   12.47
   3  -3   2  635.60   14.05
  -3  -3  -2  671.52   13.82
  -3   3  -2  558.91   14.46
   3   3   2  617.56   13.73
   3  -3   2  631.17   14.21
  -3  -3  -2  567.11   12.96
  -3  -3  -3  118.38    6.88
  -3  -3  -3  113.84    6.63
   3  -3   3  106.52    7.03
  -3   3  -3   62.99    5.93
   3   3   3   79.45    5.25
   3  -3   3  115.99    7.40
  -3   3  -3   63.75    4.06
  -3  -3  -3  113.61    7.62
   3  -3   4  407.74   10.76
  -3   3  -4  326.10   11.36
   3   3   4  293.02   17.38
  -3  -3  -4  385.11   10.83
  -3   3  -4  291.55   17.05
   3  -3   5 1284.61   30.90
  -3   3  -5 1147.72   28.93
   3   3   5 1131.31   27.11
  -3  -3  -5 1233.85   29.85
  -3   3  -5 1056.71   24.87
   3  -3   6  885.91   21.88
  -3   3  -6  854.02   22.68
   3   3   6  820.22   20.06
  -3  -3  -6  939.84   23.22
  -3   3  -6  735.67   17.44
   3  -3   7   67.70    3.93
  -3   3  -7   59.27    4.54
   3   3   7   69.22    3.55
   3  -3   7   75.54    2.80
  -3  -3  -7   79.44    4.27
   3  -3   8  171.01   13.92
  -3   3  -8  137.54   14.70
   3   3   8  129.11   10.52
   3  -3   8  132.51   10.40
  -3  -3  -8  138.01   11.42
   3  -3   9  477.50   14.69
  -3   3  -9  457.06   14.75
   3   3   9  438.64   13.41
  -3  -3  -9  466.97   14.87
   3  -3  10  899.80   34.88
  -3   3 -10  775.11   31.16
   3   3  10  750.17   28.96
  -3  -3 -10  834.24   33.45
   3  -3  11   33.17    3.75
  -3   3 -11   24.19    5.21
   3   3  11   27.73    2.77
  -3  -3 -11   47.99    8.45
   3  -3  12   67.40    5.49
  -3   3 -12   51.33   11.17
   3   3  12   77.33    4.79
  -3  -3 -12   91.28   10.02
   3  -3  13  137.88    8.27
  -3   3 -13  139.35   12.67
   3   3  13  140.36    7.75
  -3  -3 -13  155.01    8.45
   3  -3  14  179.05   10.74
  -3   3 -14  139.86   12.32
   3   3  14  138.28    8.50
  -3  -3 -14  163.40   12.11
   3  -3  15  349.96   23.78
  -3   3 -15  352.46   24.18
   3   3  15  309.60   20.58
  -3  -3 -15  315.57   21.36
   3  -3  16   54.55    6.71
  -3   3 -16   31.05   12.61
   3   3  16   59.15    6.69
  -3  -3 -16   40.33    4.82
   3  -4 -15   17.85    6.28
  -3  -4  15   37.87    5.45
   3   4 -15   66.84    8.00
  -3  -4  15   25.18    3.92
  -3   4  15   42.85    4.81
   3  -4 -14  162.91   11.33
  -3  -4  14  229.17   14.77
   3   4 -14  161.50   10.82
  -3  -4  14  157.09   10.52
  -3   4  14  146.34    9.90
   3  -4 -13   18.47    4.70
  -3  -4  13   15.67    2.98
   3   4 -13   40.90    4.27
   3  -4 -13   20.56    4.25
  -3  -4  13   15.92    3.10
   3  -4 -12  144.97    9.21
  -3  -4  12  143.17    9.15
   3   4 -12  155.93   10.00
   3  -4 -12  141.69    9.25
  -3  -4  12   92.01    6.63
   3  -4 -11   30.31    3.11
  -3  -4  11   29.93    4.14
   3   4 -11   72.44    5.42
   3  -4 -11   28.15    4.38
  -3  -4  11   30.85    4.13
   3  -4 -10  616.95   31.04
  -3  -4  10  534.50   27.49
   3   4 -10  611.30   31.19
   3  -4 -10  492.62   26.14
  -3  -4  10  519.75   26.93
   3  -4  -9  153.23    7.41
  -3  -4   9  122.18    6.73
   3   4  -9  147.69    7.56
   3  -4  -9  142.69    8.81
  -3  -4   9  126.22    7.23
   3  -4  -8   10.24    2.05
  -3  -4   8   -0.49    2.00
   3   4  -8    7.19    2.53
   3  -4  -8   10.26    2.23
  -3  -4   8    7.31    2.64
   3  -4  -7  483.38   19.07
  -3  -4   7  345.24   14.24
   3   4  -7  391.37   15.99
   3  -4  -7  489.27   20.18
  -3  -4   7  443.96   18.08
   3  -4  -6  272.47   21.30
  -3  -4   6  226.23   17.99
   3   4  -6  272.59   21.78
   3  -4  -6  262.66   23.00
  -3  -4   6  250.60   20.02
   3  -4  -5  236.98   18.64
  -3  -4   5  199.31   15.85
  -3   4   5  194.31   14.96
   3   4  -5  217.45   17.36
   3  -4  -5  239.13   19.12
  -3  -4   5  194.94   15.69
   3  -4  -4   73.47    6.31
  -3  -4   4   42.99    4.16
  -3   4   4   90.44    7.20
   3   4  -4   76.58    6.94
   3  -4  -4   90.12   14.53
  -3  -4   4   34.58    3.73
   3  -4  -3  245.53   19.24
  -3  -4   3  278.11   21.70
  -3   4   3  259.73   20.26
   3   4  -3  308.01   10.15
   3  -4  -3  255.50   24.28
  -3  -4   3  323.89   11.01
   3  -4  -2  726.24   21.20
  -3  -4   2  748.87   21.58
   3   4  -2  760.30   22.38
   3  -4  -2  745.08   22.91
  -3  -4   2  663.36   19.88
   3  -4  -1 1488.10   42.04
  -3  -4   1 1450.18   40.58
   3   4  -1 1321.44   37.66
   3  -4  -1 1469.93   42.15
  -3  -4   1 1273.06   36.64
   3  -4   0  357.47   11.27
  -3  -4   0  301.36    8.97
  -3   4   0  399.68   12.46
   3   4   0  408.43   12.72
   3  -4   0  358.48   11.71
   3  -4   1  468.38   14.55
  -3  -4  -1  526.55   15.05
   3   4   1  471.90   14.52
   3  -4   1  435.46   13.72
  -3  -4  -1  452.80   14.27
  -3  -4  -2  563.60   15.85
   3  -4   2  727.49   21.41
  -3  -4  -2  664.46   18.62
  -3   4  -2  606.58   20.58
   3   4   2  702.24   20.50
   3  -4   2  720.13   21.72
  -3  -4  -2  636.64   19.13
   3  -4   3 1567.76   44.31
  -3   4  -3 1315.37   41.25
   3   4   3 1368.14   38.72
   3  -4   3 1550.56   45.18
  -3  -4  -3 1450.41   41.47
   3  -4   4  173.07   13.87
  -3   4  -4  176.36   16.37
   3   4   4  169.36   13.59
   3  -4   4  172.02   13.97
  -3  -4  -4  155.61   12.86
   3  -4   5   41.30    4.18
  -3   4  -5   50.99    7.64
   3   4   5   58.17    5.54
   3  -4   5   55.39    9.47
  -3  -4  -5   75.41    6.82
   3  -4   6   53.22    5.33
  -3   4  -6   42.39    6.97
   3   4   6   41.90    4.32
   3  -4   6   47.41    7.97
  -3  -4  -6   52.86    5.75
   3  -4   7  655.37   25.82
  -3   4  -7  601.08   24.13
   3   4   7  632.44   24.69
   3  -4   7  686.69   26.52
  -3  -4  -7  670.04   26.57
   3  -4   8  171.69    8.55
  -3   4  -8  213.09   10.85
   3   4   8  202.81    9.30
   3  -4   8  257.82   12.00
  -3  -4  -8  234.65   11.10
   3  -4   9   91.23    6.40
  -3   4  -9   57.71   13.09
   3   4   9   86.50    5.66
  -3  -4  -9   95.92    9.23
   3  -4  10  299.10   15.40
  -3   4 -10  265.04   14.17
   3   4  10  287.17   14.48
  -3  -4 -10  317.11   16.25
   3  -4  11  255.79   15.06
  -3   4 -11  187.89   21.24
   3   4  11  183.07   10.74
  -3  -4 -11  227.02   15.01
   3  -4  12  187.20   11.24
  -3   4 -12  205.64   13.59
   3   4  12  213.42   12.05
  -3  -4 -12  199.47   11.69
   3  -4  13   38.77    4.15
  -3   4 -13   41.48   13.61
   3   4  13   63.87    5.27
  -3  -4 -13   26.75    9.62
   3  -4  14  203.84   21.00
  -3   4 -14  183.84   21.57
  -3  -4 -14  247.59   25.08
   3  -4  15   70.74    7.88
  -3  -4 -15   41.75    5.86
  -3  -5  12   37.28    5.02
   3   5 -12   38.62    5.69
   3  -5 -12   33.27    4.90
  -3  -5  12   27.40    4.54
   3  -5 -11   97.31    6.80
  -3  -5  11   63.61    5.57
   3   5 -11  102.59    7.70
   3  -5 -11   86.43    9.42
  -3  -5  11   42.32    4.59
   3  -5 -10    7.93    2.33
  -3  -5  10    3.66    2.14
   3   5 -10   11.38    3.94
   3  -5 -10    4.36    2.79
  -3  -5  10    8.37    3.09
   3  -5  -9   54.70    3.87
  -3  -5   9   39.15    4.14
   3   5  -9   62.21    5.73
   3  -5  -9   46.72    8.84
  -3  -5   9   52.16    5.19
   3  -5  -8  179.70   10.62
  -3  -5   8  156.27    9.96
   3   5  -8  172.90   11.00
   3  -5  -8  154.91    9.82
  -3  -5   8  143.42    9.16
   3  -5  -7  107.29    6.60
  -3  -5   7  103.37    6.96
   3   5  -7  136.18    8.61
   3  -5  -7  105.74    9.73
  -3  -5   7   88.49    6.38
   3  -5  -6   12.37    2.23
  -3  -5   6   21.80    2.59
   3   5  -6   16.20    3.08
   3  -5  -6    8.34    1.68
  -3  -5   6   15.17    3.18
   3  -5  -5   38.96    3.68
  -3  -5   5   31.65    3.04
   3   5  -5   35.52    3.72
   3  -5  -5   23.77    6.54
  -3  -5   5   27.31    3.41
   3  -5  -4   22.58    2.81
  -3  -5   4   19.76    2.55
   3   5  -4   25.47    3.78
   3  -5  -4   20.18    4.62
  -3  -5   4   25.96    3.43
   3  -5  -3  110.22    6.54
  -3  -5   3  138.05    7.63
   3   5  -3  136.78    8.02
   3  -5  -3  110.47   10.55
  -3  -5   3  109.99    6.86
   3  -5  -2    8.19    2.25
  -3  -5   2   10.37    1.56
  -3   5   2    3.63    1.39
   3   5  -2    7.38    2.39
   3  -5  -2    6.53    1.57
  -3  -5   2   13.02    3.61
   3  -5  -1   26.03    2.94
  -3  -5   1   18.91    1.86
  -3   5   1   13.44    3.59
   3   5  -1   11.42    2.51
   3  -5  -1   21.23    4.07
  -3  -5   1   19.00    3.11
   3  -5   0  690.40   29.16
  -3  -5   0  622.09   25.74
  -3   5   0  530.54   23.48
   3   5   0  675.57   28.54
   3  -5   0  592.80   25.52
  -3  -5   0  634.90   27.10
   3  -5   1  101.26    5.89
  -3  -5  -1   99.95    4.59
  -3   5  -1   66.23    5.95
   3   5   1   73.57    4.39
   3  -5   1   84.32   10.07
  -3  -5  -1   96.02    5.74
   3  -5   2   67.99    4.50
  -3   5  -2   46.46    8.55
   3   5   2   74.06    4.91
   3  -5   2   47.72    6.76
  -3  -5  -2   70.59    4.91
   3  -5   3   43.70    3.84
  -3   5  -3   22.84    4.59
   3   5   3   54.90    4.39
   3  -5   3   31.25    5.79
  -3  -5  -3   54.35    5.02
   3  -5   4   38.84    3.64
  -3   5  -4   17.54    4.61
   3   5   4   23.05    2.42
   3  -5   4   33.94    6.54
  -3  -5  -4   25.83    3.55
   3  -5   5  115.72    6.99
  -3   5  -5  105.18   12.15
   3   5   5  114.93    6.68
   3  -5   5  122.99   11.24
  -3  -5  -5  135.65    8.54
   3  -5   6  119.35    6.85
  -3   5  -6   89.35    8.50
   3   5   6  125.11    7.16
   3  -5   6  128.90    7.32
  -3  -5  -6  130.10    8.11
   3  -5   7    9.12    1.94
  -3   5  -7    7.29    2.55
   3   5   7    7.97    1.94
  -3  -5  -7   21.35    3.88
   3  -5   8   44.34    4.22
  -3   5  -8   28.21    6.79
   3   5   8   49.22    4.01
  -3  -5  -8   38.38    7.86
   3  -5   9   31.59    3.51
  -3   5  -9   22.00    6.69
   3   5   9   25.31    2.78
  -3  -5  -9   21.13    6.12
   3  -5  10  140.98   10.41
  -3   5 -10   89.43    8.11
   3   5  10  120.31    8.66
  -3  -5 -10  144.24   13.05
   3  -5  11   23.82    4.40
  -3   5 -11   12.91    4.36
  -3  -5 -11   32.60    7.79
   3  -5  12   12.65    3.88
  -3   5 -12    6.01    2.34
  -3  -5 -12    6.98    2.40
  -3  -6   8   25.06    3.92
   3   6  -8   21.79    4.04
   3  -6  -7   23.65    3.75
   3   6  -7   17.62    4.14
   3  -6  -7   24.35    6.67
  -3  -6   7   13.19    3.45
   3  -6  -6   47.57    5.77
  -3  -6   6   48.88    5.80
   3   6  -6   27.81    4.54
   3  -6  -6   27.70    9.43
  -3  -6   6   32.59    4.56
   3  -6  -5   27.79    3.51
  -3  -6   5   29.00    3.04
   3   6  -5   25.37    3.26
   3  -6  -5   19.90    5.69
  -3  -6   5   31.48    4.46
   3  -6  -4   75.12    6.16
  -3  -6   4   69.21    5.32
   3   6  -4   79.56    6.63
   3  -6  -4   44.51   12.33
  -3  -6   4   62.82    6.20
   3  -6  -3   90.37    6.84
  -3  -6   3   62.81    4.78
   3   6  -3   65.41    5.57
   3  -6  -3   70.63   10.67
  -3  -6   3   86.10    7.50
   3  -6  -2   37.33    4.27
   3   6  -2   21.68    3.12
   3  -6  -2   21.50    8.73
  -3  -6   2   27.22    4.38
   3  -6  -1   11.34    2.53
   3   6  -1   25.51    3.96
   3  -6  -1    6.13    2.46
  -3  -6   1   13.71    3.61
   3  -6   0  212.63   12.96
   3   6   0  184.41   11.60
   3  -6   0  192.18   12.43
  -3  -6   0  206.10   13.09
   3  -6   1   76.94    6.51
  -3   6  -1   26.67    8.86
   3   6   1   43.86    4.11
   3  -6   1   36.66   12.06
  -3  -6  -1   51.26    5.22
   3  -6   2   87.90    6.94
  -3   6  -2   55.31    9.03
   3   6   2   55.92    5.10
   3  -6   2   78.84   11.02
  -3  -6  -2   82.16    7.31
   3  -6   3   17.65    2.88
  -3   6  -3    8.18    3.13
   3   6   3   15.74    2.51
   3  -6   3   11.56    2.90
  -3  -6  -3   16.99    3.58
   3  -6   4  112.38    7.77
  -3   6  -4   58.44    6.56
   3   6   4   87.72    6.62
   3  -6   4  108.10   12.37
  -3  -6  -4  117.44    8.50
   3  -6   5    3.23    2.15
  -3   6  -5   -0.86    2.07
   3   6   5   17.19    3.02
   3  -6   5    6.19    2.07
  -3  -6  -5   10.42    3.53
   3  -6   6    8.91    3.22
  -3   6  -6    8.08    2.72
   3   6   6    5.22    2.35
  -3  -6  -6    6.09    3.25
   3  -6   7   38.73    5.01
  -3   6  -7   30.24    9.40
   3   6   7   37.72    4.64
  -3  -6  -7   24.28    9.67
   4   0 -18  738.07   67.36
  -4   0  18  709.64   70.33
   4   0 -17   84.90    9.19
  -4   0  17   75.49    6.65
   4   0 -16    2.25    1.83
  -4   0  16    8.15    3.18
   4   0 -15  121.59    8.68
   4   0 -15   85.93   10.46
  -4   0  15  125.82    8.31
   4   0 -14  466.65   25.59
   4   0 -14  408.21   20.72
  -4   0  14  444.34   22.93
   4   0 -13  722.88   28.40
   4   0 -13  695.40   26.86
  -4   0  13  742.35   29.32
   4   0 -12  107.97    9.23
   4   0 -12  100.93    8.23
  -4   0  12   93.52    8.13
   4   0 -11 1428.48   40.52
   4   0 -11 1388.54   38.85
  -4   0  11 1379.04   39.40
   4   0 -10 1420.62   34.42
   4   0 -10 1398.84   33.03
  -4   0  10 1315.30   32.01
   4   0  -9 2442.46   57.54
   4   0  -9 2147.27   50.12
  -4   0   9 2335.84   55.28
   4   0  -8  707.48   17.74
   4   0  -8  829.89   19.80
  -4   0   8  794.98   18.92
  -4   0   8  806.70   20.31
   4   0  -7   21.64    3.08
   4   0  -7   16.71    1.58
  -4   0   7   14.38    1.28
  -4   0   7   16.67    2.34
   4   0  -6  908.48   19.28
   4   0  -6  888.86   18.46
  -4   0   6  917.95   19.01
  -4   0   6  886.68   19.34
   4   0  -5 1886.17   21.54
   4   0  -5 1870.33   20.93
  -4   0   5 1777.20   19.80
  -4   0   5 1941.05   23.02
   4   0  -4 3450.29   37.79
   4   0  -4 3700.99   40.19
   4   0  -3   43.74    2.80
   4   0  -3   48.69    2.79
  -4   0   3   41.24    2.21
  -4   0   3   50.09    3.38
   4   0  -2  738.01   15.60
  -4   0   2  642.35   13.42
  -4   0   2  770.02   16.47
   4   0  -1 2323.31   25.79
   4   0  -1 2239.42   24.82
  -4   0   1 2343.02   26.27
   4   0  -1 2181.48   24.50
  -4   0   0 2201.20   24.29
   4   0   0 2193.96   24.33
   4   0   0 2262.49   25.23
   4   0   1  408.68   18.39
  -4   0  -1  372.80   16.73
   4   0   1  365.31   16.49
  -4   0  -1  378.51   17.10
   4   0   1  384.15   17.31
   4   0   2  199.65    9.21
  -4   0  -2  176.70    8.09
   4   0   2  204.63    9.52
  -4   0  -2  190.59    8.86
   4   0   2  202.74    9.37
   4   0   3  585.11   12.45
  -4   0  -3  526.84   11.12
   4   0   3  563.59   12.27
  -4   0  -3  586.23   12.37
   4   0   3  572.29   12.14
   4   0   4 5385.16   57.81
  -4   0  -4 5021.39   53.86
   4   0   4 5578.46   60.53
  -4   0  -4 5339.53   57.12
   4   0   4 5005.76   53.64
   4   0   5 1944.47   21.79
  -4   0  -5 1806.18   20.22
   4   0   5 1966.13   22.84
  -4   0  -5 1796.20   19.75
   4   0   5 1565.31   90.27
   4   0   6  265.42   12.16
  -4   0  -6  242.33   11.07
   4   0   6  277.20   13.15
  -4   0  -6  226.91   10.22
   4   0   6  217.62    9.83
   4   0   7   95.16    4.71
  -4   0  -7   87.95    4.12
   4   0   8  710.39   17.10
  -4   0  -8  692.26   16.22
   4   0   8  656.97   15.41
   4   0   9  848.05   20.33
  -4   0  -9  817.71   19.05
   4   0   9  876.31   20.38
   4   0  10   16.33    1.63
   4   0  10   16.87    0.69
   4   0  11   52.31    4.58
   4   0  12  615.49   23.79
   4   0  13 1039.38   42.86
   4   0  14  240.97   12.61
   4   0  15    2.21    2.06
   4   0  16   89.51    5.99
   4   1 -18   56.52    6.90
   4  -1 -18   61.61    8.92
  -4  -1  18   51.02    6.56
  -4   1  18   46.23    5.58
   4   1 -17  162.28   11.95
   4  -1 -17  186.73   14.89
   4   1 -17  157.04   11.23
  -4  -1  17  184.08   13.40
  -4   1  17  170.39   12.16
   4   1 -16  461.18   25.64
   4  -1 -16  577.49   31.55
   4   1 -16  481.31   26.59
  -4  -1  16  489.53   26.79
  -4   1  16  480.34   26.28
   4   1 -15  341.67   23.59
   4  -1 -15  292.94   22.59
   4   1 -15  388.67   21.78
  -4  -1  15  297.72   17.32
  -4   1  15  358.43   20.10
   4   1 -14   38.99    8.49
   4  -1 -14   88.78    6.89
   4   1 -14   47.80    4.37
  -4  -1  14   69.42    5.38
  -4   1  14   52.72    4.72
   4   1 -13  362.07   16.40
   4  -1 -13  466.30   21.35
   4   1 -13  387.31   16.75
  -4  -1  13  411.80   18.38
  -4   1  13  367.79   16.25
   4   1 -12  904.53   35.04
   4  -1 -12 1185.11   49.04
   4   1 -12  932.15   35.83
  -4  -1  12  982.71   38.23
  -4   1  12  956.65   37.15
   4   1 -11 2652.33  100.35
   4  -1 -11 2442.95   92.29
   4  -1 -11 2297.57   86.33
   4   1 -11 2568.95   96.84
  -4  -1  11 2169.75   82.32
  -4   1  11 2764.81  104.58
   4   1 -10   23.46    3.72
  -4   1  10   27.96    3.18
   4   1  -9  197.76   12.38
   4  -1  -9  215.04   13.03
   4  -1  -9  221.94   13.02
   4   1  -9  182.21   11.09
  -4   1   9  185.50   10.85
  -4  -1   9  183.33   11.53
  -4   1   9  206.94   12.78
   4   1  -8 1915.75   45.90
   4  -1  -8 2206.10   51.79
   4  -1  -8 2172.97   50.34
   4   1  -8 1842.60   43.37
  -4   1   8 1707.26   39.55
  -4  -1   8 1786.77   42.66
  -4   1   8 1927.47   45.89
   4   1  -7 1901.47   22.34
  -4  -1   7 2228.49   26.68
   4   1  -6 2339.45   26.85
   4   1  -6 2392.72   26.98
   4  -1  -6 2516.96   27.23
  -4   1   6 2323.71   27.20
   4   1  -5  294.39   13.85
   4  -1  -5  347.81   16.03
   4   1  -5  287.02   13.24
   4  -1  -5  303.40   13.60
  -4  -1   5  318.66   14.91
  -4   1   5  277.68   13.11
   4   1  -4 1692.71   19.52
   4   1  -3 1607.54   18.83
   4  -1  -3 1652.33   19.15
   4   1  -3 1793.78   20.74
   4  -1  -3 1590.60   17.72
  -4  -1   3 1614.44   19.34
  -4   1   3 1674.26   19.94
   4   1  -2 2177.36   24.76
   4  -1  -2 2113.75   23.23
  -4   1   2 1995.02   22.95
  -4  -1   1 1414.28   28.87
   4  -1  -1 1396.63   28.78
   4   1  -1 1205.54   25.13
   4  -1  -1 1495.42   30.51
  -4  -1   1 1490.84   30.94
  -4   1   1 1258.43   26.12
   4   1   0 2508.65   27.39
   4  -1   0 2744.39   30.45
   4  -1   0 2487.16   27.80
   4   1   0 2673.03   29.82
   4  -1   0 2754.62   30.19
  -4  -1   0 2817.92   31.45
   4   1   1 1919.20   21.10
  -4  -1  -1 1917.98   21.06
   4  -1   1 2017.77   22.89
   4   1   1 2036.04   23.09
  -4   1  -1 1858.94   20.94
   4   1   2 3690.74   39.71
   4  -1   2 3827.86   41.90
  -4  -1  -2 3811.16   40.90
   4   1   2 3358.33   37.07
  -4   1  -2 3292.31   35.82
  -4  -1  -2 3753.97   41.02
  -4   1  -2 3563.39   38.58
   4   1   3 2813.27   30.41
  -4   1  -3 2616.15   28.58
  -4   1  -3 2658.66   28.83
   4   1   4  676.14   13.98
   4  -1   4  671.67   14.50
  -4  -1  -4  621.30   12.86
   4   1   4  623.38   13.57
  -4   1  -4  686.49   14.30
  -4  -1  -4  623.95   13.42
   4   1   4  641.53   13.81
  -4   1  -4  681.26   14.02
   4   1   5  603.25   12.51
   4  -1   5  575.84   12.62
  -4  -1  -5  635.46   13.20
   4   1   5  548.54   12.19
  -4   1  -5  526.88   10.83
  -4  -1  -5  551.14   11.85
  -4   1  -5  573.75   11.77
   4   1   5  575.15   12.43
   4   1   6 2605.46   28.15
   4  -1   6 2761.41   30.88
  -4  -1  -6 2799.39   30.24
   4   1   6 2632.22   29.97
  -4  -1  -6 2762.07   30.47
   4   1   7  934.94   21.90
   4  -1   7  956.86   22.94
  -4  -1  -7  958.76   22.46
   4   1   7  929.47   22.61
  -4  -1  -7 1044.16   24.77
   4   1   8  404.30    9.79
   4  -1   8  417.55   10.73
  -4  -1  -8  361.49    8.84
   4   1   8  382.99   10.38
  -4  -1  -8  411.70   10.27
   4   1   8  347.90   10.39
   4   1   9   88.45    5.40
   4  -1   9   84.55    5.49
   4   1   9  110.11    7.57
  -4  -1  -9   85.73    5.68
   4   1   9   90.25    5.73
  -4  -1 -10   93.72    3.88
   4   1  11 2082.64   57.57
   4  -1  11 2112.81   79.84
   4   1  11 2101.33   59.06
  -4  -1 -11 2387.99   89.92
   4   1  12  190.20    7.75
   4  -1  12  204.74    8.71
   4   1  12  224.15    9.82
  -4  -1 -12  216.83    8.89
   4   1  13   10.49    1.48
   4  -1  13    7.66    1.86
   4   1  13    5.87    2.89
   4  -1  14  213.40   11.02
   4   1  14  284.21   14.62
   4  -1  15  474.45   25.87
   4   1  15  423.87   23.41
   4  -1  16  340.37   19.64
   4   1  16  300.97   17.91
   4  -1  17   83.00    6.28
   4   1  17   60.00    5.01
   4  -2 -17   62.75    9.34
  -4  -2  17   55.50    7.02
   4   2 -17   34.00    8.01
  -4  -2  17   62.59    7.60
  -4   2  17   53.45    6.61
   4  -2 -16    1.76    1.34
  -4  -2  16    5.78    3.19
   4   2 -16   14.85    2.68
  -4  -2  16    6.57    2.07
  -4   2  16    5.93    3.03
   4  -2 -15   46.33   10.18
  -4  -2  15   54.20    4.77
   4   2 -15   48.50    4.51
  -4  -2  15   66.65    5.52
  -4   2  15   33.91    3.36
   4   2 -14  730.13   36.03
   4  -2 -14  687.60   33.78
   4   2 -14  754.28   36.83
  -4  -2  14  639.56   32.02
  -4   2  14  683.08   33.63
   4   2 -13  518.23   26.82
   4  -2 -13  501.45   25.58
   4   2 -13  509.26   26.16
  -4  -2  13  461.32   24.05
  -4   2  13  488.36   25.05
   4   2 -12  193.88   10.12
   4  -2 -12  174.12    9.62
   4   2 -12  194.32    9.40
  -4  -2  12  150.80    7.70
  -4   2  12  167.93    8.67
   4   2 -11  694.21   27.45
   4  -2 -11  732.87   28.37
   4   2 -11  681.55   26.52
  -4  -2  11  644.87   25.81
  -4   2  11  674.13   26.73
   4   2 -10  608.42   18.61
   4  -2 -10  666.85   19.54
   4   2 -10  573.33   17.12
  -4  -2  10  497.51   15.91
  -4   2  10  622.78   18.71
   4   2  -9 1069.40   31.50
   4  -2  -9 1305.54   37.10
   4   2  -9  976.11   27.98
  -4  -2   9 1063.42   31.08
  -4   2   9  963.99   27.89
   4   2  -8  679.85   17.71
   4   2  -8  630.82   15.95
  -4  -2   8  780.65   20.09
  -4   2   8  610.87   15.69
   4   2  -7   94.48   11.81
   4  -2  -7   66.56    4.74
   4   2  -7   74.24    5.39
  -4  -2   7   66.16    5.08
  -4   2   7   70.50    5.26
   4   2  -6  433.10   13.64
   4  -2  -6  448.35   11.53
   4  -2  -6  437.33   10.14
   4   2  -6  387.34   10.56
  -4  -2   6  430.04   11.98
  -4   2   6  357.51    9.88
   4   2  -5 1341.26   28.50
   4  -2  -5 1434.83   30.01
   4  -2  -5 1344.47   27.26
   4   2  -5 1277.11   26.90
   4  -2  -5 1384.02   27.93
  -4  -2   5 1453.63   31.08
   4   2  -4 1787.11   21.10
   4  -2  -4 1630.63   19.31
   4  -2  -4 1452.05   29.61
   4   2  -4 1797.67   21.33
   4  -2  -4 1578.68   17.25
  -4  -2   4 1692.88   20.95
  -4   2   4 1481.13   30.98
   4   2  -3  372.78   17.04
   4  -2  -3  371.59   17.13
   4  -2  -3  306.70   13.89
   4   2  -3  343.19   15.85
   4  -2  -3  345.80   15.45
  -4  -2   3  368.52   17.15
  -4   2   3  300.84   14.00
   4   2  -2  210.99   10.94
   4  -2  -2  251.28   11.81
   4  -2  -2  194.47    9.04
   4   2  -2  205.14    9.84
   4  -2  -2  231.41   10.50
  -4  -2   2  219.16   10.78
  -4   2   2  185.90    8.98
   4   2  -1 3648.49   40.46
  -4  -2   1 3528.92   38.22
   4  -2  -1 3521.67   38.91
   4   2  -1 3790.06   42.01
  -4  -2   1 3539.67   39.74
  -4   2   1 3465.05   38.34
   4   2   0   91.71    4.56
   4   2   0   79.45    4.81
   4   2   1 1980.13   22.13
  -4  -2  -1 1920.90   21.03
   4  -2   1 1952.70   22.66
  -4  -2  -1 1831.81   21.62
  -4   2  -1 1858.53   21.10
   4   2   2   47.68    4.46
  -4  -2  -2   33.87    1.76
   4  -2   2   38.09    2.66
   4   2   2   56.80    3.94
  -4   2  -2   41.95    3.45
  -4  -2  -2   33.27    2.42
  -4   2  -2   48.73    2.71
   4   2   3  491.44   10.26
  -4  -2  -3  574.98   11.79
   4  -2   3  557.56   12.51
  -4   2  -3  500.38   11.63
   4   2   3  518.94   11.87
  -4   2  -3  485.92   10.44
  -4  -2  -3  527.91   11.87
  -4   2  -3  546.17   11.60
   4   2   4 2472.82   28.53
  -4   2  -4 2384.54   26.01
   4  -2   5 1448.06   34.45
  -4   2  -5 1167.55   28.71
   4   2   5 1371.50   32.77
  -4   2  -5 1138.74   26.48
  -4  -2  -5 1412.72   33.64
  -4   2  -5 1403.93   32.60
   4  -2   6  399.18   10.60
  -4   2  -6  348.51   11.99
   4   2   6  392.56   10.58
  -4  -2  -6  420.09   11.08
  -4   2  -6  338.05    9.42
  -4   2  -6  371.65    8.71
   4  -2   7   79.47    5.55
  -4   2  -7   50.12    4.54
   4   2   7   57.07    4.18
  -4  -2  -7   69.45    5.01
   4  -2   8  688.12   20.10
  -4   2  -8  850.76   25.68
   4   2   8  894.85   25.77
  -4  -2  -8  779.25   22.41
   4  -2   9  805.04   23.33
  -4   2  -9  906.95   27.59
   4   2   9  954.06   27.45
  -4  -2  -9  879.76   25.17
   4  -2  10  623.09   18.48
  -4   2 -10  597.55   19.16
   4   2  10  563.69   16.77
  -4  -2 -10  651.87   19.09
   4  -2  11   54.22    3.78
  -4   2 -11   75.08    5.35
   4   2  11   47.49    3.34
  -4  -2 -11   41.33    3.68
   4  -2  12  248.68   11.42
  -4   2 -12  301.99   14.73
   4   2  12  288.31   12.82
  -4  -2 -12  301.84   13.80
   4  -2  13  480.12   23.95
  -4   2 -13  526.02   26.87
   4   2  13  471.29   23.33
  -4  -2 -13  494.01   24.41
   4  -2  14  664.66   35.86
  -4   2 -14  739.52   40.64
   4   2  14  627.66   33.87
   4  -2  15   25.83    3.02
  -4   2 -15   22.26    3.61
   4   2  15   18.38    2.89
   4  -2  16   62.58    5.36
  -4   2 -16   51.85    6.05
   4   2  16   57.23    4.88
   4  -2  17   68.65    7.16
   4   2  17   63.81    6.76
   4  -3 -16   98.60   12.21
  -4  -3  16  101.38   11.06
   4   3 -16  128.94   13.92
  -4  -3  16   91.52   10.21
  -4   3  16  108.10   11.51
   4  -3 -15  109.83    8.26
  -4  -3  15  122.98    8.93
   4   3 -15  103.79    7.81
  -4  -3  15  103.58    7.87
  -4   3  15   93.03    7.21
   4  -3 -14  132.04    8.33
  -4  -3  14  118.83    8.35
   4   3 -14  134.24    9.09
  -4  -3  14  107.27    8.02
  -4   3  14  148.16    9.39
   4  -3 -13   19.22    4.31
  -4  -3  13   14.52    2.99
   4   3 -13   23.37    3.46
  -4  -3  13    8.33    2.68
  -4   3  13   14.29    2.90
   4  -3 -12   95.88    7.45
  -4  -3  12  103.42    6.74
   4   3 -12  104.53    6.26
  -4  -3  12   77.84    6.30
  -4   3  12  103.98    6.46
   4  -3 -11  372.11   19.20
  -4  -3  11  348.37   18.49
   4   3 -11  300.86   15.92
  -4  -3  11  284.30   15.60
  -4   3  11  323.44   17.29
   4  -3 -10   78.92    4.88
  -4  -3  10   64.10    4.63
   4   3 -10   72.69    4.81
  -4  -3  10   68.50    5.05
  -4   3  10   74.18    4.86
   4  -3  -9   34.05    2.75
  -4  -3   9   27.39    2.90
   4   3  -9   32.79    3.23
  -4  -3   9   38.50    3.87
  -4   3   9   35.90    2.82
   4  -3  -8  268.42   21.08
  -4  -3   8  259.20   20.70
   4   3  -8  221.61   17.65
  -4  -3   8  240.98   19.39
  -4   3   8  235.21   18.87
   4  -3  -7  106.81    8.83
  -4  -3   7  109.83    9.30
   4   3  -7   46.44    5.11
  -4  -3   7  104.59    8.99
   4  -3  -6  333.67   10.73
  -4  -3   6  284.74    9.51
   4   3  -6  310.25   10.14
   4  -3  -6  293.30    9.76
  -4  -3   6  325.37   10.92
   4  -3  -5   25.57    2.74
  -4  -3   5   24.21    2.23
   4   3  -5   30.72    2.62
   4  -3  -5   22.21    0.78
   4  -3  -5   27.56    0.94
   4  -3  -5   24.91    2.68
  -4  -3   5   24.87    3.31
   4  -3  -4  143.09    9.01
  -4  -3   4  112.47    7.35
   4  -3  -4  117.93    6.97
   4   3  -4  174.41   11.22
   4  -3  -4  122.82    7.22
   4  -3  -4  127.67    8.33
  -4  -3   4  120.82    8.10
   4  -3  -3  536.59   12.82
   4   3  -3  585.64   15.37
   4  -3  -3  552.24   14.54
  -4  -3   3  546.91   14.52
   4  -3  -2  335.05   10.39
  -4  -3   2  275.65   16.44
   4  -3  -2  291.79   17.07
   4   3  -2  390.99   10.80
   4  -3  -2  301.19   18.08
  -4  -3   2  295.35   17.98
   4  -3  -1  105.31    6.83
  -4  -3   1   81.82    5.38
  -4   3   1  183.34   11.13
   4  -3  -1  118.78    7.29
   4   3  -1  164.96   10.70
   4  -3  -1  104.71   10.08
  -4  -3   1   91.35    6.15
  -4  -3   0   45.41    2.94
   4  -3   0   27.97    2.61
  -4  -3   0   45.86    3.18
  -4   3   0   37.78    3.09
   4   3   0   55.29    4.16
   4  -3   0   32.40    4.24
  -4  -3   0   46.84    4.13
  -4  -3  -1  224.97   13.15
   4  -3   1  256.51   15.51
  -4  -3  -1  228.89   13.44
  -4   3  -1  139.69    8.87
   4   3   1  131.53    8.31
   4  -3   1  258.40   17.21
  -4  -3  -1  207.65   12.77
  -4  -3  -2  323.37    9.15
   4  -3   2  359.32    9.89
  -4  -3  -2  317.80   18.45
  -4   3  -2  223.97   13.58
   4   3   2  249.30   14.98
   4  -3   2  352.62   10.84
  -4  -3  -2  313.07   18.70
  -4  -3  -3  191.10   11.07
   4  -3   3  204.22   12.53
  -4  -3  -3  223.00   12.92
  -4   3  -3  220.64   13.71
   4   3   3  236.83   14.35
   4  -3   3  208.99   12.64
  -4  -3  -3  200.17   12.38
   4  -3   4   83.53    6.00
  -4   3  -4   72.57    7.39
   4   3   4  102.64    6.68
   4  -3   4   87.06    5.57
  -4   3  -4   61.50    3.90
  -4  -3  -4  108.66    7.26
   4  -3   5  113.78    4.58
  -4   3  -5  114.97    9.49
   4   3   5   99.45    4.38
  -4  -3  -5  114.45    4.67
   4  -3   6  680.42   20.12
  -4   3  -6  691.58   21.17
   4   3   6  647.35   19.09
  -4  -3  -6  685.30   20.34
   4  -3   7  113.17    9.29
  -4   3  -7   87.29    8.15
   4   3   7   94.01    7.84
  -4  -3  -7  141.90   11.73
   4  -3   8  200.68   16.01
  -4   3  -8  234.43   23.79
   4   3   8  260.86   20.50
  -4  -3  -8  241.75   19.24
   4  -3   9   16.40    2.90
  -4   3  -9   14.38    3.14
   4   3   9   18.12    2.46
  -4  -3  -9   15.18    2.31
   4  -3  10  187.90    9.19
  -4   3 -10  182.90   14.12
   4   3  10  175.23    8.61
  -4  -3 -10  198.70    9.61
   4  -3  11  249.48   13.39
  -4   3 -11  362.98   19.61
   4   3  11  382.20   19.79
   4  -3  12  197.62   11.70
  -4   3 -12  236.72   18.67
   4   3  12  272.21   15.46
  -4  -3 -12  223.76   12.92
   4  -3  13   39.46    4.23
  -4   3 -13   48.53   14.43
   4   3  13   72.66    5.32
  -4  -3 -13   40.65    7.95
   4  -3  14  128.96    9.59
  -4   3 -14  116.79   10.36
   4   3  14   92.06    6.98
  -4  -3 -14  112.96    8.15
   4  -3  15  117.81   12.43
  -4   3 -15  109.51   12.86
   4   3  15  114.18   11.87
   4  -4 -14  131.79   15.33
  -4  -4  14  171.57   17.84
   4   4 -14  141.85   14.93
  -4  -4  14  132.08   14.10
  -4   4  14  125.75   13.44
   4  -4 -13   35.81    7.61
  -4  -4  13   54.59    5.57
   4   4 -13   60.00    5.11
  -4  -4  13   27.23    4.47
  -4   4  13   66.17    5.56
   4  -4 -12  101.01    6.66
  -4  -4  12   75.81    6.03
   4   4 -12   87.73    6.49
  -4  -4  12   50.96    5.38
  -4   4  12  109.78    7.58
  -4  -4  11  129.48    8.54
   4   4 -11  119.75    7.83
  -4  -4  11   99.85    7.38
  -4   4  11  110.41    7.49
   4  -4 -10  347.96   19.18
  -4  -4  10  312.07   17.82
   4   4 -10  245.42   14.15
   4  -4 -10  324.58   18.59
  -4  -4  10  294.86   16.88
   4  -4  -9   66.79    4.89
  -4  -4   9   55.24    4.55
   4   4  -9   38.71    3.90
   4  -4  -9   54.61    4.39
  -4  -4   9   54.42    4.78
   4  -4  -8   10.05    2.42
  -4  -4   8    1.00    2.05
   4   4  -8   12.73    2.64
   4  -4  -8   12.00    3.21
  -4  -4   8    3.48    2.52
   4  -4  -7   27.72    2.54
  -4  -4   7   33.40    3.23
   4   4  -7   43.16    4.06
   4  -4  -7   30.50    3.48
  -4  -4   7   41.17    3.59
   4  -4  -6   54.62    3.75
  -4  -4   6   33.98    3.07
   4   4  -6   24.32    3.19
   4  -4  -6   54.12    9.61
  -4  -4   6   41.70    3.84
   4  -4  -5   70.45    4.09
  -4  -4   5   61.53    3.67
   4   4  -5   33.81    3.12
   4  -4  -5   55.50   10.06
  -4  -4   5   61.84    4.90
   4  -4  -4  349.16   14.16
  -4  -4   4  312.74   12.82
   4   4  -4  304.98   13.01
   4  -4  -4  311.93   13.82
  -4  -4   4  315.05   13.43
   4  -4  -3   11.20    3.10
  -4  -4   3    5.25    1.62
   4   4  -3   12.35    3.12
   4  -4  -3    7.84    2.18
  -4  -4   3    7.78    3.52
   4  -4  -2   15.12    2.24
  -4  -4   2   10.47    1.74
  -4   4   2   11.41    1.83
   4   4  -2    9.09    3.22
   4  -4  -2   11.07    3.12
  -4  -4   2   12.39    2.83
   4  -4  -1  200.91   15.98
  -4  -4   1  170.56   13.38
  -4   4   1  210.44   17.21
   4   4  -1  192.21   15.37
   4  -4  -1  197.41   16.02
  -4  -4   1  143.77   12.01
   4  -4   0  251.13   19.81
  -4  -4   0  276.54   21.42
  -4   4   0  113.44    9.42
   4   4   0  151.81   12.28
   4  -4   0  230.25   18.45
  -4  -4   0  267.07   21.12
   4  -4   1  288.56   12.00
  -4  -4  -1  293.42   11.38
  -4   4  -1  220.86   17.43
   4   4   1  280.89   22.23
   4  -4   1  261.41   20.60
  -4  -4  -1  269.70   21.33
   4  -4   2   13.48    2.88
  -4   4  -2   15.45    2.94
   4   4   2   17.01    2.99
   4  -4   2   13.50    2.73
  -4  -4  -2   14.30    2.65
   4  -4   3  189.96   15.34
  -4   4  -3   94.70   11.52
   4   4   3   86.67    7.77
   4  -4   3  173.50   14.14
  -4  -4  -3  147.18   12.19
   4  -4   4   75.44    4.49
  -4   4  -4   75.28    7.86
   4   4   4   67.43    4.18
   4  -4   4   69.17    7.69
  -4  -4  -4   58.88    4.31
   4  -4   5  114.30    5.72
  -4   4  -5   68.53   12.09
   4   4   5   68.89    4.10
   4  -4   5  108.58    6.04
  -4  -4  -5  128.80    6.89
   4  -4   6   14.44    3.01
  -4   4  -6    1.39    1.73
   4   4   6    8.17    1.81
   4  -4   6   11.31    3.79
  -4  -4  -6   28.60    3.42
   4  -4   7   32.28    3.03
  -4   4  -7   38.08    8.91
   4   4   7   45.10    3.15
  -4  -4  -7   54.79    4.61
   4  -4   8  269.90   14.63
  -4   4  -8  184.04   17.10
   4   4   8  179.73    9.95
  -4  -4  -8  261.38   14.14
   4  -4   9  243.62   12.73
  -4   4  -9  213.38   12.70
   4   4   9  210.72   11.27
  -4  -4  -9  245.62   12.92
   4  -4  10   23.57    3.31
  -4   4 -10   45.69    9.52
   4   4  10   50.50    3.93
  -4  -4 -10   16.24    2.94
   4  -4  11  147.20    9.41
  -4   4 -11  153.01   14.04
   4   4  11  198.19   11.37
  -4  -4 -11  160.74   10.84
   4  -4  12   60.18    5.49
  -4   4 -12   30.23    9.27
   4   4  12   40.62    3.79
  -4  -4 -12   36.82   10.24
   4  -4  13  148.55   15.60
  -4   4 -13  106.66   12.29
   4   4  13  112.56   11.91
  -4  -4 -13  119.04   13.89
   4  -4  14   64.82    7.09
   4   4  14   87.29    8.87
  -4  -4 -14   77.20   10.42
   4  -5 -11  295.03   29.45
  -4  -5  11  204.21   20.92
   4   5 -11  290.65   29.40
   4  -5 -11  246.22   25.04
  -4  -5  11  202.09   20.87
   4  -5 -10   30.05    3.53
  -4  -5  10   36.39    4.26
   4   5 -10   30.56    4.74
   4  -5 -10   51.50    5.58
  -4  -5  10   33.48    4.52
   4  -5  -9    5.21    2.40
  -4  -5   9    0.98    1.91
   4   5  -9    7.56    2.73
   4  -5  -9    7.13    2.89
  -4  -5   9    4.92    2.99
   4  -5  -8   12.51    2.25
  -4  -5   8    7.75    2.90
   4   5  -8    6.68    2.79
   4  -5  -8   12.98    4.82
  -4  -5   8   14.30    3.05
   4  -5  -7   29.76    2.90
  -4  -5   7   29.10    3.40
   4   5  -7   14.36    3.18
   4  -5  -7   27.17    5.87
  -4  -5   7   33.37    4.27
   4  -5  -6   65.81    5.15
  -4  -5   6   55.34    4.24
   4   5  -6   72.78    6.22
   4  -5  -6   45.47    9.20
  -4  -5   6   55.99    5.12
   4  -5  -5   11.52    1.79
  -4  -5   5   11.94    2.07
   4   5  -5   16.57    3.66
   4  -5  -5   15.50    3.26
  -4  -5   5    9.54    3.68
   4  -5  -4   88.83    5.99
  -4  -5   4   73.07    4.85
   4   5  -4   85.56    6.47
   4  -5  -4   57.94   13.20
  -4  -5   4   55.41    4.53
   4  -5  -3  104.79    6.42
  -4  -5   3  102.61    5.97
   4   5  -3   75.86    5.47
   4  -5  -3  100.27    7.82
  -4  -5   3   89.85    6.28
   4  -5  -2  123.18    7.13
  -4  -5   2  130.01    6.92
   4   5  -2  112.47    6.87
   4  -5  -2  109.46    8.49
  -4  -5   2  110.88    6.83
   4  -5  -1   23.91    3.10
  -4  -5   1   27.74    2.15
  -4   5   1   14.46    4.10
   4   5  -1   34.79    3.54
   4  -5  -1   19.61    5.44
  -4  -5   1   33.41    3.72
   4  -5   0   24.12    3.35
  -4   5   0   17.32    4.03
   4   5   0   39.72    4.06
   4  -5   0   27.37    5.90
  -4  -5   0   32.05    4.00
   4  -5   1   36.24    3.45
  -4   5  -1   14.27    4.33
   4   5   1   19.24    3.27
   4  -5   1   41.37    9.43
  -4  -5  -1   31.43    3.38
   4  -5   2   85.24    5.73
  -4   5  -2   56.97    4.70
   4   5   2   63.12    4.48
   4  -5   2   84.55    8.86
  -4  -5  -2   84.39    6.33
   4  -5   3   22.18    3.63
  -4   5  -3   17.28    4.34
   4   5   3   17.24    2.58
   4  -5   3   22.92    5.95
  -4  -5  -3   40.83    4.47
   4  -5   4   73.54    5.89
  -4   5  -4   72.11    8.82
   4   5   4   76.79    5.63
   4  -5   4   63.92    6.82
  -4  -5  -4   62.17    5.21
   4  -5   5   20.16    3.08
  -4   5  -5   16.35    4.69
   4   5   5    8.71    2.00
   4  -5   5   13.11    3.32
  -4  -5  -5   18.29    3.56
   4  -5   6  113.89    7.29
  -4   5  -6  119.96    8.34
   4   5   6   98.20    6.55
  -4  -5  -6  124.93    8.48
   4  -5   7   93.70    6.56
  -4   5  -7   56.75   15.74
   4   5   7   66.28    4.71
  -4  -5  -7  106.62    7.67
   4  -5   8   37.91    4.50
  -4   5  -8   22.66    6.51
   4   5   8   44.17    4.61
  -4  -5  -8   44.80    4.55
   4  -5   9   11.51    3.56
  -4   5  -9    5.12    2.66
   4   5   9    4.20    1.73
  -4  -5  -9    3.35    2.79
   4  -5  10   95.85   10.42
  -4   5 -10   42.08    8.82
   4   5  10   53.56    6.00
  -4  -5 -10   71.15   14.44
   4  -5  11  207.98   19.75
  -4   5 -11  226.00   24.34
   4   5  11  237.16   21.99
  -4  -5 -11  231.16   21.92
   4  -6  -6    4.09    2.95
  -4  -6   6    7.98    2.55
   4   6  -6    8.05    2.95
  -4  -6   6    5.52    2.43
   4  -6  -5   17.52    2.88
   4   6  -5   24.36    4.41
   4  -6  -5   13.73    6.18
  -4  -6   5   22.44    3.97
   4  -6  -4   70.63    7.98
   4   6  -4   80.74    9.09
   4  -6  -4   35.57   11.71
  -4  -6   4   44.74    5.81
   4  -6  -3   27.09    4.54
   4   6  -3   42.74    6.29
  -4  -6   3   49.51    6.27
   4  -6  -2    3.52    2.75
   4   6  -2    4.87    2.97
   4  -6  -2    3.36    2.01
  -4  -6   2    5.18    2.50
   4  -6  -1   31.21    3.27
   4   6  -1   29.06    3.04
   4  -6  -1   21.09    7.54
  -4  -6   1   27.76    3.92
   4  -6   0   25.52    3.41
   4   6   0   29.01    3.24
   4  -6   0   12.90    6.63
  -4  -6   0   39.86    4.41
   4  -6   1    3.44    2.37
   4   6   1   17.96    2.90
   4  -6   1    2.53    1.49
  -4  -6  -1    5.45    2.65
   4  -6   2    6.15    3.18
   4   6   2    5.93    1.94
   4  -6   2    4.61    2.91
  -4  -6  -2   13.88    3.68
   4  -6   3   19.03    3.98
  -4   6  -3    9.67    2.87
   4   6   3   25.66    4.53
   4  -6   3    5.95    5.45
  -4  -6  -3   27.25    4.74
   4  -6   4   77.89    8.68
  -4   6  -4   65.29   10.11
   4   6   4   88.59    9.58
  -4  -6  -4  101.37   11.49
   4  -6   5   16.24    3.69
  -4   6  -5   13.99    5.59
   4   6   5   26.88    3.98
  -4  -6  -5    9.53    2.58
   5   0 -17  123.17   16.21
  -5   0  17  118.03   12.72
   5   0 -16  116.86   11.91
  -5   0  16  111.74    9.12
   5   0 -15    6.36    3.11
  -5   0  15    7.74    2.39
   5   0 -14   45.59   10.32
  -5   0  14   36.20    3.48
   5   0 -13  658.85   34.50
   5   0 -13  661.59   33.04
  -5   0  13  625.17   32.04
   5   0 -12 1531.59   76.13
   5   0 -12 1487.68   60.97
  -5   0  12 1487.46   61.67
   5   0 -11   50.66    7.67
   5   0 -11   48.82    2.78
  -5   0  11   42.23    3.56
   5   0 -10  633.94   19.01
   5   0 -10  654.35   18.75
  -5   0  10  626.47   19.32
   5   0  -9  264.80    8.79
   5   0  -9  282.30    8.83
  -5   0   9  252.05    9.02
   5   0  -8 1466.52   34.98
   5   0  -8 1547.65   36.45
  -5   0   8 1281.65   31.41
   5   0  -7  814.84   19.98
   5   0  -7  830.22   19.91
  -5   0   7  798.10   20.16
   5   0  -6    4.45    3.03
   5   0  -6    2.70    1.89
  -5   0   6   10.46    3.84
   5   0  -5  991.47   23.89
   5   0  -5 1082.82   25.71
  -5   0   5 1088.06   26.71
   5   0  -4  970.75   20.64
   5   0  -4 1085.69   22.69
  -5   0   4 1080.83   23.29
   5   0  -3 4585.09   50.20
   5   0  -3 4888.67   53.16
  -5   0   3 4639.20   51.59
   5   0  -2  930.53   19.82
   5   0  -2  922.17   19.48
  -5   0   2  945.18   20.42
   5   0  -1   98.39    5.22
   5   0  -1   93.01    4.79
  -5   0   1   96.86    5.30
   5   0   0 2214.60   24.94
   5   0   0 2145.07   24.36
  -5   0   0 2296.61   26.12
   5   0   1 4048.41   44.14
   5   0   1 3814.37   41.89
  -5   0  -1 3959.57   43.42
   5   0   2 2116.76   23.94
   5   0   2 1939.36   22.44
  -5   0  -2 2074.53   23.51
   5   0   3  796.87   16.89
   5   0   3  740.07   16.13
  -5   0  -3  804.02   16.98
   5   0   3  662.92   14.15
   5   0   4 1782.43   20.23
   5   0   4 1734.97   20.56
  -5   0  -4 1842.26   20.84
   5   0   4 1620.40   18.53
   5   0   5 1965.84   45.96
   5   0   5 1896.96   44.75
  -5   0  -5 1932.86   45.02
   5   0   6 1272.12   30.12
   5   0   6 1243.92   29.89
  -5   0  -6 1140.33   26.71
   5   0   6 1210.92   28.36
   5   0   7  202.16   12.16
   5   0   7  145.00    9.28
  -5   0  -7  169.03    9.98
   5   0   7  177.17   10.42
   5   0   8   55.65    2.74
   5   0   8   60.71    4.37
  -5   0  -8   51.24    2.00
   5   0   8   52.38    1.87
   5   0   9  953.47   26.97
   5   0   9 1066.10   30.90
   5   0  10 4645.03  174.32
   5   0  10 4872.54  183.47
   5   0  11   20.32    2.08
   5   0  11   15.48    4.87
   5   0  12   79.46    4.35
   5   0  12   94.77    6.46
   5   0  13   89.45    5.26
   5   0  13  102.83    6.93
   5   0  14  485.95   26.14
   5   0  14  608.97   33.29
   5   0  15  298.03   17.75
   5   0  16   53.70    4.98
   5   0  17   -0.90    2.19
   5   1 -17   27.64    4.22
   5  -1 -17   18.70    6.77
  -5  -1  17   32.87    5.03
  -5   1  17   26.81    3.97
   5   1 -16   38.43    9.99
   5  -1 -16   36.53    8.28
   5   1 -16   33.38   10.51
  -5  -1  16   57.13    5.57
  -5   1  16   62.64    5.17
   5   1 -15  326.53   22.07
   5  -1 -15  308.18   20.60
   5   1 -15  362.83   19.96
  -5  -1  15  297.34   17.26
  -5   1  15  369.09   20.60
   5   1 -14  332.84   19.30
   5  -1 -14  338.04   21.85
   5   1 -14  354.55   19.68
  -5  -1  14  319.60   18.42
  -5   1  14  326.08   18.59
   5   1 -13   70.02   11.71
   5  -1 -13   42.32    7.91
   5   1 -13   62.40    4.60
  -5  -1  13   39.26    4.01
  -5   1  13   80.34    5.92
   5   1 -12  115.26    7.41
   5  -1 -12  124.45    9.80
   5   1 -12  109.14    6.05
  -5  -1  12   98.25    6.05
  -5   1  12  115.66    6.73
   5  -1 -11  153.40    9.47
   5  -1 -11  146.74    5.99
  -5  -1  11  131.24    7.23
   5   1 -10  889.05   25.97
   5  -1 -10  983.75   28.69
   5  -1 -10  920.66   25.72
   5   1 -10  907.95   26.00
  -5  -1  10  823.34   24.69
  -5   1  10  915.42   26.86
   5   1  -9  455.91   13.88
   5  -1  -9  414.72   12.83
   5  -1  -9  420.82   12.05
   5   1  -9  485.52   14.44
  -5  -1   9  386.92   12.90
  -5   1   9  497.77   15.84
   5   1  -8   70.30    6.13
   5  -1  -8   67.91    3.39
   5   1  -8   71.63    3.67
   5  -1  -8   71.43    2.93
  -5   1   8   53.93    1.99
  -5  -1   8   69.91    4.22
  -5   1   8   60.23    3.90
   5   1  -7  319.17   19.00
   5  -1  -7  227.04   13.79
   5  -1  -7  223.38   13.19
   5   1  -7  310.96   18.56
  -5   1   7  299.63   17.48
  -5  -1   7  241.21   15.18
  -5   1   7  323.75   10.84
   5   1  -6 1398.39   33.46
   5  -1  -6 1326.51   31.77
   5   1  -6 1465.05   34.77
   5  -1  -6 1244.39   29.14
  -5  -1   6 1339.41   32.61
  -5   1   6 1394.30   33.74
   5   1  -5 1407.99   33.32
   5  -1  -5 1347.17   32.24
   5   1  -5 1513.76   35.88
   5  -1  -5 1325.81   31.11
  -5  -1   5 1346.50   32.62
  -5   1   5 1461.86   35.27
   5   1  -4   15.31    2.19
   5  -1  -4   13.02    1.88
   5   1  -4   13.30    2.10
   5  -1  -4   16.38    1.79
  -5  -1   4   10.08    2.17
  -5   1   4   10.52    2.88
   5   1  -3  198.76    9.29
   5  -1  -3  313.25   14.51
   5   1  -3  221.07   10.57
   5  -1  -3  317.19   14.37
  -5  -1   3  343.51   16.14
  -5   1   3  220.13   10.67
   5   1  -2 2052.14   24.44
   5  -1  -2 2407.71   27.54
   5   1  -2 2385.52   27.29
  -5   1   2 2333.60   27.03
   5   1  -1 2155.64   24.06
   5  -1  -1 2342.29   26.86
   5   1  -1 2466.51   28.20
  -5  -1   1 2427.93   28.05
   5  -1   0 2214.55   25.47
   5   1   0 2210.19   25.56
   5  -1   0 2032.17   23.05
  -5  -1   0 2100.40   24.49
  -5   1   0 2247.65   25.62
   5   1   1   74.60    3.90
   5  -1   1   55.83    3.51
  -5  -1  -1   41.38    2.35
   5   1   1   73.27    4.44
   5  -1   1   57.92    3.63
  -5   1  -1   54.37    3.00
  -5  -1  -1   45.16    3.11
  -5   1  -1   76.81    4.34
   5   1   2  998.18   20.68
   5  -1   2  886.20   18.93
  -5  -1  -2  827.67   17.16
   5   1   2  981.88   20.94
   5  -1   2  893.97   19.01
  -5   1  -2  796.32   16.81
  -5  -1  -2  910.00   19.45
  -5   1  -2  910.18   19.03
   5   1   3 3519.90   38.21
   5  -1   3 3405.53   37.78
  -5  -1  -3 3122.28   33.89
   5   1   3 3261.98   36.57
  -5  -1  -3 3388.27   37.63
  -5   1  -3 3242.28   35.36
   5   1   4  640.24   15.33
   5  -1   4  534.08   13.43
   5   1   4  610.22   15.30
  -5   1  -4  584.09   14.00
  -5  -1  -4  518.55   12.95
  -5   1  -4  634.23   15.16
   5   1   5   77.01    4.87
   5  -1   5   69.91    4.90
  -5  -1  -5   62.14    3.91
   5   1   5   69.80    4.83
  -5   1  -5   72.10    4.58
  -5  -1  -5   64.48    4.42
  -5   1  -5   87.79    5.34
   5   1   6  372.52    9.19
   5  -1   6  408.80   10.71
  -5  -1  -6  424.71   10.34
   5   1   6  356.38    9.68
  -5   1  -6  309.01   17.91
  -5  -1  -6  406.82   10.33
  -5   1  -6  327.40    9.24
   5  -1   7 1568.57   37.21
   5   1   7 1585.54   37.87
  -5  -1  -7 1449.10   34.11
   5  -1   8 1573.54   44.28
   5   1   8 1459.67   41.39
  -5  -1  -8 1523.23   42.50
   5   1   9  325.43    9.47
   5  -1   9  332.52   10.46
   5   1   9  323.17   10.70
  -5  -1  -9  307.67    9.21
   5   1  10   30.49    1.98
   5  -1  10   48.96    3.08
   5   1  10   26.72    2.86
  -5  -1 -10   45.46    5.57
   5   1  11 1226.69   50.11
   5  -1  11 1144.96   47.24
   5   1  11 1164.78   48.32
   5  -1  12  591.42   29.75
   5   1  12  574.50   29.25
   5  -1  13  296.91   14.98
   5   1  13  216.67   11.53
   5  -1  14   22.98    2.47
   5   1  14   26.49    3.82
   5  -1  15   26.30    2.69
   5   1  15   38.41    4.30
   5  -1  16  162.32   16.54
   5   1  16  163.29   16.71
   5   2 -16   68.80    8.18
   5  -2 -16   34.70   11.69
   5   2 -16   64.69    7.81
  -5  -2  16   42.81    5.67
  -5   2  16   76.02    8.51
   5   2 -15   26.68    4.44
   5  -2 -15   17.07    4.84
   5   2 -15   19.87    2.96
  -5  -2  15   24.67    3.68
  -5   2  15   24.16    3.36
   5   2 -14   88.00    6.51
   5  -2 -14  110.24    8.69
   5   2 -14  102.48    6.91
  -5  -2  14   82.58    6.70
  -5   2  14   93.86    6.69
   5   2 -13  124.53    8.21
   5  -2 -13  133.12   11.99
   5   2 -13  148.95    9.27
  -5  -2  13  119.25    8.33
  -5   2  13  137.32    8.69
   5   2 -12  215.46   13.52
   5  -2 -12  216.11   11.47
   5   2 -12  201.63   10.80
  -5  -2  12  186.41   11.10
  -5   2  12  201.31   11.07
   5   2 -11  106.06   12.54
   5  -2 -11  168.57   10.56
   5   2 -11  113.55    6.40
  -5  -2  11  131.00    7.25
  -5   2  11  121.99    6.66
   5   2 -10   22.57    3.36
   5  -2 -10   17.60    2.31
   5   2 -10   20.44    2.51
  -5  -2  10   19.97    4.00
  -5   2  10   17.62    2.94
   5   2  -9  273.56   23.67
   5  -2  -9  227.24   17.94
   5   2  -9  281.26   22.18
  -5  -2   9  210.42   17.03
  -5   2   9  271.10   21.63
   5   2  -8  254.87   20.53
   5  -2  -8  168.18   13.44
   5   2  -8  247.45   19.57
  -5  -2   8  203.42   16.66
  -5   2   8  221.23   17.91
   5   2  -7 1279.66   38.49
   5  -2  -7 1194.95   34.02
   5   2  -7 1242.29   35.39
  -5  -2   7 1185.16   34.47
  -5   2   7 1140.97   32.90
   5   2  -6    3.69    1.90
   5  -2  -6    5.01    2.28
   5   2  -6    1.04    2.38
   5  -2  -6    3.26    0.94
  -5  -2   6    0.82    3.00
  -5   2   6    5.51    2.55
   5   2  -5  295.37   17.67
   5  -2  -5  313.69   18.77
   5  -2  -5  212.08   12.55
   5   2  -5  283.67   17.29
   5  -2  -5  304.80   17.77
  -5  -2   5  326.49   11.35
  -5   2   5  240.09   14.63
   5   2  -4  738.36   19.27
   5  -2  -4  757.62   18.88
   5   2  -4  752.82   18.81
   5  -2  -4  720.30   17.10
  -5  -2   4  790.04   20.08
  -5   2   4  658.69   16.73
   5   2  -3  830.22   20.41
   5  -2  -3  964.74   23.64
   5  -2  -3  717.30   17.37
   5   2  -3  830.45   20.47
   5  -2  -3  892.50   21.07
  -5   2   3  717.31   17.94
   5   2  -2  287.77   17.09
   5  -2  -2  304.55   18.22
   5  -2  -2  212.06   12.62
   5   2  -2  288.10   17.24
   5  -2  -2  278.56   16.36
  -5  -2   2  281.80   17.01
  -5   2   2  256.76   15.49
   5   2  -1   55.01    6.41
   5  -2  -1   94.81    6.69
   5   2  -1   45.63    4.08
   5  -2  -1   84.57    5.29
  -5  -2   1   67.70    4.77
  -5   2   1   48.12    3.65
   5  -2   0  637.19   15.95
   5  -2   0  707.44   17.27
  -5  -2   0  670.66   16.93
  -5   2   0  790.06   19.29
   5   2   1 1780.82   41.76
  -5  -2  -1 1678.56   39.03
   5  -2   1 1989.89   46.95
   5   2   1 1792.43   42.47
  -5  -2  -1 1875.33   44.36
  -5   2  -1 1894.55   44.49
   5   2   2  845.10   20.76
  -5  -2  -2  943.92   22.14
   5  -2   2 1082.39   26.29
   5   2   2  976.21   24.12
  -5  -2  -2  957.85   23.34
  -5   2  -2  983.66   23.47
   5   2   3   52.13    3.34
   5  -2   3   62.21    4.71
  -5  -2  -3   66.04    4.03
   5   2   3   60.38    4.43
  -5   2  -3   34.80    4.22
  -5  -2  -3   65.01    4.75
  -5   2  -3   53.13    3.75
   5  -2   4  711.62   17.79
  -5  -2  -4  670.84   15.74
   5   2   4  785.22   19.62
  -5  -2  -4  673.38   16.84
  -5   2  -4  776.75   18.48
   5  -2   5 1010.36   24.68
   5   2   5 1007.77   24.69
  -5  -2  -5  941.54   23.06
  -5   2  -5  982.24   27.34
   5  -2   6  363.17   11.41
   5   2   6  326.38   10.35
  -5  -2  -6  362.56   11.20
  -5   2  -6  310.26    8.76
   5  -2   7  448.81   13.79
   5   2   7  448.27   13.70
  -5  -2  -7  456.96   13.74
   5  -2   8  367.98   11.58
   5   2   8  390.03   12.52
  -5  -2  -8  432.07   13.13
   5  -2   9  658.77   25.66
   5   2   9  640.88   25.31
  -5  -2  -9  714.07   27.56
   5  -2  10  665.37   27.92
   5   2  10  643.49   27.31
  -5  -2 -10  734.94   30.53
   5  -2  11  234.16   12.47
   5   2  11  215.44   11.80
  -5  -2 -11  238.92   13.01
   5  -2  12  139.89    7.66
   5   2  12  148.14    8.28
  -5  -2 -12  145.45    8.25
   5  -2  13  263.72   14.84
   5   2  13  331.29   18.47
   5  -2  14  198.74   12.08
   5   2  14  186.49   11.32
   5  -2  15  133.72    8.92
   5   2  15  116.82    8.13
   5  -2  16   57.24    6.56
   5   2  16   44.78    5.27
  -5  -3  15  303.60   28.37
   5   3 -15  307.75   28.65
  -5  -3  15  275.55   25.95
   5  -3 -14   21.19    4.89
  -5  -3  14   18.71    3.22
   5   3 -14    2.45    2.03
  -5  -3  14   29.57    4.78
  -5   3  14   14.84    3.69
   5  -3 -13   88.81   10.86
  -5  -3  13   89.27    7.20
   5   3 -13   53.32    4.88
  -5  -3  13   87.15    7.30
  -5   3  13   73.80    5.66
   5  -3 -12    4.66    3.13
  -5  -3  12   13.57    3.34
   5   3 -12    3.86    2.18
  -5  -3  12    3.37    2.56
  -5   3  12    9.11    3.34
   5  -3 -11  302.83   16.89
  -5  -3  11  297.29   17.16
   5   3 -11  245.77   13.98
  -5  -3  11  264.00   15.62
  -5   3  11  240.79   14.08
   5  -3 -10  214.93   11.61
   5   3 -10  209.15   11.66
  -5  -3  10  187.85   11.19
  -5   3  10  193.69   11.07
   5   3  -9  234.76   12.84
   5  -3  -9  270.02   14.38
   5   3  -9  242.81   13.22
  -5  -3   9  238.26   13.34
  -5   3   9  218.31   11.94
   5   3  -8   47.09    4.14
   5  -3  -8   54.56    4.06
   5   3  -8   33.23    3.02
  -5  -3   8   42.48    4.75
  -5   3   8   33.47    2.94
   5   3  -7   47.62    3.64
   5  -3  -7   55.82    3.86
   5   3  -7   55.47    4.57
  -5  -3   7   59.66    4.39
  -5   3   7   38.49    3.03
   5   3  -6  652.15   19.69
   5  -3  -6  666.54   19.70
   5   3  -6  652.53   19.61
  -5  -3   6  667.26   20.54
  -5   3   6  547.23   16.85
   5   3  -5  731.15   22.02
   5  -3  -5  789.48   23.01
   5   3  -5  748.30   22.30
  -5  -3   5  738.49   22.48
  -5   3   5  658.02   19.83
   5   3  -4  197.00   15.80
   5  -3  -4  226.32   17.90
   5   3  -4  235.71   19.06
   5  -3  -4  190.52   14.70
  -5  -3   4  192.33   15.81
  -5   3   4  194.62   15.61
   5   3  -3   73.64    6.55
   5  -3  -3   68.07    6.22
   5   3  -3   84.88    7.52
   5  -3  -3   64.81    5.21
  -5  -3   3   62.42    6.12
  -5   3   3   66.85    6.05
   5   3  -2  247.76    8.19
   5  -3  -2  371.09   11.65
   5   3  -2  282.13    9.31
   5  -3  -2  356.15   10.45
  -5  -3   2  329.43   10.99
  -5   3   2  278.79    9.10
   5   3  -1  187.10    6.37
   5   3  -1  206.10    7.35
  -5   3   1  176.84    6.32
   5  -3   0 2827.38  216.37
   5   3   0 2709.91  207.39
  -5  -3   0 2564.80   71.96
  -5   3   0 2601.19   72.43
   5  -3   1  373.88   11.82
  -5  -3  -1  380.29   11.23
   5   3   1  374.93   11.87
  -5  -3  -1  353.22   11.35
  -5   3  -1  321.60   10.22
   5  -3   2  540.26   16.29
  -5  -3  -2  504.23   14.33
   5   3   2  518.67   15.64
  -5  -3  -2  468.72   14.45
  -5   3  -2  555.50   16.23
   5  -3   3  441.37   13.59
  -5   3  -3  386.96   12.56
   5   3   3  381.15   11.78
  -5  -3  -3  379.56   12.11
  -5   3  -3  433.23   12.72
   5  -3   4  646.15   19.15
  -5   3  -4  488.11   15.14
   5   3   4  544.18   16.40
  -5  -3  -4  642.67   19.18
  -5   3  -4  550.29   15.74
   5  -3   5  126.84   10.44
  -5   3  -5  100.40    8.66
   5   3   5  126.42   10.48
  -5  -3  -5  132.38   10.97
  -5   3  -5  115.25    9.09
   5  -3   6   47.90    3.33
  -5   3  -6   51.63    4.59
   5   3   6   63.46    4.02
  -5  -3  -6   52.71    3.97
  -5   3  -6   64.63    2.99
   5  -3   7  496.13   19.84
  -5   3  -7  452.70   18.93
   5   3   7  481.11   19.46
  -5  -3  -7  516.17   20.58
   5  -3   8  382.37   16.70
  -5   3  -8  375.05   17.41
   5   3   8  378.31   16.64
  -5  -3  -8  417.26   18.07
   5  -3   9  172.98    9.56
  -5   3  -9  136.33    9.32
   5   3   9  206.84   11.59
  -5  -3  -9  208.12   11.53
   5  -3  10  175.26    9.51
  -5   3 -10  197.83   11.63
   5   3  10  254.89   13.65
  -5  -3 -10  246.29   12.72
   5  -3  11  157.17    9.64
  -5   3 -11  162.35   11.12
   5   3  11  152.31    9.49
  -5  -3 -11  151.46   11.55
   5  -3  12  189.42   11.57
  -5   3 -12  237.60   14.63
   5   3  12  218.70   13.18
  -5  -3 -12  193.73   13.65
   5  -3  13  161.86   11.73
  -5   3 -13  171.43   13.78
   5   3  13  169.21   12.18
  -5  -3 -13  141.17   12.50
   5  -3  14  255.53   25.84
  -5   3 -14  216.95   22.45
   5   3  14  234.90   23.72
   5  -4 -13   69.88    9.27
  -5  -4  13   87.03    9.20
   5   4 -13   63.01    7.01
  -5  -4  13   59.78    7.40
  -5   4  13   56.95    6.45
   5  -4 -12  183.55   18.71
  -5  -4  12  174.78   18.09
   5   4 -12  159.78   16.84
  -5  -4  12  149.70   15.87
  -5   4  12  175.27   18.11
   5  -4 -11    2.53    2.09
  -5  -4  11    4.67    2.26
   5   4 -11    7.64    2.74
  -5  -4  11    2.09    2.55
  -5   4  11    5.61    3.33
   5  -4 -10   23.13    3.09
  -5  -4  10   17.11    2.86
   5   4 -10   10.58    2.86
  -5  -4  10    5.90    2.80
  -5   4  10   17.99    3.38
   5  -4  -9   88.48    6.23
  -5  -4   9   84.61    6.59
   5   4  -9   98.68    7.34
  -5  -4   9   76.40    6.36
  -5   4   9   85.40    5.93
   5  -4  -8  198.88   11.60
  -5  -4   8  188.08   11.10
   5   4  -8  207.57   12.73
  -5  -4   8  179.38   11.63
  -5   4   8  198.82   11.86
   5  -4  -7  582.48   28.51
  -5  -4   7  474.75   23.68
   5   4  -7  641.75   31.84
  -5  -4   7  552.86   27.91
  -5   4   7  524.47   26.00
   5  -4  -6   26.07    3.29
  -5  -4   6   15.17    2.38
   5   4  -6   29.60    3.46
  -5  -4   6   30.31    4.61
   5  -4  -5   26.90    2.84
  -5  -4   5   19.08    2.85
   5   4  -5   27.84    3.61
  -5  -4   5   36.19    4.69
   5  -4  -4  189.56    9.03
  -5  -4   4  142.22    7.05
   5   4  -4  147.97    8.13
   5  -4  -4  155.09    7.92
  -5  -4   4  175.56    8.94
   5  -4  -3  212.24    9.93
  -5  -4   3  179.00    8.32
   5   4  -3  237.14   11.35
   5  -4  -3  175.72    8.91
  -5  -4   3  128.67    7.44
   5  -4  -2  131.97    6.81
  -5  -4   2  146.43    6.84
   5   4  -2  153.21    7.72
   5  -4  -2  135.57    7.14
  -5  -4   2  120.44    6.78
   5  -4  -1   49.19    3.97
  -5  -4   1   56.40    3.39
   5   4  -1   80.20    5.30
   5  -4  -1   38.82    2.96
  -5  -4   1   60.28    4.50
   5  -4   0  383.93   16.75
  -5  -4   0  339.35   14.26
   5   4   0  294.54   13.30
   5  -4   0  365.69   15.92
  -5  -4   0  302.40   13.70
   5  -4   1  287.54   12.93
  -5   4  -1  323.98   14.24
   5   4   1  306.58   13.61
   5  -4   1  283.21   12.65
  -5  -4  -1  248.17   11.60
   5  -4   2  160.71    8.00
  -5   4  -2  163.29    8.08
   5   4   2  162.67    7.82
   5  -4   2  162.40    7.76
  -5  -4  -2  150.98    7.75
   5  -4   3   66.10    4.29
  -5   4  -3   59.18    4.04
   5   4   3   73.90    4.32
   5  -4   3   64.66    3.89
  -5  -4  -3   85.23    5.18
   5  -4   4  226.60   12.62
  -5   4  -4  180.46   10.24
   5   4   4  142.85    8.27
  -5  -4  -4  187.42   10.64
   5  -4   5  256.33   13.84
  -5   4  -5  215.14   11.89
   5   4   5  189.52   10.28
  -5  -4  -5  201.46   11.26
   5  -4   6  137.26    7.95
  -5   4  -6   94.98    6.85
   5   4   6  109.66    6.53
  -5  -4  -6  125.51    7.77
   5  -4   7  135.69    8.12
  -5   4  -7  144.99    8.73
   5   4   7  167.84    9.39
  -5  -4  -7  143.89    8.56
   5  -4   8   17.07    2.86
  -5   4  -8   20.90    3.50
   5   4   8   23.98    2.75
  -5  -4  -8   24.18    3.02
   5  -4   9   57.63    4.49
  -5   4  -9   56.06   13.04
   5   4   9   47.97    3.84
  -5  -4  -9   58.78    4.89
   5  -4  10  174.25   12.39
  -5   4 -10  218.49   15.72
   5   4  10  194.14   11.87
  -5  -4 -10  167.79   10.55
   5  -4  11  111.14    8.04
  -5   4 -11   74.23    6.68
   5   4  11   84.89    6.62
  -5  -4 -11  105.89    7.31
   5  -4  12   16.72    3.34
  -5   4 -12   23.29    5.56
   5   4  12   13.15    3.35
  -5  -4 -12   11.78    3.01
   5  -5  -9   17.24    2.87
   5   5  -9   15.92    3.83
  -5  -5   9    9.80    3.42
  -5   5   9   10.59    2.92
   5  -5  -8    1.50    2.03
  -5  -5   8    6.98    2.52
   5   5  -8    3.62    2.61
   5  -5  -8    0.47    2.25
  -5  -5   8    1.77    2.50
   5  -5  -7   24.69    3.51
  -5  -5   7   22.01    2.81
   5   5  -7   33.24    5.09
   5  -5  -7   19.02    4.18
  -5  -5   7   27.11    4.02
   5  -5  -6   70.90    5.83
  -5  -5   6   72.47    5.79
   5   5  -6   97.35    7.71
   5  -5  -6   67.10    6.22
  -5  -5   6   83.15    6.92
   5  -5  -5   75.31    5.60
  -5  -5   5   80.49    5.61
   5   5  -5  106.66    7.44
   5  -5  -5   91.04    7.34
  -5  -5   5   74.70    5.94
   5  -5  -4   21.28    2.88
  -5  -5   4   32.42    2.84
   5   5  -4   17.66    3.44
   5  -5  -4   26.17    3.87
  -5  -5   4   36.90    3.90
   5  -5  -3   45.68    3.96
   5   5  -3   22.00    3.83
   5  -5  -3   36.66    4.17
  -5  -5   3   27.39    4.24
   5  -5  -2   37.40    3.92
   5   5  -2   51.12    4.73
   5  -5  -2   47.16    4.42
  -5  -5   2   41.83    4.70
   5  -5  -1   59.75    4.95
   5   5  -1   86.20    6.11
   5  -5  -1   36.65    9.60
  -5  -5   1   57.90    4.75
   5  -5   0    8.44    3.37
   5   5   0    7.68    2.04
   5  -5   0   -2.58    1.80
  -5  -5   0    5.29    2.23
   5  -5   1    3.30    2.56
  -5   5  -1   -1.48    1.37
   5   5   1    5.50    2.81
   5  -5   1    4.77    3.21
  -5  -5  -1    5.43    2.22
   5  -5   2   62.13    6.26
  -5   5  -2   31.64    3.63
   5   5   2   34.75    3.60
   5  -5   2   31.18    9.22
  -5  -5  -2   37.89    3.95
   5  -5   3  312.11   17.61
  -5   5  -3  270.80   15.60
   5   5   3  289.77   16.34
   5  -5   3  279.04   15.50
  -5  -5  -3  243.24   14.20
   5  -5   4   20.08    3.06
  -5   5  -4    5.29    1.53
   5   5   4   12.24    2.35
  -5  -5  -4   45.25    5.47
   5  -5   5   10.48    3.66
  -5   5  -5    4.49    2.55
   5   5   5    1.56    1.77
  -5  -5  -5    9.57    2.58
   5  -5   6   23.96    3.83
  -5   5  -6    7.72    3.52
   5   5   6   11.39    2.31
  -5  -5  -6   20.55    3.40
   5  -5   7   50.95    4.71
  -5   5  -7   49.54    7.98
   5   5   7   48.73    4.12
  -5  -5  -7   62.52    5.88
   5  -5   8   33.51    4.96
  -5   5  -8   22.98   10.10
   5   5   8   34.34    4.54
  -5  -5  -8   27.65    4.50
   5  -5   9    3.09    2.75
  -5   5  -9    4.41    2.17
   5   5   9    2.82    1.75
  -5  -5  -9   10.44    3.67
   5  -6  -1   43.99    5.50
   5   6  -1   33.55    4.97
   5  -6   0   18.98    3.32
   5   6   0   22.77    3.80
   5  -6   1   63.72    7.04
   6   0 -16  359.99   36.19
  -6   0  16  317.84   32.09
   6   0 -15  336.52   21.06
  -6   0  15  310.17   19.64
   6   0 -14    4.63    2.07
  -6   0  14    2.00    2.64
   6   0 -13   19.29    4.94
  -6   0  13   17.59    3.24
   6   0 -12  115.35    7.71
   6   0 -12  105.96    5.93
  -6   0  12   96.71    6.40
   6   0 -11 1322.28   66.53
   6   0 -11 1374.43   65.59
  -6   0  11 1192.44   59.77
   6   0 -10   10.81    2.25
   6   0 -10    8.31    1.55
  -6   0  10    4.19    2.63
   6   0  -9  243.68   10.46
   6   0  -9  253.59   10.32
  -6   0   9  239.39   10.91
   6   0  -8 1217.00   35.60
   6   0  -8 1329.57   37.29
  -6   0   8 1222.82   35.59
   6   0  -7 1508.86   43.62
   6   0  -7 1601.27   44.71
  -6   0   7 1527.25   43.75
   6   0  -6  518.07   15.43
   6   0  -6  562.93   16.43
  -6   0   6  623.51   19.55
   6   0  -5   41.30    3.13
   6   0  -5   41.36    2.61
  -6   0   5   33.23    2.99
   6   0  -4   92.14    6.05
   6   0  -4  100.22    6.53
  -6   0   4   92.45    6.36
   6   0  -3 3030.96   70.82
   6   0  -3 3137.81   87.04
  -6   0   3 3103.46   86.47
   6   0  -2  774.87   19.09
   6   0  -2  786.23   19.37
  -6   0   2  773.50   19.32
   6   0  -1   57.03    4.16
   6   0  -1   59.19    4.13
  -6   0   1   56.95    4.53
   6   0   0  321.69    9.89
   6   0   0  303.33   18.02
  -6   0   0  309.38   18.46
   6   0   1 2527.37   59.04
   6   0   1 2404.60   56.39
  -6   0  -1 2492.77   58.41
   6   0   2 2024.59   47.57
   6   0   2 1795.48   42.47
  -6   0  -2 1945.81   45.81
   6   0   3   24.75    2.39
   6   0   3   24.38    2.86
  -6   0  -3   27.58    2.56
   6   0   4   13.18    1.78
   6   0   4    8.41    2.92
  -6   0  -4   10.01    1.41
   6   0   5 1271.55   35.72
   6   0   5 1337.81   37.94
  -6   0  -5 1368.98   38.26
   6   0   6 1639.30   45.77
   6   0   6 1732.87   48.98
  -6   0  -6 1616.07   44.88
   6   0   7  701.36   20.17
   6   0   7  719.58   21.41
  -6   0  -7  639.20   18.02
   6   0   8   25.83    2.24
   6   0   8   20.27    2.71
  -6   0  -8   22.95    1.52
   6   0   9  190.73    8.12
   6   0   9  184.82    8.57
   6   0  10 1194.87   49.09
   6   0  10 1191.83   49.65
   6   0  11   23.91    2.34
   6   0  11   31.31    3.42
   6   0  12  126.93    7.50
   6   0  12  127.34    8.23
   6   0  13   -0.38    2.43
   6   0  14  470.34   28.80
   6   0  15  324.37   32.66
   6   1 -16   18.77    6.64
   6  -1 -16   24.57    8.11
  -6  -1  16   36.20    5.07
  -6   1  16   29.71    3.95
   6   1 -15   68.28   11.34
   6  -1 -15   49.44   11.61
  -6  -1  15   59.96    5.42
  -6   1  15   61.46    5.44
   6   1 -14  318.13   18.69
   6  -1 -14  290.37   17.85
   6   1 -14  345.31   19.91
  -6  -1  14  268.53   16.53
  -6   1  14  319.19   19.06
   6   1 -13  279.43   16.28
   6  -1 -13  267.25   17.09
   6   1 -13  285.56   16.01
  -6  -1  13  262.28   15.94
  -6   1  13  286.65   16.53
   6   1 -12    6.86    3.12
   6  -1 -12   20.67    3.07
   6   1 -12    8.20    2.32
  -6  -1  12   14.01    3.16
  -6   1  12    9.28    3.67
   6   1 -11   58.81    9.19
   6  -1 -11   63.62    7.73
   6   1 -11   64.19    4.83
  -6  -1  11   59.98    4.81
  -6   1  11   55.65    5.44
   6   1 -10 1229.06   50.76
   6  -1 -10 1333.13   55.07
   6   1 -10 1374.97   56.52
  -6  -1  10 1272.14   53.15
  -6   1  10 1386.54   57.80
   6   1  -9  824.75   32.23
   6  -1  -9  847.77   33.10
   6   1  -9  868.95   33.40
  -6  -1   9  771.42   30.55
  -6   1   9  804.07   31.62
   6   1  -8  273.25   21.50
   6  -1  -8  295.40   12.22
   6  -1  -8  263.22   20.36
   6   1  -8  290.98   12.08
  -6  -1   8  297.41   13.48
  -6   1   8  309.38   11.16
   6   1  -7   87.86   13.29
   6  -1  -7  111.77    9.39
   6   1  -7   95.49    8.09
   6  -1  -7  107.39    8.57
  -6  -1   7   99.16    9.39
  -6   1   7   96.80    8.53
   6   1  -6  433.11   15.31
   6  -1  -6  502.68   15.12
   6   1  -6  498.35   14.90
   6  -1  -6  497.05   14.32
  -6  -1   6  517.47   16.43
  -6   1   6  512.46   16.22
   6   1  -5  958.79   27.34
   6  -1  -5 1109.47   31.63
   6   1  -5 1081.76   30.82
   6  -1  -5 1118.24   31.47
  -6  -1   5 1114.49   32.41
  -6   1   5 1011.85   29.44
   6   1  -4 1489.37   42.37
   6  -1  -4 1777.90   49.99
   6   1  -4 1720.32   48.35
   6  -1  -4 1733.90   48.34
  -6  -1   4 1787.76   50.75
  -6   1   4 1783.49   50.45
   6   1  -3   36.07    3.89
   6  -1  -3   57.57    4.28
   6   1  -3   38.76    3.54
   6  -1  -3   51.53    3.71
  -6  -1   3   47.50    4.12
  -6   1   3   41.99    3.78
   6   1  -2  306.89   18.52
   6  -1  -2  304.01   18.18
   6   1  -2  347.44   10.74
   6  -1  -2  314.35   18.60
  -6  -1   2  334.76   10.77
  -6   1   2  384.61   10.59
   6   1  -1 1362.35   32.38
   6  -1  -1 1209.69   29.22
   6   1  -1 1352.30   32.45
   6  -1  -1 1073.43   25.68
  -6  -1   1 1229.92   29.76
  -6   1   1 1351.41   32.53
   6   1   0 1107.48   26.52
   6  -1   0  984.00   24.00
   6   1   0 1122.09   27.28
  -6  -1   0  974.31   23.88
  -6   1   0 1119.36   27.00
   6   1   1  127.16    8.00
   6  -1   1   82.50    5.49
   6   1   1  116.70    7.55
   6  -1   1   78.17    5.30
  -6  -1  -1   84.80    6.10
  -6   1  -1  132.58    8.27
   6   1   2  214.66   12.88
   6  -1   2  227.92   13.81
   6   1   2  230.26   13.98
   6  -1   2  227.53   13.68
  -6  -1  -2  244.91   14.95
  -6   1  -2  197.27   11.96
   6   1   3 1774.08   49.38
   6  -1   3 1673.47   46.98
   6   1   3 1665.98   46.88
   6  -1   3 1625.37   45.70
  -6  -1  -3 1704.69   47.81
  -6   1  -3 1536.35   42.88
   6   1   4  801.38   22.67
   6  -1   4  759.56   21.88
   6   1   4  741.49   21.71
   6  -1   4  763.10   22.32
  -6  -1  -4  809.10   23.32
  -6   1  -4  751.03   21.30
   6  -1   5  711.20   20.80
   6   1   5  665.22   19.83
   6  -1   5  684.13   20.22
  -6  -1  -5  676.87   19.71
  -6   1  -5  716.14   20.26
   6   1   6   84.13    6.78
   6  -1   6   94.71    8.07
   6   1   6   86.20    7.37
   6  -1   6   90.80    7.99
  -6  -1  -6   83.70    6.93
  -6   1  -6  100.52    7.90
   6   1   7  405.85   11.81
   6  -1   7  410.20   12.61
   6   1   7  425.48   13.39
   6  -1   7  430.33   13.51
  -6  -1  -7  412.63   12.19
   6   1   8  750.80   28.55
   6  -1   8  819.92   31.63
   6   1   8  817.65   31.88
   6  -1   8  833.23   32.64
  -6  -1  -8  804.43   30.70
   6   1   9  686.10   28.29
   6  -1   9  715.41   30.00
   6   1   9  647.04   27.53
  -6  -1  -9  573.98   23.77
   6  -1  10   75.09    5.09
   6   1  10   32.14    3.21
   6  -1  11   25.97    2.76
   6   1  11   23.38    3.27
   6  -1  12  304.98   16.86
   6   1  12  318.14   18.07
   6  -1  13  320.96   18.63
   6   1  13  340.04   20.07
   6  -1  14  101.14    6.88
   6   1  14  116.31    8.29
   6  -1  15   14.77    2.41
   6   1  15    0.67    2.33
   6   2 -15   31.26    4.44
   6  -2 -15   34.81   10.21
   6   2 -15   26.29    3.52
  -6  -2  15   53.79    6.56
  -6   2  15   43.86    6.49
   6   2 -14  218.58   15.17
   6  -2 -14  233.20   14.87
   6   2 -14  244.02   15.42
  -6  -2  14  217.29   14.59
  -6   2  14  208.09   13.56
   6   2 -13   27.19    6.94
   6  -2 -13   22.27    5.05
   6   2 -13   32.53    3.29
  -6  -2  13   27.48    4.48
  -6   2  13   40.76    4.21
   6   2 -12  267.52   18.36
   6  -2 -12  283.47   16.59
  -6  -2  12  252.16   15.41
  -6   2  12  219.10   12.93
   6   2 -11  484.96   26.94
   6  -2 -11  443.48   24.35
   6   2 -11  491.43   26.81
  -6  -2  11  377.81   21.68
  -6   2  11  514.19   28.32
   6   2 -10  289.10   15.33
   6  -2 -10  262.72   14.03
   6   2 -10  311.06   16.22
  -6  -2  10  250.79   14.38
  -6   2  10  320.67   17.34
   6   2  -9   23.56    4.63
   6  -2  -9   44.20    3.98
   6   2  -9   31.94    3.47
  -6  -2   9   32.56    4.04
  -6   2   9   25.87    3.41
   6   2  -8  308.45   14.06
   6  -2  -8  376.70   16.43
   6   2  -8  353.43   15.69
  -6  -2   8  376.73   17.23
  -6   2   8  315.07   14.53
   6   2  -7 1050.03   40.46
   6  -2  -7 1146.26   44.00
   6   2  -7 1072.17   41.29
  -6  -2   7 1036.18   40.72
  -6   2   7 1039.58   40.30
   6   2  -6  479.68   14.69
   6  -2  -6  510.69   15.59
   6   2  -6  482.91   14.84
  -6  -2   6  504.95   16.44
  -6   2   6  480.92   15.46
   6   2  -5   37.93    4.85
   6  -2  -5   35.24    4.27
   6   2  -5   43.11    4.98
   6  -2  -5   33.06    2.96
  -6  -2   5   28.65    4.03
  -6   2   5   36.06    3.95
   6   2  -4  164.34   13.21
   6  -2  -4  163.08   13.15
   6   2  -4  183.56   14.89
   6  -2  -4  143.81   11.29
  -6  -2   4  176.65   14.73
  -6   2   4  170.80   13.99
   6   2  -3  540.87   16.03
   6  -2  -3  523.12   15.88
   6   2  -3  561.44   16.91
   6  -2  -3  492.51   14.17
  -6  -2   3  546.76   17.21
  -6   2   3  550.91   16.70
   6   2  -2  989.92   28.44
   6  -2  -2  942.41   27.29
   6   2  -2 1023.69   29.45
   6  -2  -2  848.60   24.03
  -6  -2   2  887.79   26.07
  -6   2   2 1106.15   31.86
   6   2  -1 1504.36   42.47
   6  -2  -1 1617.80   45.70
   6   2  -1 1558.53   44.09
   6  -2  -1 1502.20   42.05
  -6  -2   1 1397.61   40.09
  -6   2   1 1822.64   51.30
   6   2   0 1229.85   34.76
   6  -2   0 1499.62   42.59
   6   2   0 1299.71   37.02
   6  -2   0 1337.36   37.55
  -6  -2   0 1280.91   36.57
  -6   2   0 1427.74   40.30
   6   2   1   99.74    4.93
   6  -2   1  162.05    5.80
   6   2   1  106.25    4.76
   6  -2   1  170.61    5.93
  -6  -2  -1  156.59    6.04
  -6   2  -1  127.58    4.98
   6  -2   2  601.93   17.85
   6   2   2  643.57   19.18
   6  -2   2  613.88   18.00
  -6  -2  -2  553.15   16.60
  -6   2  -2  630.60   18.18
   6   2   3  555.52   15.96
   6  -2   3  589.55   17.60
   6   2   3  649.58   19.38
  -6  -2  -3  527.15   15.97
  -6   2  -3  693.78   19.79
   6   2   4   32.13    3.14
   6  -2   4   29.30    3.94
   6   2   4   35.24    3.70
  -6  -2  -4   24.03    3.11
  -6   2  -4   46.41    3.95
   6   2   5  166.83   13.01
   6  -2   5  256.27   20.33
   6   2   5  210.79   16.83
  -6  -2  -5  229.04   18.10
  -6   2  -5  188.55   14.63
   6  -2   6  723.11   28.14
   6   2   6  729.49   28.53
  -6  -2  -6  711.41   27.51
   6  -2   7  436.86   18.87
   6   2   7  415.72   18.16
  -6  -2  -7  437.38   18.74
   6  -2   8   90.10    5.24
   6   2   8  106.26    5.84
  -6  -2  -8   93.04    4.89
   6  -2   9   22.46    3.04
   6   2   9   18.25    2.51
  -6  -2  -9   24.37    2.64
   6  -2  10  187.73   10.10
   6   2  10  153.29    8.77
  -6  -2 -10  170.59    8.81
   6  -2  11  241.80   13.76
   6   2  11  247.27   14.30
   6  -2  12   92.46    6.26
   6   2  12  108.02    7.70
   6  -2  13    2.07    3.25
   6   2  13    4.30    2.08
   6  -2  14   32.02    4.59
   6   2  14    4.05    2.19
   6  -3 -13  237.93   25.63
  -6  -3  13  222.68   22.73
   6   3 -13  262.22   26.42
  -6  -3  13  198.02   20.63
  -6   3  13  280.07   28.29
   6   3 -12  133.30    9.96
   6  -3 -12  112.94   10.70
   6   3 -12  124.03    9.23
  -6  -3  12   96.48    8.50
  -6   3  12  122.53    9.55
   6   3 -11   40.14    5.34
   6  -3 -11   38.82    3.62
   6   3 -11   33.58    3.89
  -6  -3  11   36.98    4.65
  -6   3  11   32.64    3.73
   6   3 -10  103.63    7.38
   6  -3 -10  134.17    8.34
   6   3 -10   99.09    7.00
  -6  -3  10  114.96    8.38
  -6   3  10  104.23    7.39
   6   3  -9  362.39   20.46
   6  -3  -9  351.51   19.50
   6   3  -9  352.73   19.67
  -6  -3   9  321.66   18.75
  -6   3   9  311.23   17.63
   6   3  -8  611.39   30.29
   6  -3  -8  600.88   29.64
   6   3  -8  600.59   29.75
  -6  -3   8  518.55   26.37
  -6   3   8  559.36   27.75
   6   3  -7  122.37    7.44
   6  -3  -7  115.20    6.99
   6   3  -7  112.64    6.98
  -6  -3   7   99.64    7.26
  -6   3   7   95.48    6.26
   6   3  -6   74.21   13.60
   6  -3  -6  119.42    6.65
   6   3  -6   84.14    5.36
  -6  -3   6  125.93    8.19
  -6   3   6   80.17    5.41
   6   3  -5  415.72   18.46
   6  -3  -5  454.76   19.69
   6   3  -5  422.35   18.65
  -6  -3   5  427.23   19.29
  -6   3   5  375.38   16.85
   6   3  -4  323.40   14.57
   6  -3  -4  353.43   15.56
   6   3  -4  342.62   15.16
  -6  -3   4  316.84   14.52
  -6   3   4  324.92   14.58
   6   3  -3  138.77    8.24
   6  -3  -3  157.48    7.93
   6   3  -3  166.90    7.82
   6  -3  -3  130.05    5.39
  -6  -3   3  131.92    6.78
  -6   3   3  142.84    6.97
   6   3  -2   60.91    8.47
   6  -3  -2  114.68    5.99
   6   3  -2   75.22    5.23
   6  -3  -2   96.68    4.39
  -6  -3   2   97.76    5.67
  -6   3   2   75.47    4.62
   6   3  -1  584.03   22.84
   6  -3  -1  821.57   32.00
   6   3  -1  679.94   26.65
   6  -3  -1  754.00   28.86
  -6  -3   1  707.40   27.99
  -6   3   1  707.29   27.54
   6   3   0  602.45   23.30
   6  -3   0  714.52   27.84
   6   3   0  639.09   25.07
   6  -3   0  818.08   31.44
  -6  -3   0  667.42   26.40
  -6   3   0  820.48   31.71
   6   3   1  146.29    6.24
   6  -3   1  142.29    7.06
   6   3   1  153.89    7.13
  -6  -3  -1  122.20    6.42
  -6   3  -1  169.59    7.38
   6   3   2    2.94    1.07
   6  -3   2    9.91    2.53
   6   3   2    2.46    2.19
  -6  -3  -2    1.42    2.23
  -6   3  -2    6.82    1.51
   6  -3   3  187.54    8.47
   6   3   3  103.87    6.24
  -6  -3  -3  147.62    6.97
  -6   3  -3  136.14    5.99
   6  -3   4  349.15   15.51
   6   3   4  319.95   14.68
  -6  -3  -4  322.57   14.37
  -6   3  -4  341.39   14.42
   6  -3   5  289.55   13.25
   6   3   5  310.87   14.01
  -6  -3  -5  275.09   12.36
   6  -3   6  146.15    8.29
   6   3   6  214.95   11.79
  -6  -3  -6  139.00    8.20
   6  -3   7  366.47   18.47
   6   3   7  351.87   18.14
  -6  -3  -7  359.49   18.24
   6  -3   8  101.54    6.67
   6   3   8   62.94    5.30
  -6  -3  -8   89.51    5.63
   6  -3   9  184.85   10.92
   6   3   9  215.02   13.12
  -6  -3  -9  216.15   12.46
   6  -3  10  124.86    7.90
   6   3  10  201.88   11.88
  -6  -3 -10  164.43    9.97
   6  -3  11   15.40    3.24
   6   3  11    0.12    2.14
  -6  -3 -11   11.31    2.47
   6  -3  12   47.71    5.07
   6   3  12   32.17    3.97
   6  -3  13   55.00    6.39
   6   3  13   55.52    6.29
   6  -4 -11  249.12   25.10
  -6  -4  11  224.92   23.04
   6   4 -11  261.64   26.49
  -6  -4  11  188.49   19.86
  -6   4  11  243.11   24.78
   6  -4 -10   78.88    5.97
  -6  -4  10   79.13    6.54
   6   4 -10   73.77    6.41
  -6  -4  10   74.08    7.39
  -6   4  10   58.71    4.84
   6  -4  -9    5.30    2.17
  -6  -4   9    1.78    2.83
   6   4  -9   11.01    3.52
  -6  -4   9    5.04    3.59
  -6   4   9   -0.24    2.30
   6  -4  -8   89.43    6.30
  -6  -4   8   59.10    5.13
   6   4  -8   70.63    5.76
  -6  -4   8   63.92    5.75
  -6   4   8   67.44    5.60
   6  -4  -7  184.10   10.85
  -6  -4   7  165.82   10.14
   6   4  -7  186.51   11.36
  -6  -4   7  177.19   11.31
  -6   4   7  167.68   10.40
   6  -4  -6   73.82    5.25
  -6  -4   6   70.64    5.57
   6   4  -6   78.31    6.01
  -6  -4   6   80.11    7.03
  -6   4   6   52.46    4.61
   6  -4  -5    8.52    2.25
  -6  -4   5    4.47    2.55
   6   4  -5    3.26    2.91
  -6  -4   5    5.79    3.92
  -6   4   5    6.12    3.49
   6  -4  -4   20.70    3.22
  -6  -4   4   21.64    2.49
   6   4  -4   27.40    3.51
  -6  -4   4   22.52    3.32
  -6   4   4   30.32    3.53
   6  -4  -3  321.16   16.56
  -6  -4   3  266.23   13.63
   6   4  -3  325.92   16.97
  -6  -4   3  283.93   15.09
  -6   4   3  277.42   14.36
   6  -4  -2  297.97   15.43
  -6  -4   2  264.34   13.34
   6   4  -2  289.05   15.23
  -6  -4   2  250.52   13.48
  -6   4   2  247.16   12.94
   6  -4  -1  187.80   10.20
   6   4  -1  243.77   13.06
  -6  -4   1  186.29   10.31
  -6   4   1  200.33   10.54
   6  -4   0  184.77    9.97
   6   4   0  149.37    8.40
  -6  -4   0  162.85    9.36
  -6   4   0  180.75    9.64
   6  -4   1   63.33    4.62
   6   4   1   37.55    3.57
  -6  -4  -1   40.32    3.75
  -6   4  -1   42.52    3.42
   6  -4   2  258.91   13.84
   6   4   2  212.12   11.67
  -6  -4  -2  196.20   10.85
  -6   4  -2  202.65   10.42
   6  -4   3  114.40    7.39
   6   4   3   94.03    6.27
  -6  -4  -3  137.57    8.12
  -6   4  -3   87.93    5.14
   6  -4   4   55.09    5.36
   6   4   4   55.83    4.75
  -6  -4  -4   42.98    3.70
   6  -4   5   37.02    4.63
   6   4   5   26.18    3.53
  -6  -4  -5   26.64    3.14
   6  -4   6  146.24    9.13
   6   4   6  109.03    6.89
  -6  -4  -6  120.96    8.29
   6  -4   7  102.37    7.46
   6   4   7   85.86    6.43
  -6  -4  -7  115.73    8.10
   6  -4   8   53.12    5.32
  -6   4  -8   41.93    5.22
   6   4   8   69.06    6.24
  -6  -4  -8   62.27    5.54
   6  -4   9   24.20    3.68
  -6   4  -9   23.82    4.10
   6   4   9   22.37    3.20
  -6  -4  -9   24.26    3.53
   6  -4  10  103.11   11.39
  -6   4 -10  108.82   12.14
  -6  -4 -10   90.92   10.10
   6  -5  -7    5.63    2.34
  -6  -5   7   10.32    2.28
   6   5  -7   11.20    3.80
  -6  -5   7   10.97    4.00
  -6   5   7    5.67    2.45
   6  -5  -6    9.19    3.17
  -6  -5   6    3.74    2.18
   6   5  -6    1.12    2.70
  -6  -5   6   15.22    4.90
  -6   5   6    0.56    2.23
   6  -5  -5   38.49    4.89
   6   5  -5   31.91    4.81
  -6  -5   5   27.51    4.44
  -6   5   5   12.72    2.74
   6  -5  -4  194.59   12.58
   6   5  -4  211.98   13.80
  -6  -5   4  171.14   11.58
  -6   5   4  159.61   10.72
   6  -5  -3   22.68    3.84
   6   5  -3    8.21    2.78
  -6  -5   3   22.50    3.47
  -6   5   3   10.02    3.02
   6  -5  -2   11.15    2.23
   6   5  -2   14.98    3.24
  -6  -5   2   16.28    3.25
  -6   5   2    7.17    1.67
   6  -5  -1   16.06    2.80
   6   5  -1   41.36    4.72
  -6  -5   1   23.24    4.11
  -6   5   1   38.43    4.07
   6  -5   0  186.10   13.09
   6   5   0  180.81   12.96
  -6  -5   0  178.68   13.15
  -6   5   0  149.85   10.69
   6  -5   1   61.42    6.30
   6   5   1   71.05    5.99
  -6  -5  -1   66.74    5.79
  -6   5  -1   78.53    6.62
   6  -5   2   35.55    4.67
   6   5   2   34.06    3.85
  -6  -5  -2   34.45    3.89
   6  -5   3   70.39    5.69
   6   5   3   72.16    5.56
  -6  -5  -3   61.48    5.83
   6  -5   4   51.73    5.21
   6   5   4   22.97    3.13
  -6  -5  -4   50.45    5.32
   6  -5   5   52.11    6.30
  -6   5  -5   45.48    5.99
   6   5   5   55.44    6.48
  -6  -5  -5   60.80    7.63
   6  -5   6   41.12    5.02
  -6   5  -6   40.95    5.46
   6   5   6   38.69    4.79
  -6  -5  -6   41.59    5.37
   7   0 -14  134.35   14.86
  -7   0  14  121.96   13.13
   7   0 -13   95.95    8.66
  -7   0  13   92.77    8.12
   7   0 -12    4.22    1.57
   7   0 -11 1646.66   88.30
  -7   0  11 1480.68   78.86
   7   0 -10   59.47    8.90
   7   0 -10   78.71    4.98
  -7   0  10   78.19    6.35
   7   0  -9  335.37   17.72
   7   0  -9  349.68   17.80
  -7   0   9  326.03   17.64
   7   0  -8   98.34    9.42
   7   0  -8  109.50    5.68
  -7   0   8  109.23    6.65
   7   0  -7   59.93    7.90
   7   0  -7   65.14    3.99
  -7   0   7   64.98    4.96
   7   0  -6  564.05   22.29
   7   0  -6  579.48   22.56
  -7   0   6  596.97   23.99
   7   0  -5  703.64   27.57
   7   0  -5  663.49   25.69
  -7   0   5  789.50   31.05
   7   0  -4   17.99    3.07
   7   0  -4   15.01    2.23
  -7   0   4   14.87    2.59
   7   0  -3   37.79    4.08
   7   0  -3   40.39    4.02
  -7   0   3   53.46    5.64
   7   0  -2  620.93   18.34
   7   0  -2  656.46   19.31
  -7   0   2  610.48   18.31
   7   0  -1  987.28   28.28
   7   0  -1 1010.01   28.99
  -7   0   1 1004.41   29.02
   7   0   0  491.83   14.97
   7   0   0  479.76   14.75
  -7   0   0  486.65   14.90
   7   0   1   15.47    3.34
   7   0   1    8.08    2.73
  -7   0  -1    4.80    1.97
   7   0   2  294.75   12.04
   7   0   2  293.63   12.33
  -7   0  -2  293.13   12.25
   7   0   3  290.59   11.80
   7   0   3  257.29   20.18
  -7   0  -3  293.04   12.03
   7   0   4 1163.46   44.28
   7   0   4 1131.30   43.54
  -7   0  -4 1237.80   50.87
   7   0   5   62.75    4.08
   7   0   5   36.54    2.81
  -7   0  -5   50.52    3.08
   7   0   6  186.84    8.42
   7   0   6  185.34    8.89
  -7   0  -6  192.04    8.45
   7   0   7  453.76   19.18
   7   0   7  406.72   17.73
   7   0   8  221.48   11.58
   7   0   8  249.00   13.51
   7   0   9   10.85    1.74
   7   0   9   10.40    2.70
   7   0  10  199.60   11.23
   7   0  10  211.26   13.10
   7   0  11  890.18   49.92
   7   0  12  290.78   19.77
   7   0  13   95.87   10.97
   7   0  14    3.28    2.71
   7   1 -14   55.46   16.08
   7  -1 -14   83.64   10.72
  -7  -1  14  109.68   12.60
  -7   1  14   97.69   11.29
   7   1 -13  368.61   22.51
   7  -1 -13  425.51   26.37
   7   1 -13  378.30   22.85
  -7  -1  13  379.18   23.57
  -7   1  13  416.13   25.73
   7   1 -12  545.41   31.30
   7  -1 -12  576.21   32.78
   7   1 -12  610.14   34.41
  -7  -1  12  560.57   32.40
  -7   1  12  597.42   34.34
   7   1 -11   92.78    9.53
   7  -1 -11  163.35    9.94
   7   1 -11  111.65    7.28
  -7  -1  11  134.38    9.51
  -7   1  11   92.44    7.42
   7   1 -10    4.40    2.02
   7  -1 -10    5.69    2.54
   7   1 -10    6.12    2.36
  -7   1  10    2.29    3.06
   7   1  -9  245.01   12.89
   7  -1  -9  279.03   14.91
   7   1  -9  278.67   14.28
  -7  -1   9  263.13   14.65
  -7   1   9  277.66   15.15
   7   1  -8  452.88   23.85
   7  -1  -8  519.98   26.53
   7  -1  -8  422.31   21.13
   7   1  -8  534.58   27.10
  -7  -1   8  488.58   25.55
  -7   1   8  495.00   25.77
   7   1  -7  269.62   12.13
   7  -1  -7  359.68   15.87
   7  -1  -7  361.37   15.30
   7   1  -7  302.78   13.28
  -7  -1   7  390.89   18.15
  -7   1   7  290.71   13.80
   7   1  -6   48.05    7.26
   7  -1  -6   55.96    4.38
   7   1  -6   51.24    3.78
   7  -1  -6   59.58    3.53
  -7  -1   6   92.07    6.45
  -7   1   6   77.63    5.32
   7   1  -5  125.19   11.56
   7  -1  -5   94.37    5.10
   7   1  -5  121.88    6.29
   7  -1  -5  100.52    4.80
  -7  -1   5  121.34    6.61
  -7   1   5  114.96    6.32
   7   1  -4 1119.41   42.84
   7  -1  -4 1213.09   50.19
   7   1  -4 1107.44   42.39
   7  -1  -4 1195.78   49.18
  -7  -1   4 1271.36   52.97
  -7   1   4 1182.32   49.16
   7   1  -3  396.10   12.26
   7  -1  -3  422.08   13.40
   7   1  -3  395.52   12.41
   7  -1  -3  413.75   12.53
  -7  -1   3  441.99   14.31
  -7   1   3  424.95   13.70
   7   1  -2  175.67   15.81
   7  -1  -2  212.17   16.95
   7   1  -2  172.09   13.87
   7  -1  -2  194.80   15.48
  -7  -1   2  204.15   16.46
  -7   1   2  247.07   19.84
   7   1  -1  168.51   13.38
   7  -1  -1  185.07   14.85
   7   1  -1  183.67   14.87
   7  -1  -1  168.41   13.38
  -7  -1   1  167.46   13.78
  -7   1   1  194.56   15.55
   7   1   0  303.82   12.20
   7  -1   0  354.55   11.19
   7   1   0  334.39   11.06
   7  -1   0  352.02   11.14
  -7  -1   0  379.53   12.52
  -7   1   0  312.68    9.98
   7   1   1 1169.56   33.02
   7  -1   1 1256.61   35.75
   7   1   1 1190.89   34.12
   7  -1   1 1159.63   32.95
  -7  -1  -1 1197.09   34.28
  -7   1  -1 1160.59   32.92
   7  -1   2  665.73   19.89
   7   1   2  582.89   17.60
   7  -1   2  591.79   17.54
  -7  -1  -2  646.58   19.22
  -7   1  -2  569.68   16.69
   7   1   3  162.86    7.33
   7  -1   3  174.93    8.05
   7   1   3  163.79    8.10
   7  -1   3  151.87    7.07
  -7  -1  -3  139.86    6.96
  -7   1  -3  173.87    7.47
   7   1   4  437.26   17.06
   7  -1   4  396.08   15.93
   7   1   4  430.78   17.48
   7  -1   4  406.86   16.70
  -7  -1  -4  394.36   15.87
  -7   1  -4  436.63   17.04
   7   1   5  603.27   25.09
   7  -1   5  540.85   22.80
   7   1   5  572.81   24.40
   7  -1   5  525.11   22.32
  -7  -1  -5  558.68   23.48
   7   1   6  425.75   17.98
   7  -1   6  396.55   17.05
   7   1   6  382.08   16.76
   7  -1   6  369.91   16.20
  -7  -1  -6  358.06   15.33
   7   1   7  101.06    5.63
   7  -1   7  108.57    6.40
   7   1   7   65.46    4.66
   7  -1   7   96.74    6.53
  -7  -1  -7   90.37    5.30
   7  -1   8   89.65    5.29
   7   1   8   83.75    5.58
   7  -1   8  104.99    6.95
  -7  -1  -8   84.13    4.76
   7  -1   9  474.86   25.72
   7   1   9  428.08   23.63
   7  -1   9  493.20   27.25
   7  -1  10  269.57   15.23
   7   1  10  254.87   14.78
   7  -1  10  254.56   14.70
   7  -1  11  517.64   29.27
   7   1  11  412.78   23.91
   7  -1  11  497.88   28.65
   7  -1  12   16.23    3.27
   7   1  12    5.41    2.28
   7  -1  12   14.65    4.24
   7  -1  13  222.95   22.43
   7   1  13  195.53   20.03
   7  -1  13  228.49   23.56
   7   2 -13   13.68    4.10
   7  -2 -13   20.74    5.46
   7   2 -13   13.38    2.59
  -7  -2  13   33.46    5.97
  -7   2  13   12.97    3.32
   7   2 -12   53.23   14.38
   7  -2 -12   57.49   11.23
   7   2 -12   89.42    7.10
  -7  -2  12   54.02    5.97
  -7   2  12   80.72    7.44
   7   2 -11  277.22   18.81
   7  -2 -11  309.43   20.83
   7   2 -11  269.77   18.35
  -7  -2  11  276.62   19.58
  -7   2  11  299.57   20.76
   7   2 -10  274.64   15.62
   7  -2 -10  340.25   18.92
   7   2 -10  310.24   17.22
  -7  -2  10  323.29   19.20
  -7   2  10  298.62   17.52
   7   2  -9  153.68    9.60
   7  -2  -9  239.08   13.97
   7   2  -9  164.40   10.20
  -7  -2   9  231.13   14.66
  -7   2   9  171.66   10.94
   7   2  -8  201.71   10.91
   7  -2  -8  232.79   12.43
   7   2  -8  217.01   11.65
  -7  -2   8  209.59   12.07
  -7   2   8  225.68   12.77
   7   2  -7   89.10   10.73
   7  -2  -7   49.76    4.14
   7   2  -7   95.73    6.42
  -7  -2   7   65.20    5.89
  -7   2   7   82.53    6.02
   7   2  -6  684.27   34.41
   7  -2  -6  697.81   35.24
   7   2  -6  727.03   36.75
  -7  -2   6  674.53   34.60
  -7   2   6  695.38   35.58
   7   2  -5  382.64   17.27
   7  -2  -5  427.23   18.57
   7   2  -5  388.95   16.99
   7  -2  -5  401.80   16.82
  -7  -2   5  449.28   20.27
  -7   2   5  431.89   19.36
   7   2  -4   60.36    8.05
   7  -2  -4   85.98    5.19
   7   2  -4   76.28    5.18
   7  -2  -4   88.00    4.49
  -7  -2   4  148.65    8.40
  -7   2   4  106.36    6.79
   7   2  -3  209.28   10.40
   7  -2  -3  254.28   11.69
   7   2  -3  199.78    9.33
   7  -2  -3  236.03   10.31
  -7  -2   3  263.34   12.49
  -7   2   3  265.35   12.43
   7   2  -2  611.98   23.82
   7  -2  -2  677.82   26.58
   7   2  -2  649.82   25.56
   7  -2  -2  633.88   24.41
  -7  -2   2  683.63   27.21
  -7   2   2  742.57   29.20
   7   2  -1  420.19   16.89
   7  -2  -1  465.50   19.03
   7   2  -1  431.79   17.48
   7  -2  -1  421.82   16.68
  -7  -2   1  444.08   18.18
  -7   2   1  489.63   19.54
   7   2   0  370.75   14.74
   7  -2   0  521.66   20.99
   7   2   0  405.71   16.73
   7  -2   0  476.85   18.74
  -7  -2   0  496.75   20.03
  -7   2   0  374.35   15.06
   7   2   1   22.89    3.71
   7   2   1   33.60    3.74
   7  -2   1   11.91    1.96
  -7  -2  -1   14.68    2.36
  -7   2  -1   25.16    2.46
   7   2   2  325.39   13.98
   7  -2   2  365.56   16.31
   7   2   2  365.84   16.12
   7  -2   2  307.64   13.41
  -7  -2  -2  358.93   16.02
  -7   2  -2  352.21   15.10
   7   2   3  777.78   32.05
   7  -2   3  751.58   31.49
   7   2   3  920.49   38.60
   7  -2   3  804.71   33.70
  -7  -2  -3  765.66   32.12
  -7   2  -3  874.44   36.05
   7  -2   4  607.61   25.79
   7   2   4  635.37   27.08
   7  -2   4  617.13   26.14
  -7  -2  -4  607.87   25.71
  -7   2  -4  576.85   23.93
   7  -2   5   93.85    6.11
   7   2   5   85.74    5.82
   7  -2   5   63.56    4.65
  -7  -2  -5   70.11    4.81
   7  -2   6  355.85   18.45
   7   2   6  395.16   20.53
   7  -2   6  395.01   20.57
  -7  -2  -6  372.51   19.29
   7  -2   7  163.58    8.94
   7   2   7  175.57   10.12
   7  -2   7  164.28    9.42
  -7  -2  -7  156.40    8.37
   7  -2   8  669.37   36.16
   7   2   8  715.50   38.82
  -7  -2  -8  671.22   36.07
   7  -2   9  168.33   10.15
   7   2   9  151.24    9.63
   7  -2  10   19.85    3.17
   7   2  10   13.53    3.20
   7  -2  11  211.53   13.60
   7   2  11  230.35   14.92
   7  -2  12  326.32   32.63
   7   2  12  310.15   31.33
   7   3 -11   23.28    3.79
   7  -3 -11   34.35    5.01
   7   3 -11   24.83    4.29
  -7  -3  11   43.74    6.65
  -7   3  11   14.26    2.66
   7   3 -10   50.14    5.01
   7  -3 -10   49.70    4.95
   7   3 -10   51.53    5.08
  -7  -3  10   41.44    4.99
  -7   3  10   51.82    4.85
   7   3  -9  139.56   10.26
   7  -3  -9  126.93    9.28
   7   3  -9  166.42   12.18
  -7  -3   9  118.11   10.06
  -7   3   9  158.88   11.87
   7   3  -8  157.66   10.55
   7  -3  -8  185.14   11.69
   7   3  -8  161.18   10.70
  -7  -3   8  152.26   10.44
  -7   3   8  149.13    9.83
   7   3  -7   19.81    6.73
   7  -3  -7   57.61    4.98
   7   3  -7   30.87    4.25
  -7  -3   7   67.92    6.34
  -7   3   7   35.03    4.16
   7   3  -6   18.49    3.83
   7  -3  -6   20.22    3.10
   7   3  -6   24.96    3.32
  -7  -3   6   23.99    4.15
  -7   3   6    6.73    2.52
   7   3  -5   68.02    9.36
   7  -3  -5   73.58    5.92
   7   3  -5   81.10    6.21
  -7  -3   5   72.26    6.43
  -7   3   5   69.99    5.34
   7   3  -4  240.71   13.19
   7  -3  -4  266.16   13.82
   7   3  -4  253.38   13.62
  -7  -3   4  237.18   13.11
  -7   3   4  249.58   13.13
   7   3  -3  320.86   17.56
   7  -3  -3  384.69   19.48
   7   3  -3  357.28   18.18
  -7  -3   3  359.48   18.80
  -7   3   3  371.49   18.82
   7   3  -2   46.46    5.79
   7  -3  -2   64.24    4.71
   7   3  -2   58.26    4.86
   7  -3  -2   55.86    3.32
  -7  -3   2   94.07    6.88
  -7   3   2   83.66    5.77
   7   3  -1  395.35   20.58
   7  -3  -1  515.22   26.30
   7   3  -1  467.38   23.96
   7  -3  -1  489.70   24.61
  -7  -3   1  462.92   23.99
   7   3   0   71.97    7.20
   7  -3   0  145.72    8.59
   7   3   0   94.02    6.61
   7  -3   0  126.71    6.99
  -7  -3   0  132.69    7.97
  -7   3   0   93.72    5.68
   7  -3   1  579.89   29.38
   7   3   1  645.39   32.75
   7  -3   1  628.20   31.53
  -7  -3  -1  581.61   29.56
  -7   3  -1  699.68   35.16
   7  -3   2  240.96   12.76
   7   3   2  262.22   13.88
  -7  -3  -2  231.50   12.50
  -7   3  -2  242.11   12.31
   7  -3   3   59.46    4.45
   7   3   3   66.14    5.25
   7  -3   3   78.06    5.19
  -7  -3  -3   84.52    5.59
  -7   3  -3   48.85    3.29
   7  -3   4  207.88   11.23
   7   3   4  204.69   11.12
  -7  -3  -4  166.73    9.21
   7  -3   5  308.99   17.40
   7   3   5  353.59   19.77
  -7  -3  -5  287.76   16.17
   7  -3   6  204.93   12.22
   7   3   6  245.45   14.82
  -7  -3  -6  193.23   11.35
   7  -3   7   82.15    6.10
   7   3   7  111.98    7.60
  -7  -3  -7   94.96    6.41
   7  -3   8   12.71    3.21
   7   3   8   27.71    3.64
  -7  -3  -8   21.73    2.95
   7  -3   9  136.08    9.28
   7   3   9  152.23   10.41
  -7  -3  -9  130.51    8.81
   7  -3  10  183.72   18.80
   7   3  10  242.23   24.76
   7  -3  11   84.98    8.60
   7   3  11  119.44   11.91
   7  -4  -9    4.27    2.36
  -7  -4   9   12.01    3.22
   7   4  -9    3.29    2.66
  -7   4   9    6.95    3.43
   7  -4  -8   28.81    4.08
  -7  -4   8   28.37    4.57
   7   4  -8   19.44    3.83
  -7  -4   8   17.95    3.83
  -7   4   8   32.95    4.88
   7  -4  -7   45.35    4.31
  -7  -4   7   28.29    3.57
   7   4  -7   24.49    4.37
  -7  -4   7   48.74    5.37
  -7   4   7   20.55    3.12
   7  -4  -6  142.33    9.88
  -7  -4   6  106.73    7.84
   7   4  -6  124.42    9.23
  -7  -4   6  144.97   10.81
  -7   4   6  109.96    8.04
   7  -4  -5  124.40    9.45
  -7  -4   5   78.02    6.32
   7   4  -5   99.88    8.43
  -7  -4   5  111.26    9.23
  -7   4   5   86.54    6.79
   7  -4  -4    8.96    3.69
  -7  -4   4    5.42    2.43
   7   4  -4    3.82    2.59
  -7  -4   4    4.11    2.66
  -7   4   4    9.01    2.55
   7  -4  -3   14.51    4.33
   7   4  -3    4.42    2.47
  -7  -4   3    4.13    2.36
  -7   4   3   11.36    3.25
   7  -4  -2   87.01    6.64
   7   4  -2   57.46    5.26
  -7  -4   2   64.37    5.72
  -7   4   2   55.87    4.82
   7  -4  -1  201.76   12.38
   7   4  -1  121.43    8.01
  -7  -4   1  177.46   11.19
  -7   4   1  155.02    9.93
   7  -4   0    3.51    2.72
   7   4   0   11.98    3.50
  -7  -4   0    5.07    3.35
  -7   4   0   11.76    2.40
   7  -4   1   13.95    3.11
   7   4   1   11.55    1.97
   7  -4   1    8.59    2.43
  -7  -4  -1    7.91    2.84
  -7   4  -1   13.83    2.11
   7  -4   2   48.84    4.88
   7   4   2   37.09    3.54
  -7  -4  -2   37.28    3.60
   7  -4   3  159.52   10.13
   7   4   3  119.21    8.03
  -7  -4  -3  148.51    9.40
   7  -4   4  141.65   10.51
   7   4   4  163.51   11.70
  -7  -4  -4  147.66   10.92
   7  -4   5   18.69    3.57
   7   4   5   18.39    3.29
  -7  -4  -5   28.56    3.93
   7  -4   6   74.97    6.17
   7   4   6   73.22    6.03
  -7  -4  -6   71.63    6.06
   7  -4   7   46.60    5.82
   7   4   7   41.63    5.37
  -7  -4  -7   42.73    5.24
   7  -4   8  123.68   12.17
   7   4   8  127.59   12.99
  -7  -4  -8  126.91   12.57
   7  -5  -1   11.68    3.56
   7   5  -1   16.09    3.67
   7  -5   0   69.25    7.54
   7   5   0   46.32    5.41
   8   0 -12    6.77    3.14
  -8   0  12    4.43    2.90
   8   0 -11    3.95    1.39
  -8   0  11    0.75    2.72
   8   0 -10  321.33   21.98
  -8   0  10  302.33   20.90
   8   0  -9  448.57   24.88
   8   0  -9  415.85   22.49
  -8   0   9  442.07   24.82
   8   0  -8  159.74   12.93
   8   0  -8  168.80    9.71
  -8   0   8  149.16    9.83
   8   0  -7   21.49    3.63
   8   0  -7   19.92    2.47
  -8   0   7   16.30    2.96
   8   0  -6  575.67   28.40
   8   0  -6  589.32   28.80
  -8   0   6  611.35   30.45
   8   0  -5 1291.28   62.10
  -8   0   5 1311.26   63.28
   8   0  -4  423.14   21.73
   8   0  -4  433.41   22.21
  -8   0   4  479.89   25.19
   8   0  -3  275.54   14.46
   8   0  -3  280.39   14.69
  -8   0   3  274.30   14.96
   8   0  -2  139.75    8.19
   8   0  -2  162.38    9.35
  -8   0   2  132.52    8.11
   8   0  -1  622.26   31.42
   8   0  -1  650.68   32.87
  -8   0   1  695.03   35.22
   8   0   0 1034.19   51.53
   8   0   0  945.48   47.23
  -8   0   0 1066.08   53.20
   8   0   1  171.74    9.35
   8   0   1  198.43   11.13
  -8   0  -1  208.70   11.58
   8   0   2   12.39    2.15
   8   0   2   18.82    3.58
  -8   0  -2   13.29    2.23
   8   0   3  899.43   44.80
   8   0   3  886.34   44.50
  -8   0  -3  961.70   48.00
   8   0   4  545.22   26.70
   8   0   4  522.24   25.92
  -8   0  -4  596.86   29.11
   8   0   5  373.35   18.45
   8   0   5  368.08   18.58
  -8   0  -5  335.12   16.59
   8   0   6   21.42    2.59
   8   0   6   16.70    2.57
   8   0   7  155.65    9.10
   8   0   7  158.77    9.65
   8   0   8  374.64   20.30
   8   0   8  334.89   18.61
   8   0   9  339.45   22.87
   8   0  10  169.55   11.40
   8   0  11  111.85   11.90
   8   1 -12  214.52   20.89
   8  -1 -12  251.50   23.44
  -8  -1  12  220.43   21.28
  -8   1  12  221.64   21.27
   8   1 -11   56.27   15.25
   8  -1 -11   22.79    4.31
   8   1 -11   67.21    7.27
  -8  -1  11   34.66    5.83
  -8   1  11   67.66    8.19
   8   1 -10  188.14   13.28
   8  -1 -10  175.72   12.75
   8   1 -10  206.54   14.05
  -8  -1  10  165.86   12.28
  -8   1  10  176.97   13.27
   8   1  -9   23.58    6.40
   8  -1  -9   29.69    5.52
   8   1  -9   36.02    3.22
  -8  -1   9   43.09    5.32
  -8   1   9   21.13    3.61
   8   1  -8  253.25   14.54
   8  -1  -8  259.99   17.79
   8   1  -8  284.46   15.88
  -8  -1   8  288.39   17.10
  -8   1   8  246.07   14.90
   8   1  -7  822.14   45.42
   8  -1  -7  845.98   45.51
   8   1  -7  872.72   46.71
  -8  -1   7  914.90   49.41
  -8   1   7  823.44   44.69
   8   1  -6  228.47   14.70
   8  -1  -6  242.00   13.97
   8   1  -6  248.13   14.21
   8  -1  -6  213.26   11.97
  -8  -1   6  247.37   14.63
  -8   1   6  245.42   14.35
   8   1  -5    4.50    3.14
   8  -1  -5    6.21    3.43
   8   1  -5   -1.98    1.97
   8  -1  -5   13.49    2.26
  -8  -1   5   12.92    2.92
  -8   1   5   21.02    4.65
   8   1  -4  111.50   10.64
   8  -1  -4  154.37    8.64
   8   1  -4  123.96    7.26
   8  -1  -4  155.61    8.23
  -8  -1   4  195.12   11.12
  -8   1   4  121.32    7.58
   8   1  -3  771.31   38.62
   8  -1  -3  719.04   36.27
   8   1  -3  808.94   40.63
   8  -1  -3  743.02   37.24
  -8  -1   3  803.87   40.97
  -8   1   3  825.83   41.82
   8   1  -2  648.87   33.94
   8  -1  -2  690.61   34.96
   8   1  -2  723.91   36.54
  -8  -1   2  733.63   37.19
  -8   1   2  681.00   34.42
   8   1  -1  278.38   14.43
   8  -1  -1  361.92   18.89
   8   1  -1  318.03   16.82
   8  -1  -1  353.28   18.24
  -8  -1   1  341.83   18.02
  -8   1   1  310.80   16.35
   8   1   0  105.42    6.17
   8  -1   0  147.02    8.57
   8   1   0  133.84    8.38
   8  -1   0  143.23    8.44
  -8  -1   0  157.61    9.21
  -8   1   0  111.83    6.97
   8   1   1  638.32   31.97
   8  -1   1  542.58   27.67
   8   1   1  642.04   32.67
   8  -1   1  498.86   25.37
  -8  -1  -1  553.54   28.37
  -8   1  -1  646.29   32.60
   8   1   2  717.14   35.88
   8  -1   2  622.36   31.48
   8   1   2  763.79   38.58
   8  -1   2  590.81   29.89
  -8   1  -2  759.72   38.06
   8   1   3  329.44   16.34
   8  -1   3  346.83   17.46
   8   1   3  328.43   17.00
   8  -1   3  313.34   15.91
  -8  -1  -3  360.44   18.43
  -8   1  -3  331.35   16.45
   8   1   4   75.52    4.50
   8  -1   4   73.38    4.75
   8   1   4   72.56    5.50
   8  -1   4   69.54    4.98
  -8  -1  -4   86.79    5.39
   8   1   5  320.06   15.76
   8  -1   5  305.77   15.61
   8   1   5  296.65   15.49
   8  -1   5  290.93   16.56
  -8  -1  -5  308.09   15.53
   8  -1   6  397.49   21.85
   8   1   6  331.14   18.71
   8  -1   6  335.93   18.87
  -8  -1  -6  306.51   16.90
   8  -1   7  426.04   23.10
   8   1   7  474.80   26.04
   8  -1   7  460.56   25.31
   8  -1   8   36.60    3.45
   8   1   8   31.98    3.62
   8  -1   8   29.55    3.42
   8  -1   9   22.03    2.77
   8   1   9   31.16    3.87
   8  -1   9   32.10    4.02
   8  -1  10  429.66   42.58
   8   1  10  536.08   53.32
   8  -1  10  427.82   26.07
   8  -1  11   79.84    8.53
   8   1  11   50.06    6.54
   8  -1  11   72.03    8.16
   8   2 -11   24.52    9.05
   8  -2 -11   63.40   14.05
   8   2 -11   66.63    7.28
  -8  -2  11   85.91    9.56
  -8   2  11   66.91    7.80
   8   2 -10   82.98   11.45
   8  -2 -10   76.56   10.08
   8   2 -10  116.61   12.45
  -8  -2  10   88.42   10.22
  -8   2  10  105.71   11.97
   8   2  -9  182.00   12.88
   8  -2  -9  157.63   10.66
   8   2  -9  160.25   10.53
  -8  -2   9  174.13   12.54
  -8   2   9  148.29   10.49
   8   2  -8  123.63   10.10
   8  -2  -8  136.53   10.16
   8   2  -8  150.96   11.02
  -8  -2   8  143.76   10.94
  -8   2   8  121.74    9.78
   8   2  -7   45.10    9.49
   8  -2  -7   49.80    4.38
   8   2  -7   52.65    4.43
  -8  -2   7   57.76    6.27
  -8   2   7   45.15    5.03
   8   2  -6  134.61    8.38
   8  -2  -6  188.83   11.27
   8   2  -6  162.69    9.91
  -8  -2   6  218.46   13.60
  -8   2   6  162.69   10.50
   8  -2  -5  543.09   29.73
   8   2  -5  468.62   25.82
  -8  -2   5  556.33   30.98
  -8   2   5  432.32   24.06
   8   2  -4  229.24   13.64
   8  -2  -4  241.30   14.01
   8   2  -4  207.41   11.95
   8  -2  -4  197.59   11.03
  -8  -2   4  256.40   15.39
  -8   2   4  239.24   14.08
   8   2  -3   69.11   13.49
   8  -2  -3   95.17    6.43
   8   2  -3   63.31    4.99
   8  -2  -3   92.55    5.76
  -8  -2   3   91.65    6.52
  -8   2   3   92.90    7.30
   8   2  -2   70.48    9.38
   8  -2  -2   76.57    5.58
   8   2  -2  100.32    6.66
   8  -2  -2   75.74    4.55
  -8  -2   2   75.40    5.81
  -8   2   2   87.15    6.18
   8   2  -1   34.06    9.40
   8  -2  -1  102.41    6.99
   8   2  -1   50.79    5.11
   8  -2  -1   91.32    5.44
  -8  -2   1  130.73    8.22
  -8   2   1  120.13    7.29
   8   2   0 1408.06   74.46
   8  -2   0 1290.04   61.98
   8   2   0 1062.00   51.17
   8  -2   0 1353.70   71.77
  -8  -2   0 1362.48   72.51
  -8   2   0 1461.28   77.43
   8   2   1   24.60    5.93
   8  -2   1   39.73    4.04
   8   2   1   37.77    4.18
   8  -2   1   29.02    2.47
  -8  -2  -1   53.07    4.36
  -8   2  -1   28.58    2.83
   8  -2   2   49.20    4.23
   8   2   2   48.49    5.48
   8  -2   2   39.00    3.13
  -8  -2  -2   53.96    4.18
  -8   2  -2   35.08    2.91
   8  -2   3  276.95   15.68
   8   2   3  299.07   17.21
   8  -2   3  260.27   14.58
  -8  -2  -3  255.86   14.52
   8  -2   4  387.05   21.45
   8   2   4  366.42   20.71
   8  -2   4  365.36   20.26
  -8  -2  -4  381.15   20.96
   8  -2   5  185.71   10.73
   8   2   5  196.70   11.92
   8  -2   5  177.12   10.64
  -8  -2  -5  208.71   12.01
   8  -2   6   33.26    3.17
   8   2   6   41.81    4.28
   8  -2   6   35.18    3.72
  -8  -2  -6   40.62    3.58
   8  -2   7  160.06   11.59
   8   2   7  154.90   11.64
   8  -2   7  136.38    9.83
  -8  -2  -7  131.34    9.33
   8  -2   8  272.74   16.87
   8   2   8  325.09   20.40
   8  -2   8  257.21   16.11
   8  -2   9  139.19   14.43
   8   2   9  173.16   18.12
   8  -2   9  131.93   14.19
   8  -2  10  138.57   13.32
   8   2  10  131.50   13.40
   8  -2  10  149.12   14.45
   8   3  -9    7.19    3.21
   8  -3  -9   17.77    3.25
   8   3  -9   17.41    3.40
  -8  -3   9   25.50    4.87
  -8   3   9   15.96    3.47
   8   3  -8    6.10    2.64
   8  -3  -8   51.39    7.00
   8   3  -8   16.39    2.93
  -8  -3   8   71.97    9.48
  -8   3   8   27.25    4.39
   8   3  -7  349.55   21.70
   8  -3  -7  389.58   23.86
   8   3  -7  368.24   22.80
  -8  -3   7  368.93   23.24
  -8   3   7  338.85   21.36
   8   3  -6   96.34    7.18
   8  -3  -6  119.29    8.37
   8   3  -6  106.60    8.33
  -8  -3   6  128.51    9.64
  -8   3   6  115.35    9.01
   8   3  -5    7.00    2.88
   8  -3  -5    6.90    2.03
   8   3  -5   13.88    3.48
  -8  -3   5   15.28    3.57
  -8   3   5    6.09    3.74
   8   3  -4    8.74    3.94
   8  -3  -4   24.66    3.62
   8   3  -4   16.91    3.74
  -8  -3   4   24.66    4.66
  -8   3   4   37.42    4.98
   8   3  -3  197.45   11.86
   8  -3  -3  277.07   16.62
   8   3  -3  211.53   13.29
  -8  -3   3  238.54   14.59
  -8   3   3  250.66   15.28
   8   3  -2  186.92   11.42
   8  -3  -2  234.84   14.16
   8   3  -2  222.45   13.73
  -8  -3   2  240.29   14.87
  -8   3   2  252.00   15.21
   8  -3  -1   82.37    5.96
   8   3  -1  118.55    7.79
   8  -3  -1   52.83    3.64
  -8  -3   1   98.71    7.54
  -8   3   1  114.60    7.75
   8  -3   0   19.06    2.94
   8   3   0   31.52    3.66
   8  -3   0   15.61    2.06
  -8  -3   0   29.92    3.96
  -8   3   0   36.15    3.47
   8  -3   1  346.04   20.16
   8   3   1  322.67   18.94
   8  -3   1  334.42   19.17
  -8  -3  -1  318.26   18.67
  -8   3  -1  275.61   15.90
   8  -3   2  367.99   21.44
   8   3   2  360.14   21.11
   8  -3   2  355.43   20.36
  -8  -3  -2  346.43   20.26
   8  -3   3  140.81    9.25
   8   3   3  157.37    9.97
   8  -3   3  150.52    9.34
  -8  -3  -3  144.66    9.48
   8  -3   4   17.59    2.76
   8   3   4   28.85    4.38
   8  -3   4   17.92    2.50
  -8  -3  -4   28.16    3.57
   8  -3   5   83.80    6.66
   8   3   5   87.60    6.72
   8  -3   5   95.50    7.22
  -8  -3  -5   96.04    7.11
   8  -3   6  123.79    8.74
   8   3   6  115.93    8.46
   8  -3   6  121.58    8.31
  -8  -3  -6  115.90    7.90
   8  -3   7  323.65   32.44
   8   3   7  381.23   38.25
   8  -3   7  318.83   32.15
  -8  -3  -7  313.41   31.30
   8  -3   8   35.69    4.38
   8   3   8   50.70    6.70
   8  -3   8   39.78    4.88
   8  -4  -4   69.61    7.77
   8   4  -4   53.19    6.33
  -8  -4   4   72.65    8.50
  -8   4   4   54.48    6.67
   8  -4  -3   41.70    5.13
   8   4  -3   47.26    6.31
  -8  -4   3   33.89    4.66
  -8   4   3   45.31    5.16
   8  -4  -2   19.06    3.44
   8   4  -2   20.05    4.21
  -8  -4   2   21.44    4.09
  -8   4   2   20.33    3.27
   8  -4  -1   59.82    7.09
   8   4  -1   70.63    8.61
  -8  -4   1   53.34    6.67
  -8   4   1   64.50    7.36
   8  -4   0  289.75   29.31
   8   4   0  270.82   27.41
  -8  -4   0  234.82   23.93
   8  -4   1   72.75    8.52
   8   4   1   85.30    9.92
  -8  -4  -1   71.23    8.46
   8  -4   2    7.66    2.73
   8   4   2    6.05    2.57
  -8  -4  -2    6.01    2.88
   8  -4   3  177.65   17.10
   8   4   3  140.73   13.65
   8  -4   3  168.24   15.88
  -8  -4  -3  133.92   13.10
   9   0  -9  294.69   30.33
  -9   0   9  288.10   29.45
   9   0  -8  459.94   45.82
  -9   0   8  494.02   49.51
   9   0  -7   52.70   10.96
   9   0  -7   61.91    5.02
  -9   0   7   73.85    6.33
   9   0  -6    5.63    1.66
   9   0  -6    9.01    3.42
  -9   0   6   20.76    3.46
   9   0  -5  136.10    9.21
   9   0  -5  137.93    8.46
  -9   0   5  144.59   10.09
   9   0  -4  566.80   32.06
   9   0  -4  564.31   31.95
  -9   0   4  580.21   33.26
   9   0  -3  270.25   15.24
   9   0  -3  274.57   15.49
  -9   0   3  294.32   17.08
   9   0  -2    7.16    2.04
   9   0  -2    7.17    2.81
  -9   0   2   15.32    2.57
   9   0  -1  259.40   14.63
   9   0  -1  267.43   15.14
  -9   0   1  271.40   15.71
   9   0   0  648.38   34.77
   9   0   0  650.01   35.08
  -9   0   0  652.40   36.82
   9   0   1  581.87   31.25
   9   0   1  610.67   32.96
  -9   0  -1  592.16   32.04
   9   0   2  139.26    8.29
   9   0   2  156.77    9.83
  -9   0  -2  156.83    9.37
   9   0   3   26.81    2.86
   9   0   3   21.98    2.88
  -9   0  -3   28.68    2.93
   9   0   4  116.57    7.33
   9   0   4  129.53    8.69
   9   0   5  420.83   25.20
   9   0   5  406.88   27.06
   9   0   6  397.62   23.86
   9   0   6  404.94   24.85
   9   0   7   11.98    3.22
   9   0   8   36.90    4.82
   9   1  -9   96.01   12.50
   9  -1  -9  123.15   14.74
   9   1  -9  109.52   10.78
  -9  -1   9  115.08   11.98
  -9   1   9   91.79    9.54
   9   1  -8   15.72    3.08
   9  -1  -8   21.07    4.45
   9   1  -8   15.75    2.87
  -9  -1   8   27.80    5.52
  -9   1   8   20.61    4.26
   9   1  -7  287.32   18.01
   9  -1  -7  258.93   16.27
   9   1  -7  282.07   17.45
  -9  -1   7  277.95   18.02
  -9   1   7  276.45   17.67
   9   1  -6  309.64   19.58
   9  -1  -6  344.03   21.25
   9   1  -6  338.51   20.65
  -9  -1   6  371.64   23.41
  -9   1   6  322.79   20.41
   9   1  -5  141.55   10.85
   9  -1  -5  168.73   12.40
   9   1  -5  155.99   11.25
   9  -1  -5  134.72    9.39
  -9  -1   5  178.77   13.12
  -9   1   5  172.63   13.12
   9   1  -4   49.38    9.70
   9  -1  -4   69.96    5.85
   9   1  -4   67.65    5.53
   9  -1  -4   57.34    4.35
  -9  -1   4   80.93    6.81
  -9   1   4   89.33    6.91
   9   1  -3  200.23   11.95
   9  -1  -3  201.53   12.40
   9   1  -3  207.19   12.64
   9  -1  -3  233.87   13.83
  -9  -1   3  241.40   14.75
  -9   1   3  214.47   13.13
   9   1  -2  413.41   23.54
   9  -1  -2  472.00   26.90
   9   1  -2  444.50   25.45
   9  -1  -2  471.78   26.85
  -9  -1   2  441.10   25.72
  -9   1   2  435.35   25.11
   9   1  -1  712.02   40.51
   9  -1  -1  828.49   54.13
   9   1  -1  791.61   51.84
   9  -1  -1  822.71   53.66
  -9  -1   1  790.49   51.75
  -9   1   1  739.39   41.58
   9   1   0   16.05    4.97
   9  -1   0   59.37    5.10
   9   1   0   19.02    3.47
   9  -1   0   63.58    5.21
  -9  -1   0   83.93    6.54
  -9   1   0   60.52    4.98
   9   1   1   38.81    3.41
   9  -1   1   24.17    3.62
   9   1   1   35.29    4.19
   9  -1   1   25.79    3.18
  -9  -1  -1   33.52    3.82
  -9   1  -1   45.50    4.02
   9   1   2  326.70   18.71
   9  -1   2  358.57   20.67
   9   1   2  386.78   22.61
   9  -1   2  355.09   20.78
  -9  -1  -2  355.96   20.67
  -9   1  -2  259.53   15.04
   9   1   3  416.80   23.58
   9  -1   3  563.23   31.89
   9   1   3  450.68   25.99
   9  -1   3  562.21   31.99
  -9  -1  -3  546.49   30.90
   9  -1   4  352.90   23.50
   9   1   4  326.88   22.15
   9  -1   4  335.00   22.52
  -9  -1  -4  280.84   18.83
   9  -1   5   66.05    5.75
   9   1   5   42.31    4.94
   9  -1   5   52.11    4.73
   9  -1   6  107.43    7.40
   9   1   6  113.45    8.25
   9  -1   6   89.11    6.80
   9  -1   7  219.88   22.16
   9   1   7  240.63   24.39
   9  -1   7  193.42   19.81
   9  -1   8  282.13   26.14
   9   1   8  219.23   20.76
   9  -1   8  244.56   22.83
   9   2  -7   28.68    8.72
   9  -2  -7   77.74    8.45
   9   2  -7   39.09    5.33
  -9  -2   7   78.01    9.62
  -9   2   7   39.48    6.08
   9   2  -6   17.05    5.31
   9  -2  -6   18.75    3.42
   9   2  -6   20.04    3.05
  -9  -2   6   39.45    5.88
  -9   2   6   34.14    4.94
   9   2  -5   45.51   11.43
   9  -2  -5   67.63    7.62
   9   2  -5   62.34    7.02
  -9  -2   5   73.85    8.75
  -9   2   5   63.85    7.70
   9   2  -4  373.93   23.22
   9  -2  -4  350.19   21.55
   9   2  -4  333.72   20.56
  -9  -2   4  346.38   21.69
  -9   2   4  360.07   22.26
   9   2  -3  247.31   17.12
   9  -2  -3  312.42   19.42
   9   2  -3  258.39   16.22
  -9  -2   3  304.94   19.34
  -9   2   3  256.35   16.20
   9   2  -2   37.35    9.63
   9  -2  -2   60.56    5.74
   9   2  -2   56.06    5.11
   9  -2  -2   47.77    4.36
  -9  -2   2   53.37    5.08
  -9   2   2   72.01    6.39
   9   2  -1   91.23    8.66
   9  -2  -1  157.45   11.54
   9   2  -1  106.44    8.47
   9  -2  -1  149.18   10.50
  -9  -2   1  161.07   12.12
  -9   2   1  112.98    8.34
   9  -2   0  246.90   16.92
   9   2   0  272.46   18.58
   9  -2   0  240.09   16.22
  -9  -2   0  232.74   16.07
  -9   2   0  248.47   16.77
   9  -2   1  376.64   25.13
   9   2   1  275.52   18.85
   9  -2   1  347.94   23.13
  -9  -2  -1  373.76   25.20
   9  -2   2  251.12   16.00
   9   2   2  213.50   13.93
   9  -2   2  209.00   13.11
  -9  -2  -2  240.52   15.30
   9  -2   3   11.54    2.60
   9  -2   3    8.95    3.00
  -9  -2  -3   19.51    3.43
   9  -2   4   47.97    5.05
   9   2   4   56.30    5.16
   9  -2   4   43.69    4.21
  -9  -2  -4   42.89    3.91
   9  -2   5  232.85   23.53
   9   2   5  226.12   23.25
   9  -2   5  220.73   22.30
  -9  -2  -5  205.18   20.69
   9  -2   6  299.60   27.75
   9   2   6  302.16   28.24
   9  -2   6  264.02   24.59
   9  -3  -3   43.69    5.36
   9   3  -3   34.15    4.50
  -9  -3   3   37.04    5.52
  -9   3   3   36.85    4.65
   9  -3  -2  122.60   12.09
   9   3  -2   84.74    9.11
  -9  -3   2   95.54   10.11
  -9   3   2   93.18    9.38
   9  -3  -1  198.14   18.84
   9   3  -1  203.97   19.47
  -9  -3   1  200.81   19.20
   9  -3   0   40.44    5.67
   9   3   0   20.15    3.82
  -9  -3   0   75.58    8.20
   9  -3   1    1.83    2.62
   9   3   1   11.36    3.48
  -9  -3  -1    3.26    2.33
   9  -3   2   83.76    8.58
   9   3   2   54.33    6.18
   9  -3   2   75.56    7.57
  -9  -3  -2   79.40    8.61
  10   0  -3  190.51   17.87
  10   0  -3  207.69   19.55
 -10   0   3  218.57   20.81
  10   0  -2  182.51   17.23
  10   0  -2  198.74   18.64
 -10   0   2  213.46   20.36
  10   0  -1   18.17    3.39
 -10   0   1   18.34    3.77
  10   0   0   77.67    8.47
  10   0   0   67.81    7.93
 -10   0   0   60.77    6.84
  10   0   1  226.35   21.17
  10   0   1  235.50   22.07
  10   0   2  184.00   17.32
  10   0   2  183.19   17.41
  10   1  -2   26.83    9.72
  10  -1  -2   66.52    7.40
  10   1  -2   52.86    5.90
  10  -1  -2   53.38    5.92
 -10  -1   2   44.99    5.96
 -10   1   2   38.81    4.94
  10   1  -1  153.58   15.00
  10  -1  -1  112.59   11.14
  10   1  -1  183.68   17.68
  10  -1  -1  120.61   11.72
 -10  -1   1  142.17   14.03
 -10   1   1  163.90   15.54
  10   1   0  154.29   14.71
  10  -1   0  248.67   23.19
  10   1   0  189.77   18.10
  10  -1   0  230.16   21.54
 -10  -1   0  225.05   21.35
  10  -1   1   58.99    6.59
  10   1   1  102.72   10.51
  10  -1   1   76.29    8.11

_computing_structure_solution     'SHELXT 2014/4 (Sheldrick, 2014)'
;
_shelx_hkl_checksum              80835
_shelx_shelxl_version_number     2014/7
_olex2_submission_special_instructions 'No special instructions were received'
loop_
_space_group_symop_operation_xyz
'x, y, z'
'-x, y+1/2, -z'
loop_
_atom_site_label
_atom_site_type_symbol
_atom_site_fract_x
_atom_site_fract_y
_atom_site_fract_z
_atom_site_U_iso_or_equiv
_atom_site_adp_type
_atom_site_occupancy
_atom_site_site_symmetry_order
_atom_site_calc_flag
_atom_site_refinement_flags_posn
Br1 Br -0.61917(8) -0.3721(3) -0.38733(4) 0.0495(3) Uani 1 1 d .
O1 O -0.2498(8) -0.0965(9) -0.3913(4) 0.0354(12) Uani 1 1 d .
O2 O -0.0484(8) -0.4808(11) -0.4744(3) 0.0371(12) Uani 1 1 d .
H2 H -0.0215 -0.3401 -0.4910 0.056 Uiso 1 1 calc GR
C1 C -0.2494(7) -0.3496(15) -0.3624(4) 0.0245(11) Uani 1 1 d .
C2 C -0.3906(9) -0.5009(15) -0.4085(5) 0.0310(14) Uani 1 1 d .
H2A H -0.3838 -0.6741 -0.3890 0.037 Uiso 1 1 calc R
H2B H -0.3718 -0.4990 -0.4705 0.037 Uiso 1 1 calc R
C3 C -0.0770(9) -0.4747(14) -0.3831(4) 0.0294(14) Uani 1 1 d .
H3A H 0.0153 -0.3827 -0.3541 0.035 Uiso 1 1 calc R
H3B H -0.0758 -0.6451 -0.3606 0.035 Uiso 1 1 calc R
C4 C -0.2598(7) -0.3473(13) -0.2637(3) 0.0199(10) Uani 1 1 d .
C5 C -0.3377(9) -0.5391(13) -0.2177(4) 0.0274(13) Uani 1 1 d .
H5 H -0.3926 -0.6691 -0.2477 0.033 Uiso 1 1 calc R
C6 C -0.3344(9) -0.5386(13) -0.1272(4) 0.0280(13) Uani 1 1 d .
H6 H -0.3874 -0.6688 -0.0979 0.034 Uiso 1 1 calc R
C7 C -0.2541(6) -0.3489(13) -0.0796(3) 0.0186(10) Uani 1 1 d .
C8 C -0.1742(10) -0.1607(12) -0.1258(5) 0.0291(14) Uani 1 1 d .
H8 H -0.1169 -0.0330 -0.0957 0.035 Uiso 1 1 calc R
C9 C -0.1778(10) -0.1586(13) -0.2158(4) 0.0305(15) Uani 1 1 d .
H9 H -0.1242 -0.0285 -0.2449 0.037 Uiso 1 1 calc R
C10 C -0.2503(6) -0.3529(15) 0.0178(3) 0.0208(10) Uani 1 1 d .
C11 C -0.3346(9) -0.5366(13) 0.0639(4) 0.0285(13) Uani 1 1 d .
H11 H -0.3949 -0.6615 0.0339 0.034 Uiso 1 1 calc R
C12 C -0.3308(10) -0.5378(14) 0.1546(4) 0.0319(15) Uani 1 1 d .
H12 H -0.3865 -0.6647 0.1842 0.038 Uiso 1 1 calc R
C13 C -0.2448(8) -0.3515(16) 0.2006(4) 0.0282(12) Uani 1 1 d .
H13 H -0.2441 -0.3502 0.2610 0.034 Uiso 1 1 calc R
C14 C -0.1589(12) -0.1655(16) 0.1552(5) 0.0386(17) Uani 1 1 d .
H14 H -0.0984 -0.0413 0.1855 0.046 Uiso 1 1 calc R
C15 C -0.1634(10) -0.1651(13) 0.0655(5) 0.0308(15) Uani 1 1 d .
H15 H -0.1077 -0.0378 0.0360 0.037 Uiso 1 1 calc R
H1 H -0.256(10) -0.084(16) -0.437(6) 0.02(2) Uiso 1 1 d .
loop_
_atom_site_aniso_label
_atom_site_aniso_U_11
_atom_site_aniso_U_22
_atom_site_aniso_U_33
_atom_site_aniso_U_23
_atom_site_aniso_U_13
_atom_site_aniso_U_12
Br1 0.0269(4) 0.0884(7) 0.0332(4) 0.0132(5) 0.0009(2) 0.0090(5)
O1 0.061(4) 0.026(2) 0.019(2) 0.0056(19) 0.004(2) -0.001(2)
O2 0.036(3) 0.052(3) 0.023(2) -0.002(2) 0.011(2) 0.002(2)
C1 0.025(3) 0.027(3) 0.022(3) -0.005(3) 0.0052(19) 0.002(3)
C2 0.027(3) 0.044(4) 0.022(3) -0.005(3) -0.001(2) -0.001(3)
C3 0.021(3) 0.046(4) 0.022(3) 0.000(3) 0.007(2) 0.002(3)
C4 0.020(2) 0.022(3) 0.017(2) 0.001(3) 0.0025(17) 0.002(3)
C5 0.033(3) 0.024(3) 0.026(3) -0.003(2) 0.002(2) -0.009(2)
C6 0.037(3) 0.023(3) 0.024(3) -0.001(2) 0.004(3) -0.010(3)
C7 0.017(2) 0.020(3) 0.019(2) 0.000(2) 0.0017(17) 0.002(2)
C8 0.037(4) 0.023(3) 0.027(3) -0.001(2) 0.000(3) -0.013(3)
C9 0.040(4) 0.027(3) 0.025(3) 0.003(2) 0.004(3) -0.012(3)
C10 0.020(2) 0.024(3) 0.019(2) 0.001(3) 0.0013(17) 0.003(3)
C11 0.036(4) 0.027(3) 0.022(3) -0.001(2) 0.001(3) -0.008(3)
C12 0.040(4) 0.034(3) 0.022(3) 0.006(3) 0.004(3) -0.008(3)
C13 0.034(3) 0.034(3) 0.017(2) -0.001(3) 0.000(2) 0.003(3)
C14 0.055(5) 0.037(4) 0.024(3) -0.005(3) -0.002(3) -0.008(3)
C15 0.038(4) 0.031(3) 0.024(3) -0.001(3) -0.001(3) -0.011(3)
loop_
_atom_type_symbol
_atom_type_description
_atom_type_scat_dispersion_real
_atom_type_scat_dispersion_imag
_atom_type_scat_source
C C 0.0033 0.0016 'International Tables Vol C Tables 4.2.6.8 and 6.1.1.4'
H H 0.0000 0.0000 'International Tables Vol C Tables 4.2.6.8 and 6.1.1.4'
Br Br -0.2901 2.4595 'International Tables Vol C Tables 4.2.6.8 and 6.1.1.4'
O O 0.0106 0.0060 'International Tables Vol C Tables 4.2.6.8 and 6.1.1.4'
loop_
_geom_angle_atom_site_label_1
_geom_angle_atom_site_label_2
_geom_angle_atom_site_label_3
_geom_angle
C1 O1 H1 114(7)
C3 O2 H2 109.5
O1 C1 C2 111.1(6)
O1 C1 C3 109.8(5)
O1 C1 C4 107.8(6)
C2 C1 C3 107.5(6)
C4 C1 C2 114.2(6)
C4 C1 C3 106.3(5)
Br1 C2 H2A 109.0
Br1 C2 H2B 109.0
C1 C2 Br1 113.0(5)
C1 C2 H2A 109.0
C1 C2 H2B 109.0
H2A C2 H2B 107.8
O2 C3 C1 112.0(6)
O2 C3 H3A 109.2
O2 C3 H3B 109.2
C1 C3 H3A 109.2
C1 C3 H3B 109.2
H3A C3 H3B 107.9
C5 C4 C1 122.5(6)
C9 C4 C1 119.8(6)
C9 C4 C5 117.5(5)
C4 C5 H5 119.6
C4 C5 C6 120.7(6)
C6 C5 H5 119.6
C5 C6 H6 119.2
C7 C6 C5 121.7(6)
C7 C6 H6 119.2
C6 C7 C8 117.3(5)
C6 C7 C10 120.9(6)
C8 C7 C10 121.7(6)
C7 C8 H8 119.3
C9 C8 C7 121.4(6)
C9 C8 H8 119.3
C4 C9 H9 119.3
C8 C9 C4 121.4(6)
C8 C9 H9 119.3
C11 C10 C7 121.7(6)
C11 C10 C15 117.7(5)
C15 C10 C7 120.6(6)
C10 C11 H11 119.4
C10 C11 C12 121.2(6)
C12 C11 H11 119.4
C11 C12 H12 119.8
C13 C12 C11 120.4(6)
C13 C12 H12 119.8
C12 C13 H13 120.4
C12 C13 C14 119.1(6)
C14 C13 H13 120.4
C13 C14 H14 119.9
C15 C14 C13 120.2(7)
C15 C14 H14 119.9
C10 C15 H15 119.3
C14 C15 C10 121.4(6)
C14 C15 H15 119.3
loop_
_geom_bond_atom_site_label_1
_geom_bond_atom_site_label_2
_geom_bond_distance
Br1 C2 1.949(7)
O1 C1 1.418(9)
O1 H1 0.71(9)
O2 H2 0.8200
O2 C3 1.430(8)
C1 C2 1.525(9)
C1 C3 1.543(9)
C1 C4 1.524(7)
C2 H2A 0.9700
C2 H2B 0.9700
C3 H3A 0.9700
C3 H3B 0.9700
C4 C5 1.392(9)
C4 C9 1.391(9)
C5 H5 0.9300
C5 C6 1.392(9)
C6 H6 0.9300
C6 C7 1.387(9)
C7 C8 1.387(9)
C7 C10 1.499(7)
C8 H8 0.9300
C8 C9 1.386(10)
C9 H9 0.9300
C10 C11 1.386(9)
C10 C15 1.404(9)
C11 H11 0.9300
C11 C12 1.395(9)
C12 H12 0.9300
C12 C13 1.382(10)
C13 H13 0.9300
C13 C14 1.394(11)
C14 H14 0.9300
C14 C15 1.381(10)
C15 H15 0.9300
loop_
_geom_hbond_atom_site_label_D
_geom_hbond_atom_site_label_H
_geom_hbond_atom_site_label_A
_geom_hbond_distance_DH
_geom_hbond_distance_HA
_geom_hbond_distance_DA
_geom_hbond_angle_DHA
_geom_hbond_site_symmetry_A
O2 H2 O2 0.82 2.06 2.881(4) 176.9 2_554
O1 H1 Br1 0.71(9) 3.06(9) 3.727(6) 157(8) 2_454
loop_
_geom_torsion_atom_site_label_1
_geom_torsion_atom_site_label_2
_geom_torsion_atom_site_label_3
_geom_torsion_atom_site_label_4
_geom_torsion
O1 C1 C2 Br1 -61.0(6)
O1 C1 C3 O2 -61.6(7)
O1 C1 C4 C5 149.9(6)
O1 C1 C4 C9 -35.4(8)
C1 C4 C5 C6 175.6(6)
C1 C4 C9 C8 -175.3(7)
C2 C1 C3 O2 59.3(8)
C2 C1 C4 C5 25.9(9)
C2 C1 C4 C9 -159.3(6)
C3 C1 C2 Br1 178.8(4)
C3 C1 C4 C5 -92.4(7)
C3 C1 C4 C9 82.3(8)
C4 C1 C2 Br1 61.2(8)
C4 C1 C3 O2 -177.9(6)
C4 C5 C6 C7 0.0(11)
C5 C4 C9 C8 -0.3(11)
C5 C6 C7 C8 -1.1(10)
C5 C6 C7 C10 -179.4(6)
C6 C7 C8 C9 1.5(11)
C6 C7 C10 C11 -3.8(9)
C6 C7 C10 C15 177.7(7)
C7 C8 C9 C4 -0.9(12)
C7 C10 C11 C12 -179.7(6)
C7 C10 C15 C14 179.8(7)
C8 C7 C10 C11 178.0(7)
C8 C7 C10 C15 -0.6(9)
C9 C4 C5 C6 0.7(10)
C10 C7 C8 C9 179.8(6)
C10 C11 C12 C13 1.2(11)
C11 C10 C15 C14 1.3(11)
C11 C12 C13 C14 -1.3(12)
C12 C13 C14 C15 1.4(12)
C13 C14 C15 C10 -1.4(13)
C15 C10 C11 C12 -1.2(11)
loop_
_twin_individual_id
_twin_individual_mass_fraction_refined
1 0.96(3)
2 0.04(3)
