#------------------------------------------------------------------------------
#$Date: 2019-11-24 01:22:40 +0200 (Sun, 24 Nov 2019) $
#$Revision: 235972 $
#$URL: file:///home/coder/svn-repositories/cod/cif/1/55/37/1553748.cif $
#------------------------------------------------------------------------------
#
# This file is available in the Crystallography Open Database (COD),
# http://www.crystallography.net/
#
# All data on this site have been placed in the public domain by the
# contributors.
#
data_1553748
loop_
_publ_author_name
'Zhou, Kaida'
'Xia, Hongguang'
'Wu, Jie'
_publ_section_title
;
 Generation of benzosultams via a radical process with the insertion of
 sulfur dioxide
;
_journal_issue                   6
_journal_name_full               'Organic Chemistry Frontiers'
_journal_page_first              1121
_journal_paper_doi               10.1039/C7QO00127D
_journal_volume                  4
_journal_year                    2017
_chemical_formula_sum            'C15 H13 N O4 S2'
_chemical_formula_weight         335.38
_space_group_crystal_system      triclinic
_space_group_IT_number           2
_space_group_name_Hall           '-P 1'
_space_group_name_H-M_alt        'P -1'
_atom_sites_solution_hydrogens   geom
_audit_creation_method           SHELXL-2014/7
_audit_update_record
;
2017-01-24 deposited with the CCDC.
2017-03-02 downloaded from the CCDC.
;
_cell_angle_alpha                85.471(3)
_cell_angle_beta                 73.420(3)
_cell_angle_gamma                74.044(3)
_cell_formula_units_Z            2
_cell_length_a                   7.6834(16)
_cell_length_b                   8.0281(17)
_cell_length_c                   12.554(3)
_cell_measurement_reflns_used    2832
_cell_measurement_temperature    173(2)
_cell_measurement_theta_max      27.42
_cell_measurement_theta_min      2.64
_cell_volume                     713.6(3)
_computing_cell_refinement       'Bruker SAINT'
_computing_data_collection       'Bruker APEX2'
_computing_data_reduction        'Bruker SAINT'
_computing_molecular_graphics    'Bruker SHELXTL'
_computing_publication_material  'Bruker SHELXTL'
_computing_structure_refinement  'SHELXL-2014/7 (Sheldrick, 2014)'
_computing_structure_solution    'SHELXS-97 (Sheldrick, 2008)'
_diffrn_ambient_temperature      173(2)
_diffrn_measured_fraction_theta_full 0.983
_diffrn_measured_fraction_theta_max 0.984
_diffrn_measurement_device_type  'Bruker APEX-II CCD'
_diffrn_measurement_method       '\f and \w scans'
_diffrn_radiation_type           MoK\a
_diffrn_radiation_wavelength     0.71073
_diffrn_reflns_av_R_equivalents  0.0193
_diffrn_reflns_av_unetI/netI     0.0398
_diffrn_reflns_Laue_measured_fraction_full 0.983
_diffrn_reflns_Laue_measured_fraction_max 0.984
_diffrn_reflns_limit_h_max       9
_diffrn_reflns_limit_h_min       -9
_diffrn_reflns_limit_k_max       7
_diffrn_reflns_limit_k_min       -10
_diffrn_reflns_limit_l_max       16
_diffrn_reflns_limit_l_min       -16
_diffrn_reflns_number            5020
_diffrn_reflns_point_group_measured_fraction_full 0.983
_diffrn_reflns_point_group_measured_fraction_max 0.984
_diffrn_reflns_theta_full        25.242
_diffrn_reflns_theta_max         27.000
_diffrn_reflns_theta_min         1.693
_exptl_absorpt_coefficient_mu    0.391
_exptl_absorpt_correction_T_max  0.862
_exptl_absorpt_correction_T_min  0.756
_exptl_absorpt_correction_type   multi-scan
_exptl_absorpt_process_details   sadabs
_exptl_crystal_colour            colourless
_exptl_crystal_density_diffrn    1.561
_exptl_crystal_description       block
_exptl_crystal_F_000             348
_exptl_crystal_size_max          0.640
_exptl_crystal_size_mid          0.320
_exptl_crystal_size_min          0.180
_refine_diff_density_max         0.632
_refine_diff_density_min         -0.719
_refine_diff_density_rms         0.177
_refine_ls_extinction_method     none
_refine_ls_goodness_of_fit_ref   1.220
_refine_ls_hydrogen_treatment    constr
_refine_ls_matrix_type           full
_refine_ls_number_parameters     200
_refine_ls_number_reflns         3057
_refine_ls_number_restraints     0
_refine_ls_restrained_S_all      1.220
_refine_ls_R_factor_all          0.0534
_refine_ls_R_factor_gt           0.0396
_refine_ls_shift/su_max          0.001
_refine_ls_shift/su_mean         0.000
_refine_ls_structure_factor_coef Fsqd
_refine_ls_weighting_details
'w=1/[\s^2^(Fo^2^)+(0.1093P)^2^+0.2144P] where P=(Fo^2^+2Fc^2^)/3'
_refine_ls_weighting_scheme      calc
_refine_ls_wR_factor_gt          0.1348
_refine_ls_wR_factor_ref         0.1787
_reflns_Friedel_coverage         0.000
_reflns_number_gt                2612
_reflns_number_total             3057
_reflns_threshold_expression     'I > 2\s(I)'
_cod_data_source_file            c7qo00127d2.cif
_cod_data_source_block           mo_70124a
_cod_database_code               1553748
_shelx_shelxl_version_number     2014/7
_shelx_space_group_comment
; 
The symmetry employed for this shelxl refinement is uniquely defined 
by the following loop, which should always be used as a source of 
symmetry information in preference to the above space-group names. 
They are only intended as comments. 
;
_shelx_estimated_absorpt_t_min   0.788
_shelx_estimated_absorpt_t_max   0.933
_shelx_res_file
; 
  
    mo_70124a.res created by SHELXL-2014/7 
  
TITL mo_70124a in P-1 
CELL 0.71073   7.6834   8.0281  12.5535  85.471  73.420  74.044 
ZERR    2.00   0.0016   0.0017   0.0026   0.003   0.003   0.003 
LATT 1 
SFAC C  H  N  O  S 
UNIT 30 26 2 8 4 
OMIT  -2.00  54.00 
L.S. 4 
ACTA 
BOND 
FMAP 2 
PLAN 1 
SIZE 0.18 0.32 0.64 
CONF 
TEMP -100 
WGHT    0.109300    0.214400 
FVAR       0.29185 
MOLE 1 
S1    5    0.990959    0.755937    0.324696    11.00000    0.02181    0.01624 = 
         0.02074   -0.00002   -0.00585   -0.00427 
S2    5    1.246637    0.216840    0.089770    11.00000    0.02627    0.01326 = 
         0.02445   -0.00094   -0.00784   -0.00298 
N1    3    1.123859    0.381599    0.178409    11.00000    0.02805    0.01435 = 
         0.02440   -0.00151   -0.00203   -0.00292 
O1    4    1.403841    0.116997    0.126909    11.00000    0.03354    0.01788 = 
         0.03068    0.00097   -0.01243    0.00058 
O2    4    1.122863    0.125455    0.070713    11.00000    0.03523    0.02237 = 
         0.04108   -0.00175   -0.01193   -0.01156 
O3    4    1.086213    0.619432    0.385880    11.00000    0.02590    0.02643 = 
         0.02850    0.00364   -0.01180   -0.00300 
O4    4    1.020261    0.925239    0.325440    11.00000    0.03408    0.02293 = 
         0.03056   -0.00339   -0.00695   -0.01190 
C1    1    1.128133    0.544228    0.134619    11.00000    0.01798    0.01728 = 
         0.02048    0.00094   -0.00515   -0.00212 
C2    1    1.236589    0.526208    0.015776    11.00000    0.01878    0.01877 = 
         0.01994   -0.00212   -0.00612   -0.00226 
C3    1    1.278165    0.656603   -0.058783    11.00000    0.02526    0.01477 = 
         0.02697    0.00055   -0.00909   -0.00332 
AFIX  43 
H3    2    1.230854    0.774849   -0.037017    11.00000   -1.20000 
AFIX   0 
C4    1    1.390478    0.610122   -0.165865    11.00000    0.02978    0.02385 = 
         0.02058    0.00207   -0.00781   -0.00670 
AFIX  43 
H4    2    1.417412    0.698365   -0.217955    11.00000   -1.20000 
AFIX   0 
C5    1    1.464533    0.437367   -0.198711    11.00000    0.02883    0.02927 = 
         0.02023   -0.00294   -0.00708   -0.00382 
AFIX  43 
H5    2    1.541287    0.409319   -0.272386    11.00000   -1.20000 
AFIX   0 
C6    1    1.426712    0.305798   -0.124246    11.00000    0.02750    0.02248 = 
         0.02377   -0.00531   -0.00913   -0.00042 
AFIX  43 
H6    2    1.477711    0.187200   -0.144778    11.00000   -1.20000 
AFIX   0 
C7    1    1.311728    0.355278   -0.019151    11.00000    0.02081    0.01713 = 
         0.02430   -0.00057   -0.00904   -0.00090 
C8    1    1.001990    0.340191    0.283307    11.00000    0.03607    0.01732 = 
         0.03166    0.00252   -0.00110   -0.01221 
AFIX 137 
H8A   2    1.061498    0.338364    0.342976    11.00000   -1.50000 
H8B   2    0.981704    0.226239    0.277820    11.00000   -1.50000 
H8C   2    0.880734    0.428097    0.299734    11.00000   -1.50000 
AFIX   0 
C9    1    1.057672    0.700022    0.184577    11.00000    0.02467    0.01553 = 
         0.02287    0.00328   -0.00696   -0.00297 
AFIX  43 
H9    2    1.041545    0.795565    0.135327    11.00000   -1.20000 
AFIX   0 
C10   1    0.746379    0.780028    0.377550    11.00000    0.02277    0.01576 = 
         0.01839   -0.00294   -0.00505   -0.00468 
C11   1    0.680156    0.680990    0.467781    11.00000    0.02929    0.01931 = 
         0.02075    0.00093   -0.00689   -0.00573 
AFIX  43 
H11   2    0.765099    0.595254    0.498449    11.00000   -1.20000 
AFIX   0 
C12   1    0.486980    0.710056    0.512201    11.00000    0.03077    0.03070 = 
         0.02207   -0.00567   -0.00018   -0.01068 
AFIX  43 
H12   2    0.438917    0.644672    0.574628    11.00000   -1.20000 
AFIX   0 
C13   1    0.363204    0.834082    0.466092    11.00000    0.02440    0.03442 = 
         0.02827   -0.01413   -0.00322   -0.00723 
AFIX  43 
H13   2    0.231243    0.852146    0.496774    11.00000   -1.20000 
AFIX   0 
C14   1    0.431119    0.931241    0.375852    11.00000    0.02710    0.02809 = 
         0.02979   -0.00799   -0.01129    0.00123 
AFIX  43 
H14   2    0.345948    1.015584    0.344532    11.00000   -1.20000 
AFIX   0 
C15   1    0.623879    0.905472    0.331030    11.00000    0.02681    0.02077 = 
         0.02307   -0.00092   -0.00854   -0.00170 
AFIX  43 
H15   2    0.671616    0.972488    0.269455    11.00000   -1.20000 
AFIX   0 
HKLF 4 
  
REM  mo_70124a in P-1 
REM R1 =  0.0396 for    2612 Fo > 4sig(Fo)  and  0.0534 for all    3057 data 
REM    200 parameters refined using      0 restraints 
  
END 
  
WGHT      0.1095      0.2143 
  
REM Highest difference peak  0.632,  deepest hole -0.719,  1-sigma level  0.177 
Q1    1   1.1413  0.3187  0.1396  11.00000  0.05    0.63 
;
_shelx_res_checksum              4955
_shelx_hkl_file
; 
  -1   0   0   32.27    1.15 
  -1   0   0   32.51    1.19 
  -2   0   0   86.05    3.12 
  -2   0   0   86.28    3.03 
  -4   0   0   41.22    1.57 
  -5   0   0   11.03    0.58 
  -6   0   0    7.68    0.50 
   6   0   0    7.60    0.50 
  -7   0   0   15.88    0.82 
   7   0   0   16.36    0.86 
   8   0   0   39.20    1.70 
   9   0   0    5.88    0.57 
   8  -1   0    1.44    0.32 
   7  -1   0    3.29    0.37 
   6  -1   0    0.78    0.21 
   5  -1   0   52.30    2.03 
  -5   1   0   53.96    2.02 
   4  -1   0    3.73    0.29 
  -4   1   0    4.15    0.29 
  -2   1   0    0.75    0.11 
   1  -1   0   92.53    3.21 
   0  -1   0   61.62    2.11 
   0   1   0   59.96    2.11 
  -1  -1   0  284.46    9.91 
  -1  -1   0  291.13   10.16 
  -2  -1   0   26.47    1.03 
  -3  -1   0    0.06    0.04 
  -4  -1   0    0.79    0.19 
  -4  -1   0    0.72    0.15 
  -5  -1   0   10.69    0.62 
  -5  -1   0   11.68    0.58 
  -6  -1   0    2.05    0.32 
  -6  -1   0    2.55    0.31 
  -7  -1   0    4.65    0.42 
   7   1   0    3.54    0.41 
  -8  -1   0    0.22    0.20 
   8   1   0    0.21    0.25 
   9   1   0    6.35    0.60 
   8  -2   0    5.82    0.52 
   7  -2   0   37.91    1.59 
   6  -2   0    1.20    0.24 
   5  -2   0    0.38    0.16 
   4  -2   0   96.34    3.46 
   3  -2   0   29.27    1.11 
   2  -2   0   11.60    0.48 
   1  -2   0    7.93    0.30 
   1  -2   0    7.18    0.37 
   0  -2   0  301.59   10.37 
  -1  -2   0  201.49    7.07 
  -1  -2   0  196.05    6.86 
  -2  -2   0   15.66    0.68 
  -2  -2   0   16.14    0.64 
  -3  -2   0   88.30    3.83 
  -3  -2   0  122.36    3.74 
  -4  -2   0  127.19    4.71 
  -4  -2   0  130.06    4.57 
  -6  -2   0    3.23    0.40 
  -7  -2   0   14.21    0.75 
  -7  -2   0   13.75    0.82 
  -8  -2   0   13.67    0.85 
  -8  -2   0   13.06    0.75 
   8   2   0   13.01    0.79 
   9   2   0    2.01    0.36 
   8  -3   0   21.61    1.07 
   7  -3   0    8.13    0.56 
   6  -3   0    0.32    0.18 
   5  -3   0   74.01    2.73 
   4  -3   0    3.92    0.29 
   3  -3   0   74.04    2.68 
   3  -3   0   76.40    2.86 
   2  -3   0   19.89    0.75 
   2  -3   0   19.99    0.87 
   1  -3   0   27.42    0.99 
   1  -3   0   27.68    1.11 
  -2  -3   0   49.02    1.86 
  -3  -3   0    0.10    0.10 
  -3  -3   0   -0.03    0.12 
  -4  -3   0    2.21    0.27 
  -4  -3   0    1.68    0.20 
  -5  -3   0   15.42    0.80 
  -5  -3   0   16.58    0.75 
  -6  -3   0   25.51    1.12 
  -6  -3   0   25.97    1.20 
  -7  -3   0    0.52    0.26 
  -7  -3   0    0.09    0.17 
  -8  -3   0    6.27    0.50 
  -8  -3   0    7.21    0.60 
  -9  -3   0    1.29    0.36 
  -9  -3   0    1.33    0.29 
   9   3   0    1.02    0.30 
   7  -4   0    0.76    0.37 
   6  -4   0    1.24    0.35 
   5  -4   0    9.41    0.66 
   5  -4   0    8.97    0.50 
   4  -4   0  126.82    4.48 
   4  -4   0  126.00    4.74 
   3  -4   0   20.49    0.80 
   3  -4   0   19.88    0.96 
   2  -4   0   15.17    0.75 
   2  -4   0   14.93    0.59 
   1  -4   0   11.64    0.60 
   1  -4   0   11.78    0.45 
   0  -4   0   16.30    0.59 
  -1  -4   0   18.61    0.71 
  -1  -4   0   19.47    0.85 
  -2  -4   0    3.95    0.31 
  -2  -4   0    4.07    0.24 
  -3  -4   0    8.81    0.43 
  -3  -4   0    8.90    0.50 
  -4  -4   0  198.14    7.08 
  -4  -4   0  191.65    6.84 
  -5  -4   0  154.63    5.62 
  -5  -4   0  161.84    5.85 
  -6  -4   0    1.09    0.23 
  -6  -4   0    1.22    0.29 
  -7  -4   0    0.91    0.28 
  -7  -4   0    0.61    0.22 
  -8  -4   0   10.39    0.77 
  -8  -4   0   12.01    0.70 
  -9  -4   0   14.33    0.84 
  -9  -4   0   14.55    0.94 
   9   4   0   13.07    0.87 
   6  -5   0    0.20    0.30 
   5  -5   0    4.55    0.53 
   4  -5   0   13.50    0.81 
   3  -5   0   14.68    0.82 
   2  -5   0   44.71    1.83 
   1  -5   0    9.51    0.37 
   1  -5   0    9.42    0.56 
   0  -5   0    0.02    0.07 
   0  -5   0    0.18    0.05 
  -1  -5   0    8.23    0.34 
  -1  -5   0    7.56    0.48 
  -2  -5   0   24.08    1.07 
  -2  -5   0   24.16    0.92 
  -3  -5   0    8.86    0.44 
  -3  -5   0    9.19    0.56 
  -4  -5   0    2.95    0.27 
  -4  -5   0    2.86    0.35 
  -5  -5   0   27.34    1.27 
  -5  -5   0   27.76    1.15 
  -6  -5   0   28.23    1.32 
  -6  -5   0   27.25    1.19 
  -7  -5   0    0.13    0.20 
  -7  -5   0    0.05    0.21 
  -8  -5   0    5.31    0.48 
  -8  -5   0    6.18    0.57 
  -9  -5   0    2.56    0.47 
  -9  -5   0    1.93    0.37 
   9   5   0    1.67    0.40 
   6  -6   0    0.29    0.37 
   5  -6   0    2.05    0.43 
   4  -6   0    1.02    0.34 
   3  -6   0   57.34    2.37 
   2  -6   0    2.80    0.38 
   1  -6   0   -0.20    0.19 
   0  -6   0   -0.02    0.07 
  -1  -6   0    0.05    0.08 
  -2  -6   0   92.80    3.27 
  -3  -6   0   48.33    1.81 
  -3  -6   0   50.13    2.02 
  -4  -6   0   25.05    1.02 
  -4  -6   0   24.40    1.16 
  -5  -6   0   64.41    2.43 
  -5  -6   0   65.25    2.62 
  -6  -6   0    0.14    0.18 
  -6  -6   0    0.63    0.26 
  -7  -6   0    0.63    0.23 
  -7  -6   0    0.24    0.24 
  -8  -6   0    5.64    0.50 
  -8  -6   0    5.30    0.60 
   5  -7   0    1.76    0.47 
   4  -7   0   20.72    1.18 
   3  -7   0   10.46    0.74 
   2  -7   0    5.65    0.52 
   1  -7   0   31.26    1.45 
   0  -7   0   40.26    1.74 
  -1  -7   0    0.09    0.22 
  -2  -7   0   44.08    1.88 
  -3  -7   0   13.20    0.79 
  -4  -7   0   39.04    1.52 
  -4  -7   0   39.57    1.74 
  -5  -7   0    3.88    0.45 
  -5  -7   0    3.76    0.34 
  -6  -7   0    7.00    0.58 
  -6  -7   0    7.12    0.48 
  -7  -7   0   11.49    0.80 
  -7  -7   0   10.81    0.66 
  -8  -7   0    1.75    0.35 
  -8  -7   0    2.77    0.46 
   3  -8   0    7.67    0.72 
   2  -8   0    7.72    0.67 
   1  -8   0    0.20    0.23 
   0  -8   0    4.96    0.53 
  -1  -8   0   65.49    2.68 
  -2  -8   0    1.04    0.31 
  -3  -8   0    0.13    0.22 
  -4  -8   0    0.52    0.27 
  -5  -8   0   13.63    0.85 
  -6  -8   0    6.36    0.57 
  -7  -8   0    0.06    0.24 
   2  -9   0    2.66    0.49 
   1  -9   0    1.11    0.34 
   0  -9   0   22.07    1.19 
  -1  -9   0    3.92    0.50 
  -2  -9   0   23.14    1.22 
  -3  -9   0    2.27    0.41 
  -4  -9   0    6.32    0.61 
  -5  -9   0    0.46    0.29 
  -6  -9   0    3.61    0.54 
   0 -10   0    0.37    0.31 
  -1 -10   0   48.88    2.21 
  -2 -10   0    2.73    0.48 
  -3 -10   0    4.08    0.57 
  -4 -10   0    3.58    0.56 
  -4 -10   1   19.24    1.16 
  -3 -10   1    4.35    0.57 
  -2 -10   1    0.41    0.28 
  -1 -10   1    0.13    0.28 
  -6  -9   1    5.06    0.64 
  -5  -9   1   -0.27    0.23 
  -4  -9   1   12.18    0.84 
  -3  -9   1   22.05    1.19 
  -2  -9   1    6.03    0.55 
  -1  -9   1    3.44    0.49 
   0  -9   1   13.48    0.88 
   1  -9   1   11.60    0.83 
   2  -9   1    2.19    0.47 
  -7  -8   1    1.56    0.41 
  -6  -8   1    0.25    0.27 
  -5  -8   1    0.28    0.22 
  -4  -8   1   29.72    1.44 
  -3  -8   1    1.01    0.29 
  -2  -8   1    0.37    0.24 
  -1  -8   1    1.05    0.31 
   0  -8   1    0.54    0.28 
   1  -8   1    8.40    0.65 
   2  -8   1    0.02    0.26 
   3  -8   1    0.18    0.34 
   8   7  -1   -0.20    0.24 
  -8  -7   1    0.20    0.25 
  -8  -7   1   -0.17    0.28 
   7   7  -1    1.74    0.33 
  -7  -7   1    1.78    0.31 
  -7  -7   1    2.18    0.42 
  -6  -7   1    6.06    0.44 
  -6  -7   1    6.83    0.59 
  -5  -7   1    5.07    0.39 
  -5  -7   1    5.24    0.51 
  -4  -7   1   14.30    0.85 
  -3  -7   1   23.55    1.16 
  -2  -7   1  109.95    4.20 
  -1  -7   1   58.40    2.37 
   0  -7   1    1.17    0.29 
   1  -7   1   13.88    0.81 
   2  -7   1   27.60    1.33 
   3  -7   1    9.80    0.73 
   4  -7   1    0.86    0.36 
   5  -7   1   18.95    1.15 
   8   6  -1    4.76    0.51 
  -8  -6   1    3.57    0.53 
  -8  -6   1    3.65    0.44 
   7   6  -1    9.58    0.65 
  -7  -6   1    9.91    0.61 
  -7  -6   1   10.64    0.75 
  -6  -6   1    0.23    0.24 
  -6  -6   1    0.12    0.18 
  -5  -6   1    2.98    0.31 
  -5  -6   1    3.37    0.44 
  -4  -6   1    1.43    0.30 
  -4  -6   1    0.87    0.18 
  -3  -6   1   23.88    0.95 
  -1  -6   1   -0.02    0.06 
   0  -6   1   23.66    1.10 
   1  -6   1   30.66    1.37 
   2  -6   1    4.62    0.47 
   3  -6   1   13.14    0.80 
   4  -6   1    9.46    0.70 
   5  -6   1    4.41    0.56 
   6  -6   1    3.21    0.53 
   9   5  -1    3.04    0.47 
  -9  -5   1    2.35    0.51 
   8   5  -1   11.19    0.74 
  -8  -5   1   11.16    0.69 
  -8  -5   1   11.64    0.82 
  -7  -5   1   46.67    2.05 
  -7  -5   1   46.43    1.89 
  -6  -5   1   12.87    0.68 
  -6  -5   1   12.51    0.79 
  -5  -5   1   58.19    2.34 
  -5  -5   1   56.55    2.17 
  -4  -5   1    1.19    0.19 
  -4  -5   1    2.00    0.30 
  -3  -5   1    5.23    0.41 
  -3  -5   1    4.84    0.30 
  -2  -5   1   47.51    1.71 
  -1  -5   1   18.20    0.67 
   0  -5   1   71.95    2.75 
   1  -5   1  103.08    3.86 
   2  -5   1  116.58    4.36 
   3  -5   1   13.69    0.76 
   4  -5   1    0.16    0.23 
   5  -5   1    0.20    0.27 
   6  -5   1    2.33    0.45 
   9   4  -1    0.86    0.32 
  -9  -4   1    0.49    0.32 
   8   4  -1    0.65    0.25 
  -8  -4   1    0.15    0.23 
  -8  -4   1    0.64    0.31 
   7   4  -1   19.46    1.00 
  -7  -4   1   20.22    0.98 
  -7  -4   1   21.38    1.10 
  -6  -4   1    0.08    0.16 
  -6  -4   1   -0.19    0.18 
  -5  -4   1    3.04    0.36 
  -5  -4   1    2.57    0.30 
  -4  -4   1   14.03    0.73 
  -4  -4   1   13.71    0.64 
  -3  -4   1  154.38    5.08 
  -3  -4   1  154.46    5.62 
  -3  -4   1  153.43    5.41 
  -2  -4   1   85.05    3.15 
  -2  -4   1   83.18    2.97 
   0  -4   1   27.56    1.14 
   1  -4   1    2.73    0.28 
   2  -4   1    1.41    0.12 
   2  -4   1    1.39    0.23 
   3  -4   1   15.93    0.79 
   3  -4   1   15.80    0.64 
   4  -4   1    0.23    0.12 
   4  -4   1    0.52    0.23 
   5  -4   1    1.24    0.31 
   5  -4   1    1.37    0.20 
   6  -4   1    4.18    0.50 
   7  -4   1    0.81    0.35 
   9   3  -1    0.13    0.24 
  -9  -3   1    0.59    0.33 
   8   3  -1    2.08    0.36 
  -8  -3   1    2.50    0.42 
   7   3  -1    6.63    0.55 
  -7  -3   1    8.31    0.54 
  -7  -3   1    8.66    0.63 
  -6  -3   1   28.44    1.29 
  -6  -3   1   27.13    1.19 
  -5  -3   1   30.93    1.37 
  -5  -3   1   31.45    1.27 
  -4  -3   1    6.47    0.45 
  -4  -3   1    6.59    0.39 
  -3  -3   1    6.95    0.37 
  -3  -3   1    7.82    0.46 
  -3  -3   1    7.66    0.27 
  -2  -3   1   20.08    0.77 
   0  -3   1   19.67    0.83 
   1  -3   1   28.42    1.00 
   1  -3   1   28.30    1.14 
   2  -3   1    1.54    0.20 
   2  -3   1    1.71    0.13 
   3  -3   1  148.38    5.20 
   3  -3   1  149.06    5.42 
   4  -3   1    1.92    0.29 
   4  -3   1    1.90    0.21 
   5  -3   1    3.96    0.32 
   6  -3   1    6.90    0.46 
   7  -3   1   16.38    0.83 
   9   2  -1    0.20    0.23 
   8   2  -1    0.09    0.22 
  -8  -2   1   -0.11    0.22 
   7   2  -1    4.49    0.44 
  -7  -2   1    5.24    0.44 
  -7  -2   1    5.24    0.48 
   6   2  -1    0.14    0.18 
  -6  -2   1    0.21    0.16 
  -6  -2   1    0.03    0.21 
  -5  -2   1   15.01    0.79 
  -4  -2   1    0.09    0.13 
  -4  -2   1    0.08    0.11 
  -3  -2   1    2.17    0.24 
  -3  -2   1    2.32    0.21 
  -2  -2   1   31.47    1.14 
  -2  -2   1   30.23    1.03 
   0  -2   1    0.18    0.09 
   1  -2   1   41.32    1.54 
   1  -2   1   40.58    1.43 
  -2   2  -1    0.38    0.08 
   2  -2   1    0.48    0.13 
  -4   2  -1    6.06    0.35 
   4  -2   1    5.85    0.36 
  -5   2  -1    2.32    0.28 
   5  -2   1    1.49    0.23 
   6  -2   1    9.02    0.54 
   7  -2   1   12.53    0.71 
   8  -2   1    1.18    0.30 
   9   1  -1    4.14    0.51 
   8   1  -1    4.28    0.47 
   7   1  -1    0.88    0.23 
   6   1  -1    5.39    0.43 
  -6  -1   1    5.23    0.40 
  -6  -1   1    5.10    0.46 
  -5  -1   1    7.38    0.50 
  -5  -1   1    6.99    0.43 
  -4  -1   1   23.38    1.05 
  -4  -1   1   24.99    0.99 
  -2  -1   1  288.44    9.65 
  -2  -1   1  255.00    9.40 
   1   1  -1   81.55    2.69 
  -1  -1   1   75.11    2.53 
  -1  -1   1   74.27    2.68 
   0   1  -1  262.95    8.98 
   0  -1   1  259.15    8.98 
   0  -1   1  260.89    9.21 
  -1   1  -1   20.23    0.73 
   1  -1   1   19.37    0.77 
  -2   1  -1    0.18    0.07 
  -4   1  -1   22.94    0.93 
  -5   1  -1   20.89    0.91 
  -6   1  -1   26.03    1.13 
  -7   1  -1   26.83    1.21 
   7  -1   1   28.52    1.26 
   8  -1   1    5.53    0.52 
   9  -1   1    0.43    0.28 
   9   0  -1   -0.04    0.27 
   8   0  -1   -0.13    0.23 
   7   0  -1    1.27    0.27 
   6   0  -1   41.82    1.69 
   5   0  -1    1.25    0.22 
  -5   0   1    1.55    0.22 
   4   0  -1    0.77    0.15 
  -4   0   1    1.36    0.19 
   3   0  -1    7.21    0.38 
  -3   0   1    7.12    0.36 
  -3   0   1    7.22    0.42 
  -2   0   1    1.07    0.13 
  -2   0   1    1.13    0.15 
   0   0  -1   13.94    0.50 
  -1   0  -1   58.85    2.10 
   1   0   1   58.31    1.99 
  -2   0  -1  918.75   32.65 
  -2   0  -1  933.58   31.85 
  -4   0  -1   12.27    0.57 
  -5   0  -1    8.20    0.47 
  -6   0  -1   33.42    1.38 
  -7   0  -1   15.60    0.81 
  -8   0  -1    2.60    0.36 
   8   0   1    2.45    0.39 
   9   0   1    0.39    0.28 
   8  -1  -1    1.45    0.33 
   7  -1  -1    0.17    0.20 
   6  -1  -1    4.67    0.40 
   5  -1  -1   25.90    1.09 
   4  -1  -1   12.40    0.58 
   3  -1  -1   62.39    2.26 
   2  -1  -1   17.70    0.69 
   1  -1  -1  301.44   10.39 
   0  -1  -1    2.05    0.16 
   0  -1  -1    2.24    0.13 
  -1  -1  -1    0.85    0.09 
  -1  -1  -1    1.38    0.12 
   1   1   1    1.12    0.08 
  -2  -1  -1  551.54   19.35 
   2   1   1  546.74   17.96 
  -3  -1  -1    6.55    0.35 
   3   1   1    5.95    0.25 
  -4  -1  -1   86.36    3.15 
  -4  -1  -1   82.75    3.04 
  -5  -1  -1   18.46    0.87 
  -5  -1  -1   18.61    0.82 
  -6  -1  -1   14.19    0.77 
  -6  -1  -1   13.94    0.71 
  -7  -1  -1    4.02    0.38 
  -8  -1  -1    0.00    0.19 
  -9  -1  -1   -0.02    0.23 
   9   1   1    0.06    0.26 
   8  -2  -1   26.50    1.26 
   7  -2  -1    0.66    0.24 
   6  -2  -1   43.67    1.75 
   5  -2  -1    7.71    0.47 
   4  -2  -1    0.57    0.15 
   3  -2  -1   42.05    1.56 
   2  -2  -1   15.59    0.62 
   1  -2  -1  136.61    4.74 
   0  -2  -1   24.63    0.97 
   0  -2  -1   25.46    0.90 
  -1  -2  -1   30.91    1.17 
  -1  -2  -1   30.77    1.11 
  -2  -2  -1   88.11    3.19 
  -2  -2  -1   88.27    3.11 
  -3  -2  -1   18.28    0.75 
  -4  -2  -1    6.14    0.39 
  -4  -2  -1    5.73    0.34 
  -5  -2  -1   14.29    0.73 
   5   2   1   14.61    0.51 
  -6  -2  -1   50.47    2.06 
  -7  -2  -1    5.62    0.45 
  -7  -2  -1    5.36    0.49 
  -8  -2  -1   -0.13    0.19 
  -8  -2  -1    0.00    0.22 
  -9  -2  -1    0.14    0.22 
   9   2   1    0.50    0.29 
   7  -3  -1    2.66    0.35 
   6  -3  -1    1.02    0.23 
   5  -3  -1    7.64    0.45 
   4  -3  -1    4.33    0.32 
   3  -3  -1   63.26    2.29 
   2  -3  -1    7.94    0.36 
   2  -3  -1    8.12    0.46 
   1  -3  -1  107.87    3.76 
  -1  -3  -1   22.79    0.84 
  -2  -3  -1  143.34    5.01 
  -3  -3  -1   78.29    2.83 
  -3  -3  -1   79.58    2.93 
  -4  -3  -1   41.60    1.65 
  -4  -3  -1   41.00    1.58 
  -5  -3  -1    3.24    0.30 
  -5  -3  -1    3.10    0.34 
  -6  -3  -1    0.42    0.22 
  -6  -3  -1    0.24    0.18 
  -7  -3  -1   36.71    1.62 
  -7  -3  -1   35.37    1.51 
  -8  -3  -1   10.21    0.65 
  -8  -3  -1   11.32    0.74 
  -9  -3  -1    0.25    0.27 
  -9  -3  -1    0.25    0.21 
   7  -4  -1    9.90    0.82 
   6  -4  -1   25.98    1.35 
   5  -4  -1    0.78    0.30 
   5  -4  -1    0.50    0.17 
   4  -4  -1    3.92    0.30 
   4  -4  -1    4.03    0.44 
   3  -4  -1    0.81    0.14 
   3  -4  -1    0.55    0.23 
   2  -4  -1   38.06    1.67 
   2  -4  -1   44.40    1.52 
   1  -4  -1    6.77    0.30 
   0  -4  -1    0.44    0.15 
   0  -4  -1    0.57    0.08 
  -1  -4  -1   21.89    0.91 
  -1  -4  -1   20.14    0.78 
  -2  -4  -1    1.22    0.19 
  -2  -4  -1    1.06    0.14 
  -3  -4  -1   10.16    0.55 
  -3  -4  -1    9.98    0.47 
  -4  -4  -1   39.65    1.63 
  -4  -4  -1   40.93    1.55 
  -5  -4  -1    5.31    0.38 
  -5  -4  -1    5.76    0.45 
  -6  -4  -1   32.27    1.44 
  -6  -4  -1   32.68    1.35 
  -7  -4  -1   17.81    0.88 
  -7  -4  -1   17.14    0.95 
  -8  -4  -1    1.23    0.28 
  -8  -4  -1    0.80    0.28 
  -9  -4  -1   -0.01    0.19 
  -9  -4  -1    0.19    0.26 
   6  -5  -1    2.53    0.49 
   5  -5  -1   15.25    0.94 
   4  -5  -1   15.51    0.90 
   3  -5  -1    2.44    0.36 
   2  -5  -1   10.19    0.46 
   0  -5  -1  108.63    4.18 
   0  -5  -1  116.46    3.93 
  -1  -5  -1   12.95    0.52 
  -1  -5  -1   12.41    0.66 
  -2  -5  -1   61.36    2.21 
  -2  -5  -1   61.80    2.38 
  -3  -5  -1  114.92    4.22 
  -3  -5  -1  112.24    4.03 
  -4  -5  -1   68.56    2.51 
  -4  -5  -1   67.77    2.65 
  -5  -5  -1    2.15    0.33 
  -5  -5  -1    2.15    0.26 
  -6  -5  -1   38.70    1.68 
  -6  -5  -1   37.74    1.55 
  -7  -5  -1   28.76    1.36 
  -7  -5  -1   28.08    1.25 
  -8  -5  -1   26.51    1.34 
  -8  -5  -1   26.97    1.25 
  -9  -5  -1    3.80    0.47 
  -9  -5  -1    3.58    0.52 
   5  -6  -1    5.64    0.64 
   4  -6  -1   16.71    0.99 
   3  -6  -1    0.20    0.25 
   2  -6  -1   26.32    1.24 
   0  -6  -1   -0.05    0.08 
  -1  -6  -1    0.16    0.18 
  -1  -6  -1    0.26    0.09 
  -2  -6  -1    8.63    0.41 
  -2  -6  -1    8.35    0.56 
  -3  -6  -1   35.09    1.32 
  -3  -6  -1   33.48    1.48 
  -4  -6  -1   -0.06    0.13 
  -4  -6  -1   -0.03    0.18 
  -5  -6  -1   -0.08    0.13 
  -5  -6  -1   -0.02    0.19 
  -6  -6  -1    0.01    0.16 
  -6  -6  -1    0.43    0.24 
  -7  -6  -1   10.65    0.72 
  -7  -6  -1    9.34    0.60 
  -8  -6  -1    0.38    0.26 
  -8  -6  -1    0.26    0.24 
  -9  -6  -1    0.44    0.30 
  -9  -6  -1    1.03    0.35 
   4  -7  -1   27.57    1.44 
   3  -7  -1    5.73    0.56 
   2  -7  -1   -0.08    0.24 
   1  -7  -1   26.07    1.27 
   0  -7  -1    3.80    0.44 
  -1  -7  -1    3.47    0.41 
  -2  -7  -1   30.47    1.38 
  -3  -7  -1   29.36    1.35 
  -4  -7  -1   72.11    2.70 
  -4  -7  -1   75.68    2.95 
  -5  -7  -1    1.72    0.34 
  -5  -7  -1    1.68    0.25 
  -6  -7  -1   24.71    1.09 
  -6  -7  -1   24.16    1.23 
  -7  -7  -1    1.22    0.33 
  -7  -7  -1    0.86    0.25 
  -8  -7  -1   13.44    0.78 
  -8  -7  -1   12.36    0.86 
   3  -8  -1    2.02    0.45 
   2  -8  -1    6.58    0.62 
   1  -8  -1    4.73    0.54 
   0  -8  -1    0.71    0.29 
  -1  -8  -1    5.21    0.51 
  -2  -8  -1   10.05    0.69 
  -3  -8  -1    9.06    0.66 
  -4  -8  -1    1.12    0.31 
  -5  -8  -1    1.56    0.32 
  -6  -8  -1    3.14    0.46 
  -7  -8  -1   -0.08    0.24 
  -7  -8  -1   -0.15    0.18 
   2  -9  -1    3.81    0.57 
   1  -9  -1    1.29    0.35 
   0  -9  -1   12.00    0.80 
  -1  -9  -1    1.82    0.39 
  -2  -9  -1    1.10    0.33 
  -3  -9  -1    0.27    0.25 
  -4  -9  -1    7.61    0.64 
  -5  -9  -1    7.60    0.65 
  -6  -9  -1    0.20    0.26 
  -1 -10  -1    0.89    0.36 
  -2 -10  -1    0.17    0.32 
  -3 -10  -1    6.34    0.62 
  -4 -10  -1    1.24    0.39 
  -5 -10  -1    0.82    0.35 
  -3 -10   2    0.35    0.31 
  -2 -10   2    4.63    0.60 
  -1 -10   2    1.36    0.41 
  -6  -9   2    1.93    0.44 
  -5  -9   2    8.96    0.74 
  -4  -9   2    0.32    0.28 
  -3  -9   2    0.34    0.25 
  -2  -9   2    0.25    0.26 
  -1  -9   2   54.37    2.35 
   0  -9   2    5.61    0.61 
   1  -9   2    7.79    0.69 
   2  -9   2   -0.09    0.30 
  -7  -8   2    0.20    0.34 
  -6  -8   2    0.06    0.25 
  -5  -8   2    3.80    0.52 
  -4  -8   2   37.66    1.73 
  -3  -8   2    4.09    0.50 
  -2  -8   2    0.46    0.25 
  -1  -8   2    2.05    0.38 
   0  -8   2   30.68    1.46 
   1  -8   2    1.68    0.37 
   2  -8   2    6.95    0.60 
   3  -8   2   12.74    0.88 
   4  -8   2    5.93    0.69 
   7   7  -2    0.26    0.23 
  -7  -7   2   -0.02    0.25 
   6   7  -2    5.07    0.46 
  -6  -7   2    5.63    0.61 
  -5  -7   2    8.06    0.63 
  -4  -7   2    0.93    0.28 
  -3  -7   2    5.72    0.52 
  -2  -7   2   -0.19    0.20 
  -1  -7   2   14.77    0.85 
   0  -7   2   84.76    3.31 
   1  -7   2    0.15    0.24 
   2  -7   2    0.37    0.27 
   3  -7   2   13.87    0.85 
   4  -7   2    0.39    0.32 
   5  -7   2    0.01    0.33 
   8   6  -2    8.11    0.61 
  -8  -6   2    7.20    0.69 
   7   6  -2    7.91    0.58 
  -7  -6   2    8.69    0.68 
   6   6  -2    6.32    0.49 
  -6  -6   2    6.73    0.58 
   5   6  -2    4.91    0.41 
  -5  -6   2    5.70    0.51 
  -5  -6   2    6.15    0.41 
   4   6  -2   35.48    1.40 
  -4  -6   2   35.12    1.39 
  -4  -6   2   36.08    1.58 
   3   6  -2   58.32    2.14 
  -3  -6   2   59.14    2.04 
  -2  -6   2    0.42    0.13 
  -1  -6   2    1.18    0.28 
   0  -6   2  188.17    6.89 
   1  -6   2   41.35    1.74 
   2  -6   2   12.66    0.75 
   3  -6   2    2.01    0.35 
   4  -6   2    9.69    0.69 
   5  -6   2    6.35    0.61 
   6  -6   2   -0.09    0.32 
   8   5  -2    2.17    0.35 
  -8  -5   2    2.32    0.43 
   7   5  -2    3.95    0.43 
  -7  -5   2    4.68    0.56 
   6   5  -2    1.36    0.27 
  -6  -5   2    2.07    0.29 
  -6  -5   2    1.97    0.36 
   5   5  -2  128.00    4.70 
  -5  -5   2  131.22    4.68 
  -5  -5   2  131.57    4.93 
   4   5  -2   73.10    2.68 
  -4  -5   2   72.53    2.66 
   3   5  -2    4.92    0.31 
  -3  -5   2    4.66    0.25 
  -3  -5   2    4.55    0.30 
   1   5  -2   44.11    1.54 
  -1  -5   2   43.53    1.77 
   0  -5   2    2.32    0.29 
   1  -5   2    5.45    0.43 
   2  -5   2    1.12    0.24 
   3  -5   2  121.06    4.53 
   4  -5   2   72.38    2.86 
   5  -5   2    3.62    0.46 
   6  -5   2    1.32    0.38 
   7  -5   2    0.23    0.34 
   9   4  -2    1.65    0.38 
  -9  -4   2    1.74    0.44 
   8   4  -2   -0.18    0.22 
  -8  -4   2    0.10    0.22 
   7   4  -2    9.90    0.64 
  -7  -4   2    9.40    0.70 
   6   4  -2    1.02    0.24 
  -6  -4   2    1.38    0.31 
  -6  -4   2    1.12    0.24 
   5   4  -2   28.55    1.24 
  -5  -4   2   29.58    1.21 
  -5  -4   2   29.83    1.34 
   4   4  -2    1.60    0.22 
  -4  -4   2    1.66    0.27 
  -4  -4   2    1.55    0.21 
   3   4  -2  120.38    4.25 
  -3  -4   2  118.61    3.97 
  -3  -4   2  120.73    4.24 
   2   4  -2   19.44    0.73 
  -2  -4   2   20.07    0.70 
  -2  -4   2   14.92    0.81 
   1   4  -2    1.22    0.11 
  -1  -4   2    1.25    0.20 
   0  -4   2    7.81    0.44 
   1  -4   2   44.51    1.75 
   2  -4   2    0.93    0.08 
   2  -4   2    0.88    0.20 
   3  -4   2    2.40    0.18 
   3  -4   2    2.33    0.31 
   4  -4   2   18.65    0.92 
   4  -4   2   18.59    0.77 
   5  -4   2   27.38    1.27 
   6  -4   2    0.85    0.30 
   7  -4   2    2.95    0.46 
   9   3  -2    8.52    0.67 
  -9  -3   2    7.33    0.74 
   8   3  -2   53.25    2.24 
  -8  -3   2   56.08    2.39 
   7   3  -2    0.32    0.21 
  -7  -3   2    0.44    0.26 
   6   3  -2   -0.09    0.19 
  -6  -3   2   -0.34    0.17 
   5   3  -2   38.04    1.52 
  -5  -3   2   38.61    1.63 
  -5  -3   2   36.74    1.50 
   4   3  -2  104.48    3.76 
  -4  -3   2  105.43    3.75 
  -4  -3   2  103.35    3.92 
   3   3  -2   10.66    0.52 
  -3  -3   2   11.78    0.60 
  -3  -3   2   11.61    0.52 
  -3  -3   2   11.08    0.41 
   2   3  -2   41.02    1.54 
  -2  -3   2   41.71    1.44 
  -2  -3   2   43.64    1.54 
   1   3  -2  302.14   10.43 
  -1  -3   2  302.82   10.76 
   0  -3   2    0.09    0.11 
   1  -3   2   13.27    0.62 
  -2   3  -2   45.53    1.61 
   2  -3   2   45.26    1.75 
  -3   3  -2    3.55    0.22 
   3  -3   2    3.26    0.31 
  -4   3  -2   99.86    3.51 
   4  -3   2   97.94    3.52 
   4  -3   2   97.28    3.68 
   5  -3   2    4.34    0.43 
   5  -3   2    4.96    0.35 
   6  -3   2    0.11    0.16 
   6  -3   2    0.17    0.24 
   7  -3   2    3.48    0.38 
   7  -3   2    3.37    0.46 
   8  -3   2   10.46    0.82 
   9   2  -2    2.81    0.44 
   8   2  -2    1.37    0.30 
   7   2  -2   16.15    0.84 
  -7  -2   2   15.60    0.91 
   6   2  -2    0.70    0.22 
  -6  -2   2    0.39    0.22 
   5   2  -2    0.70    0.19 
  -5  -2   2    0.40    0.14 
  -5  -2   2    0.85    0.25 
   4   2  -2   12.62    0.59 
  -4  -2   2   11.98    0.64 
  -4  -2   2   10.85    0.56 
   3   2  -2   83.14    2.84 
  -3  -2   2   77.63    2.94 
  -3  -2   2   75.44    2.82 
   2   2  -2    1.59    0.16 
  -2  -2   2    1.67    0.12 
   1   2  -2    2.86    0.17 
  -1  -2   2    3.10    0.16 
  -1  -2   2    2.51    0.21 
   0   2  -2   96.87    3.39 
   0  -2   2   99.31    3.53 
  -1   2  -2  136.01    4.72 
   1  -2   2  137.22    4.89 
  -2   2  -2  280.43    9.75 
   2  -2   2  284.45   10.03 
  -3   2  -2    0.15    0.09 
   3  -2   2    0.07    0.12 
  -4   2  -2    9.84    0.48 
  -5   2  -2  292.18   10.21 
  -6   2  -2   -0.27    0.16 
   6  -2   2   -0.05    0.15 
   7  -2   2    1.31    0.27 
   8  -2   2    2.47    0.37 
   8   1  -2   28.79    1.35 
   7   1  -2    1.24    0.25 
   6   1  -2    0.80    0.21 
  -6  -1   2    0.98    0.29 
   4   1  -2    1.52    0.19 
  -4  -1   2    2.19    0.28 
   3   1  -2   27.74    1.06 
  -3  -1   2   26.11    1.12 
   2   1  -2   38.38    1.46 
  -2  -1   2   41.40    1.35 
   1   1  -2   72.16    2.53 
  -1  -1   2   71.42    2.40 
  -1  -1   2   72.22    2.62 
   0   1  -2  654.98   22.62 
   0  -1   2  656.59   23.10 
   0  -1   2  658.57   21.47 
  -1   1  -2   36.07    1.28 
   1  -1   2   36.04    1.33 
  -2   1  -2   37.63    1.36 
  -3   1  -2    4.82    0.27 
  -4   1  -2   11.26    0.53 
  -5   1  -2    5.86    0.39 
  -6   1  -2   13.42    0.69 
  -7   1  -2   13.37    0.72 
  -8   1  -2   36.42    1.54 
   8  -1   2   34.53    1.56 
   9  -1   2    0.19    0.27 
   8   0  -2   -0.26    0.23 
   7   0  -2   33.52    1.46 
   6   0  -2    6.65    0.48 
   5   0  -2   27.80    1.16 
   4   0  -2    0.26    0.13 
   3   0  -2   94.64    3.34 
  -3   0   2   92.73    3.47 
  -2   0   2    0.00    0.03 
   1   0  -2    0.67    0.09 
  -1   0   2    0.58    0.07 
   0   0  -2    7.23    0.29 
   0   0   2    6.37    0.29 
   0   0   2    6.08    0.27 
   1   0   2  684.69   24.06 
  -2   0  -2 1000.00   34.23 
   2   0   2  990.62   32.53 
  -4   0  -2    0.40    0.14 
  -5   0  -2   44.66    1.72 
  -6   0  -2   17.04    0.82 
  -7   0  -2    1.28    0.28 
  -8   0  -2    2.19    0.33 
  -9   0  -2   20.05    1.03 
   9   0   2   19.58    1.08 
   8  -1  -2   19.68    1.03 
   7  -1  -2   12.42    0.71 
   6  -1  -2    3.28    0.36 
   5  -1  -2    1.78    0.25 
   4  -1  -2   32.00    1.27 
   3  -1  -2   99.43    3.54 
   2  -1  -2   25.18    0.96 
   1  -1  -2    9.32    0.39 
   0  -1  -2  697.52   24.10 
  -1  -1  -2  198.58    6.99 
   1   1   2  197.88    6.51 
  -2  -1  -2  262.55    8.62 
  -2  -1  -2  214.35    8.44 
   2   1   2  253.82    8.00 
  -3  -1  -2  127.82    4.59 
   3   1   2  127.77    4.22 
  -4  -1  -2  115.13    4.08 
   4   1   2  113.63    3.80 
  -5  -1  -2   29.55    1.24 
  -5  -1  -2   29.19    1.20 
   5   1   2   29.92    1.05 
  -6  -1  -2    3.17    0.36 
  -6  -1  -2    3.07    0.33 
   6   1   2    3.22    0.23 
  -7  -1  -2    0.71    0.23 
  -8  -1  -2   22.05    1.07 
  -9  -1  -2    0.26    0.23 
   8  -2  -2    1.79    0.36 
   7  -2  -2    0.51    0.24 
   6  -2  -2    2.68    0.32 
   5  -2  -2   13.55    0.67 
   4  -2  -2   11.06    0.55 
   3  -2  -2   22.48    0.90 
   2  -2  -2   62.74    2.25 
   1  -2  -2   51.04    1.82 
   0  -2  -2  339.88   11.94 
   0  -2  -2  352.77   12.25 
  -1  -2  -2  570.40   19.71 
  -1  -2  -2  574.62   20.18 
  -2  -2  -2   77.27    2.78 
  -2  -2  -2   78.94    2.84 
   2   2   2   78.58    2.60 
  -3  -2  -2    9.13    0.44 
  -3  -2  -2    9.09    0.45 
   3   2   2    9.61    0.35 
  -4  -2  -2   18.85    0.82 
   4   2   2   19.16    0.67 
  -5  -2  -2   13.88    0.68 
   5   2   2   13.03    0.49 
  -6  -2  -2   41.81    1.73 
  -7  -2  -2    0.70    0.21 
  -7  -2  -2    0.53    0.24 
  -8  -2  -2    0.50    0.20 
  -9  -2  -2    1.89    0.35 
   7  -3  -2   38.24    1.62 
   6  -3  -2   18.22    0.88 
   5  -3  -2   30.14    1.24 
   4  -3  -2  118.36    4.23 
   3  -3  -2   11.54    0.53 
   2  -3  -2   15.40    0.80 
   2  -3  -2   20.13    0.73 
   1  -3  -2  156.98    5.64 
   1  -3  -2  167.03    5.85 
   0  -3  -2   53.93    1.92 
  -1  -3  -2  124.41    3.83 
  -1  -3  -2   94.01    3.95 
  -2  -3  -2   79.17    3.33 
  -2  -3  -2  104.08    3.25 
  -3  -3  -2   -0.03    0.06 
  -3  -3  -2    0.13    0.10 
  -4  -3  -2  134.77    4.74 
  -4  -3  -2  131.67    4.85 
  -5  -3  -2    2.50    0.28 
  -5  -3  -2    3.02    0.31 
  -6  -3  -2    6.28    0.42 
  -7  -3  -2   10.63    0.68 
  -7  -3  -2   11.00    0.64 
  -8  -3  -2    0.32    0.22 
  -8  -3  -2    0.37    0.25 
  -9  -3  -2    4.07    0.52 
  -9  -3  -2    4.10    0.46 
   7  -4  -2    1.39    0.44 
   6  -4  -2    8.38    0.54 
   6  -4  -2    8.75    0.74 
   5  -4  -2   19.37    1.07 
   5  -4  -2   19.57    0.88 
   4  -4  -2   44.85    1.90 
   4  -4  -2   43.87    1.69 
   3  -4  -2   20.75    0.85 
   1  -4  -2    8.94    0.51 
   1  -4  -2    8.91    0.40 
   0  -4  -2    0.14    0.07 
   0  -4  -2   -0.06    0.13 
  -1  -4  -2   63.94    2.38 
  -1  -4  -2   61.55    2.23 
  -2  -4  -2   49.09    1.81 
  -2  -4  -2   50.03    1.91 
  -3  -4  -2    1.85    0.23 
  -3  -4  -2    2.18    0.21 
  -4  -4  -2    4.22    0.31 
  -4  -4  -2    4.32    0.35 
  -5  -4  -2   20.41    0.95 
  -5  -4  -2   19.94    0.89 
  -6  -4  -2   74.54    2.85 
  -6  -4  -2   71.17    2.73 
  -7  -4  -2   28.35    1.34 
  -7  -4  -2   29.33    1.27 
  -8  -4  -2    4.97    0.53 
  -8  -4  -2    4.63    0.44 
  -9  -4  -2    5.89    0.58 
  -9  -4  -2    6.16    0.51 
   6  -5  -2    6.69    0.72 
   5  -5  -2    0.26    0.30 
   4  -5  -2   47.65    2.05 
   3  -5  -2   64.36    2.36 
   3  -5  -2   64.08    2.59 
   1  -5  -2    0.01    0.08 
   1  -5  -2    0.03    0.11 
   0  -5  -2    9.93    0.59 
   0  -5  -2    9.85    0.43 
  -1  -5  -2    5.77    0.30 
  -1  -5  -2    5.86    0.41 
  -2  -5  -2   29.43    1.27 
  -2  -5  -2   30.76    1.15 
  -3  -5  -2   25.29    1.01 
  -3  -5  -2   24.77    1.10 
  -4  -5  -2   48.75    1.92 
  -4  -5  -2   46.77    1.81 
  -5  -5  -2   75.68    2.80 
  -5  -5  -2   74.84    2.92 
  -6  -5  -2    9.24    0.55 
  -6  -5  -2    8.48    0.60 
  -7  -5  -2    0.25    0.21 
  -7  -5  -2    0.04    0.16 
  -8  -5  -2    8.69    0.64 
  -8  -5  -2    7.36    0.57 
  -9  -5  -2   18.69    1.11 
  -9  -5  -2   19.24    1.02 
   5  -6  -2    5.04    0.61 
   4  -6  -2   15.87    0.97 
   3  -6  -2    5.25    0.50 
   2  -6  -2    0.37    0.25 
   1  -6  -2   10.25    0.67 
   0  -6  -2    5.58    0.30 
   0  -6  -2    6.35    0.50 
  -1  -6  -2    1.50    0.28 
  -1  -6  -2    1.36    0.15 
  -2  -6  -2   29.71    1.14 
  -2  -6  -2   29.71    1.31 
  -3  -6  -2   45.21    1.85 
  -3  -6  -2   44.31    1.68 
  -4  -6  -2    1.23    0.27 
  -4  -6  -2    1.34    0.21 
  -5  -6  -2    0.38    0.23 
  -5  -6  -2    0.20    0.17 
  -6  -6  -2   34.33    1.51 
  -6  -6  -2   32.35    1.38 
  -7  -6  -2   -0.01    0.17 
  -7  -6  -2   -0.10    0.20 
  -8  -6  -2    0.09    0.22 
  -8  -6  -2    0.27    0.25 
  -9  -6  -2    0.36    0.29 
  -9  -6  -2    0.53    0.28 
   4  -7  -2    0.36    0.33 
   3  -7  -2   40.09    1.84 
   2  -7  -2   64.36    2.67 
   1  -7  -2    1.80    0.35 
   0  -7  -2   70.05    2.81 
  -1  -7  -2   67.36    2.69 
  -2  -7  -2   50.56    2.10 
  -3  -7  -2   19.66    1.00 
  -3  -7  -2   19.45    0.82 
  -4  -7  -2   23.51    1.15 
  -4  -7  -2   22.94    0.98 
  -5  -7  -2   50.17    1.95 
  -5  -7  -2   50.60    2.12 
  -6  -7  -2    9.11    0.66 
  -6  -7  -2    9.43    0.55 
  -7  -7  -2    1.25    0.31 
  -7  -7  -2    0.77    0.24 
  -8  -7  -2    8.43    0.69 
  -8  -7  -2    9.23    0.63 
   3  -8  -2    4.19    0.57 
   2  -8  -2   10.32    0.78 
   1  -8  -2    0.67    0.30 
   0  -8  -2   13.41    0.83 
  -1  -8  -2    0.17    0.21 
  -2  -8  -2    5.93    0.51 
  -3  -8  -2    9.28    0.66 
  -4  -8  -2   39.05    1.75 
  -5  -8  -2    1.58    0.33 
  -6  -8  -2   20.65    0.96 
  -6  -8  -2   20.82    1.12 
  -7  -8  -2    0.53    0.28 
  -7  -8  -2    0.42    0.24 
  -8  -8  -2    2.80    0.38 
  -8  -8  -2    2.28    0.44 
   2  -9  -2   43.12    2.04 
   1  -9  -2    2.80    0.48 
   0  -9  -2   -0.08    0.24 
  -1  -9  -2   22.70    1.21 
  -2  -9  -2   21.34    1.15 
  -3  -9  -2    2.08    0.39 
  -4  -9  -2   -0.02    0.23 
  -5  -9  -2    5.06    0.57 
  -6  -9  -2    6.45    0.61 
  -7  -9  -2    4.57    0.59 
  -1 -10  -2    6.80    0.66 
  -2 -10  -2   29.90    1.54 
  -3 -10  -2    7.72    0.70 
  -4 -10  -2    0.08    0.30 
  -5 -10  -2    0.57    0.33 
  -2 -10   3   41.38    1.97 
  -5  -9   3    3.83    0.54 
  -4  -9   3    5.44    0.61 
  -3  -9   3    0.15    0.25 
  -2  -9   3    5.94    0.57 
  -1  -9   3    4.43    0.55 
   0  -9   3    1.55    0.39 
   1  -9   3    1.86    0.43 
   2  -9   3   -0.02    0.31 
  -6  -8   3   12.40    0.88 
  -5  -8   3    2.48    0.42 
  -4  -8   3    4.41    0.53 
  -3  -8   3   17.76    1.00 
  -2  -8   3   38.69    1.49 
  -2  -8   3   38.90    1.76 
  -1  -8   3   11.72    0.77 
   0  -8   3    1.19    0.31 
   1  -8   3    5.74    0.57 
   2  -8   3   13.10    0.86 
   3  -8   3    0.15    0.29 
   7   7  -3   -0.14    0.21 
  -7  -7   3   -0.06    0.24 
  -6  -7   3    2.16    0.42 
  -5  -7   3   17.15    1.00 
  -4  -7   3    3.69    0.47 
  -3  -7   3    5.72    0.51 
  -2  -7   3   37.28    1.68 
  -2  -7   3   38.59    1.43 
  -1  -7   3    0.84    0.29 
   0  -7   3   79.81    3.13 
   1  -7   3    1.71    0.32 
   2  -7   3   -0.08    0.22 
   3  -7   3   10.12    0.72 
   4  -7   3    4.15    0.53 
   5  -7   3    0.33    0.36 
  -8  -6   3    2.23    0.48 
   7   6  -3    2.41    0.35 
  -7  -6   3    2.42    0.44 
   6   6  -3   15.89    0.80 
  -6  -6   3   15.44    0.94 
   5   6  -3   22.00    0.96 
  -5  -6   3   20.57    1.11 
   4   6  -3    6.96    0.44 
  -4  -6   3    8.46    0.60 
   3   6  -3    4.35    0.30 
  -3  -6   3    4.95    0.30 
  -3  -6   3    4.79    0.45 
  -2  -6   3   14.63    0.64 
  -2  -6   3   14.42    0.81 
  -1  -6   3   55.99    2.25 
   0  -6   3   18.60    0.92 
   1  -6   3    2.82    0.37 
   2  -6   3  193.59    7.10 
   3  -6   3   29.40    1.36 
   4  -6   3    0.17    0.26 
   5  -6   3    0.04    0.26 
   6  -6   3   10.07    0.78 
   8   5  -3   10.22    0.69 
  -8  -5   3    9.71    0.80 
   7   5  -3    1.72    0.30 
  -7  -5   3    2.00    0.39 
   6   5  -3    4.91    0.42 
  -6  -5   3    5.30    0.51 
   5   5  -3    8.37    0.52 
  -5  -5   3    9.13    0.65 
   4   5  -3   25.68    1.06 
  -3  -5   3    0.34    0.11 
   2   5  -3    0.05    0.08 
  -2  -5   3    0.02    0.17 
  -2  -5   3    0.15    0.10 
   1   5  -3   11.65    0.46 
  -1  -5   3   12.01    0.65 
   0  -5   3    3.77    0.37 
   1  -5   3    4.45    0.39 
   2  -5   3   17.33    0.86 
   3  -5   3   36.15    1.55 
   4  -5   3   10.50    0.66 
   5  -5   3   14.23    0.84 
   6  -5   3   -0.17    0.27 
   7  -5   3    0.20    0.36 
   8   4  -3   20.57    1.07 
  -8  -4   3   22.02    1.24 
   7   4  -3    1.35    0.28 
  -7  -4   3    1.79    0.38 
   6   4  -3    6.06    0.47 
  -6  -4   3    6.17    0.55 
   5   4  -3   24.26    1.02 
  -5  -4   3   22.00    1.13 
   4   4  -3    0.56    0.16 
  -4  -4   3    0.02    0.08 
   3   4  -3    5.52    0.33 
  -3  -4   3    5.72    0.27 
   2   4  -3    0.23    0.08 
  -2  -4   3    0.15    0.07 
  -2  -4   3    0.55    0.17 
   1   4  -3   56.52    1.96 
  -1  -4   3   53.92    1.92 
  -1  -4   3   55.49    2.14 
   0  -4   3    2.09    0.25 
   1  -4   3    5.56    0.37 
   2  -4   3   31.18    1.29 
   2  -4   3   30.51    1.09 
   3  -4   3   60.00    2.14 
   3  -4   3   60.58    2.34 
   4  -4   3    0.69    0.23 
   5  -4   3    7.21    0.53 
   6  -4   3    8.35    0.62 
   7  -4   3    3.10    0.46 
   8   3  -3    1.18    0.32 
  -8  -3   3    0.56    0.28 
   7   3  -3   19.90    0.99 
  -7  -3   3   19.78    1.11 
   6   3  -3   13.69    0.74 
  -6  -3   3   14.38    0.84 
   5   3  -3   13.13    0.63 
  -5  -3   3    9.84    0.68 
   3   3  -3   35.39    1.32 
  -3  -3   3   29.90    1.40 
  -3  -3   3   37.25    1.20 
  -2  -3   3   85.80    3.18 
  -2  -3   3   84.90    2.86 
   1   3  -3  134.45    4.60 
  -1  -3   3  128.00    4.40 
  -1  -3   3  133.78    4.80 
   0   3  -3   15.57    0.58 
   0  -3   3   15.86    0.70 
  -1   3  -3    7.94    0.30 
   1  -3   3    7.65    0.42 
  -2   3  -3    9.64    0.39 
   2  -3   3    9.45    0.49 
  -3   3  -3    5.45    0.28 
   3  -3   3    4.70    0.35 
  -4   3  -3   26.98    1.05 
   4  -3   3   26.63    1.16 
  -5   3  -3   15.52    0.69 
   5  -3   3   14.61    0.78 
  -6   3  -3    1.82    0.27 
   6  -3   3    1.34    0.31 
   6  -3   3    2.21    0.27 
   7  -3   3    2.19    0.31 
   7  -3   3    2.42    0.38 
   8  -3   3    2.33    0.43 
   8   2  -3    0.42    0.22 
   7   2  -3    0.32    0.21 
  -7  -2   3    0.32    0.25 
   6   2  -3   21.55    1.01 
  -6  -2   3   23.10    1.15 
   5   2  -3    7.12    0.44 
  -5  -2   3    4.69    0.45 
   3   2  -3    4.65    0.29 
  -3  -2   3    4.89    0.22 
  -2  -2   3   46.20    1.60 
  -2  -2   3   48.23    1.82 
   1   2  -3   20.79    0.79 
  -1  -2   3   21.96    0.86 
  -1  -2   3   20.24    0.75 
   0   2  -3  141.96    5.03 
   0  -2   3  145.83    5.20 
   0  -2   3  148.22    4.83 
  -1   2  -3    6.95    0.29 
   1  -2   3    7.07    0.35 
  -2   2  -3    5.51    0.27 
   2  -2   3    5.34    0.31 
  -3   2  -3   68.43    2.52 
   3  -2   3   72.98    2.62 
  -4   2  -3   17.55    0.75 
   4  -2   3   17.77    0.80 
  -5   2  -3    4.93    0.37 
  -6   2  -3   18.13    0.85 
  -7   2  -3   39.36    1.61 
  -8   2  -3   11.40    0.68 
   8  -2   3   10.43    0.69 
   8   1  -3   10.24    0.69 
   7   1  -3    0.18    0.21 
   6   1  -3   14.13    0.73 
  -6  -1   3   13.43    0.83 
  -5  -1   3    0.68    0.22 
   4   1  -3    0.72    0.16 
  -4  -1   3    0.17    0.14 
   3   1  -3   10.72    0.51 
  -2  -1   3    5.87    0.36 
  -2  -1   3    5.51    0.26 
   1   1  -3   26.27    0.98 
  -1  -1   3   26.64    0.93 
  -1  -1   3   26.15    1.03 
   0   1  -3  176.64    6.16 
   0  -1   3  178.35    6.31 
   0  -1   3  179.07    5.88 
  -1   1  -3   20.72    0.72 
   1  -1   3   16.62    0.70 
   1  -1   3   20.30    0.74 
  -2   1  -3   48.46    1.70 
   2  -1   3   46.96    1.63 
   2  -1   3   45.61    1.72 
  -3   1  -3    8.67    0.40 
  -4   1  -3   46.02    1.73 
  -5   1  -3    0.73    0.18 
  -6   1  -3    4.50    0.38 
  -7   1  -3   12.73    0.69 
   7  -1   3   12.03    0.60 
  -8   1  -3   10.07    0.64 
  -9   1  -3    2.54    0.39 
   9  -1   3    1.96    0.39 
   8   0  -3    0.28    0.27 
   7   0  -3    0.83    0.26 
   6   0  -3   11.43    0.64 
   5   0  -3   39.42    1.57 
   4   0  -3   52.77    1.99 
   1   0  -3  652.63   22.08 
  -1   0   3  631.75   20.99 
  -1   0   3  638.54   22.61 
   0   0  -3   11.86    0.49 
   0   0   3   11.71    0.46 
   0   0   3   11.88    0.49 
  -1   0  -3   84.40    2.96 
  -2   0  -3   17.55    0.68 
   2   0   3   17.29    0.65 
   3   0   3   69.46    2.36 
  -4   0  -3  190.15    6.75 
   4   0   3  194.22    6.38 
  -5   0  -3   10.00    0.51 
   5   0   3    8.96    0.44 
  -6   0  -3    7.25    0.47 
   6   0   3    7.99    0.41 
  -7   0  -3   58.26    2.29 
   7   0   3   59.20    2.09 
  -8   0  -3   12.58    0.73 
  -9   0  -3    0.08    0.23 
   8  -1  -3   -0.26    0.23 
   7  -1  -3    3.40    0.40 
   6  -1  -3   27.15    1.19 
   5  -1  -3    0.17    0.16 
   4  -1  -3   19.21    0.83 
   3  -1  -3    2.80    0.24 
   2  -1  -3   34.98    1.31 
   1  -1  -3   28.16    1.06 
   0  -1  -3   20.66    0.89 
   0   1   3   27.87    0.87 
  -1  -1  -3   50.73    1.80 
   1   1   3   49.11    1.70 
  -2  -1  -3  441.79   15.57 
  -2  -1  -3  442.51   15.27 
   2   1   3  443.26   14.50 
  -3  -1  -3    0.54    0.12 
   3   1   3    0.51    0.09 
  -4  -1  -3   80.72    3.30 
  -4  -1  -3   95.68    3.27 
   4   1   3   95.46    3.04 
  -5  -1  -3    0.66    0.18 
  -5  -1  -3    0.86    0.18 
   5   1   3    0.89    0.12 
  -6  -1  -3    2.54    0.30 
   6   1   3    2.93    0.22 
  -7  -1  -3    0.46    0.20 
  -8  -1  -3   14.76    0.80 
  -9  -1  -3    1.52    0.31 
   7  -2  -3   10.34    0.66 
   6  -2  -3   20.36    0.96 
   5  -2  -3   18.34    0.85 
   4  -2  -3    0.16    0.14 
   3  -2  -3    0.78    0.15 
   2  -2  -3    1.50    0.16 
   1  -2  -3  118.52    4.16 
   0  -2  -3   88.95    3.18 
   0  -2  -3   91.47    3.27 
  -1  -2  -3  472.18   16.69 
  -1  -2  -3  473.07   16.32 
  -2  -2  -3   28.46    1.06 
  -2  -2  -3   27.84    1.06 
   2   2   3   27.78    0.99 
  -3  -2  -3   41.23    1.69 
  -3  -2  -3   47.98    1.71 
   3   2   3   47.89    1.56 
  -4  -2  -3   -0.02    0.05 
  -4  -2  -3    0.07    0.06 
   4   2   3    0.13    0.07 
  -5  -2  -3    1.58    0.24 
  -5  -2  -3    2.43    0.26 
   5   2   3    2.57    0.16 
  -6  -2  -3    2.94    0.33 
  -6  -2  -3    4.47    0.38 
  -7  -2  -3   36.30    1.56 
  -7  -2  -3   36.74    1.53 
  -8  -2  -3    6.06    0.49 
  -9  -2  -3    6.13    0.53 
   7  -3  -3   -0.16    0.21 
   6  -3  -3    0.15    0.18 
   5  -3  -3   28.80    1.21 
   4  -3  -3    2.34    0.26 
   3  -3  -3    0.09    0.11 
   2  -3  -3   18.84    0.77 
   1  -3  -3   44.60    1.65 
   1  -3  -3   45.41    1.76 
   0  -3  -3    7.01    0.34 
   0  -3  -3    6.87    0.39 
  -1  -3  -3  254.43    8.82 
  -2  -3  -3    0.03    0.10 
  -2  -3  -3   -0.11    0.08 
  -3  -3  -3   43.51    1.63 
  -4  -3  -3   14.34    0.67 
  -4  -3  -3   14.33    0.66 
   4   3   3   14.53    0.54 
  -5  -3  -3   53.33    2.10 
  -5  -3  -3   52.76    2.06 
   5   3   3   55.79    1.82 
  -6  -3  -3    5.18    0.42 
  -7  -3  -3    0.05    0.16 
  -7  -3  -3    0.16    0.20 
  -8  -3  -3    5.46    0.45 
  -8  -3  -3    5.73    0.51 
  -9  -3  -3   14.60    0.84 
  -9  -3  -3   14.48    0.90 
   6  -4  -3    0.11    0.17 
   5  -4  -3   61.04    2.32 
   4  -4  -3   22.83    0.98 
   4  -4  -3   23.17    1.17 
   3  -4  -3   14.11    0.64 
   2  -4  -3    2.60    0.23 
   2  -4  -3    1.99    0.29 
   1  -4  -3    0.74    0.20 
   1  -4  -3    0.26    0.10 
   0  -4  -3   62.75    2.24 
   0  -4  -3   62.32    2.39 
  -1  -4  -3    0.25    0.09 
  -1  -4  -3    0.35    0.15 
  -2  -4  -3    1.17    0.19 
  -2  -4  -3    1.11    0.14 
  -3  -4  -3  160.92    5.64 
  -3  -4  -3  159.22    5.79 
  -4  -4  -3   33.97    1.36 
  -4  -4  -3   32.81    1.32 
  -5  -4  -3   18.16    0.85 
  -5  -4  -3   17.75    0.82 
  -6  -4  -3   -0.23    0.14 
  -6  -4  -3    0.24    0.20 
  -7  -4  -3    9.59    0.59 
  -7  -4  -3   10.30    0.65 
  -8  -4  -3   22.65    1.15 
  -8  -4  -3   22.09    1.07 
  -9  -4  -3    2.00    0.33 
  -9  -4  -3    2.32    0.40 
   6  -5  -3    0.09    0.33 
   5  -5  -3    0.15    0.29 
   4  -5  -3    0.82    0.20 
   4  -5  -3    0.91    0.30 
   3  -5  -3    9.61    0.64 
   3  -5  -3    8.84    0.49 
   2  -5  -3    8.83    0.46 
   2  -5  -3    9.00    0.62 
   1  -5  -3    2.22    0.21 
   1  -5  -3    1.84    0.30 
   0  -5  -3    6.78    0.47 
   0  -5  -3    6.19    0.33 
  -1  -5  -3   20.55    0.82 
  -1  -5  -3   20.90    0.96 
  -2  -5  -3    4.70    0.29 
  -2  -5  -3    4.65    0.36 
  -3  -5  -3    2.19    0.24 
  -3  -5  -3    2.85    0.31 
  -4  -5  -3   27.86    1.20 
  -4  -5  -3   26.86    1.12 
  -5  -5  -3   41.90    1.69 
  -5  -5  -3   39.45    1.61 
  -6  -5  -3    1.81    0.30 
  -6  -5  -3    1.09    0.23 
  -7  -5  -3    4.64    0.42 
  -7  -5  -3    4.14    0.46 
  -8  -5  -3   10.78    0.72 
  -8  -5  -3   10.47    0.66 
  -9  -5  -3    5.89    0.57 
  -9  -5  -3    5.14    0.49 
   5  -6  -3   18.51    1.13 
   4  -6  -3   27.42    1.39 
   3  -6  -3   31.57    1.49 
   2  -6  -3   10.40    0.70 
   1  -6  -3   22.01    1.08 
   0  -6  -3   29.78    1.34 
   0  -6  -3   29.31    1.13 
  -1  -6  -3    0.25    0.11 
  -1  -6  -3    0.52    0.22 
  -2  -6  -3   17.84    0.90 
  -2  -6  -3   19.04    0.78 
  -3  -6  -3   18.81    0.93 
  -3  -6  -3   18.83    0.81 
  -4  -6  -3   30.57    1.34 
  -4  -6  -3   30.04    1.23 
  -5  -6  -3   21.42    1.02 
  -5  -6  -3   20.02    0.93 
  -6  -6  -3   16.82    0.84 
  -6  -6  -3   18.03    0.93 
  -7  -6  -3    4.67    0.40 
  -7  -6  -3    4.56    0.50 
  -8  -6  -3   10.66    0.68 
  -8  -6  -3   10.44    0.73 
  -9  -6  -3    1.66    0.38 
  -9  -6  -3    1.54    0.34 
   4  -7  -3    1.02    0.38 
   3  -7  -3    1.65    0.39 
   2  -7  -3    0.01    0.23 
   1  -7  -3    5.29    0.55 
   0  -7  -3   14.08    0.84 
  -1  -7  -3    4.29    0.45 
  -2  -7  -3   28.92    1.33 
  -3  -7  -3   36.69    1.58 
  -3  -7  -3   34.56    1.38 
  -4  -7  -3   19.83    1.02 
  -4  -7  -3   20.52    0.89 
  -5  -7  -3   31.92    1.33 
  -5  -7  -3   32.48    1.46 
  -6  -7  -3    6.94    0.56 
  -6  -7  -3    6.54    0.47 
  -7  -7  -3   -0.32    0.19 
  -7  -7  -3   -0.09    0.17 
  -8  -7  -3    1.33    0.30 
  -8  -7  -3    1.06    0.33 
   3  -8  -3    6.17    0.70 
   2  -8  -3    0.29    0.29 
   1  -8  -3    4.67    0.55 
   0  -8  -3   34.02    1.59 
  -1  -8  -3    0.33    0.23 
  -2  -8  -3    0.31    0.24 
  -3  -8  -3    1.67    0.34 
  -4  -8  -3   18.27    1.00 
  -5  -8  -3    1.92    0.35 
  -6  -8  -3    2.04    0.29 
  -6  -8  -3    2.28    0.38 
  -7  -8  -3    0.83    0.30 
  -7  -8  -3    0.36    0.23 
  -8  -8  -3    3.28    0.42 
  -8  -8  -3    2.81    0.47 
   1  -9  -3   11.28    0.84 
   0  -9  -3    3.61    0.51 
  -1  -9  -3    0.54    0.28 
  -2  -9  -3    0.86    0.29 
  -3  -9  -3    2.44    0.41 
  -4  -9  -3    4.42    0.52 
  -5  -9  -3    1.42    0.36 
  -6  -9  -3    1.22    0.34 
  -7  -9  -3    1.62    0.40 
  -1 -10  -3    9.58    0.80 
  -2 -10  -3    9.18    0.76 
  -3 -10  -3    0.06    0.27 
  -4 -10  -3   17.49    1.07 
  -5 -10  -3   11.08    0.84 
  -5  -9   4    0.24    0.29 
  -4  -9   4   13.99    0.94 
  -3  -9   4    5.17    0.61 
  -2  -9   4    6.26    0.63 
  -1  -9   4   -0.09    0.17 
  -1  -9   4    0.41    0.32 
   0  -9   4   18.69    1.09 
   1  -9   4    6.61    0.68 
   2  -9   4    0.09    0.31 
  -6  -8   4   -0.22    0.24 
  -5  -8   4    7.54    0.67 
  -4  -8   4    2.78    0.44 
  -3  -8   4    9.46    0.71 
  -2  -8   4    4.08    0.50 
  -1  -8   4    6.87    0.61 
  -1  -8   4    7.87    0.51 
   0  -8   4    7.73    0.64 
   1  -8   4    7.30    0.62 
   2  -8   4    3.60    0.49 
   3  -8   4    3.70    0.52 
  -7  -7   4    2.65    0.48 
  -6  -7   4    0.60    0.30 
  -5  -7   4    0.88    0.31 
  -4  -7   4   13.33    0.83 
  -3  -7   4   31.82    1.49 
  -2  -7   4    7.33    0.43 
  -2  -7   4    6.09    0.55 
  -1  -7   4    0.19    0.15 
  -1  -7   4   -0.05    0.22 
   0  -7   4   78.31    3.10 
   1  -7   4   13.92    0.82 
   2  -7   4    6.51    0.55 
   3  -7   4    2.27    0.39 
   4  -7   4   11.86    0.81 
   5  -7   4   11.27    0.83 
   7   6  -4    0.67    0.25 
  -7  -6   4    0.63    0.30 
   6   6  -4    3.24    0.36 
  -6  -6   4    3.49    0.48 
   5   6  -4    2.09    0.28 
  -5  -6   4    2.12    0.38 
   4   6  -4   33.10    1.31 
  -4  -6   4   32.43    1.51 
  -3  -6   4    0.10    0.18 
  -2  -6   4    2.33    0.36 
  -2  -6   4    2.39    0.25 
  -1  -6   4    4.69    0.34 
  -1  -6   4    4.90    0.43 
   0  -6   4   18.71    0.95 
   1  -6   4    0.53    0.24 
   2  -6   4   51.49    2.11 
   3  -6   4   28.25    1.32 
   4  -6   4   12.36    0.78 
   5  -6   4    6.69    0.62 
   6  -6   4    5.20    0.61 
   8   5  -4   14.31    0.84 
  -8  -5   4   14.07    0.98 
   7   5  -4    8.38    0.59 
  -7  -5   4    8.63    0.69 
   6   5  -4   -0.15    0.18 
  -6  -5   4    0.24    0.22 
   5   5  -4   11.70    0.63 
  -5  -5   4   12.55    0.78 
   4   5  -4   35.05    1.38 
  -4  -5   4   34.70    1.56 
   3   5  -4  134.21    4.76 
  -3  -5   4  130.84    5.03 
  -3  -5   4  138.74    4.52 
  -2  -5   4   20.49    1.02 
  -2  -5   4   22.41    0.85 
   1   5  -4   28.32    1.02 
  -1  -5   4   26.75    1.22 
  -1  -5   4   28.18    1.07 
   0  -5   4   60.01    2.13 
   0  -5   4   60.03    2.35 
   1  -5   4  144.66    5.32 
   2  -5   4    0.58    0.22 
   3  -5   4    0.52    0.23 
   4  -5   4   55.61    2.26 
   5  -5   4   25.48    1.22 
   6  -5   4   21.57    1.14 
   7  -5   4    1.74    0.43 
   8   4  -4   12.94    0.81 
  -8  -4   4   13.63    0.97 
   7   4  -4    5.92    0.48 
  -7  -4   4    5.99    0.57 
   6   4  -4    9.10    0.57 
  -6  -4   4    8.79    0.66 
   5   4  -4    6.13    0.43 
  -5  -4   4    5.13    0.50 
  -4  -4   4   29.11    1.31 
   3   4  -4    0.13    0.12 
  -3  -4   4    0.04    0.16 
  -3  -4   4    0.10    0.08 
   2   4  -4   11.21    0.52 
  -2  -4   4   13.08    0.52 
  -2  -4   4   13.27    0.67 
   1   4  -4    0.03    0.07 
  -1  -4   4    0.02    0.09 
  -1  -4   4    0.14    0.15 
   0   4  -4    6.49    0.26 
   0  -4   4    6.12    0.41 
   0  -4   4    5.81    0.34 
   1  -4   4    0.21    0.15 
   2  -4   4   19.55    0.89 
   3  -4   4    1.62    0.27 
   4  -4   4   14.00    0.74 
   5  -4   4    0.70    0.25 
   6  -4   4    1.39    0.30 
   7  -4   4    1.19    0.35 
   8   3  -4    0.92    0.30 
  -8  -3   4    1.05    0.36 
   7   3  -4   30.71    1.38 
  -7  -3   4   31.73    1.54 
   6   3  -4   65.46    2.52 
  -6  -3   4   64.94    2.69 
   5   3  -4   47.45    1.88 
  -5  -3   4   49.40    2.04 
   4   3  -4    7.95    0.45 
  -4  -3   4    7.20    0.33 
   3   3  -4   13.29    0.61 
  -3  -3   4   13.37    0.54 
  -3  -3   4   14.11    0.71 
   2   3  -4    3.54    0.23 
  -2  -3   4    3.82    0.32 
  -2  -3   4    3.02    0.20 
   1   3  -4   56.58    2.02 
  -1  -3   4   56.53    2.16 
   0   3  -4    2.63    0.17 
   0  -3   4    2.56    0.21 
   0  -3   4    3.31    0.27 
  -1   3  -4  159.65    5.48 
   1  -3   4  156.22    5.69 
   1  -3   4  158.46    5.30 
  -2   3  -4  131.28    4.55 
   2  -3   4  130.08    4.74 
  -3   3  -4    1.54    0.16 
   3  -3   4    1.74    0.23 
  -4   3  -4   23.14    0.93 
   4  -3   4   23.62    1.03 
  -5   3  -4   40.76    1.55 
   5  -3   4   39.56    1.65 
  -6   3  -4    7.39    0.47 
   6  -3   4    7.00    0.52 
   7  -3   4    3.05    0.40 
   8  -3   4    0.89    0.26 
   8   2  -4   12.88    0.78 
   7   2  -4    1.70    0.31 
  -7  -2   4    1.54    0.35 
   6   2  -4    6.20    0.47 
  -6  -2   4    5.88    0.52 
   5   2  -4    0.66    0.19 
  -5  -2   4    0.14    0.19 
   4   2  -4   29.14    1.19 
   3   2  -4    1.71    0.19 
  -3  -2   4    1.21    0.21 
  -3  -2   4    1.47    0.14 
   2   2  -4  128.93    4.50 
  -2  -2   4  126.85    4.26 
  -2  -2   4  128.16    4.67 
   1   2  -4   41.61    1.52 
  -1  -2   4   42.29    1.61 
  -1  -2   4   41.37    1.46 
   0   2  -4    4.90    0.25 
   0  -2   4    5.19    0.30 
  -1   2  -4   47.38    1.66 
   1  -2   4   46.92    1.64 
   1  -2   4   45.47    1.73 
  -2   2  -4   98.25    3.45 
   2  -2   4   98.32    3.56 
   3  -2   4  135.28    4.59 
   3  -2   4  137.02    4.90 
  -4   2  -4    8.21    0.42 
   4  -2   4    7.83    0.45 
  -5   2  -4    2.48    0.27 
   5  -2   4    3.11    0.32 
  -6   2  -4   45.87    1.84 
   6  -2   4   49.56    1.94 
  -7   2  -4    2.40    0.33 
   7  -2   4    2.78    0.31 
  -8   2  -4    4.96    0.45 
   8  -2   4    5.18    0.44 
   8   1  -4    0.00    0.23 
   7   1  -4   28.84    1.30 
   6   1  -4   23.20    1.05 
  -6  -1   4   23.08    1.19 
   5   1  -4    5.64    0.40 
  -5  -1   4    5.15    0.45 
   3   1  -4   57.47    2.11 
  -3  -1   4   57.20    2.23 
   2   1  -4    9.56    0.44 
  -2  -1   4    9.19    0.50 
  -2  -1   4    9.52    0.40 
  -1  -1   4  138.78    5.06 
  -1  -1   4  142.89    4.68 
   0   1  -4    8.94    0.39 
   0  -1   4    8.51    0.39 
   0  -1   4    8.79    0.38 
  -1   1  -4   20.54    0.76 
   1  -1   4   19.27    0.76 
  -2   1  -4  272.99    9.48 
   2  -1   4  271.86    9.04 
   2  -1   4  276.65    9.67 
   3  -1   4    9.37    0.44 
   3  -1   4    9.38    0.42 
  -4   1  -4   10.68    0.52 
   4  -1   4   10.63    0.49 
  -5   1  -4  153.13    5.46 
   5  -1   4  153.97    5.18 
  -6   1  -4   22.50    1.00 
   6  -1   4   22.88    0.94 
  -7   1  -4   -0.23    0.17 
   7  -1   4    0.14    0.14 
  -8   1  -4    5.44    0.47 
  -9   1  -4   18.90    0.99 
   8   0  -4    9.74    0.70 
   7   0  -4   12.68    0.75 
   6   0  -4   14.86    0.77 
   5   0  -4    0.18    0.17 
   4   0  -4    0.28    0.09 
   2   0  -4   19.50    0.80 
  -2   0   4   20.32    0.87 
  -1   0   4    3.04    0.24 
  -1   0   4    2.77    0.19 
   0   0  -4  218.24    7.43 
   0   0   4  212.10    7.59 
   0   0   4  211.78    7.07 
  -1   0  -4   37.95    1.36 
   1   0   4   36.69    1.34 
  -2   0  -4    8.59    0.40 
   2   0   4    8.64    0.37 
   3   0   4   36.30    1.29 
  -4   0  -4   72.12    2.64 
   4   0   4   72.26    2.48 
  -5   0  -4   51.63    1.97 
   5   0   4   51.52    1.82 
  -6   0  -4   66.07    2.52 
   6   0   4   67.16    2.33 
  -7   0  -4    0.75    0.22 
   7   0   4    0.87    0.19 
  -8   0  -4    0.35    0.23 
  -9   0  -4    1.98    0.35 
   7  -1  -4   13.07    0.77 
   6  -1  -4    5.63    0.46 
   5  -1  -4    0.54    0.20 
   4  -1  -4    3.29    0.30 
   3  -1  -4   11.30    0.54 
   2  -1  -4  417.58   14.45 
   1  -1  -4   18.88    0.76 
  -1  -1  -4  175.36    5.96 
   1   1   4  161.35    5.58 
  -2  -1  -4    4.92    0.21 
   2   1   4    4.73    0.25 
  -3  -1  -4    1.88    0.16 
  -3  -1  -4    2.16    0.20 
   3   1   4    2.03    0.17 
  -4  -1  -4  200.79    6.97 
  -4  -1  -4  196.93    7.07 
   4   1   4  197.20    6.57 
  -5  -1  -4   51.00    1.90 
  -5  -1  -4   48.09    1.90 
   5   1   4   49.25    1.72 
  -6  -1  -4  104.63    3.78 
   6   1   4  101.46    3.48 
  -7  -1  -4    0.31    0.21 
  -8  -1  -4   -0.04    0.20 
  -9  -1  -4   14.15    0.83 
   7  -2  -4   18.66    0.97 
   6  -2  -4    0.18    0.20 
   5  -2  -4   16.97    0.81 
   4  -2  -4   51.98    1.98 
   3  -2  -4   58.95    2.18 
   2  -2  -4    3.72    0.25 
   1  -2  -4   36.56    1.37 
   0  -2  -4    5.44    0.30 
  -1  -2  -4  294.18   10.25 
  -1  -2  -4  297.76   10.04 
   1   2   4  276.62    9.54 
  -2  -2  -4   12.79    0.54 
  -2  -2  -4   13.35    0.56 
   2   2   4   12.86    0.52 
  -3  -2  -4   14.74    0.60 
   3   2   4   14.36    0.57 
  -4  -2  -4  181.61    6.98 
  -4  -2  -4  206.37    7.10 
   4   2   4  207.84    6.57 
  -5  -2  -4    2.27    0.24 
  -5  -2  -4    2.44    0.27 
   5   2   4    2.52    0.18 
  -6  -2  -4    8.57    0.53 
  -6  -2  -4    9.28    0.55 
   6   2   4    9.10    0.40 
  -7  -2  -4   32.16    1.37 
  -7  -2  -4   30.46    1.35 
  -8  -2  -4    2.83    0.36 
  -9  -2  -4    0.20    0.21 
   7  -3  -4    0.22    0.24 
   6  -3  -4    5.10    0.44 
   5  -3  -4    1.67    0.25 
   4  -3  -4    0.05    0.12 
   3  -3  -4    4.37    0.32 
   2  -3  -4  121.87    4.33 
   1  -3  -4    8.47    0.42 
   1  -3  -4    8.37    0.49 
   0  -3  -4   44.95    1.68 
   0  -3  -4   41.92    1.60 
  -1  -3  -4   18.60    0.75 
  -2  -3  -4   34.16    1.29 
  -2  -3  -4   33.81    1.31 
  -3  -3  -4    0.58    0.13 
  -3  -3  -4    0.19    0.11 
   3   3   4    0.19    0.08 
  -4  -3  -4    3.41    0.29 
   4   3   4    3.89    0.22 
  -5  -3  -4   10.69    0.56 
  -5  -3  -4    9.67    0.54 
   5   3   4   10.29    0.42 
  -7  -3  -4    7.44    0.52 
  -7  -3  -4    8.51    0.56 
  -8  -3  -4    1.47    0.31 
  -8  -3  -4    1.53    0.28 
  -9  -3  -4    8.07    0.60 
   6  -4  -4    3.92    0.41 
   5  -4  -4    5.42    0.42 
   4  -4  -4    2.24    0.27 
   3  -4  -4  109.99    4.03 
   3  -4  -4  114.56    4.28 
   2  -4  -4    0.26    0.13 
   2  -4  -4    0.24    0.20 
   1  -4  -4    9.45    0.54 
   1  -4  -4    8.93    0.45 
   0  -4  -4   14.36    0.61 
   0  -4  -4   13.87    0.69 
  -1  -4  -4  182.85    6.41 
  -1  -4  -4  184.04    6.62 
  -2  -4  -4   61.11    2.34 
  -2  -4  -4   62.50    2.25 
  -3  -4  -4   41.67    1.61 
  -3  -4  -4   43.41    1.66 
  -4  -4  -4   33.82    1.35 
  -4  -4  -4   33.97    1.37 
  -5  -4  -4    7.17    0.45 
  -5  -4  -4    6.19    0.42 
  -6  -4  -4    7.69    0.51 
  -6  -4  -4    8.12    0.51 
  -7  -4  -4    0.08    0.20 
  -7  -4  -4   -0.13    0.15 
  -8  -4  -4    8.41    0.58 
  -8  -4  -4    8.35    0.60 
  -9  -4  -4    3.27    0.41 
   5  -5  -4   21.84    1.22 
   4  -5  -4   14.96    0.90 
   4  -5  -4   14.25    0.72 
   3  -5  -4   51.66    2.16 
   3  -5  -4   50.29    1.94 
   2  -5  -4   24.04    1.00 
   2  -5  -4   24.37    1.16 
   1  -5  -4    8.29    0.43 
   1  -5  -4    8.36    0.57 
   0  -5  -4    5.92    0.34 
   0  -5  -4    5.82    0.45 
  -1  -5  -4   19.96    0.94 
  -1  -5  -4   20.50    0.83 
  -2  -5  -4  196.45    6.84 
  -2  -5  -4  194.05    7.07 
  -3  -5  -4   32.34    1.36 
  -3  -5  -4   32.32    1.27 
  -4  -5  -4    5.43    0.38 
  -4  -5  -4    5.73    0.42 
  -5  -5  -4   36.59    1.46 
  -5  -5  -4   35.19    1.50 
  -6  -5  -4   19.43    0.94 
  -6  -5  -4   18.71    0.91 
  -7  -5  -4   45.10    1.88 
  -7  -5  -4   44.31    1.83 
  -8  -5  -4    0.50    0.25 
  -8  -5  -4    0.45    0.23 
  -9  -5  -4    1.02    0.30 
   5  -6  -4    0.99    0.38 
   4  -6  -4    4.36    0.55 
   3  -6  -4   60.95    2.56 
   2  -6  -4    5.20    0.52 
   1  -6  -4    0.84    0.16 
   1  -6  -4    1.15    0.31 
   0  -6  -4   59.60    2.17 
   0  -6  -4   58.29    2.37 
  -1  -6  -4   31.33    1.35 
  -1  -6  -4   29.12    1.17 
  -2  -6  -4   40.96    1.59 
  -2  -6  -4   43.43    1.75 
  -3  -6  -4    9.16    0.50 
  -3  -6  -4   10.13    0.61 
  -4  -6  -4    4.83    0.36 
  -4  -6  -4    4.98    0.43 
  -5  -6  -4    6.20    0.48 
  -5  -6  -4    6.39    0.44 
  -6  -6  -4    3.68    0.41 
  -6  -6  -4    4.00    0.36 
  -7  -6  -4    0.41    0.21 
  -7  -6  -4    0.57    0.25 
  -8  -6  -4    0.33    0.22 
  -8  -6  -4    0.42    0.23 
  -9  -6  -4   17.93    0.99 
   4  -7  -4    1.39    0.43 
   3  -7  -4    4.67    0.57 
   2  -7  -4   18.78    1.06 
   1  -7  -4    9.60    0.69 
   0  -7  -4    5.96    0.54 
  -1  -7  -4    4.70    0.45 
  -2  -7  -4   20.13    1.01 
  -2  -7  -4   19.94    0.85 
  -3  -7  -4   81.17    3.18 
  -3  -7  -4   81.71    2.98 
  -4  -7  -4    2.76    0.38 
  -4  -7  -4    3.23    0.31 
  -5  -7  -4    0.91    0.26 
  -5  -7  -4    0.83    0.21 
  -6  -7  -4    1.71    0.28 
  -6  -7  -4    1.89    0.33 
  -7  -7  -4   23.90    1.20 
  -7  -7  -4   23.49    1.12 
  -8  -7  -4    0.16    0.22 
  -8  -7  -4    0.70    0.30 
   3  -8  -4   22.23    1.28 
   2  -8  -4   13.19    0.92 
   1  -8  -4    0.11    0.27 
   0  -8  -4   -0.14    0.23 
  -1  -8  -4   11.00    0.73 
  -2  -8  -4   23.62    1.18 
  -3  -8  -4   -0.04    0.21 
  -4  -8  -4   14.12    0.84 
  -5  -8  -4    8.77    0.65 
  -5  -8  -4    9.62    0.55 
  -6  -8  -4   22.38    1.04 
  -6  -8  -4   22.10    1.16 
  -7  -8  -4   39.55    1.67 
  -7  -8  -4   39.28    1.81 
  -8  -8  -4    0.45    0.30 
  -8  -8  -4    0.34    0.24 
   1  -9  -4   21.53    1.26 
   0  -9  -4    0.14    0.28 
  -1  -9  -4   -0.08    0.25 
  -2  -9  -4    4.09    0.51 
  -3  -9  -4   12.45    0.83 
  -4  -9  -4    1.97    0.38 
  -5  -9  -4    0.05    0.23 
  -6  -9  -4   21.21    1.17 
  -7  -9  -4    8.43    0.70 
  -2 -10  -4   14.61    0.97 
  -3 -10  -4    2.61    0.48 
  -4 -10  -4    3.42    0.51 
  -5 -10  -4    2.95    0.48 
  -4  -9   5   -0.15    0.28 
  -3  -9   5    0.05    0.30 
  -2  -9   5   21.35    1.21 
  -1  -9   5    0.35    0.32 
  -1  -9   5    0.34    0.21 
   0  -9   5   18.23    0.90 
   0  -9   5   15.67    1.01 
   1  -9   5    1.46    0.41 
   1  -9   5    1.61    0.30 
  -5  -8   5   17.71    1.09 
  -4  -8   5   -0.32    0.24 
  -3  -8   5    0.21    0.27 
  -2  -8   5    0.67    0.29 
  -1  -8   5   11.13    0.78 
  -1  -8   5   12.00    0.64 
   0  -8   5   10.75    0.76 
   0  -8   5   11.71    0.64 
   1  -8   5    0.12    0.18 
   1  -8   5   -0.27    0.25 
   2  -8   5    9.14    0.71 
   3  -8   5   15.77    0.97 
  -6  -7   5   14.15    0.94 
  -5  -7   5    0.18    0.24 
  -4  -7   5    5.59    0.60 
  -3  -7   5    1.11    0.31 
  -2  -7   5    0.75    0.18 
  -2  -7   5    0.54    0.25 
  -1  -7   5    0.97    0.22 
  -1  -7   5    1.06    0.31 
   0  -7   5    0.25    0.25 
   0  -7   5    0.33    0.18 
   1  -7   5    0.53    0.27 
   1  -7   5    0.58    0.21 
   2  -7   5    2.29    0.38 
   3  -7   5    0.45    0.27 
   4  -7   5    1.68    0.39 
   5  -7   5    1.36    0.40 
   7   6  -5    0.71    0.26 
  -7  -6   5    0.41    0.30 
   6   6  -5   -0.14    0.18 
  -6  -6   5    0.38    0.26 
   5   6  -5   28.73    1.21 
  -5  -6   5   28.32    1.42 
   4   6  -5   17.57    0.79 
  -4  -6   5   16.80    0.96 
  -3  -6   5   11.77    0.74 
  -2  -6   5    0.90    0.18 
  -2  -6   5    0.94    0.26 
  -1  -6   5    4.91    0.35 
  -1  -6   5    4.66    0.43 
   0  -6   5    8.74    0.51 
   0  -6   5    9.15    0.60 
   1  -6   5   16.11    0.84 
   1  -6   5   15.10    0.74 
   2  -6   5    4.16    0.44 
   3  -6   5   21.25    1.06 
   4  -6   5   65.28    2.64 
   5  -6   5    2.81    0.44 
   7   5  -5    3.91    0.43 
  -7  -5   5    4.26    0.56 
   6   5  -5   32.80    1.40 
  -6  -5   5   32.80    1.59 
   5   5  -5   15.20    0.74 
  -5  -5   5   14.20    0.86 
   4   5  -5    3.47    0.32 
  -4  -5   5    3.95    0.45 
   3   5  -5    3.08    0.28 
  -3  -5   5    3.48    0.27 
  -3  -5   5    3.20    0.39 
   2   5  -5   12.07    0.54 
  -2  -5   5   12.14    0.70 
  -2  -5   5   11.66    0.54 
  -1  -5   5   13.33    0.73 
  -1  -5   5   13.48    0.61 
   0  -5   5   59.97    2.33 
   0  -5   5   58.55    2.13 
   1  -5   5   12.95    0.63 
   1  -5   5   11.73    0.67 
   2  -5   5   86.59    3.28 
   3  -5   5   42.86    1.77 
   4  -5   5   19.19    0.96 
   5  -5   5    3.06    0.41 
   6  -5   5    1.57    0.36 
   7  -5   5    5.70    0.53 
   8   4  -5    0.23    0.29 
  -8  -4   5    0.60    0.33 
   7   4  -5    0.56    0.24 
  -7  -4   5    0.15    0.25 
   6   4  -5    2.97    0.34 
  -6  -4   5    2.89    0.44 
   5   4  -5   11.49    0.62 
  -5  -4   5   11.25    0.74 
   4   4  -5    5.61    0.40 
  -4  -4   5    5.82    0.48 
   3   4  -5   14.21    0.64 
  -3  -4   5   13.90    0.58 
  -3  -4   5   13.71    0.76 
   2   4  -5    0.60    0.13 
  -2  -4   5    0.49    0.18 
  -2  -4   5    0.67    0.13 
   1   4  -5   10.37    0.48 
  -1  -4   5   12.13    0.53 
  -1  -4   5   11.94    0.62 
   0   4  -5   10.09    0.43 
   0  -4   5   10.69    0.57 
   0  -4   5   10.97    0.51 
  -1   4  -5   42.04    1.47 
   1  -4   5   41.82    1.53 
   1  -4   5   39.60    1.63 
   2  -4   5   11.94    0.61 
   2  -4   5   11.16    0.57 
   3  -4   5   18.74    0.88 
   4  -4   5    9.76    0.58 
   5  -4   5    0.39    0.21 
   6  -4   5   -0.13    0.22 
   6  -4   5    0.17    0.18 
   7  -4   5    7.95    0.57 
   8   3  -5    1.25    0.35 
  -8  -3   5    1.61    0.41 
   7   3  -5    6.42    0.52 
  -7  -3   5    6.10    0.60 
   6   3  -5    2.68    0.33 
  -6  -3   5    2.65    0.41 
   5   3  -5   43.88    1.70 
  -5  -3   5   40.67    1.83 
   4   3  -5  116.65    4.21 
  -4  -3   5  117.68    4.43 
   3   3  -5    5.14    0.33 
  -3  -3   5    4.48    0.39 
   2   3  -5   23.02    0.92 
  -2  -3   5   23.19    0.87 
  -2  -3   5   23.22    1.03 
  -1  -3   5   26.18    0.97 
  -1  -3   5   25.11    1.08 
   0   3  -5    0.29    0.09 
   0  -3   5    0.42    0.12 
   0  -3   5   -0.01    0.12 
  -1   3  -5  128.42    4.44 
   1  -3   5  126.65    4.31 
   1  -3   5  127.04    4.62 
  -2   3  -5    0.67    0.11 
   2  -3   5    0.53    0.16 
   2  -3   5    0.58    0.15 
  -3   3  -5   42.89    1.40 
   3  -3   5   31.10    1.38 
  -4   3  -5    4.24    0.30 
   4  -3   5    3.13    0.33 
   4  -3   5    4.13    0.33 
  -5   3  -5   -0.11    0.14 
   5  -3   5    0.30    0.16 
   5  -3   5    0.18    0.18 
   6  -3   5    7.09    0.51 
   6  -3   5    7.01    0.48 
   7  -3   5    0.03    0.19 
   8  -3   5    1.38    0.29 
   8   2  -5    5.26    0.50 
   7   2  -5    1.46    0.30 
  -7  -2   5    1.50    0.37 
   6   2  -5    3.74    0.36 
  -6  -2   5    3.92    0.49 
   5   2  -5    0.71    0.20 
  -5  -2   5    0.17    0.19 
   4   2  -5   19.84    0.88 
  -4  -2   5   20.73    1.01 
   3   2  -5    0.37    0.14 
  -3  -2   5    0.02    0.15 
  -3  -2   5    0.21    0.07 
   2   2  -5    5.34    0.31 
  -2  -2   5    5.04    0.36 
   1   2  -5    3.07    0.23 
  -1  -2   5    3.59    0.23 
  -1  -2   5    4.39    0.30 
   0   2  -5  221.10    7.62 
   0  -2   5  221.57    7.28 
   0  -2   5  215.17    7.82 
  -1   2  -5    1.54    0.16 
   1  -2   5    1.25    0.16 
   1  -2   5    1.67    0.17 
  -2   2  -5    6.86    0.33 
   2  -2   5    6.19    0.34 
   3  -2   5    8.45    0.43 
   3  -2   5    8.52    0.44 
  -4   2  -5   81.14    2.94 
   4  -2   5   82.40    3.01 
   4  -2   5   80.90    2.85 
  -5   2  -5   28.06    1.13 
   5  -2   5   27.26    1.15 
   5  -2   5   27.00    1.10 
  -6   2  -5   11.83    0.63 
   6  -2   5   12.04    0.62 
   6  -2   5   12.17    0.66 
  -7   2  -5    3.34    0.37 
   7  -2   5    3.79    0.41 
   7  -2   5    3.39    0.35 
  -8   2  -5   18.09    0.90 
   8  -2   5   16.80    0.84 
   8   1  -5    1.30    0.31 
   7   1  -5    1.18    0.27 
   6   1  -5    2.23    0.30 
   5   1  -5   10.76    0.59 
  -5  -1   5   10.76    0.69 
   4   1  -5   86.99    3.16 
  -4  -1   5   85.71    3.32 
   3   1  -5    1.94    0.21 
  -3  -1   5    1.35    0.24 
   2   1  -5   78.83    2.79 
  -2  -1   5   76.62    2.64 
  -2  -1   5   76.82    2.91 
   1   1  -5  254.01    8.66 
  -1  -1   5  244.02    8.88 
   0   1  -5    0.08    0.07 
   0  -1   5    0.03    0.09 
   0  -1   5    0.05    0.06 
  -1   1  -5   15.54    0.60 
   1  -1   5   14.35    0.59 
   1  -1   5   14.49    0.60 
  -2   1  -5    1.52    0.16 
   2  -1   5    1.81    0.15 
   2  -1   5    1.00    0.15 
  -3   1  -5    2.44    0.22 
   3  -1   5    3.63    0.25 
   3  -1   5    3.14    0.20 
  -4   1  -5   25.45    1.03 
   4  -1   5   24.42    0.99 
   4  -1   5   25.79    0.99 
  -5   1  -5    0.15    0.15 
   5  -1   5   -0.05    0.12 
  -6   1  -5    0.59    0.21 
   6  -1   5    0.80    0.19 
  -7   1  -5   50.45    2.00 
   7  -1   5   50.61    1.87 
  -8   1  -5    2.29    0.34 
  -9   1  -5   -0.06    0.24 
   7   0  -5   12.29    0.73 
   6   0  -5    0.54    0.20 
   5   0  -5   15.98    0.78 
   4   0  -5    0.00    0.06 
  -3   0   5   49.37    1.98 
   2   0  -5   18.66    0.78 
  -2   0   5   18.75    0.74 
  -2   0   5   19.37    0.86 
   1   0  -5   12.44    0.56 
  -1   0   5   13.02    0.59 
  -1   0   5   12.72    0.53 
   0   0   5  110.49    3.97 
  -1   0  -5    3.85    0.24 
   1   0   5    5.17    0.22 
  -2   0  -5    0.00    0.04 
   2   0   5    0.14    0.08 
  -3   0  -5   12.21    0.56 
   3   0   5   12.08    0.47 
   3   0   5   12.85    0.53 
  -4   0  -5    8.54    0.47 
   4   0   5    9.17    0.43 
  -5   0  -5   50.29    1.94 
   5   0   5   51.29    1.81 
  -6   0  -5   41.13    1.70 
   6   0   5   43.88    1.57 
  -7   0  -5    0.78    0.22 
   7   0   5    0.76    0.17 
  -8   0  -5   24.40    1.14 
  -9   0  -5   15.71    0.88 
   7  -1  -5   -0.03    0.22 
   6  -1  -5    6.28    0.49 
   5  -1  -5   49.33    1.94 
   4  -1  -5   12.38    0.63 
   3  -1  -5    7.57    0.43 
   2  -1  -5    0.67    0.14 
   1  -1  -5   68.54    2.48 
  -1  -1  -5   -0.04    0.03 
  -2  -1  -5   97.35    3.93 
   2   1   5  126.07    3.76 
  -3  -1  -5    0.01    0.09 
  -3  -1  -5   -0.01    0.06 
   3   1   5    0.03    0.08 
  -4  -1  -5  135.56    4.79 
   4   1   5  133.39    4.50 
  -5  -1  -5   42.87    1.70 
   5   1   5   44.32    1.55 
  -6  -1  -5   59.81    2.31 
   6   1   5   60.03    2.10 
  -7  -1  -5   13.12    0.73 
  -8  -1  -5    6.51    0.50 
  -9  -1  -5    1.56    0.32 
   7  -2  -5    3.31    0.43 
   6  -2  -5    1.67    0.30 
   5  -2  -5    1.63    0.27 
   4  -2  -5   75.50    2.80 
   3  -2  -5    0.15    0.13 
   2  -2  -5    4.04    0.29 
   1  -2  -5   63.29    2.31 
   0  -2  -5   54.90    2.01 
  -1  -2  -5    5.50    0.31 
  -1  -2  -5    5.54    0.30 
   1   2   5    5.08    0.30 
  -2  -2  -5    1.95    0.19 
  -2  -2  -5    2.62    0.18 
   2   2   5    2.51    0.20 
  -3  -2  -5    2.24    0.18 
   3   2   5    2.12    0.18 
  -4  -2  -5   20.09    0.88 
  -4  -2  -5   21.21    0.83 
   4   2   5   20.34    0.78 
  -5  -2  -5   16.05    0.75 
   5   2   5   15.10    0.62 
  -6  -2  -5   21.50    1.00 
  -6  -2  -5   22.09    0.97 
   6   2   5   22.58    0.85 
  -7  -2  -5    0.62    0.22 
  -7  -2  -5    1.26    0.25 
  -8  -2  -5   15.72    0.84 
  -9  -2  -5   19.96    1.04 
   6  -3  -5    0.70    0.25 
   5  -3  -5    9.56    0.57 
   4  -3  -5   -0.03    0.14 
   3  -3  -5    2.84    0.27 
   2  -3  -5    0.54    0.16 
   1  -3  -5    1.59    0.20 
   0  -3  -5   79.97    2.93 
   0  -3  -5   83.35    3.03 
  -1  -3  -5   64.69    2.35 
  -2  -3  -5   19.06    0.76 
  -2  -3  -5   17.94    0.75 
   2   3   5   16.75    0.71 
  -3  -3  -5   16.94    0.73 
  -3  -3  -5   18.39    0.76 
   3   3   5   17.29    0.69 
  -4  -3  -5   11.85    0.59 
   4   3   5   12.02    0.50 
  -5  -3  -5    0.03    0.06 
  -5  -3  -5    0.17    0.13 
   5   3   5    0.25    0.09 
  -6  -3  -5   13.86    0.69 
  -7  -3  -5    1.23    0.25 
  -7  -3  -5    0.90    0.23 
  -8  -3  -5    0.94    0.26 
  -9  -3  -5    1.53    0.30 
   6  -4  -5   -0.01    0.22 
   5  -4  -5    5.90    0.47 
   4  -4  -5    0.10    0.16 
   3  -4  -5   71.19    2.80 
   3  -4  -5   68.11    2.59 
   2  -4  -5    6.13    0.50 
   2  -4  -5    5.87    0.40 
   1  -4  -5    2.20    0.23 
   1  -4  -5    1.97    0.29 
   0  -4  -5   48.45    1.82 
   0  -4  -5   49.09    1.92 
  -1  -4  -5   30.29    1.26 
  -1  -4  -5   30.68    1.19 
  -2  -4  -5   74.20    2.71 
  -2  -4  -5   75.30    2.79 
  -3  -4  -5   47.78    1.80 
  -3  -4  -5   45.27    1.76 
  -4  -4  -5   38.96    1.57 
  -4  -4  -5   41.10    1.58 
  -5  -4  -5   77.14    2.93 
  -5  -4  -5   78.72    2.91 
  -6  -4  -5    2.76    0.32 
  -6  -4  -5    3.83    0.37 
  -7  -4  -5   -0.13    0.18 
  -7  -4  -5   -0.16    0.15 
  -8  -4  -5    6.16    0.50 
  -9  -4  -5    5.01    0.46 
   5  -5  -5    3.90    0.55 
   4  -5  -5   17.19    1.02 
   4  -5  -5   17.05    0.83 
   3  -5  -5    2.12    0.27 
   3  -5  -5    2.15    0.37 
   2  -5  -5    0.19    0.14 
   2  -5  -5   -0.02    0.23 
   1  -5  -5    9.34    0.62 
   1  -5  -5    9.34    0.49 
   0  -5  -5   16.19    0.71 
   0  -5  -5   16.38    0.83 
  -1  -5  -5    4.98    0.32 
  -1  -5  -5    4.82    0.41 
  -2  -5  -5   15.90    0.72 
  -2  -5  -5   16.58    0.79 
  -3  -5  -5   62.14    2.39 
  -3  -5  -5   62.02    2.31 
  -4  -5  -5   36.59    1.49 
  -4  -5  -5   35.76    1.45 
  -5  -5  -5   33.24    1.36 
  -5  -5  -5   31.90    1.37 
  -6  -5  -5   -0.21    0.15 
  -6  -5  -5   -0.06    0.17 
  -7  -5  -5    2.73    0.36 
  -7  -5  -5    2.19    0.32 
  -8  -5  -5    8.83    0.62 
  -9  -5  -5    2.01    0.34 
   4  -6  -5    2.06    0.43 
   3  -6  -5   14.81    0.93 
   2  -6  -5    4.11    0.34 
   2  -6  -5    4.01    0.47 
   1  -6  -5    1.84    0.23 
   1  -6  -5    2.13    0.37 
   0  -6  -5    3.13    0.40 
   0  -6  -5    2.59    0.25 
  -1  -6  -5   37.51    1.63 
  -1  -6  -5   38.74    1.48 
  -2  -6  -5    4.50    0.33 
  -2  -6  -5    4.61    0.43 
  -3  -6  -5   15.59    0.72 
  -3  -6  -5   15.20    0.80 
  -4  -6  -5    0.20    0.16 
  -4  -6  -5    0.10    0.18 
  -5  -6  -5   12.71    0.72 
  -5  -6  -5   13.79    0.70 
  -6  -6  -5    5.98    0.46 
  -6  -6  -5    5.91    0.48 
  -7  -6  -5    0.14    0.20 
  -7  -6  -5    0.14    0.20 
  -8  -6  -5    2.96    0.40 
  -9  -6  -5    4.78    0.52 
   3  -7  -5   33.29    1.64 
   2  -7  -5    0.08    0.27 
   1  -7  -5   20.40    1.10 
   0  -7  -5   11.55    0.75 
  -1  -7  -5   20.68    1.05 
  -1  -7  -5   20.02    0.87 
  -2  -7  -5   -0.11    0.19 
  -2  -7  -5    0.18    0.14 
  -3  -7  -5    1.89    0.33 
  -3  -7  -5    2.24    0.26 
  -4  -7  -5   42.14    1.82 
  -4  -7  -5   43.80    1.71 
  -5  -7  -5   24.40    1.09 
  -5  -7  -5   24.31    1.17 
  -6  -7  -5    7.05    0.50 
  -6  -7  -5    7.32    0.57 
  -7  -7  -5    1.04    0.26 
  -7  -7  -5    1.02    0.28 
  -8  -7  -5    4.64    0.48 
   2  -8  -5    6.57    0.72 
   1  -8  -5    7.39    0.67 
   0  -8  -5    8.97    0.70 
  -1  -8  -5    7.67    0.61 
  -2  -8  -5   11.67    0.74 
  -3  -8  -5    6.05    0.51 
  -4  -8  -5    0.06    0.22 
  -5  -8  -5   11.69    0.63 
  -5  -8  -5    9.24    0.68 
  -6  -8  -5    7.02    0.57 
  -6  -8  -5    6.60    0.49 
  -7  -8  -5    0.97    0.31 
  -7  -8  -5    1.02    0.28 
  -8  -8  -5    4.77    0.50 
   1  -9  -5    6.19    0.71 
   0  -9  -5   17.29    1.06 
  -1  -9  -5   30.99    1.52 
  -2  -9  -5    0.14    0.26 
  -3  -9  -5    1.38    0.34 
  -4  -9  -5    1.68    0.35 
  -5  -9  -5    4.27    0.53 
  -6  -9  -5    1.44    0.36 
  -7  -9  -5    3.28    0.49 
  -2 -10  -5   25.09    1.36 
  -3 -10  -5    3.90    0.55 
  -4 -10  -5    0.22    0.29 
  -3  -9   6    0.17    0.29 
  -2  -9   6    3.99    0.56 
  -1  -9   6    2.56    0.47 
   0  -9   6    5.97    0.51 
   0  -9   6    5.66    0.64 
   1  -9   6   14.30    0.81 
  -5  -8   6    1.60    0.46 
  -4  -8   6   14.48    0.97 
  -3  -8   6   30.64    1.52 
  -2  -8   6    0.18    0.28 
  -1  -8   6    2.83    0.34 
  -1  -8   6    2.36    0.42 
   0  -8   6    8.25    0.54 
   0  -8   6    8.20    0.66 
   1  -8   6    3.47    0.39 
   1  -8   6    3.48    0.49 
   2  -8   6    1.63    0.38 
   2  -8   6    1.26    0.28 
   3  -8   6    0.33    0.32 
   3  -8   6    0.28    0.22 
  -6  -7   6    6.79    0.67 
  -5  -7   6    0.21    0.28 
  -4  -7   6    4.18    0.52 
  -3  -7   6    8.46    0.67 
  -2  -7   6    9.36    0.67 
  -2  -7   6    9.34    0.53 
  -1  -7   6    3.73    0.36 
  -1  -7   6    2.99    0.42 
   0  -7   6    6.42    0.54 
   0  -7   6    5.68    0.44 
   1  -7   6   27.68    1.32 
   1  -7   6   28.38    1.20 
   2  -7   6   28.21    1.33 
   2  -7   6   28.23    1.23 
   3  -7   6    0.48    0.30 
   3  -7   6    0.00    0.18 
   4  -7   6    2.21    0.34 
   4  -7   6    2.54    0.42 
   6   6  -6    0.19    0.22 
  -6  -6   6    0.04    0.25 
   5   6  -6   -0.11    0.18 
  -5  -6   6   -0.33    0.19 
  -4  -6   6    8.75    0.66 
  -3  -6   6   48.57    2.08 
  -2  -6   6   41.36    1.51 
  -2  -6   6   38.66    1.74 
  -1  -6   6    8.81    0.49 
  -1  -6   6    8.57    0.60 
   0  -6   6   28.56    1.16 
   0  -6   6   27.71    1.29 
   1  -6   6   28.19    1.30 
   1  -6   6   29.29    1.20 
   2  -6   6    0.23    0.21 
   2  -6   6   -0.04    0.15 
   3  -6   6    0.22    0.22 
   3  -6   6    0.28    0.18 
   4  -6   6    1.41    0.27 
   4  -6   6    1.29    0.31 
   5  -6   6   13.50    0.77 
   6  -6   6    7.81    0.62 
   7   5  -6    1.12    0.31 
  -7  -5   6    0.98    0.36 
   6   5  -6    6.89    0.51 
  -6  -5   6    7.20    0.64 
   5   5  -6    1.01    0.24 
  -5  -5   6    1.75    0.36 
   4   5  -6   10.89    0.59 
  -4  -5   6   11.57    0.75 
   3   5  -6    0.20    0.14 
  -3  -5   6    0.69    0.26 
   2   5  -6   44.88    1.67 
  -2  -5   6   42.03    1.85 
  -2  -5   6   46.21    1.63 
  -1  -5   6   31.42    1.39 
  -1  -5   6   31.94    1.23 
   0  -5   6   14.43    0.68 
   0  -5   6   14.09    0.76 
   1  -5   6    9.27    0.50 
   1  -5   6    7.80    0.54 
   2  -5   6   14.09    0.75 
   2  -5   6   14.25    0.71 
   3  -5   6    7.57    0.49 
   3  -5   6    8.02    0.54 
   4  -5   6   26.62    1.14 
   4  -5   6   25.48    1.19 
   5  -5   6    1.35    0.28 
   5  -5   6    1.82    0.34 
   6  -5   6   21.13    1.03 
   7   4  -6   30.87    1.38 
  -7  -4   6   29.81    1.56 
   6   4  -6    9.23    0.59 
  -6  -4   6    8.65    0.68 
   5   4  -6   -0.11    0.17 
  -5  -4   6    0.06    0.22 
   4   4  -6   22.50    0.98 
  -4  -4   6   22.51    1.12 
   3   4  -6   24.32    1.03 
  -3  -4   6   25.22    1.19 
  -3  -4   6   25.49    0.96 
   2   4  -6    1.42    0.19 
  -2  -4   6    1.18    0.18 
  -2  -4   6    1.25    0.25 
   1   4  -6    3.90    0.27 
  -1  -4   6    3.88    0.36 
  -1  -4   6    3.94    0.29 
   0   4  -6    2.47    0.19 
   0  -4   6    2.63    0.26 
   0  -4   6    2.82    0.31 
  -1   4  -6   80.85    2.88 
   1  -4   6   81.36    3.07 
   1  -4   6   83.22    2.87 
   2  -4   6   33.27    1.38 
   2  -4   6   33.60    1.31 
   3  -4   6    5.52    0.41 
   3  -4   6    3.47    0.31 
   4  -4   6   23.08    1.04 
   4  -4   6   22.80    1.00 
   5  -4   6    0.44    0.23 
   5  -4   6    0.32    0.19 
   6  -4   6    0.19    0.20 
   7  -4   6    6.01    0.51 
   7   3  -6    0.54    0.24 
  -7  -3   6    0.45    0.30 
   6   3  -6   -0.12    0.17 
  -6  -3   6   -0.06    0.21 
   5   3  -6   15.81    0.81 
  -5  -3   6   17.47    0.95 
   4   3  -6    0.40    0.17 
  -4  -3   6    0.49    0.24 
   3   3  -6   16.34    0.74 
  -3  -3   6   17.01    0.85 
  -3  -3   6   15.79    0.67 
   2   3  -6   30.64    1.19 
  -2  -3   6   30.45    1.13 
  -2  -3   6   29.44    1.30 
   1   3  -6    9.21    0.45 
  -1  -3   6    9.46    0.45 
  -1  -3   6    8.71    0.52 
   0  -3   6    0.85    0.18 
   0  -3   6    1.03    0.16 
  -1   3  -6   14.78    0.60 
   1  -3   6   14.68    0.65 
   1  -3   6   14.41    0.67 
  -2   3  -6   33.81    1.25 
   2  -3   6   33.19    1.33 
   2  -3   6   33.62    1.29 
  -4   3  -6    0.21    0.13 
   4  -3   6   -0.22    0.11 
   4  -3   6    0.46    0.19 
  -5   3  -6    4.99    0.35 
   5  -3   6    5.23    0.40 
   5  -3   6    4.77    0.39 
   6  -3   6    3.36    0.36 
   7  -3   6    7.59    0.52 
   8  -3   6    0.23    0.22 
   7   2  -6   25.58    1.20 
  -7  -2   6   24.90    1.36 
   6   2  -6   21.07    1.00 
  -6  -2   6   20.11    1.10 
   5   2  -6   -0.04    0.17 
  -5  -2   6   -0.09    0.20 
   4   2  -6    4.86    0.37 
  -4  -2   6    5.42    0.48 
   3   2  -6   52.04    1.95 
  -3  -2   6   51.64    2.08 
  -3  -2   6   51.37    1.82 
   2   2  -6    5.82    0.35 
  -2  -2   6    5.65    0.32 
  -2  -2   6    5.82    0.42 
   1   2  -6   90.85    3.21 
  -1  -2   6   89.36    3.32 
  -1  -2   6   88.43    3.06 
   0   2  -6    4.26    0.26 
   0  -2   6    3.82    0.29 
   0  -2   6    4.05    0.26 
   1  -2   6   24.67    0.99 
   1  -2   6   25.20    0.97 
   2  -2   6  102.05    3.57 
   2  -2   6  106.60    3.77 
  -3   2  -6   14.80    0.67 
   3  -2   6   16.12    0.67 
   3  -2   6   15.99    0.69 
  -4   2  -6    0.73    0.16 
   4  -2   6    0.90    0.17 
   4  -2   6    0.80    0.17 
  -5   2  -6   24.87    1.05 
   5  -2   6   24.30    1.02 
   5  -2   6   24.64    1.04 
  -6   2  -6    2.44    0.29 
   6  -2   6    1.80    0.26 
  -7   2  -6    2.67    0.34 
   7  -2   6    3.47    0.35 
   8  -2   6    4.21    0.42 
   7   1  -6   -0.18    0.17 
   6   1  -6    3.10    0.37 
   5   1  -6   17.82    0.85 
  -5  -1   6   17.89    0.98 
   4   1  -6   13.51    0.67 
  -4  -1   6   13.49    0.77 
   3   1  -6    1.76    0.23 
  -3  -1   6    2.18    0.31 
  -3  -1   6    1.84    0.20 
   2   1  -6   18.99    0.80 
  -2  -1   6   19.00    0.76 
  -2  -1   6   18.44    0.87 
   1   1  -6    6.91    0.38 
  -1  -1   6    6.36    0.39 
  -1  -1   6    6.53    0.35 
   0   1  -6   27.90    1.07 
   0  -1   6   26.94    1.08 
   0  -1   6   27.40    1.03 
  -1   1  -6    1.36    0.16 
   1  -1   6    2.07    0.17 
   1  -1   6    2.12    0.19 
  -2   1  -6    4.15    0.28 
   2  -1   6    5.40    0.24 
  -3   1  -6  102.63    3.72 
   3  -1   6  106.08    3.57 
   3  -1   6  104.51    3.73 
  -4   1  -6    6.63    0.39 
   4  -1   6    6.32    0.34 
   4  -1   6    6.48    0.38 
  -5   1  -6    0.02    0.15 
   5  -1   6    0.04    0.13 
   5  -1   6    0.08    0.13 
  -6   1  -6   46.20    1.82 
   6  -1   6   45.83    1.72 
  -7   1  -6   12.19    0.67 
   7  -1   6   11.62    0.61 
  -8   1  -6   -0.02    0.21 
  -9   1  -6    2.63    0.40 
   7   0  -6    5.56    0.51 
   6   0  -6   24.38    1.13 
   5   0  -6   11.09    0.62 
   4   0  -6    0.50    0.18 
   3   0  -6   -0.02    0.05 
   2   0  -6  191.41    6.65 
  -2   0   6  181.65    6.31 
  -2   0   6  194.26    6.86 
   1   0  -6    0.13    0.10 
  -1   0   6    0.14    0.12 
  -1   0   6   -0.01    0.08 
   0   0  -6  129.06    4.50 
   0   0   6  123.41    4.57 
   0   0   6  129.00    4.29 
  -1   0  -6   27.56    1.06 
   1   0   6   27.34    1.02 
   1   0   6   27.04    1.02 
  -2   0  -6   54.44    1.99 
   2   0   6   54.15    1.91 
  -3   0  -6    5.65    0.35 
   3   0   6    6.13    0.33 
  -4   0  -6    1.34    0.19 
   4   0   6    1.18    0.17 
   4   0   6    1.20    0.12 
  -5   0  -6   18.90    0.87 
   5   0   6   20.07    0.81 
  -6   0  -6   51.63    2.03 
   6   0   6   51.98    1.88 
  -7   0  -6    0.48    0.22 
   7   0   6   -0.07    0.12 
  -8   0  -6    2.56    0.34 
  -9   0  -6    8.33    0.61 
   7  -1  -6    3.34    0.44 
   6  -1  -6   11.59    0.68 
   5  -1  -6    3.46    0.34 
   4  -1  -6    8.52    0.51 
   3  -1  -6   16.78    0.76 
   2  -1  -6    3.23    0.26 
   0  -1  -6    6.47    0.35 
   0   1   6    5.79    0.33 
  -1  -1  -6   38.08    1.44 
  -2  -1  -6   41.70    1.54 
   2   1   6   39.89    1.46 
  -3  -1  -6    0.08    0.10 
   3   1   6    0.06    0.09 
  -4  -1  -6   12.07    0.60 
   4   1   6   12.85    0.55 
  -5  -1  -6   40.35    1.59 
   5   1   6   39.31    1.45 
  -6  -1  -6    5.96    0.44 
   6   1   6    5.47    0.36 
  -7  -1  -6   51.18    2.04 
   7   1   6   50.06    1.82 
  -8  -1  -6    6.50    0.51 
  -9  -1  -6    0.75    0.25 
   6  -2  -6   10.87    0.67 
   5  -2  -6    0.03    0.16 
   4  -2  -6    4.89    0.37 
   3  -2  -6   35.25    1.41 
   2  -2  -6  232.98    8.18 
   1  -2  -6  103.42    3.71 
   0  -2  -6    0.95    0.16 
   0   2   6    0.93    0.15 
  -1  -2  -6   40.43    1.51 
  -1  -2  -6   41.00    1.52 
   1   2   6   38.44    1.45 
  -2  -2  -6   65.95    2.36 
   2   2   6   63.76    2.26 
  -3  -2  -6    1.16    0.17 
  -3  -2  -6    1.09    0.11 
   3   2   6    0.98    0.14 
  -4  -2  -6    6.41    0.32 
  -4  -2  -6    6.55    0.40 
   4   2   6    5.83    0.33 
  -5  -2  -6    1.05    0.22 
  -5  -2  -6    1.26    0.17 
   5   2   6    1.10    0.16 
  -6  -2  -6  190.86    6.82 
  -6  -2  -6  193.36    6.78 
   6   2   6  184.69    6.33 
  -7  -2  -6   12.16    0.71 
  -8  -2  -6    0.23    0.20 
  -9  -2  -6    0.82    0.26 
   6  -3  -6    1.62    0.33 
   5  -3  -6    3.13    0.36 
   4  -3  -6    0.52    0.18 
   3  -3  -6    1.77    0.26 
   2  -3  -6   -0.02    0.13 
   1  -3  -6   20.38    0.88 
   0  -3  -6   43.56    1.68 
   0  -3  -6   44.88    1.73 
  -1  -3  -6  124.78    4.18 
  -1  -3  -6  109.69    4.25 
  -2  -3  -6   48.42    1.86 
  -2  -3  -6   49.98    1.86 
   2   3   6   50.61    1.78 
  -3  -3  -6    1.24    0.18 
  -3  -3  -6    1.56    0.17 
   3   3   6    1.17    0.16 
  -4  -3  -6    0.53    0.15 
  -4  -3  -6    0.52    0.13 
   4   3   6    0.45    0.11 
  -6  -3  -6    0.27    0.17 
  -6  -3  -6   -0.07    0.14 
   6   3   6    0.08    0.11 
  -7  -3  -6   19.97    0.98 
  -8  -3  -6    1.76    0.31 
  -9  -3  -6    0.36    0.21 
   5  -4  -6    3.70    0.42 
   4  -4  -6    0.19    0.17 
   3  -4  -6    3.28    0.33 
   2  -4  -6    7.58    0.57 
   2  -4  -6    8.27    0.48 
   1  -4  -6  108.27    3.95 
   1  -4  -6  111.70    4.13 
   0  -4  -6    0.14    0.16 
   0  -4  -6    0.07    0.12 
  -1  -4  -6    7.67    0.42 
  -1  -4  -6    6.63    0.43 
  -2  -4  -6  362.21   12.84 
  -2  -4  -6  359.66   12.55 
  -3  -4  -6   38.76    1.52 
  -3  -4  -6   38.64    1.52 
  -4  -4  -6    0.74    0.16 
  -4  -4  -6    0.99    0.19 
   4   4   6    0.79    0.14 
  -5  -4  -6    2.29    0.26 
  -5  -4  -6    2.26    0.30 
   5   4   6    2.10    0.21 
  -6  -4  -6   15.23    0.73 
  -6  -4  -6   13.78    0.76 
  -7  -4  -6   19.53    0.96 
  -8  -4  -6    0.41    0.21 
  -9  -4  -6    1.70    0.32 
   5  -5  -6   10.42    0.84 
   4  -5  -6    7.95    0.69 
   4  -5  -6    8.41    0.54 
   3  -5  -6    4.02    0.36 
   3  -5  -6    3.85    0.48 
   2  -5  -6    1.24    0.31 
   2  -5  -6    1.02    0.20 
   1  -5  -6   72.87    2.74 
   1  -5  -6   75.82    2.92 
   0  -5  -6    8.27    0.57 
   0  -5  -6    9.20    0.49 
  -1  -5  -6    4.53    0.41 
  -1  -5  -6    4.44    0.33 
  -2  -5  -6    7.51    0.43 
  -2  -5  -6    7.35    0.49 
  -3  -5  -6   87.39    3.17 
  -3  -5  -6   85.70    3.25 
  -4  -5  -6   24.27    1.05 
  -4  -5  -6   24.43    1.07 
  -5  -5  -6    3.85    0.36 
  -5  -5  -6    3.88    0.36 
  -6  -5  -6    2.17    0.32 
  -6  -5  -6    2.27    0.30 
  -7  -5  -6    0.32    0.20 
  -8  -5  -6    7.11    0.54 
  -9  -5  -6    0.63    0.27 
   4  -6  -6    1.61    0.41 
   3  -6  -6    0.31    0.29 
   2  -6  -6   12.52    0.66 
   2  -6  -6   13.16    0.82 
   1  -6  -6   12.03    0.75 
   1  -6  -6   12.28    0.61 
   0  -6  -6    3.01    0.28 
   0  -6  -6    3.06    0.40 
  -1  -6  -6    2.89    0.28 
  -1  -6  -6    2.97    0.38 
  -2  -6  -6  142.13    5.11 
  -2  -6  -6  144.65    5.31 
  -3  -6  -6   60.12    2.27 
  -3  -6  -6   59.79    2.37 
  -4  -6  -6   12.94    0.67 
  -4  -6  -6   13.47    0.72 
  -5  -6  -6   19.63    0.95 
  -5  -6  -6   19.26    0.92 
  -6  -6  -6    4.77    0.44 
  -6  -6  -6    5.12    0.44 
  -7  -6  -6   14.53    0.79 
  -8  -6  -6    1.71    0.34 
  -9  -6  -6    1.46    0.34 
   3  -7  -6   18.63    1.15 
   2  -7  -6    4.22    0.52 
   1  -7  -6    2.36    0.40 
   0  -7  -6    0.29    0.25 
  -1  -7  -6    0.18    0.23 
  -1  -7  -6    0.07    0.14 
  -2  -7  -6    1.21    0.29 
  -2  -7  -6    1.02    0.19 
  -3  -7  -6    4.27    0.35 
  -3  -7  -6    4.82    0.47 
  -4  -7  -6   29.79    1.26 
  -4  -7  -6   29.37    1.34 
  -5  -7  -6    0.85    0.23 
  -5  -7  -6    0.59    0.25 
  -6  -7  -6    0.17    0.21 
  -6  -7  -6   -0.01    0.19 
  -7  -7  -6    0.24    0.18 
  -8  -7  -6    1.17    0.30 
   2  -8  -6   31.97    1.64 
   1  -8  -6   12.53    0.88 
   0  -8  -6   -0.09    0.25 
  -1  -8  -6    0.15    0.23 
  -2  -8  -6    7.60    0.59 
  -3  -8  -6   25.94    1.26 
  -4  -8  -6    0.76    0.26 
  -4  -8  -6    1.13    0.23 
  -5  -8  -6    0.86    0.23 
  -5  -8  -6    1.28    0.31 
  -6  -8  -6    8.20    0.62 
  -6  -8  -6    8.33    0.56 
  -7  -8  -6   24.19    1.16 
  -8  -8  -6    4.97    0.52 
   0  -9  -6   13.07    0.92 
  -1  -9  -6    0.16    0.27 
  -2  -9  -6    2.22    0.41 
  -3  -9  -6    3.03    0.44 
  -4  -9  -6   20.32    1.11 
  -5  -9  -6    0.41    0.27 
  -6  -9  -6    0.48    0.26 
  -4  -8   7    2.59    0.49 
  -3  -8   7    0.70    0.34 
  -2  -8   7    1.79    0.40 
  -1  -8   7   16.10    0.82 
  -1  -8   7   16.32    0.97 
   0  -8   7   16.56    0.98 
   0  -8   7   16.80    0.84 
   1  -8   7    0.12    0.26 
   1  -8   7   -0.07    0.18 
   2  -8   7   -0.20    0.17 
   2  -8   7    0.29    0.31 
  -5  -7   7   20.73    1.20 
  -4  -7   7   17.52    1.06 
  -3  -7   7    1.92    0.38 
  -2  -7   7    0.32    0.25 
  -1  -7   7   10.16    0.71 
  -1  -7   7   11.39    0.61 
   0  -7   7    6.80    0.57 
   0  -7   7    6.19    0.46 
   1  -7   7    1.57    0.28 
   1  -7   7    1.29    0.32 
   2  -7   7    0.21    0.19 
   2  -7   7    0.44    0.27 
   3  -7   7    6.90    0.59 
   3  -7   7    5.88    0.50 
   4  -7   7    7.77    0.58 
   6   6  -7    5.27    0.46 
  -6  -6   7    4.43    0.60 
  -5  -6   7   12.01    0.83 
  -4  -6   7   10.48    0.76 
  -3  -6   7    0.15    0.24 
  -2  -6   7    0.18    0.22 
  -2  -6   7    0.54    0.18 
  -1  -6   7    5.48    0.39 
  -1  -6   7    5.31    0.48 
   0  -6   7   11.80    0.71 
   0  -6   7   11.28    0.61 
   1  -6   7    2.70    0.37 
   1  -6   7    2.63    0.32 
   2  -6   7   21.93    1.00 
   2  -6   7   22.15    1.08 
   3  -6   7   -0.22    0.15 
   3  -6   7    0.03    0.23 
   4  -6   7    0.35    0.19 
   5  -6   7    9.35    0.63 
   6   5  -7    0.26    0.23 
  -6  -5   7    0.15    0.28 
   5   5  -7   32.25    1.35 
  -5  -5   7   30.80    1.55 
   4   5  -7   43.25    1.72 
  -4  -5   7   43.83    1.92 
   3   5  -7   11.40    0.59 
  -3  -5   7   11.27    0.74 
   2   5  -7    9.70    0.50 
  -2  -5   7    9.74    0.51 
  -2  -5   7    9.20    0.63 
  -1  -5   7   13.25    0.63 
  -1  -5   7   12.49    0.73 
   0  -5   7   44.26    1.83 
   0  -5   7   44.61    1.68 
   1  -5   7   58.28    2.15 
   1  -5   7   58.29    2.30 
   2  -5   7    2.28    0.31 
   2  -5   7    3.14    0.35 
   3  -5   7    0.86    0.25 
   3  -5   7    1.07    0.22 
   4  -5   7   40.45    1.66 
   4  -5   7   38.22    1.58 
   5  -5   7    2.64    0.34 
   6  -5   7   10.88    0.70 
   7   4  -7    0.19    0.26 
  -7  -4   7   -0.27    0.27 
   6   4  -7   -0.29    0.18 
  -6  -4   7    0.10    0.26 
   5   4  -7   18.03    0.88 
  -5  -4   7   18.03    1.03 
   4   4  -7    0.35    0.18 
  -4  -4   7    0.77    0.27 
   3   4  -7    3.77    0.32 
  -3  -4   7    3.57    0.28 
  -3  -4   7    3.34    0.40 
   2   4  -7   16.97    0.78 
  -2  -4   7   17.73    0.91 
  -2  -4   7   18.89    0.77 
   1   4  -7   24.72    0.98 
  -1  -4   7   24.40    0.98 
  -1  -4   7   22.92    1.09 
   0   4  -7    2.92    0.22 
   0  -4   7    2.66    0.28 
   0  -4   7    2.76    0.32 
   1  -4   7    9.81    0.52 
   1  -4   7    9.35    0.55 
   2  -4   7    1.16    0.23 
   2  -4   7    1.56    0.25 
   3  -4   7   44.88    1.75 
   3  -4   7   46.68    1.82 
   4  -4   7    1.39    0.24 
   4  -4   7    1.42    0.26 
   5  -4   7    7.89    0.52 
   6  -4   7    5.65    0.45 
   7  -4   7   -0.17    0.19 
   7   3  -7    6.04    0.55 
  -7  -3   7    6.12    0.69 
   6   3  -7   -0.14    0.19 
  -6  -3   7    0.27    0.27 
   5   3  -7    2.91    0.34 
  -5  -3   7    2.77    0.42 
   4   3  -7    0.25    0.17 
  -4  -3   7   -0.06    0.18 
   3   3  -7   46.65    1.76 
  -3  -3   7   43.08    1.65 
  -3  -3   7   47.48    1.92 
   2   3  -7   16.90    0.74 
  -2  -3   7   16.38    0.83 
  -2  -3   7   16.20    0.70 
   1   3  -7   25.73    1.02 
  -1  -3   7   24.42    0.98 
  -1  -3   7   24.93    1.10 
   0   3  -7   49.96    1.84 
   0  -3   7   50.65    1.81 
   0  -3   7   49.38    1.94 
   1  -3   7   92.82    3.21 
   1  -3   7   92.45    3.41 
   2  -3   7    5.85    0.38 
   2  -3   7    5.48    0.37 
  -3   3  -7    2.99    0.26 
   3  -3   7    2.34    0.26 
  -4   3  -7   37.33    1.45 
   4  -3   7   37.17    1.49 
   4  -3   7   37.81    1.47 
   5  -3   7    7.73    0.49 
   6  -3   7    0.37    0.19 
   7  -3   7    4.16    0.43 
   8  -3   7    3.74    0.44 
   7   2  -7    0.34    0.26 
   6   2  -7   -0.11    0.19 
  -6  -2   7    0.03    0.20 
   5   2  -7    0.23    0.18 
  -5  -2   7    0.14    0.23 
   4   2  -7   57.21    2.27 
  -4  -2   7   62.71    2.46 
   3   2  -7   51.14    1.94 
  -3  -2   7   50.64    2.07 
  -3  -2   7   50.21    1.81 
   2   2  -7    7.17    0.42 
  -2  -2   7    7.81    0.41 
  -2  -2   7    7.19    0.50 
   1   2  -7   21.79    0.83 
  -1  -2   7   18.08    0.77 
  -1  -2   7   16.96    0.84 
   0   2  -7    7.97    0.41 
   0  -2   7    7.37    0.41 
   0  -2   7    7.50    0.43 
  -1   2  -7   27.70    1.08 
   1  -2   7   27.84    1.08 
   1  -2   7   27.85    1.10 
  -2   2  -7  125.43    4.31 
   2  -2   7  125.82    4.39 
   2  -2   7  114.14    4.15 
  -3   2  -7   33.05    1.25 
   3  -2   7   27.62    1.22 
   3  -2   7   34.77    1.24 
  -4   2  -7    1.12    0.20 
   4  -2   7    1.50    0.23 
   4  -2   7    1.38    0.19 
  -5   2  -7   24.66    1.06 
   5  -2   7   24.94    1.05 
  -6   2  -7    0.00    0.17 
   6  -2   7    0.02    0.14 
  -7   2  -7   -0.14    0.18 
   7  -2   7   -0.02    0.15 
   8  -2   7    0.33    0.20 
   7   1  -7    4.21    0.48 
   6   1  -7    4.39    0.43 
   5   1  -7   14.40    0.76 
  -5  -1   7   14.99    0.88 
   4   1  -7    4.90    0.39 
  -4  -1   7    3.73    0.43 
   3   1  -7   84.90    3.08 
  -3  -1   7   83.82    3.22 
  -3  -1   7   82.64    2.90 
   2   1  -7    5.38    0.35 
  -2  -1   7    4.74    0.40 
  -2  -1   7    5.21    0.32 
   1   1  -7   10.79    0.55 
  -1  -1   7   10.98    0.57 
  -1  -1   7   11.75    0.53 
   0   1  -7  162.03    5.53 
   0  -1   7  152.81    5.27 
   0  -1   7  155.73    5.64 
  -1   1  -7   96.05    3.41 
   1  -1   7   92.54    3.43 
   1  -1   7   97.38    3.27 
  -2   1  -7   15.81    0.67 
   2  -1   7   15.18    0.61 
  -3   1  -7   33.00    1.31 
   3  -1   7   34.73    1.24 
   3  -1   7   33.06    1.27 
  -4   1  -7   70.32    2.65 
   4  -1   7   70.63    2.54 
   4  -1   7   74.33    2.60 
  -5   1  -7   34.32    1.39 
   5  -1   7   33.56    1.32 
  -6   1  -7    9.29    0.56 
   6  -1   7    8.72    0.51 
  -7   1  -7    1.33    0.28 
   7  -1   7    1.37    0.25 
  -8   1  -7    7.26    0.53 
   8  -1   7    7.87    0.51 
  -9   1  -7   25.86    1.24 
   7   0  -7    0.49    0.26 
   6   0  -7    2.34    0.34 
   5   0  -7   -0.04    0.15 
   4   0  -7   12.10    0.64 
   3   0  -7    1.25    0.20 
   2   0  -7   31.61    1.27 
  -2   0   7   31.31    1.20 
   1   0  -7   27.41    1.12 
  -1   0   7   27.56    1.16 
  -1   0   7   28.07    1.07 
   0   0  -7   27.40    1.10 
   0   0   7   27.77    1.06 
   0   0   7   27.70    1.11 
  -1   0  -7   26.81    1.07 
   1   0   7   27.32    1.04 
  -2   0  -7    5.54    0.33 
   2   0   7    5.24    0.32 
  -3   0  -7    7.33    0.41 
   3   0   7    7.31    0.39 
  -4   0  -7   18.95    0.86 
   4   0   7   20.59    0.82 
  -5   0  -7   26.65    1.11 
   5   0   7   24.61    1.02 
  -6   0  -7    1.20    0.26 
   6   0   7    1.14    0.21 
  -7   0  -7    0.20    0.19 
   7   0   7   -0.12    0.14 
  -8   0  -7    2.12    0.33 
  -9   0  -7    0.18    0.22 
   6  -1  -7    3.45    0.42 
   5  -1  -7    2.11    0.31 
   4  -1  -7   44.66    1.78 
   3  -1  -7   90.68    3.33 
   2  -1  -7   -0.05    0.04 
  -1   1   7    1.37    0.19 
   0  -1  -7   13.01    0.60 
   0   1   7   11.76    0.56 
  -1  -1  -7   21.21    0.88 
  -2  -1  -7   51.90    1.85 
  -2  -1  -7   48.34    1.76 
   2   1   7   47.68    1.76 
  -3  -1  -7   31.83    1.28 
   3   1   7   32.73    1.21 
  -4  -1  -7   14.45    0.70 
   4   1   7   15.30    0.65 
  -5  -1  -7   37.37    1.51 
   5   1   7   36.66    1.38 
  -6  -1  -7   29.35    1.27 
   6   1   7   28.76    1.13 
  -7  -1  -7   20.27    0.99 
   7   1   7   20.33    0.86 
  -8  -1  -7    0.69    0.25 
  -9  -1  -7   10.65    0.70 
   6  -2  -7    1.19    0.31 
   5  -2  -7    3.01    0.36 
   4  -2  -7    0.07    0.15 
   3  -2  -7    3.25    0.33 
   2  -2  -7    8.82    0.50 
   1  -2  -7    6.57    0.42 
   0  -2  -7  165.23    5.88 
   0   2   7  167.22    5.61 
  -1  -2  -7    6.76    0.38 
   1   2   7    7.10    0.38 
  -2  -2  -7    2.60    0.20 
   2   2   7    2.79    0.24 
  -3  -2  -7   10.68    0.54 
  -3  -2  -7   10.56    0.43 
   3   2   7   10.86    0.50 
  -4  -2  -7    2.29    0.26 
  -4  -2  -7    2.03    0.16 
   4   2   7    2.14    0.22 
  -5  -2  -7    0.61    0.20 
   5   2   7    0.62    0.14 
  -6  -2  -7   51.81    2.06 
   6   2   7   52.37    1.87 
  -7  -2  -7    3.66    0.41 
  -8  -2  -7   36.88    1.61 
  -9  -2  -7    4.06    0.47 
   6  -3  -7    0.45    0.25 
   5  -3  -7    8.31    0.58 
   4  -3  -7    3.09    0.36 
   3  -3  -7    7.13    0.48 
   2  -3  -7    0.60    0.19 
   1  -3  -7   19.26    0.86 
   0  -3  -7   13.30    0.64 
   0  -3  -7   13.54    0.66 
  -1  -3  -7   41.25    1.61 
  -1  -3  -7   41.30    1.59 
  -2  -3  -7   12.70    0.61 
   2   3   7   12.29    0.57 
  -3  -3  -7    2.37    0.26 
  -3  -3  -7    2.54    0.22 
   3   3   7    2.30    0.23 
  -4  -3  -7    0.28    0.11 
  -4  -3  -7    0.06    0.06 
   4   3   7    0.24    0.11 
  -6  -3  -7    3.29    0.36 
   6   3   7    3.24    0.28 
  -7  -3  -7    0.82    0.24 
  -8  -3  -7   11.52    0.72 
  -9  -3  -7    2.65    0.40 
   5  -4  -7    0.14    0.22 
   4  -4  -7   23.05    1.07 
   3  -4  -7    1.18    0.23 
   2  -4  -7    3.95    0.35 
   2  -4  -7    3.59    0.43 
   1  -4  -7   94.55    3.45 
   1  -4  -7   94.53    3.59 
   0  -4  -7    8.37    0.52 
   0  -4  -7    7.26    0.45 
  -1  -4  -7    0.18    0.13 
  -1  -4  -7    0.26    0.16 
  -2  -4  -7   28.60    1.18 
  -2  -4  -7   29.82    1.21 
  -3  -4  -7    0.46    0.17 
  -3  -4  -7    0.70    0.18 
  -4  -4  -7   23.15    1.04 
  -4  -4  -7   24.47    1.01 
   4   4   7   24.89    0.97 
  -5  -4  -7   50.82    1.98 
  -5  -4  -7   53.44    2.05 
   5   4   7   51.49    1.85 
  -6  -4  -7   19.01    0.92 
   6   4   7   18.11    0.75 
  -7  -4  -7    4.35    0.41 
  -8  -4  -7    2.05    0.34 
  -9  -4  -7    1.28    0.31 
   4  -5  -7    0.95    0.26 
   4  -5  -7    0.82    0.32 
   3  -5  -7   15.89    0.80 
   3  -5  -7   14.96    0.92 
   2  -5  -7   14.74    0.73 
   2  -5  -7   14.63    0.86 
   1  -5  -7    0.98    0.20 
   1  -5  -7    1.36    0.31 
   0  -5  -7    7.71    0.54 
   0  -5  -7    7.03    0.45 
  -1  -5  -7  120.25    4.25 
  -1  -5  -7  114.96    4.38 
  -2  -5  -7   82.46    3.06 
  -2  -5  -7   78.07    2.95 
  -3  -5  -7    2.28    0.27 
  -3  -5  -7    2.37    0.30 
  -4  -5  -7   17.60    0.80 
  -4  -5  -7   16.12    0.79 
  -5  -5  -7   73.80    2.76 
  -5  -5  -7   70.91    2.74 
  -6  -5  -7   25.94    1.19 
  -7  -5  -7    0.18    0.21 
  -8  -5  -7    6.72    0.55 
  -9  -5  -7    6.18    0.53 
   4  -6  -7   10.18    0.85 
   3  -6  -7   12.34    0.86 
   2  -6  -7   -0.14    0.15 
   2  -6  -7    0.00    0.22 
   1  -6  -7    0.29    0.15 
   1  -6  -7    0.48    0.26 
   0  -6  -7    3.88    0.33 
   0  -6  -7    4.52    0.47 
  -1  -6  -7    0.10    0.21 
  -1  -6  -7    0.10    0.14 
  -2  -6  -7    1.29    0.21 
  -2  -6  -7    1.05    0.25 
  -3  -6  -7   14.41    0.77 
  -3  -6  -7   14.24    0.72 
  -4  -6  -7   51.06    2.04 
  -4  -6  -7   50.62    1.99 
  -5  -6  -7   20.07    0.97 
  -5  -6  -7   20.42    0.97 
  -6  -6  -7    2.96    0.36 
  -7  -6  -7    2.67    0.37 
  -8  -6  -7    7.27    0.57 
  -9  -6  -7    2.01    0.37 
   3  -7  -7    2.30    0.51 
   2  -7  -7   38.24    1.81 
   1  -7  -7    1.56    0.37 
   0  -7  -7    0.65    0.27 
  -1  -7  -7   25.83    1.24 
  -1  -7  -7   24.52    1.08 
  -2  -7  -7   22.69    1.13 
  -2  -7  -7   23.61    1.02 
  -3  -7  -7    1.12    0.23 
  -3  -7  -7    0.71    0.26 
  -4  -7  -7    9.27    0.61 
  -4  -7  -7    8.98    0.55 
  -5  -7  -7   18.05    0.91 
  -5  -7  -7   18.89    0.96 
  -6  -7  -7   39.16    1.66 
  -7  -7  -7    1.51    0.31 
  -8  -7  -7    1.92    0.37 
   1  -8  -7   -0.11    0.25 
   0  -8  -7   11.04    0.79 
  -1  -8  -7   20.74    1.12 
  -2  -8  -7    1.72    0.35 
  -3  -8  -7   10.25    0.69 
  -4  -8  -7    1.01    0.29 
  -4  -8  -7    0.47    0.19 
  -5  -8  -7    2.36    0.37 
  -5  -8  -7    1.82    0.31 
  -6  -8  -7    5.65    0.49 
  -7  -8  -7    2.17    0.35 
  -1  -9  -7    8.55    0.70 
  -2  -9  -7   29.55    1.45 
  -3  -9  -7    4.76    0.54 
  -4  -9  -7   -0.09    0.23 
  -5  -9  -7   12.07    0.80 
  -3  -8   8    3.80    0.55 
  -2  -8   8   17.88    1.07 
  -1  -8   8    5.76    0.63 
  -1  -8   8    6.76    0.49 
   0  -8   8    0.21    0.21 
   0  -8   8    0.00    0.27 
   1  -8   8    3.89    0.51 
   1  -8   8    2.75    0.38 
   2  -8   8   30.38    1.37 
  -4  -7   8    1.39    0.40 
  -3  -7   8    8.72    0.71 
  -2  -7   8    5.16    0.56 
  -1  -7   8    2.19    0.30 
  -1  -7   8    2.24    0.39 
   0  -7   8    0.23    0.24 
   0  -7   8    0.03    0.17 
   1  -7   8    8.21    0.55 
   1  -7   8    8.17    0.62 
   2  -7   8    0.90    0.30 
   2  -7   8    1.03    0.25 
   3  -7   8   12.29    0.73 
   4  -7   8    2.70    0.40 
  -5  -6   8   18.87    1.14 
  -4  -6   8    0.05    0.26 
  -3  -6   8    4.35    0.52 
  -2  -6   8   42.73    1.91 
  -2  -6   8   44.95    1.68 
  -1  -6   8   12.95    0.76 
  -1  -6   8   11.96    0.64 
   0  -6   8    0.87    0.22 
   0  -6   8    1.17    0.28 
   1  -6   8    9.80    0.58 
   1  -6   8    9.50    0.62 
   2  -6   8   30.71    1.36 
   2  -6   8   29.23    1.27 
   3  -6   8    0.19    0.18 
   4  -6   8    0.10    0.19 
   5  -6   8    0.73    0.27 
   6   5  -8    0.12    0.22 
  -6  -5   8    0.40    0.34 
   5   5  -8   -0.01    0.19 
  -5  -5   8    0.76    0.34 
   4   5  -8    0.04    0.18 
  -4  -5   8    0.34    0.26 
   3   5  -8   25.40    1.09 
  -3  -5   8   25.33    1.26 
  -2  -5   8   11.59    0.58 
  -2  -5   8   10.60    0.70 
  -1  -5   8    5.17    0.46 
  -1  -5   8    5.05    0.38 
   0  -5   8    2.46    0.34 
   0  -5   8    3.06    0.32 
   1  -5   8   55.19    2.09 
   1  -5   8   56.25    2.23 
   2  -5   8    6.43    0.47 
   2  -5   8    6.68    0.49 
   3  -5   8    0.19    0.16 
   4  -5   8    0.03    0.17 
   5  -5   8    1.28    0.28 
   6  -5   8   13.91    0.82 
   6   4  -8    3.30    0.39 
  -6  -4   8    2.58    0.49 
   5   4  -8   15.53    0.81 
  -5  -4   8   15.84    0.98 
   4   4  -8    0.28    0.19 
  -4  -4   8    0.47    0.27 
   3   4  -8    3.91    0.34 
  -3  -4   8    2.65    0.38 
  -3  -4   8    3.31    0.30 
   2   4  -8   69.98    2.54 
  -2  -4   8   66.69    2.43 
  -2  -4   8   67.75    2.70 
   1   4  -8   11.74    0.57 
  -1  -4   8   10.73    0.66 
  -1  -4   8   11.28    0.58 
   0   4  -8    6.42    0.38 
   0  -4   8    6.38    0.47 
   0  -4   8    6.33    0.43 
   1  -4   8    9.05    0.52 
   1  -4   8    9.27    0.55 
   2  -4   8   22.13    0.98 
   2  -4   8   22.01    0.99 
   3  -4   8   12.78    0.69 
   3  -4   8   13.88    0.69 
   4  -4   8    0.34    0.16 
   5  -4   8    0.32    0.19 
   6  -4   8   11.29    0.67 
   7  -4   8    3.59    0.43 
   6   3  -8   10.64    0.67 
  -6  -3   8    9.66    0.76 
   5   3  -8   -0.10    0.18 
  -5  -3   8    0.06    0.26 
   4   3  -8    0.26    0.19 
  -4  -3   8    0.22    0.21 
   3   3  -8    1.70    0.25 
  -3  -3   8    1.82    0.31 
  -3  -3   8    2.07    0.23 
   2   3  -8    2.97    0.31 
  -2  -3   8    2.99    0.27 
  -2  -3   8    2.29    0.34 
   1   3  -8    1.23    0.20 
  -1  -3   8    0.24    0.14 
  -1  -3   8    0.41    0.19 
   0   3  -8    2.96    0.28 
   0  -3   8    2.99    0.28 
   0  -3   8    2.74    0.31 
  -1   3  -8   83.13    2.97 
   1  -3   8   81.89    3.06 
   1  -3   8   82.03    2.90 
  -2   3  -8   16.57    0.72 
   2  -3   8   16.62    0.76 
   2  -3   8   17.34    0.76 
  -3   3  -8   11.17    0.54 
   3  -3   8   11.03    0.56 
   4  -3   8    0.88    0.21 
   5  -3   8    0.31    0.17 
   6  -3   8    0.39    0.19 
   7  -3   8    0.19    0.19 
   6   2  -8    2.22    0.35 
  -6  -2   8    1.66    0.40 
   5   2  -8   11.13    0.65 
  -5  -2   8   10.70    0.75 
   4   2  -8    0.33    0.19 
  -4  -2   8    0.73    0.25 
   3   2  -8    0.68    0.21 
  -3  -2   8    0.53    0.22 
  -3  -2   8    0.90    0.17 
   2   2  -8    0.65    0.19 
  -2  -2   8    0.43    0.20 
  -2  -2   8    0.30    0.14 
   1   2  -8   96.14    3.45 
  -1  -2   8   93.25    3.29 
  -1  -2   8   95.75    3.56 
   0   2  -8    6.51    0.39 
   0  -2   8    6.40    0.38 
   0  -2   8    6.21    0.40 
  -1   2  -8    0.27    0.13 
   1  -2   8   -0.06    0.12 
   1  -2   8   -0.06    0.11 
  -2   2  -8   21.91    0.90 
   2  -2   8   21.90    0.88 
  -3   2  -8  107.21    3.85 
   3  -2   8  107.74    3.87 
  -4   2  -8    3.96    0.32 
   4  -2   8    3.61    0.32 
  -5   2  -8    0.27    0.18 
   5  -2   8    0.31    0.17 
  -6   2  -8    4.46    0.39 
   6  -2   8    4.52    0.39 
   7  -2   8   12.76    0.70 
   8  -2   8    0.77    0.26 
   6   1  -8    8.40    0.58 
   5   1  -8    1.98    0.31 
   4   1  -8    4.22    0.39 
  -4  -1   8    4.04    0.47 
   3   1  -8   28.60    1.24 
  -3  -1   8   29.74    1.34 
  -3  -1   8   30.75    1.17 
   2   1  -8   50.53    1.97 
  -2  -1   8   51.47    2.06 
  -2  -1   8   51.96    1.87 
   1   1  -8   26.80    1.11 
  -1  -1   8   26.56    1.06 
  -1  -1   8   26.54    1.14 
   0   1  -8    0.02    0.13 
   0  -1   8    0.20    0.14 
   0  -1   8    0.08    0.11 
  -1   1  -8    0.24    0.12 
   1  -1   8    0.09    0.12 
   1  -1   8    0.21    0.11 
  -2   1  -8   30.75    1.22 
   2  -1   8   30.93    1.15 
  -3   1  -8   11.34    0.56 
   3  -1   8   10.93    0.56 
  -4   1  -8    3.32    0.31 
   4  -1   8    4.14    0.33 
  -5   1  -8   54.94    2.11 
   5  -1   8   54.36    2.02 
  -6   1  -8   16.41    0.81 
   6  -1   8   15.60    0.75 
  -7   1  -8    5.28    0.46 
   7  -1   8    5.24    0.40 
  -8   1  -8    0.66    0.25 
   8  -1   8    0.94    0.23 
   6   0  -8   10.72    0.67 
   5   0  -8    7.84    0.54 
   4   0  -8    4.01    0.38 
   3   0  -8    0.68    0.20 
   2   0  -8    3.23    0.32 
  -2   0   8    3.03    0.29 
   1   0  -8  112.49    4.05 
  -1   0   8  112.02    3.86 
   0   0  -8    8.23    0.47 
   0   0   8    8.23    0.45 
  -1   0  -8   26.60    1.09 
   1   0   8   27.62    1.07 
  -2   0  -8   34.04    1.34 
  -3   0  -8  110.72    3.87 
   3   0   8  103.91    3.68 
  -4   0  -8   11.63    0.60 
   4   0   8   11.33    0.57 
  -5   0  -8    0.08    0.17 
   5   0   8    0.01    0.13 
  -6   0  -8   15.69    0.81 
   6   0   8   16.00    0.74 
  -7   0  -8   20.01    0.97 
   7   0   8   18.79    0.86 
  -8   0  -8    7.40    0.55 
  -9   0  -8    0.34    0.23 
   6  -1  -8    9.06    0.64 
   5  -1  -8    5.07    0.45 
   4  -1  -8    1.84    0.29 
   3  -1  -8   33.65    1.40 
   0  -1  -8    4.14    0.32 
   0   1   8    3.91    0.31 
  -1  -1  -8   22.42    0.91 
   1   1   8   19.63    0.86 
  -2  -1  -8    4.11    0.21 
  -2  -1  -8    4.18    0.32 
   2   1   8    4.66    0.32 
  -3  -1  -8   26.28    1.06 
   3   1   8   24.76    1.00 
  -4  -1  -8    8.19    0.48 
   4   1   8    7.98    0.44 
  -5  -1  -8    7.67    0.50 
   5   1   8    7.61    0.43 
  -6  -1  -8   71.30    2.70 
   6   1   8   69.22    2.49 
  -7  -1  -8    1.82    0.31 
   7   1   8    1.94    0.25 
  -8  -1  -8   16.04    0.88 
  -9  -1  -8    1.46    0.32 
   6  -2  -8   -0.20    0.24 
   5  -2  -8    8.75    0.60 
   4  -2  -8    1.58    0.28 
   3  -2  -8    0.14    0.17 
   2  -2  -8    2.05    0.27 
   1  -2  -8   76.87    2.86 
   0  -2  -8    7.57    0.43 
  -1  -2  -8    0.02    0.05 
   1   2   8    0.04    0.05 
  -2  -2  -8   10.78    0.47 
   2   2   8   10.19    0.52 
  -3  -2  -8   20.48    0.88 
   3   2   8   19.03    0.82 
  -4  -2  -8   29.95    1.23 
   4   2   8   28.37    1.13 
  -5  -2  -8    0.12    0.15 
   5   2   8    0.02    0.12 
  -6  -2  -8   -0.09    0.18 
   6   2   8    0.32    0.14 
  -7  -2  -8   63.08    2.45 
   7   2   8   60.24    2.21 
  -8  -2  -8   24.77    1.20 
  -9  -2  -8   -0.30    0.17 
   5  -3  -8    0.35    0.25 
   4  -3  -8    0.62    0.24 
   3  -3  -8    2.08    0.31 
   2  -3  -8    6.40    0.45 
   1  -3  -8    4.33    0.34 
   0  -3  -8    8.09    0.49 
   0  -3  -8    8.81    0.52 
  -1  -3  -8    4.67    0.34 
  -1  -3  -8    4.08    0.32 
  -2  -3  -8   60.81    2.22 
   2   3   8   56.24    2.10 
  -3  -3  -8   15.49    0.66 
   3   3   8   15.69    0.70 
  -6  -3  -8    1.39    0.26 
   6   3   8    0.93    0.18 
  -7  -3  -8    0.67    0.23 
  -8  -3  -8   10.03    0.67 
  -9  -3  -8    1.42    0.32 
   5  -4  -8    4.26    0.49 
   4  -4  -8    6.33    0.51 
   3  -4  -8    2.54    0.33 
   2  -4  -8   -0.15    0.15 
   2  -4  -8   -0.08    0.18 
   1  -4  -8    7.68    0.48 
   1  -4  -8    7.91    0.56 
   0  -4  -8   15.37    0.80 
   0  -4  -8   16.30    0.77 
  -1  -4  -8   25.16    1.07 
  -1  -4  -8   25.26    1.10 
  -2  -4  -8    2.99    0.30 
  -2  -4  -8    2.39    0.27 
  -3  -4  -8   89.32    3.31 
  -3  -4  -8   90.61    3.32 
   3   4   8   89.98    3.15 
  -4  -4  -8   66.87    2.51 
   4   4   8   64.56    2.34 
  -5  -4  -8   20.24    0.96 
   5   4   8   21.02    0.86 
  -6  -4  -8    0.36    0.20 
   6   4   8    0.57    0.15 
  -7  -4  -8   19.01    0.97 
  -8  -4  -8    5.66    0.48 
  -9  -4  -8    5.53    0.53 
   4  -5  -8   -0.27    0.29 
   4  -5  -8   -0.02    0.22 
   3  -5  -8    4.71    0.43 
   3  -5  -8    4.49    0.55 
   2  -5  -8   -0.14    0.21 
   2  -5  -8    0.23    0.17 
   1  -5  -8   19.52    0.90 
   1  -5  -8   19.21    1.01 
   0  -5  -8    0.41    0.22 
   0  -5  -8    0.29    0.17 
  -1  -5  -8   63.92    2.43 
  -1  -5  -8   64.00    2.51 
  -2  -5  -8  132.58    4.82 
  -2  -5  -8  135.20    4.94 
  -3  -5  -8    6.01    0.44 
  -3  -5  -8    6.53    0.45 
  -4  -5  -8    5.34    0.39 
  -4  -5  -8    5.32    0.42 
  -5  -5  -8    1.04    0.24 
  -6  -5  -8    1.69    0.30 
  -7  -5  -8   20.85    1.05 
  -8  -5  -8    1.66    0.31 
  -9  -5  -8   -0.07    0.22 
   3  -6  -8    1.30    0.28 
   3  -6  -8    1.08    0.36 
   2  -6  -8    0.24    0.19 
   2  -6  -8    0.23    0.26 
   1  -6  -8    3.78    0.45 
   1  -6  -8    3.52    0.36 
   0  -6  -8   18.00    0.87 
   0  -6  -8   19.50    1.00 
  -1  -6  -8    0.53    0.24 
  -1  -6  -8    0.26    0.17 
  -2  -6  -8    2.78    0.36 
  -2  -6  -8    2.87    0.32 
  -3  -6  -8   68.89    2.67 
  -3  -6  -8   68.47    2.61 
  -4  -6  -8   26.21    1.16 
  -4  -6  -8   26.20    1.18 
  -5  -6  -8    4.39    0.41 
  -6  -6  -8    6.14    0.49 
  -7  -6  -8    1.47    0.31 
  -8  -6  -8    6.29    0.55 
  -9  -6  -8    0.15    0.26 
   2  -7  -8    5.03    0.61 
   1  -7  -8   18.11    1.04 
   0  -7  -8    2.57    0.41 
   0  -7  -8    3.71    0.37 
  -1  -7  -8    3.95    0.47 
  -1  -7  -8    3.48    0.34 
  -2  -7  -8    1.68    0.26 
  -2  -7  -8    1.98    0.34 
  -3  -7  -8   10.92    0.63 
  -3  -7  -8   10.76    0.70 
  -4  -7  -8   -0.03    0.15 
  -4  -7  -8   -0.09    0.21 
  -5  -7  -8   -0.10    0.17 
  -6  -7  -8    6.14    0.51 
  -7  -7  -8    4.57    0.49 
  -8  -7  -8    6.29    0.54 
   1  -8  -8    0.55    0.33 
   0  -8  -8   14.20    0.92 
  -1  -8  -8   -0.16    0.24 
  -2  -8  -8    2.12    0.37 
  -3  -8  -8   -0.18    0.15 
  -3  -8  -8    0.24    0.22 
  -4  -8  -8    0.14    0.17 
  -4  -8  -8    0.31    0.24 
  -5  -8  -8    1.63    0.29 
  -6  -8  -8    0.63    0.25 
  -7  -8  -8    1.15    0.30 
  -2  -9  -8    3.83    0.52 
  -3  -9  -8    2.54    0.43 
  -4  -9  -8    9.34    0.70 
  -1  -8   9    2.64    0.45 
   0  -8   9   12.85    0.86 
   0  -8   9   12.48    0.73 
   1  -8   9   -0.12    0.19 
  -4  -7   9    2.12    0.46 
  -3  -7   9   14.43    0.96 
  -2  -7   9    3.04    0.47 
  -1  -7   9    5.27    0.58 
  -1  -7   9    5.08    0.45 
   0  -7   9    7.44    0.53 
   0  -7   9    8.89    0.64 
   1  -7   9   17.09    0.94 
   1  -7   9   15.73    0.85 
   2  -7   9   -0.22    0.17 
   3  -7   9    1.57    0.32 
  -5  -6   9    3.60    0.57 
  -4  -6   9   34.53    1.67 
  -3  -6   9   14.84    0.93 
  -2  -6   9    1.87    0.37 
  -1  -6   9    8.73    0.54 
  -1  -6   9    8.85    0.63 
   0  -6   9   40.05    1.58 
   0  -6   9   39.10    1.72 
   1  -6   9    1.54    0.31 
   1  -6   9    1.29    0.26 
   2  -6   9    1.58    0.28 
   3  -6   9    5.43    0.47 
   4  -6   9   17.23    0.90 
   5  -6   9    3.01    0.41 
   5   5  -9    3.64    0.41 
  -5  -5   9    3.39    0.54 
   4   5  -9   19.15    0.93 
  -4  -5   9   18.66    1.09 
   3   5  -9   16.68    0.81 
  -3  -5   9   15.96    0.94 
  -2  -5   9    6.91    0.57 
  -2  -5   9    5.80    0.44 
  -1  -5   9    0.24    0.22 
  -1  -5   9    0.17    0.16 
   0  -5   9    0.19    0.17 
   0  -5   9    0.19    0.21 
   1  -5   9   12.60    0.68 
   1  -5   9   12.44    0.71 
   2  -5   9   10.95    0.64 
   3  -5   9   -0.04    0.16 
   4  -5   9    0.44    0.21 
   5  -5   9    0.11    0.19 
   6  -5   9   25.28    1.20 
   6   4  -9    1.68    0.34 
  -6  -4   9    1.14    0.40 
   5   4  -9    0.03    0.20 
  -5  -4   9   -0.05    0.25 
   4   4  -9   14.68    0.76 
  -4  -4   9   14.27    0.89 
   3   4  -9    3.08    0.34 
  -3  -4   9    2.47    0.40 
   2   4  -9    7.50    0.48 
  -2  -4   9    7.98    0.47 
  -2  -4   9    7.72    0.56 
   1   4  -9   23.70    1.00 
  -1  -4   9   23.64    1.12 
  -1  -4   9   22.98    0.99 
   0   4  -9   65.03    2.41 
   0  -4   9   65.43    2.39 
   0  -4   9   66.07    2.56 
   1  -4   9  103.12    3.61 
   1  -4   9  101.56    3.82 
   2  -4   9   13.74    0.70 
   3  -4   9    0.28    0.18 
   4  -4   9    3.46    0.38 
   5  -4   9   12.32    0.70 
   6  -4   9    1.01    0.27 
   7  -4   9    2.87    0.40 
   6   3  -9    1.60    0.34 
  -6  -3   9    2.11    0.45 
   5   3  -9    5.43    0.46 
  -5  -3   9    5.33    0.61 
   4   3  -9    0.52    0.21 
  -4  -3   9    0.20    0.24 
   3   3  -9   19.92    0.94 
  -3  -3   9   21.14    1.06 
  -3  -3   9   20.09    0.87 
   2   3  -9    0.59    0.20 
  -2  -3   9    0.32    0.22 
  -2  -3   9    0.38    0.17 
   1   3  -9   29.72    1.22 
  -1  -3   9   29.83    1.19 
  -1  -3   9   28.94    1.29 
   0   3  -9   19.18    0.83 
   0  -3   9   18.24    0.88 
   0  -3   9   18.60    0.83 
  -1   3  -9   12.75    0.62 
   1  -3   9   14.01    0.67 
   1  -3   9   12.86    0.67 
  -2   3  -9   91.42    3.32 
   2  -3   9   92.69    3.26 
  -3   3  -9   12.24    0.60 
   3  -3   9   12.90    0.66 
   4  -3   9    0.68    0.20 
   5  -3   9    5.72    0.46 
   6  -3   9    4.18    0.43 
   7  -3   9    0.44    0.23 
   6   2  -9    1.99    0.36 
   5   2  -9    1.27    0.28 
  -5  -2   9    1.98    0.38 
   4   2  -9    1.37    0.27 
  -4  -2   9    1.38    0.33 
   3   2  -9    3.56    0.37 
  -3  -2   9    3.44    0.43 
  -3  -2   9    3.60    0.30 
   2   2  -9    1.15    0.24 
  -2  -2   9    1.32    0.27 
  -2  -2   9    0.66    0.18 
   1   2  -9   25.63    1.10 
  -1  -2   9   26.28    1.07 
  -1  -2   9   26.32    1.15 
   0   2  -9    1.04    0.20 
   0  -2   9    1.51    0.23 
   0  -2   9    0.89    0.20 
  -1   2  -9   71.15    2.63 
   1  -2   9   71.41    2.56 
   1  -2   9   72.00    2.66 
  -2   2  -9    6.93    0.41 
   2  -2   9    7.07    0.45 
  -3   2  -9    1.54    0.22 
   3  -2   9    0.35    0.13 
  -4   2  -9   21.00    0.92 
   4  -2   9   20.33    0.92 
  -5   2  -9   50.76    1.96 
   5  -2   9   49.92    1.92 
  -6   2  -9    3.01    0.34 
   6  -2   9    3.62    0.37 
   7  -2   9    0.87    0.25 
   8  -2   9    0.34    0.22 
   6   1  -9    4.39    0.49 
   5   1  -9    0.41    0.21 
   4   1  -9    0.18    0.19 
   3   1  -9    5.68    0.45 
  -3  -1   9    5.28    0.39 
  -3  -1   9    5.42    0.48 
   2   1  -9   58.90    2.30 
  -2  -1   9   62.18    2.19 
  -2  -1   9   59.36    2.38 
   1   1  -9    1.46    0.25 
  -1  -1   9    0.28    0.15 
  -1  -1   9   -0.06    0.16 
   0   1  -9    0.77    0.19 
   0  -1   9    0.81    0.18 
   0  -1   9    0.99    0.19 
  -1   1  -9   52.30    2.00 
   1  -1   9   53.05    1.98 
   1  -1   9   53.00    1.94 
  -3   1  -9   17.73    0.80 
  -4   1  -9    0.41    0.17 
   4  -1   9    0.24    0.15 
  -5   1  -9   63.57    2.43 
   5  -1   9   63.06    2.32 
  -6   1  -9   12.39    0.71 
   6  -1   9   12.40    0.66 
  -7   1  -9    1.19    0.28 
   7  -1   9    1.13    0.24 
  -8   1  -9    0.33    0.23 
   8  -1   9    0.08    0.19 
   6   0  -9    5.53    0.51 
   5   0  -9    4.21    0.44 
   4   0  -9    0.69    0.22 
   3   0  -9   56.80    2.22 
   2   0  -9    0.19    0.19 
  -2   0   9    0.09    0.14 
   1   0  -9    8.85    0.53 
  -1   0   9    7.73    0.47 
   0   0  -9    2.81    0.30 
   0   0   9    2.40    0.27 
  -1   0  -9   22.02    0.94 
   1   0   9   21.24    0.91 
  -3   0  -9    0.32    0.15 
   3   0   9    0.41    0.16 
  -4   0  -9   43.78    1.76 
   4   0   9   45.94    1.69 
  -5   0  -9   71.39    2.69 
   5   0   9   70.43    2.55 
  -6   0  -9    4.20    0.42 
   6   0   9    5.43    0.40 
  -7   0  -9    0.09    0.20 
   7   0   9    0.47    0.18 
  -8   0  -9    2.28    0.36 
   8   0   9    1.87    0.29 
  -9   0  -9    5.67    0.52 
   5  -1  -9    0.22    0.22 
   4  -1  -9   -0.04    0.18 
   3  -1  -9   14.10    0.75 
   2  -1  -9   79.49    2.98 
   1  -1  -9    2.05    0.28 
  -1   1   9    3.24    0.29 
   0  -1  -9   73.61    2.78 
   0   1   9   75.88    2.66 
  -2  -1  -9    0.43    0.16 
   2   1   9    0.09    0.09 
  -3  -1  -9    2.66    0.29 
   3   1   9    2.61    0.27 
  -4  -1  -9    5.29    0.40 
   4   1   9    5.88    0.38 
  -5  -1  -9    9.39    0.57 
   5   1   9    9.37    0.52 
  -6  -1  -9   35.87    1.49 
   6   1   9   33.17    1.34 
  -7  -1  -9    3.84    0.43 
   7   1   9    4.43    0.36 
  -8  -1  -9    0.44    0.24 
  -9  -1  -9    3.23    0.43 
   5  -2  -9   -0.09    0.21 
   4  -2  -9    4.27    0.41 
   3  -2  -9   32.07    1.37 
   2  -2  -9    7.14    0.49 
   1  -2  -9    3.43    0.35 
  -2  -2  -9    1.57    0.17 
   2   2   9    1.41    0.21 
  -3  -2  -9    1.43    0.23 
   3   2   9    1.91    0.23 
  -4  -2  -9   29.18    1.22 
   4   2   9   27.73    1.13 
  -5  -2  -9   43.30    1.74 
   5   2   9   42.30    1.60 
  -6  -2  -9    3.03    0.37 
   6   2   9    3.12    0.30 
  -7  -2  -9    1.40    0.29 
   7   2   9    1.07    0.20 
  -8  -2  -9    2.41    0.36 
  -9  -2  -9   18.49    1.01 
   5  -3  -9    0.31    0.26 
   4  -3  -9   13.82    0.79 
   3  -3  -9    4.20    0.41 
   2  -3  -9    1.51    0.26 
   1  -3  -9    1.92    0.27 
   0  -3  -9   18.58    0.90 
   0  -3  -9   20.51    0.91 
  -1  -3  -9   13.67    0.71 
  -1  -3  -9   15.11    0.70 
  -2  -3  -9   13.90    0.69 
   3   3   9    1.63    0.23 
   4   3   9    2.16    0.25 
  -5  -3  -9    4.27    0.38 
   5   3   9    4.28    0.33 
  -6  -3  -9   22.17    1.04 
   6   3   9   20.33    0.89 
  -7  -3  -9   36.90    1.61 
  -8  -3  -9    1.96    0.34 
  -9  -3  -9    9.33    0.69 
   4  -4  -9    1.36    0.29 
   3  -4  -9   12.58    0.73 
   2  -4  -9   18.92    0.91 
   2  -4  -9   19.02    1.01 
   1  -4  -9    8.83    0.61 
   1  -4  -9    9.78    0.56 
   0  -4  -9    5.17    0.41 
   0  -4  -9    5.93    0.45 
  -1  -4  -9    6.20    0.43 
  -1  -4  -9    6.10    0.43 
  -2  -4  -9   18.45    0.84 
  -2  -4  -9   17.60    0.84 
  -3  -4  -9    0.42    0.18 
   3   4   9    0.32    0.16 
  -4  -4  -9    0.10    0.15 
   4   4   9    0.02    0.12 
  -5  -4  -9   15.63    0.81 
   5   4   9   15.62    0.71 
  -6  -4  -9   33.30    1.44 
   6   4   9   31.30    1.25 
  -7  -4  -9    8.66    0.61 
  -8  -4  -9    1.08    0.30 
  -9  -4  -9   16.37    0.96 
   3  -5  -9    1.00    0.31 
   3  -5  -9    1.38    0.29 
   2  -5  -9    6.61    0.48 
   2  -5  -9    4.36    0.51 
   1  -5  -9    9.75    0.57 
   1  -5  -9    8.63    0.64 
   0  -5  -9   10.57    0.67 
   0  -5  -9   11.19    0.62 
  -1  -5  -9   11.38    0.63 
  -1  -5  -9   11.66    0.67 
  -2  -5  -9   20.37    0.95 
  -2  -5  -9   20.90    0.97 
  -3  -5  -9   91.36    3.38 
  -3  -5  -9   88.91    3.35 
  -4  -5  -9    6.33    0.46 
  -5  -5  -9    1.80    0.29 
  -6  -5  -9    8.88    0.60 
  -7  -5  -9   27.00    1.28 
  -8  -5  -9    0.50    0.23 
  -9  -5  -9    0.37    0.26 
   2  -6  -9    5.24    0.47 
   2  -6  -9    5.72    0.61 
   1  -6  -9    9.05    0.57 
   1  -6  -9    8.61    0.65 
   0  -6  -9    0.35    0.24 
   0  -6  -9    0.15    0.18 
  -1  -6  -9   51.31    2.09 
  -1  -6  -9   48.78    1.97 
  -2  -6  -9   45.31    1.80 
  -2  -6  -9   44.17    1.86 
  -3  -6  -9    1.04    0.23 
  -3  -6  -9    1.35    0.27 
  -4  -6  -9    1.80    0.29 
  -5  -6  -9   14.52    0.79 
  -6  -6  -9   45.79    1.92 
  -7  -6  -9    0.03    0.22 
  -8  -6  -9    1.01    0.31 
   1  -7  -9    0.91    0.34 
   0  -7  -9    3.12    0.37 
   0  -7  -9    3.41    0.46 
  -1  -7  -9   14.06    0.85 
  -1  -7  -9   14.84    0.76 
  -2  -7  -9    0.13    0.17 
  -2  -7  -9    0.00    0.22 
  -3  -7  -9   36.02    1.60 
  -3  -7  -9   37.04    1.54 
  -4  -7  -9    1.42    0.28 
  -5  -7  -9    0.09    0.19 
  -6  -7  -9    6.04    0.53 
  -7  -7  -9    8.43    0.63 
  -8  -7  -9    0.00    0.23 
   0  -8  -9    8.10    0.70 
  -1  -8  -9    2.31    0.42 
  -2  -8  -9   20.02    1.08 
  -3  -8  -9    6.72    0.52 
  -3  -8  -9    5.96    0.55 
  -4  -8  -9    0.42    0.22 
  -5  -8  -9    2.22    0.35 
  -6  -8  -9    4.16    0.47 
  -7  -8  -9    0.30    0.25 
  -3  -9  -9   13.27    0.86 
  -2  -7  10    9.28    0.76 
  -1  -7  10    4.60    0.45 
  -1  -7  10    3.18    0.49 
   0  -7  10    0.82    0.25 
   1  -7  10    0.07    0.20 
   2  -7  10   22.42    1.09 
  -4  -6  10    0.71    0.38 
  -3  -6  10    0.11    0.27 
  -2  -6  10    3.20    0.47 
  -1  -6  10    2.67    0.42 
  -1  -6  10    3.10    0.36 
   0  -6  10    6.45    0.55 
   0  -6  10    5.75    0.46 
   1  -6  10    2.71    0.35 
   2  -6  10   -0.02    0.17 
   3  -6  10   14.65    0.81 
   4  -6  10    4.98    0.51 
  -4  -5  10    2.42    0.46 
  -3  -5  10    1.33    0.35 
  -2  -5  10   35.52    1.45 
  -2  -5  10   37.15    1.65 
  -1  -5  10   21.17    0.95 
  -1  -5  10   20.52    1.07 
   0  -5  10    1.16    0.28 
   0  -5  10    1.49    0.25 
   1  -5  10    0.01    0.17 
   2  -5  10    6.28    0.48 
   3  -5  10   14.95    0.79 
   4  -5  10    1.19    0.27 
   5  -5  10    2.77    0.38 
   5   4 -10    0.68    0.27 
  -5  -4  10    0.84    0.36 
   4   4 -10    0.84    0.26 
  -4  -4  10    1.11    0.37 
   3   4 -10    0.00    0.19 
  -3  -4  10    0.18    0.24 
   2   4 -10    2.60    0.32 
  -2  -4  10    2.97    0.32 
  -2  -4  10    2.66    0.40 
   1   4 -10    5.72    0.43 
  -1  -4  10    6.00    0.48 
  -1  -4  10    6.16    0.44 
   0  -4  10   10.08    0.63 
   0  -4  10    9.63    0.58 
   1  -4  10   14.56    0.75 
   2  -4  10   27.66    1.19 
   3  -4  10    1.43    0.26 
   4  -4  10    2.35    0.32 
   5  -4  10    2.62    0.36 
   6  -4  10   -0.01    0.22 
   5   3 -10    4.15    0.45 
  -5  -3  10    3.74    0.53 
   4   3 -10    5.35    0.47 
  -4  -3  10    6.54    0.60 
   3   3 -10    4.95    0.43 
  -3  -3  10    4.82    0.37 
  -3  -3  10    5.12    0.50 
   2   3 -10   26.74    1.17 
  -2  -3  10   26.01    1.11 
  -2  -3  10   27.39    1.26 
   1   3 -10   10.35    0.58 
  -1  -3  10   11.03    0.58 
  -1  -3  10   10.30    0.64 
   0   3 -10    1.08    0.21 
   0  -3  10    1.21    0.24 
   0  -3  10    0.95    0.23 
  -1   3 -10    0.03    0.14 
   1  -3  10   -0.06    0.15 
  -2   3 -10   50.07    1.88 
   2  -3  10   48.03    1.87 
   3  -3  10   34.20    1.40 
   4  -3  10    0.70    0.21 
   5  -3  10    3.36    0.38 
   6  -3  10   -0.13    0.16 
   7  -3  10   10.39    0.67 
   5   2 -10    0.92    0.29 
  -5  -2  10    1.43    0.38 
   4   2 -10    4.86    0.46 
  -4  -2  10    5.56    0.53 
   3   2 -10    0.54    0.20 
  -3  -2  10    0.90    0.27 
  -3  -2  10    0.67    0.18 
   2   2 -10    1.17    0.26 
  -2  -2  10    0.96    0.21 
  -2  -2  10    0.86    0.25 
   1   2 -10    4.27    0.38 
  -1  -2  10    4.13    0.36 
  -1  -2  10    5.39    0.43 
   0   2 -10    1.53    0.24 
   0  -2  10    1.26    0.22 
   0  -2  10    1.21    0.23 
  -1   2 -10   44.27    1.72 
   1  -2  10   44.54    1.70 
  -2   2 -10    0.84    0.19 
   2  -2  10    0.41    0.19 
  -3   2 -10    1.78    0.25 
   3  -2  10    1.21    0.23 
  -4   2 -10    5.22    0.40 
   4  -2  10    5.56    0.42 
  -5   2 -10    0.35    0.19 
   5  -2  10    0.18    0.18 
   6  -2  10    0.47    0.21 
   7  -2  10    3.67    0.41 
   8  -2  10   11.67    0.72 
   5   1 -10    7.13    0.57 
   4   1 -10    5.41    0.48 
   3   1 -10    2.83    0.35 
  -3  -1  10    3.05    0.32 
   2   1 -10    4.49    0.41 
  -2  -1  10    5.56    0.45 
  -2  -1  10    4.40    0.36 
   1   1 -10   57.37    2.27 
  -1  -1  10   60.14    2.18 
  -1  -1  10   60.61    2.33 
   0   1 -10   65.76    2.43 
   0  -1  10   61.79    2.32 
   0  -1  10   64.14    2.44 
  -1   1 -10    0.59    0.19 
   1  -1  10    0.54    0.17 
  -2   1 -10   43.84    1.68 
   2  -1  10   41.72    1.64 
  -3   1 -10   47.58    1.81 
   3  -1  10   45.18    1.76 
  -4   1 -10   49.85    1.96 
   4  -1  10   50.99    1.91 
  -5   1 -10    2.20    0.31 
   5  -1  10    2.45    0.31 
  -6   1 -10    9.92    0.63 
   6  -1  10   10.13    0.60 
  -7   1 -10   30.94    1.40 
   7  -1  10   32.96    1.35 
  -8   1 -10   12.90    0.78 
   8  -1  10   13.57    0.74 
   5   0 -10    0.78    0.28 
   4   0 -10    7.67    0.54 
   3   0 -10   11.01    0.65 
   2   0 -10    2.99    0.35 
  -2   0  10    3.42    0.34 
   1   0 -10    2.27    0.31 
  -1   0  10    1.77    0.26 
   0   0 -10   12.93    0.68 
   0   0  10   12.68    0.65 
  -1   0 -10   10.55    0.58 
   1   0  10   10.30    0.56 
  -2   0 -10    3.09    0.33 
  -3   0 -10    1.73    0.25 
   3   0  10    1.49    0.23 
  -4   0 -10   40.54    1.62 
   4   0  10   39.09    1.54 
  -5   0 -10    0.74    0.22 
   5   0  10    0.52    0.19 
  -6   0 -10    6.05    0.48 
   6   0  10    5.64    0.43 
  -7   0 -10    1.81    0.32 
   7   0  10    1.66    0.27 
  -8   0 -10   -0.01    0.19 
   8   0  10    0.29    0.19 
   5  -1 -10   11.65    0.73 
   4  -1 -10   13.82    0.77 
   3  -1 -10   -0.13    0.18 
   2  -1 -10    2.42    0.32 
   1  -1 -10   28.37    1.22 
  -1   1  10   27.74    1.17 
   0  -1 -10   25.33    1.11 
   0   1  10   24.74    1.06 
  -1  -1 -10    9.75    0.56 
   1   1  10    9.60    0.53 
  -2  -1 -10    1.42    0.24 
  -3  -1 -10   33.42    1.35 
   3   1  10   30.79    1.27 
  -4  -1 -10   17.17    0.82 
   4   1  10   16.53    0.77 
  -5  -1 -10    0.59    0.20 
   5   1  10    0.51    0.18 
  -6  -1 -10    7.35    0.53 
   6   1  10    6.04    0.44 
  -7  -1 -10   29.58    1.35 
   7   1  10   30.03    1.24 
  -8  -1 -10   12.36    0.76 
  -9  -1 -10    2.12    0.38 
   5  -2 -10    2.52    0.41 
   4  -2 -10    0.48    0.25 
   3  -2 -10   -0.02    0.18 
   2  -2 -10    8.79    0.56 
   1  -2 -10   21.78    1.00 
   0  -2 -10   14.56    0.73 
   0   2  10   14.06    0.71 
  -1  -2 -10    0.46    0.17 
  -1  -2 -10    0.74    0.18 
   1   2  10    0.85    0.18 
  -2  -2 -10    0.70    0.20 
   2   2  10    0.63    0.18 
  -3  -2 -10    1.89    0.28 
   3   2  10    1.59    0.24 
  -4  -2 -10    4.30    0.38 
   4   2  10    4.19    0.34 
  -5  -2 -10   26.79    1.22 
   5   2  10   28.88    1.15 
  -6  -2 -10    1.85    0.30 
   6   2  10    1.94    0.26 
  -7  -2 -10    0.98    0.27 
   7   2  10    0.88    0.21 
  -8  -2 -10    1.68    0.33 
  -9  -2 -10    2.97    0.45 
   4  -3 -10   20.26    1.04 
   3  -3 -10    0.56    0.25 
   2  -3 -10    2.30    0.31 
   1  -3 -10    0.95    0.22 
   0  -3 -10    5.33    0.43 
   0  -3 -10    6.10    0.44 
  -1  -3 -10    8.06    0.48 
  -1  -3 -10    8.42    0.51 
   1   3  10    8.18    0.51 
  -2  -3 -10    3.89    0.34 
   2   3  10    2.95    0.31 
  -3  -3 -10    4.20    0.37 
   3   3  10    4.54    0.36 
  -4  -3 -10   71.07    2.69 
   4   3  10   69.32    2.52 
  -5  -3 -10    0.56    0.22 
   5   3  10    0.60    0.17 
  -6  -3 -10    3.73    0.41 
   6   3  10    4.70    0.35 
  -7  -3 -10   24.68    1.20 
   7   3  10   24.44    1.03 
  -8  -3 -10    0.69    0.27 
  -9  -3 -10    6.81    0.61 
   3  -4 -10    0.89    0.27 
   2  -4 -10    2.25    0.37 
   2  -4 -10    2.41    0.35 
   1  -4 -10   10.16    0.60 
   1  -4 -10    9.07    0.65 
   0  -4 -10    3.75    0.35 
   0  -4 -10    3.85    0.39 
  -1  -4 -10    1.05    0.23 
  -1  -4 -10    0.94    0.24 
  -2  -4 -10    8.69    0.53 
  -3  -4 -10    0.87    0.22 
   3   4  10    1.02    0.22 
  -4  -4 -10    0.74    0.22 
   4   4  10    0.73    0.18 
  -5  -4 -10   33.42    1.44 
   5   4  10   33.24    1.32 
  -6  -4 -10   11.09    0.67 
   6   4  10   10.61    0.58 
  -7  -4 -10    0.08    0.17 
  -8  -4 -10   13.48    0.83 
  -9  -4 -10    0.55    0.29 
   3  -5 -10   12.31    0.85 
   3  -5 -10   11.66    0.73 
   2  -5 -10   -0.09    0.19 
   2  -5 -10   -0.22    0.22 
   1  -5 -10    4.43    0.41 
   1  -5 -10    4.34    0.48 
   0  -5 -10   25.23    1.15 
   0  -5 -10   25.49    1.21 
  -1  -5 -10   19.99    0.97 
  -1  -5 -10   19.42    0.94 
  -2  -5 -10    0.01    0.14 
  -3  -5 -10    0.42    0.19 
  -4  -5 -10   37.77    1.60 
  -5  -5 -10    5.95    0.47 
  -6  -5 -10    0.82    0.25 
   6   5  10    0.35    0.17 
  -7  -5 -10    1.26    0.29 
  -8  -5 -10   16.12    0.94 
   2  -6 -10    0.25    0.23 
   2  -6 -10   -0.14    0.26 
   1  -6 -10   21.06    1.01 
   1  -6 -10   20.26    1.11 
   0  -6 -10    0.16    0.23 
   0  -6 -10   -0.01    0.18 
  -1  -6 -10    4.68    0.42 
  -1  -6 -10    4.69    0.49 
  -2  -6 -10    0.44    0.19 
  -3  -6 -10   42.49    1.76 
  -4  -6 -10   -0.13    0.18 
  -5  -6 -10   -0.09    0.18 
  -6  -6 -10    0.48    0.25 
  -7  -6 -10    4.34    0.50 
  -8  -6 -10    0.24    0.24 
   1  -7 -10    2.93    0.47 
   0  -7 -10   13.06    0.84 
   0  -7 -10   12.63    0.74 
  -1  -7 -10   16.56    0.87 
  -1  -7 -10   18.08    0.98 
  -2  -7 -10    1.18    0.27 
  -3  -7 -10   16.73    0.87 
  -4  -7 -10    1.28    0.28 
  -5  -7 -10    3.49    0.42 
  -6  -7 -10    0.01    0.20 
  -7  -7 -10    0.41    0.25 
  -1  -8 -10    1.50    0.36 
  -3  -8 -10   12.91    0.76 
  -4  -8 -10    0.05    0.21 
  -5  -8 -10   -0.37    0.18 
  -6  -8 -10    4.85    0.53 
   0  -7  11   13.12    0.77 
   1  -7  11    4.51    0.49 
  -3  -6  11   10.41    0.80 
  -2  -6  11   16.65    1.01 
  -1  -6  11    0.23    0.21 
   0  -6  11    2.20    0.33 
   1  -6  11   43.37    1.77 
   2  -6  11    5.99    0.51 
   3  -6  11    5.26    0.48 
  -4  -5  11    1.34    0.40 
  -3  -5  11    8.52    0.72 
  -2  -5  11    1.29    0.35 
  -1  -5  11    1.98    0.37 
  -1  -5  11    2.40    0.33 
   0  -5  11   27.81    1.22 
   1  -5  11    1.12    0.27 
   2  -5  11    4.43    0.45 
   3  -5  11    0.51    0.24 
   4  -5  11    1.96    0.33 
   5  -5  11    0.37    0.23 
   4   4 -11    0.21    0.24 
  -4  -4  11    0.63    0.34 
   3   4 -11    7.82    0.55 
  -3  -4  11    7.84    0.66 
   2   4 -11    2.03    0.31 
  -2  -4  11    1.92    0.29 
  -2  -4  11    1.37    0.33 
   1   4 -11    1.62    0.27 
  -1  -4  11    1.41    0.26 
  -1  -4  11    1.94    0.33 
   0  -4  11    0.36    0.18 
   1  -4  11   21.48    1.00 
   2  -4  11   37.35    1.54 
   3  -4  11    1.16    0.26 
   4  -4  11    2.49    0.34 
   5  -4  11    2.01    0.33 
   6  -4  11    9.20    0.64 
   4   3 -11   14.58    0.84 
  -4  -3  11   15.69    0.97 
   3   3 -11    1.10    0.27 
  -3  -3  11    1.53    0.34 
   2   3 -11    0.02    0.19 
  -2  -3  11    0.02    0.16 
  -2  -3  11    0.15    0.22 
   1   3 -11    5.85    0.47 
  -1  -3  11    5.79    0.44 
  -1  -3  11    6.47    0.50 
   0   3 -11    8.35    0.51 
   0  -3  11    8.00    0.51 
  -1   3 -11    1.40    0.23 
   1  -3  11    1.15    0.24 
  -2   3 -11    2.58    0.29 
   2  -3  11    2.63    0.34 
   3  -3  11   18.45    0.90 
   4  -3  11    2.42    0.33 
   5  -3  11    2.66    0.36 
   6  -3  11    0.52    0.25 
   7  -3  11   16.06    0.88 
   5   2 -11    0.17    0.28 
   4   2 -11    0.01    0.22 
  -4  -2  11    0.42    0.29 
   3   2 -11    7.82    0.55 
  -3  -2  11    8.27    0.51 
  -3  -2  11    8.17    0.63 
   2   2 -11    7.20    0.50 
  -2  -2  11    7.76    0.57 
  -2  -2  11    7.65    0.49 
   1   2 -11    1.36    0.27 
  -1  -2  11    1.49    0.25 
  -1  -2  11    1.76    0.30 
   0   2 -11    6.75    0.47 
   0  -2  11    7.87    0.50 
  -1   2 -11   11.44    0.61 
   1  -2  11   11.25    0.63 
  -2   2 -11   54.62    2.10 
   2  -2  11   54.96    2.07 
  -3   2 -11    3.13    0.32 
   3  -2  11    3.22    0.36 
  -4   2 -11    1.14    0.22 
   4  -2  11    0.70    0.21 
  -5   2 -11   12.10    0.70 
   5  -2  11   13.37    0.72 
   6  -2  11   17.98    0.91 
   7  -2  11    9.91    0.65 
   5   1 -11   -0.28    0.22 
   4   1 -11    0.78    0.28 
   3   1 -11   15.95    0.86 
  -3  -1  11   17.31    0.82 
   2   1 -11    2.58    0.33 
  -2  -1  11    2.47    0.31 
   1   1 -11    6.17    0.47 
  -1  -1  11    5.69    0.42 
  -1  -1  11    6.20    0.48 
   0   1 -11   15.60    0.77 
   0  -1  11   14.42    0.74 
  -1   1 -11   22.75    1.02 
   1  -1  11   22.81    1.00 
  -2   1 -11   38.79    1.58 
   2  -1  11   39.41    1.55 
  -3   1 -11   54.50    2.13 
   3  -1  11   56.42    2.09 
  -4   1 -11   11.88    0.66 
   4  -1  11   11.89    0.65 
  -5   1 -11   14.14    0.75 
   5  -1  11   13.96    0.74 
  -6   1 -11    0.49    0.22 
   6  -1  11   -0.12    0.17 
  -7   1 -11    9.25    0.63 
   7  -1  11   10.42    0.64 
   8  -1  11    0.13    0.23 
   4   0 -11    0.15    0.23 
   3   0 -11    0.48    0.23 
   2   0 -11   36.93    1.56 
  -2   0  11   36.86    1.49 
   1   0 -11    2.16    0.31 
  -1   0  11    2.32    0.29 
   0   0 -11    1.21    0.26 
   0   0  11    1.29    0.24 
  -1   0 -11    4.25    0.39 
   1   0  11    4.80    0.39 
  -2   0 -11   35.18    1.47 
   2   0  11   35.84    1.42 
  -3   0 -11   17.71    0.83 
   3   0  11   16.38    0.79 
  -4   0 -11    0.27    0.18 
   4   0  11    0.25    0.16 
  -5   0 -11   11.11    0.65 
   5   0  11   10.79    0.61 
  -6   0 -11   63.09    2.45 
   6   0  11   60.48    2.31 
  -7   0 -11    0.74    0.25 
   7   0  11    0.77    0.25 
  -8   0 -11    1.36    0.31 
   8   0  11    1.51    0.29 
   4  -1 -11    4.65    0.49 
   3  -1 -11   20.47    1.01 
   2  -1 -11   30.26    1.34 
   1  -1 -11   -0.06    0.17 
  -1   1  11    0.07    0.16 
   0  -1 -11    1.01    0.24 
   0   1  11    1.01    0.22 
  -1  -1 -11   32.03    1.35 
   1   1  11   31.62    1.30 
  -2  -1 -11   15.45    0.79 
   2   1  11   15.49    0.76 
  -3  -1 -11    6.15    0.45 
   3   1  11    5.11    0.39 
  -4  -1 -11    1.56    0.27 
   4   1  11    1.59    0.24 
  -5  -1 -11   30.85    1.32 
   5   1  11   28.58    1.22 
  -6  -1 -11    0.30    0.18 
   6   1  11    0.22    0.16 
  -7  -1 -11    0.60    0.24 
   7   1  11    0.84    0.22 
  -8  -1 -11    0.08    0.21 
   4  -2 -11    0.42    0.26 
   3  -2 -11    6.87    0.54 
   2  -2 -11   22.94    1.09 
   1  -2 -11    5.05    0.44 
   0  -2 -11   14.98    0.78 
   0   2  11   15.10    0.76 
  -1  -2 -11   -0.18    0.15 
   1   2  11    0.00    0.14 
  -2  -2 -11   27.49    1.22 
   2   2  11   28.10    1.17 
  -3  -2 -11    5.07    0.42 
   3   2  11    5.97    0.40 
  -4  -2 -11    4.14    0.39 
   4   2  11    4.28    0.36 
  -5  -2 -11    1.74    0.30 
  -6  -2 -11   13.41    0.77 
   6   2  11   13.73    0.69 
  -7  -2 -11   19.08    0.97 
   7   2  11   16.56    0.82 
  -8  -2 -11    0.81    0.28 
   3  -3 -11    7.41    0.56 
   2  -3 -11   62.91    2.48 
   1  -3 -11   -0.26    0.15 
   0  -3 -11    4.65    0.41 
   0  -3 -11    4.66    0.41 
  -1  -3 -11   37.19    1.55 
   1   3  11   37.48    1.51 
  -2  -3 -11    0.03    0.16 
   2   3  11   -0.08    0.12 
  -3  -3 -11   12.87    0.70 
   3   3  11   12.19    0.65 
  -4  -3 -11   21.59    1.03 
   4   3  11   21.67    0.96 
  -5  -3 -11   -0.02    0.15 
   5   3  11    0.35    0.15 
  -6  -3 -11   17.68    0.93 
   6   3  11   18.24    0.84 
  -7  -3 -11    0.43    0.22 
   7   3  11    0.66    0.19 
  -8  -3 -11    5.57    0.53 
   3  -4 -11    2.23    0.37 
   3  -4 -11    1.65    0.39 
   2  -4 -11   14.11    0.87 
   2  -4 -11   14.51    0.81 
   1  -4 -11   24.62    1.15 
   1  -4 -11   25.61    1.22 
   0  -4 -11    6.15    0.50 
   0  -4 -11    5.83    0.46 
  -1  -4 -11   -0.19    0.15 
  -2  -4 -11   50.33    2.02 
  -3  -4 -11   -0.14    0.15 
   3   4  11   -0.12    0.14 
  -4  -4 -11    6.45    0.48 
   4   4  11    5.94    0.43 
  -5  -4 -11    1.68    0.30 
   5   4  11    1.76    0.26 
  -6  -4 -11   20.51    1.06 
   6   4  11   21.75    0.95 
  -7  -4 -11   25.83    1.26 
  -8  -4 -11   10.71    0.73 
   2  -5 -11    3.24    0.41 
   2  -5 -11    3.21    0.47 
   1  -5 -11    4.98    0.50 
   1  -5 -11    4.76    0.45 
   0  -5 -11    3.48    0.42 
   0  -5 -11    2.81    0.36 
  -1  -5 -11   16.19    0.85 
  -2  -5 -11    7.63    0.54 
  -3  -5 -11   24.11    1.13 
  -4  -5 -11    3.29    0.39 
  -5  -5 -11    4.19    0.45 
   5   5  11    4.31    0.38 
  -6  -5 -11   15.90    0.88 
   6   5  11   16.33    0.79 
  -7  -5 -11    0.05    0.19 
  -8  -5 -11   11.92    0.80 
   1  -6 -11   19.95    1.09 
   1  -6 -11   18.37    0.97 
   0  -6 -11    7.98    0.62 
   0  -6 -11    7.90    0.57 
  -1  -6 -11    1.53    0.29 
  -2  -6 -11    3.47    0.39 
  -3  -6 -11   66.49    2.60 
  -4  -6 -11    0.79    0.25 
  -5  -6 -11    2.67    0.37 
  -6  -6 -11    3.77    0.46 
  -7  -6 -11   10.61    0.73 
  -8  -6 -11    3.40    0.49 
   0  -7 -11   -0.28    0.25 
   0  -7 -11   -0.20    0.20 
  -1  -7 -11    0.32    0.22 
  -2  -7 -11   14.12    0.80 
  -3  -7 -11   21.08    1.06 
  -4  -7 -11    4.09    0.46 
  -5  -7 -11    7.29    0.57 
  -6  -7 -11    6.61    0.57 
  -7  -7 -11    0.27    0.23 
  -3  -8 -11   17.73    0.95 
  -4  -8 -11    8.66    0.63 
  -5  -8 -11    0.29    0.24 
  -1  -6  12    3.97    0.44 
   0  -6  12    0.06    0.22 
   1  -6  12    0.91    0.28 
   2  -6  12    1.11    0.31 
  -1  -5  12    0.04    0.18 
   0  -5  12   13.67    0.76 
   1  -5  12    1.85    0.32 
   2  -5  12    4.03    0.44 
   3  -5  12    7.81    0.59 
   4  -5  12    5.52    0.55 
   3   4 -12    2.18    0.35 
  -3  -4  12    1.88    0.43 
   2   4 -12    6.23    0.49 
  -2  -4  12    7.72    0.52 
  -1  -4  12   17.77    0.88 
   0  -4  12    0.93    0.24 
   1  -4  12    3.01    0.37 
   2  -4  12    0.82    0.23 
   3  -4  12    7.90    0.57 
   4  -4  12    2.38    0.36 
   5  -4  12   -0.19    0.17 
   4   3 -12   10.23    0.70 
  -4  -3  12   10.13    0.79 
   3   3 -12    3.65    0.42 
  -3  -3  12    2.62    0.44 
   2   3 -12    1.24    0.27 
  -2  -3  12    1.48    0.26 
  -2  -3  12    1.46    0.32 
   1   3 -12    0.15    0.20 
  -1  -3  12   -0.03    0.16 
   0   3 -12    9.42    0.57 
   0  -3  12    9.09    0.56 
  -1   3 -12    2.32    0.31 
   1  -3  12    2.32    0.32 
   2  -3  12    4.77    0.42 
   3  -3  12    5.27    0.45 
   4  -3  12   26.00    1.19 
   5  -3  12    8.87    0.60 
   6  -3  12    0.37    0.26 
   4   2 -12    0.11    0.25 
   3   2 -12   -0.12    0.21 
  -3  -2  12    0.06    0.25 
  -3  -2  12    0.66    0.20 
   2   2 -12   -0.20    0.18 
  -2  -2  12    0.01    0.21 
  -2  -2  12    0.01    0.15 
   1   2 -12   38.88    1.60 
  -1  -2  12   36.92    1.53 
   0   2 -12    3.27    0.37 
   0  -2  12    3.19    0.36 
  -1   2 -12    1.07    0.24 
   1  -2  12    0.76    0.21 
  -2   2 -12   16.47    0.82 
   2  -2  12   17.98    0.87 
  -3   2 -12    2.51    0.31 
   3  -2  12    1.90    0.30 
  -4   2 -12    0.49    0.19 
   4  -2  12    0.26    0.19 
   5  -2  12    2.73    0.37 
   6  -2  12    0.05    0.21 
   7  -2  12    0.62    0.27 
   4   1 -12    0.91    0.29 
   3   1 -12   10.67    0.67 
   2   1 -12    1.02    0.26 
  -2  -1  12    0.96    0.22 
   1   1 -12    3.30    0.39 
  -1  -1  12    3.81    0.39 
   0   1 -12   12.93    0.71 
   0  -1  12   13.21    0.70 
  -1   1 -12   50.84    2.01 
   1  -1  12   51.00    1.96 
  -2   1 -12   12.76    0.70 
   2  -1  12   12.99    0.69 
  -3   1 -12   -0.12    0.16 
   3  -1  12    0.02    0.16 
  -4   1 -12   13.63    0.75 
   4  -1  12   14.90    0.76 
  -5   1 -12    5.22    0.45 
   5  -1  12    5.75    0.47 
  -6   1 -12    6.98    0.55 
   6  -1  12    6.32    0.51 
  -7   1 -12    0.77    0.28 
   7  -1  12    1.04    0.28 
   4   0 -12    7.40    0.58 
   3   0 -12    0.01    0.21 
   2   0 -12    0.05    0.20 
  -2   0  12    0.02    0.15 
   1   0 -12   23.89    1.12 
  -1   0  12   24.46    1.08 
   0   0 -12    6.85    0.50 
   0   0  12    6.18    0.46 
  -1   0 -12    5.46    0.43 
   1   0  12    5.06    0.42 
  -2   0 -12   -0.39    0.15 
   2   0  12   -0.30    0.11 
  -3   0 -12   25.55    1.15 
   3   0  12   25.67    1.11 
  -4   0 -12   15.25    0.81 
   4   0  12   15.92    0.79 
  -5   0 -12    0.23    0.19 
   5   0  12    0.23    0.20 
  -6   0 -12    0.19    0.20 
   6   0  12    0.21    0.20 
  -7   0 -12    0.30    0.22 
   7   0  12    0.34    0.23 
  -8   0 -12   10.65    0.72 
   8   0  12   11.12    0.69 
   4  -1 -12    0.47    0.27 
   3  -1 -12    4.43    0.48 
   2  -1 -12    1.93    0.33 
   1  -1 -12    0.04    0.19 
  -1   1  12    0.12    0.15 
   0  -1 -12    1.78    0.30 
   0   1  12    1.36    0.25 
  -1  -1 -12    4.50    0.40 
   1   1  12    3.84    0.36 
  -2  -1 -12    3.60    0.39 
   2   1  12    3.44    0.36 
  -3  -1 -12    0.88    0.24 
   3   1  12    0.97    0.22 
  -4  -1 -12    3.53    0.39 
   4   1  12    3.78    0.38 
  -5  -1 -12   19.64    0.97 
   5   1  12   18.55    0.90 
  -6  -1 -12   -0.13    0.17 
   6   1  12    0.25    0.18 
  -7  -1 -12    0.12    0.21 
   7   1  12   -0.29    0.16 
  -8  -1 -12    0.59    0.27 
   8   1  12    0.67    0.25 
   3  -2 -12    0.88    0.27 
   2  -2 -12   11.51    0.70 
   1  -2 -12    0.26    0.19 
   0  -2 -12   16.96    0.88 
   0   2  12   18.05    0.87 
  -1  -2 -12   -0.08    0.15 
   1   2  12    0.24    0.15 
  -2  -2 -12    7.68    0.56 
   2   2  12    9.01    0.54 
  -3  -2 -12    1.52    0.28 
   3   2  12    1.84    0.28 
  -4  -2 -12   20.01    0.98 
   4   2  12   19.35    0.91 
  -5  -2 -12    0.22    0.20 
   5   2  12    0.01    0.15 
  -6  -2 -12    1.88    0.32 
   6   2  12    1.47    0.27 
  -7  -2 -12    0.14    0.22 
   7   2  12    0.10    0.17 
  -8  -2 -12    0.52    0.26 
   3  -3 -12    9.96    0.67 
   2  -3 -12    0.80    0.28 
   1  -3 -12    0.86    0.26 
   0  -3 -12    0.28    0.19 
  -1  -3 -12    0.14    0.18 
   1   3  12    0.20    0.17 
  -2  -3 -12    0.63    0.22 
   2   3  12    0.57    0.18 
  -3  -3 -12    9.31    0.60 
   3   3  12    9.51    0.57 
  -4  -3 -12    0.24    0.18 
   4   3  12   -0.05    0.16 
  -5  -3 -12   26.26    1.26 
   5   3  12   27.93    1.17 
  -6  -3 -12   23.86    1.16 
   6   3  12   22.73    1.03 
  -7  -3 -12   -0.07    0.20 
   7   3  12    0.40    0.18 
  -8  -3 -12    4.20    0.51 
   2  -4 -12   -0.22    0.22 
   2  -4 -12   -0.17    0.24 
   1  -4 -12    3.53    0.42 
   0  -4 -12   20.67    1.02 
  -1  -4 -12    4.33    0.45 
  -2  -4 -12    1.45    0.29 
  -3  -4 -12    3.08    0.39 
   3   4  12    3.16    0.37 
  -4  -4 -12   20.75    1.02 
   4   4  12   20.44    0.95 
  -5  -4 -12   -0.15    0.18 
   5   4  12    0.03    0.16 
  -6  -4 -12    1.25    0.29 
   6   4  12    1.02    0.23 
  -7  -4 -12    0.04    0.21 
  -8  -4 -12    5.52    0.59 
   1  -5 -12    3.00    0.39 
   0  -5 -12   -0.27    0.18 
  -1  -5 -12   13.05    0.77 
  -2  -5 -12    2.81    0.37 
  -3  -5 -12    1.02    0.27 
  -4  -5 -12    0.22    0.21 
  -5  -5 -12    0.07    0.18 
   5   5  12    0.18    0.17 
  -6  -5 -12    7.92    0.59 
   6   5  12    7.87    0.53 
  -7  -5 -12    1.16    0.30 
  -8  -5 -12    9.29    0.71 
   0  -6 -12   39.58    1.71 
  -1  -6 -12   24.79    1.19 
  -2  -6 -12    3.56    0.43 
  -3  -6 -12    3.36    0.40 
  -4  -6 -12    6.28    0.52 
  -5  -6 -12   41.55    1.81 
  -6  -6 -12    0.00    0.23 
  -7  -6 -12   -0.06    0.24 
  -2  -7 -12    6.45    0.56 
  -3  -7 -12    1.54    0.33 
  -4  -7 -12    0.81    0.29 
  -5  -7 -12    1.18    0.31 
  -6  -7 -12    0.03    0.23 
  -1  -5  13    1.70    0.31 
   0  -5  13    7.81    0.58 
   1  -5  13   14.00    0.81 
   2  -5  13    6.41    0.57 
   3  -5  13    0.66    0.28 
  -1  -4  13    1.31    0.28 
   0  -4  13    7.67    0.55 
   1  -4  13   12.57    0.74 
   2  -4  13    7.91    0.58 
   3  -4  13    2.84    0.39 
   4  -4  13    9.61    0.66 
   3   3 -13    9.61    0.67 
   2   3 -13   20.40    1.01 
  -2  -3  13   19.96    0.97 
   1   3 -13    8.81    0.59 
  -1  -3  13    9.57    0.60 
   0   3 -13    2.48    0.33 
   0  -3  13    1.81    0.31 
  -1   3 -13    0.63    0.23 
   1  -3  13    0.95    0.25 
   2  -3  13   14.38    0.80 
   3  -3  13    2.28    0.34 
   4  -3  13    2.14    0.34 
   5  -3  13    0.37    0.23 
   3   2 -13    1.55    0.34 
   2   2 -13    3.71    0.44 
  -2  -2  13    4.07    0.41 
   1   2 -13    4.48    0.44 
  -1  -2  13    5.60    0.44 
   0   2 -13    4.06    0.43 
   0  -2  13    3.93    0.42 
  -1   2 -13   12.88    0.71 
   1  -2  13   12.58    0.72 
  -2   2 -13    0.21    0.18 
   2  -2  13    0.18    0.17 
  -3   2 -13    0.39    0.20 
   3  -2  13    0.47    0.20 
  -4   2 -13    0.76    0.23 
   4  -2  13    0.16    0.19 
   5  -2  13    0.17    0.21 
   6  -2  13    4.93    0.51 
   3   1 -13   10.65    0.73 
   2   1 -13    9.39    0.63 
  -2  -1  13    8.68    0.57 
   1   1 -13   23.80    1.12 
  -1  -1  13   23.34    1.08 
   0   1 -13    0.69    0.23 
   0  -1  13    0.58    0.21 
  -1   1 -13    4.75    0.43 
   1  -1  13    5.61    0.44 
  -2   1 -13    7.10    0.51 
   2  -1  13    6.94    0.49 
  -3   1 -13   68.69    2.65 
   3  -1  13   68.37    2.57 
  -4   1 -13   -0.17    0.16 
   4  -1  13    0.18    0.17 
  -5   1 -13    0.05    0.17 
   5  -1  13    0.04    0.20 
  -6   1 -13   14.65    0.84 
   6  -1  13   16.02    0.86 
   7  -1  13    3.42    0.43 
   3   0 -13    3.70    0.48 
   2   0 -13    1.29    0.30 
  -2   0  13    1.49    0.28 
   1   0 -13    8.03    0.55 
  -1   0  13    6.75    0.50 
   0   0 -13    5.73    0.48 
   0   0  13    6.29    0.46 
  -1   0 -13    0.06    0.17 
   1   0  13    0.47    0.18 
  -2   0 -13   20.80    1.00 
   2   0  13   20.50    0.98 
  -3   0 -13   32.01    1.39 
   3   0  13   31.29    1.34 
  -4   0 -13    0.47    0.22 
   4   0  13    0.63    0.22 
  -5   0 -13   19.83    1.00 
   5   0  13   20.70    0.99 
  -6   0 -13    0.83    0.27 
   6   0  13    0.79    0.26 
  -7   0 -13    3.21    0.43 
   7   0  13    3.57    0.43 
   3  -1 -13    1.36    0.33 
   2  -1 -13   23.13    1.13 
   1  -1 -13   13.86    0.78 
  -1   1  13   12.52    0.73 
   0  -1 -13    5.68    0.48 
   0   1  13    5.34    0.44 
  -1  -1 -13    6.42    0.48 
   1   1  13    6.45    0.47 
  -2  -1 -13    9.27    0.61 
   2   1  13   10.00    0.60 
  -3  -1 -13   65.81    2.68 
   3   1  13   72.90    2.60 
  -4  -1 -13    1.27    0.29 
   4   1  13    1.43    0.28 
  -5  -1 -13    1.91    0.33 
   5   1  13    2.06    0.30 
  -6  -1 -13   23.12    1.14 
   6   1  13   22.65    1.07 
  -7  -1 -13    4.38    0.49 
   7   1  13    5.08    0.46 
   2  -2 -13   28.07    1.32 
   1  -2 -13    3.17    0.41 
   0  -2 -13    0.28    0.19 
   0   2  13    0.54    0.20 
  -1  -2 -13    1.35    0.27 
   1   2  13    1.24    0.24 
  -2  -2 -13    6.39    0.51 
   2   2  13    6.40    0.48 
  -3  -2 -13    8.27    0.56 
   3   2  13    8.43    0.55 
  -4  -2 -13   30.27    1.36 
   4   2  13   30.14    1.29 
  -5  -2 -13    1.99    0.33 
   5   2  13    2.09    0.31 
  -6  -2 -13    1.34    0.30 
   6   2  13    1.25    0.27 
  -7  -2 -13    3.57    0.45 
   7   2  13    2.78    0.37 
  -8  -2 -13    0.22    0.24 
   2  -3 -13    2.22    0.37 
   1  -3 -13   34.04    1.52 
   0  -3 -13    2.58    0.36 
  -1  -3 -13    0.24    0.19 
   1   3  13    0.36    0.18 
  -2  -3 -13   33.44    1.48 
   2   3  13   33.34    1.41 
  -3  -3 -13   12.48    0.73 
   3   3  13   11.61    0.68 
  -4  -3 -13    0.22    0.20 
   4   3  13    0.20    0.19 
  -5  -3 -13    3.23    0.42 
   5   3  13    2.80    0.35 
  -6  -3 -13    2.55    0.39 
   6   3  13    2.57    0.33 
  -7  -3 -13   10.12    0.73 
   7   3  13   10.85    0.64 
   1  -4 -13    8.79    0.64 
   0  -4 -13   11.76    0.73 
  -1  -4 -13    0.28    0.21 
  -2  -4 -13    1.02    0.26 
  -3  -4 -13    4.35    0.42 
   3   4  13    4.62    0.43 
  -4  -4 -13    9.21    0.63 
   4   4  13    9.00    0.58 
  -5  -4 -13    2.22    0.35 
   5   4  13    2.38    0.32 
  -6  -4 -13    3.13    0.41 
   6   4  13    3.28    0.38 
  -7  -4 -13    4.62    0.53 
   0  -5 -13    1.71    0.34 
  -1  -5 -13   -0.11    0.22 
  -2  -5 -13   11.50    0.72 
  -3  -5 -13   16.08    0.90 
  -4  -5 -13    4.73    0.50 
  -5  -5 -13   11.34    0.75 
   5   5  13   13.43    0.73 
  -6  -5 -13   -0.06    0.19 
   6   5  13   -0.13    0.17 
  -7  -5 -13    7.86    0.65 
  -1  -6 -13    3.67    0.47 
  -2  -6 -13   17.82    0.97 
  -3  -6 -13    1.18    0.31 
  -4  -6 -13   -0.18    0.20 
  -5  -6 -13   13.07    0.83 
  -6  -6 -13    7.71    0.62 
   0  -4  14    7.14    0.55 
   1  -4  14    8.49    0.62 
   2  -4  14    2.80    0.41 
   3  -4  14   -0.30    0.18 
   1   3 -14    5.63    0.49 
  -1  -3  14    5.00    0.47 
   0   3 -14    6.51    0.51 
   0  -3  14    5.70    0.50 
   1  -3  14    0.15    0.21 
   2  -3  14    2.57    0.37 
   3  -3  14    2.67    0.39 
   4  -3  14    0.10    0.20 
   2   2 -14    0.96    0.30 
  -2  -2  14    0.77    0.25 
   1   2 -14    1.58    0.32 
  -1  -2  14    1.53    0.29 
   0   2 -14    9.99    0.64 
   0  -2  14   10.00    0.63 
  -1   2 -14   31.08    1.38 
  -2   2 -14   -0.11    0.17 
   2  -2  14   -0.02    0.17 
  -3   2 -14    2.98    0.37 
   3  -2  14    3.00    0.38 
   4  -2  14   10.48    0.69 
   5  -2  14    0.76    0.27 
   2   1 -14    0.32    0.25 
  -2  -1  14    0.45    0.22 
   1   1 -14    1.71    0.32 
  -1  -1  14    1.39    0.28 
   0   1 -14    2.09    0.34 
   0  -1  14    1.41    0.28 
  -1   1 -14    0.11    0.19 
   1  -1  14    0.06    0.18 
  -2   1 -14    0.04    0.18 
   2  -1  14    0.07    0.16 
  -3   1 -14    0.32    0.20 
   3  -1  14    0.54    0.20 
  -4   1 -14    0.15    0.20 
   4  -1  14    0.30    0.20 
  -5   1 -14    3.08    0.38 
   5  -1  14    2.74    0.40 
  -6   1 -14    1.18    0.29 
   6  -1  14    1.64    0.34 
   2   0 -14    4.67    0.52 
   1   0 -14   -0.04    0.19 
  -1   0  14    0.16    0.18 
   0   0 -14   15.17    0.83 
   0   0  14   14.52    0.81 
  -1   0 -14   20.57    1.04 
   1   0  14   21.95    1.03 
  -2   0 -14    3.86    0.43 
   2   0  14    3.98    0.43 
  -3   0 -14    6.01    0.50 
   3   0  14    6.50    0.51 
  -4   0 -14   -0.22    0.17 
   4   0  14    0.14    0.19 
  -5   0 -14   31.22    1.42 
   5   0  14   31.21    1.38 
  -6   0 -14    0.69    0.26 
   6   0  14    0.98    0.28 
   2  -1 -14   -0.07    0.23 
   1  -1 -14    0.58    0.24 
  -1   1  14    1.03    0.27 
   0  -1 -14    4.27    0.47 
   0   1  14    5.01    0.44 
  -1  -1 -14    0.11    0.19 
   1   1  14   -0.01    0.17 
  -2  -1 -14    0.13    0.21 
   2   1  14    0.06    0.16 
  -3  -1 -14    7.44    0.57 
   3   1  14    8.20    0.56 
  -4  -1 -14    5.70    0.51 
   4   1  14    6.24    0.50 
  -5  -1 -14    2.92    0.40 
   5   1  14    3.69    0.43 
  -6  -1 -14    0.32    0.23 
   6   1  14   -0.10    0.20 
  -7  -1 -14    0.47    0.27 
   7   1  14    0.06    0.22 
   1  -2 -14    0.47    0.23 
   0  -2 -14    5.21    0.48 
   0   2  14    5.03    0.46 
  -1  -2 -14    1.07    0.27 
   1   2  14    0.71    0.22 
  -2  -2 -14   10.45    0.69 
   2   2  14   10.88    0.65 
  -3  -2 -14    0.28    0.21 
   3   2  14    0.31    0.18 
  -4  -2 -14    0.56    0.24 
   4   2  14    0.57    0.22 
  -5  -2 -14   22.34    1.14 
   5   2  14   24.00    1.10 
  -6  -2 -14    4.33    0.50 
   6   2  14    4.24    0.45 
  -7  -2 -14    1.40    0.35 
   7   2  14    1.35    0.30 
   1  -3 -14    0.06    0.20 
   0  -3 -14    1.01    0.27 
  -1  -3 -14    0.34    0.22 
  -2  -3 -14    0.31    0.22 
   2   3  14    0.37    0.19 
  -3  -3 -14    0.60    0.23 
   3   3  14   -0.08    0.18 
  -4  -3 -14    8.29    0.61 
   4   3  14    9.30    0.61 
  -5  -3 -14    3.79    0.47 
   5   3  14    4.58    0.46 
  -6  -3 -14    0.98    0.28 
   6   3  14    0.52    0.23 
  -7  -3 -14    0.06    0.25 
   7   3  14    0.25    0.21 
   0  -4 -14    1.09    0.32 
  -1  -4 -14   20.05    1.06 
  -2  -4 -14   10.96    0.70 
  -3  -4 -14    4.98    0.46 
   3   4  14    5.29    0.48 
  -4  -4 -14    1.32    0.30 
   4   4  14    0.92    0.27 
  -5  -4 -14   25.50    1.28 
   5   4  14   26.35    1.18 
  -6  -4 -14    9.05    0.66 
   6   4  14    9.68    0.63 
  -1  -5 -14    0.86    0.31 
  -2  -5 -14    0.95    0.29 
  -3  -5 -14    4.36    0.50 
  -4  -5 -14    1.48    0.32 
  -5  -5 -14    0.25    0.24 
   5   5  14    0.26    0.22 
  -6  -5 -14    0.11    0.22 
   6   5  14    0.07    0.21 
  -4  -6 -14    0.74    0.30 
   1  -3  15    5.23    0.54 
   2  -3  15    3.06    0.42 
   0   2 -15    1.11    0.30 
   0  -2  15    0.90    0.27 
  -1   2 -15    0.17    0.22 
   1  -2  15    0.07    0.20 
  -2   2 -15   11.13    0.71 
   2  -2  15   13.19    0.77 
   3  -2  15    4.78    0.51 
   4  -2  15    0.35    0.22 
   1   1 -15    7.48    0.61 
   0   1 -15   17.09    0.97 
   0  -1  15   19.85    0.98 
  -1   1 -15    1.29    0.30 
   1  -1  15    0.92    0.27 
  -2   1 -15   -0.15    0.17 
   2  -1  15    0.16    0.21 
  -3   1 -15   22.18    1.10 
   3  -1  15   22.82    1.10 
  -4   1 -15    0.39    0.23 
   4  -1  15    0.41    0.23 
  -5   1 -15    7.74    0.58 
   5  -1  15    8.19    0.61 
   1   0 -15    6.41    0.56 
  -1   0  15    7.25    0.56 
   0   0 -15    7.89    0.61 
   0   0  15    8.39    0.59 
  -1   0 -15    0.25    0.23 
   1   0  15    0.43    0.21 
  -2   0 -15   11.03    0.70 
   2   0  15   11.04    0.70 
  -3   0 -15   31.71    1.49 
   3   0  15   35.75    1.49 
  -4   0 -15   -0.03    0.18 
   4   0  15    0.02    0.20 
  -5   0 -15    1.83    0.33 
   5   0  15    1.76    0.34 
   0  -1 -15   17.61    0.97 
   0   1  15   17.35    0.93 
  -1  -1 -15    1.89    0.35 
   1   1  15    1.82    0.31 
  -2  -1 -15    0.97    0.29 
   2   1  15    1.23    0.28 
  -3  -1 -15    7.57    0.59 
   3   1  15    8.07    0.57 
  -4  -1 -15   30.58    1.45 
   4   1  15   32.10    1.40 
  -5  -1 -15    0.96    0.27 
   5   1  15    1.04    0.29 
  -6  -1 -15    1.80    0.36 
   6   1  15    1.19    0.32 
   0  -2 -15    1.58    0.35 
  -1  -2 -15    0.38    0.24 
   1   2  15    0.45    0.22 
  -2  -2 -15    1.60    0.33 
   2   2  15    0.93    0.25 
  -3  -2 -15   21.17    1.07 
   3   2  15   19.06    0.99 
  -4  -2 -15    0.68    0.26 
   4   2  15    0.62    0.26 
  -5  -2 -15    2.00    0.36 
   5   2  15    2.30    0.36 
  -6  -2 -15    0.52    0.28 
   6   2  15    0.87    0.28 
  -1  -3 -15    3.42    0.44 
  -2  -3 -15    0.51    0.24 
   2   3  15    0.13    0.18 
  -3  -3 -15    0.51    0.24 
   3   3  15    0.39    0.23 
  -4  -3 -15   52.32    2.27 
   4   3  15   57.19    2.18 
  -5  -3 -15    1.67    0.37 
   5   3  15    1.05    0.28 
  -6  -3 -15    1.55    0.35 
   6   3  15    1.45    0.31 
  -2  -4 -15    0.04    0.20 
  -3  -4 -15    3.59    0.47 
   3   4  15    4.49    0.48 
  -4  -4 -15    1.15    0.30 
   4   4  15    0.99    0.28 
  -5  -4 -15    0.49    0.26 
   5   4  15    0.39    0.23 
  -2   1 -16    5.40    0.50 
  -3   1 -16    0.39    0.24 
  -1   0 -16   -0.16    0.23 
  -2   0 -16    3.58    0.46 
   2   0  16    4.97    0.52 
  -3   0 -16    0.20    0.22 
   3   0  16   -0.06    0.18 
  -4   0 -16   -0.09    0.19 
  -2  -1 -16   13.01    0.82 
   2   1  16   12.80    0.79 
  -3  -1 -16    0.58    0.27 
   3   1  16    0.64    0.26 
  -4  -1 -16    4.38    0.52 
   4   1  16    5.18    0.48 
  -2  -2 -16    4.85    0.54 
   2   2  16    4.74    0.50 
  -3  -2 -16   -0.11    0.24 
   3   2  16   -0.17    0.16 
  -4  -2 -16    3.86    0.52 
   4   2  16    5.11    0.53 
   0   0   0    0.00    0.00 
;
_shelx_hkl_checksum              62404
loop_
_space_group_symop_operation_xyz
'x, y, z'
'-x, -y, -z'
loop_
_atom_site_label
_atom_site_type_symbol
_atom_site_fract_x
_atom_site_fract_y
_atom_site_fract_z
_atom_site_U_iso_or_equiv
_atom_site_adp_type
_atom_site_occupancy
_atom_site_site_symmetry_order
_atom_site_calc_flag
_atom_site_refinement_flags_posn
_atom_site_refinement_flags_adp
S1 S 0.99096(9) 0.75594(8) 0.32470(5) 0.0198(2) Uani 1 1 d . .
S2 S 1.24664(9) 0.21684(8) 0.08977(5) 0.0215(2) Uani 1 1 d . .
N1 N 1.1239(3) 0.3816(3) 0.17841(19) 0.0238(5) Uani 1 1 d . .
O1 O 1.4038(3) 0.1170(3) 0.12691(17) 0.0282(5) Uani 1 1 d . .
O2 O 1.1229(3) 0.1255(3) 0.07071(18) 0.0317(5) Uani 1 1 d . .
O3 O 1.0862(3) 0.6194(3) 0.38588(16) 0.0270(5) Uani 1 1 d . .
O4 O 1.0203(3) 0.9252(3) 0.32544(17) 0.0285(5) Uani 1 1 d . .
C1 C 1.1281(4) 0.5442(3) 0.1346(2) 0.0192(5) Uani 1 1 d . .
C2 C 1.2366(4) 0.5262(3) 0.0158(2) 0.0194(5) Uani 1 1 d . .
C3 C 1.2782(4) 0.6566(3) -0.0588(2) 0.0224(6) Uani 1 1 d . .
H3 H 1.2309 0.7748 -0.0370 0.027 Uiso 1 1 calc R U
C4 C 1.3905(4) 0.6101(4) -0.1659(2) 0.0247(6) Uani 1 1 d . .
H4 H 1.4174 0.6984 -0.2180 0.030 Uiso 1 1 calc R U
C5 C 1.4645(4) 0.4374(4) -0.1987(2) 0.0267(6) Uani 1 1 d . .
H5 H 1.5413 0.4093 -0.2724 0.032 Uiso 1 1 calc R U
C6 C 1.4267(4) 0.3058(4) -0.1242(2) 0.0251(6) Uani 1 1 d . .
H6 H 1.4777 0.1872 -0.1448 0.030 Uiso 1 1 calc R U
C7 C 1.3117(4) 0.3553(3) -0.0192(2) 0.0210(5) Uani 1 1 d . .
C8 C 1.0020(4) 0.3402(4) 0.2833(2) 0.0292(6) Uani 1 1 d . .
H8A H 1.0615 0.3384 0.3430 0.044 Uiso 1 1 calc R U
H8B H 0.9817 0.2262 0.2778 0.044 Uiso 1 1 calc R U
H8C H 0.8807 0.4281 0.2997 0.044 Uiso 1 1 calc R U
C9 C 1.0577(4) 0.7000(3) 0.1846(2) 0.0216(5) Uani 1 1 d . .
H9 H 1.0415 0.7956 0.1353 0.026 Uiso 1 1 calc R U
C10 C 0.7464(4) 0.7800(3) 0.3776(2) 0.0190(5) Uani 1 1 d . .
C11 C 0.6802(4) 0.6810(4) 0.4678(2) 0.0233(6) Uani 1 1 d . .
H11 H 0.7651 0.5953 0.4984 0.028 Uiso 1 1 calc R U
C12 C 0.4870(4) 0.7101(4) 0.5122(2) 0.0285(6) Uani 1 1 d . .
H12 H 0.4389 0.6447 0.5746 0.034 Uiso 1 1 calc R U
C13 C 0.3632(4) 0.8341(4) 0.4661(2) 0.0292(6) Uani 1 1 d . .
H13 H 0.2312 0.8521 0.4968 0.035 Uiso 1 1 calc R U
C14 C 0.4311(4) 0.9312(4) 0.3759(2) 0.0289(6) Uani 1 1 d . .
H14 H 0.3459 1.0156 0.3445 0.035 Uiso 1 1 calc R U
C15 C 0.6239(4) 0.9055(4) 0.3310(2) 0.0241(6) Uani 1 1 d . .
H15 H 0.6716 0.9725 0.2695 0.029 Uiso 1 1 calc R U
loop_
_atom_site_aniso_label
_atom_site_aniso_U_11
_atom_site_aniso_U_22
_atom_site_aniso_U_33
_atom_site_aniso_U_23
_atom_site_aniso_U_13
_atom_site_aniso_U_12
S1 0.0218(4) 0.0162(4) 0.0207(3) 0.0000(2) -0.0059(3) -0.0043(3)
S2 0.0263(4) 0.0133(4) 0.0244(4) -0.0009(2) -0.0078(3) -0.0030(3)
N1 0.0281(12) 0.0144(11) 0.0244(11) -0.0015(9) -0.0020(9) -0.0029(9)
O1 0.0335(11) 0.0179(10) 0.0307(10) 0.0010(8) -0.0124(9) 0.0006(8)
O2 0.0352(12) 0.0224(11) 0.0411(12) -0.0017(9) -0.0119(10) -0.0116(9)
O3 0.0259(10) 0.0264(11) 0.0285(10) 0.0036(8) -0.0118(8) -0.0030(8)
O4 0.0341(11) 0.0229(11) 0.0306(10) -0.0034(8) -0.0070(9) -0.0119(9)
C1 0.0180(12) 0.0173(13) 0.0205(12) 0.0009(9) -0.0052(9) -0.0021(10)
C2 0.0188(12) 0.0188(13) 0.0199(12) -0.0021(9) -0.0061(10) -0.0023(10)
C3 0.0253(13) 0.0148(13) 0.0270(13) 0.0006(10) -0.0091(11) -0.0033(10)
C4 0.0298(14) 0.0238(14) 0.0206(12) 0.0021(10) -0.0078(11) -0.0067(11)
C5 0.0288(14) 0.0293(16) 0.0202(12) -0.0029(11) -0.0071(11) -0.0038(12)
C6 0.0275(14) 0.0225(14) 0.0238(13) -0.0053(10) -0.0091(11) -0.0004(11)
C7 0.0208(12) 0.0171(13) 0.0243(12) -0.0006(10) -0.0090(10) -0.0009(10)
C8 0.0361(16) 0.0173(13) 0.0317(14) 0.0025(11) -0.0011(12) -0.0122(12)
C9 0.0247(13) 0.0155(12) 0.0229(12) 0.0033(10) -0.0070(10) -0.0030(10)
C10 0.0228(12) 0.0158(12) 0.0184(11) -0.0029(9) -0.0051(9) -0.0047(10)
C11 0.0293(14) 0.0193(13) 0.0207(12) 0.0009(10) -0.0069(10) -0.0057(11)
C12 0.0308(15) 0.0307(16) 0.0221(13) -0.0057(11) -0.0002(11) -0.0107(13)
C13 0.0244(14) 0.0344(17) 0.0283(14) -0.0141(12) -0.0032(11) -0.0072(12)
C14 0.0271(15) 0.0281(15) 0.0298(14) -0.0080(12) -0.0113(12) 0.0012(12)
C15 0.0268(14) 0.0208(14) 0.0231(12) -0.0009(10) -0.0085(10) -0.0017(11)
loop_
_atom_type_symbol
_atom_type_description
_atom_type_scat_dispersion_real
_atom_type_scat_dispersion_imag
_atom_type_scat_source
C C 0.0033 0.0016 'International Tables Vol C Tables 4.2.6.8 and 6.1.1.4'
H H 0.0000 0.0000 'International Tables Vol C Tables 4.2.6.8 and 6.1.1.4'
N N 0.0061 0.0033 'International Tables Vol C Tables 4.2.6.8 and 6.1.1.4'
O O 0.0106 0.0060 'International Tables Vol C Tables 4.2.6.8 and 6.1.1.4'
S S 0.1246 0.1234 'International Tables Vol C Tables 4.2.6.8 and 6.1.1.4'
loop_
_geom_angle_atom_site_label_1
_geom_angle_atom_site_label_2
_geom_angle_atom_site_label_3
_geom_angle
O4 S1 O3 118.20(12)
O4 S1 C9 104.97(12)
O3 S1 C9 109.99(13)
O4 S1 C10 106.82(12)
O3 S1 C10 108.14(12)
C9 S1 C10 108.32(12)
O2 S2 O1 116.96(13)
O2 S2 N1 110.02(13)
O1 S2 N1 109.36(12)
O2 S2 C7 112.71(13)
O1 S2 C7 112.23(13)
N1 S2 C7 92.90(12)
C1 N1 C8 127.3(2)
C1 N1 S2 114.79(18)
C8 N1 S2 117.01(19)
C9 C1 N1 129.8(2)
C9 C1 C2 121.2(2)
N1 C1 C2 108.9(2)
C7 C2 C3 118.7(2)
C7 C2 C1 113.3(2)
C3 C2 C1 127.9(2)
C4 C3 C2 118.5(2)
C3 C4 C5 121.6(3)
C6 C5 C4 120.3(3)
C7 C6 C5 117.0(3)
C6 C7 C2 123.9(3)
C6 C7 S2 126.1(2)
C2 C7 S2 110.04(19)
C1 C9 S1 130.8(2)
C11 C10 C15 121.5(3)
C11 C10 S1 119.6(2)
C15 C10 S1 118.8(2)
C10 C11 C12 118.5(3)
C11 C12 C13 120.5(3)
C14 C13 C12 120.4(3)
C13 C14 C15 120.0(3)
C14 C15 C10 119.1(3)
loop_
_geom_bond_atom_site_label_1
_geom_bond_atom_site_label_2
_geom_bond_distance
S1 O4 1.439(2)
S1 O3 1.440(2)
S1 C9 1.744(3)
S1 C10 1.766(3)
S2 O2 1.429(2)
S2 O1 1.431(2)
S2 N1 1.681(2)
S2 C7 1.741(3)
N1 C1 1.381(3)
N1 C8 1.456(4)
C1 C9 1.345(4)
C1 C2 1.483(3)
C2 C7 1.387(4)
C2 C3 1.390(4)
C3 C4 1.390(4)
C4 C5 1.393(4)
C5 C6 1.390(4)
C6 C7 1.380(4)
C10 C11 1.388(4)
C10 C15 1.393(4)
C11 C12 1.388(4)
C12 C13 1.390(4)
C13 C14 1.382(5)
C14 C15 1.388(4)
loop_
_geom_torsion_atom_site_label_1
_geom_torsion_atom_site_label_2
_geom_torsion_atom_site_label_3
_geom_torsion_atom_site_label_4
_geom_torsion
O2 S2 N1 C1 -117.2(2)
O1 S2 N1 C1 113.1(2)
C7 S2 N1 C1 -1.7(2)
O2 S2 N1 C8 52.7(2)
O1 S2 N1 C8 -77.0(2)
C7 S2 N1 C8 168.2(2)
C8 N1 C1 C9 16.8(5)
S2 N1 C1 C9 -174.6(2)
C8 N1 C1 C2 -165.9(3)
S2 N1 C1 C2 2.8(3)
C9 C1 C2 C7 174.9(2)
N1 C1 C2 C7 -2.8(3)
C9 C1 C2 C3 -1.0(4)
N1 C1 C2 C3 -178.7(3)
C7 C2 C3 C4 1.2(4)
C1 C2 C3 C4 176.9(3)
C2 C3 C4 C5 -1.4(4)
C3 C4 C5 C6 0.2(4)
C4 C5 C6 C7 1.1(4)
C5 C6 C7 C2 -1.3(4)
C5 C6 C7 S2 -178.7(2)
C3 C2 C7 C6 0.2(4)
C1 C2 C7 C6 -176.2(2)
C3 C2 C7 S2 177.92(19)
C1 C2 C7 S2 1.6(3)
O2 S2 C7 C6 -69.2(3)
O1 S2 C7 C6 65.4(3)
N1 S2 C7 C6 177.7(2)
O2 S2 C7 C2 113.1(2)
O1 S2 C7 C2 -112.3(2)
N1 S2 C7 C2 0.0(2)
N1 C1 C9 S1 19.0(5)
C2 C1 C9 S1 -158.1(2)
O4 S1 C9 C1 151.1(3)
O3 S1 C9 C1 23.0(3)
C10 S1 C9 C1 -95.0(3)
O4 S1 C10 C11 -124.7(2)
O3 S1 C10 C11 3.5(3)
C9 S1 C10 C11 122.7(2)
O4 S1 C10 C15 51.8(2)
O3 S1 C10 C15 -180.0(2)
C9 S1 C10 C15 -60.8(2)
C15 C10 C11 C12 -0.5(4)
S1 C10 C11 C12 176.0(2)
C10 C11 C12 C13 0.9(4)
C11 C12 C13 C14 -0.6(4)
C12 C13 C14 C15 -0.2(4)
C13 C14 C15 C10 0.6(4)
C11 C10 C15 C14 -0.3(4)
S1 C10 C15 C14 -176.7(2)
