#------------------------------------------------------------------------------
#$Date: 2019-11-23 22:35:10 +0200 (Sat, 23 Nov 2019) $
#$Revision: 235373 $
#$URL: file:///home/coder/svn-repositories/cod/cif/1/55/36/1553649.cif $
#------------------------------------------------------------------------------
#
# This file is available in the Crystallography Open Database (COD),
# http://www.crystallography.net/
#
# All data on this site have been placed in the public domain by the
# contributors.
#
data_1553649
loop_
_publ_author_name
'Elsaidi, Sameh K.'
'Mohamed, Mona H.'
'Simon, Cory M.'
'Braun, Efrem'
'Pham, Tony'
'Forrest, Katherine A.'
'Xu, Wenqian'
'Banerjee, Debasis'
'Space, Brian'
'Zaworotko, Michael J.'
'Thallapally, Praveen K.'
_publ_section_title
;
 Effect of ring rotation upon gas adsorption in SIFSIX-3-M (M = Fe, Ni)
 pillared square grid networks.
;
_journal_issue                   3
_journal_name_full               'Chemical science'
_journal_page_first              2373
_journal_page_last               2380
_journal_paper_doi               10.1039/c6sc05012c
_journal_volume                  8
_journal_year                    2017
_chemical_formula_sum            'C8 H8 F6 N4 Ni Si'
_chemical_formula_weight         360.95
_chemical_name_common            SIFSIX-3-Ni
_chemical_name_systematic        SIFSIX-3-Ni
_space_group_IT_number           123
_space_group_name_Hall           '-P 4 2'
_space_group_name_H-M_alt        'P 4/m m m'
_symmetry_cell_setting           tetragonal
_symmetry_space_group_name_H-M   'P 4/m m m'
_audit_creation_date             2016-04-09T10:52
_audit_creation_method           'from EXP file using GSAS2CIF'
_audit_update_record
;
2016-11-14 deposited with the CCDC.
2016-12-19 downloaded from the CCDC.
;
_cell_angle_alpha                90.0
_cell_angle_beta                 90.0
_cell_angle_gamma                90.0
_cell_formula_units_Z            1
_cell_length_a                   7.00122(19)
_cell_length_b                   7.00122
_cell_length_c                   7.49794(21)
_cell_measurement_temperature    298
_cell_volume                     367.527(14)
_computing_structure_refinement  GSAS
_diffrn_ambient_temperature      298
_diffrn_detector                 'Amorphous Si area detector'
_diffrn_detector_type            PerkinElmer
_diffrn_measurement_device_type  17-BM
_diffrn_radiation_polarisn_ratio 0.99
_diffrn_radiation_probe          x-ray
_diffrn_radiation_type           synchrotron
_diffrn_radiation_wavelength     0.72768
_exptl_absorpt_correction_T_max  1.00000
_exptl_absorpt_correction_T_min  1.00000
_exptl_absorpt_process_details
;   GSAS Absorption/surface roughness correction: function number 0
 No correction is applied.
;
_pd_block_id
2016-04-09T10:52|PNNL_NI_D250_VAC7_NO|Wenqian_Xu|17-BM
_pd_calc_method                  'Rietveld Refinement'
_pd_instr_location               ' ?'
_pd_meas_number_of_points        4500
_pd_phase_name
'from C:/GSAS/MyWork/2015-1/PNNL/NiSiF6/CoSIFSIX-3.cif'
_pd_proc_info_datetime           2016-04-09T10:52:27
_pd_proc_info_excluded_regions   ' ?'
_pd_proc_ls_background_function
;   GSAS Background function number 1 with 24 terms.
 Shifted Chebyshev function of 1st kind
      1:    4655.65     2:   -3084.90     3:    298.846     4:    479.952    
      5:   -1328.65     6:    1100.13     7:   -109.432     8:   -375.766    
      9:    711.049    10:   -545.343    11:    100.988    12:    144.452    
     13:   -265.575    14:    249.775    15:   -80.5693    16:   -31.1787    
     17:    132.575    18:   -103.474    19:   -44.3422    20:    114.556    
     21:   -106.848    22:    93.1713    23:   -81.4107    24:    13.6382    
;
_pd_proc_ls_peak_cutoff          0.00100
_pd_proc_ls_profile_function
;
 CW Profile function number 3 with  19 terms
 Pseudovoigt profile coefficients as parameterized in
 P. Thompson, D.E. Cox & J.B. Hastings (1987). J. Appl. Cryst.,20,79-83.
 Asymmetry correction of L.W. Finger, D.E. Cox & A. P. Jephcoat (1994).
 J. Appl. Cryst.,27,892-900.
 #1(GU)   =  163.321 #2(GV)   =    0.000 #3(GW)   =    9.195
 #4(GP)   =    0.000 #5(LX)   =    0.000 #6(LY)   =   51.842
 #7(S/L)  =   0.0005 #8(H/L)  =   0.0005
 #9(trns) =     0.00 #10(shft)=   0.0000
 #11(stec)=     0.00 #12(ptec)=     0.00 #13(sfec)=     0.00
 #14(L11) =    0.000 #15(L22) =    0.000 #16(L33) =    0.000
 #17(L12) =    0.000 #18(L13) =    0.000 #19(L23) =    0.000
 Peak tails are ignored  where the intensity is below 0.0010 times the peak
   Aniso. broadening axis   0.0   0.0   1.0
;
_pd_proc_ls_prof_R_factor        0.0314
_pd_proc_ls_prof_wR_expected     0.0113
_pd_proc_ls_prof_wR_factor       0.0461
_pd_proc_number_of_points        4500
_pd_spec_mounting                ' ?'
_refine_ls_goodness_of_fit_all   4.12
_refine_ls_matrix_type           full
_refine_ls_number_parameters     44
_refine_ls_number_restraints     8
_refine_ls_R_Fsqd_factor         0.03824
_refine_ls_shift/su_max          0.01
_refine_ls_shift/su_mean         0.00
_reflns_d_resolution_high        1.017
_reflns_d_resolution_low         7.498
_reflns_limit_h_max              7
_reflns_limit_h_min              0
_reflns_limit_k_max              5
_reflns_limit_k_min              0
_reflns_limit_l_max              8
_reflns_limit_l_min              0
_reflns_number_total             138
_cod_data_source_file            c6sc05012c2.cif
_cod_data_source_block           PNNL_NI_D250_VAC7_NO_publ
_cod_depositor_comments
;
The following automatic conversions were performed:

data item '_geom_angle_publ_flag' value 'N' was changed to 'n' in
accordance with the
/home/saulius/struct/COD-crude-data/automatic-downloads/DataCite-retrospective/RSC/depositions/lib/dictionaries/cif_core.dic
dictionary named 'cif_core.dic' version 2.4.2 last updated on
2011-04-26 (59 times).

data item '_geom_bond_publ_flag' value 'N' was changed to 'n' in
accordance with the
/home/saulius/struct/COD-crude-data/automatic-downloads/DataCite-retrospective/RSC/depositions/lib/dictionaries/cif_core.dic
dictionary named 'cif_core.dic' version 2.4.2 last updated on
2011-04-26 (43 times).

Automatic conversion script
Id: cif_fix_values 6909 2019-04-08 15:41:33Z antanas 
;
_cod_original_cell_volume        367.528(25)
_cod_original_sg_symbol_H-M      'P 4/mmm'
_cod_original_formula_sum        'C8.00 H8.00 F6 N4 Ni Si'
_cod_database_code               1553649
_gsas_exptl_extinct_corr_t_min   1.00000
_gsas_exptl_extinct_corr_t_max   1.00000
loop_
_symmetry_equiv_pos_site_id
_symmetry_equiv_pos_as_xyz
1 +x,+y,+z
2 -y,+x,+z
3 -x,-y,+z
4 +y,-x,+z
5 -x,+y,+z
6 -y,-x,+z
7 +x,-y,+z
8 +y,+x,+z
-1 -x,-y,-z
-2 +y,-x,-z
-3 +x,+y,-z
-4 -y,+x,-z
-5 +x,-y,-z
-6 +y,+x,-z
-7 -x,+y,-z
-8 -y,-x,-z
loop_
_atom_site_type_symbol
_atom_site_label
_atom_site_fract_x
_atom_site_fract_y
_atom_site_fract_z
_atom_site_occupancy
_atom_site_thermal_displace_type
_atom_site_U_iso_or_equiv
Ni Ni1 0.5 0.5 0.5 1.0 Uiso 0.0130(9)
Si Si2 0.5 0.5 1.0 1.0 Uiso 0.0368(19)
F F3 0.5 0.5 0.7651(7) 1.0 Uiso 0.0231(14)
F F4 0.66555(32) 0.66555(32) 1.0 1.0 Uiso 0.0518(15)
N N5 0.8039(5) 0.5 0.5 1.0 Uiso 0.0162(19)
C C6 0.90041(9) 0.4482(7) 0.64649(27) 0.5 Uiso 0.0339(24)
H H6 0.8145(11) 0.4066(12) 0.7642(5) 0.5 Uiso 0.0406(29)
loop_
_atom_type_symbol
_atom_type_number_in_cell
_atom_type_scat_dispersion_real
_atom_type_scat_dispersion_imag
_atom_type_scat_Cromer_Mann_a1
_atom_type_scat_Cromer_Mann_a2
_atom_type_scat_Cromer_Mann_a3
_atom_type_scat_Cromer_Mann_a4
_atom_type_scat_Cromer_Mann_b1
_atom_type_scat_Cromer_Mann_b2
_atom_type_scat_Cromer_Mann_b3
_atom_type_scat_Cromer_Mann_b4
_atom_type_scat_Cromer_Mann_c
_atom_type_scat_source
Ni 1.0 0.000 0.000 12.8376 3.87850 7.29200 0.25650 4.44380 12.1763 2.38000
66.3421 1.03410 International_Tables_Vol_C
Si 1.0 0.000 0.000 6.29150 2.43860 3.03530 32.3337 1.98910 0.67850 1.54100
81.6937 1.14070 International_Tables_Vol_C
F 6.0 0.000 0.000 3.53920 10.2825 2.64120 4.29440 1.51700 0.26150 1.02430
26.1476 0.27760 International_Tables_Vol_C
N 4.0 0.000 0.000 12.2126 0.00570 3.13220 9.89330 2.01250 28.9975 1.16630
0.58260 -11.529 International_Tables_Vol_C
C 8.0 0.000 0.000 2.31000 20.8439 1.02000 10.2075 1.58860 0.56870 0.86500
51.6512 0.21560 International_Tables_Vol_C
H 8.0 0.000 0.000 0.49300 10.5109 0.32291 26.1257 0.14019 3.14236 0.04081
57.7997 0.00304 International_Tables_Vol_C
loop_
_geom_angle_atom_site_label_1
_geom_angle_atom_site_label_2
_geom_angle_atom_site_label_3
_geom_angle
_geom_angle_site_symmetry_1
_geom_angle_site_symmetry_3
_geom_angle_publ_flag
F3 Ni1 F3 180.0 1_555 -1_666 n
F3 Ni1 N5 90.0 1_555 1_555 n
F3 Ni1 N5 90.0 1_555 2_655 n
F3 Ni1 N5 90.0 1_555 3_665 n
F3 Ni1 N5 90.0 1_555 4_565 n
F3 Ni1 N5 90.0 -1_666 1_555 n
F3 Ni1 N5 90.0 -1_666 2_655 n
F3 Ni1 N5 90.0 -1_666 3_665 n
F3 Ni1 N5 90.0 -1_666 4_565 n
N5 Ni1 N5 90.0 1_555 2_655 n
N5 Ni1 N5 180.0 1_555 3_665 n
N5 Ni1 N5 90.0 1_555 4_565 n
N5 Ni1 N5 90.0 2_655 3_665 n
N5 Ni1 N5 180.0 2_655 4_565 n
N5 Ni1 N5 90.0 3_665 4_565 n
F3 Si2 F3 179.9406 1_555 -1_667 n
F3 Si2 F4 90.0 1_555 1_555 n
F3 Si2 F4 90.0 1_555 2_655 n
F3 Si2 F4 90.0 1_555 3_665 n
F3 Si2 F4 90.0 1_555 4_565 n
F3 Si2 F4 90.0 -1_667 1_555 n
F3 Si2 F4 90.0 -1_667 2_655 n
F3 Si2 F4 90.0 -1_667 3_665 n
F3 Si2 F4 90.0 -1_667 4_565 n
F4 Si2 F4 90.0 1_555 2_655 n
F4 Si2 F4 180.0 1_555 3_665 n
F4 Si2 F4 90.0 1_555 4_565 n
F4 Si2 F4 90.0 2_655 3_665 n
F4 Si2 F4 179.9802 2_655 4_565 n
F4 Si2 F4 90.0 3_665 4_565 n
Ni1 F3 Si2 180.0 1_555 1_555 n
Ni1 N5 C6 120.30(17) 1_555 1_555 n
Ni1 N5 C6 120.30(17) 1_555 7_565 n
Ni1 N5 C6 120.30(17) 1_555 -3_556 n
Ni1 N5 C6 120.30(17) 1_555 -5_566 n
C6 N5 C6 31.4(4) 1_555 7_565 n
C6 N5 C6 110.14(30) 1_555 -3_556 n
C6 N5 C6 119.41(33) 1_555 -5_566 n
C6 N5 C6 119.41(33) 7_565 -3_556 n
C6 N5 C6 110.14(30) 7_565 -5_566 n
C6 N5 C6 31.4(4) -3_556 -5_566 n
N5 C6 C6 108.82(32) 1_555 3_765 n
N5 C6 C6 120.30(17) 1_555 5_755 n
N5 C6 C6 74.29(20) 1_555 7_565 n
N5 C6 H6 116.79(33) 1_555 1_555 n
N5 C6 H6 95.6(4) 1_555 7_565 n
C6 C6 C6 27.49(30) 3_765 5_755 n
C6 C6 C6 62.51(30) 3_765 7_565 n
C6 C6 H6 127.13(28) 3_765 1_555 n
C6 C6 H6 92.5(5) 3_765 7_565 n
C6 C6 C6 90.0 5_755 7_565 n
C6 C6 H6 122.92(32) 5_755 1_555 n
C6 C6 H6 114.08(29) 5_755 7_565 n
C6 C6 H6 105.26(20) 7_565 1_555 n
C6 C6 H6 46.4(4) 7_565 7_565 n
H6 C6 H6 58.9(6) 1_555 7_565 n
C6 H6 C6 28.33(19) 1_555 7_565 n
C6 H6 H6 74.74(20) 1_555 7_565 n
C6 H6 H6 46.4(4) 7_565 7_565 n
loop_
_geom_bond_atom_site_label_1
_geom_bond_atom_site_label_2
_geom_bond_distance
_geom_bond_site_symmetry_2
_geom_bond_publ_flag
Ni1 F3 1.988(5) 1_555 n
Ni1 F3 1.988(5) -1_666 n
Ni1 N5 2.1275(33) 1_555 n
Ni1 N5 2.1275(33) 2_655 n
Ni1 N5 2.1275(33) 3_665 n
Ni1 N5 2.1275(33) 4_565 n
Si2 F3 1.761(5) 1_555 n
Si2 F3 1.761(5) -1_667 n
Si2 F4 1.6391(32) 1_555 n
Si2 F4 1.6391(32) 2_655 n
Si2 F4 1.6391(32) 3_665 n
Si2 F4 1.6391(32) 4_565 n
F3 Ni1 1.988(5) 1_555 n
F3 Si2 1.761(5) 1_555 n
F3 F4 2.406(4) 1_555 n
F3 F4 2.406(4) 2_655 n
F3 F4 2.406(4) 3_665 n
F3 F4 2.406(4) 4_565 n
F4 Si2 1.6391(32) 1_555 n
F4 F3 2.406(4) 1_555 n
F4 F3 2.406(4) -1_667 n
F4 F4 2.318(5) 2_655 n
F4 F4 2.318(5) 4_565 n
F4 H6 2.114(5) 2_655 n
F4 H6 2.114(5) 7_565 n
F4 H6 2.114(5) -4_657 n
F4 H6 2.114(5) -5_567 n
N5 Ni1 2.1275(33) 1_555 n
N5 C6 1.3397(6) 1_555 n
N5 C6 1.3397(6) 7_565 n
N5 C6 1.3397(6) -3_556 n
N5 C6 1.3397(6) -5_566 n
C6 N5 1.3397(6) 1_555 n
C6 C6 1.572(4) 3_765 n
C6 C6 1.3945(12) 5_755 n
C6 C6 0.726(9) 7_565 n
C6 C6 2.197(4) -3_556 n
C6 H6 1.107(5) 1_555 n
C6 H6 1.475(10) 7_565 n
H6 F4 2.114(5) 4_565 n
H6 C6 1.107(5) 1_555 n
H6 C6 1.475(10) 7_565 n
H6 H6 1.309(17) 7_565 n
loop_
_pd_meas_2theta_scan
_pd_proc_2theta_corrected
_pd_meas_counts_total
_pd_proc_ls_weight
_pd_proc_intensity_bkg_calc
_pd_calc_intensity_total
2.0100 2.0150 6316.4 0.0 -24824758.00000 .
2.0100 2.0150 6316.4 0.0 -24824758.00000 .
2.0200 2.0250 6217.0 0.0 -24345608.00000 .
2.0300 2.0350 6249.0 0.0 -23874896.00000 .
2.0400 2.0450 6261.4 0.0 -23412474.00000 .
2.0500 2.0550 6255.1 0.0 -22958220.00000 .
2.0600 2.0650 6183.2 0.0 -22512000.00000 .
2.0700 2.0750 6219.0 0.0 -22073674.00000 .
2.0800 2.0850 6154.9 0.0 -21643130.00000 .
2.0900 2.0950 6196.0 0.0 -21220240.00000 .
2.1000 2.1050 6195.1 0.0 -20804870.00000 .
2.1100 2.1150 6165.2 0.0 -20396906.00000 .
2.1200 2.1250 6146.0 0.0 -19996224.00000 .
2.1300 2.1350 6133.1 0.0 -19602706.00000 .
2.1400 2.1450 6205.5 0.0 -19216242.00000 .
2.1500 2.1550 6098.1 0.0 -18836706.00000 .
2.1600 2.1650 6075.2 0.0 -18463992.00000 .
2.1700 2.1750 6076.5 0.0 -18098006.00000 .
2.1800 2.1850 6087.1 0.0 -17738604.00000 .
2.1900 2.1950 6090.5 0.0 -17385702.00000 .
2.2000 2.2050 6027.5 0.0 -17039178.00000 .
2.2100 2.2150 6005.2 0.0 -16698940.00000 .
2.2200 2.2250 6067.8 0.0 -16364877.00000 .
2.2300 2.2350 6052.0 0.0 -16036885.00000 .
2.2400 2.2450 6056.3 0.0 -15714873.00000 .
2.2500 2.2550 5979.5 0.0 -15398732.00000 .
2.2600 2.2650 5982.8 0.0 -15088377.00000 .
2.2700 2.2750 6019.3 0.0 -14783698.00000 .
2.2800 2.2850 6091.9 0.0 -14484613.00000 .
2.2900 2.2950 5969.5 0.0 -14191026.00000 .
2.3000 2.3050 6024.6 0.0 -13902833.00000 .
2.3100 2.3150 5961.9 0.0 -13619959.00000 .
2.3200 2.3250 6009.8 0.0 -13342304.00000 .
2.3300 2.3350 5969.9 0.0 -13069790.00000 .
2.3400 2.3450 6005.1 0.0 -12802335.00000 .
2.3500 2.3550 5940.4 0.0 -12539837.00000 .
2.3600 2.3650 5982.5 0.0 -12282222.00000 .
2.3700 2.3750 5970.6 0.0 -12029408.00000 .
2.3800 2.3850 6001.3 0.0 -11781303.00000 .
2.3900 2.3950 5875.0 0.0 -11537852.00000 .
2.4000 2.4050 5981.7 0.0 -11298959.00000 .
2.4100 2.4150 5913.4 0.0 -11064547.00000 .
2.4200 2.4250 5927.9 0.0 -10834542.00000 .
2.4300 2.4350 5881.0 0.0 -10608867.00000 .
2.4400 2.4450 5956.9 0.0 -10387453.00000 .
2.4500 2.4550 5878.9 0.0 -10170228.00000 .
2.4600 2.4650 5972.7 0.0 -9957110.00000 .
2.4700 2.4750 5846.2 0.0 -9748041.00000 .
2.4800 2.4850 5914.2 0.0 -9542943.00000 .
2.4900 2.4950 5877.6 0.0 -9341752.00000 .
2.5000 2.5050 5924.9 0.0 -9144395.00000 .
2.5100 2.5150 5825.9 0.0 -8950812.00000 .
2.5200 2.5250 5836.4 0.0 -8760943.00000 .
2.5300 2.5350 5856.1 0.0 -8574709.00000 .
2.5400 2.5450 5906.9 0.0 -8392054.00000 .
2.5500 2.5550 5840.9 0.0 -8212919.50000 .
2.5600 2.5650 5872.4 0.0 -8037236.00000 .
2.5700 2.5750 5825.6 0.0 -7864954.00000 .
2.5800 2.5850 5838.2 0.0 -7696008.00000 .
2.5900 2.5950 5904.7 0.0 -7530339.00000 .
2.6000 2.6050 5802.7 0.0 -7367891.50000 .
2.6100 2.6150 5824.9 0.0 -7208609.00000 .
2.6200 2.6250 5815.9 0.0 -7052432.50000 .
2.6300 2.6350 5813.3 0.0 -6899309.50000 .
2.6400 2.6450 5827.7 0.0 -6749186.50000 .
2.6500 2.6550 5827.5 0.0 -6602012.00000 .
2.6600 2.6650 5835.4 0.0 -6457732.50000 .
2.6700 2.6750 5787.0 0.0 -6316297.00000 .
2.6800 2.6850 5795.6 0.0 -6177657.00000 .
2.6900 2.6950 5828.6 0.0 -6041754.00000 .
2.7000 2.7050 5792.1 0.0 -5908549.00000 .
2.7100 2.7150 5749.2 0.0 -5777990.00000 .
2.7200 2.7250 5788.1 0.0 -5650030.00000 .
2.7300 2.7350 5862.8 0.0 -5524621.50000 .
2.7400 2.7450 5713.9 0.0 -5401716.50000 .
2.7500 2.7550 5818.9 0.0 -5281277.00000 .
2.7600 2.7650 5724.1 0.0 -5163253.50000 .
2.7700 2.7750 5804.8 0.0 -5047603.00000 .
2.7800 2.7850 5723.9 0.0 -4934281.00000 .
2.7900 2.7950 5786.1 0.0 -4823250.00000 .
2.8000 2.8050 5724.4 0.0 -4714463.00000 .
2.8100 2.8150 5781.5 0.0 -4607884.50000 .
2.8200 2.8250 5741.5 0.0 -4503469.00000 .
2.8300 2.8350 5779.2 0.0 -4401180.50000 .
2.8400 2.8450 5697.5 0.0 -4300976.50000 .
2.8500 2.8550 5777.1 0.0 -4202824.00000 .
2.8600 2.8650 5718.6 0.0 -4106680.50000 .
2.8700 2.8750 5737.9 0.0 -4012511.50000 .
2.8800 2.8850 5687.0 0.0 -3920278.50000 .
2.8900 2.8950 5778.9 0.0 -3829949.75000 .
2.9000 2.9050 5677.3 0.0 -3741487.00000 .
2.9100 2.9150 5764.3 0.0 -3654857.00000 .
2.9200 2.9250 5725.9 0.0 -3570024.50000 .
2.9300 2.9350 5725.2 0.0 -3486957.25000 .
2.9400 2.9450 5695.3 0.0 -3405618.75000 .
2.9500 2.9550 5770.4 0.0 -3325982.75000 .
2.9600 2.9650 5679.4 0.0 -3248012.00000 .
2.9700 2.9750 5716.4 0.0 -3171679.25000 .
2.9800 2.9850 5741.0 0.0 -3096951.00000 .
2.9900 2.9950 5736.2 0.0 -3023796.75000 .
3.0000 3.0050 5687.4 0.0 -2952188.50000 .
3.0100 3.0150 5759.4 0.0 -2882097.75000 .
3.0200 3.0250 5649.3 0.0 -2813493.75000 .
3.0300 3.0350 5684.4 0.0 -2746347.50000 .
3.0400 3.0450 5717.2 0.0 -2680634.00000 .
3.0500 3.0550 5746.9 0.0 -2616323.50000 .
3.0600 3.0650 5666.6 0.0 -2553391.00000 .
3.0700 3.0750 5690.6 0.0 -2491810.00000 .
3.0800 3.0850 5700.8 0.0 -2431553.50000 .
3.0900 3.0950 5683.7 0.0 -2372595.50000 .
3.1000 3.1050 5663.6 0.0 -2314912.75000 .
3.1100 3.1150 5722.8 0.0 -2258480.25000 .
3.1200 3.1250 5683.3 0.0 -2203273.75000 .
3.1300 3.1350 5684.5 0.0 -2149265.50000 .
3.1400 3.1450 5759.7 0.0 -2096438.62500 .
3.1500 3.1550 5655.9 0.0 -2044768.25000 .
3.1600 3.1650 5695.2 0.0 -1994229.75000 .
3.1700 3.1750 5671.2 0.0 -1944802.25000 .
3.1800 3.1850 5722.5 0.0 -1896463.50000 .
3.1900 3.1950 5615.3 0.0 -1849193.00000 .
3.2000 3.2050 5680.7 0.0 -1802969.75000 .
3.2100 3.2150 5698.7 0.0 -1757772.12500 .
3.2200 3.2250 5641.5 0.0 -1713579.87500 .
3.2300 3.2350 5667.0 0.0 -1670374.25000 .
3.2400 3.2450 5722.1 0.0 -1628134.62500 .
3.2500 3.2550 5660.5 0.0 -1586841.50000 .
3.2600 3.2650 5638.9 0.0 -1546478.12500 .
3.2700 3.2750 5721.6 0.0 -1507022.37500 .
3.2800 3.2850 5716.4 0.0 -1468459.25000 .
3.2900 3.2950 5604.2 0.0 -1430769.00000 .
3.3000 3.3050 5723.8 0.0 -1393935.62500 .
3.3100 3.3150 5664.5 0.0 -1357939.87500 .
3.3200 3.3250 5730.9 0.0 -1322766.00000 .
3.3300 3.3350 5659.7 0.0 -1288397.50000 .
3.3400 3.3450 5760.5 0.0 -1254816.75000 .
3.3500 3.3550 5626.2 0.0 -1222009.62500 .
3.3600 3.3650 5705.9 0.0 -1189959.00000 .
3.3700 3.3750 5704.9 0.0 -1158650.00000 .
3.3800 3.3850 5714.9 0.0 -1128066.62500 .
3.3900 3.3950 5653.1 0.0 -1098195.12500 .
3.4000 3.4050 5770.4 0.0 -1069019.75000 .
3.4100 3.4150 5642.9 0.0 -1040527.06250 .
3.4200 3.4250 5683.7 0.0 -1012703.06250 .
3.4300 3.4350 5684.3 0.0 -985532.75000 .
3.4400 3.4450 5725.5 0.0 -959002.93750 .
3.4500 3.4550 5620.1 0.0 -933100.18750 .
3.4600 3.4650 5726.1 0.0 -907812.06250 .
3.4700 3.4750 5660.6 0.0 -883125.31250 .
3.4800 3.4850 5701.9 0.0 -859027.00000 .
3.4900 3.4950 5688.8 0.0 -835505.25000 .
3.5000 3.5050 5765.0 0.0 -812547.37500 .
3.5100 3.5150 5655.1 0.0 -790141.50000 .
3.5200 3.5250 5708.5 0.0 -768276.50000 .
3.5300 3.5350 5697.2 0.0 -746939.87500 .
3.5400 3.5450 5725.9 0.0 -726122.18750 .
3.5500 3.5550 5687.9 0.0 -705809.93750 .
3.5600 3.5650 5743.2 0.0 -685993.93750 .
3.5700 3.5750 5710.5 0.0 -666663.43750 .
3.5800 3.5850 5694.1 0.0 -647807.18750 .
3.5900 3.5950 5716.5 0.0 -629415.43750 .
3.6000 3.6050 5740.3 0.0 -611478.00000 .
3.6100 3.6150 5691.4 0.0 -593985.31250 .
3.6200 3.6250 5730.2 0.0 -576927.06250 .
3.6300 3.6350 5726.0 0.0 -560294.00000 .
3.6400 3.6450 5715.9 0.0 -544077.56250 .
3.6500 3.6550 5729.4 0.0 -528267.68750 .
3.6600 3.6650 5762.2 0.0 -512855.90625 .
3.6700 3.6750 5743.1 0.0 -497833.37500 .
3.6800 3.6850 5730.2 0.0 -483191.34375 .
3.6900 3.6950 5762.3 0.0 -468921.31250 .
3.7000 3.7050 5711.3 0.0 -455015.12500 .
3.7100 3.7150 5731.3 0.0 -441464.78125 .
3.7200 3.7250 5731.8 0.0 -428262.12500 .
3.7300 3.7350 5795.2 0.0 -415399.50000 .
3.7400 3.7450 5668.6 0.0 -402869.06250 .
3.7500 3.7550 5772.2 0.0 -390663.37500 .
3.7600 3.7650 5790.0 0.0 -378775.40625 .
3.7700 3.7750 5749.0 0.0 -367197.62500 .
3.7800 3.7850 5756.2 0.0 -355923.09375 .
3.7900 3.7950 5830.6 0.0 -344944.75000 .
3.8000 3.8050 5722.5 0.0 -334255.78125 .
3.8100 3.8150 5749.1 0.0 -323849.75000 .
3.8200 3.8250 5784.8 0.0 -313720.06250 .
3.8300 3.8350 5806.4 0.0 -303860.18750 .
3.8400 3.8450 5707.4 0.0 -294264.25000 .
3.8500 3.8550 5869.5 0.0 -284925.71875 .
3.8600 3.8650 5756.7 0.0 -275838.68750 .
3.8700 3.8750 5785.6 0.0 -266997.46875 .
3.8800 3.8850 5780.2 0.0 -258395.93750 .
3.8900 3.8950 5873.7 0.0 -250028.98438 .
3.9000 3.9050 5736.0 0.0 -241890.65625 .
3.9100 3.9150 5832.3 0.0 -233975.65625 .
3.9200 3.9250 5802.9 0.0 -226278.60938 .
3.9300 3.9350 5816.6 0.0 -218794.54688 .
3.9400 3.9450 5810.8 0.0 -211518.17188 .
3.9500 3.9550 5858.1 0.0 -204444.43750 .
3.9600 3.9650 5824.5 0.0 -197568.81250 .
3.9700 3.9750 5803.0 0.0 -190886.18750 .
3.9800 3.9850 5846.9 0.0 -184392.03125 .
3.9900 3.9950 5872.8 0.0 -178081.50000 .
4.0000 4.0050 5790.5 0.0 -171950.59375 .
4.0100 4.0150 5874.0 0.0 -165994.40625 .
4.0200 4.0250 5807.8 0.0 -160209.32813 .
4.0300 4.0350 5867.0 0.0 -154590.31250 .
4.0400 4.0450 5805.6 0.0 -149133.93750 .
4.0500 4.0550 5914.0 0.0 -143835.79688 .
4.0600 4.0650 5787.1 0.0 -138692.12500 .
4.0700 4.0750 5871.7 0.0 -133698.87500 .
4.0800 4.0850 5864.4 0.0 -128852.56250 .
4.0900 4.0950 5884.3 0.0 -124149.21875 .
4.1000 4.1050 5844.5 0.0 -119585.47656 .
4.1100 4.1150 5906.8 0.0 -115157.47656 .
4.1200 4.1250 5918.0 0.0 -110862.20313 .
4.1300 4.1350 5865.0 0.0 -106695.74219 .
4.1400 4.1450 5911.1 0.0 -102655.38281 .
4.1500 4.1550 5904.5 0.0 -98737.21875 .
4.1600 4.1650 5889.5 0.0 -94938.76563 .
4.1700 4.1750 5905.5 0.0 -91256.46094 .
4.1800 4.1850 5955.6 0.0 -87687.56250 .
4.1900 4.1950 5910.7 0.0 -84228.83594 .
4.2000 4.2050 5867.8 0.0 -80877.72656 .
4.2100 4.2150 5988.4 0.0 -77630.98438 .
4.2200 4.2250 5916.0 0.0 -74486.29688 .
4.2300 4.2350 5919.6 0.0 -71440.58594 .
4.2400 4.2450 5962.3 0.0 -68491.54688 .
4.2500 4.2550 5931.3 0.0 -65636.28125 .
4.2600 4.2650 5970.9 0.0 -62872.40234 .
4.2700 4.2750 5965.0 0.0 -60197.60938 .
4.2800 4.2850 6039.4 0.0 -57609.16406 .
4.2900 4.2950 5879.2 0.0 -55105.08203 .
4.3000 4.3050 6007.9 0.0 -52682.72266 .
4.3100 4.3150 5978.0 0.0 -50340.15625 .
4.3200 4.3250 5990.0 0.0 -48074.87500 .
4.3300 4.3350 5942.9 0.0 -45885.00781 .
4.3400 4.3450 6030.9 0.0 -43768.26172 .
4.3500 4.3550 5975.2 0.0 -41722.81641 .
4.3600 4.3650 6007.9 0.0 -39746.42578 .
4.3700 4.3750 6018.0 0.0 -37837.34766 .
4.3800 4.3850 6014.2 0.0 -35993.49609 .
4.3900 4.3950 5959.9 0.0 -34213.20703 .
4.4000 4.4050 6071.3 0.0 -32494.49414 .
4.4100 4.4150 6025.5 0.0 -30835.72461 .
4.4200 4.4250 6033.0 0.0 -29235.06250 .
4.4300 4.4350 6034.0 0.0 -27690.96875 .
4.4400 4.4450 6133.8 0.0 -26201.61328 .
4.4500 4.4550 5966.3 0.0 -24765.57813 .
4.4600 4.4650 6086.3 0.0 -23381.15039 .
4.4700 4.4750 6034.3 0.0 -22046.92969 .
4.4800 4.4850 6091.7 0.0 -20761.26953 .
4.4900 4.4950 6071.5 0.0 -19522.88867 .
4.5000 4.5050 6152.3 0.0 -18330.25195 .
4.5100 4.5150 6075.4 0.0 -17181.99219 .
4.5200 4.5250 6099.4 0.0 -16076.89844 .
4.5300 4.5350 6145.3 0.0 -15013.46680 .
4.5400 4.5450 6152.0 0.0 -13990.54785 .
4.5500 4.5550 6086.8 0.0 -13006.82715 .
4.5600 4.5650 6167.8 0.0 -12061.16504 .
4.5700 4.5750 6124.1 0.0 -11152.26172 .
4.5800 4.5850 6182.0 0.0 -10279.08105 .
4.5900 4.5950 6138.5 0.0 -9440.41016 .
4.6000 4.6050 6208.6 0.0 -8635.21680 .
4.6100 4.6150 6103.2 0.0 -7862.37988 .
4.6200 4.6250 6192.4 0.0 -7120.93164 .
4.6300 4.6350 6224.8 0.0 -6409.76758 .
4.6400 4.6450 6184.6 0.0 -5728.00293 .
4.6500 4.6550 6159.1 0.0 -5074.59912 .
4.6600 4.6650 6225.4 0.0 -4448.67529 .
4.6700 4.6750 6256.9 0.0 -3849.27295 .
4.6800 4.6850 6188.5 0.0 -3275.56030 .
4.6900 4.6950 6248.3 0.0 -2726.64307 .
4.7000 4.7050 6213.1 0.0 -2201.70093 .
4.7100 4.7150 6226.3 0.0 -1699.89087 .
4.7200 4.7250 6281.1 0.0 -1220.46057 .
4.7300 4.7350 6300.1 0.0 -762.60388 .
4.7400 4.7450 6224.6 0.0 -325.60919 .
4.7500 4.7550 6240.4 0.0 91.28823 .
4.7600 4.7650 6346.5 0.0 488.79968 .
4.7700 4.7750 6290.6 0.0 867.56805 .
4.7800 4.7850 6283.2 0.0 1228.30249 .
4.7900 4.7950 6310.6 0.0 1571.62952 .
4.8000 4.8050 6296.8 0.0 1898.20032 .
4.8100 4.8150 6357.6 0.0 2208.61621 .
4.8200 4.8250 6364.0 0.0 2503.48145 .
4.8300 4.8350 6360.5 0.0 2783.36401 .
4.8400 4.8450 6296.5 0.0 3048.84058 .
4.8500 4.8550 6430.5 0.0 3300.44238 .
4.8600 4.8650 6384.0 0.0 3538.71265 .
4.8700 4.8750 6396.7 0.0 3764.14648 .
4.8800 4.8850 6353.6 0.0 3977.26587 .
4.8900 4.8950 6451.7 0.0 4178.53076 .
4.9000 4.9050 6418.3 0.0 4368.43018 .
4.9100 4.9150 6458.0 0.0 4547.40869 .
4.9200 4.9250 6437.0 0.0 4715.91064 .
4.9300 4.9350 6430.7 0.0 4874.35889 .
4.9400 4.9450 6469.7 0.0 5023.17871 .
4.9500 4.9550 6537.4 0.0 5162.75342 .
4.9600 4.9650 6466.7 0.0 5293.49463 .
4.9700 4.9750 6492.3 0.0 5415.75977 .
4.9800 4.9850 6519.5 0.0 5529.92578 .
4.9900 4.9950 6609.1 0.0 5636.33398 .
5.0000 5.0050 6485.7 0.0 5735.33936 .
5.0100 5.0150 6616.3 0.0001511 5827.26709 5888.00098
5.0200 5.0250 6540.6 0.0001529 5912.43457 5975.42334
5.0300 5.0350 6614.9 0.0001512 5991.15576 6056.52832
5.0400 5.0450 6614.2 0.0001512 6063.72705 6131.62451
5.0500 5.0550 6687.5 0.0001495 6130.43994 6538.84961
5.0600 5.0650 6575.0 0.0001521 6191.57129 6610.41016
5.0700 5.0750 6675.1 0.0001498 6247.39502 6677.09766
5.0800 5.0850 6721.1 0.0001488 6298.16748 6739.19287
5.0900 5.0950 6724.8 0.0001487 6344.14697 6796.98486
5.1000 5.1050 6694.0 0.0001494 6385.57227 6850.74072
5.1100 5.1150 6723.4 0.0001487 6422.68115 6900.73633
5.1200 5.1250 6761.2 0.0001479 6455.69629 6947.22754
5.1300 5.1350 6721.7 0.0001488 6484.83740 6990.48047
5.1400 5.1450 6814.7 0.0001467 6510.31885 7030.74316
5.1500 5.1550 6803.8 0.0001470 6532.34131 7068.27734
5.1600 5.1650 6775.3 0.0001476 6551.09766 7103.32471
5.1700 5.1750 6931.9 0.0001443 6566.78320 7136.13574
5.1800 5.1850 6872.9 0.0001455 6579.57373 7166.95605
5.1900 5.1950 6919.5 0.0001445 6589.64502 7196.03711
5.2000 5.2050 6826.0 0.0001465 6597.16797 7223.62695
5.2100 5.2150 6991.3 0.0001430 6602.30029 7249.97852
5.2200 5.2250 6922.4 0.0001445 6605.20117 7275.34961
5.2300 5.2350 7008.5 0.0001427 6606.01611 7300.00781
5.2400 5.2450 7033.8 0.0001422 6604.89160 7324.22510
5.2500 5.2550 7041.3 0.0001420 6601.96484 7348.29053
5.2600 5.2650 7109.1 0.0001407 6597.36670 7372.50635
5.2700 5.2750 7162.7 0.0001396 6591.22656 7397.19727
5.2800 5.2850 7172.1 0.0001394 6583.66260 7422.70654
5.2900 5.2950 7156.9 0.0001397 6574.79492 7449.41895
5.3000 5.3050 7274.3 0.0001375 6564.73096 7477.75000
5.3100 5.3150 7349.9 0.0001361 6553.58154 7508.17041
5.3200 5.3250 7316.0 0.0001367 6541.44580 7541.20703
5.3300 5.3350 7426.5 0.0001347 6528.42236 7577.46973
5.3400 5.3450 7470.9 0.0001339 6514.60449 7617.66113
5.3500 5.3550 7586.9 0.0001318 6500.08252 7662.61816
5.3600 5.3650 7668.8 0.0001304 6484.93799 7713.33545
5.3700 5.3750 7800.9 0.0001282 6469.25586 7771.03809
5.3800 5.3850 7847.7 0.0001274 6453.11035 7837.29150
5.3900 5.3950 8032.5 0.0001245 6436.57666 7914.22070
5.4000 5.4050 8256.6 0.0001211 6419.72168 8005.03320
5.4100 5.4150 8475.3 0.0001180 6402.61621 8115.15674
5.4200 5.4250 8670.0 0.0001153 6385.32031 8254.65234
5.4300 5.4350 9043.7 0.0001106 6367.89355 8442.85352
5.4400 5.4450 9554.7 0.0001047 6350.39404 8716.27734
5.4500 5.4550 10057.3 0.0000994 6332.87354 9140.04688
5.4600 5.4650 11006.6 0.0000909 6315.38379 9820.79980
5.4700 5.4750 11943.1 0.0000837 6297.97168 10915.12012
5.4800 5.4850 13466.4 0.0000743 6280.68262 12623.08008
5.4900 5.4950 15446.2 0.0000647 6263.55908 15155.37109
5.5000 5.5050 18058.7 0.0000554 6246.63867 18668.33398
5.5100 5.5150 21471.4 0.0000466 6229.96191 23175.33203
5.5200 5.5250 25158.8 0.0000397 6213.56299 28457.87891
5.5300 5.5350 28569.9 0.00003500 6197.47412 34002.99219
5.5400 5.5450 32412.4 0.00003085 6181.72412 38985.84766
5.5500 5.5550 34838.7 0.00002870 6166.34326 42354.86719
5.5600 5.5650 36306.4 0.00002754 6151.35693 43177.10156
5.5700 5.5750 35616.4 0.00002808 6136.78955 41208.95313
5.5800 5.5850 33970.0 0.00002944 6122.66260 37086.89453
5.5900 5.5950 31044.9 0.00003221 6108.99707 31866.56055
5.6000 5.6050 27799.2 0.0000360 6095.81299 26516.31055
5.6100 5.6150 24484.2 0.0000408 6083.12646 21716.64648
5.6200 5.6250 21884.4 0.0000457 6070.95264 17837.34570
5.6300 5.6350 19358.8 0.0000517 6059.30664 14978.96094
5.6400 5.6450 17260.8 0.0000579 6048.19824 13050.64648
5.6500 5.6550 15550.8 0.0000643 6037.64063 11862.51270
5.6600 5.6650 14561.9 0.0000687 6027.64355 11205.23828
5.6700 5.6750 13660.3 0.0000732 6018.21387 10899.93262
5.6800 5.6850 12972.1 0.0000771 6009.35986 10817.31543
5.6900 5.6950 12543.1 0.0000797 6001.08691 10875.71582
5.7000 5.7050 12195.7 0.0000820 5993.40186 11029.62109
5.7100 5.7150 12070.8 0.0000828 5986.30420 11257.15430
5.7200 5.7250 12150.3 0.0000823 5979.79932 11550.44727
5.7300 5.7350 12165.2 0.0000822 5973.89014 11909.64941
5.7400 5.7450 12274.4 0.0000815 5968.57373 12339.84473
5.7500 5.7550 12637.1 0.0000791 5963.85205 12849.81543
5.7600 5.7650 13068.8 0.0000765 5959.72363 13452.00391
5.7700 5.7750 13515.6 0.0000740 5956.18604 14163.42871
5.7800 5.7850 14392.8 0.0000695 5953.23779 15008.03125
5.7900 5.7950 15214.0 0.0000657 5950.87402 16022.02441
5.8000 5.8050 16657.8 0.0000600 5949.09277 17265.81445
5.8100 5.8150 18477.8 0.0000541 5947.88867 18849.35547
5.8200 5.8250 21042.3 0.0000475 5947.25488 20981.78320
5.8300 5.8350 24557.5 0.0000407 5947.18701 24058.43945
5.8400 5.8450 29728.8 0.00003364 5947.67725 28792.90039
5.8500 5.8550 37364.9 0.00002676 5948.72119 36380.22656
5.8600 5.8650 50267.3 0.00001989 5950.31104 48635.35547
5.8700 5.8750 67178.3 0.00001489 5952.43506 67995.99219
5.8800 5.8850 94909.5 0.00001054 5955.08984 97245.39063
5.8900 5.8950 134499.1 7.43e-6 5958.26318 138846.14063
5.9000 5.9050 188603.7 5.30e-6 5961.94824 193911.87500
5.9100 5.9150 259596.1 3.85e-6 5966.13477 261035.53125
5.9200 5.9250 340425.3 2.938e-6 5970.81396 335296.65625
5.9300 5.9350 412847.0 2.422e-6 5975.97559 407687.12500
5.9400 5.9450 469385.3 2.130e-6 5981.60791 465321.09375
5.9500 5.9550 498434.1 2.006e-6 5987.70459 493997.15625
5.9600 5.9650 486479.1 2.056e-6 5994.25195 484916.21875
5.9700 5.9750 447357.2 2.235e-6 6001.23779 441008.25000
5.9800 5.9850 381528.0 2.621e-6 6008.65576 374645.65625
5.9900 5.9950 296869.5 3.368e-6 6016.49170 299988.25000
6.0000 6.0050 222370.2 4.50e-6 6024.73438 228216.35938
6.0100 6.0150 160379.0 6.24e-6 6033.37549 166379.34375
6.0200 6.0250 112810.3 8.86e-6 6042.39941 117645.56250
6.0300 6.0350 81674.7 0.00001224 6051.79785 82095.47656
6.0400 6.0450 58997.1 0.00001695 6061.55811 57837.02734
6.0500 6.0550 43619.1 0.00002293 6071.66943 42147.94922
6.0600 6.0650 33644.0 0.00002972 6082.11963 32349.31641
6.0700 6.0750 27213.7 0.0000367 6092.89746 26281.85352
6.0800 6.0850 22498.3 0.0000444 6103.99170 22433.49414
6.0900 6.0950 19155.3 0.0000522 6115.39063 19855.85352
6.1000 6.1050 16924.7 0.0000591 6127.08105 18003.70508
6.1100 6.1150 15404.5 0.0000649 6139.05615 16582.49414
6.1200 6.1250 14190.1 0.0000705 6151.29883 15437.47754
6.1300 6.1350 13237.3 0.0000755 6163.80225 14485.81250
6.1400 6.1450 12536.8 0.0000798 6176.55371 13679.89844
6.1500 6.1550 11812.4 0.0000847 6189.54297 12989.41113
6.1600 6.1650 11444.4 0.0000874 6202.75830 12393.00000
6.1700 6.1750 11132.6 0.0000898 6216.18799 11874.58203
6.1800 6.1850 10652.1 0.0000939 6229.82275 11421.51660
6.1900 6.1950 10352.8 0.0000966 6243.65234 11023.65234
6.2000 6.2050 10142.8 0.0000986 6257.66309 10672.73828
6.2100 6.2150 9958.9 0.0001004 6271.84814 10361.99707
6.2200 6.2250 9681.8 0.0001033 6286.19678 10085.82324
6.2300 6.2350 9583.6 0.0001043 6300.69629 9839.54785
6.2400 6.2450 9302.9 0.0001075 6315.34033 9619.26074
6.2500 6.2550 9202.1 0.0001087 6330.11719 9421.66406
6.2600 6.2650 9146.5 0.0001093 6345.01855 9243.96875
6.2700 6.2750 9031.4 0.0001107 6360.03467 9083.79297
6.2800 6.2850 8832.3 0.0001132 6375.15527 8939.10059
6.2900 6.2950 8759.9 0.0001142 6390.37109 8808.14258
6.3000 6.3050 8748.2 0.0001143 6405.67529 8689.40723
6.3100 6.3150 8630.8 0.0001159 6421.05811 8581.58008
6.3200 6.3250 8498.9 0.0001177 6436.51172 8483.52441
6.3300 6.3350 8490.4 0.0001178 6452.02832 8394.23828
6.3400 6.3450 8353.3 0.0001197 6467.59717 8312.85254
6.3500 6.3550 8386.8 0.0001192 6483.21533 8238.59277
6.3600 6.3650 8310.6 0.0001203 6498.87109 8170.78223
6.3700 6.3750 8271.1 0.0001209 6514.55811 8108.81836
6.3800 6.3850 8138.5 0.0001229 6530.26709 8052.16699
6.3900 6.3950 8225.9 0.0001216 6545.99414 8000.34912
6.4000 6.4050 8212.9 0.0001218 6561.73340 7952.94629
6.4100 6.4150 8077.8 0.0001238 6577.47510 7909.57471
6.4200 6.4250 8045.7 0.0001243 6593.21582 7869.89111
6.4300 6.4350 8022.0 0.0001247 6608.94678 7833.59082
6.4400 6.4450 7984.5 0.0001252 6624.66357 7800.39844
6.4500 6.4550 7954.1 0.0001257 6640.35840 7770.05811
6.4600 6.4650 7922.1 0.0001262 6656.02930 7719.91406
6.4700 6.4750 7838.1 0.0001276 6671.66943 7695.11621
6.4800 6.4850 7812.5 0.0001280 6687.27246 7672.54004
6.4900 6.4950 7885.3 0.0001268 6702.83398 7652.01318
6.5000 6.5050 7760.5 0.0001289 6718.35010 7633.38770
6.5100 6.5150 7733.4 0.0001293 6733.81689 7616.51611
6.5200 6.5250 7700.9 0.0001299 6749.22949 7601.27051
6.5300 6.5350 7762.6 0.0001288 6764.58203 7587.53369
6.5400 6.5450 7636.2 0.0001310 6779.87207 7575.19531
6.5500 6.5550 7731.7 0.0001293 6795.09717 7564.15918
6.5600 6.5650 7566.8 0.0001322 6810.25195 7554.32861
6.5700 6.5750 7619.2 0.0001312 6825.33545 7545.62402
6.5800 6.5850 7630.5 0.0001311 6840.34082 7537.96094
6.5900 6.5950 7601.7 0.0001315 6855.26904 7531.27490
6.6000 6.6050 7487.0 0.0001336 6870.11523 7525.49414
6.6100 6.6150 7568.7 0.0001321 6884.87891 7520.55664
6.6200 6.6250 7550.3 0.0001324 6899.55518 7516.40820
6.6300 6.6350 7546.8 0.0001325 6914.14307 7512.99316
6.6400 6.6450 7461.6 0.0001340 6928.64160 7510.26367
6.6500 6.6550 7488.4 0.0001335 6943.04883 7508.17480
6.6600 6.6650 7445.6 0.0001343 6957.35840 7506.68359
6.6700 6.6750 7495.1 0.0001334 6971.57715 7505.75195
6.6800 6.6850 7422.8 0.0001347 6985.69727 7505.33740
6.6900 6.6950 7470.2 0.0001339 6999.72266 7505.41357
6.7000 6.7050 7340.2 0.0001362 7013.64697 7505.94287
6.7100 6.7150 7498.8 0.0001334 7027.47461 7506.89990
6.7200 6.7250 7417.6 0.0001348 7041.20068 7508.25439
6.7300 6.7350 7374.0 0.0001356 7054.82813 7509.98047
6.7400 6.7450 7361.7 0.0001358 7068.35400 7512.05273
6.7500 6.7550 7423.1 0.0001347 7081.78271 7514.45557
6.7600 6.7650 7383.5 0.0001354 7095.10742 7517.16064
6.7700 6.7750 7389.6 0.0001353 7108.33105 7520.15283
6.7800 6.7850 7354.7 0.0001360 7121.45752 7523.41211
6.7900 6.7950 7343.4 0.0001362 7134.48242 7526.91943
6.8000 6.8050 7389.1 0.0001353 7147.40918 7530.66455
6.8100 6.8150 7407.8 0.0001350 7160.23730 7534.62744
6.8200 6.8250 7331.3 0.0001364 7172.96826 7538.79834
6.8300 6.8350 7306.8 0.0001369 7185.60059 7543.16064
6.8400 6.8450 7376.6 0.0001356 7198.14209 7547.70801
6.8500 6.8550 7360.4 0.0001359 7210.58496 7552.42090
6.8600 6.8650 7307.4 0.0001368 7222.93701 7222.93994
6.8700 6.8750 7358.8 0.0001359 7235.19287 7235.19873
6.8800 6.8850 7337.2 0.0001363 7247.36230 7247.36816
6.8900 6.8950 7334.1 0.0001363 7259.44043 7259.44971
6.9000 6.9050 7364.3 0.0001358 7271.43457 7271.44043
6.9100 6.9150 7359.2 0.0001359 7283.34033 7283.34668
6.9200 6.9250 7283.1 0.0001373 7295.16455 7295.17139
6.9300 6.9350 7356.8 0.0001359 7306.90576 7306.91357
6.9400 6.9450 7411.1 0.0001349 7318.56885 7318.57666
6.9500 6.9550 7368.9 0.0001357 7330.15479 7330.16406
6.9600 6.9650 7326.4 0.0001365 7341.66455 7341.67334
6.9700 6.9750 7388.7 0.0001353 7353.10156 7353.11133
6.9800 6.9850 7371.4 0.0001357 7364.46973 7364.47949
6.9900 6.9950 7371.1 0.0001357 7375.76855 7375.77832
7.0000 7.0050 7408.9 0.0001350 7387.00195 7387.00977
7.0100 7.0150 7306.4 0.0001369 7398.17285 7398.18359
7.0200 7.0250 7341.0 0.0001362 7409.28320 7410.64307
7.0300 7.0350 7424.2 0.0001347 7420.33447 7421.71680
7.0400 7.0450 7417.0 0.0001348 7431.33105 7432.73975
7.0500 7.0550 7317.7 0.0001367 7442.27637 7443.70898
7.0600 7.0650 7404.6 0.0001351 7453.17139 7454.63184
7.0700 7.0750 7450.2 0.0001342 7464.01953 7465.50586
7.0800 7.0850 7377.2 0.0001356 7474.82373 7476.34033
7.0900 7.0950 7414.3 0.0001349 7485.58740 7487.13281
7.1000 7.1050 7394.6 0.0001352 7496.31299 7497.88672
7.1100 7.1150 7377.8 0.0001355 7507.00537 7508.60938
7.1200 7.1250 7465.4 0.0001340 7517.66406 7519.29883
7.1300 7.1350 7432.4 0.0001345 7528.29395 7529.95947
7.1400 7.1450 7392.7 0.0001353 7538.89990 7540.59766
7.1500 7.1550 7361.9 0.0001358 7549.48291 7551.21631
7.1600 7.1650 7520.4 0.0001330 7560.04297 7561.81104
7.1700 7.1750 7448.9 0.0001342 7570.58789 7572.39502
7.1800 7.1850 7435.3 0.0001345 7581.12402 7582.96582
7.1900 7.1950 7413.4 0.0001349 7591.64600 7593.52637
7.2000 7.2050 7481.9 0.0001337 7602.16064 7604.08203
7.2100 7.2150 7471.2 0.0001338 7612.67334 7614.63525
7.2200 7.2250 7518.1 0.0001330 7623.18506 7625.18750
7.2300 7.2350 7475.2 0.0001338 7633.69971 7635.74512
7.2400 7.2450 7455.2 0.0001341 7644.21875 7646.31055
7.2500 7.2550 7525.2 0.0001329 7654.74805 7656.88721
7.2600 7.2650 7601.2 0.0001316 7665.28906 7667.47559
7.2700 7.2750 7508.4 0.0001332 7675.84277 7678.08008
7.2800 7.2850 7493.8 0.0001334 7686.41992 7688.70605
7.2900 7.2950 7561.4 0.0001323 7697.01465 7707.96143
7.3000 7.3050 7609.0 0.0001314 7707.63574 7718.78906
7.3100 7.3150 7595.7 0.0001317 7718.28418 7729.65186
7.3200 7.3250 7602.3 0.0001315 7728.96387 7740.55273
7.3300 7.3350 7588.6 0.0001318 7739.67578 7751.49219
7.3400 7.3450 7631.2 0.0001310 7750.42383 7762.47656
7.3500 7.3550 7684.5 0.0001301 7761.21387 7773.50732
7.3600 7.3650 7717.5 0.0001296 7772.04736 7784.58936
7.3700 7.3750 7619.4 0.0001312 7782.92529 7795.72363
7.3800 7.3850 7788.7 0.0001284 7793.85303 7806.91602
7.3900 7.3950 7785.3 0.0001284 7804.83105 7818.16895
7.4000 7.4050 7787.4 0.0001284 7815.86475 7829.48438
7.4100 7.4150 7826.4 0.0001278 7826.95605 7840.86475
7.4200 7.4250 7871.4 0.0001270 7838.10840 7852.31787
7.4300 7.4350 7909.8 0.0001264 7849.31934 7863.84131
7.4400 7.4450 8015.8 0.0001248 7860.60010 7875.44287
7.4500 7.4550 8005.8 0.0001249 7871.94531 7887.12207
7.4600 7.4650 8021.2 0.0001247 7883.36523 7898.88428
7.4700 7.4750 8083.7 0.0001237 7894.85693 7910.73242
7.4800 7.4850 8236.5 0.0001214 7906.42285 7922.66943
7.4900 7.4950 8241.0 0.0001213 7918.06787 7934.69824
7.5000 7.5050 8292.1 0.0001206 7929.79639 7946.82275
7.5100 7.5150 8376.2 0.0001194 7941.60547 7959.04346
7.5200 7.5250 8482.0 0.0001179 7953.50293 7971.36768
7.5300 7.5350 8491.0 0.0001178 7965.48779 7983.79443
7.5400 7.5450 8644.6 0.0001157 7977.56055 7996.32910
7.5500 7.5550 8598.0 0.0001163 7989.72900 8008.97705
7.5600 7.5650 8671.9 0.0001153 8001.99121 8021.73389
7.5700 7.5750 8768.6 0.0001140 8014.34766 8034.60986
7.5800 7.5850 8854.8 0.0001129 8026.80322 8047.60596
7.5900 7.5950 8740.9 0.0001144 8039.36328 8060.72607
7.6000 7.6050 8820.7 0.0001134 8052.02295 8073.97217
7.6100 7.6150 8902.6 0.0001123 8064.78711 8087.34717
7.6200 7.6250 8853.2 0.0001130 8077.65625 8100.85596
7.6300 7.6350 8791.6 0.0001137 8090.63672 8114.50195
7.6400 7.6450 8829.7 0.0001133 8103.72607 8128.28662
7.6500 7.6550 8720.5 0.0001147 8116.92529 8142.21582
7.6600 7.6650 8745.5 0.0001143 8130.23926 8156.29199
7.6700 7.6750 8713.6 0.0001148 8143.66650 8170.52051
7.6800 7.6850 8600.0 0.0001163 8157.20947 8184.90332
7.6900 7.6950 8515.0 0.0001174 8170.87012 8199.44629
7.7000 7.7050 8617.9 0.0001160 8184.65088 8214.15137
7.7100 7.7150 8505.6 0.0001176 8198.54883 8229.02539
7.7200 7.7250 8435.8 0.0001185 8212.56738 8244.07129
7.7300 7.7350 8379.1 0.0001193 8226.71484 8259.29688
7.7400 7.7450 8419.4 0.0001188 8240.97656 8274.70703
7.7500 7.7550 8353.7 0.0001197 8255.37012 8290.30664
7.7600 7.7650 8353.9 0.0001197 8269.88574 8306.09961
7.7700 7.7750 8285.7 0.0001207 8284.52441 8322.09277
7.7800 7.7850 8276.3 0.0001208 8299.29590 8338.29980
7.7900 7.7950 8266.1 0.0001210 8314.19043 8354.72754
7.8000 7.8050 8319.1 0.0001202 8329.21484 8371.37891
7.8100 7.8150 8242.3 0.0001213 8344.37012 8388.26855
7.8200 7.8250 8203.8 0.0001219 8359.65430 8405.40527
7.8300 7.8350 8235.7 0.0001214 8375.06543 8422.80469
7.8400 7.8450 8267.0 0.0001210 8390.61133 8440.47754
7.8500 7.8550 8235.8 0.0001214 8406.28516 8458.44434
7.8600 7.8650 8235.2 0.0001214 8422.09082 8476.71680
7.8700 7.8750 8222.4 0.0001216 8438.02734 8495.32520
7.8800 7.8850 8267.5 0.0001210 8454.09863 8514.28613
7.8900 7.8950 8280.0 0.0001208 8470.29883 8533.63086
7.9000 7.9050 8291.3 0.0001206 8486.63086 8553.38770
7.9100 7.9150 8238.4 0.0001214 8503.09375 8573.60352
7.9200 7.9250 8313.0 0.0001203 8519.69043 8594.31934
7.9300 7.9350 8345.5 0.0001198 8536.41895 8615.58984
7.9400 7.9450 8320.6 0.0001202 8553.27930 8637.48828
7.9500 7.9550 8327.9 0.0001201 8570.26563 8660.09180
7.9600 7.9650 8373.1 0.0001194 8587.38770 8683.50781
7.9700 7.9750 8401.8 0.0001190 8604.64063 8707.88672
7.9800 7.9850 8434.3 0.0001186 8622.02051 8733.43262
7.9900 7.9950 8476.0 0.0001180 8639.52832 8760.48242
8.0000 8.0050 8453.7 0.0001183 8657.16797 8789.59570
8.0100 8.0150 8516.7 0.0001174 8674.93750 8821.73535
8.0200 8.0250 8647.2 0.0001156 8692.83398 8858.56836
8.0300 8.0350 8659.0 0.0001155 8710.85254 8902.81348
8.0400 8.0450 8694.8 0.0001150 8729.00098 8958.70410
8.0500 8.0550 8823.3 0.0001133 8747.27246 9032.25098
8.0600 8.0650 8949.9 0.0001117 8765.66895 9131.17383
8.0700 8.0750 9057.2 0.0001104 8784.18750 9264.10938
8.0800 8.0850 9267.2 0.0001079 8802.83105 9438.94727
8.0900 8.0950 9416.2 0.0001062 8821.59375 9660.22363
8.1000 8.1050 9639.3 0.0001037 8840.47852 9926.19141
8.1100 8.1150 10004.1 0.0001000 8859.48047 10225.80273
8.1200 8.1250 10290.2 0.0000972 8878.59570 10536.17676
8.1300 8.1350 10427.7 0.0000959 8897.83594 10820.73242
8.1400 8.1450 10660.9 0.0000938 8917.18848 11031.22363
8.1500 8.1550 10822.5 0.0000924 8936.64844 11121.59180
8.1600 8.1650 10764.5 0.0000929 8956.22461 11073.69824
8.1700 8.1750 10746.1 0.0000931 8975.91016 10910.73828
8.1800 8.1850 10578.5 0.0000945 8995.70703 10680.62109
8.1900 8.1950 10409.2 0.0000961 9015.60840 10430.90723
8.2000 8.2050 10343.1 0.0000967 9035.61621 10196.81055
8.2100 8.2150 10201.6 0.0000980 9055.72852 10000.02832
8.2200 8.2250 10067.6 0.0000993 9075.94141 9850.78711
8.2300 8.2350 9977.4 0.0001002 9096.25684 9750.49219
8.2400 8.2450 10064.2 0.0000994 9116.66797 9694.80371
8.2500 8.2550 10007.0 0.0000999 9137.17969 9676.72754
8.2600 8.2650 10000.1 0.0001000 9157.78613 9689.34570
8.2700 8.2750 10116.6 0.0000988 9178.48438 9727.89941
8.2800 8.2850 10236.7 0.0000977 9199.27148 9791.33984
8.2900 8.2950 10379.3 0.0000963 9220.14746 9883.80859
8.3000 8.3050 10620.3 0.0000942 9241.11230 10016.32715
8.3100 8.3150 10882.2 0.0000919 9262.15820 10208.80664
8.3200 8.3250 11288.1 0.0000886 9283.28906 10491.79883
8.3300 8.3350 11849.0 0.0000844 9304.49805 10906.79004
8.3400 8.3450 12566.9 0.0000796 9325.78711 11503.23047
8.3500 8.3550 13447.8 0.0000744 9347.15234 12330.81934
8.3600 8.3650 14607.7 0.0000685 9368.58691 13426.58887
8.3700 8.3750 15971.1 0.0000626 9390.09766 14798.19043
8.3800 8.3850 17519.2 0.0000571 9411.67676 16406.25586
8.3900 8.3950 19060.8 0.0000525 9433.31445 18148.07227
8.4000 8.4050 20483.3 0.0000488 9455.01953 19843.41211
8.4100 8.4150 21451.5 0.0000466 9476.78809 21230.68750
8.4200 8.4250 21896.7 0.0000457 9498.61328 22009.41602
8.4300 8.4350 21790.5 0.0000459 9520.50098 21968.67773
8.4400 8.4450 20881.3 0.0000479 9542.43359 21126.76953
8.4500 8.4550 19713.3 0.0000507 9564.42188 19717.54883
8.4600 8.4650 18214.9 0.0000549 9586.45801 18041.71289
8.4700 8.4750 16671.5 0.0000600 9608.54004 16350.09668
8.4800 8.4850 15179.7 0.0000659 9630.66211 14811.09473
8.4900 8.4950 13847.1 0.0000722 9652.82813 13517.36621
8.5000 8.5050 12921.5 0.0000774 9675.02930 12500.42480
8.5100 8.5150 12099.1 0.0000827 9697.26465 11747.22852
8.5200 8.5250 11518.7 0.0000868 9719.53516 11217.82617
8.5300 8.5350 11029.5 0.0000907 9741.83301 10861.65918
8.5400 8.5450 10660.9 0.0000938 9764.16211 10629.74121
8.5500 8.5550 10508.3 0.0000952 9786.50879 10481.50586
8.5600 8.5650 10325.5 0.0000968 9808.87891 10387.00586
8.5700 8.5750 10178.0 0.0000983 9831.26563 10326.06641
8.5800 8.5850 10036.5 0.0000996 9853.67090 10286.03320
8.5900 8.5950 10030.5 0.0000997 9876.08887 10259.35938
8.6000 8.6050 9968.4 0.0001003 9898.51465 10241.66797
8.6100 8.6150 9887.4 0.0001011 9920.94238 10230.41895
8.6200 8.6250 9934.6 0.0001007 9943.38086 10224.06543
8.6300 8.6350 9857.8 0.0001014 9965.81445 10221.59375
8.6400 8.6450 9869.6 0.0001013 9988.25098 10222.29492
8.6500 8.6550 9918.2 0.0001008 10010.67676 10225.64160
8.6600 8.6650 9891.5 0.0001011 10033.09668 10231.20898
8.6700 8.6750 9853.9 0.0001015 10055.50781 10238.66797
8.6800 8.6850 9891.4 0.0001011 10077.90430 10247.73730
8.6900 8.6950 9967.7 0.0001003 10100.28027 10258.18652
8.7000 8.7050 9891.3 0.0001011 10122.63867 10269.83105
8.7100 8.7150 9925.3 0.0001008 10144.97168 10282.50488
8.7200 8.7250 9952.5 0.0001005 10167.28516 10296.07324
8.7300 8.7350 9952.3 0.0001005 10189.56055 10310.41602
8.7400 8.7450 10001.4 0.0001000 10211.80859 10325.44238
8.7500 8.7550 10030.9 0.0000997 10234.02344 10341.06348
8.7600 8.7650 9989.5 0.0001001 10256.19824 10357.20215
8.7700 8.7750 9997.7 0.0001000 10278.33203 10373.79785
8.7800 8.7850 10100.4 0.0000990 10300.42188 10390.79395
8.7900 8.7950 10115.9 0.0000989 10322.46387 10408.14453
8.8000 8.8050 10061.4 0.0000994 10344.45703 10425.79688
8.8100 8.8150 10113.6 0.0000989 10366.39453 10443.72070
8.8200 8.8250 10158.8 0.0000984 10388.28125 10461.87793
8.8300 8.8350 10177.9 0.0000983 10410.10449 10480.24219
8.8400 8.8450 10236.0 0.0000977 10431.86621 10498.78223
8.8500 8.8550 10173.3 0.0000983 10453.56250 10517.47656
8.8600 8.8650 10217.9 0.0000979 10475.19141 10536.29785
8.8700 8.8750 10287.1 0.0000972 10496.75195 10555.23047
8.8800 8.8850 10296.4 0.0000971 10518.23438 10574.25977
8.8900 8.8950 10259.0 0.0000975 10539.64160 10593.36133
8.9000 8.9050 10328.3 0.0000968 10560.96777 10612.52051
8.9100 8.9150 10352.1 0.0000966 10582.21387 10631.72754
8.9200 8.9250 10319.0 0.0000969 10603.37207 10650.96973
8.9300 8.9350 10389.1 0.0000963 10624.44141 10670.23242
8.9400 8.9450 10378.7 0.0000964 10645.41895 10689.50293
8.9500 8.9550 10384.3 0.0000963 10666.30664 10708.77246
8.9600 8.9650 10441.6 0.0000958 10687.09277 10728.03613
8.9700 8.9750 10460.5 0.0000956 10707.78320 10760.43652
8.9800 8.9850 10446.4 0.0000957 10728.36230 10779.88672
8.9900 8.9950 10459.9 0.0000956 10748.84277 10799.30859
9.0000 9.0050 10551.8 0.0000948 10769.21484 10818.69531
9.0100 9.0150 10545.0 0.0000948 10789.47266 10838.03711
9.0200 9.0250 10514.7 0.0000951 10809.62012 10857.32910
9.0300 9.0350 10581.5 0.0000945 10829.64160 10876.56348
9.0400 9.0450 10595.0 0.0000944 10849.55273 10895.73926
9.0500 9.0550 10631.3 0.0000941 10869.33887 10914.84766
9.0600 9.0650 10666.3 0.0000938 10889.00293 10933.88281
9.0700 9.0750 10675.6 0.0000937 10908.53223 10952.83691
9.0800 9.0850 10636.4 0.0000940 10927.93652 10971.71289
9.0900 9.0950 10744.6 0.0000931 10947.20801 10990.49707
9.1000 9.1050 10807.8 0.0000925 10966.34180 11009.19629
9.1100 9.1150 10719.3 0.0000933 10985.33398 11027.79395
9.1200 9.1250 10761.1 0.0000929 11004.18945 11046.29590
9.1300 9.1350 10855.4 0.0000921 11022.90332 11064.69434
9.1400 9.1450 10861.7 0.0000921 11041.47168 11082.98633
9.1500 9.1550 10871.3 0.0000920 11059.88574 11101.16309
9.1600 9.1650 10911.6 0.0000916 11078.15234 11119.22949
9.1700 9.1750 10921.7 0.0000916 11096.26660 11137.18066
9.1800 9.1850 10940.9 0.0000914 11114.22559 11155.00684
9.1900 9.1950 11012.0 0.0000908 11132.02441 11172.71191
9.2000 9.2050 11019.2 0.0000908 11149.66504 11190.29102
9.2100 9.2150 10997.8 0.0000909 11167.14160 11207.74316
9.2200 9.2250 11107.5 0.0000900 11184.45313 11225.06445
9.2300 9.2350 11148.5 0.0000897 11201.59375 11242.24805
9.2400 9.2450 11142.6 0.0000897 11218.56836 11259.29785
9.2500 9.2550 11142.6 0.0000897 11235.37305 11276.21387
9.2600 9.2650 11217.6 0.0000891 11252.00098 11292.98633
9.2700 9.2750 11248.3 0.0000889 11268.45313 11309.61523
9.2800 9.2850 11280.9 0.0000886 11284.72363 11324.75293
9.2900 9.2950 11297.5 0.0000885 11300.81543 11341.11719
9.3000 9.3050 11296.2 0.0000885 11316.72754 11357.33398
9.3100 9.3150 11376.4 0.0000879 11332.45117 11373.39941
9.3200 9.3250 11435.0 0.0000875 11347.98926 11389.31543
9.3300 9.3350 11421.5 0.0000876 11363.33984 11405.07910
9.3400 9.3450 11438.9 0.0000874 11378.49707 11420.69043
9.3500 9.3550 11507.8 0.0000869 11393.46094 11436.14844
9.3600 9.3650 11539.5 0.0000867 11408.23242 11451.45313
9.3700 9.3750 11564.8 0.0000865 11422.80371 11466.60352
9.3800 9.3850 11597.7 0.0000862 11437.17871 11481.59766
9.3900 9.3950 11601.5 0.0000862 11451.35840 11496.43555
9.4000 9.4050 11619.9 0.0000861 11465.32910 11511.11816
9.4100 9.4150 11725.2 0.0000853 11479.10059 11525.64258
9.4200 9.4250 11712.1 0.0000854 11492.66504 11540.01758
9.4300 9.4350 11642.9 0.0000859 11506.02051 11554.23535
9.4400 9.4450 11756.4 0.0000851 11519.16602 11568.30078
9.4500 9.4550 11762.1 0.0000850 11532.10547 11582.21484
9.4600 9.4650 11730.0 0.0000853 11544.83203 11595.97656
9.4700 9.4750 11760.1 0.0000850 11557.34473 11609.59473
9.4800 9.4850 11759.7 0.0000850 11569.63672 11623.05762
9.4900 9.4950 11755.8 0.0000851 11581.71777 11636.37988
9.5000 9.5050 11782.9 0.0000849 11593.58301 11649.56348
9.5100 9.5150 11820.0 0.0000846 11605.22461 11662.60742
9.5200 9.5250 11710.1 0.0000854 11616.64551 11675.51172
9.5300 9.5350 11778.3 0.0000849 11627.84277 11688.29004
9.5400 9.5450 11832.9 0.0000845 11638.81934 11700.94336
9.5500 9.5550 11760.4 0.0000850 11649.56934 11713.47363
9.5600 9.5650 11781.6 0.0000849 11660.09570 11717.30566
9.5700 9.5750 11811.6 0.0000847 11670.39258 11729.75977
9.5800 9.5850 11811.6 0.0000847 11680.46484 11742.11328
9.5900 9.5950 11781.6 0.0000849 11690.30176 11754.36914
9.6000 9.6050 11816.3 0.0000846 11699.91016 11766.54102
9.6100 9.6150 11793.7 0.0000848 11709.28613 11778.63281
9.6200 9.6250 11786.5 0.0000848 11718.43262 11790.66699
9.6300 9.6350 11855.9 0.0000843 11727.34180 11802.64648
9.6400 9.6450 11832.8 0.0000845 11736.01953 11814.59180
9.6500 9.6550 11807.4 0.0000847 11744.45703 11826.51660
9.6600 9.6650 11846.7 0.0000844 11752.66113 11838.44434
9.6700 9.6750 11893.7 0.0000841 11760.62500 11850.38770
9.6800 9.6850 11867.6 0.0000843 11768.35156 11862.37695
9.6900 9.6950 11892.7 0.0000841 11775.84082 11874.43848
9.7000 9.7050 11899.8 0.0000840 11783.08691 11886.59668
9.7100 9.7150 11894.3 0.0000841 11790.09766 11898.89160
9.7200 9.7250 12007.7 0.0000833 11796.86230 11911.35449
9.7300 9.7350 12029.5 0.0000831 11803.38672 11924.03613
9.7400 9.7450 11958.5 0.0000836 11809.66699 11936.97949
9.7500 9.7550 12092.3 0.0000827 11815.70605 11965.61133
9.7600 9.7650 12169.1 0.0000822 11821.50000 11979.48340
9.7700 9.7750 12172.4 0.0000822 11827.05371 11993.81934
9.7800 9.7850 12261.7 0.0000816 11832.35645 12008.69824
9.7900 9.7950 12353.7 0.0000809 11837.41699 12024.22559
9.8000 9.8050 12434.8 0.0000804 11842.23438 12040.51270
9.8100 9.8150 12540.8 0.0000797 11846.80371 12057.69629
9.8200 9.8250 12627.9 0.0000792 11851.12793 12075.92969
9.8300 9.8350 12635.2 0.0000791 11855.20215 12095.39453
9.8400 9.8450 12603.3 0.0000793 11859.02832 12116.31055
9.8500 9.8550 12696.4 0.0000788 11862.61328 12138.93652
9.8600 9.8650 12717.3 0.0000786 11865.94922 12163.57617
9.8700 9.8750 12636.5 0.0000791 11869.03516 12190.60742
9.8800 9.8850 12635.7 0.0000791 11871.87305 12220.48535
9.8900 9.8950 12686.4 0.0000788 11874.46777 12253.79004
9.9000 9.9050 12592.9 0.0000794 11876.80859 12291.23926
9.9100 9.9150 12628.1 0.0000792 11878.90527 12333.85059
9.9200 9.9250 12653.1 0.0000790 11880.75391 12383.05859
9.9300 9.9350 12697.2 0.0000788 11882.35547 12441.07031
9.9400 9.9450 12821.5 0.0000780 11883.70898 12511.43262
9.9500 9.9550 12957.7 0.0000772 11884.81152 12599.95996
9.9600 9.9650 13059.5 0.0000766 11885.67090 12716.11035
9.9700 9.9750 13348.2 0.0000749 11886.27832 12874.81445
9.9800 9.9850 13651.6 0.0000733 11886.64258 13098.44824
9.9900 9.9950 14051.4 0.0000712 11886.75684 13418.42676
10.0000 10.0050 14550.7 0.0000687 11886.62402 13875.30371
10.0100 10.0150 15180.9 0.0000659 11886.24805 14516.20020
10.0200 10.0250 16010.6 0.0000625 11885.61816 15388.53809
10.0300 10.0350 17056.4 0.0000586 11884.75293 16529.73047
10.0400 10.0450 18345.9 0.0000545 11883.63672 17953.83398
10.0500 10.0550 19611.8 0.0000510 11882.27441 19636.76172
10.0600 10.0650 21090.5 0.0000474 11880.66797 21501.20117
10.0700 10.0750 22511.6 0.0000444 11878.81738 23400.86328
10.0800 10.0850 23658.1 0.0000423 11876.72266 25107.31445
10.0900 10.0950 24325.5 0.0000411 11874.38672 26322.35156
10.1000 10.1050 24525.9 0.0000408 11871.80566 26761.59766
10.1100 10.1150 24173.5 0.0000414 11868.98145 26303.95508
10.1200 10.1250 23400.8 0.0000427 11865.91895 25074.21484
10.1300 10.1350 22221.0 0.0000450 11862.61426 23358.09961
10.1400 10.1450 20786.1 0.0000481 11859.06934 21453.10156
10.1500 10.1550 19437.3 0.0000514 11855.28418 19586.31250
10.1600 10.1650 18168.8 0.0000550 11851.25879 17902.79297
10.1700 10.1750 17107.1 0.0000585 11846.99512 16478.88281
10.1800 10.1850 16002.2 0.0000625 11842.49707 15337.92969
10.1900 10.1950 15242.3 0.0000656 11837.76172 14465.40430
10.2000 10.2050 14665.9 0.0000682 11832.79004 13823.61719
10.2100 10.2150 14125.4 0.0000708 11827.58105 13365.09766
10.2200 10.2250 13677.5 0.0000731 11822.13672 13042.78418
10.2300 10.2350 13363.8 0.0000748 11816.46484 12816.26660
10.2400 10.2450 13079.0 0.0000765 11810.55859 12654.28320
10.2500 10.2550 12870.0 0.0000777 11804.41895 12534.58984
10.2600 10.2650 12732.6 0.0000785 11798.04883 12442.37012
10.2700 10.2750 12541.1 0.0000797 11791.45117 12368.23145
10.2800 10.2850 12422.2 0.0000805 11784.62305 12306.41992
10.2900 10.2950 12338.8 0.0000810 11777.56738 12253.41406
10.3000 10.3050 12258.9 0.0000816 11770.29102 12207.02441
10.3100 10.3150 12140.1 0.0000824 11762.78320 12165.82129
10.3200 10.3250 12113.5 0.0000826 11755.05566 12128.81348
10.3300 10.3350 12059.2 0.0000829 11747.09766 12095.27539
10.3400 10.3450 12019.8 0.0000832 11738.92383 12064.63477
10.3500 10.3550 12004.6 0.0000833 11730.52832 12036.44043
10.3600 10.3650 11910.2 0.0000840 11721.91406 12010.33008
10.3700 10.3750 11873.5 0.0000842 11713.08203 11985.99219
10.3800 10.3850 11907.3 0.0000840 11704.03223 11963.17773
10.3900 10.3950 11873.7 0.0000842 11694.76270 11941.66992
10.4000 10.4050 11780.8 0.0000849 11685.28125 11921.29199
10.4100 10.4150 11775.3 0.0000849 11675.58691 11901.89453
10.4200 10.4250 11800.9 0.0000847 11665.68066 11883.34570
10.4300 10.4350 11750.2 0.0000851 11655.56152 11865.54004
10.4400 10.4450 11746.6 0.0000851 11645.23633 11848.37695
10.4500 10.4550 11715.7 0.0000854 11634.70410 11831.78809
10.4600 10.4650 11679.3 0.0000856 11623.95898 11815.69238
10.4700 10.4750 11654.8 0.0000858 11613.01367 11800.03906
10.4800 10.4850 11711.1 0.0000854 11601.86914 11784.78125
10.4900 10.4950 11620.6 0.0000861 11590.51367 11769.87012
10.5000 10.5050 11610.1 0.0000861 11578.95996 11755.26758
10.5100 10.5150 11625.8 0.0000860 11567.20703 11740.94922
10.5200 10.5250 11614.2 0.0000861 11555.25879 11726.88477
10.5300 10.5350 11568.3 0.0000864 11543.11035 11713.05273
10.5400 10.5450 11552.1 0.0000866 11530.76953 11726.90332
10.5500 10.5550 11538.9 0.0000867 11518.23535 11713.89355
10.5600 10.5650 11531.0 0.0000867 11505.50781 11701.08398
10.5700 10.5750 11549.7 0.0000866 11492.59375 11688.46973
10.5800 10.5850 11481.7 0.0000871 11479.48730 11676.04395
10.5900 10.5950 11482.0 0.0000871 11466.19531 11663.80566
10.6000 10.6050 11493.7 0.0000870 11452.71777 11651.75586
10.6100 10.6150 11484.6 0.0000871 11439.05566 11639.90332
10.6200 10.6250 11449.7 0.0000873 11425.21387 11628.24609
10.6300 10.6350 11411.3 0.0000876 11411.18848 11616.79980
10.6400 10.6450 11465.4 0.0000872 11396.98438 11605.57617
10.6500 10.6550 11419.7 0.0000876 11382.60547 11594.58594
10.6600 10.6650 11457.6 0.0000873 11368.04980 11583.85547
10.6700 10.6750 11417.6 0.0000876 11353.32227 11573.39453
10.6800 10.6850 11392.6 0.0000878 11338.41406 11563.23242
10.6900 10.6950 11422.2 0.0000875 11323.34570 11553.40723
10.7000 10.7050 11452.6 0.0000873 11308.10449 11543.93164
10.7100 10.7150 11376.2 0.0000879 11292.69824 11534.86133
10.7200 10.7250 11377.9 0.0000879 11277.12207 11526.23340
10.7300 10.7350 11423.9 0.0000875 11261.38672 11518.09570
10.7400 10.7450 11436.9 0.0000874 11245.48828 11510.50000
10.7500 10.7550 11406.7 0.0000877 11229.42871 11503.51074
10.7600 10.7650 11414.9 0.0000876 11213.21289 11497.20605
10.7700 10.7750 11427.1 0.0000875 11196.83691 11491.65918
10.7800 10.7850 11462.0 0.0000872 11180.31250 11486.96777
10.7900 10.7950 11486.4 0.0000871 11163.63086 11483.23926
10.8000 10.8050 11470.5 0.0000872 11146.79883 11480.58887
10.8100 10.8150 11477.0 0.0000871 11129.81836 11479.16504
10.8200 10.8250 11531.0 0.0000867 11112.69043 11479.12891
10.8300 10.8350 11606.7 0.0000862 11095.41699 11480.66699
10.8400 10.8450 11581.4 0.0000863 11078.00000 11483.99316
10.8500 10.8550 11613.8 0.0000861 11060.44141 11489.37402
10.8600 10.8650 11672.9 0.0000857 11042.74316 11497.10156
10.8700 10.8750 11706.5 0.0000854 11024.90234 11507.52832
10.8800 10.8850 11768.2 0.0000850 11006.92871 11521.07813
10.8900 10.8950 11788.1 0.0000848 10988.81934 11538.24902
10.9000 10.9050 11859.5 0.0000843 10970.58008 11559.64355
10.9100 10.9150 11943.3 0.0000837 10952.20605 11585.99805
10.9200 10.9250 11996.9 0.0000834 10933.70703 11618.24805
10.9300 10.9350 12016.4 0.0000832 10915.07324 11657.58301
10.9400 10.9450 12149.6 0.0000823 10896.32520 11705.63672
10.9500 10.9550 12250.8 0.0000816 10877.44922 11764.75488
10.9600 10.9650 12355.0 0.0000809 10858.45020 11838.49512
10.9700 10.9750 12521.3 0.0000799 10839.33301 11932.44727
10.9800 10.9850 12689.6 0.0000788 10820.09570 12055.51660
10.9900 10.9950 12892.4 0.0000776 10800.74414 12221.77148
11.0000 11.0050 13230.6 0.0000756 10781.28027 12452.71582
11.0100 11.0150 13686.6 0.0000731 10761.70215 12779.69531
11.0200 11.0250 14172.0 0.0000706 10742.01660 13245.68750
11.0300 11.0350 14813.6 0.0000675 10722.22266 13905.19238
11.0400 11.0450 15779.0 0.0000634 10702.31738 14820.94141
11.0500 11.0550 16992.0 0.0000589 10682.31055 16056.25195
11.0600 11.0650 18427.3 0.0000543 10662.20313 17662.71875
11.0700 11.0750 20335.9 0.0000492 10641.99316 19664.19531
11.0800 11.0850 22596.5 0.0000443 10621.68555 22038.66602
11.0900 11.0950 24900.8 0.0000402 10601.27930 24698.97656
11.1000 11.1050 27441.3 0.0000364 10580.78027 27471.46094
11.1100 11.1150 29419.5 0.00003399 10560.18555 30074.19141
11.1200 11.1250 30888.3 0.00003237 10539.49902 32116.62109
11.1300 11.1350 31487.0 0.00003176 10518.72656 33176.33594
11.1400 11.1450 31414.6 0.00003183 10497.86133 32981.81250
11.1500 11.1550 30254.1 0.00003305 10476.91602 31579.84570
11.1600 11.1650 28378.8 0.0000352 10455.88574 29304.11328
11.1700 11.1750 26307.6 0.0000380 10434.76953 26582.63477
11.1800 11.1850 24176.0 0.0000414 10413.57422 23779.59375
11.1900 11.1950 22100.2 0.0000452 10392.30469 21145.84375
11.2000 11.2050 20185.1 0.0000495 10370.95801 18829.28125
11.2100 11.2150 18464.4 0.0000542 10349.53223 16897.38672
11.2200 11.2250 17171.5 0.0000582 10328.03418 15357.85547
11.2300 11.2350 15995.9 0.0000625 10306.46875 14164.43359
11.2400 11.2450 14992.2 0.0000667 10284.83301 13287.42773
11.2500 11.2550 14234.1 0.0000703 10263.12598 12674.23242
11.2600 11.2650 13656.7 0.0000732 10241.35840 12214.25879
11.2700 11.2750 13112.0 0.0000763 10219.52637 11880.58398
11.2800 11.2850 12679.8 0.0000789 10197.63184 11633.50098
11.2900 11.2950 12318.4 0.0000812 10175.67578 11444.56836
11.3000 11.3050 12009.9 0.0000833 10153.66504 11294.56641
11.3100 11.3150 11783.3 0.0000849 10131.59570 11171.05664
11.3200 11.3250 11553.6 0.0000866 10109.47266 11066.21289
11.3300 11.3350 11363.2 0.0000880 10087.29492 10975.11719
11.3400 11.3450 11185.1 0.0000894 10065.06641 10894.62402
11.3500 11.3550 11104.3 0.0000901 10042.78809 10822.64941
11.3600 11.3650 10964.7 0.0000912 10020.46484 10757.71582
11.3700 11.3750 10861.4 0.0000921 9998.09668 10698.73828
11.3800 11.3850 10728.6 0.0000932 9975.67969 10644.87109
11.3900 11.3950 10663.9 0.0000938 9953.22168 10595.45020
11.4000 11.4050 10591.5 0.0000944 9930.72559 10549.92480
11.4100 11.4150 10551.7 0.0000948 9908.18848 10507.85059
11.4200 11.4250 10448.7 0.0000957 9885.61426 10468.86621
11.4300 11.4350 10391.8 0.0000962 9863.00391 10432.67090
11.4400 11.4450 10373.0 0.0000964 9840.36328 10399.02246
11.4500 11.4550 10324.6 0.0000969 9817.68848 10367.70801
11.4600 11.4650 10225.8 0.0000978 9794.98145 10338.58203
11.4700 11.4750 10223.0 0.0000978 9772.24707 10311.50488
11.4800 11.4850 10193.7 0.0000981 9749.48535 10286.38379
11.4900 11.4950 10141.4 0.0000986 9726.69824 10263.14746
11.5000 11.5050 10100.1 0.0000990 9703.88574 10241.75195
11.5100 11.5150 10083.9 0.0000992 9681.05273 10222.17383
11.5200 11.5250 9994.4 0.0001001 9658.19922 10204.41211
11.5300 11.5350 10018.5 0.0000998 9635.32422 10188.48926
11.5400 11.5450 9991.9 0.0001001 9612.43555 10174.44336
11.5500 11.5550 9927.3 0.0001007 9589.52832 10162.34375
11.5600 11.5650 9863.8 0.0001014 9566.60938 10152.27832
11.5700 11.5750 9903.3 0.0001010 9543.67773 10144.36133
11.5800 11.5850 9858.7 0.0001014 9520.73145 10138.72949
11.5900 11.5950 9825.0 0.0001018 9497.77832 10135.56152
11.6000 11.6050 9785.1 0.0001022 9474.81445 10135.06055
11.6100 11.6150 9781.0 0.0001022 9451.84668 10137.47852
11.6200 11.6250 9764.4 0.0001024 9428.87305 10143.10156
11.6300 11.6350 9761.1 0.0001024 9405.89551 10152.28613
11.6400 11.6450 9709.4 0.0001030 9382.91602 10165.43652
11.6500 11.6550 9734.8 0.0001027 9359.94043 10183.04199
11.6600 11.6650 9721.8 0.0001029 9336.96094 10205.68066
11.6700 11.6750 9753.9 0.0001025 9313.98340 10234.03809
11.6800 11.6850 9681.9 0.0001033 9291.01172 10268.94727
11.6900 11.6950 9753.2 0.0001025 9268.04395 10311.40918
11.7000 11.7050 9748.8 0.0001026 9245.08789 10362.65234
11.7100 11.7150 9786.8 0.0001022 9222.13281 10424.22168
11.7200 11.7250 9832.3 0.0001017 9199.18652 10498.13184
11.7300 11.7350 9899.8 0.0001010 9176.25781 10587.14648
11.7400 11.7450 9950.4 0.0001005 9153.33691 10695.21094
11.7500 11.7550 10116.9 0.0000988 9130.42969 10828.25977
11.7600 11.7650 10277.6 0.0000973 9107.53906 10995.49805
11.7700 11.7750 10406.7 0.0000961 9084.66113 11211.28906
11.7800 11.7850 10701.9 0.0000934 9061.80469 11497.82324
11.7900 11.7950 11079.9 0.0000903 9038.96582 11911.85840
11.8000 11.8050 11570.0 0.0000864 9016.14453 12454.13867
11.8100 11.8150 12204.9 0.0000819 8993.34668 13211.91699
11.8200 11.8250 13194.9 0.0000758 8970.57617 14265.49023
11.8300 11.8350 14507.8 0.0000689 8947.82227 15706.72559
11.8400 11.8450 16391.8 0.0000610 8925.09961 17628.70508
11.8500 11.8550 18960.1 0.0000527 8902.39844 20109.10938
11.8600 11.8650 22319.7 0.0000448 8879.72754 23188.61133
11.8700 11.8750 26909.2 0.0000372 8857.08301 26846.00391
11.8800 11.8850 32352.0 0.00003091 8834.47168 30971.14453
11.8900 11.8950 38526.6 0.00002596 8811.88770 35333.94141
11.9000 11.9050 44506.1 0.00002247 8789.34180 39549.89063
11.9100 11.9150 49348.3 0.00002026 8766.82324 43065.21875
11.9200 11.9250 51960.7 0.00001925 8744.34473 45232.75391
11.9300 11.9350 52334.0 0.00001911 8721.89746 45545.08594
11.9400 11.9450 49943.5 0.00002002 8699.48926 43916.85547
11.9500 11.9550 45187.0 0.00002213 8677.11816 40740.07031
11.9600 11.9650 39403.1 0.00002538 8654.78711 36656.07031
11.9700 11.9750 32839.8 0.00003045 8632.49707 32250.28125
11.9800 11.9850 27417.0 0.0000365 8610.24805 27972.35156
11.9900 11.9950 22550.7 0.0000443 8588.04297 24100.30078
12.0000 12.0050 18783.3 0.0000532 8565.87500 20780.69922
12.0100 12.0150 15976.7 0.0000626 8543.75293 18061.35547
12.0200 12.0250 14025.7 0.0000713 8521.67969 15919.45215
12.0300 12.0350 12532.8 0.0000798 8499.65039 14287.08984
12.0400 12.0450 11548.5 0.0000866 8477.67188 13074.22656
12.0500 12.0550 10789.0 0.0000927 8455.73535 12187.12305
12.0600 12.0650 10348.0 0.0000966 8433.84961 11540.85938
12.0700 12.0750 9885.8 0.0001012 8412.01855 11065.75488
12.0800 12.0850 9598.2 0.0001042 8390.23438 10708.95020
12.0900 12.0950 9376.8 0.0001066 8368.50391 10432.81836
12.1000 12.1050 9271.8 0.0001079 8346.82324 10211.87793
12.1100 12.1150 9085.4 0.0001101 8325.20020 10029.50098
12.1200 12.1250 9001.2 0.0001111 8303.63184 9875.01758
12.1300 12.1350 8902.2 0.0001123 8282.11426 9741.60156
12.1400 12.1450 8819.8 0.0001134 8260.65527 9624.77051
12.1500 12.1550 8785.0 0.0001138 8239.25488 9521.46777
12.1600 12.1650 8729.4 0.0001146 8217.91016 9429.49219
12.1700 12.1750 8643.7 0.0001157 8196.62500 9347.19727
12.1800 12.1850 8611.9 0.0001161 8175.39746 9273.29492
12.1900 12.1950 8615.0 0.0001161 8154.23438 9206.75781
12.2000 12.2050 8561.4 0.0001168 8133.13184 9146.75391
12.2100 12.2150 8486.0 0.0001178 8112.08789 9092.60156
12.2200 12.2250 8523.6 0.0001173 8091.10449 9043.74414
12.2300 12.2350 8506.6 0.0001176 8070.19189 8999.72656
12.2400 12.2450 8468.1 0.0001181 8049.33496 8960.18848
12.2500 12.2550 8445.1 0.0001184 8028.54785 8924.84668
12.2600 12.2650 8468.7 0.0001181 8007.82227 8893.47656
12.2700 12.2750 8436.5 0.0001185 7987.16211 8865.91602
12.2800 12.2850 8490.4 0.0001178 7966.57275 8842.07520
12.2900 12.2950 8442.5 0.0001184 7946.05371 8821.89355
12.3000 12.3050 8459.7 0.0001182 7925.59521 8805.37695
12.3100 12.3150 8477.5 0.0001180 7905.20654 8792.57715
12.3200 12.3250 8515.1 0.0001174 7884.88867 8783.60742
12.3300 12.3350 8533.9 0.0001172 7864.63770 8778.62402
12.3400 12.3450 8541.1 0.0001171 7844.45898 8777.85645
12.3500 12.3550 8598.0 0.0001163 7824.34912 8781.59766
12.3600 12.3650 8620.2 0.0001160 7804.31396 8790.22852
12.3700 12.3750 8737.9 0.0001144 7784.35010 8804.20605
12.3800 12.3850 8738.3 0.0001144 7764.45557 8824.10742
12.3900 12.3950 8809.7 0.0001135 7744.63525 8850.63965
12.4000 12.4050 8920.7 0.0001121 7724.88818 8884.68750
12.4100 12.4150 9078.5 0.0001102 7705.21631 8927.34570
12.4200 12.4250 9125.1 0.0001096 7685.61816 8980.04883
12.4300 12.4350 9294.8 0.0001076 7666.09082 9044.69727
12.4400 12.4450 9493.5 0.0001053 7646.64551 9123.95313
12.4500 12.4550 9736.2 0.0001027 7627.27246 9221.70313
12.4600 12.4650 9990.1 0.0001001 7607.97412 9343.81641
12.4700 12.4750 10305.2 0.0000970 7588.75293 9499.31738
12.4800 12.4850 10677.7 0.0000937 7569.61182 9702.03418
12.4900 12.4950 11205.5 0.0000892 7550.54297 9972.72656
12.5000 12.5050 11818.2 0.0000846 7531.55420 10341.50000
12.5100 12.5150 12515.7 0.0000799 7512.64404 10834.36914
12.5200 12.5250 13460.1 0.0000743 7493.81006 11536.60547
12.5300 12.5350 14681.0 0.0000681 7475.05859 12497.54004
12.5400 12.5450 16048.3 0.0000623 7456.38184 13788.56152
12.5500 12.5550 17849.4 0.0000560 7437.78467 15478.37695
12.5600 12.5650 20119.4 0.0000497 7419.26904 17619.86133
12.5700 12.5750 22523.6 0.0000444 7400.83154 20233.69141
12.5800 12.5850 25529.0 0.0000392 7382.47656 23289.90625
12.5900 12.5950 28834.0 0.00003468 7364.20166 26687.19727
12.6000 12.6050 31641.8 0.00003160 7346.00537 30238.93164
12.6100 12.6150 34096.0 0.00002933 7327.89258 33603.48828
12.6200 12.6250 35989.2 0.00002779 7309.85986 36342.73438
12.6300 12.6350 36839.4 0.00002714 7291.90723 37952.21094
12.6400 12.6450 36089.7 0.00002771 7274.03613 38061.76953
12.6500 12.6550 34458.2 0.00002902 7256.24805 36640.77734
12.6600 12.6650 32040.4 0.00003121 7238.54395 34017.38672
12.6700 12.6750 29285.7 0.00003415 7220.91895 30690.20313
12.6800 12.6850 26155.5 0.0000382 7203.37598 27124.43359
12.6900 12.6950 23238.3 0.0000430 7185.91748 23661.22070
12.7000 12.7050 20648.3 0.0000484 7168.54199 20515.50977
12.7100 12.7150 18373.4 0.0000544 7151.24609 17801.91211
12.7200 12.7250 16559.7 0.0000604 7134.03662 15560.12695
12.7300 12.7350 14950.4 0.0000669 7116.90820 13776.17676
12.7400 12.7450 13677.8 0.0000731 7099.86328 12401.12695
12.7500 12.7550 12632.3 0.0000792 7082.90332 11367.84570
12.7600 12.7650 11846.8 0.0000844 7066.02246 10604.72363
12.7700 12.7750 11110.7 0.0000900 7049.22705 10045.34863
12.7800 12.7850 10588.1 0.0000944 7032.51855 9633.92578
12.7900 12.7950 10104.4 0.0000990 7015.88965 9327.07520
12.8000 12.8050 9784.1 0.0001022 6999.34570 9093.14551
12.8100 12.8150 9440.7 0.0001059 6982.88477 8910.58984
12.8200 12.8250 9181.2 0.0001089 6966.50928 8763.98926
12.8300 12.8350 8959.0 0.0001116 6950.21484 8644.23926
12.8400 12.8450 8812.4 0.0001135 6934.00391 8545.25488
12.8500 12.8550 8656.5 0.0001155 6917.87793 8463.09668
12.8600 12.8650 8512.6 0.0001175 6901.83887 8395.19238
12.8700 12.8750 8409.3 0.0001189 6885.87793 8339.80762
12.8800 12.8850 8316.5 0.0001202 6870.00293 8295.78613
12.8900 12.8950 8244.6 0.0001213 6854.21094 8262.35059
12.9000 12.9050 8207.5 0.0001218 6838.50391 8239.04004
12.9100 12.9150 8141.4 0.0001228 6822.87891 8225.64941
12.9200 12.9250 8115.9 0.0001232 6807.33838 8222.22363
12.9300 12.9350 8119.7 0.0001232 6791.88037 8229.05078
12.9400 12.9450 8123.4 0.0001231 6776.50684 8246.71484
12.9500 12.9550 8102.4 0.0001234 6761.21533 8276.13379
12.9600 12.9650 8194.1 0.0001220 6746.00879 8318.72559
12.9700 12.9750 8208.3 0.0001218 6730.88135 8376.61523
12.9800 12.9850 8307.8 0.0001204 6715.84229 8453.04004
12.9900 12.9950 8400.8 0.0001190 6700.88184 8552.96582
13.0000 13.0050 8554.0 0.0001169 6686.00684 8684.05664
13.0100 13.0150 8724.0 0.0001146 6671.21143 8858.01563
13.0200 13.0250 9022.5 0.0001108 6656.50049 9092.26270
13.0300 13.0350 9348.7 0.0001070 6641.87158 9411.82520
13.0400 13.0450 9748.7 0.0001026 6627.32422 9850.98047
13.0500 13.0550 10353.1 0.0000966 6612.85791 10453.99805
13.0600 13.0650 11157.6 0.0000896 6598.47510 11274.11621
13.0700 13.0750 12138.0 0.0000824 6584.17578 12369.86816
13.0800 13.0850 13468.7 0.0000742 6569.95459 13798.19824
13.0900 13.0950 15260.9 0.0000655 6555.81494 15604.37402
13.1000 13.1050 17487.1 0.0000572 6541.75635 17809.35742
13.1100 13.1150 20367.4 0.0000491 6527.78125 20395.35938
13.1200 13.1250 23459.2 0.0000426 6513.88477 23289.51367
13.1300 13.1350 26837.5 0.0000373 6500.06982 26344.09570
13.1400 13.1450 30148.9 0.00003317 6486.33350 29313.87695
13.1500 13.1550 32855.0 0.00003044 6472.67822 31844.99805
13.1600 13.1650 34368.4 0.00002910 6459.10254 33517.10938
13.1700 13.1750 34779.1 0.00002875 6445.60645 33980.10156
13.1800 13.1850 33781.2 0.00002960 6432.18945 33133.61719
13.1900 13.1950 31877.6 0.00003137 6418.85254 31190.55664
13.2000 13.2050 28911.4 0.00003459 6405.59326 28556.07617
13.2100 13.2150 25964.6 0.0000385 6392.41357 25649.06250
13.2200 13.2250 22905.9 0.0000437 6379.31104 22800.28711
13.2300 13.2350 20433.1 0.0000489 6366.28857 20235.11133
13.2400 13.2450 18265.3 0.0000547 6353.34131 18091.07617
13.2500 13.2550 16734.4 0.0000598 6340.47266 16438.24609
13.2600 13.2650 15719.6 0.0000636 6327.68164 15294.72168
13.2700 13.2750 15209.2 0.0000657 6314.96582 14638.39063
13.2800 13.2850 15046.6 0.0000665 6302.32861 14416.46777
13.2900 13.2950 15221.0 0.0000657 6289.76709 14552.36914
13.3000 13.3050 15589.4 0.0000641 6277.28174 14948.82520
13.3100 13.3150 15987.2 0.0000626 6264.87061 15458.85742
13.3200 13.3250 16387.8 0.0000610 6252.53711 15993.78516
13.3300 13.3350 16609.2 0.0000602 6240.27734 16363.73047
13.3400 13.3450 16506.8 0.0000606 6228.09277 16422.67188
13.3500 13.3550 16085.7 0.0000622 6215.98096 16095.52832
13.3600 13.3650 15399.7 0.0000649 6203.94531 15411.32813
13.3700 13.3750 14524.3 0.0000689 6191.98340 14478.11523
13.3800 13.3850 13543.1 0.0000738 6180.09326 13424.91504
13.3900 13.3950 12408.8 0.0000806 6168.27832 12359.57520
13.4000 13.4050 11410.4 0.0000876 6156.53467 11356.30176
13.4100 13.4150 10547.6 0.0000948 6144.86426 10459.29590
13.4200 13.4250 9762.6 0.0001024 6133.26318 9689.77832
13.4300 13.4350 9087.7 0.0001100 6121.73730 9052.06641
13.4400 13.4450 8585.6 0.0001165 6110.28125 8538.62109
13.4500 13.4550 8160.3 0.0001225 6098.89648 8134.48438
13.4600 13.4650 7815.0 0.0001280 6087.58301 7821.18164
13.4700 13.4750 7516.1 0.0001330 6076.33691 7579.83008
13.4800 13.4850 7365.4 0.0001358 6065.16455 7393.25830
13.4900 13.4950 7118.5 0.0001405 6054.06055 7247.14111
13.5000 13.5050 7065.6 0.0001415 6043.02393 7130.31738
13.5100 13.5150 6874.2 0.0001455 6032.05615 7034.57520
13.5200 13.5250 6820.5 0.0001466 6021.15918 6954.11670
13.5300 13.5350 6717.5 0.0001489 6010.32813 6884.98193
13.5400 13.5450 6676.5 0.0001498 5999.56396 6824.51074
13.5500 13.5550 6569.8 0.0001522 5988.86963 6770.91748
13.5600 13.5650 6543.4 0.0001528 5978.23877 6722.98340
13.5700 13.5750 6494.8 0.0001540 5967.67676 6679.85205
13.5800 13.5850 6466.6 0.0001546 5957.17871 6640.89941
13.5900 13.5950 6402.2 0.0001562 5946.74902 6605.64941
13.6000 13.6050 6409.0 0.0001560 5936.38330 6573.74121
13.6100 13.6150 6356.8 0.0001573 5926.08301 6544.88232
13.6200 13.6250 6334.8 0.0001579 5915.84570 6518.85059
13.6300 13.6350 6355.0 0.0001574 5905.67334 6495.46826
13.6400 13.6450 6304.9 0.0001586 5895.56299 6474.60107
13.6500 13.6550 6296.0 0.0001588 5885.51807 6456.16064
13.6600 13.6650 6260.7 0.0001597 5875.53467 6440.08936
13.6700 13.6750 6310.0 0.0001585 5865.61426 6426.36768
13.6800 13.6850 6269.4 0.0001595 5855.75439 6415.00928
13.6900 13.6950 6290.9 0.0001590 5845.95703 6406.06641
13.7000 13.7050 6260.6 0.0001597 5836.22070 6399.62744
13.7100 13.7150 6275.1 0.0001594 5826.54443 6395.82275
13.7200 13.7250 6270.1 0.0001595 5816.92920 6394.83789
13.7300 13.7350 6325.4 0.0001581 5807.37402 6396.90674
13.7400 13.7450 6289.3 0.0001590 5797.87695 6402.33936
13.7500 13.7550 6336.5 0.0001578 5788.44043 6411.54590
13.7600 13.7650 6373.3 0.0001569 5779.06299 6425.06934
13.7700 13.7750 6390.3 0.0001565 5769.74023 6443.65039
13.7800 13.7850 6436.8 0.0001554 5760.47852 6468.35107
13.7900 13.7950 6523.2 0.0001533 5751.27344 6500.71240
13.8000 13.8050 6584.4 0.0001519 5742.12549 6543.03809
13.8100 13.8150 6684.6 0.0001496 5733.03271 6598.78271
13.8200 13.8250 6768.8 0.0001477 5723.99756 6673.08301
13.8300 13.8350 6914.1 0.0001446 5715.01611 6773.37549
13.8400 13.8450 7079.0 0.0001413 5706.09082 6910.07422
13.8500 13.8550 7294.2 0.0001371 5697.22021 7097.07715
13.8600 13.8650 7515.3 0.0001331 5688.40527 7351.91504
13.8700 13.8750 7883.2 0.0001269 5679.64209 7695.21240
13.8800 13.8850 8264.8 0.0001210 5670.93262 8149.19189
13.8900 13.8950 8788.6 0.0001138 5662.27734 8735.07324
13.9000 13.9050 9316.7 0.0001073 5653.67480 9469.38867
13.9100 13.9150 10107.9 0.0000989 5645.12354 10359.43457
13.9200 13.9250 10907.7 0.0000917 5636.62598 11398.04395
13.9300 13.9350 11833.6 0.0000845 5628.17578 12557.55371
13.9400 13.9450 12709.8 0.0000787 5619.77979 13782.27832
13.9500 13.9550 13484.2 0.0000742 5611.43311 14979.68945
13.9600 13.9650 14126.1 0.0000708 5603.13721 16015.33301
13.9700 13.9750 14507.8 0.0000689 5594.88965 16726.06055
13.9800 13.9850 14596.1 0.0000685 5586.69482 16967.54688
13.9900 13.9950 14264.7 0.0000701 5578.54492 16682.18750
14.0000 14.0050 13779.4 0.0000726 5570.44482 15932.31055
14.0100 14.0150 13039.4 0.0000767 5562.39307 14864.38867
14.0200 14.0250 12266.5 0.0000815 5554.38818 13616.03906
14.0300 14.0350 11411.4 0.0000876 5546.42920 12370.40625
14.0400 14.0450 10594.8 0.0000944 5538.51953 11192.92090
14.0500 14.0550 9846.5 0.0001016 5530.65527 10137.91211
14.0600 14.0650 9260.3 0.0001080 5522.83740 9232.04102
14.0700 14.0750 8653.1 0.0001156 5515.06348 8481.73730
14.0800 14.0850 8232.0 0.0001215 5507.33545 7879.20654
14.0900 14.0950 7837.7 0.0001276 5499.65088 7407.62256
14.1000 14.1050 7524.5 0.0001329 5492.01318 7045.64258
14.1100 14.1150 7237.1 0.0001382 5484.41748 6771.04980
14.1200 14.1250 7058.2 0.0001417 5476.86621 6563.30957
14.1300 14.1350 6838.1 0.0001462 5469.35596 6405.02344
14.1400 14.1450 6729.0 0.0001486 5461.88965 6282.42578
14.1500 14.1550 6585.8 0.0001518 5454.46631 6185.22266
14.1600 14.1650 6451.0 0.0001550 5447.08398 6106.06445
14.1700 14.1750 6364.0 0.0001571 5439.74316 6039.87988
14.1800 14.1850 6292.1 0.0001589 5432.44336 5983.24805
14.1900 14.1950 6264.7 0.0001596 5425.18311 5933.88379
14.2000 14.2050 6133.3 0.0001630 5417.96436 5890.24219
14.2100 14.2150 6117.3 0.0001635 5410.78467 5851.25635
14.2200 14.2250 6054.1 0.0001652 5403.64307 5816.16650
14.2300 14.2350 6050.6 0.0001653 5396.54395 5784.41260
14.2400 14.2450 5972.5 0.0001674 5389.48096 5755.56250
14.2500 14.2550 5955.8 0.0001679 5382.45654 5729.29248
14.2600 14.2650 5899.4 0.0001695 5375.47070 5705.34863
14.2700 14.2750 5929.3 0.0001687 5368.52148 5683.55811
14.2800 14.2850 5855.1 0.0001708 5361.60986 5663.81201
14.2900 14.2950 5866.1 0.0001705 5354.73340 5646.09326
14.3000 14.3050 5822.1 0.0001718 5347.89551 5630.48682
14.3100 14.3150 5802.9 0.0001723 5341.09375 5617.20068
14.3200 14.3250 5821.9 0.0001718 5334.32568 5606.60059
14.3300 14.3350 5824.1 0.0001717 5327.59326 5599.22949
14.3400 14.3450 5791.2 0.0001727 5320.89551 5595.80811
14.3500 14.3550 5811.6 0.0001721 5314.23340 5597.22803
14.3600 14.3650 5842.7 0.0001712 5307.60547 5604.48047
14.3700 14.3750 5856.5 0.0001707 5301.01025 5618.54883
14.3800 14.3850 5894.0 0.0001697 5294.44922 5640.25342
14.3900 14.3950 5931.7 0.0001686 5287.92090 5670.03320
14.4000 14.4050 6020.2 0.0001661 5281.42529 5707.73584
14.4100 14.4150 6057.7 0.0001651 5274.96094 5752.32080
14.4200 14.4250 6140.0 0.0001629 5268.52832 5801.54443
14.4300 14.4350 6202.8 0.0001612 5262.12939 5851.52734
14.4400 14.4450 6238.5 0.0001603 5255.76074 5896.40723
14.4500 14.4550 6298.7 0.0001588 5249.42236 5928.53906
14.4600 14.4650 6307.7 0.0001585 5243.11523 5940.16211
14.4700 14.4750 6262.4 0.0001597 5236.83936 5926.47314
14.4800 14.4850 6234.3 0.0001604 5230.59180 5888.20117
14.4900 14.4950 6180.1 0.0001618 5224.37402 5831.16846
14.5000 14.5050 6089.7 0.0001642 5218.18555 5763.32422
14.5100 14.5150 5992.7 0.0001669 5212.02588 5691.91113
14.5200 14.5250 5924.1 0.0001688 5205.89453 5622.23828
14.5300 14.5350 5844.0 0.0001711 5199.79297 5557.68701
14.5400 14.5450 5766.7 0.0001734 5193.71729 5500.11865
14.5500 14.5550 5700.9 0.0001754 5187.66943 5426.84912
14.5600 14.5650 5645.1 0.0001771 5181.64990 5384.99414
14.5700 14.5750 5597.2 0.0001787 5175.65771 5350.16895
14.5800 14.5850 5558.7 0.0001799 5169.68848 5321.43604
14.5900 14.5950 5521.6 0.0001811 5163.75000 5297.72754
14.6000 14.6050 5494.5 0.0001820 5157.83545 5277.99365
14.6100 14.6150 5442.1 0.0001838 5151.94727 5261.29785
14.6200 14.6250 5448.1 0.0001836 5146.08496 5246.86279
14.6300 14.6350 5396.2 0.0001853 5140.24463 5234.08154
14.6400 14.6450 5380.4 0.0001859 5134.43115 5222.50977
14.6500 14.6550 5362.2 0.0001865 5128.64404 5211.82373
14.6600 14.6650 5350.4 0.0001869 5122.88037 5201.80371
14.6700 14.6750 5325.8 0.0001878 5117.14014 5192.29932
14.6800 14.6850 5305.1 0.0001885 5111.42236 5183.20459
14.6900 14.6950 5291.1 0.0001890 5105.72949 5174.68506
14.7000 14.7050 5277.5 0.0001895 5100.05908 5166.21875
14.7100 14.7150 5267.9 0.0001898 5094.41016 5157.99854
14.7200 14.7250 5219.3 0.0001916 5088.78613 5142.26514
14.7300 14.7350 5234.1 0.0001911 5083.18359 5134.56982
14.7400 14.7450 5220.7 0.0001915 5077.60156 5127.04541
14.7500 14.7550 5216.3 0.0001917 5072.04248 5119.67529
14.7600 14.7650 5167.4 0.0001935 5066.50586 5112.44971
14.7700 14.7750 5170.7 0.0001934 5060.98779 5105.35059
14.7800 14.7850 5138.8 0.0001946 5055.49414 5098.37012
14.7900 14.7950 5165.2 0.0001936 5050.01758 5091.49805
14.8000 14.8050 5100.5 0.0001961 5044.56494 5084.72705
14.8100 14.8150 5114.8 0.0001955 5039.12891 5078.04883
14.8200 14.8250 5093.5 0.0001963 5033.71533 5071.45947
14.8300 14.8350 5087.9 0.0001965 5028.31885 5064.94971
14.8400 14.8450 5069.0 0.0001973 5022.94434 5058.51807
14.8500 14.8550 5035.8 0.0001986 5017.58740 5052.15820
14.8600 14.8650 5043.0 0.0001983 5012.24951 5045.86523
14.8700 14.8750 5026.7 0.0001989 5006.93262 5039.63574
14.8800 14.8850 5018.7 0.0001993 5001.63232 5033.46875
14.8900 14.8950 4976.8 0.0002009 4996.35059 5027.35596
14.9000 14.9050 4982.8 0.0002007 4991.08740 5021.29834
14.9100 14.9150 4950.3 0.0002020 4985.84229 5015.29395
14.9200 14.9250 4976.3 0.0002010 4980.61182 5009.33936
14.9300 14.9350 4932.3 0.0002027 4975.40137 5003.43262
14.9400 14.9450 4948.5 0.0002021 4970.20898 4997.57129
14.9500 14.9550 4905.6 0.0002038 4965.03125 4991.75146
14.9600 14.9650 4934.9 0.0002026 4959.86914 4985.97412
14.9700 14.9750 4898.8 0.0002041 4954.72705 4980.23779
14.9800 14.9850 4903.1 0.0002040 4949.59912 4974.53955
14.9900 14.9950 4869.0 0.0002054 4944.48779 4968.87988
15.0000 15.0050 4916.1 0.0002034 4939.39111 4963.25439
15.0100 15.0150 4852.8 0.0002061 4934.31299 4957.66357
15.0200 15.0250 4862.6 0.0002057 4929.24658 4952.10889
15.0300 15.0350 4836.5 0.0002068 4924.19971 4946.58594
15.0400 15.0450 4859.7 0.0002058 4919.16602 4941.09375
15.0500 15.0550 4829.2 0.0002071 4914.14600 4935.63184
15.0600 15.0650 4836.8 0.0002067 4909.14160 4930.19922
15.0700 15.0750 4824.6 0.0002073 4904.15332 4924.79785
15.0800 15.0850 4798.7 0.0002084 4899.17773 4919.74268
15.0900 15.0950 4826.6 0.0002072 4894.21680 4914.39600
15.1000 15.1050 4791.9 0.0002087 4889.26855 4909.07910
15.1100 15.1150 4786.2 0.0002089 4884.33691 4903.78760
15.1200 15.1250 4780.3 0.0002092 4879.41699 4898.52051
15.1300 15.1350 4803.8 0.0002082 4874.51123 4893.27783
15.1400 15.1450 4769.0 0.0002097 4869.61816 4888.06006
15.1500 15.1550 4787.2 0.0002089 4864.74072 4882.86475
15.1600 15.1650 4778.0 0.0002093 4859.87305 4877.69336
15.1700 15.1750 4798.6 0.0002084 4855.01953 4872.54053
15.1800 15.1850 4759.1 0.0002101 4850.17871 4867.41211
15.1900 15.1950 4794.4 0.0002086 4845.35156 4862.30762
15.2000 15.2050 4757.3 0.0002102 4840.53564 4857.21973
15.2100 15.2150 4771.5 0.0002096 4835.73291 4852.15381
15.2200 15.2250 4763.5 0.0002099 4830.94141 4847.10547
15.2300 15.2350 4751.8 0.0002104 4826.16309 4842.08154
15.2400 15.2450 4783.2 0.0002091 4821.39746 4843.84814
15.2500 15.2550 4754.1 0.0002103 4816.64014 4838.94141
15.2600 15.2650 4757.0 0.0002102 4811.89648 4834.05518
15.2700 15.2750 4744.6 0.0002108 4807.16406 4829.18848
15.2800 15.2850 4743.0 0.0002108 4802.44385 4824.34033
15.2900 15.2950 4715.2 0.0002121 4797.73193 4819.51074
15.3000 15.3050 4742.3 0.0002109 4793.03516 4814.70068
15.3100 15.3150 4692.5 0.0002131 4788.34619 4809.90967
15.3200 15.3250 4709.3 0.0002123 4783.66943 4805.13721
15.3300 15.3350 4692.7 0.0002131 4779.00244 4800.38184
15.3400 15.3450 4705.7 0.0002125 4774.34717 4795.64355
15.3500 15.3550 4668.6 0.0002142 4769.70215 4790.92334
15.3600 15.3650 4710.0 0.0002123 4765.06738 4775.45459
15.3700 15.3750 4657.1 0.0002147 4760.44287 4770.92188
15.3800 15.3850 4671.2 0.0002141 4755.82813 4766.40430
15.3900 15.3950 4673.9 0.0002140 4751.22363 4761.90088
15.4000 15.4050 4664.8 0.0002144 4746.63037 4757.41064
15.4100 15.4150 4645.3 0.0002153 4742.04688 4752.93506
15.4200 15.4250 4676.7 0.0002138 4737.47168 4748.47217
15.4300 15.4350 4666.2 0.0002143 4732.90576 4744.02100
15.4400 15.4450 4654.8 0.0002148 4728.35059 4739.58691
15.4500 15.4550 4679.1 0.0002137 4723.80469 4735.16260
15.4600 15.4650 4664.9 0.0002144 4719.26904 4730.75488
15.4700 15.4750 4681.8 0.0002136 4714.74072 4726.35693
15.4800 15.4850 4654.8 0.0002148 4710.22363 4721.97510
15.4900 15.4950 4669.0 0.0002142 4705.71289 4717.60596
15.5000 15.5050 4640.6 0.0002155 4701.21387 4713.24854
15.5100 15.5150 4649.3 0.0002151 4696.72266 4708.90625
15.5200 15.5250 4614.2 0.0002167 4692.24023 4704.57764
15.5300 15.5350 4605.1 0.0002171 4687.76855 4700.26270
15.5400 15.5450 4603.7 0.0002172 4683.30273 4695.96094
15.5500 15.5550 4584.9 0.0002181 4678.84619 4691.67236
15.5600 15.5650 4564.1 0.0002191 4674.40039 4687.39795
15.5700 15.5750 4573.0 0.0002187 4669.96045 4683.13916
15.5800 15.5850 4540.4 0.0002202 4665.53027 4678.89014
15.5900 15.5950 4538.1 0.0002204 4661.10840 4674.65674
15.6000 15.6050 4534.0 0.0002206 4656.69580 4670.43848
15.6100 15.6150 4534.6 0.0002205 4652.29004 4666.23389
15.6200 15.6250 4511.6 0.0002216 4647.89209 4662.04053
15.6300 15.6350 4510.3 0.0002217 4643.50293 4657.86475
15.6400 15.6450 4520.1 0.0002212 4639.12256 4653.70459
15.6500 15.6550 4490.4 0.0002227 4634.75146 4649.55518
15.6600 15.6650 4497.9 0.0002223 4630.38574 4645.42334
15.6700 15.6750 4484.6 0.0002230 4626.02881 4641.30566
15.6800 15.6850 4486.9 0.0002229 4621.67920 4637.20410
15.6900 15.6950 4468.6 0.0002238 4617.33887 4633.11719
15.7000 15.7050 4481.0 0.0002232 4613.00488 4629.04688
15.7100 15.7150 4473.7 0.0002235 4608.67871 4624.99121
15.7200 15.7250 4468.7 0.0002238 4604.36035 4620.95313
15.7300 15.7350 4484.7 0.0002230 4600.05029 4616.93066
15.7400 15.7450 4475.1 0.0002235 4595.74658 4612.92773
15.7500 15.7550 4451.6 0.0002246 4591.45068 4609.38477
15.7600 15.7650 4447.8 0.0002248 4587.16357 4605.41943
15.7700 15.7750 4461.9 0.0002241 4582.88477 4601.47412
15.7800 15.7850 4460.9 0.0002242 4578.61279 4597.54590
15.7900 15.7950 4446.8 0.0002249 4574.34473 4593.63721
15.8000 15.8050 4452.7 0.0002246 4570.08740 4589.74658
15.8100 15.8150 4455.2 0.0002245 4565.83740 4585.87988
15.8200 15.8250 4439.2 0.0002253 4561.59375 4582.03076
15.8300 15.8350 4448.4 0.0002248 4557.35889 4578.20459
15.8400 15.8450 4449.4 0.0002247 4553.12891 4574.39941
15.8500 15.8550 4462.5 0.0002241 4548.90820 4570.61670
15.8600 15.8650 4429.4 0.0002258 4544.69336 4566.85938
15.8700 15.8750 4448.4 0.0002248 4540.48633 4563.12500
15.8800 15.8850 4435.4 0.0002255 4536.28662 4559.41748
15.8900 15.8950 4440.7 0.0002252 4532.09473 4555.73535
15.9000 15.9050 4456.4 0.0002244 4527.90820 4552.08008
15.9100 15.9150 4444.5 0.0002250 4523.72900 4548.45410
15.9200 15.9250 4431.9 0.0002256 4519.55859 4544.85986
15.9300 15.9350 4439.1 0.0002253 4515.39404 4541.29639
15.9400 15.9450 4450.7 0.0002247 4511.23779 4537.76563
15.9500 15.9550 4441.6 0.0002251 4507.08691 4534.26953
15.9600 15.9650 4439.8 0.0002252 4502.94385 4530.81104
15.9700 15.9750 4440.7 0.0002252 4498.80762 4527.39209
15.9800 15.9850 4444.9 0.0002250 4494.68018 4524.01416
15.9900 15.9950 4447.5 0.0002248 4490.55762 4520.67969
16.0000 16.0050 4444.6 0.0002250 4486.44238 4517.39111
16.0100 16.0150 4439.3 0.0002253 4482.33496 4514.15576
16.0200 16.0250 4487.5 0.0002228 4478.23291 4510.97168
16.0300 16.0350 4445.3 0.0002250 4474.13965 4507.84717
16.0400 16.0450 4470.3 0.0002237 4470.05273 4504.78662
16.0500 16.0550 4471.4 0.0002236 4465.97314 4501.79346
16.0600 16.0650 4490.3 0.0002227 4461.89893 4498.87451
16.0700 16.0750 4484.6 0.0002230 4457.83252 4496.03711
16.0800 16.0850 4506.1 0.0002219 4453.77490 4493.29102
16.0900 16.0950 4519.3 0.0002213 4449.72217 4490.64453
16.1000 16.1050 4531.8 0.0002207 4445.67529 4488.10889
16.1100 16.1150 4544.6 0.0002200 4441.63916 4485.70313
16.1200 16.1250 4554.8 0.0002196 4437.60693 4483.71973
16.1300 16.1350 4577.7 0.0002185 4433.58447 4481.64355
16.1400 16.1450 4591.3 0.0002178 4429.56689 4479.77490
16.1500 16.1550 4620.6 0.0002164 4425.55518 4478.23340
16.1600 16.1650 4628.9 0.0002160 4421.55273 4476.94629
16.1700 16.1750 4651.7 0.0002150 4417.55566 4476.08203
16.1800 16.1850 4655.1 0.0002148 4413.56738 4475.77148
16.1900 16.1950 4685.4 0.0002134 4409.58398 4476.20410
16.2000 16.2050 4664.5 0.0002144 4405.60986 4477.61963
16.2100 16.2150 4699.1 0.0002128 4401.64063 4480.31836
16.2200 16.2250 4695.1 0.0002130 4397.68018 4484.66406
16.2300 16.2350 4700.0 0.0002128 4393.72607 4491.05859
16.2400 16.2450 4681.5 0.0002136 4389.77930 4499.92188
16.2500 16.2550 4683.1 0.0002135 4385.83838 4511.64648
16.2600 16.2650 4677.0 0.0002138 4381.90576 4526.52686
16.2700 16.2750 4705.9 0.0002125 4377.97949 4544.69922
16.2800 16.2850 4697.9 0.0002129 4374.06055 4574.86816
16.2900 16.2950 4706.2 0.0002125 4370.14990 4599.04688
16.3000 16.3050 4713.1 0.0002122 4366.24512 4624.99561
16.3100 16.3150 4716.1 0.0002120 4362.34814 4651.11572
16.3200 16.3250 4738.1 0.0002111 4358.45703 4675.01123
16.3300 16.3350 4724.2 0.0002117 4354.57520 4693.58984
16.3400 16.3450 4735.7 0.0002112 4350.69922 4703.64014
16.3500 16.3550 4682.6 0.0002136 4346.83057 4702.97852
16.3600 16.3650 4698.2 0.0002128 4342.96924 4691.48145
16.3700 16.3750 4647.7 0.0002152 4339.11475 4671.16553
16.3800 16.3850 4627.7 0.0002161 4335.27002 4645.20166
16.3900 16.3950 4574.6 0.0002186 4331.42969 4616.76367
16.4000 16.4050 4570.0 0.0002188 4327.59814 4588.35547
16.4100 16.4150 4530.4 0.0002207 4323.77295 4561.68799
16.4200 16.4250 4521.0 0.0002212 4319.95459 4537.80029
16.4300 16.4350 4491.1 0.0002227 4316.14453 4517.22852
16.4400 16.4450 4478.4 0.0002233 4312.34277 4500.14746
16.4500 16.4550 4463.6 0.0002240 4308.54688 4486.47656
16.4600 16.4650 4469.8 0.0002237 4304.75928 4475.96289
16.4700 16.4750 4445.3 0.0002250 4300.97949 4468.26221
16.4800 16.4850 4436.9 0.0002254 4297.20605 4462.99854
16.4900 16.4950 4456.2 0.0002244 4293.43994 4459.81006
16.5000 16.5050 4446.0 0.0002249 4289.68311 4458.38135
16.5100 16.5150 4436.0 0.0002254 4285.93164 4458.46875
16.5200 16.5250 4433.8 0.0002255 4282.18945 4459.89697
16.5300 16.5350 4446.5 0.0002249 4278.45361 4462.57568
16.5400 16.5450 4460.4 0.0002242 4274.72510 4466.47510
16.5500 16.5550 4465.3 0.0002240 4271.00781 4471.65234
16.5600 16.5650 4468.6 0.0002238 4267.29443 4478.22705
16.5700 16.5750 4493.8 0.0002225 4263.58936 4486.40479
16.5800 16.5850 4505.4 0.0002220 4259.89307 4496.47217
16.5900 16.5950 4521.0 0.0002212 4256.20313 4508.81592
16.6000 16.6050 4538.8 0.0002203 4252.52148 4523.91846
16.6100 16.6150 4564.2 0.0002191 4248.84863 4542.35010
16.6200 16.6250 4587.9 0.0002180 4245.18164 4564.76660
16.6300 16.6350 4665.8 0.0002143 4241.52490 4591.86670
16.6400 16.6450 4669.6 0.0002142 4237.87549 4624.34229
16.6500 16.6550 4741.5 0.0002109 4234.23242 4662.82715
16.6600 16.6650 4818.5 0.0002075 4230.59668 4707.82764
16.6700 16.6750 4865.0 0.0002055 4226.97070 4759.64355
16.6800 16.6850 4952.2 0.0002019 4223.35205 4818.30371
16.6900 16.6950 5049.9 0.0001980 4219.74170 4883.46973
16.7000 16.7050 5166.1 0.0001936 4216.13965 4954.33057
16.7100 16.7150 5246.0 0.0001906 4212.54395 5029.59912
16.7200 16.7250 5349.6 0.0001869 4208.95850 5107.78369
16.7300 16.7350 5448.9 0.0001835 4205.37939 5188.15430
16.7400 16.7450 5556.8 0.0001800 4201.80908 5272.34424
16.7500 16.7550 5669.1 0.0001764 4198.24707 5365.90039
16.7600 16.7650 5792.6 0.0001726 4194.69336 5478.58887
16.7700 16.7750 5938.9 0.0001684 4191.14697 5623.21680
16.7800 16.7850 6137.2 0.0001629 4187.60938 5813.87891
16.7900 16.7950 6383.2 0.0001567 4184.08008 6064.40576
16.8000 16.8050 6668.6 0.0001500 4180.55908 6387.13525
16.8100 16.8150 7045.1 0.0001419 4177.04590 6794.13232
16.8200 16.8250 7460.9 0.0001340 4173.54199 7285.86230
16.8300 16.8350 7960.7 0.0001256 4170.04639 7879.25732
16.8400 16.8450 8470.5 0.0001181 4166.55762 8535.11621
16.8500 16.8550 9051.0 0.0001105 4163.07861 9248.08691
16.8600 16.8650 9550.9 0.0001047 4159.60742 9982.49316
16.8700 16.8750 10043.4 0.0000996 4156.14404 10683.29688
16.8800 16.8850 10380.6 0.0000963 4152.69043 11275.50391
16.8900 16.8950 10618.8 0.0000942 4149.24463 11673.76270
16.9000 16.9050 10640.4 0.0000940 4145.80811 11806.58789
16.9100 16.9150 10546.5 0.0000948 4142.37891 11646.27930
16.9200 16.9250 10265.8 0.0000974 4138.95898 11222.59473
16.9300 16.9350 9818.1 0.0001019 4135.54736 10607.81152
16.9400 16.9450 9301.8 0.0001075 4132.14453 9886.62500
16.9500 16.9550 8738.4 0.0001144 4128.75098 9132.57227
16.9600 16.9650 8177.6 0.0001223 4125.36523 8405.19238
16.9700 16.9750 7614.4 0.0001313 4121.98828 7726.74707
16.9800 16.9850 7110.6 0.0001406 4118.62109 7122.65137
16.9900 16.9950 6668.7 0.0001500 4115.26221 6601.35742
17.0000 17.0050 6276.5 0.0001593 4111.91064 6163.45898
17.0100 17.0150 5943.2 0.0001683 4108.56885 5804.07178
17.0200 17.0250 5664.8 0.0001765 4105.23584 5514.82959
17.0300 17.0350 5425.8 0.0001843 4101.91211 5285.56543
17.0400 17.0450 5218.1 0.0001916 4098.59717 5105.66992
17.0500 17.0550 5070.2 0.0001972 4095.29028 4965.10498
17.0600 17.0650 4912.5 0.0002036 4091.99365 4855.02881
17.0700 17.0750 4823.2 0.0002073 4088.70459 4768.09180
17.0800 17.0850 4723.4 0.0002117 4085.42725 4698.47510
17.0900 17.0950 4641.3 0.0002155 4082.15552 4641.75000
17.1000 17.1050 4575.1 0.0002186 4078.89355 4594.65967
17.1100 17.1150 4521.7 0.0002212 4075.64209 4554.85791
17.1200 17.1250 4479.8 0.0002232 4072.39941 4520.68652
17.1300 17.1350 4435.6 0.0002254 4069.16479 4490.97510
17.1400 17.1450 4399.4 0.0002273 4065.93970 4464.89697
17.1500 17.1550 4370.4 0.0002288 4062.72363 4441.85547
17.1600 17.1650 4359.8 0.0002294 4059.51685 4421.41211
17.1700 17.1750 4334.1 0.0002307 4056.31885 4403.24023
17.1800 17.1850 4307.0 0.0002322 4053.13086 4387.09180
17.1900 17.1950 4305.6 0.0002323 4049.95142 4372.78271
17.2000 17.2050 4315.0 0.0002318 4046.78125 4360.18018
17.2100 17.2150 4301.7 0.0002325 4043.62231 4349.20459
17.2200 17.2250 4304.7 0.0002323 4040.46973 4339.83252
17.2300 17.2350 4304.2 0.0002323 4037.32861 4332.10010
17.2400 17.2450 4322.8 0.0002313 4034.19556 4326.11963
17.2500 17.2550 4326.5 0.0002311 4031.07153 4322.08301
17.2600 17.2650 4356.0 0.0002296 4027.95874 4320.27979
17.2700 17.2750 4370.1 0.0002288 4024.85303 4321.10059
17.2800 17.2850 4417.5 0.0002264 4021.75757 4325.02295
17.2900 17.2950 4460.3 0.0002242 4018.67334 4332.60596
17.3000 17.3050 4507.0 0.0002219 4015.59839 4344.43506
17.3100 17.3150 4563.2 0.0002191 4012.53174 4361.07178
17.3200 17.3250 4643.9 0.0002153 4009.47412 4382.97266
17.3300 17.3350 4719.9 0.0002119 4006.42700 4410.38867
17.3400 17.3450 4814.4 0.0002077 4003.38916 4443.25586
17.3500 17.3550 4907.2 0.0002038 4000.36011 4481.04297
17.3600 17.3650 4995.9 0.0002002 3997.34106 4522.58301
17.3700 17.3750 5120.8 0.0001953 3994.33203 4565.83057
17.3800 17.3850 5173.3 0.0001933 3991.33325 4607.61426
17.3900 17.3950 5225.2 0.0001914 3988.34253 4643.56494
17.4000 17.4050 5234.9 0.0001910 3985.36353 4668.61084
17.4100 17.4150 5230.6 0.0001912 3982.39404 4678.30078
17.4200 17.4250 5206.7 0.0001921 3979.43286 4670.56738
17.4300 17.4350 5132.2 0.0001948 3976.48047 4646.73291
17.4400 17.4450 5063.7 0.0001975 3973.53931 4610.85547
17.4500 17.4550 4954.5 0.0002018 3970.60815 4568.03076
17.4600 17.4650 4883.7 0.0002048 3967.68726 4522.88037
17.4700 17.4750 4776.5 0.0002094 3964.77515 4478.88623
17.4800 17.4850 4703.4 0.0002126 3961.87354 4438.36035
17.4900 17.4950 4633.9 0.0002158 3958.98120 4402.67090
17.5000 17.5050 4570.6 0.0002188 3956.09863 4372.50732
17.5100 17.5150 4496.9 0.0002224 3953.22681 4348.06250
17.5200 17.5250 4471.6 0.0002236 3950.36377 4329.17578
17.5300 17.5350 4410.1 0.0002268 3947.51196 4315.47314
17.5400 17.5450 4406.5 0.0002269 3944.66895 4306.45557
17.5500 17.5550 4366.1 0.0002290 3941.83667 4301.59424
17.5600 17.5650 4350.1 0.0002299 3939.01440 4300.40479
17.5700 17.5750 4347.9 0.0002300 3936.20093 4302.48730
17.5800 17.5850 4359.1 0.0002294 3933.39844 4307.57666
17.5900 17.5950 4345.6 0.0002301 3930.60645 4315.55762
17.6000 17.6050 4361.0 0.0002293 3927.82422 4326.48193
17.6100 17.6150 4370.8 0.0002288 3925.05176 4340.58301
17.6200 17.6250 4403.4 0.0002271 3922.28955 4358.27881
17.6300 17.6350 4414.7 0.0002265 3919.53784 4380.18555
17.6400 17.6450 4438.1 0.0002253 3916.79492 4407.10400
17.6500 17.6550 4461.6 0.0002241 3914.06323 4440.01758
17.6600 17.6650 4492.1 0.0002226 3911.34106 4480.04199
17.6700 17.6750 4527.6 0.0002209 3908.62939 4528.39014
17.6800 17.6850 4548.4 0.0002199 3905.92725 4586.26270
17.6900 17.6950 4594.2 0.0002177 3903.23608 4654.77734
17.7000 17.7050 4662.3 0.0002145 3900.55518 4734.84570
17.7100 17.7150 4721.8 0.0002118 3897.88501 4827.05176
17.7200 17.7250 4787.4 0.0002089 3895.22339 4931.52246
17.7300 17.7350 4884.0 0.0002048 3892.57373 5047.75391
17.7400 17.7450 4986.4 0.0002005 3889.93384 5174.40576
17.7500 17.7550 5072.2 0.0001972 3887.30371 5309.16016
17.7600 17.7650 5164.2 0.0001936 3884.68433 5448.96289
17.7700 17.7750 5239.7 0.0001909 3882.07593 5597.09570
17.7800 17.7850 5326.1 0.0001878 3879.47607 5741.82959
17.7900 17.7950 5425.4 0.0001843 3876.88745 5894.29883
17.8000 17.8050 5522.4 0.0001811 3874.31055 6066.03076
17.8100 17.8150 5661.6 0.0001766 3871.74219 6273.39697
17.8200 17.8250 5859.4 0.0001707 3869.18457 6534.71631
17.8300 17.8350 6117.8 0.0001635 3866.63867 6867.31201
17.8400 17.8450 6507.7 0.0001537 3864.10107 7285.23682
17.8500 17.8550 7032.1 0.0001422 3861.57568 7797.43506
17.8600 17.8650 7756.9 0.0001289 3859.06079 8406.02734
17.8700 17.8750 8642.3 0.0001157 3856.55493 9104.25195
17.8800 17.8850 9837.9 0.0001016 3854.06104 9873.69629
17.8900 17.8950 11105.2 0.0000900 3851.57690 10680.50293
17.9000 17.9050 12331.8 0.0000811 3849.10205 11471.13281
17.9100 17.9150 13664.5 0.0000732 3846.63989 12170.45215
17.9200 17.9250 14478.2 0.0000691 3844.18726 12688.17090
17.9300 17.9350 14929.3 0.0000670 3841.74512 12939.34766
17.9400 17.9450 14845.7 0.0000674 3839.31421 12874.96484
17.9500 17.9550 14370.1 0.0000696 3836.89307 12503.87012
17.9600 17.9650 13353.6 0.0000749 3834.48291 11888.19727
17.9700 17.9750 12040.5 0.0000831 3832.08374 11116.21777
17.9800 17.9850 10687.2 0.0000936 3829.69385 10273.63477
17.9900 17.9950 9467.9 0.0001056 3827.31543 9427.84570
18.0000 18.0050 8267.2 0.0001210 3824.94873 8624.82129
18.0100 18.0150 7301.2 0.0001370 3822.59058 7893.35107
18.0200 18.0250 6550.9 0.0001527 3820.24487 7248.07617
18.0300 18.0350 5956.9 0.0001679 3817.90894 6694.14014
18.0400 18.0450 5527.9 0.0001809 3815.58398 6229.74854
18.0500 18.0550 5199.7 0.0001923 3813.27051 5848.36523
18.0600 18.0650 4928.8 0.0002029 3810.96680 5540.52783
18.0700 18.0750 4777.6 0.0002093 3808.67407 5295.39990
18.0800 18.0850 4641.7 0.0002154 3806.39087 5101.97168
18.0900 18.0950 4537.0 0.0002204 3804.11987 4949.96484
18.1000 18.1050 4442.0 0.0002251 3801.85913 4830.36621
18.1100 18.1150 4394.2 0.0002276 3799.60962 4735.66992
18.1200 18.1250 4346.7 0.0002301 3797.37012 4659.89307
18.1300 18.1350 4311.3 0.0002319 3795.14185 4598.44336
18.1400 18.1450 4293.1 0.0002329 3792.92505 4547.89160
18.1500 18.1550 4255.3 0.0002350 3790.71777 4505.73877
18.1600 18.1650 4252.4 0.0002352 3788.52344 4470.18408
18.1700 18.1750 4235.0 0.0002361 3786.33789 4439.94092
18.1800 18.1850 4229.4 0.0002364 3784.16431 4414.08105
18.1900 18.1950 4202.6 0.0002379 3782.00122 4391.92773
18.2000 18.2050 4234.7 0.0002361 3779.84863 4372.98145
18.2100 18.2150 4211.3 0.0002375 3777.70801 4356.85205
18.2200 18.2250 4220.7 0.0002369 3775.57715 4343.24609
18.2300 18.2350 4198.1 0.0002382 3773.45752 4331.92432
18.2400 18.2450 4230.3 0.0002364 3771.34937 4322.69629
18.2500 18.2550 4212.8 0.0002374 3769.25171 4315.40869
18.2600 18.2650 4224.4 0.0002367 3767.16553 4309.93848
18.2700 18.2750 4234.7 0.0002361 3765.09058 4306.18799
18.2800 18.2850 4243.1 0.0002357 3763.02539 4304.08057
18.2900 18.2950 4244.8 0.0002356 3760.97217 4303.55762
18.3000 18.3050 4252.4 0.0002352 3758.92993 4304.58301
18.3100 18.3150 4283.0 0.0002335 3756.89771 4307.13281
18.3200 18.3250 4271.7 0.0002341 3754.87769 4311.20068
18.3300 18.3350 4299.3 0.0002326 3752.86865 4317.21924
18.3400 18.3450 4301.1 0.0002325 3750.86914 4324.36328
18.3500 18.3550 4299.6 0.0002326 3748.88184 4333.08984
18.3600 18.3650 4305.6 0.0002323 3746.90601 4343.45068
18.3700 18.3750 4344.7 0.0002302 3744.94043 4355.51318
18.3800 18.3850 4326.0 0.0002312 3742.98682 4369.36182
18.3900 18.3950 4349.8 0.0002299 3741.04321 4384.76953
18.4000 18.4050 4368.1 0.0002289 3739.11182 4402.50830
18.4100 18.4150 4375.5 0.0002285 3737.19116 4422.39063
18.4200 18.4250 4400.2 0.0002273 3735.28076 4444.57959
18.4300 18.4350 4435.6 0.0002254 3733.38379 4469.26709
18.4400 18.4450 4448.8 0.0002248 3731.49609 4496.67139
18.4500 18.4550 4495.3 0.0002225 3729.62085 4527.04639
18.4600 18.4650 4524.3 0.0002210 3727.75586 4560.69238
18.4700 18.4750 4540.8 0.0002202 3725.90161 4597.94531
18.4800 18.4850 4584.1 0.0002181 3724.05933 4639.20508
18.4900 18.4950 4649.3 0.0002151 3722.22778 4684.93848
18.5000 18.5050 4707.0 0.0002124 3720.40918 4735.69287
18.5100 18.5150 4744.0 0.0002108 3718.60059 4792.12988
18.5200 18.5250 4814.8 0.0002077 3716.80298 4855.05225
18.5300 18.5350 4907.4 0.0002038 3715.01636 4925.45410
18.5400 18.5450 4982.0 0.0002007 3713.24121 5004.60498
18.5500 18.5550 5055.4 0.0001978 3711.47803 5094.16016
18.5600 18.5650 5163.7 0.0001937 3709.72656 5189.54932
18.5700 18.5750 5309.1 0.0001884 3707.98560 5307.37012
18.5800 18.5850 5422.5 0.0001844 3706.25513 5444.82178
18.5900 18.5950 5586.6 0.0001790 3704.53711 5607.42139
18.6000 18.6050 5762.2 0.0001735 3702.82983 5802.60352
18.6100 18.6150 5978.5 0.0001673 3701.13477 6040.22900
18.6200 18.6250 6243.7 0.0001602 3699.45044 6333.06348
18.6300 18.6350 6573.5 0.0001521 3697.77832 6697.13770
18.6400 18.6450 6923.7 0.0001444 3696.11719 7151.87305
18.6500 18.6550 7416.7 0.0001348 3694.46729 7720.93408
18.6600 18.6650 8028.4 0.0001246 3692.82861 8426.90820
18.6700 18.6750 8756.1 0.0001142 3691.20068 9296.58105
18.6800 18.6850 9678.2 0.0001033 3689.58472 10354.29492
18.6900 18.6950 10864.3 0.0000920 3687.98096 11620.17285
18.7000 18.7050 12377.2 0.0000808 3686.38818 13106.55566
18.7100 18.7150 14144.5 0.0000707 3684.80737 14813.64648
18.7200 18.7250 16348.2 0.0000612 3683.23657 16724.15820
18.7300 18.7350 18879.0 0.0000530 3681.67871 18796.61914
18.7400 18.7450 21711.6 0.0000461 3680.13135 20957.53516
18.7500 18.7550 24510.7 0.0000408 3678.59595 23094.09375
18.7600 18.7650 27236.8 0.0000367 3677.07202 25052.32617
18.7700 18.7750 29495.8 0.00003390 3675.56006 26648.52539
18.7800 18.7850 30875.8 0.00003239 3674.05859 27701.61914
18.7900 18.7950 31499.7 0.00003175 3672.56982 28085.31445
18.8000 18.8050 31033.0 0.00003222 3671.09204 27779.17383
18.8100 18.8150 29942.0 0.00003340 3669.62573 26883.99414
18.8200 18.8250 28246.6 0.0000354 3668.17065 25585.80273
18.8300 18.8350 26209.7 0.0000382 3666.72803 24092.91406
18.8400 18.8450 24179.5 0.0000414 3665.29663 22584.36914
18.8500 18.8550 22422.9 0.0000446 3663.87622 21186.49609
18.8600 18.8650 21128.4 0.0000473 3662.46826 19970.49805
18.8700 18.8750 19978.3 0.0000501 3661.07129 18958.08008
18.8800 18.8850 19201.4 0.0000521 3659.68579 18127.74609
18.8900 18.8950 18642.6 0.0000536 3658.31274 17421.86523
18.9000 18.9050 18123.7 0.0000552 3656.95093 16759.23828
18.9100 18.9150 17493.8 0.0000572 3655.60083 16057.19434
18.9200 18.9250 16771.2 0.0000596 3654.26221 15258.81543
18.9300 18.9350 15798.1 0.0000633 3652.93555 14350.91113
18.9400 18.9450 14785.1 0.0000676 3651.61987 13360.91895
18.9500 18.9550 13644.5 0.0000733 3650.31714 12337.30957
18.9600 18.9650 12379.2 0.0000808 3649.02515 11328.91211
18.9700 18.9750 11227.5 0.0000891 3647.74487 10373.44336
18.9800 18.9850 10184.8 0.0000982 3646.47632 9495.19727
18.9900 18.9950 9189.5 0.0001088 3645.21924 8707.21973
19.0000 19.0050 8353.7 0.0001197 3643.97437 8014.33936
19.0100 19.0150 7656.1 0.0001306 3642.74170 7415.61670
19.0200 19.0250 7076.5 0.0001413 3641.52075 6906.08105
19.0300 19.0350 6597.2 0.0001516 3640.31006 6478.04346
19.0400 19.0450 6189.4 0.0001616 3639.11182 6122.16455
19.0500 19.0550 5834.9 0.0001714 3637.92700 5828.38232
19.0600 19.0650 5604.9 0.0001784 3636.75146 5586.68896
19.0700 19.0750 5372.7 0.0001861 3635.58887 5387.28760
19.0800 19.0850 5197.4 0.0001924 3634.43701 5222.76904
19.0900 19.0950 5014.4 0.0001994 3633.29785 5085.62109
19.1000 19.1050 4910.5 0.0002036 3632.17065 4970.05713
19.1100 19.1150 4806.4 0.0002081 3631.05493 4871.48486
19.1200 19.1250 4713.3 0.0002122 3629.95093 4786.35449
19.1300 19.1350 4599.5 0.0002174 3628.85889 4711.96191
19.1400 19.1450 4553.7 0.0002196 3627.77856 4646.28174
19.1500 19.1550 4508.9 0.0002218 3626.70972 4587.78955
19.1600 19.1650 4427.0 0.0002259 3625.65332 4535.34229
19.1700 19.1750 4383.3 0.0002281 3624.60889 4488.06494
19.1800 19.1850 4345.1 0.0002301 3623.57495 4445.27734
19.1900 19.1950 4310.7 0.0002320 3622.55371 4406.43750
19.2000 19.2050 4274.8 0.0002339 3621.54346 4371.41943
19.2100 19.2150 4245.2 0.0002356 3620.54688 4339.24023
19.2200 19.2250 4214.3 0.0002373 3619.56104 4309.90137
19.2300 19.2350 4205.3 0.0002378 3618.58618 4283.14502
19.2400 19.2450 4180.8 0.0002392 3617.62476 4258.75049
19.2500 19.2550 4150.6 0.0002409 3616.67407 4236.52637
19.2600 19.2650 4137.8 0.0002417 3615.73608 4216.31152
19.2700 19.2750 4129.4 0.0002422 3614.80957 4197.96436
19.2800 19.2850 4120.4 0.0002427 3613.89380 4181.36377
19.2900 19.2950 4090.5 0.0002445 3612.99170 4166.41064
19.3000 19.3050 4077.4 0.0002453 3612.10034 4153.02100
19.3100 19.3150 4087.3 0.0002447 3611.22046 4141.12061
19.3200 19.3250 4072.8 0.0002455 3610.35327 4130.65820
19.3300 19.3350 4051.0 0.0002469 3609.49756 4121.58838
19.3400 19.3450 4049.2 0.0002470 3608.65430 4113.88330
19.3500 19.3550 4077.4 0.0002453 3607.82227 4107.52539
19.3600 19.3650 4056.8 0.0002465 3607.00244 4102.50879
19.3700 19.3750 4058.0 0.0002464 3606.19360 4098.84619
19.3800 19.3850 4051.3 0.0002468 3605.39844 4096.55518
19.3900 19.3950 4065.1 0.0002460 3604.61353 4095.67334
19.4000 19.4050 4059.6 0.0002463 3603.84082 4096.25439
19.4100 19.4150 4074.0 0.0002455 3603.07959 4098.36475
19.4200 19.4250 4064.7 0.0002460 3602.33105 4102.09570
19.4300 19.4350 4093.8 0.0002443 3601.59277 4107.55908
19.4400 19.4450 4103.2 0.0002437 3600.86792 4114.21924
19.4500 19.4550 4117.3 0.0002429 3600.15503 4123.61670
19.4600 19.4650 4117.2 0.0002429 3599.45410 4135.21777
19.4700 19.4750 4166.9 0.0002400 3598.76416 4149.45703
19.4800 19.4850 4183.3 0.0002390 3598.08569 4166.63574
19.4900 19.4950 4202.5 0.0002380 3597.41846 4187.25732
19.5000 19.5050 4244.3 0.0002356 3596.76587 4211.99707
19.5100 19.5150 4303.8 0.0002324 3596.12231 4243.73096
19.5200 19.5250 4350.0 0.0002299 3595.49170 4279.82715
19.5300 19.5350 4393.0 0.0002276 3594.87256 4323.92480
19.5400 19.5450 4469.5 0.0002237 3594.26563 4378.31201
19.5500 19.5550 4565.7 0.0002190 3593.67017 4445.98828
19.5600 19.5650 4643.9 0.0002153 3593.08667 4530.80371
19.5700 19.5750 4781.4 0.0002091 3592.51440 4637.53516
19.5800 19.5850 4918.2 0.0002033 3591.95508 4771.89990
19.5900 19.5950 5101.2 0.0001960 3591.40649 4931.66260
19.6000 19.6050 5314.1 0.0001882 3590.86963 5141.61230
19.6100 19.6150 5577.4 0.0001793 3590.34424 5400.11768
19.6200 19.6250 5872.6 0.0001703 3589.83105 5713.94775
19.6300 19.6350 6287.9 0.0001590 3589.32935 6088.59033
19.6400 19.6450 6749.7 0.0001482 3588.83960 6539.52295
19.6500 19.6550 7285.3 0.0001373 3588.36206 7042.17627
19.6600 19.6650 7877.6 0.0001269 3587.89502 7603.61523
19.6700 19.6750 8614.3 0.0001161 3587.44043 8211.99609
19.6800 19.6850 9303.9 0.0001075 3586.99780 8846.16211
19.6900 19.6950 9991.6 0.0001001 3586.56641 9472.75879
19.7000 19.7050 10592.3 0.0000944 3586.14697 10044.38086
19.7100 19.7150 11046.4 0.0000905 3585.73730 10501.87305
19.7200 19.7250 11310.1 0.0000884 3585.34131 10785.19434
19.7300 19.7350 11323.9 0.0000883 3584.95605 10848.32910
19.7400 19.7450 11123.1 0.0000899 3584.58350 10680.94043
19.7500 19.7550 10746.6 0.0000931 3584.22119 10310.29590
19.7600 19.7650 10192.9 0.0000981 3583.87134 9790.48828
19.7700 19.7750 9498.4 0.0001053 3583.53247 9183.40039
19.7800 19.7850 8808.3 0.0001135 3583.20483 8543.76172
19.7900 19.7950 8143.2 0.0001228 3582.88867 7912.77979
19.8000 19.8050 7492.2 0.0001335 3582.58472 7318.12695
19.8100 19.8150 6920.3 0.0001445 3582.29272 6776.53809
19.8200 19.8250 6394.9 0.0001564 3582.01123 6296.60840
19.8300 19.8350 5960.2 0.0001678 3581.74097 5881.06592
19.8400 19.8450 5617.6 0.0001780 3581.48242 5528.44385
19.8500 19.8550 5299.2 0.0001887 3581.23535 5234.38965
19.8600 19.8650 5058.2 0.0001977 3580.99976 4992.73730
19.8700 19.8750 4845.5 0.0002064 3580.77417 4796.41162
19.8800 19.8850 4692.2 0.0002131 3580.56177 4638.14502
19.8900 19.8950 4530.8 0.0002207 3580.35962 4511.01514
19.9000 19.9050 4418.8 0.0002263 3580.16870 4408.80811
19.9100 19.9150 4322.6 0.0002313 3579.98926 4326.20850
19.9200 19.9250 4255.8 0.0002350 3579.82080 4258.84229
19.9300 19.9350 4168.6 0.0002399 3579.66406 4203.23633
19.9400 19.9450 4121.4 0.0002426 3579.51880 4156.71143
19.9500 19.9550 4077.9 0.0002452 3579.38403 4117.24463
19.9600 19.9650 4040.6 0.0002475 3579.26025 4083.33398
19.9700 19.9750 4014.7 0.0002491 3579.14771 4053.87231
19.9800 19.9850 3971.7 0.0002518 3579.04565 4028.05054
19.9900 19.9950 3929.0 0.0002545 3578.95679 4005.26709
20.0000 20.0050 3930.4 0.0002544 3578.87720 3985.07568
20.0100 20.0150 3913.8 0.0002555 3578.80811 3967.13428
20.0200 20.0250 3870.4 0.0002584 3578.75146 3951.18237
20.0300 20.0350 3868.4 0.0002585 3578.70581 3937.19751
20.0400 20.0450 3884.0 0.0002575 3578.67017 3924.66650
20.0500 20.0550 3854.1 0.0002595 3578.64502 3913.65210
20.0600 20.0650 3846.6 0.0002600 3578.63184 3904.07886
20.0700 20.0750 3826.8 0.0002613 3578.62817 3895.90625
20.0800 20.0850 3853.0 0.0002595 3578.63647 3889.13525
20.0900 20.0950 3830.6 0.0002611 3578.65479 3883.82031
20.1000 20.1050 3819.0 0.0002618 3578.68408 3882.33545
20.1100 20.1150 3811.4 0.0002624 3578.72437 3880.31763
20.1200 20.1250 3832.6 0.0002609 3578.77466 3880.24854
20.1300 20.1350 3841.0 0.0002603 3578.83521 3882.42432
20.1400 20.1450 3819.6 0.0002618 3578.90698 3887.20190
20.1500 20.1550 3835.9 0.0002607 3578.98926 3894.98853
20.1600 20.1650 3834.8 0.0002608 3579.08130 3906.21973
20.1700 20.1750 3854.8 0.0002594 3579.18506 3921.32300
20.1800 20.1850 3859.1 0.0002591 3579.29834 3940.67358
20.1900 20.1950 3865.1 0.0002587 3579.42236 3964.54077
20.2000 20.2050 3903.0 0.0002562 3579.55688 3993.02246
20.2100 20.2150 3931.4 0.0002544 3579.70093 4025.96338
20.2200 20.2250 3919.1 0.0002552 3579.85571 4062.84888
20.2300 20.2350 3951.1 0.0002531 3580.02173 4102.67285
20.2400 20.2450 3992.5 0.0002505 3580.19629 4143.76025
20.2500 20.2550 4008.6 0.0002495 3580.38257 4183.58398
20.2600 20.2650 4029.5 0.0002482 3580.57690 4218.73975
20.2700 20.2750 4038.8 0.0002476 3580.78320 4245.24365
20.2800 20.2850 4039.5 0.0002476 3580.99829 4259.37695
20.2900 20.2950 4047.8 0.0002470 3581.22266 4258.88672
20.3000 20.3050 4029.6 0.0002482 3581.45874 4243.88623
20.3100 20.3150 4017.3 0.0002489 3581.70337 4216.81299
20.3200 20.3250 4017.2 0.0002489 3581.95776 4181.48291
20.3300 20.3350 3988.9 0.0002507 3582.22266 4141.89600
20.3400 20.3450 3958.0 0.0002527 3582.49634 4101.44629
20.3500 20.3550 3939.3 0.0002539 3582.78101 4062.64648
20.3600 20.3650 3933.7 0.0002542 3583.07471 4027.19629
20.3700 20.3750 3905.2 0.0002561 3583.37769 3996.16309
20.3800 20.3850 3892.2 0.0002569 3583.68970 3970.17017
20.3900 20.3950 3867.8 0.0002585 3584.01221 3949.54419
20.4000 20.4050 3885.6 0.0002574 3584.34424 3934.43628
20.4100 20.4150 3881.2 0.0002577 3584.68408 3924.91602
20.4200 20.4250 3872.1 0.0002583 3585.03442 3921.06445
20.4300 20.4350 3866.7 0.0002586 3585.39453 3923.03564
20.4400 20.4450 3900.4 0.0002564 3585.76294 3931.12695
20.4500 20.4550 3916.7 0.0002553 3586.14038 3945.79883
20.4600 20.4650 3927.7 0.0002546 3586.52637 3967.69678
20.4700 20.4750 3962.7 0.0002524 3586.92188 3997.61304
20.4800 20.4850 4017.5 0.0002489 3587.32666 4036.43311
20.4900 20.4950 4063.2 0.0002461 3587.73999 4085.04907
20.5000 20.5050 4114.2 0.0002431 3588.16260 4144.22510
20.5100 20.5150 4191.5 0.0002386 3588.59351 4214.45996
20.5200 20.5250 4304.9 0.0002323 3589.03320 4295.80566
20.5300 20.5350 4398.1 0.0002274 3589.48193 4387.64404
20.5400 20.5450 4516.3 0.0002214 3589.93921 4488.42383
20.5500 20.5550 4639.3 0.0002155 3590.40430 4595.26953
20.5600 20.5650 4792.3 0.0002087 3590.87817 4703.54199
20.5700 20.5750 4899.4 0.0002041 3591.36084 4806.43555
20.5800 20.5850 4993.2 0.0002003 3591.85132 4894.98584
20.5900 20.5950 5037.3 0.0001985 3592.34961 4959.08154
20.6000 20.6050 5086.6 0.0001966 3592.85693 4989.76123
20.6100 20.6150 5063.8 0.0001975 3593.37305 4982.19287
20.6200 20.6250 5018.9 0.0001992 3593.89624 4937.59229
20.6300 20.6350 4938.3 0.0002025 3594.42700 4862.71924
20.6400 20.6450 4850.1 0.0002062 3594.96680 4767.31055
20.6500 20.6550 4743.5 0.0002108 3595.51343 4661.21240
20.6600 20.6650 4606.2 0.0002171 3596.06909 4552.57275
20.6700 20.6750 4524.4 0.0002210 3596.63110 4447.29053
20.6800 20.6850 4440.6 0.0002252 3597.20142 4349.21973
20.6900 20.6950 4353.1 0.0002297 3597.77930 4260.62109
20.7000 20.7050 4258.0 0.0002349 3598.36401 4182.58447
20.7100 20.7150 4197.3 0.0002382 3598.95728 4115.34912
20.7200 20.7250 4149.1 0.0002410 3599.55664 4056.08228
20.7300 20.7350 4097.8 0.0002440 3600.16455 4008.98364
20.7400 20.7450 4037.8 0.0002477 3600.78003 3970.53101
20.7500 20.7550 4007.8 0.0002495 3601.40112 3924.41626
20.7600 20.7650 4003.5 0.0002498 3602.03052 3899.95703
20.7700 20.7750 3944.8 0.0002535 3602.66577 3880.73291
20.7800 20.7850 3929.4 0.0002545 3603.30859 3865.75488
20.7900 20.7950 3907.6 0.0002559 3603.95728 3854.17651
20.8000 20.8050 3899.7 0.0002564 3604.61401 3845.29614
20.8100 20.8150 3891.2 0.0002570 3605.27661 3838.55493
20.8200 20.8250 3862.6 0.0002589 3605.94556 3833.52051
20.8300 20.8350 3860.3 0.0002590 3606.62207 3829.86426
20.8400 20.8450 3851.9 0.0002596 3607.30420 3827.33984
20.8500 20.8550 3851.3 0.0002597 3607.99365 3825.77002
20.8600 20.8650 3834.9 0.0002608 3608.68750 3825.02612
20.8700 20.8750 3832.6 0.0002609 3609.38843 3818.97852
20.8800 20.8850 3838.3 0.0002605 3610.09595 3819.70239
20.8900 20.8950 3830.5 0.0002611 3610.80859 3821.05615
20.9000 20.9050 3815.1 0.0002621 3611.52808 3829.97583
20.9100 20.9150 3814.0 0.0002622 3612.25293 3832.58887
20.9200 20.9250 3829.1 0.0002612 3612.98438 3835.80249
20.9300 20.9350 3823.4 0.0002615 3613.71973 3839.63550
20.9400 20.9450 3811.3 0.0002624 3614.46265 3844.12720
20.9500 20.9550 3817.8 0.0002619 3615.20947 3849.33545
20.9600 20.9650 3835.0 0.0002608 3615.96216 3855.34448
20.9700 20.9750 3826.1 0.0002614 3616.72119 3862.26733
20.9800 20.9850 3830.3 0.0002611 3617.48486 3870.25391
20.9900 20.9950 3846.7 0.0002600 3618.25342 3879.48779
21.0000 21.0050 3847.3 0.0002599 3619.02637 3890.19604
21.0100 21.0150 3856.0 0.0002593 3619.80493 3902.63916
21.0200 21.0250 3857.7 0.0002592 3620.58911 3917.11108
21.0300 21.0350 3872.9 0.0002582 3621.37646 3933.91797
21.0400 21.0450 3902.3 0.0002563 3622.16943 3953.37158
21.0500 21.0550 3906.3 0.0002560 3622.96680 3975.75024
21.0600 21.0650 3952.6 0.0002530 3623.76855 4001.27832
21.0700 21.0750 3964.1 0.0002523 3624.57471 4030.08350
21.0800 21.0850 4004.1 0.0002497 3625.38477 4062.15259
21.0900 21.0950 4024.3 0.0002485 3626.20068 4097.26904
21.1000 21.1050 4079.7 0.0002451 3627.01880 4134.94727
21.1100 21.1150 4099.6 0.0002439 3627.84253 4174.30615
21.1200 21.1250 4165.3 0.0002401 3628.66895 4213.98633
21.1300 21.1350 4198.9 0.0002382 3629.49951 4252.06348
21.1400 21.1450 4228.9 0.0002365 3630.33374 4286.16016
21.1500 21.1550 4262.4 0.0002346 3631.17236 4313.83887
21.1600 21.1650 4303.5 0.0002324 3632.01367 4333.27051
21.1700 21.1750 4308.0 0.0002321 3632.85889 4343.93652
21.1800 21.1850 4315.0 0.0002318 3633.70703 4346.86865
21.1900 21.1950 4310.7 0.0002320 3634.55908 4344.29736
21.2000 21.2050 4320.2 0.0002315 3635.41406 4338.95068
21.2100 21.2150 4319.8 0.0002315 3636.27100 4333.42285
21.2200 21.2250 4296.8 0.0002327 3637.13257 4329.85010
21.2300 21.2350 4295.8 0.0002328 3637.99609 4329.87012
21.2400 21.2450 4334.7 0.0002307 3638.86230 4334.72705
21.2500 21.2550 4330.7 0.0002309 3639.73242 4345.40430
21.2600 21.2650 4356.5 0.0002295 3640.60278 4362.75195
21.2700 21.2750 4395.6 0.0002275 3641.47656 4387.59717
21.2800 21.2850 4443.6 0.0002250 3642.35303 4420.83008
21.2900 21.2950 4502.8 0.0002221 3643.23267 4463.48730
21.3000 21.3050 4550.1 0.0002198 3644.11206 4516.80615
21.3100 21.3150 4636.1 0.0002157 3644.99438 4582.27344
21.3200 21.3250 4731.7 0.0002113 3645.87939 4661.64355
21.3300 21.3350 4827.1 0.0002072 3646.76636 4756.93262
21.3400 21.3450 4949.2 0.0002021 3647.65381 4870.37939
21.3500 21.3550 5089.7 0.0001965 3648.54419 5004.39502
21.3600 21.3650 5281.9 0.0001893 3649.43481 5161.47705
21.3700 21.3750 5464.4 0.0001830 3650.32788 5344.12109
21.3800 21.3850 5694.0 0.0001756 3651.22217 5554.72021
21.3900 21.3950 5932.8 0.0001686 3652.11719 5795.41113
21.4000 21.4050 6249.5 0.0001600 3653.01221 6067.85303
21.4100 21.4150 6566.5 0.0001523 3653.91016 6372.86719
21.4200 21.4250 6903.4 0.0001449 3654.80859 6709.92627
21.4300 21.4350 7259.1 0.0001378 3655.70728 7076.62549
21.4400 21.4450 7663.3 0.0001305 3656.60742 7468.58447
21.4500 21.4550 8023.8 0.0001246 3657.50732 7880.49561
21.4600 21.4650 8370.6 0.0001195 3658.40649 8308.81152
21.4700 21.4750 8768.3 0.0001140 3659.30835 8755.38477
21.4800 21.4850 9235.7 0.0001083 3660.20996 9229.88574
21.4900 21.4950 9665.7 0.0001035 3661.11084 9748.80176
21.5000 21.5050 10158.8 0.0000984 3662.01172 10331.00977
21.5100 21.5150 10763.4 0.0000929 3662.91357 10992.05176
21.5200 21.5250 11482.2 0.0000871 3663.81445 11739.13477
21.5300 21.5350 12122.2 0.0000825 3664.71436 12567.36523
21.5400 21.5450 12849.4 0.0000778 3665.61450 13456.47949
21.5500 21.5550 13546.6 0.0000738 3666.51465 14367.43555
21.5600 21.5650 14311.9 0.0000699 3667.41382 15239.64746
21.5700 21.5750 14832.5 0.0000674 3668.31177 15991.86035
21.5800 21.5850 15132.7 0.0000661 3669.20850 16531.33398
21.5900 21.5950 15297.3 0.0000654 3670.10522 16774.07031
21.6000 21.6050 15268.6 0.0000655 3671.00049 16670.74023
21.6100 21.6150 14926.5 0.0000670 3671.89478 16225.14453
21.6200 21.6250 14404.3 0.0000694 3672.78760 15492.09180
21.6300 21.6350 13718.3 0.0000729 3673.67944 14556.83203
21.6400 21.6450 12960.9 0.0000772 3674.56909 13509.55859
21.6500 21.6550 12087.9 0.0000827 3675.45728 12427.62695
21.6600 21.6650 11196.7 0.0000893 3676.34399 11368.76660
21.6700 21.6750 10361.2 0.0000965 3677.22974 10377.83594
21.6800 21.6850 9557.5 0.0001046 3678.11182 9460.44238
21.6900 21.6950 8815.3 0.0001134 3678.99341 8646.82617
21.7000 21.7050 8172.0 0.0001224 3679.87207 7935.03516
21.7100 21.7150 7581.3 0.0001319 3680.74780 7324.49902
21.7200 21.7250 7087.1 0.0001411 3681.62134 6806.85645
21.7300 21.7350 6639.6 0.0001506 3682.49292 6374.75439
21.7400 21.7450 6272.1 0.0001594 3683.36206 6018.12207
21.7500 21.7550 5978.3 0.0001673 3684.22876 5726.37549
21.7600 21.7650 5698.5 0.0001755 3685.09180 5489.17822
21.7700 21.7750 5496.2 0.0001819 3685.95264 5297.00293
21.7800 21.7850 5271.6 0.0001897 3686.80981 5141.47314
21.7900 21.7950 5133.2 0.0001948 3687.66357 5015.51807
21.8000 21.8050 4990.1 0.0002004 3688.51489 4913.41943
21.8100 21.8150 4888.7 0.0002046 3689.36157 4830.71094
21.8200 21.8250 4794.0 0.0002086 3690.20630 4764.06445
21.8300 21.8350 4726.1 0.0002116 3691.04688 4711.10303
21.8400 21.8450 4665.4 0.0002143 3691.88428 4670.24854
21.8500 21.8550 4617.3 0.0002166 3692.71704 4640.53564
21.8600 21.8650 4589.2 0.0002179 3693.54590 4621.47803
21.8700 21.8750 4563.9 0.0002191 3694.37158 4612.91162
21.8800 21.8850 4557.7 0.0002194 3695.19263 4614.87061
21.8900 21.8950 4556.0 0.0002195 3696.00928 4627.45459
21.9000 21.9050 4552.3 0.0002197 3696.82251 4650.70703
21.9100 21.9150 4602.1 0.0002173 3697.63062 4684.48096
21.9200 21.9250 4621.8 0.0002164 3698.43481 4728.29541
21.9300 21.9350 4657.4 0.0002147 3699.23364 4781.16602
21.9400 21.9450 4719.0 0.0002119 3700.02808 4841.38428
21.9500 21.9550 4774.1 0.0002095 3700.81812 4906.22461
21.9600 21.9650 4839.7 0.0002066 3701.60132 4971.65625
21.9700 21.9750 4882.8 0.0002048 3702.38110 5032.16211
21.9800 21.9850 4915.7 0.0002034 3703.15576 5080.97754
21.9900 21.9950 4953.2 0.0002019 3703.92407 5111.09082
22.0000 22.0050 4959.4 0.0002016 3704.68774 5116.95557
22.0100 22.0150 4922.8 0.0002031 3705.44604 5096.33008
22.0200 22.0250 4881.0 0.0002049 3706.19800 5051.09277
22.0300 22.0350 4848.4 0.0002063 3706.94580 4986.52197
22.0400 22.0450 4766.9 0.0002098 3707.68652 4909.48828
22.0500 22.0550 4689.8 0.0002132 3708.42163 4826.69092
22.0600 22.0650 4601.0 0.0002173 3709.15088 4743.62891
22.0700 22.0750 4547.4 0.0002199 3709.87354 4664.30029
22.0800 22.0850 4480.2 0.0002232 3710.59155 4594.34277
22.0900 22.0950 4422.9 0.0002261 3711.30249 4529.49072
22.1000 22.1050 4389.4 0.0002278 3712.00635 4473.57373
22.1100 22.1150 4357.9 0.0002295 3712.70459 4426.95361
22.1200 22.1250 4298.7 0.0002326 3713.39551 4389.64697
22.1300 22.1350 4279.1 0.0002337 3714.08032 4361.46191
22.1400 22.1450 4260.4 0.0002347 3714.75806 4342.11768
22.1500 22.1550 4260.3 0.0002347 3715.42871 4331.35352
22.1600 22.1650 4262.1 0.0002346 3716.09253 4329.02344
22.1700 22.1750 4260.0 0.0002347 3716.75024 4335.17920
22.1800 22.1850 4281.6 0.0002336 3717.39990 4350.13867
22.1900 22.1950 4319.8 0.0002315 3718.04248 4374.52881
22.2000 22.2050 4324.6 0.0002312 3718.67749 4409.30859
22.2100 22.2150 4362.4 0.0002292 3719.30566 4455.77832
22.2200 22.2250 4433.9 0.0002255 3719.92627 4515.52881
22.2300 22.2350 4483.1 0.0002231 3720.53760 4590.38623
22.2400 22.2450 4572.9 0.0002187 3721.14331 4681.86230
22.2500 22.2550 4636.9 0.0002157 3721.74023 4792.68359
22.2600 22.2650 4777.9 0.0002093 3722.32935 4924.01514
22.2700 22.2750 4909.0 0.0002037 3722.91040 5076.87744
22.2800 22.2850 5079.3 0.0001969 3723.48438 5251.41699
22.2900 22.2950 5261.6 0.0001901 3724.04883 5446.59619
22.3000 22.3050 5516.5 0.0001813 3724.60596 5659.95947
22.3100 22.3150 5769.2 0.0001733 3725.15454 5887.47559
22.3200 22.3250 6068.5 0.0001648 3725.69385 6123.31885
22.3300 22.3350 6312.8 0.0001584 3726.22559 6359.40918
22.3400 22.3450 6576.5 0.0001521 3726.74829 6587.92627
22.3500 22.3550 6802.0 0.0001470 3727.26270 6787.26318
22.3600 22.3650 6911.8 0.0001447 3727.76807 6944.10791
22.3700 22.3750 6963.8 0.0001436 3728.26465 7036.67480
22.3800 22.3850 6952.5 0.0001438 3728.75244 7052.38574
22.3900 22.3950 6847.6 0.0001460 3729.23096 6986.72559
22.4000 22.4050 6693.5 0.0001494 3729.70068 6846.84229
22.4100 22.4150 6476.8 0.0001544 3730.16162 6649.12451
22.4200 22.4250 6256.3 0.0001598 3730.61230 6414.01172
22.4300 22.4350 6028.1 0.0001659 3731.05420 6161.04834
22.4400 22.4450 5793.2 0.0001726 3731.48682 5906.04150
22.4500 22.4550 5562.5 0.0001798 3731.90942 5660.36328
22.4600 22.4650 5372.4 0.0001861 3732.32373 5432.73926
22.4700 22.4750 5190.6 0.0001927 3732.72705 5224.87549
22.4800 22.4850 4994.8 0.0002002 3733.12085 5040.13574
22.4900 22.4950 4853.8 0.0002060 3733.50586 4878.94629
22.5000 22.5050 4726.5 0.0002116 3733.88013 4740.57324
22.5100 22.5150 4599.2 0.0002174 3734.24414 4623.47949
22.5200 22.5250 4498.0 0.0002223 3734.59888 4525.62598
22.5300 22.5350 4393.0 0.0002276 3734.94287 4444.69727
22.5400 22.5450 4362.0 0.0002293 3735.27856 4378.31982
22.5500 22.5550 4291.2 0.0002330 3735.60254 4324.18164
22.5600 22.5650 4223.6 0.0002368 3735.91650 4279.03857
22.5700 22.5750 4187.6 0.0002388 3736.21997 4243.28271
22.5800 22.5850 4171.6 0.0002397 3736.51343 4214.17969
22.5900 22.5950 4131.5 0.0002420 3736.79565 4190.41455
22.6000 22.6050 4102.2 0.0002438 3737.06860 4170.92676
22.6100 22.6150 4074.6 0.0002454 3737.32959 4154.88086
22.6200 22.6250 4070.8 0.0002457 3737.58154 4141.63818
22.6300 22.6350 4067.0 0.0002459 3737.82202 4130.70557
22.6400 22.6450 4044.4 0.0002473 3738.05029 4121.71484
22.6500 22.6550 4054.6 0.0002466 3738.26953 4114.39111
22.6600 22.6650 4043.8 0.0002473 3738.47729 4108.52441
22.6700 22.6750 4036.6 0.0002477 3738.67554 4103.96240
22.6800 22.6850 4040.8 0.0002475 3738.86108 4100.58691
22.6900 22.6950 4056.9 0.0002465 3739.03564 4098.31055
22.7000 22.7050 4063.0 0.0002461 3739.19971 4097.06934
22.7100 22.7150 4089.9 0.0002445 3739.35229 4096.81152
22.7200 22.7250 4085.9 0.0002447 3739.49316 4097.51123
22.7300 22.7350 4127.0 0.0002423 3739.62378 4099.14258
22.7400 22.7450 4155.0 0.0002407 3739.74243 4101.70020
22.7500 22.7550 4168.7 0.0002399 3739.85010 4105.18115
22.7600 22.7650 4188.9 0.0002387 3739.94604 4109.60010
22.7700 22.7750 4233.0 0.0002362 3740.03101 4114.97656
22.7800 22.7850 4258.3 0.0002348 3740.10449 4121.34180
22.7900 22.7950 4285.6 0.0002333 3740.16577 4128.73535
22.8000 22.8050 4304.7 0.0002323 3740.21655 4137.21045
22.8100 22.8150 4323.2 0.0002313 3740.25439 4146.83008
22.8200 22.8250 4356.0 0.0002296 3740.28101 4157.67285
22.8300 22.8350 4353.0 0.0002297 3740.29761 4169.83008
22.8400 22.8450 4363.6 0.0002292 3740.30005 4183.41113
22.8500 22.8550 4409.2 0.0002268 3740.29224 4198.54492
22.8600 22.8650 4396.7 0.0002274 3740.27271 4215.38818
22.8700 22.8750 4422.7 0.0002261 3740.24072 4234.12158
22.8800 22.8850 4426.6 0.0002259 3740.19580 4254.97412
22.8900 22.8950 4464.2 0.0002240 3740.14111 4278.21729
22.9000 22.9050 4502.1 0.0002221 3740.07324 4304.19727
22.9100 22.9150 4523.6 0.0002211 3739.99365 4333.35156
22.9200 22.9250 4576.2 0.0002185 3739.90234 4366.23730
22.9300 22.9350 4650.4 0.0002150 3739.79883 4403.58398
22.9400 22.9450 4697.6 0.0002129 3739.68311 4446.33740
22.9500 22.9550 4775.6 0.0002094 3739.55469 4495.73877
22.9600 22.9650 4841.4 0.0002066 3739.41577 4553.39795
22.9700 22.9750 4962.2 0.0002015 3739.26367 4621.38184
22.9800 22.9850 5070.7 0.0001972 3739.10010 4702.30322
22.9900 22.9950 5183.4 0.0001929 3738.92358 4799.41064
23.0000 23.0050 5316.0 0.0001881 3738.73511 4916.63330
23.0100 23.0150 5500.1 0.0001818 3738.53418 5058.60596
23.0200 23.0250 5666.4 0.0001765 3738.32202 5230.61133
23.0300 23.0350 5875.4 0.0001702 3738.09692 5438.45215
23.0400 23.0450 6144.6 0.0001627 3737.85938 5688.22949
23.0500 23.0550 6436.3 0.0001554 3737.61035 5985.99365
23.0600 23.0650 6801.3 0.0001470 3737.34766 6337.32129
23.0700 23.0750 7216.8 0.0001386 3737.07373 6746.74561
23.0800 23.0850 7760.1 0.0001289 3736.78735 7220.83057
23.0900 23.0950 8385.6 0.0001193 3736.48828 7752.50928
23.1000 23.1050 9033.2 0.0001107 3736.17749 8342.71680
23.1100 23.1150 9750.5 0.0001026 3735.85522 8982.21875
23.1200 23.1250 10607.1 0.0000943 3735.51929 9657.33789
23.1300 23.1350 11391.7 0.0000878 3735.17163 10344.14160
23.1400 23.1450 12036.0 0.0000831 3734.81079 11008.07617
23.1500 23.1550 12573.6 0.0000795 3734.43896 11604.16602
23.1600 23.1650 12971.6 0.0000771 3734.05347 12076.34570
23.1700 23.1750 13065.9 0.0000765 3733.65601 12372.49805
23.1800 23.1850 12898.8 0.0000775 3733.24707 12454.13867
23.1900 23.1950 12556.2 0.0000796 3732.82495 12315.07324
23.2000 23.2050 12101.1 0.0000826 3732.39111 11965.18164
23.2100 23.2150 11470.7 0.0000872 3731.94458 11453.67383
23.2200 23.2250 10756.1 0.0000930 3731.48584 10835.19922
23.2300 23.2350 10039.8 0.0000996 3731.01538 10162.17969
23.2400 23.2450 9354.5 0.0001069 3730.53149 9477.43359
23.2500 23.2550 8667.9 0.0001154 3730.03613 8812.22559
23.2600 23.2650 8061.8 0.0001240 3729.52759 8187.38477
23.2700 23.2750 7521.2 0.0001330 3729.00854 7615.53516
23.2800 23.2850 7056.0 0.0001417 3728.47607 7103.17285
23.2900 23.2950 6621.6 0.0001510 3727.93091 6652.35693
23.3000 23.3050 6237.5 0.0001603 3727.37476 6261.94141
23.3100 23.3150 6001.5 0.0001666 3726.80542 5928.52393
23.3200 23.3250 5675.5 0.0001762 3726.22461 5647.21729
23.3300 23.3350 5421.8 0.0001844 3725.63159 5412.26611
23.3400 23.3450 5234.4 0.0001910 3725.02563 5217.56885
23.3500 23.3550 5220.7 0.0001915 3724.40894 5057.09082
23.3600 23.3650 4929.7 0.0002029 3723.78052 4925.16699
23.3700 23.3750 4797.1 0.0002085 3723.13843 4816.69971
23.3800 23.3850 4710.4 0.0002123 3722.48608 4727.26416
23.3900 23.3950 4637.8 0.0002156 3721.82007 4653.14014
23.4000 23.4050 4557.1 0.0002194 3721.14282 4591.28125
23.4100 23.4150 4469.4 0.0002237 3720.45288 4539.25000
23.4200 23.4250 4438.7 0.0002253 3719.75342 4493.17725
23.4300 23.4350 4401.4 0.0002272 3719.04053 4455.51465
23.4400 23.4450 4354.4 0.0002297 3718.31567 4423.14990
23.4500 23.4550 4311.3 0.0002320 3717.57910 4395.22412
23.4600 23.4650 4297.0 0.0002327 3716.83081 4371.20361
23.4700 23.4750 4278.4 0.0002337 3716.07153 4350.33936
23.4800 23.4850 4268.2 0.0002343 3715.29980 4332.36914
23.4900 23.4950 4218.6 0.0002370 3714.51733 4316.99316
23.5000 23.5050 4219.7 0.0002370 3713.72144 4303.97705
23.5100 23.5150 4217.9 0.0002371 3712.91553 4295.44971
23.5200 23.5250 4203.2 0.0002379 3712.09937 4286.66357
23.5300 23.5350 4170.2 0.0002398 3711.27026 4279.79834
23.5400 23.5450 4164.4 0.0002401 3710.42920 4274.77051
23.5500 23.5550 4189.8 0.0002387 3709.57739 4259.28711
23.5600 23.5650 4169.8 0.0002398 3708.71484 4257.89404
23.5700 23.5750 4145.3 0.0002412 3707.84180 4258.21484
23.5800 23.5850 4156.3 0.0002406 3706.95532 4260.25049
23.5900 23.5950 4166.7 0.0002400 3706.05884 4264.02246
23.6000 23.6050 4154.2 0.0002407 3705.15161 4269.56787
23.6100 23.6150 4175.3 0.0002395 3704.23267 4276.95215
23.6200 23.6250 4186.9 0.0002388 3703.30347 4286.26025
23.6300 23.6350 4196.1 0.0002383 3702.36353 4297.60742
23.6400 23.6450 4204.4 0.0002378 3701.41284 4311.14014
23.6500 23.6550 4206.4 0.0002377 3700.45044 4327.04688
23.6600 23.6650 4267.0 0.0002344 3699.47729 4345.56396
23.6700 23.6750 4282.2 0.0002335 3698.49414 4366.99707
23.6800 23.6850 4297.8 0.0002327 3697.50122 4391.74072
23.6900 23.6950 4349.1 0.0002299 3696.49683 4420.29297
23.7000 23.7050 4384.4 0.0002281 3695.48145 4453.30664
23.7100 23.7150 4452.5 0.0002246 3694.45654 4491.62646
23.7200 23.7250 4482.9 0.0002231 3693.42212 4536.33984
23.7300 23.7350 4556.4 0.0002195 3692.37573 4588.84863
23.7400 23.7450 4661.4 0.0002145 3691.31934 4650.92969
23.7500 23.7550 4739.0 0.0002110 3690.25366 4724.81689
23.7600 23.7650 4814.5 0.0002077 3689.17798 4813.25342
23.7700 23.7750 4941.8 0.0002024 3688.09180 4919.55029
23.7800 23.7850 5101.0 0.0001960 3686.99634 5047.60352
23.7900 23.7950 5240.5 0.0001908 3685.89111 5201.85156
23.8000 23.8050 5420.0 0.0001845 3684.77710 5387.20459
23.8100 23.8150 5655.6 0.0001768 3683.65186 5608.86426
23.8200 23.8250 5923.9 0.0001688 3682.51733 5872.08350
23.8300 23.8350 6218.5 0.0001608 3681.37280 6181.82715
23.8400 23.8450 6559.7 0.0001524 3680.22070 6542.35986
23.8500 23.8550 7017.4 0.0001425 3679.05835 6956.74072
23.8600 23.8650 7526.7 0.0001329 3677.88647 7426.24121
23.8700 23.8750 8088.7 0.0001236 3676.70557 7949.61816
23.8800 23.8850 8748.7 0.0001143 3675.51538 8522.15918
23.8900 23.8950 9456.9 0.0001057 3674.31812 9134.94727
23.9000 23.9050 10228.3 0.0000978 3673.10938 9770.84180
23.9100 23.9150 10872.1 0.0000920 3671.89282 10406.08594
23.9200 23.9250 11503.9 0.0000869 3670.66846 11006.89941
23.9300 23.9350 12044.1 0.0000830 3669.43506 11531.16211
23.9400 23.9450 12464.3 0.0000802 3668.19287 11933.36816
23.9500 23.9550 12618.8 0.0000792 3666.94165 12173.54395
23.9600 23.9650 12665.9 0.0000790 3665.68335 12227.40137
23.9700 23.9750 12558.1 0.0000796 3664.41626 12092.66797
23.9800 23.9850 12224.4 0.0000818 3663.14160 11788.27734
23.9900 23.9950 11784.9 0.0000849 3661.85767 11347.64063
24.0000 24.0050 11196.3 0.0000893 3660.56714 10810.30957
24.0100 24.0150 10620.9 0.0000942 3659.26807 10215.41797
24.0200 24.0250 9950.2 0.0001005 3657.96191 9597.72461
24.0300 24.0350 9290.9 0.0001076 3656.64771 8985.57227
24.0400 24.0450 8658.3 0.0001155 3655.32520 8400.27051
24.0500 24.0550 8055.3 0.0001241 3653.99707 7856.43896
24.0600 24.0650 7506.9 0.0001332 3652.66113 7362.95410
24.0700 24.0750 7061.1 0.0001416 3651.31738 6924.13477
24.0800 24.0850 6643.9 0.0001505 3649.96582 6540.87354
24.0900 24.0950 6320.0 0.0001582 3648.60986 6211.61768
24.1000 24.1050 6018.7 0.0001661 3647.24512 5933.17725
24.1100 24.1150 5787.3 0.0001728 3645.87354 5701.37402
24.1200 24.1250 5601.5 0.0001785 3644.49585 5511.57520
24.1300 24.1350 5463.3 0.0001830 3643.11108 5359.11914
24.1400 24.1450 5329.0 0.0001877 3641.71997 5239.62988
24.1500 24.1550 5233.6 0.0001911 3640.32300 5149.27441
24.1600 24.1650 5173.4 0.0001933 3638.92017 5084.90137
24.1700 24.1750 5122.8 0.0001952 3637.51050 5044.14697
24.1800 24.1850 5090.6 0.0001964 3636.09521 5025.44482
24.1900 24.1950 5085.5 0.0001966 3634.67310 5027.99170
24.2000 24.2050 5134.0 0.0001948 3633.24609 5051.67188
24.2100 24.2150 5137.8 0.0001946 3631.81348 5096.92529
24.2200 24.2250 5185.5 0.0001928 3630.37573 5164.60205
24.2300 24.2350 5286.6 0.0001892 3628.93140 5255.75342
24.2400 24.2450 5390.7 0.0001855 3627.48242 5373.02295
24.2500 24.2550 5491.2 0.0001821 3626.02808 5514.06543
24.2600 24.2650 5650.3 0.0001770 3624.56909 5680.75195
24.2700 24.2750 5821.8 0.0001718 3623.10498 5872.54639
24.2800 24.2850 6038.6 0.0001656 3621.63599 6086.96924
24.2900 24.2950 6229.4 0.0001605 3620.16260 6321.99219
24.3000 24.3050 6451.5 0.0001550 3618.68408 6571.01172
24.3100 24.3150 6747.8 0.0001482 3617.20190 6825.01514
24.3200 24.3250 6939.4 0.0001441 3615.71509 7071.20996
24.3300 24.3350 7090.9 0.0001410 3614.22388 7292.99268
24.3400 24.3450 7262.2 0.0001377 3612.72900 7471.28125
24.3500 24.3550 7386.1 0.0001354 3611.22949 7587.68018
24.3600 24.3650 7421.2 0.0001347 3609.72632 7629.08643
24.3700 24.3750 7375.3 0.0001356 3608.21924 7591.81152
24.3800 24.3850 7316.6 0.0001367 3606.70947 7482.97852
24.3900 24.3950 7225.3 0.0001384 3605.19653 7318.31543
24.4000 24.4050 7057.6 0.0001417 3603.67896 7117.73535
24.4100 24.4150 6875.9 0.0001454 3602.15845 6901.03027
24.4200 24.4250 6714.7 0.0001489 3600.63550 6685.23096
24.4300 24.4350 6542.8 0.0001528 3599.10938 6483.73779
24.4400 24.4450 6365.2 0.0001571 3597.58057 6306.60742
24.4500 24.4550 6227.7 0.0001606 3596.04834 6161.26514
24.4600 24.4650 6113.0 0.0001636 3594.51514 6053.24512
24.4700 24.4750 6061.5 0.0001650 3592.97778 5986.74561
24.4800 24.4850 5981.0 0.0001672 3591.43848 5965.01758
24.4900 24.4950 5974.3 0.0001674 3589.89771 5990.58691
24.5000 24.5050 6027.8 0.0001659 3588.35498 6065.34375
24.5100 24.5150 6086.8 0.0001643 3586.80933 6190.55371
24.5200 24.5250 6205.2 0.0001612 3585.26318 6366.75879
24.5300 24.5350 6396.6 0.0001563 3583.71338 6593.59912
24.5400 24.5450 6691.8 0.0001494 3582.16406 6869.50635
24.5500 24.5550 6997.4 0.0001429 3580.61328 7191.24414
24.5600 24.5650 7358.6 0.0001359 3579.06006 7553.24365
24.5700 24.5750 7800.2 0.0001282 3577.50732 7947.32617
24.5800 24.5850 8343.2 0.0001199 3575.95166 8359.04297
24.5900 24.5950 8769.5 0.0001140 3574.39746 8770.52832
24.6000 24.6050 9226.2 0.0001084 3572.84058 9157.52441
24.6100 24.6150 9648.2 0.0001036 3571.28418 9492.21777
24.6200 24.6250 9967.9 0.0001003 3569.72681 9746.06152
24.6300 24.6350 10131.3 0.0000987 3568.16992 9896.36719
24.6400 24.6450 10181.8 0.0000982 3566.61230 9931.98047
24.6500 24.6550 10138.0 0.0000986 3565.05371 9856.28223
24.6600 24.6650 9984.7 0.0001002 3563.49731 9683.50000
24.6700 24.6750 9721.0 0.0001029 3561.93970 9442.76270
24.6800 24.6850 9442.6 0.0001059 3560.38232 9158.03809
24.6900 24.6950 9187.5 0.0001088 3558.82593 8852.07129
24.7000 24.7050 8898.1 0.0001124 3557.27026 8541.05371
24.7100 24.7150 8569.6 0.0001167 3555.71558 8233.87891
24.7200 24.7250 8327.4 0.0001201 3554.16138 7933.15039
24.7300 24.7350 8109.8 0.0001233 3552.60815 7637.36475
24.7400 24.7450 7830.6 0.0001277 3551.05640 7343.77002
24.7500 24.7550 7552.2 0.0001324 3549.50562 7050.97266
24.7600 24.7650 7252.1 0.0001379 3547.95679 6760.36523
24.7700 24.7750 6973.5 0.0001434 3546.40942 6475.92773
24.7800 24.7850 6626.9 0.0001509 3544.86304 6202.87793
24.7900 24.7950 6322.4 0.0001582 3543.31934 5946.13184
24.8000 24.8050 6011.9 0.0001663 3541.77686 5709.29736
24.8100 24.8150 5731.6 0.0001745 3540.23730 5494.45801
24.8200 24.8250 5463.2 0.0001830 3538.69995 5302.03857
24.8300 24.8350 5229.4 0.0001912 3537.16528 5131.64697
24.8400 24.8450 5061.7 0.0001976 3535.63232 4982.13086
24.8500 24.8550 4879.3 0.0002049 3534.10229 4851.96143
24.8600 24.8650 4707.3 0.0002124 3532.57446 4739.41504
24.8700 24.8750 4608.3 0.0002170 3531.05005 4642.71143
24.8800 24.8850 4516.7 0.0002214 3529.52856 4560.08838
24.8900 24.8950 4434.2 0.0002255 3528.01123 4489.85449
24.9000 24.9050 4350.7 0.0002298 3526.49609 4430.42920
24.9100 24.9150 4295.3 0.0002328 3524.98438 4380.36426
24.9200 24.9250 4270.3 0.0002342 3523.47632 4338.35400
24.9300 24.9350 4201.2 0.0002380 3521.97192 4303.25586
24.9400 24.9450 4177.0 0.0002394 3520.47144 4274.08398
24.9500 24.9550 4172.2 0.0002397 3518.97510 4250.00537
24.9600 24.9650 4136.1 0.0002418 3517.48340 4230.33057
24.9700 24.9750 4113.4 0.0002431 3515.99536 4214.50586
24.9800 24.9850 4103.4 0.0002437 3514.51172 4202.09033
24.9900 24.9950 4103.3 0.0002437 3513.03223 4192.75000
25.0000 25.0050 4108.3 0.0002434 3511.55762 4186.23340
25.0100 25.0150 4074.4 0.0002454 3510.08765 4182.36084
25.0200 25.0250 4086.6 0.0002447 3508.62256 4181.02295
25.0300 25.0350 4106.6 0.0002435 3507.16235 4182.16016
25.0400 25.0450 4094.7 0.0002442 3505.70825 4185.76709
25.0500 25.0550 4120.3 0.0002427 3504.25903 4191.88232
25.0600 25.0650 4131.4 0.0002420 3502.81421 4200.59863
25.0700 25.0750 4168.8 0.0002399 3501.37500 4212.05371
25.0800 25.0850 4169.8 0.0002398 3499.94214 4226.45850
25.0900 25.0950 4185.0 0.0002389 3498.51489 4244.09131
25.1000 25.1050 4229.7 0.0002364 3497.09277 4265.32568
25.1100 25.1150 4264.2 0.0002345 3495.67773 4290.64746
25.1200 25.1250 4275.6 0.0002339 3494.26855 4320.68555
25.1300 25.1350 4317.3 0.0002316 3492.86572 4356.24316
25.1400 25.1450 4402.0 0.0002272 3491.46924 4398.33203
25.1500 25.1550 4440.0 0.0002252 3490.07813 4448.21436
25.1600 25.1650 4486.8 0.0002229 3488.69482 4507.43018
25.1700 25.1750 4558.5 0.0002194 3487.31787 4577.82959
25.1800 25.1850 4664.6 0.0002144 3485.94727 4661.59863
25.1900 25.1950 4758.8 0.0002101 3484.58447 4761.25098
25.2000 25.2050 4837.4 0.0002067 3483.22852 4879.61279
25.2100 25.2150 4974.6 0.0002010 3481.88013 5019.78223
25.2200 25.2250 5151.1 0.0001941 3480.53809 5185.05322
25.2300 25.2350 5275.2 0.0001896 3479.20410 5378.80859
25.2400 25.2450 5498.3 0.0001819 3477.87695 5606.87354
25.2500 25.2550 5745.7 0.0001740 3476.55835 5867.40820
25.2600 25.2650 5978.7 0.0001673 3475.24658 6165.53760
25.2700 25.2750 6294.9 0.0001589 3473.94385 6503.16162
25.2800 25.2850 6606.9 0.0001514 3472.64819 6880.99609
25.2900 25.2950 7059.4 0.0001417 3471.36108 7297.97754
25.3000 25.3050 7431.7 0.0001346 3470.08179 7750.47559
25.3100 25.3150 7832.2 0.0001277 3468.81104 8231.35352
25.3200 25.3250 8332.2 0.0001200 3467.54907 8729.13477
25.3300 25.3350 8786.8 0.0001138 3466.29590 9227.75195
25.3400 25.3450 9170.6 0.0001090 3465.05054 9707.69336
25.3500 25.3550 9478.6 0.0001055 3463.81445 10149.00781
25.3600 25.3650 9803.5 0.0001020 3462.58691 10535.77246
25.3700 25.3750 10096.5 0.0000990 3461.36816 10860.25195
25.3800 25.3850 10242.1 0.0000976 3460.15918 11124.40332
25.3900 25.3950 10402.6 0.0000961 3458.95850 11337.56934
25.4000 25.4050 10555.8 0.0000947 3457.76782 11511.35352
25.4100 25.4150 10560.2 0.0000947 3456.58545 11654.03906
25.4200 25.4250 10563.2 0.0000947 3455.41333 11766.62891
25.4300 25.4350 10557.3 0.0000947 3454.25073 11841.41504
25.4400 25.4450 10570.1 0.0000946 3453.09717 11863.06250
25.4500 25.4550 10395.3 0.0000962 3451.95386 11811.84375
25.4600 25.4650 10232.7 0.0000977 3450.82056 11661.74414
25.4700 25.4750 10045.9 0.0000995 3449.69727 11414.31250
25.4800 25.4850 9797.4 0.0001021 3448.58374 11061.83008
25.4900 25.4950 9452.7 0.0001058 3447.48022 10616.93945
25.5000 25.5050 9099.4 0.0001099 3446.38696 10102.87988
25.5100 25.5150 8743.0 0.0001144 3445.30420 9547.79883
25.5200 25.5250 8367.5 0.0001195 3444.23145 8978.98340
25.5300 25.5350 7918.6 0.0001263 3443.16992 8419.06836
25.5400 25.5450 7559.5 0.0001323 3442.11865 7884.66748
25.5500 25.5550 7178.8 0.0001393 3441.07764 7387.52783
25.5600 25.5650 6813.3 0.0001468 3440.04712 6932.22412
25.5700 25.5750 6486.3 0.0001542 3439.02881 6522.37695
25.5800 25.5850 6165.3 0.0001622 3438.01978 6158.28271
25.5900 25.5950 5923.9 0.0001688 3437.02271 5838.50928
25.6000 25.6050 5664.1 0.0001765 3436.03687 5560.45410
25.6100 25.6150 5408.4 0.0001849 3435.06152 5320.75293
25.6200 25.6250 5245.6 0.0001906 3434.09717 5115.60840
25.6300 25.6350 5066.4 0.0001974 3433.14478 4941.03369
25.6400 25.6450 4897.3 0.0002042 3432.20313 4793.06641
25.6500 25.6550 4764.1 0.0002099 3431.27344 4667.92822
25.6600 25.6650 4642.8 0.0002154 3430.35474 4562.12695
25.6700 25.6750 4556.4 0.0002195 3429.44849 4472.53613
25.6800 25.6850 4444.0 0.0002250 3428.55298 4396.42480
25.6900 25.6950 4372.1 0.0002287 3427.66943 4331.47070
25.7000 25.7050 4357.9 0.0002295 3426.79761 4275.73193
25.7100 25.7150 4245.1 0.0002356 3425.93823 4227.62109
25.7200 25.7250 4191.7 0.0002386 3425.09058 4185.85010
25.7300 25.7350 4145.9 0.0002412 3424.25439 4149.40430
25.7400 25.7450 4126.6 0.0002423 3423.42993 4117.47510
25.7500 25.7550 4072.3 0.0002456 3422.61816 4089.43506
25.7600 25.7650 4045.1 0.0002472 3421.81885 4064.79321
25.7700 25.7750 4022.6 0.0002486 3421.03101 4043.16992
25.7800 25.7850 4000.4 0.0002500 3420.25659 4024.27197
25.7900 25.7950 3974.4 0.0002516 3419.49414 4007.87598
25.8000 25.8050 3964.6 0.0002522 3418.74365 3993.81519
25.8100 25.8150 3974.2 0.0002516 3418.00537 3981.96777
25.8200 25.8250 3954.1 0.0002529 3417.28027 3972.25415
25.8300 25.8350 3939.4 0.0002538 3416.56714 3964.63379
25.8400 25.8450 3950.3 0.0002531 3415.86621 3959.10693
25.8500 25.8550 3960.3 0.0002525 3415.17896 3955.71338
25.8600 25.8650 3943.8 0.0002536 3414.50464 3954.54663
25.8700 25.8750 3946.5 0.0002534 3413.84131 3955.75317
25.8800 25.8850 3957.1 0.0002527 3413.19189 3959.54712
25.8900 25.8950 3979.4 0.0002513 3412.55518 3966.22412
25.9000 25.9050 3972.7 0.0002517 3411.93115 3976.17749
25.9100 25.9150 3985.4 0.0002509 3411.32007 3989.92065
25.9200 25.9250 4046.1 0.0002471 3410.72266 4008.09180
25.9300 25.9350 4053.1 0.0002467 3410.13721 4031.48511
25.9400 25.9450 4064.3 0.0002460 3409.56494 4061.05786
25.9500 25.9550 4113.2 0.0002431 3409.00610 4097.93750
25.9600 25.9650 4163.4 0.0002402 3408.45972 4143.41602
25.9700 25.9750 4196.8 0.0002383 3407.92651 4198.93457
25.9800 25.9850 4243.2 0.0002357 3407.40649 4266.05127
25.9900 25.9950 4309.2 0.0002321 3406.89990 4346.37695
26.0000 26.0050 4407.6 0.0002269 3406.40601 4441.50879
26.0100 26.0150 4471.0 0.0002237 3405.92578 4552.91504
26.0200 26.0250 4588.8 0.0002179 3405.45874 4681.81250
26.0300 26.0350 4710.2 0.0002123 3405.00537 4828.99658
26.0400 26.0450 4846.5 0.0002063 3404.56519 4994.66406
26.0500 26.0550 4994.5 0.0002002 3404.13818 5178.17676
26.0600 26.0650 5184.0 0.0001929 3403.72412 5377.82471
26.0700 26.0750 5413.0 0.0001847 3403.32275 5590.52783
26.0800 26.0850 5608.1 0.0001783 3402.93555 5811.52979
26.0900 26.0950 5802.1 0.0001724 3402.56104 6034.03564
26.1000 26.1050 6022.8 0.0001660 3402.20068 6248.88916
26.1100 26.1150 6214.2 0.0001609 3401.85327 6444.28320
26.1200 26.1250 6303.9 0.0001586 3401.51978 6606.37939
26.1300 26.1350 6394.2 0.0001564 3401.19873 6720.68945
26.1400 26.1450 6433.6 0.0001554 3400.89160 6774.83252
26.1500 26.1550 6406.9 0.0001561 3400.59814 6761.71240
26.1600 26.1650 6267.5 0.0001596 3400.31738 6681.94727
26.1700 26.1750 6154.8 0.0001625 3400.05078 6543.61279
26.1800 26.1850 6016.7 0.0001662 3399.79736 6360.15332
26.1900 26.1950 5779.3 0.0001730 3399.55664 6147.95557
26.2000 26.2050 5594.1 0.0001788 3399.32959 5919.75000
26.2100 26.2150 5390.9 0.0001855 3399.11621 5688.49854
26.2200 26.2250 5231.1 0.0001912 3398.91675 5463.20605
26.2300 26.2350 5045.5 0.0001982 3398.72998 5244.02197
26.2400 26.2450 4863.9 0.0002056 3398.55688 5047.07666
26.2500 26.2550 4752.6 0.0002104 3398.39673 4868.48096
26.2600 26.2650 4626.0 0.0002162 3398.24976 4709.20850
26.2700 26.2750 4487.9 0.0002228 3398.11694 4568.08203
26.2800 26.2850 4401.0 0.0002272 3397.99658 4446.99805
26.2900 26.2950 4335.1 0.0002307 3397.88989 4343.68408
26.3000 26.3050 4253.3 0.0002351 3397.79614 4256.84424
26.3100 26.3150 4185.1 0.0002389 3397.71655 4185.04932
26.3200 26.3250 4128.3 0.0002422 3397.64917 4126.85010
26.3300 26.3350 4116.8 0.0002429 3397.59595 4080.86523
26.3400 26.3450 4066.7 0.0002459 3397.55493 4045.84399
26.3500 26.3550 4035.8 0.0002478 3397.52686 4020.70996
26.3600 26.3650 4032.6 0.0002480 3397.51270 4004.57495
26.3700 26.3750 4010.0 0.0002494 3397.51172 3996.73804
26.3800 26.3850 4007.2 0.0002495 3397.52344 3996.65698
26.3900 26.3950 3987.6 0.0002508 3397.54907 4003.92065
26.4000 26.4050 4033.3 0.0002479 3397.58667 4018.20239
26.4100 26.4150 4046.3 0.0002471 3397.63745 4039.19800
26.4200 26.4250 4071.4 0.0002456 3397.70166 4066.57324
26.4300 26.4350 4112.4 0.0002432 3397.77759 4099.88477
26.4400 26.4450 4191.3 0.0002386 3397.86743 4138.49463
26.4500 26.4550 4244.2 0.0002356 3397.96997 4181.46338
26.4600 26.4650 4309.3 0.0002321 3398.08496 4227.41797
26.4700 26.4750 4397.9 0.0002274 3398.21289 4274.42090
26.4800 26.4850 4484.5 0.0002230 3398.35400 4319.86621
26.4900 26.4950 4538.4 0.0002203 3398.50732 4360.50781
26.5000 26.5050 4602.4 0.0002173 3398.67310 4392.71387
26.5100 26.5150 4693.3 0.0002131 3398.85132 4413.02002
26.5200 26.5250 4670.6 0.0002141 3399.04224 4418.88818
26.5300 26.5350 4689.7 0.0002132 3399.24634 4409.40479
26.5400 26.5450 4665.4 0.0002143 3399.46143 4386.39355
26.5500 26.5550 4595.1 0.0002176 3399.68945 4350.73242
26.5600 26.5650 4533.1 0.0002206 3399.92993 4306.74658
26.5700 26.5750 4463.3 0.0002241 3400.18286 4258.06006
26.5800 26.5850 4401.7 0.0002272 3400.44702 4207.90186
26.5900 26.5950 4337.0 0.0002306 3400.72412 4158.85791
26.6000 26.6050 4227.4 0.0002366 3401.01270 4112.86133
26.6100 26.6150 4181.4 0.0002392 3401.31445 4071.28101
26.6200 26.6250 4155.3 0.0002407 3401.62671 4035.07471
26.6300 26.6350 4092.6 0.0002443 3401.95142 4004.90112
26.6400 26.6450 4073.6 0.0002455 3402.28760 3978.27368
26.6500 26.6550 4036.8 0.0002477 3402.63599 3961.49414
26.6600 26.6650 4065.8 0.0002460 3402.99585 3951.90112
26.6700 26.6750 4038.2 0.0002476 3403.36768 3949.81592
26.6800 26.6850 4035.8 0.0002478 3403.75024 3955.60742
26.6900 26.6950 4084.7 0.0002448 3404.14404 3969.70874
26.7000 26.7050 4086.7 0.0002447 3404.55005 3992.63159
26.7100 26.7150 4117.3 0.0002429 3404.96729 4024.96631
26.7200 26.7250 4167.9 0.0002399 3405.39551 4067.35376
26.7300 26.7350 4213.1 0.0002374 3405.83496 4120.46484
26.7400 26.7450 4283.4 0.0002335 3406.28564 4184.91650
26.7500 26.7550 4332.5 0.0002308 3406.74683 4261.23975
26.7600 26.7650 4443.3 0.0002251 3407.21948 4349.77246
26.7700 26.7750 4569.4 0.0002188 3407.70288 4451.93604
26.7800 26.7850 4653.5 0.0002149 3408.19629 4564.59473
26.7900 26.7950 4790.5 0.0002087 3408.70068 4688.12451
26.8000 26.8050 4960.5 0.0002016 3409.21582 4820.69238
26.8100 26.8150 5085.5 0.0001966 3409.74146 4959.33887
26.8200 26.8250 5222.9 0.0001915 3410.27710 5099.63916
26.8300 26.8350 5375.5 0.0001860 3410.82324 5238.07666
26.8400 26.8450 5542.6 0.0001804 3411.37939 5361.48242
26.8500 26.8550 5596.3 0.0001787 3411.94556 5463.28711
26.8600 26.8650 5683.9 0.0001759 3412.52197 5534.27100
26.8700 26.8750 5754.4 0.0001738 3413.10889 5567.02246
26.8800 26.8850 5754.5 0.0001738 3413.70483 5557.85400
26.8900 26.8950 5691.5 0.0001757 3414.31055 5507.88086
26.9000 26.9050 5643.5 0.0001772 3414.92505 5422.68555
26.9100 26.9150 5535.5 0.0001807 3415.55151 5307.40527
26.9200 26.9250 5418.2 0.0001846 3416.18530 5178.21582
26.9300 26.9350 5265.3 0.0001899 3416.82910 5038.90283
26.9400 26.9450 5128.2 0.0001950 3417.48267 4899.79150
26.9500 26.9550 4992.7 0.0002003 3418.14453 4764.69189
26.9600 26.9650 4834.6 0.0002068 3418.81592 4637.37402
26.9700 26.9750 4711.3 0.0002123 3419.49561 4520.30811
26.9800 26.9850 4609.7 0.0002169 3420.18457 4414.98633
26.9900 26.9950 4504.2 0.0002220 3420.88208 4322.18115
27.0000 27.0050 4391.5 0.0002277 3421.58813 4242.15527
27.0100 27.0150 4314.5 0.0002318 3422.30225 4174.81006
27.0200 27.0250 4277.2 0.0002338 3423.02588 4118.48047
27.0300 27.0350 4200.7 0.0002381 3423.75635 4075.32227
27.0400 27.0450 4157.0 0.0002406 3424.49585 4043.42017
27.0500 27.0550 4130.8 0.0002421 3425.24292 4022.15796
27.0600 27.0650 4118.4 0.0002428 3425.99854 4010.92749
27.0700 27.0750 4081.8 0.0002450 3426.76172 4009.13794
27.0800 27.0850 4102.0 0.0002438 3427.53125 4016.21729
27.0900 27.0950 4122.3 0.0002426 3428.31104 4031.61182
27.1000 27.1050 4139.6 0.0002416 3429.09619 4054.73901
27.1100 27.1150 4167.2 0.0002400 3429.88867 4084.94751
27.1200 27.1250 4226.2 0.0002366 3430.68945 4121.44922
27.1300 27.1350 4310.4 0.0002320 3431.49683 4163.21924
27.1400 27.1450 4342.0 0.0002303 3432.31128 4208.89111
27.1500 27.1550 4422.6 0.0002261 3433.13208 4256.60791
27.1600 27.1650 4514.3 0.0002215 3433.96045 4303.91357
27.1700 27.1750 4595.6 0.0002176 3434.79468 4347.70557
27.1800 27.1850 4640.3 0.0002155 3435.63574 4384.38818
27.1900 27.1950 4701.6 0.0002127 3436.48413 4410.28223
27.2000 27.2050 4725.3 0.0002116 3437.33667 4422.29541
27.2100 27.2150 4719.9 0.0002119 3438.19727 4418.65723
27.2200 27.2250 4681.0 0.0002136 3439.06226 4399.40576
27.2300 27.2350 4656.3 0.0002148 3439.93433 4366.36133
27.2400 27.2450 4595.2 0.0002176 3440.81226 4322.61279
27.2500 27.2550 4516.2 0.0002214 3441.69409 4271.76416
27.2600 27.2650 4434.0 0.0002255 3442.58301 4217.27441
27.2700 27.2750 4361.8 0.0002293 3443.47656 4162.06055
27.2800 27.2850 4268.2 0.0002343 3444.37622 4108.35693
27.2900 27.2950 4169.5 0.0002398 3445.28052 4057.75342
27.3000 27.3050 4128.5 0.0002422 3446.18896 4011.30371
27.3100 27.3150 4067.2 0.0002459 3447.10303 3969.64404
27.3200 27.3250 4004.6 0.0002497 3448.02173 3933.09546
27.3300 27.3350 3956.1 0.0002528 3448.94482 3901.74243
27.3400 27.3450 3918.3 0.0002552 3449.87207 3875.49561
27.3500 27.3550 3907.6 0.0002559 3450.80493 3854.12451
27.3600 27.3650 3848.2 0.0002599 3451.74048 3837.29102
27.3700 27.3750 3829.0 0.0002612 3452.67993 3824.57617
27.3800 27.3850 3833.1 0.0002609 3453.62427 3815.48804
27.3900 27.3950 3800.9 0.0002631 3454.57202 3810.94067
27.4000 27.4050 3789.3 0.0002639 3455.52344 3807.38574
27.4100 27.4150 3788.2 0.0002640 3456.47827 3805.60864
27.4200 27.4250 3788.9 0.0002639 3457.43652 3804.89697
27.4300 27.4350 3767.9 0.0002654 3458.39746 3804.54858
27.4400 27.4450 3751.7 0.0002665 3459.36279 3803.94263
27.4500 27.4550 3767.6 0.0002654 3460.33081 3802.63379
27.4600 27.4650 3756.5 0.0002662 3461.30005 3800.41211
27.4700 27.4750 3738.2 0.0002675 3462.27319 3797.32227
27.4800 27.4850 3759.9 0.0002660 3463.24854 3797.25244
27.4900 27.4950 3749.1 0.0002667 3464.22607 3793.32666
27.5000 27.5050 3755.5 0.0002663 3465.20654 3789.55103
27.5100 27.5150 3749.3 0.0002667 3466.18921 3786.29272
27.5200 27.5250 3750.4 0.0002666 3467.17310 3783.85596
27.5300 27.5350 3774.0 0.0002650 3468.15894 3782.48340
27.5400 27.5450 3753.0 0.0002665 3469.14673 3782.35889
27.5500 27.5550 3772.1 0.0002651 3470.13574 3783.63208
27.5600 27.5650 3791.0 0.0002638 3471.12695 3786.42822
27.5700 27.5750 3774.6 0.0002649 3472.11938 3790.86914
27.5800 27.5850 3797.3 0.0002633 3473.11279 3797.07642
27.5900 27.5950 3813.0 0.0002623 3474.10693 3805.20044
27.6000 27.6050 3851.6 0.0002596 3475.10181 3815.61963
27.6100 27.6150 3853.3 0.0002595 3476.09766 3828.17090
27.6200 27.6250 3873.3 0.0002582 3477.09473 3843.34619
27.6300 27.6350 3915.2 0.0002554 3478.09106 3861.60913
27.6400 27.6450 3938.5 0.0002539 3479.08838 3879.81128
27.6500 27.6550 3960.5 0.0002525 3480.08545 3905.60498
27.6600 27.6650 4025.5 0.0002484 3481.08374 3935.78223
27.6700 27.6750 4070.3 0.0002457 3482.08032 3972.05371
27.6800 27.6850 4104.9 0.0002436 3483.07764 4014.98877
27.6900 27.6950 4172.9 0.0002396 3484.07520 4065.70776
27.7000 27.7050 4231.3 0.0002363 3485.07080 4125.43506
27.7100 27.7150 4327.4 0.0002311 3486.06641 4194.47461
27.7200 27.7250 4363.7 0.0002292 3487.06201 4277.36377
27.7300 27.7350 4477.4 0.0002233 3488.05542 4371.99805
27.7400 27.7450 4591.1 0.0002178 3489.04834 4480.73438
27.7500 27.7550 4684.7 0.0002135 3490.04004 4599.46533
27.7600 27.7650 4823.9 0.0002073 3491.03101 4739.02588
27.7700 27.7750 4953.7 0.0002019 3492.01880 4894.47998
27.7800 27.7850 5127.5 0.0001950 3493.00708 5065.36084
27.7900 27.7950 5252.6 0.0001904 3493.99194 5250.34180
27.8000 27.8050 5438.7 0.0001839 3494.97559 5446.90967
27.8100 27.8150 5625.8 0.0001778 3495.95728 5650.99512
27.8200 27.8250 5751.8 0.0001739 3496.93677 5856.54395
27.8300 27.8350 5911.9 0.0001692 3497.91431 6055.18359
27.8400 27.8450 6049.9 0.0001653 3498.88916 6236.20117
27.8500 27.8550 6196.4 0.0001614 3499.86157 6387.21338
27.8600 27.8650 6223.6 0.0001607 3500.83130 6495.72266
27.8700 27.8750 6281.8 0.0001592 3501.79810 6551.49561
27.8800 27.8850 6287.7 0.0001590 3502.76123 6549.05469
27.8900 27.8950 6233.3 0.0001604 3503.72144 6489.19141
27.9000 27.9050 6145.2 0.0001627 3504.67944 6378.77490
27.9100 27.9150 6054.5 0.0001652 3505.63403 6228.90186
27.9200 27.9250 5937.2 0.0001684 3506.58447 6052.37158
27.9300 27.9350 5786.9 0.0001728 3507.53223 5861.44287
27.9400 27.9450 5630.7 0.0001776 3508.47510 5666.50537
27.9500 27.9550 5495.2 0.0001820 3509.41406 5475.59863
27.9600 27.9650 5352.6 0.0001868 3510.35034 5294.53662
27.9700 27.9750 5195.3 0.0001925 3511.28052 5127.28174
27.9800 27.9850 5067.9 0.0001973 3512.20825 4976.36865
27.9900 27.9950 4955.8 0.0002018 3513.13159 4843.26660
28.0000 28.0050 4848.0 0.0002063 3514.04907 4728.66943
28.0100 28.0150 4756.0 0.0002103 3514.96289 4632.68604
28.0200 28.0250 4689.8 0.0002132 3515.87183 4555.01367
28.0300 28.0350 4642.4 0.0002154 3516.77588 4495.03906
28.0400 28.0450 4555.0 0.0002195 3517.67529 4451.92822
28.0500 28.0550 4527.2 0.0002209 3518.56812 4424.68213
28.0600 28.0650 4526.8 0.0002209 3519.45752 4412.19092
28.0700 28.0750 4490.3 0.0002227 3520.34058 4413.24902
28.0800 28.0850 4498.4 0.0002223 3521.21802 4426.54785
28.0900 28.0950 4504.6 0.0002220 3522.09082 4450.65088
28.1000 28.1050 4537.5 0.0002204 3522.95752 4483.92529
28.1100 28.1150 4544.1 0.0002201 3523.81763 4524.41846
28.1200 28.1250 4592.8 0.0002177 3524.67310 4569.74170
28.1300 28.1350 4623.5 0.0002163 3525.52100 4616.91260
28.1400 28.1450 4656.0 0.0002148 3526.36353 4662.29102
28.1500 28.1550 4659.2 0.0002146 3527.20020 4701.66211
28.1600 28.1650 4688.2 0.0002133 3528.02979 4730.59180
28.1700 28.1750 4693.1 0.0002131 3528.85254 4745.06738
28.1800 28.1850 4655.0 0.0002148 3529.66992 4742.30273
28.1900 28.1950 4642.3 0.0002154 3530.47998 4721.38721
28.2000 28.2050 4587.1 0.0002180 3531.28271 4683.54883
28.2100 28.2150 4532.3 0.0002206 3532.07886 4631.56543
28.2200 28.2250 4471.8 0.0002236 3532.86719 4569.33545
28.2300 28.2350 4409.9 0.0002268 3533.64966 4500.86328
28.2400 28.2450 4359.2 0.0002294 3534.42432 4429.79248
28.2500 28.2550 4262.2 0.0002346 3535.19092 4358.90088
28.2600 28.2650 4225.4 0.0002367 3535.94995 4290.36963
28.2700 28.2750 4155.3 0.0002407 3536.70288 4225.65234
28.2800 28.2850 4113.8 0.0002431 3537.44678 4165.67188
28.2900 28.2950 4051.5 0.0002468 3538.18384 4113.29883
28.3000 28.3050 4014.9 0.0002491 3538.91260 4064.03442
28.3100 28.3150 3996.0 0.0002502 3539.63330 4020.20337
28.3200 28.3250 3933.5 0.0002542 3540.34570 3981.62695
28.3300 28.3350 3909.7 0.0002558 3541.05005 3948.00708
28.3400 28.3450 3883.5 0.0002575 3541.74609 3918.97266
28.3500 28.3550 3876.6 0.0002580 3542.43481 3894.10010
28.3600 28.3650 3841.0 0.0002603 3543.11377 3872.95288
28.3700 28.3750 3818.0 0.0002619 3543.78442 3855.09424
28.3800 28.3850 3826.3 0.0002614 3544.44604 3840.10498
28.3900 28.3950 3791.7 0.0002637 3545.09985 3827.59766
28.4000 28.4050 3782.6 0.0002644 3545.74414 3817.22119
28.4100 28.4150 3791.5 0.0002637 3546.37988 3808.67236
28.4200 28.4250 3782.3 0.0002644 3547.00659 3801.68677
28.4300 28.4350 3749.1 0.0002667 3547.62402 3796.04443
28.4400 28.4450 3771.9 0.0002651 3548.23267 3791.56689
28.4500 28.4550 3773.1 0.0002650 3548.83276 3788.10986
28.4600 28.4650 3770.0 0.0002653 3549.42188 3785.56128
28.4700 28.4750 3767.1 0.0002655 3550.00269 3783.83887
28.4800 28.4850 3772.5 0.0002651 3550.57251 3782.88257
28.4900 28.4950 3794.0 0.0002636 3551.13428 3782.65356
28.5000 28.5050 3773.8 0.0002650 3551.68628 3783.13452
28.5100 28.5150 3780.6 0.0002645 3552.22827 3784.32275
28.5200 28.5250 3797.2 0.0002633 3552.76025 3786.23755
28.5300 28.5350 3794.0 0.0002636 3553.28320 3788.91187
28.5400 28.5450 3774.8 0.0002649 3553.79541 3792.39819
28.5500 28.5550 3800.1 0.0002632 3554.29834 3796.77368
28.5600 28.5650 3807.7 0.0002626 3554.79077 3802.13525
28.5700 28.5750 3788.5 0.0002640 3555.27295 3808.60620
28.5800 28.5850 3806.7 0.0002627 3555.74536 3816.34253
28.5900 28.5950 3792.9 0.0002637 3556.20776 3825.53198
28.6000 28.6050 3809.0 0.0002625 3556.65918 3836.39502
28.6100 28.6150 3805.7 0.0002628 3557.10034 3849.19360
28.6200 28.6250 3793.7 0.0002636 3557.53125 3864.22754
28.6300 28.6350 3835.4 0.0002607 3557.95190 3881.82861
28.6400 28.6450 3824.8 0.0002615 3558.36230 3902.36011
28.6500 28.6550 3840.2 0.0002604 3558.76099 3926.20190
28.6600 28.6650 3884.3 0.0002574 3559.14990 3953.74170
28.6700 28.6750 3866.7 0.0002586 3559.52783 3985.35010
28.6800 28.6850 3912.6 0.0002556 3559.89526 4021.35620
28.6900 28.6950 3928.0 0.0002546 3560.25146 4062.02783
28.7000 28.7050 3974.6 0.0002516 3560.59741 4107.54004
28.7100 28.7150 4002.6 0.0002498 3560.93188 4157.95898
28.7200 28.7250 4055.3 0.0002466 3561.25610 4213.09326
28.7300 28.7350 4106.0 0.0002435 3561.56885 4272.96631
28.7400 28.7450 4175.3 0.0002395 3561.87158 4337.02539
28.7500 28.7550 4225.0 0.0002367 3562.16138 4404.54199
28.7600 28.7650 4296.4 0.0002328 3562.44189 4474.37451
28.7700 28.7750 4383.0 0.0002282 3562.70947 4544.79297
28.7800 28.7850 4440.0 0.0002252 3562.96777 4611.04492
28.7900 28.7950 4508.8 0.0002218 3563.21387 4674.54492
28.8000 28.8050 4571.7 0.0002187 3563.44922 4729.13428
28.8100 28.8150 4598.0 0.0002175 3563.67310 4770.77344
28.8200 28.8250 4619.1 0.0002165 3563.88599 4796.16602
28.8300 28.8350 4650.1 0.0002150 3564.08667 4802.58203
28.8400 28.8450 4618.0 0.0002165 3564.27710 4789.89990
28.8500 28.8550 4596.9 0.0002175 3564.45557 4759.76563
28.8600 28.8650 4557.9 0.0002194 3564.62256 4715.41553
28.8700 28.8750 4507.3 0.0002219 3564.77905 4660.91553
28.8800 28.8850 4476.3 0.0002234 3564.92310 4600.42578
28.8900 28.8950 4412.0 0.0002267 3565.05640 4537.64063
28.9000 28.9050 4351.3 0.0002298 3565.17749 4475.55811
28.9100 28.9150 4339.6 0.0002304 3565.28760 4416.43750
28.9200 28.9250 4272.8 0.0002340 3565.38721 4361.90186
28.9300 28.9350 4244.3 0.0002356 3565.47510 4313.05762
28.9400 28.9450 4217.4 0.0002371 3565.55005 4270.64258
28.9500 28.9550 4186.9 0.0002388 3565.61377 4235.12061
28.9600 28.9650 4190.5 0.0002386 3565.66626 4206.77197
28.9700 28.9750 4166.9 0.0002400 3565.70825 4185.74072
28.9800 28.9850 4206.9 0.0002377 3565.73828 4172.09521
28.9900 28.9950 4175.7 0.0002395 3565.75635 4165.85205
29.0000 29.0050 4195.7 0.0002383 3565.76270 4166.99414
29.0100 29.0150 4209.1 0.0002376 3565.75757 4175.50000
29.0200 29.0250 4225.7 0.0002366 3565.74146 4191.33496
29.0300 29.0350 4251.6 0.0002352 3565.71436 4214.45215
29.0400 29.0450 4285.5 0.0002333 3565.67407 4244.78955
29.0500 29.0550 4353.3 0.0002297 3565.62451 4282.24170
29.0600 29.0650 4360.6 0.0002293 3565.56201 4326.62939
29.0700 29.0750 4455.9 0.0002244 3565.48779 4377.67041
29.0800 29.0850 4525.9 0.0002210 3565.40234 4434.91211
29.0900 29.0950 4579.8 0.0002184 3565.30591 4497.66016
29.1000 29.1050 4683.5 0.0002135 3565.19800 4564.88184
29.1100 29.1150 4758.5 0.0002102 3565.07910 4635.09521
29.1200 29.1250 4865.6 0.0002055 3564.94800 4706.27051
29.1300 29.1350 4926.8 0.0002030 3564.80542 4775.77441
29.1400 29.1450 5007.8 0.0001997 3564.65308 4840.47949
29.1500 29.1550 5085.5 0.0001966 3564.48755 4896.47998
29.1600 29.1650 5128.7 0.0001950 3564.31128 4941.95947
29.1700 29.1750 5179.9 0.0001931 3564.12476 4974.39795
29.1800 29.1850 5192.2 0.0001926 3563.92627 4993.47559
29.1900 29.1950 5222.3 0.0001915 3563.71582 5002.60449
29.2000 29.2050 5203.3 0.0001922 3563.49463 5001.25439
29.2100 29.2150 5178.0 0.0001931 3563.26343 4995.51123
29.2200 29.2250 5184.8 0.0001929 3563.01953 4989.98730
29.2300 29.2350 5150.7 0.0001942 3562.76587 4989.14014
29.2400 29.2450 5143.3 0.0001944 3562.49976 4996.94922
29.2500 29.2550 5150.0 0.0001942 3562.22388 5016.81592
29.2600 29.2650 5146.1 0.0001943 3561.93701 5051.58154
29.2700 29.2750 5192.8 0.0001926 3561.63892 5103.57471
29.2800 29.2850 5223.1 0.0001915 3561.33008 5174.66895
29.2900 29.2950 5296.0 0.0001888 3561.00977 5266.29541
29.3000 29.3050 5400.9 0.0001852 3560.67920 5379.40137
29.3100 29.3150 5512.8 0.0001814 3560.33789 5514.36914
29.3200 29.3250 5673.4 0.0001763 3559.98657 5670.87646
29.3300 29.3350 5884.1 0.0001699 3559.62402 5847.70508
29.3400 29.3450 6051.0 0.0001653 3559.25000 6042.50146
29.3500 29.3550 6281.8 0.0001592 3558.86719 6251.58301
29.3600 29.3650 6545.4 0.0001528 3558.47314 6469.79199
29.3700 29.3750 6739.6 0.0001484 3558.06860 6690.58350
29.3800 29.3850 6981.0 0.0001432 3557.65356 6906.39600
29.3900 29.3950 7186.7 0.0001391 3557.22876 7109.30127
29.4000 29.4050 7381.7 0.0001355 3556.79370 7291.72656
29.4100 29.4150 7556.9 0.0001323 3556.34839 7446.91992
29.4200 29.4250 7625.1 0.0001311 3555.89258 7568.92627
29.4300 29.4350 7678.4 0.0001302 3555.42700 7652.20947
29.4400 29.4450 7665.4 0.0001305 3554.95093 7691.40283
29.4500 29.4550 7613.1 0.0001314 3554.46582 7681.73096
29.4600 29.4650 7475.7 0.0001338 3553.97095 7620.19922
29.4700 29.4750 7373.3 0.0001356 3553.46606 7507.05078
29.4800 29.4850 7139.5 0.0001401 3552.95142 7346.65625
29.4900 29.4950 6952.3 0.0001438 3552.42725 7147.80469
29.5000 29.5050 6711.8 0.0001490 3551.89331 6918.57422
29.5100 29.5150 6452.6 0.0001550 3551.35034 6674.16406
29.5200 29.5250 6220.5 0.0001608 3550.79785 6423.56641
29.5300 29.5350 5999.0 0.0001667 3550.23608 6175.54248
29.5400 29.5450 5765.0 0.0001735 3549.66479 5936.70703
29.5500 29.5550 5584.9 0.0001791 3549.08521 5711.64941
29.5600 29.5650 5401.4 0.0001851 3548.49585 5503.25146
29.5700 29.5750 5233.1 0.0001911 3547.89771 5313.07422
29.5800 29.5850 5085.6 0.0001966 3547.29053 5141.68750
29.5900 29.5950 4949.7 0.0002020 3546.67480 4988.93896
29.6000 29.6050 4837.4 0.0002067 3546.05029 4854.17139
29.6100 29.6150 4745.1 0.0002107 3545.41650 4736.36816
29.6200 29.6250 4635.8 0.0002157 3544.77563 4634.29297
29.6300 29.6350 4567.8 0.0002189 3544.12573 4546.57861
29.6400 29.6450 4521.6 0.0002212 3543.46704 4471.79590
29.6500 29.6550 4434.7 0.0002255 3542.80078 4408.54102
29.6600 29.6650 4386.4 0.0002280 3542.12598 4355.45801
29.6700 29.6750 4356.0 0.0002296 3541.44312 4311.28906
29.6800 29.6850 4302.0 0.0002325 3540.75244 4274.90088
29.6900 29.6950 4277.2 0.0002338 3540.05420 4245.29004
29.7000 29.7050 4258.6 0.0002348 3539.34790 4221.60352
29.7100 29.7150 4223.9 0.0002367 3538.63428 4203.12793
29.7200 29.7250 4195.3 0.0002384 3537.91309 4189.28906
29.7300 29.7350 4194.8 0.0002384 3537.18359 4179.65430
29.7400 29.7450 4180.0 0.0002392 3536.44775 4173.91406
29.7500 29.7550 4163.8 0.0002402 3535.70483 4171.87793
29.7600 29.7650 4166.0 0.0002400 3534.95386 4173.47314
29.7700 29.7750 4156.1 0.0002406 3534.19678 4178.91260
29.7800 29.7850 4183.3 0.0002390 3533.43140 4187.98779
29.7900 29.7950 4194.1 0.0002384 3532.66064 4201.11914
29.8000 29.8050 4190.1 0.0002387 3531.88281 4218.67432
29.8100 29.8150 4230.6 0.0002364 3531.09766 4241.11719
29.8200 29.8250 4220.4 0.0002369 3530.30713 4269.02637
29.8300 29.8350 4254.9 0.0002350 3529.50928 4303.09424
29.8400 29.8450 4287.7 0.0002332 3528.70605 4343.48438
29.8500 29.8550 4318.5 0.0002316 3527.89624 4392.38770
29.8600 29.8650 4367.3 0.0002290 3527.08032 4450.16504
29.8700 29.8750 4395.9 0.0002275 3526.25854 4517.91016
29.8800 29.8850 4473.6 0.0002235 3525.43091 4596.78467
29.8900 29.8950 4546.3 0.0002200 3524.59888 4687.99121
29.9000 29.9050 4622.7 0.0002163 3523.75952 4792.72754
29.9100 29.9150 4706.3 0.0002125 3522.91553 4912.14941
29.9200 29.9250 4819.8 0.0002075 3522.06616 5047.27734
29.9300 29.9350 4948.9 0.0002021 3521.21143 5198.90283
29.9400 29.9450 5069.6 0.0001973 3520.35181 5367.44287
29.9500 29.9550 5256.9 0.0001902 3519.48779 5552.75244
29.9600 29.9650 5411.1 0.0001848 3518.61865 5753.89941
29.9700 29.9750 5576.0 0.0001793 3517.74463 5968.96289
29.9800 29.9850 5779.7 0.0001730 3516.86621 6194.86377
29.9900 29.9950 5971.3 0.0001675 3515.98340 6427.47314
30.0000 30.0050 6165.2 0.0001622 3515.09644 6661.56787
30.0100 30.0150 6350.2 0.0001575 3514.20435 6891.95166
30.0200 30.0250 6577.7 0.0001520 3513.30811 7113.90527
30.0300 30.0350 6760.5 0.0001479 3512.40869 7324.89063
30.0400 30.0450 7006.6 0.0001427 3511.50635 7520.78076
30.0500 30.0550 7230.7 0.0001383 3510.59961 7701.06982
30.0600 30.0650 7446.6 0.0001343 3509.68896 7863.82617
30.0700 30.0750 7673.1 0.0001303 3508.77466 8005.36035
30.0800 30.0850 7888.9 0.0001268 3507.85693 8119.35938
30.0900 30.0950 8099.8 0.0001235 3506.93701 8197.30762
30.1000 30.1050 8209.4 0.0001218 3506.01392 8229.33496
30.1100 30.1150 8236.6 0.0001214 3505.08740 8206.74316
30.1200 30.1250 8278.6 0.0001208 3504.15845 8124.45996
30.1300 30.1350 8198.6 0.0001220 3503.22656 7982.86475
30.1400 30.1450 8001.6 0.0001250 3502.29297 7788.12451
30.1500 30.1550 7762.9 0.0001288 3501.35693 7550.94092
30.1600 30.1650 7493.6 0.0001334 3500.41772 7284.35352
30.1700 30.1750 7151.5 0.0001398 3499.47681 7001.48438
30.1800 30.1850 6823.8 0.0001465 3498.53369 6713.91699
30.1900 30.1950 6511.4 0.0001536 3497.58936 6430.90234
30.2000 30.2050 6188.9 0.0001616 3496.64233 6159.24219
30.2100 30.2150 5904.8 0.0001694 3495.69434 5903.54980
30.2200 30.2250 5661.4 0.0001766 3494.74561 5666.66602
30.2300 30.2350 5416.4 0.0001846 3493.79468 5450.08740
30.2400 30.2450 5220.9 0.0001915 3492.84302 5254.30225
30.2500 30.2550 5032.9 0.0001987 3491.88989 5079.07471
30.2600 30.2650 4905.2 0.0002039 3490.93652 4923.65088
30.2700 30.2750 4765.1 0.0002099 3489.98193 4786.91406
30.2800 30.2850 4654.4 0.0002149 3489.02686 4667.51465
30.2900 30.2950 4557.9 0.0002194 3488.07080 4563.95508
30.3000 30.3050 4463.1 0.0002241 3487.11572 4474.68945
30.3100 30.3150 4392.3 0.0002277 3486.15869 4398.17773
30.3200 30.3250 4334.8 0.0002307 3485.20215 4332.93408
30.3300 30.3350 4276.5 0.0002338 3484.24707 4277.58057
30.3400 30.3450 4226.5 0.0002366 3483.28979 4230.86523
30.3500 30.3550 4187.2 0.0002388 3482.33472 4191.68018
30.3600 30.3650 4157.3 0.0002405 3481.37939 4159.08057
30.3700 30.3750 4122.2 0.0002426 3480.42432 4132.27734
30.3800 30.3850 4093.9 0.0002443 3479.47021 4110.63428
30.3900 30.3950 4090.4 0.0002445 3478.51782 4093.66528
30.4000 30.4050 4053.0 0.0002467 3477.56567 4081.01855
30.4100 30.4150 4046.2 0.0002471 3476.61450 4072.46753
30.4200 30.4250 4029.3 0.0002482 3475.66455 4067.90210
30.4300 30.4350 4038.5 0.0002476 3474.71704 4067.30762
30.4400 30.4450 4023.7 0.0002485 3473.76929 4070.76416
30.4500 30.4550 4033.2 0.0002479 3472.82471 4078.42798
30.4600 30.4650 4042.6 0.0002474 3471.88110 4090.52515
30.4700 30.4750 4039.0 0.0002476 3470.93945 4107.33447
30.4800 30.4850 4060.4 0.0002463 3470.00073 4129.18066
30.4900 30.4950 4078.5 0.0002452 3469.06323 4156.41895
30.5000 30.5050 4099.6 0.0002439 3468.12891 4186.91064
30.5100 30.5150 4112.1 0.0002432 3467.19653 4226.63818
30.5200 30.5250 4150.2 0.0002409 3466.26563 4272.18652
30.5300 30.5350 4203.0 0.0002379 3465.33862 4324.37842
30.5400 30.5450 4239.9 0.0002359 3464.41504 4383.30322
30.5500 30.5550 4269.3 0.0002342 3463.49292 4448.85742
30.5600 30.5650 4347.8 0.0002300 3462.57471 4520.67773
30.5700 30.5750 4398.5 0.0002274 3461.66089 4598.10986
30.5800 30.5850 4447.8 0.0002248 3460.74878 4680.18457
30.5900 30.5950 4533.1 0.0002206 3459.84082 4765.67041
30.6000 30.6050 4620.6 0.0002164 3458.93579 4854.89404
30.6100 30.6150 4705.6 0.0002125 3458.03467 4942.93213
30.6200 30.6250 4813.0 0.0002078 3457.13794 5030.10596
30.6300 30.6350 4946.5 0.0002022 3456.24609 5115.13721
30.6400 30.6450 5060.9 0.0001976 3455.35645 5196.91211
30.6500 30.6550 5222.9 0.0001915 3454.47192 5274.40576
30.6600 30.6650 5417.9 0.0001846 3453.59155 5346.55322
30.6700 30.6750 5584.0 0.0001791 3452.71509 5412.01221
30.6800 30.6850 5761.7 0.0001736 3451.84424 5468.87354
30.6900 30.6950 5945.5 0.0001682 3450.97852 5514.45117
30.7000 30.7050 6148.0 0.0001627 3450.11597 5545.31494
30.7100 30.7150 6241.6 0.0001602 3449.26001 5557.68945
30.7200 30.7250 6311.1 0.0001585 3448.40845 5548.24170
30.7300 30.7350 6378.5 0.0001568 3447.56250 5514.95947
30.7400 30.7450 6322.3 0.0001582 3446.72095 5457.87891
30.7500 30.7550 6227.1 0.0001606 3445.88550 5379.26172
30.7600 30.7650 6095.3 0.0001641 3445.05493 5283.19092
30.7700 30.7750 5925.0 0.0001688 3444.22998 5174.76465
30.7800 30.7850 5707.3 0.0001752 3443.41162 5059.22021
30.7900 30.7950 5499.3 0.0001818 3442.59888 4941.28369
30.8000 30.8050 5299.1 0.0001887 3441.79248 4824.79883
30.8100 30.8150 5081.2 0.0001968 3440.99121 4711.81201
30.8200 30.8250 4890.3 0.0002045 3440.19702 4606.01904
30.8300 30.8350 4739.3 0.0002110 3439.40845 4507.85400
30.8400 30.8450 4597.7 0.0002175 3438.62671 4418.45654
30.8500 30.8550 4472.8 0.0002236 3437.85107 4337.27148
30.8600 30.8650 4349.9 0.0002299 3437.08301 4264.70996
30.8700 30.8750 4288.7 0.0002332 3436.32104 4200.53711
30.8800 30.8850 4198.3 0.0002382 3435.56543 4144.36670
30.8900 30.8950 4143.4 0.0002413 3434.81738 4095.70459
30.9000 30.9050 4090.0 0.0002445 3434.07666 4053.99976
30.9100 30.9150 4058.6 0.0002464 3433.34204 4018.67017
30.9200 30.9250 4025.4 0.0002484 3432.61523 3989.13184
30.9300 30.9350 4004.2 0.0002497 3431.89600 3964.82544
30.9400 30.9450 3979.0 0.0002513 3431.18384 3945.23486
30.9500 30.9550 3960.7 0.0002525 3430.47998 3929.89648
30.9600 30.9650 3938.0 0.0002539 3429.78271 3918.41260
30.9700 30.9750 3970.8 0.0002518 3429.09277 3910.46167
30.9800 30.9850 3924.1 0.0002548 3428.41187 3905.80225
30.9900 30.9950 3940.8 0.0002538 3427.73804 3904.27441
31.0000 31.0050 3943.7 0.0002536 3427.07300 3905.80615
31.0100 31.0150 3945.8 0.0002534 3426.41553 3910.41626
31.0200 31.0250 3958.9 0.0002526 3425.76587 3918.20874
31.0300 31.0350 3982.6 0.0002511 3425.12451 3929.39087
31.0400 31.0450 3988.1 0.0002507 3424.49097 3944.25781
31.0500 31.0550 4008.4 0.0002495 3423.86743 3963.20972
31.0600 31.0650 4031.0 0.0002481 3423.25073 3986.74707
31.0700 31.0750 4074.1 0.0002455 3422.64453 4015.85718
31.0800 31.0850 4090.0 0.0002445 3422.04492 4050.45361
31.0900 31.0950 4127.0 0.0002423 3421.45557 4091.70898
31.1000 31.1050 4182.3 0.0002391 3420.87329 4140.47412
31.1100 31.1150 4217.6 0.0002371 3420.30151 4197.66016
31.1200 31.1250 4285.7 0.0002333 3419.73779 4264.19531
31.1300 31.1350 4352.5 0.0002298 3419.18286 4340.99170
31.1400 31.1450 4427.2 0.0002259 3418.63770 4428.90381
31.1500 31.1550 4508.4 0.0002218 3418.10107 4530.36230
31.1600 31.1650 4601.0 0.0002173 3417.57349 4642.52881
31.1700 31.1750 4736.2 0.0002111 3417.05542 4767.38379
31.1800 31.1850 4846.7 0.0002063 3416.54663 4905.30664
31.1900 31.1950 4978.3 0.0002009 3416.04761 5055.00830
31.2000 31.2050 5169.5 0.0001934 3415.55762 5215.92285
31.2100 31.2150 5290.0 0.0001890 3415.07715 5386.40039
31.2200 31.2250 5485.2 0.0001823 3414.60620 5563.94385
31.2300 31.2350 5688.3 0.0001758 3414.14502 5744.94873
31.2400 31.2450 5836.8 0.0001713 3413.69312 5924.45264
31.2500 31.2550 6028.8 0.0001659 3413.25122 6095.94141
31.2600 31.2650 6167.0 0.0001622 3412.81860 6251.37256
31.2700 31.2750 6316.3 0.0001583 3412.39673 6381.60352
31.2800 31.2850 6373.6 0.0001569 3411.98438 6477.33301
31.2900 31.2950 6409.2 0.0001560 3411.58154 6530.54785
31.3000 31.3050 6445.4 0.0001551 3411.18823 6536.10693
31.3100 31.3150 6384.2 0.0001566 3410.80566 6492.94824
31.3200 31.3250 6293.5 0.0001589 3410.43262 6404.39258
31.3300 31.3350 6189.1 0.0001616 3410.06958 6277.40088
31.3400 31.3450 6025.3 0.0001660 3409.71680 6121.12061
31.3500 31.3550 5884.0 0.0001700 3409.37402 5945.27393
31.3600 31.3650 5699.4 0.0001755 3409.04150 5758.84277
31.3700 31.3750 5552.8 0.0001801 3408.71948 5569.45850
31.3800 31.3850 5368.6 0.0001863 3408.40723 5382.97314
31.3900 31.3950 5212.5 0.0001918 3408.10522 5204.17432
31.4000 31.4050 5083.7 0.0001967 3407.81396 5034.95703
31.4100 31.4150 4913.0 0.0002035 3407.53271 4877.66699
31.4200 31.4250 4804.1 0.0002082 3407.26099 4733.31689
31.4300 31.4350 4696.4 0.0002129 3407.00049 4602.28906
31.4400 31.4450 4596.6 0.0002176 3406.75049 4484.51025
31.4500 31.4550 4475.1 0.0002235 3406.50977 4379.57715
31.4600 31.4650 4406.9 0.0002269 3406.28003 4285.86182
31.4700 31.4750 4332.6 0.0002308 3406.06030 4204.41406
31.4800 31.4850 4245.1 0.0002356 3405.85107 4133.35693
31.4900 31.4950 4195.0 0.0002384 3405.65283 4071.69897
31.5000 31.5050 4149.5 0.0002410 3405.46411 4018.43774
31.5100 31.5150 4088.6 0.0002446 3405.28687 3972.59888
31.5200 31.5250 4042.9 0.0002473 3405.11890 3933.26172
31.5300 31.5350 4023.2 0.0002486 3404.96191 3899.57813
31.5400 31.5450 3959.8 0.0002525 3404.81567 3870.83838
31.5500 31.5550 3933.9 0.0002542 3404.67920 3846.27539
31.5600 31.5650 3907.8 0.0002559 3404.55347 3825.36743
31.5700 31.5750 3892.7 0.0002569 3404.43799 3807.62866
31.5800 31.5850 3848.1 0.0002599 3404.33301 3792.67188
31.5900 31.5950 3832.5 0.0002609 3404.23853 3780.17603
31.6000 31.6050 3817.9 0.0002619 3404.15430 3769.90454
31.6100 31.6150 3809.1 0.0002625 3404.07983 3761.67285
31.6200 31.6250 3786.9 0.0002641 3404.01636 3755.35767
31.6300 31.6350 3786.2 0.0002641 3403.96289 3750.87378
31.6400 31.6450 3754.6 0.0002663 3403.91992 3748.56201
31.6500 31.6550 3758.9 0.0002660 3403.88721 3747.64209
31.6600 31.6650 3749.3 0.0002667 3403.86450 3748.55225
31.6700 31.6750 3752.8 0.0002665 3403.85205 3751.20117
31.6800 31.6850 3746.1 0.0002669 3403.84961 3755.66357
31.6900 31.6950 3729.0 0.0002682 3403.85815 3761.95850
31.7000 31.7050 3753.2 0.0002664 3403.87622 3770.09375
31.7100 31.7150 3738.9 0.0002675 3403.90454 3780.05566
31.7200 31.7250 3745.0 0.0002670 3403.94189 3791.79810
31.7300 31.7350 3740.9 0.0002673 3403.99097 3805.23364
31.7400 31.7450 3758.2 0.0002661 3404.04932 3820.20410
31.7500 31.7550 3759.2 0.0002660 3404.11694 3836.47485
31.7600 31.7650 3773.8 0.0002650 3404.19556 3853.69141
31.7700 31.7750 3786.1 0.0002641 3404.28394 3871.37231
31.7800 31.7850 3787.4 0.0002640 3404.38159 3888.88306
31.7900 31.7950 3805.8 0.0002628 3404.48926 3905.43677
31.8000 31.8050 3813.5 0.0002622 3404.60669 3919.29346
31.8100 31.8150 3813.2 0.0002622 3404.73315 3931.27222
31.8200 31.8250 3810.8 0.0002624 3404.87085 3939.74609
31.8300 31.8350 3830.5 0.0002611 3405.01685 3944.22290
31.8400 31.8450 3831.7 0.0002610 3405.17285 3945.80322
31.8500 31.8550 3819.4 0.0002618 3405.33765 3942.44263
31.8600 31.8650 3846.3 0.0002600 3405.51270 3936.02051
31.8700 31.8750 3832.0 0.0002610 3405.69604 3927.90259
31.8800 31.8850 3826.1 0.0002614 3405.88940 3918.21289
31.8900 31.8950 3830.0 0.0002611 3406.09131 3908.36328
31.9000 31.9050 3844.2 0.0002601 3406.30396 3899.21704
31.9100 31.9150 3844.5 0.0002601 3406.52344 3891.51392
31.9200 31.9250 3841.9 0.0002603 3406.75342 3885.87622
31.9300 31.9350 3862.4 0.0002589 3406.99170 3882.83496
31.9400 31.9450 3846.5 0.0002600 3407.23926 3882.86353
31.9500 31.9550 3853.2 0.0002595 3407.49512 3886.41333
31.9600 31.9650 3894.6 0.0002568 3407.75977 3893.92163
31.9700 31.9750 3913.3 0.0002555 3408.03320 3905.84155
31.9800 31.9850 3916.8 0.0002553 3408.31543 3922.65479
31.9900 31.9950 3960.5 0.0002525 3408.60547 3944.87280
32.0000 32.0050 3991.2 0.0002505 3408.90356 3973.02979
32.0100 32.0150 4020.6 0.0002487 3409.21094 4007.71533
32.0200 32.0250 4070.2 0.0002457 3409.52612 4049.51245
32.0300 32.0350 4108.2 0.0002434 3409.84961 4097.64307
32.0400 32.0450 4154.0 0.0002407 3410.18066 4155.43604
32.0500 32.0550 4220.1 0.0002370 3410.51978 4222.03662
32.0600 32.0650 4299.7 0.0002326 3410.86646 4297.88623
32.0700 32.0750 4367.7 0.0002290 3411.22070 4383.30518
32.0800 32.0850 4431.3 0.0002257 3411.58374 4478.42969
32.0900 32.0950 4562.0 0.0002192 3411.95239 4580.50195
32.1000 32.1050 4658.3 0.0002147 3412.32983 4694.39111
32.1100 32.1150 4763.1 0.0002099 3412.71362 4816.54102
32.1200 32.1250 4917.5 0.0002034 3413.10498 4945.46240
32.1300 32.1350 5044.8 0.0001982 3413.50488 5078.89648
32.1400 32.1450 5192.9 0.0001926 3413.90967 5213.64258
32.1500 32.1550 5339.1 0.0001873 3414.32227 5345.38232
32.1600 32.1650 5485.9 0.0001823 3414.74170 5468.68262
32.1700 32.1750 5583.8 0.0001791 3415.16724 5577.18262
32.1800 32.1850 5696.0 0.0001756 3415.59985 5664.14648
32.1900 32.1950 5771.4 0.0001733 3416.03833 5723.35303
32.2000 32.2050 5802.0 0.0001724 3416.48315 5750.19043
32.2100 32.2150 5815.3 0.0001720 3416.93457 5742.61572
32.2200 32.2250 5796.0 0.0001725 3417.39233 5701.62939
32.2300 32.2350 5719.7 0.0001748 3417.85547 5631.06738
32.2400 32.2450 5608.4 0.0001783 3418.32471 5536.77148
32.2500 32.2550 5530.5 0.0001808 3418.79932 5425.52930
32.2600 32.2650 5404.3 0.0001850 3419.27905 5304.05713
32.2700 32.2750 5269.9 0.0001898 3419.76489 5178.32910
32.2800 32.2850 5138.8 0.0001946 3420.25610 5053.24658
32.2900 32.2950 5002.1 0.0001999 3420.75171 4932.59521
32.3000 32.3050 4883.8 0.0002048 3421.25317 4819.11475
32.3100 32.3150 4781.4 0.0002091 3421.75928 4714.74023
32.3200 32.3250 4686.8 0.0002134 3422.26904 4620.73682
32.3300 32.3350 4589.0 0.0002179 3422.78516 4538.15332
32.3400 32.3450 4525.9 0.0002210 3423.30542 4466.75342
32.3500 32.3550 4481.5 0.0002231 3423.82983 4406.88623
32.3600 32.3650 4399.6 0.0002273 3424.35791 4358.36133
32.3700 32.3750 4376.9 0.0002285 3424.88989 4320.78906
32.3800 32.3850 4335.6 0.0002307 3425.42676 4293.61621
32.3900 32.3950 4324.4 0.0002312 3425.96704 4276.13770
32.4000 32.4050 4302.5 0.0002324 3426.51123 4267.51318
32.4100 32.4150 4310.2 0.0002320 3427.05811 4266.74756
32.4200 32.4250 4312.7 0.0002319 3427.60889 4272.67432
32.4300 32.4350 4312.0 0.0002319 3428.16284 4283.92676
32.4400 32.4450 4338.6 0.0002305 3428.71924 4298.88770
32.4500 32.4550 4354.8 0.0002296 3429.27905 4315.68506
32.4600 32.4650 4374.8 0.0002286 3429.84155 4332.19531
32.4700 32.4750 4385.4 0.0002280 3430.40723 4346.14502
32.4800 32.4850 4409.1 0.0002268 3430.97437 4355.30566
32.4900 32.4950 4395.2 0.0002275 3431.54517 4357.75537
32.5000 32.5050 4394.1 0.0002276 3432.11646 4352.19238
32.5100 32.5150 4392.5 0.0002277 3432.69043 4338.15234
32.5200 32.5250 4355.9 0.0002296 3433.26587 4316.06104
32.5300 32.5350 4330.1 0.0002309 3433.84326 4287.10547
32.5400 32.5450 4288.5 0.0002332 3434.42188 4252.96387
32.5500 32.5550 4258.3 0.0002348 3435.00244 4215.49902
32.5600 32.5650 4188.3 0.0002388 3435.58350 4176.48975
32.5700 32.5750 4164.8 0.0002401 3436.16577 4137.48975
32.5800 32.5850 4098.9 0.0002440 3436.74854 4099.73975
32.5900 32.5950 4061.3 0.0002462 3437.33374 4064.18848
32.6000 32.6050 4024.3 0.0002485 3437.91748 4031.70337
32.6100 32.6150 3988.5 0.0002507 3438.50220 4002.37720
32.6200 32.6250 3974.4 0.0002516 3439.08716 3976.68701
32.6300 32.6350 3929.1 0.0002545 3439.67212 3954.79688
32.6400 32.6450 3923.7 0.0002549 3440.25708 3936.76294
32.6500 32.6550 3908.2 0.0002559 3440.84155 3921.08325
32.6600 32.6650 3897.0 0.0002566 3441.42432 3910.86450
32.6700 32.6750 3895.1 0.0002567 3442.00854 3903.98389
32.6800 32.6850 3902.8 0.0002562 3442.59058 3900.47095
32.6900 32.6950 3908.0 0.0002559 3443.17139 3900.06128
32.7000 32.7050 3931.3 0.0002544 3443.75171 3902.43066
32.7100 32.7150 3945.2 0.0002535 3444.33130 3907.18677
32.7200 32.7250 3965.0 0.0002522 3444.90845 3913.86938
32.7300 32.7350 4006.3 0.0002496 3445.48413 3921.93774
32.7400 32.7450 4016.8 0.0002490 3446.05811 3930.79199
32.7500 32.7550 4045.7 0.0002472 3446.62988 3936.15601
32.7600 32.7650 4074.1 0.0002455 3447.19971 3944.74536
32.7700 32.7750 4077.9 0.0002452 3447.76685 3952.41675
32.7800 32.7850 4083.4 0.0002449 3448.33154 3958.91553
32.7900 32.7950 4089.7 0.0002445 3448.89331 3964.27271
32.8000 32.8050 4093.7 0.0002443 3449.45288 3968.82397
32.8100 32.8150 4080.2 0.0002451 3450.00806 3973.16821
32.8200 32.8250 4075.8 0.0002453 3450.56079 3978.07935
32.8300 32.8350 4059.8 0.0002463 3451.11060 3984.41504
32.8400 32.8450 4048.1 0.0002470 3451.65576 3993.02173
32.8500 32.8550 4054.0 0.0002467 3452.19702 4004.69189
32.8600 32.8650 4042.5 0.0002474 3452.73535 4020.11499
32.8700 32.8750 4048.6 0.0002470 3453.26904 4039.88721
32.8800 32.8850 4040.0 0.0002475 3453.79858 4064.49048
32.8900 32.8950 4069.4 0.0002457 3454.32373 4094.29419
32.9000 32.9050 4066.9 0.0002459 3454.84424 4129.54736
32.9100 32.9150 4118.1 0.0002428 3455.35815 4170.36914
32.9200 32.9250 4144.8 0.0002413 3455.86963 4217.09424
32.9300 32.9350 4202.6 0.0002380 3456.37500 4268.74023
32.9400 32.9450 4251.5 0.0002352 3456.87378 4325.22412
32.9500 32.9550 4318.2 0.0002316 3457.36816 4385.81689
32.9600 32.9650 4411.5 0.0002267 3457.85718 4449.44824
32.9700 32.9750 4468.9 0.0002238 3458.33887 4514.65137
32.9800 32.9850 4576.5 0.0002185 3458.81543 4579.52588
32.9900 32.9950 4659.5 0.0002146 3459.28564 4641.70020
33.0000 33.0050 4730.9 0.0002114 3459.74854 4698.39600
33.0100 33.0150 4801.2 0.0002083 3460.20605 4746.54688
33.0200 33.0250 4867.5 0.0002054 3460.65674 4783.08691
33.0300 33.0350 4879.5 0.0002049 3461.09961 4805.33154
33.0400 33.0450 4891.1 0.0002045 3461.53613 4811.43262
33.0500 33.0550 4895.8 0.0002043 3461.96509 4800.75000
33.0600 33.0650 4833.4 0.0002069 3462.38672 4774.01172
33.0700 33.0750 4801.1 0.0002083 3462.80005 4733.19482
33.0800 33.0850 4733.7 0.0002113 3463.20654 4681.14355
33.0900 33.0950 4656.8 0.0002147 3463.60376 4621.08887
33.1000 33.1050 4567.3 0.0002189 3463.99341 4556.20117
33.1100 33.1150 4486.9 0.0002229 3464.37476 4489.29639
33.1200 33.1250 4416.9 0.0002264 3464.74707 4422.66895
33.1300 33.1350 4332.7 0.0002308 3465.11157 4358.15186
33.1400 33.1450 4286.0 0.0002333 3465.46606 4296.88818
33.1500 33.1550 4217.8 0.0002371 3465.81250 4239.80957
33.1600 33.1650 4149.1 0.0002410 3466.14917 4187.47168
33.1700 33.1750 4106.7 0.0002435 3466.47632 4140.17627
33.1800 33.1850 4074.1 0.0002455 3466.79492 4098.05029
33.1900 33.1950 4033.5 0.0002479 3467.10229 4061.08105
33.2000 33.2050 3996.5 0.0002502 3467.40088 4029.16577
33.2100 33.2150 3976.7 0.0002515 3467.68921 4002.13257
33.2200 33.2250 3940.1 0.0002538 3467.96753 3979.77002
33.2300 33.2350 3938.6 0.0002539 3468.23511 3961.84790
33.2400 33.2450 3910.8 0.0002557 3468.49170 3948.13843
33.2500 33.2550 3909.1 0.0002558 3468.73779 3938.42944
33.2600 33.2650 3898.2 0.0002565 3468.97314 3932.54175
33.2700 33.2750 3892.8 0.0002569 3469.19727 3930.33008
33.2800 33.2850 3893.7 0.0002568 3469.41064 3931.70898
33.2900 33.2950 3900.0 0.0002564 3469.61230 3936.64771
33.3000 33.3050 3889.2 0.0002571 3469.80298 3945.17798
33.3100 33.3150 3915.5 0.0002554 3469.98096 3957.39966
33.3200 33.3250 3922.7 0.0002549 3470.14795 3973.47998
33.3300 33.3350 3938.1 0.0002539 3470.30249 3993.65015
33.3400 33.3450 3966.4 0.0002521 3470.44507 4018.20532
33.3500 33.3550 3987.5 0.0002508 3470.57495 4047.49683
33.3600 33.3650 4009.7 0.0002494 3470.69238 4081.93237
33.3700 33.3750 4038.9 0.0002476 3470.79834 4121.93848
33.3800 33.3850 4070.8 0.0002457 3470.88989 4167.99902
33.3900 33.3950 4125.1 0.0002424 3470.96924 4220.56055
33.4000 33.4050 4178.0 0.0002393 3471.03540 4280.08496
33.4100 33.4150 4227.0 0.0002366 3471.08936 4346.98096
33.4200 33.4250 4306.3 0.0002322 3471.12964 4421.55957
33.4300 33.4350 4392.1 0.0002277 3471.15503 4503.99854
33.4400 33.4450 4459.3 0.0002243 3471.16772 4594.78271
33.4500 33.4550 4556.6 0.0002195 3471.16699 4692.58936
33.4600 33.4650 4667.4 0.0002143 3471.15112 4797.28516
33.4700 33.4750 4748.4 0.0002106 3471.12207 4907.82178
33.4800 33.4850 4866.8 0.0002055 3471.07861 5022.73193
33.4900 33.4950 4991.3 0.0002003 3471.02075 5140.14844
33.5000 33.5050 5102.9 0.0001960 3470.94775 5257.93701
33.5100 33.5150 5217.5 0.0001917 3470.86157 5373.84863
33.5200 33.5250 5342.6 0.0001872 3470.75977 5485.70068
33.5300 33.5350 5479.2 0.0001825 3470.64307 5591.45410
33.5400 33.5450 5547.8 0.0001803 3470.51172 5689.16699
33.5500 33.5550 5691.1 0.0001757 3470.36523 5776.77393
33.5600 33.5650 5797.0 0.0001725 3470.20264 5851.84473
33.5700 33.5750 5825.0 0.0001717 3470.02515 5911.42578
33.5800 33.5850 5915.9 0.0001690 3469.83301 5952.17139
33.5900 33.5950 5938.8 0.0001684 3469.62427 5970.78125
33.6000 33.6050 5915.5 0.0001690 3469.39917 5964.68945
33.6100 33.6150 5876.7 0.0001702 3469.15918 5932.59961
33.6200 33.6250 5823.0 0.0001717 3468.90332 5875.76074
33.6300 33.6350 5747.0 0.0001740 3468.63013 5796.79883
33.6400 33.6450 5621.9 0.0001779 3468.34204 5700.01904
33.6500 33.6550 5528.8 0.0001809 3468.03638 5590.82178
33.6600 33.6650 5403.8 0.0001851 3467.71460 5474.24902
33.6700 33.6750 5280.0 0.0001894 3467.37744 5355.70215
33.6800 33.6850 5161.6 0.0001937 3467.02173 5239.06494
33.6900 33.6950 5061.8 0.0001976 3466.65015 5127.67236
33.7000 33.7050 4961.8 0.0002015 3466.26147 5023.67920
33.7100 33.7150 4862.2 0.0002057 3465.85596 4928.81787
33.7200 33.7250 4800.1 0.0002083 3465.43311 4844.09229
33.7300 33.7350 4723.1 0.0002117 3464.99316 4768.82178
33.7400 33.7450 4687.1 0.0002134 3464.53687 4705.53564
33.7500 33.7550 4653.2 0.0002149 3464.06201 4652.82764
33.7600 33.7650 4608.3 0.0002170 3463.56958 4610.22412
33.7700 33.7750 4617.5 0.0002166 3463.05957 4576.99658
33.7800 33.7850 4610.7 0.0002169 3462.53247 4552.18652
33.7900 33.7950 4587.0 0.0002180 3461.98730 4534.58984
33.8000 33.8050 4626.9 0.0002161 3461.42456 4522.80176
33.8100 33.8150 4619.0 0.0002165 3460.84326 4515.22949
33.8200 33.8250 4599.9 0.0002174 3460.24463 4510.19385
33.8300 33.8350 4602.6 0.0002173 3459.62744 4506.05713
33.8400 33.8450 4596.0 0.0002176 3458.99219 4501.41943
33.8500 33.8550 4575.6 0.0002186 3458.33838 4495.48486
33.8600 33.8650 4546.4 0.0002200 3457.66724 4487.48682
33.8700 33.8750 4543.9 0.0002201 3456.97632 4477.82324
33.8800 33.8850 4511.5 0.0002217 3456.26685 4467.26660
33.8900 33.8950 4477.9 0.0002233 3455.53979 4457.01074
33.9000 33.9050 4476.2 0.0002234 3454.79346 4448.38525
33.9100 33.9150 4460.4 0.0002242 3454.02905 4442.83496
33.9200 33.9250 4426.4 0.0002259 3453.24512 4441.71631
33.9300 33.9350 4450.2 0.0002247 3452.44312 4446.24268
33.9400 33.9450 4459.2 0.0002243 3451.62109 4457.48242
33.9500 33.9550 4439.0 0.0002253 3450.78125 4476.35059
33.9600 33.9650 4474.2 0.0002235 3449.92261 4503.62012
33.9700 33.9750 4525.3 0.0002210 3449.04395 4539.92334
33.9800 33.9850 4517.3 0.0002214 3448.14722 4585.75293
33.9900 33.9950 4589.6 0.0002179 3447.23022 4641.42822
34.0000 34.0050 4641.7 0.0002154 3446.29395 4707.07031
34.0100 34.0150 4678.0 0.0002138 3445.34009 4782.56055
34.0200 34.0250 4779.1 0.0002092 3444.36621 4867.49561
34.0300 34.0350 4849.7 0.0002062 3443.37158 4961.14258
34.0400 34.0450 4937.6 0.0002025 3442.35864 5062.44238
34.0500 34.0550 5025.9 0.0001990 3441.32642 5170.00879
34.0600 34.0650 5142.1 0.0001945 3440.27441 5282.19434
34.0700 34.0750 5218.8 0.0001916 3439.20337 5397.15527
34.0800 34.0850 5321.3 0.0001879 3438.11206 5512.87305
34.0900 34.0950 5424.5 0.0001844 3437.00122 5627.13379
34.1000 34.1050 5507.4 0.0001816 3435.87207 5737.39941
34.1100 34.1150 5601.8 0.0001785 3434.72266 5840.62646
34.1200 34.1250 5680.1 0.0001761 3433.55298 5933.14600
34.1300 34.1350 5750.6 0.0001739 3432.36426 6010.69873
34.1400 34.1450 5766.4 0.0001734 3431.15527 6068.74902
34.1500 34.1550 5824.7 0.0001717 3429.92725 6103.05664
34.1600 34.1650 5800.3 0.0001724 3428.67993 6110.41260
34.1700 34.1750 5754.8 0.0001738 3427.41235 6089.31104
34.1800 34.1850 5752.8 0.0001738 3426.12427 6040.33643
34.1900 34.1950 5674.2 0.0001762 3424.81812 5966.13379
34.2000 34.2050 5582.5 0.0001791 3423.49048 5870.99121
34.2100 34.2150 5515.1 0.0001813 3422.14404 5760.14111
34.2200 34.2250 5431.6 0.0001841 3420.77783 5639.26123
34.2300 34.2350 5302.0 0.0001886 3419.39160 5513.59814
34.2400 34.2450 5238.2 0.0001909 3417.98633 5387.77783
34.2500 34.2550 5137.3 0.0001947 3416.56006 5265.57910
34.2600 34.2650 5045.3 0.0001982 3415.11572 5149.83301
34.2700 34.2750 4980.3 0.0002008 3413.65039 5042.71387
34.2800 34.2850 4909.2 0.0002037 3412.16626 4945.52637
34.2900 34.2950 4847.5 0.0002063 3410.66113 4859.02393
34.3000 34.3050 4825.2 0.0002072 3409.13770 4781.09961
34.3100 34.3150 4804.7 0.0002081 3407.59375 4716.33789
34.3200 34.3250 4761.1 0.0002100 3406.03003 4661.81299
34.3300 34.3350 4770.2 0.0002096 3404.44629 4616.63135
34.3400 34.3450 4754.8 0.0002103 3402.84473 4579.57715
34.3500 34.3550 4737.9 0.0002111 3401.22314 4549.12305
34.3600 34.3650 4728.6 0.0002115 3399.58057 4523.59082
34.3700 34.3750 4736.8 0.0002111 3397.91992 4500.81689
34.3800 34.3850 4694.4 0.0002130 3396.23853 4478.93311
34.3900 34.3950 4667.9 0.0002142 3394.53857 4456.14697
34.4000 34.4050 4654.0 0.0002149 3392.81885 4431.06494
34.4100 34.4150 4600.2 0.0002174 3391.08008 4402.86133
34.4200 34.4250 4538.7 0.0002203 3389.32178 4371.35254
34.4300 34.4350 4495.6 0.0002224 3387.54346 4336.95166
34.4400 34.4450 4446.1 0.0002249 3385.74731 4302.34131
34.4500 34.4550 4374.0 0.0002286 3383.93042 4264.96826
34.4600 34.4650 4332.6 0.0002308 3382.09595 4227.81152
34.4700 34.4750 4267.8 0.0002343 3380.24048 4191.94287
34.4800 34.4850 4215.3 0.0002372 3378.36719 4158.29248
34.4900 34.4950 4178.7 0.0002393 3376.47388 4127.59961
34.5000 34.5050 4135.6 0.0002418 3374.56323 4100.42041
34.5100 34.5150 4080.5 0.0002451 3372.63257 4077.14478
34.5200 34.5250 4081.5 0.0002450 3370.68286 4058.00952
34.5300 34.5350 4029.3 0.0002482 3368.71558 4043.11426
34.5400 34.5450 3991.1 0.0002506 3366.72778 4032.43481
34.5500 34.5550 4000.3 0.0002500 3364.72290 4025.82153
34.5600 34.5650 3969.6 0.0002519 3362.69824 4022.99756
34.5700 34.5750 3947.7 0.0002533 3360.65601 4023.53687
34.5800 34.5850 3944.5 0.0002535 3358.59448 4026.86084
34.5900 34.5950 3946.3 0.0002534 3356.51514 4032.20874
34.6000 34.6050 3914.4 0.0002555 3354.41772 4038.63110
34.6100 34.6150 3941.9 0.0002537 3352.30029 4045.00488
34.6200 34.6250 3929.5 0.0002545 3350.16650 4050.08301
34.6300 34.6350 3906.9 0.0002560 3348.01416 4052.58740
34.6400 34.6450 3911.2 0.0002557 3345.84424 4051.35376
34.6500 34.6550 3913.9 0.0002555 3343.65576 4045.49512
34.6600 34.6650 3897.4 0.0002566 3341.44971 4034.62573
34.6700 34.6750 3878.5 0.0002578 3339.22607 4018.58496
34.6800 34.6850 3877.4 0.0002579 3336.98413 3997.93115
34.6900 34.6950 3855.1 0.0002594 3334.72534 3973.49023
34.7000 34.7050 3844.7 0.0002601 3332.44800 3946.28662
34.7100 34.7150 3832.3 0.0002609 3330.15430 3917.89087
34.7200 34.7250 3802.5 0.0002630 3327.84229 3888.29004
34.7300 34.7350 3799.8 0.0002632 3325.51416 3858.83325
34.7400 34.7450 3786.4 0.0002641 3323.16772 3830.20386
34.7500 34.7550 3750.9 0.0002666 3320.80591 3802.91406
34.7600 34.7650 3760.1 0.0002660 3318.42627 3777.33594
34.7700 34.7750 3749.5 0.0002667 3316.02856 3753.72021
34.7800 34.7850 3741.0 0.0002673 3313.61597 3732.22314
34.7900 34.7950 3698.1 0.0002704 3311.18530 3712.93066
34.8000 34.8050 3739.5 0.0002674 3308.73950 3695.87378
34.8100 34.8150 3704.7 0.0002699 3306.27637 3681.03564
34.8200 34.8250 3689.1 0.0002711 3303.79761 3668.37012
34.8300 34.8350 3711.8 0.0002694 3301.30176 3657.56030
34.8400 34.8450 3704.8 0.0002699 3298.79077 3648.99927
34.8500 34.8550 3686.3 0.0002713 3296.26440 3642.33105
34.8600 34.8650 3724.7 0.0002685 3293.72070 3637.45630
34.8700 34.8750 3719.5 0.0002689 3291.16138 3634.17505
34.8800 34.8850 3705.2 0.0002699 3288.58618 3632.36670
34.8900 34.8950 3751.1 0.0002666 3285.99707 3631.97412
34.9000 34.9050 3737.7 0.0002675 3283.39063 3632.60913
34.9100 34.9150 3731.5 0.0002680 3280.77075 3634.20874
34.9200 34.9250 3783.9 0.0002643 3278.13525 3636.62061
34.9300 34.9350 3768.4 0.0002654 3275.48413 3639.72900
34.9400 34.9450 3761.0 0.0002659 3272.81812 3643.79639
34.9500 34.9550 3796.9 0.0002634 3270.13672 3648.22485
34.9600 34.9650 3796.5 0.0002634 3267.44214 3653.63281
34.9700 34.9750 3768.7 0.0002653 3264.73193 3659.92920
34.9800 34.9850 3820.6 0.0002617 3262.00854 3667.60693
34.9900 34.9950 3810.4 0.0002624 3259.26978 3677.07104
35.0000 35.0050 3797.1 0.0002634 3256.51782 3688.77466
35.0100 35.0150 3828.4 0.0002612 3253.75122 3703.20361
35.0200 35.0250 3841.5 0.0002603 3250.97070 3720.86719
35.0300 35.0350 3849.4 0.0002598 3248.17676 3742.28662
35.0400 35.0450 3897.5 0.0002566 3245.36816 3767.99023
35.0500 35.0550 3917.9 0.0002552 3242.54736 3798.50684
35.0600 35.0650 3925.1 0.0002548 3239.71143 3834.35986
35.0700 35.0750 4005.2 0.0002497 3236.86450 3876.05713
35.0800 35.0850 4030.3 0.0002481 3234.00220 3924.07422
35.0900 35.0950 4065.3 0.0002460 3231.12964 3978.84180
35.1000 35.1050 4153.0 0.0002408 3228.24341 4040.71997
35.1100 35.1150 4219.8 0.0002370 3225.34326 4109.96924
35.1200 35.1250 4268.6 0.0002343 3222.43164 4186.72266
35.1300 35.1350 4383.7 0.0002281 3219.50659 4270.93408
35.1400 35.1450 4472.0 0.0002236 3216.57031 4362.33008
35.1500 35.1550 4557.3 0.0002194 3213.62134 4460.32861
35.1600 35.1650 4681.4 0.0002136 3210.66113 4564.16846
35.1700 35.1750 4808.5 0.0002080 3207.68921 4672.00293
35.1800 35.1850 4906.4 0.0002038 3204.70483 4781.96191
35.1900 35.1950 5022.1 0.0001991 3201.70898 4891.30078
35.2000 35.2050 5135.7 0.0001947 3198.70117 4996.52441
35.2100 35.2150 5198.4 0.0001924 3195.68408 5091.98730
35.2200 35.2250 5313.7 0.0001882 3192.65430 5176.03467
35.2300 35.2350 5344.6 0.0001871 3189.61353 5242.47754
35.2400 35.2450 5363.7 0.0001864 3186.56177 5287.11084
35.2500 35.2550 5376.3 0.0001860 3183.50000 5306.81641
35.2600 35.2650 5362.3 0.0001865 3180.42822 5300.06152
35.2700 35.2750 5305.1 0.0001885 3177.34521 5267.13672
35.2800 35.2850 5229.3 0.0001912 3174.25269 5210.09619
35.2900 35.2950 5159.8 0.0001938 3171.14868 5132.39063
35.3000 35.3050 5063.1 0.0001975 3168.03638 5038.33105
35.3100 35.3150 4935.0 0.0002026 3164.91260 4932.53711
35.3200 35.3250 4852.6 0.0002061 3161.78076 4819.44873
35.3300 35.3350 4736.5 0.0002111 3158.63818 4703.00537
35.3400 35.3450 4624.3 0.0002162 3155.48706 4586.48193
35.3500 35.3550 4522.1 0.0002211 3152.32739 4472.44336
35.3600 35.3650 4416.9 0.0002264 3149.15747 4362.79688
35.3700 35.3750 4311.1 0.0002320 3145.97827 4258.88330
35.3800 35.3850 4237.6 0.0002360 3142.79102 4161.58643
35.3900 35.3950 4149.3 0.0002410 3139.59570 4071.41309
35.4000 35.4050 4062.6 0.0002461 3136.38989 3988.68604
35.4100 35.4150 4026.5 0.0002484 3133.17749 3913.23413
35.4200 35.4250 3951.0 0.0002531 3129.95752 3845.00049
35.4300 35.4350 3892.8 0.0002569 3126.72729 3783.72168
35.4400 35.4450 3848.7 0.0002598 3123.49170 3729.05127
35.4500 35.4550 3810.9 0.0002624 3120.24634 3680.59009
35.4600 35.4650 3752.3 0.0002665 3116.99390 3638.18359
35.4700 35.4750 3739.0 0.0002675 3113.73413 3600.84058
35.4800 35.4850 3704.2 0.0002700 3110.46729 3568.40454
35.4900 35.4950 3663.8 0.0002729 3107.19263 3540.46216
35.5000 35.5050 3661.1 0.0002731 3103.91235 3516.07788
35.5100 35.5150 3627.8 0.0002756 3100.62476 3496.01514
35.5200 35.5250 3604.3 0.0002774 3097.32861 3479.40796
35.5300 35.5350 3601.9 0.0002776 3094.02856 3465.99634
35.5400 35.5450 3575.1 0.0002797 3090.71973 3455.55176
35.5500 35.5550 3544.0 0.0002822 3087.40601 3447.89233
35.5600 35.5650 3564.1 0.0002806 3084.08496 3442.86206
35.5700 35.5750 3527.1 0.0002835 3080.75977 3440.33960
35.5800 35.5850 3527.4 0.0002835 3077.42627 3440.21436
35.5900 35.5950 3523.7 0.0002838 3074.08887 3442.39355
35.6000 35.6050 3514.1 0.0002846 3070.74536 3446.78711
35.6100 35.6150 3489.1 0.0002866 3067.39575 3453.29272
35.6200 35.6250 3506.1 0.0002852 3064.04224 3461.78784
35.6300 35.6350 3496.8 0.0002860 3060.68188 3472.11426
35.6400 35.6450 3483.9 0.0002870 3057.31763 3484.06519
35.6500 35.6550 3508.5 0.0002850 3053.94775 3497.52832
35.6600 35.6650 3493.3 0.0002863 3050.57397 3511.79443
35.6700 35.6750 3478.5 0.0002875 3047.19556 3526.54761
35.6800 35.6850 3510.1 0.0002849 3043.81128 3541.18555
35.6900 35.6950 3502.4 0.0002855 3040.42383 3554.98096
35.7000 35.7050 3484.8 0.0002870 3037.03149 3567.10815
35.7100 35.7150 3509.8 0.0002849 3033.63574 3576.70850
35.7200 35.7250 3503.6 0.0002854 3030.23462 3582.96460
35.7300 35.7350 3489.7 0.0002866 3026.83032 3585.22534
35.7400 35.7450 3507.6 0.0002851 3023.42261 3583.10986
35.7500 35.7550 3489.1 0.0002866 3020.01172 3576.58545
35.7600 35.7650 3471.5 0.0002881 3016.59692 3565.99243
35.7700 35.7750 3482.3 0.0002872 3013.17920 3551.97681
35.7800 35.7850 3454.8 0.0002895 3009.75732 3535.23340
35.7900 35.7950 3437.7 0.0002909 3006.33203 3517.07568
35.8000 35.8050 3458.5 0.0002891 3002.90503 3498.27734
35.8100 35.8150 3421.2 0.0002923 2999.47437 3479.70410
35.8200 35.8250 3401.0 0.0002940 2996.04150 3462.09595
35.8300 35.8350 3413.5 0.0002930 2992.60547 3446.05957
35.8400 35.8450 3394.6 0.0002946 2989.16724 3432.07446
35.8500 35.8550 3363.7 0.0002973 2985.72778 3420.52002
35.8600 35.8650 3378.8 0.0002960 2982.28369 3411.64331
35.8700 35.8750 3363.3 0.0002973 2978.83936 3405.65015
35.8800 35.8850 3364.0 0.0002973 2975.39136 3402.87939
35.8900 35.8950 3383.8 0.0002955 2971.94360 3403.04663
35.9000 35.9050 3362.6 0.0002974 2968.49146 3406.18701
35.9100 35.9150 3377.2 0.0002961 2965.03906 3412.32080
35.9200 35.9250 3408.2 0.0002934 2961.58643 3421.30200
35.9300 35.9350 3404.2 0.0002938 2958.12964 3432.90283
35.9400 35.9450 3409.5 0.0002933 2954.67310 3446.79883
35.9500 35.9550 3437.9 0.0002909 2951.21484 3462.55396
35.9600 35.9650 3448.0 0.0002900 2947.75586 3479.60010
35.9700 35.9750 3449.2 0.0002899 2944.29468 3497.26880
35.9800 35.9850 3484.4 0.0002870 2940.83350 3514.76074
35.9900 35.9950 3461.6 0.0002889 2937.37012 3531.33618
36.0000 36.0050 3468.6 0.0002883 2933.90820 3545.77344
36.0100 36.0150 3475.9 0.0002877 2930.44507 3557.52466
36.0200 36.0250 3482.7 0.0002871 2926.97998 3565.76440
36.0300 36.0350 3463.3 0.0002887 2923.51538 3569.92017
36.0400 36.0450 3478.4 0.0002875 2920.05005 3569.60278
36.0500 36.0550 3450.5 0.0002898 2916.58496 3563.68433
36.0600 36.0650 3425.0 0.0002920 2913.11890 3554.20068
36.0700 36.0750 3428.5 0.0002917 2909.65332 3540.51685
36.0800 36.0850 3400.1 0.0002941 2906.18701 3523.21216
36.0900 36.0950 3376.2 0.0002962 2902.72217 3503.08276
36.1000 36.1050 3376.5 0.0002962 2899.25708 3481.04688
36.1100 36.1150 3351.1 0.0002984 2895.79102 3458.07178
36.1200 36.1250 3324.0 0.0003008 2892.32690 3435.10229
36.1300 36.1350 3316.9 0.0003015 2888.86157 3412.97900
36.1400 36.1450 3288.0 0.0003041 2885.39771 3392.42407
36.1500 36.1550 3277.2 0.0003051 2881.93335 3374.01221
36.1600 36.1650 3281.5 0.0003047 2878.47070 3358.19141
36.1700 36.1750 3256.8 0.0003070 2875.00879 3345.28174
36.1800 36.1850 3244.1 0.0003082 2871.54663 3335.49658
36.1900 36.1950 3244.2 0.0003082 2868.08643 3328.96143
36.2000 36.2050 3229.5 0.0003096 2864.62573 3325.70947
36.2100 36.2150 3252.1 0.0003075 2861.16797 3325.70313
36.2200 36.2250 3256.4 0.0003071 2857.70898 3328.81445
36.2300 36.2350 3263.7 0.0003064 2854.25342 3334.83521
36.2400 36.2450 3287.8 0.0003042 2850.79712 3343.44897
36.2500 36.2550 3302.9 0.0003028 2847.34326 3354.31226
36.2600 36.2650 3355.1 0.0002981 2843.89087 3366.69751
36.2700 36.2750 3378.9 0.0002960 2840.43872 3379.97095
36.2800 36.2850 3442.5 0.0002905 2836.98926 3393.26489
36.2900 36.2950 3477.2 0.0002876 2833.53931 3405.56470
36.3000 36.3050 3537.4 0.0002827 2830.09351 3415.77783
36.3100 36.3150 3573.9 0.0002798 2826.64722 3422.80713
36.3200 36.3250 3590.0 0.0002785 2823.20386 3425.69214
36.3300 36.3350 3616.7 0.0002765 2819.76099 3423.73364
36.3400 36.3450 3609.3 0.0002771 2816.32129 3416.61646
36.3500 36.3550 3582.9 0.0002791 2812.88330 3404.44629
36.3600 36.3650 3565.3 0.0002805 2809.44556 3387.80249
36.3700 36.3750 3514.1 0.0002846 2806.01074 3367.34790
36.3800 36.3850 3457.5 0.0002892 2802.57715 3344.12329
36.3900 36.3950 3420.9 0.0002923 2799.14722 3319.13916
36.4000 36.4050 3360.1 0.0002976 2795.71777 3293.32324
36.4100 36.4150 3302.9 0.0003028 2792.29077 3267.47607
36.4200 36.4250 3262.8 0.0003065 2788.86670 3242.34839
36.4300 36.4350 3216.7 0.0003109 2785.44336 3218.18799
36.4400 36.4450 3179.4 0.0003145 2782.02344 3195.44263
36.4500 36.4550 3168.1 0.0003156 2778.60425 3174.30811
36.4600 36.4650 3133.3 0.0003192 2775.18848 3154.88062
36.4700 36.4750 3109.1 0.0003216 2771.77417 3137.15967
36.4800 36.4850 3094.4 0.0003232 2768.36401 3121.07275
36.4900 36.4950 3079.9 0.0003247 2764.95386 3106.47681
36.5000 36.5050 3058.7 0.0003269 2761.54785 3093.19482
36.5100 36.5150 3061.8 0.0003266 2758.14355 3081.01807
36.5200 36.5250 3039.0 0.0003291 2754.74097 3069.13599
36.5300 36.5350 3026.6 0.0003304 2751.34204 3058.59985
36.5400 36.5450 3034.0 0.0003296 2747.94336 3048.68140
36.5500 36.5550 3004.4 0.0003329 2744.55005 3039.34351
36.5600 36.5650 3000.0 0.0003333 2741.15674 3030.61328
36.5700 36.5750 2993.8 0.0003340 2737.76807 3022.59009
36.5800 36.5850 2985.9 0.0003349 2734.38062 3015.41455
36.5900 36.5950 2952.4 0.0003387 2730.99683 3009.25366
36.6000 36.6050 2964.6 0.0003373 2727.61475 3004.28394
36.6100 36.6150 2959.2 0.0003379 2724.23413 2998.94043
36.6200 36.6250 2936.7 0.0003405 2720.85889 2996.87061
36.6300 36.6350 2951.8 0.0003388 2717.48364 2996.47949
36.6400 36.6450 2946.5 0.0003394 2714.11255 2997.90845
36.6500 36.6550 2932.7 0.0003410 2710.74292 3001.28711
36.6600 36.6650 2948.8 0.0003391 2707.37769 3006.73535
36.6700 36.6750 2943.6 0.0003397 2704.01440 3014.35742
36.6800 36.6850 2937.8 0.0003404 2700.65332 3024.54297
36.6900 36.6950 2962.0 0.0003376 2697.29590 3036.76123
36.7000 36.7050 2976.1 0.0003360 2693.93994 3051.35181
36.7100 36.7150 2966.9 0.0003370 2690.58740 3068.32397
36.7200 36.7250 3000.3 0.0003333 2687.23657 3087.69189
36.7300 36.7350 3028.6 0.0003302 2683.88940 3109.25391
36.7400 36.7450 3046.3 0.0003283 2680.54443 3132.89673
36.7500 36.7550 3091.3 0.0003235 2677.20239 3158.36548
36.7600 36.7650 3131.8 0.0003193 2673.86401 3185.29761
36.7700 36.7750 3174.3 0.0003150 2670.52661 3213.19238
36.7800 36.7850 3241.0 0.0003086 2667.19385 3241.39746
36.7900 36.7950 3290.6 0.0003039 2663.86133 3269.08228
36.8000 36.8050 3358.8 0.0002977 2660.53345 3295.23633
36.8100 36.8150 3411.8 0.0002931 2657.20679 3318.69458
36.8200 36.8250 3467.6 0.0002884 2653.88477 3338.19922
36.8300 36.8350 3516.0 0.0002844 2650.56299 3352.51782
36.8400 36.8450 3544.3 0.0002821 2647.24658 3360.59595
36.8500 36.8550 3544.1 0.0002822 2643.93164 3361.28931
36.8600 36.8650 3562.5 0.0002807 2640.61841 3355.21069
36.8700 36.8750 3533.3 0.0002830 2637.30933 3342.21069
36.8800 36.8850 3497.1 0.0002859 2634.00146 3323.04224
36.8900 36.8950 3463.8 0.0002887 2630.69849 3298.91455
36.9000 36.9050 3408.9 0.0002933 2627.39575 3270.93262
36.9100 36.9150 3335.9 0.0002998 2624.09717 3240.52588
36.9200 36.9250 3281.6 0.0003047 2620.80127 3208.92798
36.9300 36.9350 3225.3 0.0003101 2617.50659 3177.20190
36.9400 36.9450 3150.4 0.0003174 2614.21606 3146.21851
36.9500 36.9550 3121.7 0.0003203 2610.92749 3116.64697
36.9600 36.9650 3072.6 0.0003255 2607.64258 3088.98193
36.9700 36.9750 3026.1 0.0003305 2604.35815 3063.72559
36.9800 36.9850 3000.3 0.0003333 2601.07764 3040.78784
36.9900 36.9950 2987.8 0.0003347 2597.79932 3020.44678
37.0000 37.0050 2933.7 0.0003409 2594.52393 3002.73926
37.0100 37.0150 2930.7 0.0003412 2591.25244 2987.63452
37.0200 37.0250 2916.4 0.0003429 2587.98120 2975.02905
37.0300 37.0350 2892.5 0.0003457 2584.71436 2964.76245
37.0400 37.0450 2916.0 0.0003429 2581.44824 2956.61450
37.0500 37.0550 2893.2 0.0003456 2578.18604 2950.31763
37.0600 37.0650 2878.9 0.0003474 2574.92554 2945.54517
37.0700 37.0750 2891.7 0.0003458 2571.66846 2941.95947
37.0800 37.0850 2883.2 0.0003468 2568.41309 2938.82349
37.0900 37.0950 2876.0 0.0003477 2565.16089 2936.60620
37.1000 37.1050 2877.4 0.0003475 2561.91089 2934.67065
37.1100 37.1150 2879.9 0.0003472 2558.66284 2932.86230
37.1200 37.1250 2878.7 0.0003474 2555.41821 2931.13306
37.1300 37.1350 2886.7 0.0003464 2552.17480 2929.52930
37.1400 37.1450 2858.9 0.0003498 2548.93628 2928.16797
37.1500 37.1550 2888.7 0.0003462 2545.69824 2927.18555
37.1600 37.1650 2886.1 0.0003465 2542.46362 2926.71191
37.1700 37.1750 2875.7 0.0003477 2539.23169 2925.12695
37.1800 37.1850 2888.5 0.0003462 2536.00098 2925.84668
37.1900 37.1950 2899.4 0.0003449 2532.77393 2926.65137
37.2000 37.2050 2881.2 0.0003471 2529.54761 2928.18970
37.2100 37.2150 2919.3 0.0003426 2526.32495 2929.75146
37.2200 37.2250 2908.9 0.0003438 2523.10474 2930.95532
37.2300 37.2350 2894.5 0.0003455 2519.88818 2931.36450
37.2400 37.2450 2912.6 0.0003433 2516.67188 2930.52173
37.2500 37.2550 2915.5 0.0003430 2513.45972 2928.02173
37.2600 37.2650 2876.7 0.0003476 2510.25000 2923.54810
37.2700 37.2750 2895.6 0.0003453 2507.04150 2916.94360
37.2800 37.2850 2881.1 0.0003471 2503.83667 2908.22046
37.2900 37.2950 2851.4 0.0003507 2500.63281 2897.55664
37.3000 37.3050 2860.8 0.0003496 2497.43433 2885.26294
37.3100 37.3150 2844.8 0.000352 2494.23486 2871.73682
37.3200 37.3250 2809.3 0.000356 2491.04028 2857.40747
37.3300 37.3350 2821.4 0.000354 2487.84644 2842.69604
37.3400 37.3450 2800.5 0.000357 2484.65625 2827.98340
37.3500 37.3550 2790.8 0.000358 2481.47021 2813.59766
37.3600 37.3650 2787.9 0.000359 2478.28467 2799.79688
37.3700 37.3750 2762.6 0.000362 2475.10254 2786.79297
37.3800 37.3850 2761.3 0.000362 2471.92114 2775.02197
37.3900 37.3950 2761.5 0.000362 2468.74512 2764.02319
37.4000 37.4050 2740.9 0.000365 2465.56909 2754.15308
37.4100 37.4150 2748.2 0.000364 2462.39771 2744.95166
37.4200 37.4250 2757.4 0.000363 2459.22900 2737.80908
37.4300 37.4350 2728.0 0.000367 2456.06079 2731.56812
37.4400 37.4450 2755.2 0.000363 2452.89746 2726.56982
37.4500 37.4550 2754.0 0.000363 2449.73633 2722.81982
37.4600 37.4650 2729.1 0.000366 2446.57837 2720.31592
37.4700 37.4750 2757.6 0.000363 2443.42188 2719.10229
37.4800 37.4850 2762.4 0.000362 2440.26978 2719.19214
37.4900 37.4950 2745.7 0.000364 2437.11890 2720.61890
37.5000 37.5050 2775.6 0.000360 2433.97192 2723.43652
37.5100 37.5150 2773.3 0.000361 2430.82788 2727.72144
37.5200 37.5250 2767.3 0.000361 2427.68604 2733.56055
37.5300 37.5350 2797.0 0.000358 2424.54834 2741.07813
37.5400 37.5450 2803.4 0.000357 2421.41235 2750.42163
37.5500 37.5550 2805.8 0.000356 2418.28076 2761.77075
37.5600 37.5650 2836.9 0.000353 2415.15137 2775.32910
37.5700 37.5750 2828.1 0.000354 2412.02612 2791.34741
37.5800 37.5850 2854.1 0.0003504 2408.90308 2810.09302
37.5900 37.5950 2889.4 0.0003461 2405.78394 2831.87695
37.6000 37.6050 2900.9 0.0003447 2402.66846 2857.03442
37.6100 37.6150 2927.1 0.0003416 2399.55493 2885.92505
37.6200 37.6250 2975.7 0.0003361 2396.44580 2918.92969
37.6300 37.6350 2980.1 0.0003356 2393.33960 2956.44092
37.6400 37.6450 3023.6 0.0003307 2390.23706 2998.85425
37.6500 37.6550 3078.1 0.0003249 2387.13770 3046.55029
37.6600 37.6650 3088.4 0.0003238 2384.04321 3099.88623
37.6700 37.6750 3165.6 0.0003159 2380.95215 3159.17554
37.6800 37.6850 3230.0 0.0003096 2377.86450 3224.66626
37.6900 37.6950 3264.7 0.0003063 2374.78101 3296.51953
37.7000 37.7050 3352.8 0.0002983 2371.70044 3374.77563
37.7100 37.7150 3405.4 0.0002937 2368.62402 3459.32935
37.7200 37.7250 3480.4 0.0002873 2365.55225 3549.88306
37.7300 37.7350 3593.6 0.0002783 2362.48486 3645.92505
37.7400 37.7450 3664.4 0.0002729 2359.42090 3746.67456
37.7500 37.7550 3775.1 0.0002649 2356.36182 3851.03711
37.7600 37.7650 3910.4 0.0002557 2353.30737 3957.56128
37.7700 37.7750 3965.4 0.0002522 2350.25635 4064.36230
37.7800 37.7850 4088.5 0.0002446 2347.21118 4169.28076
37.7900 37.7950 4210.3 0.0002375 2344.16895 4269.06445
37.8000 37.8050 4253.0 0.0002351 2341.13281 4360.57031
37.8100 37.8150 4346.5 0.0002301 2338.10010 4440.17334
37.8200 37.8250 4420.9 0.0002262 2335.07397 4503.98535
37.8300 37.8350 4423.1 0.0002261 2332.05151 4548.64697
37.8400 37.8450 4457.4 0.0002243 2329.03418 4571.55566
37.8500 37.8550 4454.7 0.0002245 2326.02319 4571.36963
37.8600 37.8650 4372.9 0.0002287 2323.01587 4548.28125
37.8700 37.8750 4367.3 0.0002290 2320.01587 4504.04834
37.8800 37.8850 4299.0 0.0002326 2317.01929 4441.69385
37.8900 37.8950 4194.8 0.0002384 2314.02930 4365.10742
37.9000 37.9050 4146.3 0.0002412 2311.04443 4278.51025
37.9100 37.9150 4030.2 0.0002481 2308.06689 4186.03760
37.9200 37.9250 3949.9 0.0002532 2305.09448 4091.39722
37.9300 37.9350 3898.9 0.0002565 2302.12744 3997.72852
37.9400 37.9450 3794.6 0.0002635 2299.16724 3907.54102
37.9500 37.9550 3723.7 0.0002686 2296.21216 3822.74048
37.9600 37.9650 3676.7 0.0002720 2293.26611 3744.69922
37.9700 37.9750 3593.3 0.0002783 2290.32324 3674.33179
37.9800 37.9850 3574.1 0.0002798 2287.38965 3612.17871
37.9900 37.9950 3539.4 0.0002825 2284.46167 3558.45215
38.0000 38.0050 3496.8 0.0002860 2281.54077 3513.09375
38.0100 38.0150 3491.8 0.0002864 2278.62817 3475.78979
38.0200 38.0250 3483.6 0.0002871 2275.71997 3446.00757
38.0300 38.0350 3475.6 0.0002877 2272.82129 3423.00562
38.0400 38.0450 3516.3 0.0002844 2269.92822 3405.83984
38.0500 38.0550 3520.8 0.0002840 2267.04419 3393.39893
38.0600 38.0650 3534.7 0.0002829 2264.16748 3384.42334
38.0700 38.0750 3605.1 0.0002774 2261.29932 3377.55762
38.0800 38.0850 3601.2 0.0002777 2258.43774 3371.41235
38.0900 38.0950 3594.6 0.0002782 2255.58569 3364.73853
38.1000 38.1050 3657.2 0.0002734 2252.74121 3356.22607
38.1100 38.1150 3605.4 0.0002774 2249.90454 3345.08154
38.1200 38.1250 3604.0 0.0002775 2247.07788 3330.82544
38.1300 38.1350 3602.3 0.0002776 2244.25903 3313.41772
38.1400 38.1450 3531.3 0.0002832 2241.44922 3293.25903
38.1500 38.1550 3494.0 0.0002862 2238.64746 3271.09155
38.1600 38.1650 3441.2 0.0002906 2235.85669 3247.88647
38.1700 38.1750 3369.4 0.0002968 2233.07446 3224.70044
38.1800 38.1850 3340.2 0.0002994 2230.30200 3202.55542
38.1900 38.1950 3264.7 0.0003063 2227.53857 3182.33911
38.2000 38.2050 3203.4 0.0003122 2224.78516 3164.75537
38.2100 38.2150 3185.2 0.0003140 2222.04297 3150.30127
38.2200 38.2250 3137.6 0.0003187 2219.30835 3139.25464
38.2300 38.2350 3099.6 0.0003226 2216.58740 3131.69800
38.2400 38.2450 3103.5 0.0003222 2213.87329 3127.55908
38.2500 38.2550 3078.6 0.0003248 2211.17261 3126.44678
38.2600 38.2650 3062.3 0.0003266 2208.48218 3127.95752
38.2700 38.2750 3096.3 0.0003230 2205.80225 3131.50391
38.2800 38.2850 3080.4 0.0003246 2203.13330 3136.38281
38.2900 38.2950 3092.6 0.0003234 2200.47510 3141.80737
38.3000 38.3050 3097.1 0.0003229 2197.83008 3147.14087
38.3100 38.3150 3097.9 0.0003228 2195.19580 3151.11328
38.3200 38.3250 3116.3 0.0003209 2192.57373 3153.08740
38.3300 38.3350 3128.6 0.0003196 2189.96265 3152.30273
38.3400 38.3450 3108.7 0.0003217 2187.36499 3148.14648
38.3500 38.3550 3122.2 0.0003203 2184.77979 3140.11768
38.3600 38.3650 3089.2 0.0003237 2182.20581 3128.34521
38.3700 38.3750 3086.5 0.0003240 2179.64575 3112.93970
38.3800 38.3850 3085.9 0.0003241 2177.09766 3094.42261
38.3900 38.3950 3028.9 0.0003302 2174.56323 3073.57813
38.4000 38.4050 3004.1 0.0003329 2172.04077 3051.35352
38.4100 38.4150 3008.3 0.0003324 2169.53369 3028.76221
38.4200 38.4250 2957.4 0.0003381 2167.03906 3006.79370
38.4300 38.4350 2955.2 0.0003384 2164.55786 2986.33594
38.4400 38.4450 2941.7 0.0003399 2162.09155 2968.14307
38.4500 38.4550 2893.5 0.0003456 2159.63867 2952.79395
38.4600 38.4650 2910.3 0.0003436 2157.20020 2940.70020
38.4700 38.4750 2895.3 0.0003454 2154.77539 2932.09692
38.4800 38.4850 2899.6 0.0003449 2152.36694 2927.05762
38.4900 38.4950 2915.4 0.0003430 2149.97241 2925.48853
38.5000 38.5050 2911.0 0.0003435 2147.59302 2927.13940
38.5100 38.5150 2911.4 0.0003435 2145.22900 2931.59839
38.5200 38.5250 2977.8 0.0003358 2142.87891 2938.29883
38.5300 38.5350 2951.0 0.0003389 2140.54590 2946.53394
38.5400 38.5450 3018.9 0.0003312 2138.22681 2955.47168
38.5500 38.5550 3039.9 0.0003290 2135.92480 2964.24927
38.5600 38.5650 3036.6 0.0003293 2133.63843 2971.81030
38.5700 38.5750 3095.1 0.0003231 2131.36865 2977.27881
38.5800 38.5850 3109.3 0.0003216 2129.11401 2979.81445
38.5900 38.5950 3084.9 0.0003242 2126.87769 2978.85840
38.6000 38.6050 3126.7 0.0003198 2124.65674 2973.65991
38.6100 38.6150 3092.4 0.0003234 2122.45239 2964.13721
38.6200 38.6250 3089.2 0.0003237 2120.26538 2950.36938
38.6300 38.6350 3096.7 0.0003229 2118.09521 2932.73999
38.6400 38.6450 3044.1 0.0003285 2115.94287 2911.89526
38.6500 38.6550 3001.3 0.0003332 2113.80688 2887.47900
38.6600 38.6650 2984.2 0.0003351 2111.68921 2862.83667
38.6700 38.6750 2918.5 0.0003426 2109.59009 2837.71753
38.6800 38.6850 2899.4 0.0003449 2107.50708 2812.56470
38.6900 38.6950 2858.5 0.0003498 2105.44385 2789.02563
38.7000 38.7050 2798.0 0.000357 2103.39697 2767.27075
38.7100 38.7150 2784.6 0.000359 2101.36963 2747.74976
38.7200 38.7250 2759.0 0.000362 2099.35962 2730.76904
38.7300 38.7350 2710.2 0.000369 2097.36938 2716.47925
38.7400 38.7450 2713.8 0.000368 2095.39673 2704.90747
38.7500 38.7550 2687.3 0.000372 2093.44360 2695.95679
38.7600 38.7650 2668.8 0.000375 2091.50903 2689.47046
38.7700 38.7750 2669.6 0.000375 2089.59448 2685.04663
38.7800 38.7850 2651.8 0.000377 2087.69727 2682.34473
38.7900 38.7950 2641.4 0.000379 2085.82007 2680.90796
38.8000 38.8050 2643.0 0.000378 2083.96338 2680.23901
38.8100 38.8150 2623.3 0.000381 2082.12500 2679.79932
38.8200 38.8250 2620.5 0.000382 2080.30615 2679.05396
38.8300 38.8350 2611.3 0.000383 2078.50659 2677.64917
38.8400 38.8450 2603.0 0.000384 2076.72876 2674.73877
38.8500 38.8550 2598.6 0.000385 2074.96997 2670.08057
38.8600 38.8650 2585.0 0.000387 2073.22998 2663.38110
38.8700 38.8750 2560.8 0.000391 2071.51172 2654.49854
38.8800 38.8850 2571.5 0.000389 2069.81226 2643.47949
38.8900 38.8950 2555.4 0.000391 2068.13403 2630.55713
38.9000 38.9050 2548.1 0.000392 2066.47510 2616.12476
38.9100 38.9150 2537.9 0.000394 2064.83765 2600.67700
38.9200 38.9250 2515.0 0.000398 2063.21973 2584.75269
38.9300 38.9350 2520.8 0.000397 2061.62231 2568.87500
38.9400 38.9450 2514.8 0.000398 2060.04639 2553.50586
38.9500 38.9550 2495.2 0.000401 2058.49072 2539.01440
38.9600 38.9650 2520.6 0.000397 2056.95459 2525.66577
38.9700 38.9750 2497.6 0.000400 2055.43945 2513.61890
38.9800 38.9850 2481.4 0.000403 2053.94604 2502.91797
38.9900 38.9950 2496.2 0.000401 2052.47290 2493.51807
39.0000 39.0050 2483.5 0.000403 2051.02124 2485.54785
39.0100 39.0150 2449.5 0.000408 2049.58936 2478.23828
39.0200 39.0250 2461.9 0.000406 2048.17798 2471.57983
39.0300 39.0350 2460.5 0.000406 2046.78809 2465.25928
39.0400 39.0450 2470.1 0.000405 2045.41882 2458.96094
39.0500 39.0550 2459.7 0.000407 2044.07031 2452.42261
39.0600 39.0650 2455.3 0.000407 2042.74280 2445.46313
39.0700 39.0750 2464.3 0.000406 2041.43567 2438.01733
39.0800 39.0850 2440.3 0.000410 2040.14929 2430.13867
39.0900 39.0950 2428.1 0.000412 2038.88428 2421.99097
39.1000 39.1050 2437.1 0.000410 2037.63940 2413.80469
39.1100 39.1150 2416.1 0.000414 2036.41516 2405.89551
39.1200 39.1250 2395.2 0.000417 2035.21240 2398.53540
39.1300 39.1350 2398.6 0.000417 2034.02893 2391.99219
39.1400 39.1450 2380.2 0.000420 2032.86682 2386.18384
39.1500 39.1550 2389.0 0.000419 2031.72449 2381.87305
39.1600 39.1650 2385.1 0.000419 2030.60266 2378.85962
39.1700 39.1750 2394.3 0.000418 2029.50110 2377.18188
39.1800 39.1850 2380.5 0.000420 2028.42017 2376.81665
39.1900 39.1950 2370.5 0.000422 2027.35962 2377.67529
39.2000 39.2050 2385.3 0.000419 2026.31750 2379.60303
39.2100 39.2150 2391.9 0.000418 2025.29675 2382.37524
39.2200 39.2250 2374.2 0.000421 2024.29468 2385.74268
39.2300 39.2350 2382.4 0.000420 2023.31274 2389.23438
39.2400 39.2450 2390.6 0.000418 2022.35071 2392.46899
39.2500 39.2550 2379.8 0.000420 2021.40784 2394.97583
39.2600 39.2650 2388.8 0.000419 2020.48462 2396.80884
39.2700 39.2750 2375.2 0.000421 2019.57959 2396.45142
39.2800 39.2850 2383.3 0.000420 2018.69397 2394.45435
39.2900 39.2950 2390.0 0.000418 2017.82715 2389.85107
39.3000 39.3050 2353.0 0.000425 2016.97913 2382.95239
39.3100 39.3150 2360.5 0.000424 2016.14941 2373.86572
39.3200 39.3250 2356.7 0.000424 2015.33777 2362.83716
39.3300 39.3350 2334.6 0.000428 2014.54419 2350.23267
39.3400 39.3450 2297.6 0.000435 2013.76868 2336.45776
39.3500 39.3550 2265.2 0.000441 2013.01086 2321.94165
39.3600 39.3650 2303.3 0.000434 2012.26990 2307.07764
39.3700 39.3750 2278.1 0.000439 2011.54675 2292.21021
39.3800 39.3850 2248.9 0.000445 2010.84058 2277.62817
39.3900 39.3950 2252.0 0.000444 2010.15112 2263.55273
39.4000 39.4050 2245.0 0.000445 2009.47791 2250.15820
39.4100 39.4150 2218.3 0.000451 2008.82117 2237.56445
39.4200 39.4250 2219.5 0.000451 2008.18091 2225.67114
39.4300 39.4350 2220.0 0.000450 2007.55542 2214.91089
39.4400 39.4450 2186.8 0.000457 2006.94580 2205.12891
39.4500 39.4550 2197.2 0.000455 2006.35120 2196.34033
39.4600 39.4650 2182.9 0.000458 2005.77185 2188.54907
39.4700 39.4750 2176.6 0.000459 2005.20679 2181.50879
39.4800 39.4850 2173.3 0.000460 2004.65649 2175.69287
39.4900 39.4950 2144.8 0.000466 2004.11938 2170.84033
39.5000 39.5050 2161.2 0.000463 2003.59692 2166.93530
39.5100 39.5150 2164.7 0.000462 2003.08752 2163.95923
39.5200 39.5250 2122.5 0.000471 2002.59045 2161.89014
39.5300 39.5350 2140.3 0.000467 2002.10693 2160.71265
39.5400 39.5450 2151.3 0.000465 2001.63550 2160.40747
39.5500 39.5550 2143.7 0.000466 2001.17615 2160.96289
39.5600 39.5650 2150.8 0.000465 2000.72778 2162.35938
39.5700 39.5750 2159.1 0.000463 2000.29175 2164.58496
39.5800 39.5850 2153.0 0.000464 1999.86584 2167.62427
39.5900 39.5950 2162.2 0.000462 1999.45044 2171.45459
39.6000 39.6050 2171.3 0.000461 1999.04590 2176.05493
39.6100 39.6150 2172.2 0.000460 1998.65051 2181.41235
39.6200 39.6250 2191.6 0.000456 1998.26440 2187.43774
39.6300 39.6350 2189.3 0.000457 1997.88770 2194.09082
39.6400 39.6450 2203.1 0.000454 1997.51892 2201.28979
39.6500 39.6550 2203.3 0.000454 1997.15894 2208.92505
39.6600 39.6650 2226.5 0.000449 1996.80664 2216.87207
39.6700 39.6750 2221.4 0.000450 1996.46106 2224.97974
39.6800 39.6850 2233.2 0.000448 1996.12268 2233.17798
39.6900 39.6950 2231.4 0.000448 1995.79077 2241.12012
39.7000 39.7050 2243.6 0.000446 1995.46448 2248.74756
39.7100 39.7150 2256.4 0.000443 1995.14526 2256.48291
39.7200 39.7250 2268.6 0.000441 1994.82910 2263.15308
39.7300 39.7350 2271.3 0.000440 1994.51880 2269.24512
39.7400 39.7450 2277.3 0.000439 1994.21204 2274.34351
39.7500 39.7550 2285.5 0.000438 1993.90942 2279.18945
39.7600 39.7650 2296.2 0.000436 1993.61011 2283.35449
39.7700 39.7750 2309.4 0.000433 1993.31335 2286.76929
39.7800 39.7850 2309.2 0.000433 1993.01941 2289.32520
39.7900 39.7950 2306.1 0.000434 1992.72668 2290.89063
39.8000 39.8050 2312.5 0.000432 1992.43506 2291.32397
39.8100 39.8150 2314.3 0.000432 1992.14514 2290.51343
39.8200 39.8250 2300.6 0.000435 1991.85522 2288.39673
39.8300 39.8350 2308.5 0.000433 1991.56555 2284.99780
39.8400 39.8450 2293.6 0.000436 1991.27478 2280.42749
39.8500 39.8550 2296.9 0.000435 1990.98340 2274.88354
39.8600 39.8650 2290.5 0.000437 1990.69043 2268.62402
39.8700 39.8750 2281.3 0.000438 1990.39502 2261.94800
39.8800 39.8850 2264.0 0.000442 1990.09766 2255.15625
39.8900 39.8950 2262.0 0.000442 1989.79675 2248.53345
39.9000 39.9050 2260.3 0.000442 1989.49231 2242.33179
39.9100 39.9150 2251.7 0.000444 1989.18445 2236.84717
39.9200 39.9250 2241.2 0.000446 1988.87109 2232.08301
39.9300 39.9350 2231.3 0.000448 1988.55310 2228.25220
39.9400 39.9450 2224.0 0.000450 1988.22925 2225.38574
39.9500 39.9550 2238.2 0.000447 1987.89990 2223.81836
39.9600 39.9650 2223.8 0.000450 1987.56433 2223.24365
39.9700 39.9750 2245.3 0.000445 1987.22144 2223.80957
39.9800 39.9850 2230.8 0.000448 1986.87085 2225.50586
39.9900 39.9950 2233.5 0.000448 1986.51221 2228.29175
40.0000 40.0050 2232.3 0.000448 1986.14490 2232.10498
40.0100 40.0150 2230.8 0.000448 1985.76953 2236.85010
40.0200 40.0250 2258.9 0.000443 1985.38342 2242.40869
40.0300 40.0350 2249.5 0.000445 1984.98877 2248.62622
40.0400 40.0450 2266.9 0.000441 1984.58276 2255.34033
40.0500 40.0550 2248.5 0.000445 1984.16650 2262.51416
40.0600 40.0650 2266.3 0.000441 1983.73816 2269.97632
40.0700 40.0750 2282.2 0.000438 1983.29871 2277.13159
40.0800 40.0850 2276.2 0.000439 1982.84692 2284.15991
40.0900 40.0950 2279.4 0.000439 1982.38245 2290.99609
40.1000 40.1050 2290.0 0.000437 1981.90540 2297.61938
40.1100 40.1150 2287.4 0.000437 1981.41431 2304.34741
40.1200 40.1250 2290.7 0.000437 1980.90930 2310.73413
40.1300 40.1350 2295.9 0.000436 1980.38928 2316.86987
40.1400 40.1450 2276.6 0.000439 1979.85547 2322.87427
40.1500 40.1550 2301.1 0.000435 1979.30603 2328.70605
40.1600 40.1650 2299.4 0.000435 1978.74084 2334.27930
40.1700 40.1750 2304.3 0.000434 1978.16064 2339.58618
40.1800 40.1850 2307.3 0.000433 1977.56274 2344.40454
40.1900 40.1950 2310.0 0.000433 1976.94922 2348.34009
40.2000 40.2050 2310.8 0.000433 1976.31860 2351.42383
40.2100 40.2150 2318.4 0.000431 1975.66968 2353.51270
40.2200 40.2250 2321.6 0.000431 1975.00415 2354.51001
40.2300 40.2350 2326.0 0.000430 1974.32043 2354.37036
40.2400 40.2450 2313.4 0.000432 1973.61804 2353.10474
40.2500 40.2550 2317.8 0.000431 1972.89795 2350.79663
40.2600 40.2650 2324.4 0.000430 1972.15796 2347.08691
40.2700 40.2750 2324.9 0.000430 1971.39868 2343.23608
40.2800 40.2850 2327.5 0.000430 1970.62048 2339.01953
40.2900 40.2950 2324.7 0.000430 1969.82312 2334.76880
40.3000 40.3050 2308.4 0.000433 1969.00562 2330.83545
40.3100 40.3150 2312.3 0.000432 1968.16809 2327.56152
40.3200 40.3250 2305.7 0.000434 1967.31042 2325.26465
40.3300 40.3350 2311.2 0.000433 1966.43201 2324.21851
40.3400 40.3450 2325.3 0.000430 1965.53369 2324.65088
40.3500 40.3550 2327.8 0.000430 1964.61462 2326.73877
40.3600 40.3650 2343.8 0.000427 1963.67444 2330.60571
40.3700 40.3750 2342.7 0.000427 1962.71448 2336.32739
40.3800 40.3850 2357.3 0.000424 1961.73218 2343.92700
40.3900 40.3950 2350.3 0.000425 1960.73010 2353.50122
40.4000 40.4050 2389.2 0.000419 1959.70630 2364.72095
40.4100 40.4150 2412.4 0.000415 1958.66187 2377.56177
40.4200 40.4250 2425.6 0.000412 1957.59631 2391.80249
40.4300 40.4350 2443.5 0.000409 1956.51001 2407.14331
40.4400 40.4450 2467.9 0.000405 1955.40271 2423.19263
40.4500 40.4550 2491.5 0.000401 1954.27417 2439.46289
40.4600 40.4650 2508.1 0.000399 1953.12573 2455.37744
40.4700 40.4750 2536.7 0.000394 1951.95557 2470.29004
40.4800 40.4850 2538.0 0.000394 1950.76648 2483.52539
40.4900 40.4950 2550.4 0.000392 1949.55615 2494.42529
40.5000 40.5050 2544.6 0.000393 1948.32593 2502.43042
40.5100 40.5150 2547.7 0.000393 1947.07605 2507.02466
40.5200 40.5250 2534.5 0.000395 1945.80640 2508.24243
40.5300 40.5350 2540.9 0.000394 1944.51807 2505.97705
40.5400 40.5450 2525.8 0.000396 1943.20984 2500.49487
40.5500 40.5550 2504.4 0.000399 1941.88269 2492.23462
40.5600 40.5650 2491.4 0.000401 1940.53821 2481.81396
40.5700 40.5750 2483.3 0.000403 1939.17505 2469.74707
40.5800 40.5850 2450.4 0.000408 1937.79431 2456.73218
40.5900 40.5950 2429.6 0.000412 1936.39771 2443.61279
40.6000 40.6050 2432.1 0.000411 1934.98401 2430.45508
40.6100 40.6150 2406.9 0.000415 1933.55371 2417.95752
40.6200 40.6250 2385.0 0.000419 1932.10767 2406.48364
40.6300 40.6350 2396.2 0.000417 1930.64685 2396.30200
40.6400 40.6450 2382.5 0.000420 1929.17236 2387.58276
40.6500 40.6550 2377.3 0.000421 1927.68323 2380.40210
40.6600 40.6650 2363.8 0.000423 1926.18127 2374.74976
40.6700 40.6750 2350.9 0.000425 1924.66699 2370.34937
40.6800 40.6850 2351.3 0.000425 1923.14063 2367.39746
40.6900 40.6950 2350.3 0.000425 1921.60339 2365.47900
40.7000 40.7050 2353.1 0.000425 1920.05530 2364.28418
40.7100 40.7150 2344.0 0.000427 1918.49829 2363.55200
40.7200 40.7250 2348.6 0.000426 1916.93286 2362.92554
40.7300 40.7350 2353.6 0.000425 1915.35999 2362.08667
40.7400 40.7450 2350.1 0.000426 1913.77966 2360.72729
40.7500 40.7550 2352.5 0.000425 1912.19336 2358.57104
40.7600 40.7650 2351.9 0.000425 1910.60229 2355.36890
40.7700 40.7750 2326.2 0.000430 1909.00684 2350.90869
40.7800 40.7850 2318.4 0.000431 1907.40942 2345.02271
40.7900 40.7950 2334.6 0.000428 1905.80920 2337.60278
40.8000 40.8050 2311.0 0.000433 1904.20898 2328.61572
40.8100 40.8150 2308.0 0.000433 1902.60803 2318.11816
40.8200 40.8250 2302.4 0.000434 1901.00916 2306.27124
40.8300 40.8350 2289.2 0.000437 1899.41248 2293.31006
40.8400 40.8450 2282.9 0.000438 1897.81995 2279.54712
40.8500 40.8550 2284.7 0.000438 1896.23303 2265.32275
40.8600 40.8650 2261.2 0.000442 1894.65161 2250.98438
40.8700 40.8750 2254.6 0.000444 1893.07800 2236.86328
40.8800 40.8850 2261.5 0.000442 1891.51331 2223.25659
40.8900 40.8950 2235.4 0.000447 1889.95898 2210.42017
40.9000 40.9050 2242.9 0.000446 1888.41614 2198.56616
40.9100 40.9150 2214.0 0.000452 1886.88647 2187.87207
40.9200 40.9250 2224.8 0.000449 1885.37122 2178.48022
40.9300 40.9350 2215.2 0.000451 1883.87158 2170.51001
40.9400 40.9450 2212.0 0.000452 1882.38977 2164.06226
40.9500 40.9550 2211.1 0.000452 1880.92627 2159.22144
40.9600 40.9650 2216.9 0.000451 1879.48340 2156.07007
40.9700 40.9750 2206.3 0.000453 1878.06262 2154.67969
40.9800 40.9850 2210.1 0.000452 1876.66516 2155.11963
40.9900 40.9950 2217.7 0.000451 1875.29211 2157.46143
41.0000 41.0050 2225.5 0.000449 1873.94678 2161.76929
41.0100 41.0150 2230.0 0.000448 1872.62964 2168.10938
41.0200 41.0250 2231.6 0.000448 1871.34131 2176.54370
41.0300 41.0350 2236.3 0.000447 1870.08533 2187.26880
41.0400 41.0450 2243.7 0.000446 1868.86157 2200.05811
41.0500 41.0550 2235.4 0.000447 1867.67371 2215.08691
41.0600 41.0650 2259.8 0.000443 1866.52136 2232.37964
41.0700 41.0750 2280.0 0.000439 1865.40808 2251.94214
41.0800 41.0850 2289.0 0.000437 1864.33350 2273.74878
41.0900 41.0950 2312.4 0.000432 1863.30090 2297.73950
41.1000 41.1050 2331.1 0.000429 1862.31177 2323.80591
41.1100 41.1150 2353.5 0.000425 1861.36694 2351.78027
41.1200 41.1250 2367.7 0.000422 1860.46899 2381.41797
41.1300 41.1350 2382.9 0.000420 1859.61926 2412.37939
41.1400 41.1450 2423.3 0.000413 1858.81897 2444.21704
41.1500 41.1550 2423.6 0.000413 1858.06982 2476.35425
41.1600 41.1650 2461.6 0.000406 1857.37463 2508.08521
41.1700 41.1750 2469.9 0.000405 1856.73376 2538.47144
41.1800 41.1850 2506.0 0.000399 1856.14929 2566.78882
41.1900 41.1950 2503.3 0.000399 1855.62292 2591.93799
41.2000 41.2050 2505.7 0.000399 1855.15540 2612.93018
41.2100 41.2150 2529.6 0.000395 1854.74902 2628.86597
41.2200 41.2250 2529.2 0.000395 1854.40515 2639.01611
41.2300 41.2350 2536.3 0.000394 1854.12537 2642.89917
41.2400 41.2450 2522.1 0.000396 1853.91089 2640.33301
41.2500 41.2550 2523.7 0.000396 1853.76282 2629.62891
41.2600 41.2650 2505.2 0.000399 1853.68262 2614.98706
41.2700 41.2750 2501.4 0.000400 1853.67224 2595.12036
41.2800 41.2850 2483.3 0.000403 1853.73218 2571.00708
41.2900 41.2950 2461.8 0.000406 1853.86377 2543.65283
41.3000 41.3050 2442.1 0.000409 1854.06787 2514.08105
41.3100 41.3150 2408.6 0.000415 1854.34607 2483.26685
41.3200 41.3250 2401.0 0.000416 1854.69861 2452.08057
41.3300 41.3350 2361.7 0.000423 1855.12708 2421.27417
41.3400 41.3450 2366.0 0.000423 1855.63135 2391.45947
41.3500 41.3550 2326.3 0.000430 1856.21387 2363.12573
41.3600 41.3650 2330.4 0.000429 1856.87305 2336.72070
41.3700 41.3750 2299.0 0.000435 1857.61084 2312.37109
41.3800 41.3850 2297.0 0.000435 1858.42712 2290.34619
41.3900 41.3950 2296.0 0.000436 1859.32214 2270.77466
41.4000 41.4050 2278.9 0.000439 1860.29688 2253.86865
41.4100 41.4150 2275.9 0.000439 1861.34985 2239.40112
41.4200 41.4250 2261.0 0.000442 1862.48169 2227.50879
41.4300 41.4350 2237.4 0.000447 1863.69348 2218.16333
41.4400 41.4450 2250.5 0.000444 1864.98181 2211.32007
41.4500 41.4550 2246.2 0.000445 1866.34900 2206.90747
41.4600 41.4650 2248.5 0.000445 1867.79346 2204.84155
41.4700 41.4750 2259.4 0.000443 1869.31409 2204.93091
41.4800 41.4850 2253.6 0.000444 1870.90955 2207.22363
41.4900 41.4950 2252.5 0.000444 1872.57886 2211.49023
41.5000 41.5050 2285.2 0.000438 1874.32141 2217.56226
41.5100 41.5150 2265.3 0.000441 1876.13416 2225.24048
41.5200 41.5250 2289.4 0.000437 1878.01611 2233.78711
41.5300 41.5350 2300.4 0.000435 1879.96509 2243.93994
41.5400 41.5450 2304.6 0.000434 1881.97888 2254.86743
41.5500 41.5550 2341.2 0.000427 1884.05481 2266.19263
41.5600 41.5650 2335.2 0.000428 1886.19019 2277.49487
41.5700 41.5750 2339.8 0.000427 1888.38147 2288.31079
41.5800 41.5850 2356.0 0.000424 1890.62622 2298.16406
41.5900 41.5950 2340.0 0.000427 1892.92053 2306.58667
41.6000 41.6050 2340.1 0.000427 1895.25916 2313.17065
41.6100 41.6150 2337.7 0.000428 1897.64038 2317.59863
41.6200 41.6250 2320.7 0.000431 1900.05737 2319.67163
41.6300 41.6350 2311.9 0.000433 1902.50671 2319.34351
41.6400 41.6450 2303.1 0.000434 1904.98193 2316.70679
41.6500 41.6550 2312.6 0.000432 1907.47925 2311.99023
41.6600 41.6650 2283.7 0.000438 1909.99084 2305.51514
41.6700 41.6750 2277.2 0.000439 1912.51099 2297.66553
41.6800 41.6850 2267.9 0.000441 1915.03369 2288.82813
41.6900 41.6950 2253.4 0.000444 1917.55103 2279.46680
41.7000 41.7050 2249.6 0.000445 1920.05615 2269.82031
41.7100 41.7150 2222.9 0.000450 1922.54004 2260.43408
41.7200 41.7250 2220.0 0.000450 1924.99561 2251.48120
41.7300 41.7350 2217.0 0.000451 1927.41174 2243.17993
41.7400 41.7450 2231.6 0.000448 1929.78137 2235.71191
41.7500 41.7550 2235.3 0.000447 1932.09229 2228.88770
41.7600 41.7650 2209.4 0.000453 1934.33533 2223.43604
41.7700 41.7750 2210.0 0.000452 1936.50098 2219.10205
41.7800 41.7850 2213.8 0.000452 1938.57422 2215.75513
41.7900 41.7950 2213.4 0.000452 1940.54541 2213.73730
41.8000 41.8050 2206.7 0.000453 1942.40039 2212.87646
41.8100 41.8150 2212.8 0.000452 1944.12720 2213.15063
41.8200 41.8250 2216.7 0.000451 1945.70996 2214.51611
41.8300 41.8350 2219.2 0.000451 1947.13562 2216.92017
41.8400 41.8450 2218.0 0.000451 1948.38757 2220.28906
41.8500 41.8550 2236.1 0.000447 1949.45032 2224.53027
41.8600 41.8650 2237.7 0.000447 1950.30798 2229.53638
41.8700 41.8750 2225.4 0.000449 1950.94043 2235.19409
41.8800 41.8850 2243.8 0.000446 1951.33179 2241.37427
41.8900 41.8950 2242.3 0.000446 1951.46167 2247.95288
41.9000 41.9050 2257.3 0.000443 1951.31042 2254.81714
41.9100 41.9150 2256.1 0.000443 1950.85779 2261.88330
41.9200 41.9250 2272.6 0.000440 1950.08130 2269.10156
41.9300 41.9350 2262.5 0.000442 1948.95813 2276.46582
41.9400 41.9450 2293.8 0.000436 1947.46582 2284.01489
41.9500 41.9550 2281.3 0.000438 1945.57861 2291.82300
41.9600 41.9650 2294.6 0.000436 1943.27283 2299.98950
41.9700 41.9750 2304.5 0.000434 1940.51929 2308.42065
41.9800 41.9850 2332.5 0.000429 1937.29358 2317.60400
41.9900 41.9950 2328.5 . . .
42.0000 42.0050 2351.1 . . .
42.0100 42.0150 2358.8 . . .
42.0200 42.0250 2385.9 . . .
42.0300 42.0350 2407.2 . . .
42.0400 42.0450 2417.6 . . .
42.0500 42.0550 2422.0 . . .
42.0600 42.0650 2444.9 . . .
42.0700 42.0750 2466.3 . . .
42.0800 42.0850 2494.5 . . .
42.0900 42.0950 2511.5 . . .
42.1000 42.1050 2518.1 . . .
42.1100 42.1150 2535.1 . . .
42.1200 42.1250 2544.6 . . .
42.1300 42.1350 2561.0 . . .
42.1400 42.1450 2555.7 . . .
42.1500 42.1550 2551.1 . . .
42.1600 42.1650 2535.9 . . .
42.1700 42.1750 2541.1 . . .
42.1800 42.1850 2529.2 . . .
42.1900 42.1950 2512.0 . . .
42.2000 42.2050 2521.0 . . .
42.2100 42.2150 2494.1 . . .
42.2200 42.2250 2472.6 . . .
42.2300 42.2350 2464.9 . . .
42.2400 42.2450 2446.8 . . .
42.2500 42.2550 2445.4 . . .
42.2600 42.2650 2430.8 . . .
42.2700 42.2750 2434.9 . . .
42.2800 42.2850 2406.8 . . .
42.2900 42.2950 2404.6 . . .
42.3000 42.3050 2407.8 . . .
42.3100 42.3150 2408.5 . . .
42.3200 42.3250 2406.7 . . .
42.3300 42.3350 2405.8 . . .
42.3400 42.3450 2404.6 . . .
42.3500 42.3550 2407.3 . . .
42.3600 42.3650 2412.2 . . .
42.3700 42.3750 2399.3 . . .
42.3800 42.3850 2390.8 . . .
42.3900 42.3950 2400.2 . . .
42.4000 42.4050 2403.2 . . .
42.4100 42.4150 2393.1 . . .
42.4200 42.4250 2393.8 . . .
42.4300 42.4350 2384.0 . . .
42.4400 42.4450 2382.2 . . .
42.4500 42.4550 2397.6 . . .
42.4600 42.4650 2369.3 . . .
42.4700 42.4750 2372.5 . . .
42.4800 42.4850 2349.0 . . .
42.4900 42.4950 2368.4 . . .
42.5000 42.5050 2350.3 . . .
42.5100 42.5150 2348.3 . . .
42.5200 42.5250 2347.7 . . .
42.5300 42.5350 2363.7 . . .
42.5400 42.5450 2380.1 . . .
42.5500 42.5550 2370.7 . . .
42.5600 42.5650 2393.4 . . .
42.5700 42.5750 2426.1 . . .
42.5800 42.5850 2426.1 . . .
42.5900 42.5950 2451.3 . . .
42.6000 42.6050 2456.3 . . .
42.6100 42.6150 2487.6 . . .
42.6200 42.6250 2520.1 . . .
42.6300 42.6350 2526.5 . . .
42.6400 42.6450 2552.2 . . .
42.6500 42.6550 2563.2 . . .
42.6600 42.6650 2585.5 . . .
42.6700 42.6750 2588.3 . . .
42.6800 42.6850 2579.7 . . .
42.6900 42.6950 2585.2 . . .
42.7000 42.7050 2580.6 . . .
42.7100 42.7150 2566.9 . . .
42.7200 42.7250 2565.7 . . .
42.7300 42.7350 2563.4 . . .
42.7400 42.7450 2564.1 . . .
42.7500 42.7550 2558.6 . . .
42.7600 42.7650 2565.5 . . .
42.7700 42.7750 2561.9 . . .
42.7800 42.7850 2573.5 . . .
42.7900 42.7950 2591.2 . . .
42.8000 42.8050 2579.4 . . .
42.8100 42.8150 2594.2 . . .
42.8200 42.8250 2577.0 . . .
42.8300 42.8350 2572.7 . . .
42.8400 42.8450 2564.2 . . .
42.8500 42.8550 2584.8 . . .
42.8600 42.8650 2568.5 . . .
42.8700 42.8750 2605.9 . . .
42.8800 42.8850 2574.7 . . .
42.8900 42.8950 2575.9 . . .
42.9000 42.9050 2604.3 . . .
42.9100 42.9150 2607.2 . . .
42.9200 42.9250 2605.3 . . .
42.9300 42.9350 2617.4 . . .
42.9400 42.9450 2615.5 . . .
42.9500 42.9550 2654.0 . . .
42.9600 42.9650 2684.2 . . .
42.9700 42.9750 2735.9 . . .
42.9800 42.9850 2771.5 . . .
42.9900 42.9950 2822.7 . . .
43.0000 43.0050 2884.8 . . .
43.0100 43.0150 2935.4 . . .
43.0200 43.0250 3025.2 . . .
43.0300 43.0350 3088.2 . . .
43.0400 43.0450 3166.9 . . .
43.0500 43.0550 3228.6 . . .
43.0600 43.0650 3303.3 . . .
43.0700 43.0750 3347.6 . . .
43.0800 43.0850 3372.6 . . .
43.0900 43.0950 3393.6 . . .
43.1000 43.1050 3382.4 . . .
43.1100 43.1150 3367.1 . . .
43.1200 43.1250 3326.3 . . .
43.1300 43.1350 3287.1 . . .
43.1400 43.1450 3218.0 . . .
43.1500 43.1550 3151.4 . . .
43.1600 43.1650 3066.8 . . .
43.1700 43.1750 3008.9 . . .
43.1800 43.1850 2924.1 . . .
43.1900 43.1950 2882.0 . . .
43.2000 43.2050 2814.5 . . .
43.2100 43.2150 2741.2 . . .
43.2200 43.2250 2687.7 . . .
43.2300 43.2350 2645.6 . . .
43.2400 43.2450 2607.1 . . .
43.2500 43.2550 2571.6 . . .
43.2600 43.2650 2566.3 . . .
43.2700 43.2750 2537.4 . . .
43.2800 43.2850 2500.8 . . .
43.2900 43.2950 2493.7 . . .
43.3000 43.3050 2469.9 . . .
43.3100 43.3150 2470.0 . . .
43.3200 43.3250 2452.5 . . .
43.3300 43.3350 2446.1 . . .
43.3400 43.3450 2452.2 . . .
43.3500 43.3550 2450.9 . . .
43.3600 43.3650 2450.6 . . .
43.3700 43.3750 2473.3 . . .
43.3800 43.3850 2487.7 . . .
43.3900 43.3950 2492.0 . . .
43.4000 43.4050 2520.9 . . .
43.4100 43.4150 2554.9 . . .
43.4200 43.4250 2591.8 . . .
43.4300 43.4350 2617.4 . . .
43.4400 43.4450 2648.3 . . .
43.4500 43.4550 2692.8 . . .
43.4600 43.4650 2724.2 . . .
43.4700 43.4750 2774.4 . . .
43.4800 43.4850 2831.9 . . .
43.4900 43.4950 2832.2 . . .
43.5000 43.5050 2866.1 . . .
43.5100 43.5150 2898.8 . . .
43.5200 43.5250 2902.3 . . .
43.5300 43.5350 2923.4 . . .
43.5400 43.5450 2887.3 . . .
43.5500 43.5550 2885.6 . . .
43.5600 43.5650 2866.7 . . .
43.5700 43.5750 2823.4 . . .
43.5800 43.5850 2809.0 . . .
43.5900 43.5950 2758.8 . . .
43.6000 43.6050 2728.2 . . .
43.6100 43.6150 2700.1 . . .
43.6200 43.6250 2686.7 . . .
43.6300 43.6350 2640.6 . . .
43.6400 43.6450 2617.7 . . .
43.6500 43.6550 2592.3 . . .
43.6600 43.6650 2573.0 . . .
43.6700 43.6750 2565.0 . . .
43.6800 43.6850 2556.3 . . .
43.6900 43.6950 2544.3 . . .
43.7000 43.7050 2544.0 . . .
43.7100 43.7150 2531.4 . . .
43.7200 43.7250 2508.2 . . .
43.7300 43.7350 2508.1 . . .
43.7400 43.7450 2501.2 . . .
43.7500 43.7550 2518.6 . . .
43.7600 43.7650 2498.1 . . .
43.7700 43.7750 2507.1 . . .
43.7800 43.7850 2524.2 . . .
43.7900 43.7950 2536.9 . . .
43.8000 43.8050 2513.2 . . .
43.8100 43.8150 2535.2 . . .
43.8200 43.8250 2543.1 . . .
43.8300 43.8350 2553.2 . . .
43.8400 43.8450 2552.0 . . .
43.8500 43.8550 2564.7 . . .
43.8600 43.8650 2549.7 . . .
43.8700 43.8750 2542.4 . . .
43.8800 43.8850 2551.5 . . .
43.8900 43.8950 2542.0 . . .
43.9000 43.9050 2539.1 . . .
43.9100 43.9150 2522.8 . . .
43.9200 43.9250 2529.3 . . .
43.9300 43.9350 2497.5 . . .
43.9400 43.9450 2497.5 . . .
43.9500 43.9550 2480.1 . . .
43.9600 43.9650 2465.8 . . .
43.9700 43.9750 2466.8 . . .
43.9800 43.9850 2455.0 . . .
43.9900 43.9950 2438.0 . . .
44.0000 44.0050 2437.3 . . .
44.0100 44.0150 2439.7 . . .
44.0200 44.0250 2414.6 . . .
44.0300 44.0350 2425.8 . . .
44.0400 44.0450 2417.4 . . .
44.0500 44.0550 2399.3 . . .
44.0600 44.0650 2416.9 . . .
44.0700 44.0750 2397.0 . . .
44.0800 44.0850 2404.8 . . .
44.0900 44.0950 2381.7 . . .
44.1000 44.1050 2393.0 . . .
44.1100 44.1150 2394.6 . . .
44.1200 44.1250 2408.5 . . .
44.1300 44.1350 2430.7 . . .
44.1400 44.1450 2435.3 . . .
44.1500 44.1550 2475.2 . . .
44.1600 44.1650 2491.4 . . .
44.1700 44.1750 2495.0 . . .
44.1800 44.1850 2540.4 . . .
44.1900 44.1950 2537.1 . . .
44.2000 44.2050 2595.6 . . .
44.2100 44.2150 2578.7 . . .
44.2200 44.2250 2606.6 . . .
44.2300 44.2350 2618.0 . . .
44.2400 44.2450 2658.4 . . .
44.2500 44.2550 2659.4 . . .
44.2600 44.2650 2647.3 . . .
44.2700 44.2750 2658.7 . . .
44.2800 44.2850 2654.2 . . .
44.2900 44.2950 2679.9 . . .
44.3000 44.3050 2689.1 . . .
44.3100 44.3150 2680.6 . . .
44.3200 44.3250 2695.3 . . .
44.3300 44.3350 2704.8 . . .
44.3400 44.3450 2693.0 . . .
44.3500 44.3550 2692.8 . . .
44.3600 44.3650 2685.9 . . .
44.3700 44.3750 2698.3 . . .
44.3800 44.3850 2691.3 . . .
44.3900 44.3950 2670.5 . . .
44.4000 44.4050 2662.4 . . .
44.4100 44.4150 2646.7 . . .
44.4200 44.4250 2646.2 . . .
44.4300 44.4350 2608.1 . . .
44.4400 44.4450 2608.4 . . .
44.4500 44.4550 2584.4 . . .
44.4600 44.4650 2593.0 . . .
44.4700 44.4750 2541.6 . . .
44.4800 44.4850 2537.3 . . .
44.4900 44.4950 2489.6 . . .
44.5000 44.5050 2468.6 . . .
44.5100 44.5150 2467.3 . . .
44.5200 44.5250 2427.4 . . .
44.5300 44.5350 2428.8 . . .
44.5400 44.5450 2411.8 . . .
44.5500 44.5550 2390.4 . . .
44.5600 44.5650 2373.2 . . .
44.5700 44.5750 2362.1 . . .
44.5800 44.5850 2393.4 . . .
44.5900 44.5950 2368.9 . . .
44.6000 44.6050 2364.5 . . .
44.6100 44.6150 2375.8 . . .
44.6200 44.6250 2371.0 . . .
44.6300 44.6350 2378.7 . . .
44.6400 44.6450 2387.4 . . .
44.6500 44.6550 2378.5 . . .
44.6600 44.6650 2394.4 . . .
44.6700 44.6750 2373.9 . . .
44.6800 44.6850 2369.5 . . .
44.6900 44.6950 2342.6 . . .
44.7000 44.7050 2380.4 . . .
44.7100 44.7150 2368.8 . . .
44.7200 44.7250 2351.0 . . .
44.7300 44.7350 2343.4 . . .
44.7400 44.7450 2324.7 . . .
44.7500 44.7550 2339.4 . . .
44.7600 44.7650 2358.7 . . .
44.7700 44.7750 2341.8 . . .
44.7800 44.7850 2341.2 . . .
44.7900 44.7950 2352.3 . . .
44.8000 44.8050 2383.2 . . .
44.8100 44.8150 2358.8 . . .
44.8200 44.8250 2378.1 . . .
44.8300 44.8350 2349.1 . . .
44.8400 44.8450 2368.8 . . .
44.8500 44.8550 2375.7 . . .
44.8600 44.8650 2355.5 . . .
44.8700 44.8750 2324.5 . . .
44.8800 44.8850 2338.3 . . .
44.8900 44.8950 2330.3 . . .
44.9000 44.9050 2314.4 . . .
44.9100 44.9150 2268.3 . . .
44.9200 44.9250 2259.5 . . .
44.9300 44.9350 2250.2 . . .
44.9400 44.9450 2216.9 . . .
44.9500 44.9550 2204.6 . . .
44.9600 44.9650 2180.2 . . .
44.9700 44.9750 2159.0 . . .
44.9800 44.9850 2154.7 . . .
44.9900 44.9950 2130.7 . . .
45.0000 45.0050 2121.7 . . .
45.0100 45.0150 2094.6 . . .
45.0200 45.0250 2105.4 . . .
45.0300 45.0350 2073.2 . . .
45.0400 45.0450 2066.1 . . .
45.0500 45.0550 2056.8 . . .
45.0600 45.0650 2045.9 . . .
45.0700 45.0750 2051.9 . . .
45.0800 45.0850 2025.1 . . .
45.0900 45.0950 2028.2 . . .
45.1000 45.1050 2016.1 . . .
45.1100 45.1150 2031.5 . . .
45.1200 45.1250 2012.8 . . .
45.1300 45.1350 2029.8 . . .
45.1400 45.1450 2009.8 . . .
45.1500 45.1550 1993.8 . . .
45.1600 45.1650 2020.4 . . .
45.1700 45.1750 2016.3 . . .
45.1800 45.1850 2013.3 . . .
45.1900 45.1950 2022.4 . . .
45.2000 45.2050 2025.7 . . .
45.2100 45.2150 2017.2 . . .
45.2200 45.2250 2018.5 . . .
45.2300 45.2350 2022.7 . . .
45.2400 45.2450 2029.9 . . .
45.2500 45.2550 2038.5 . . .
45.2600 45.2650 2032.4 . . .
45.2700 45.2750 2047.2 . . .
45.2800 45.2850 2050.8 . . .
45.2900 45.2950 2015.0 . . .
45.3000 45.3050 2036.9 . . .
45.3100 45.3150 2034.3 . . .
45.3200 45.3250 2055.1 . . .
45.3300 45.3350 2030.8 . . .
45.3400 45.3450 2041.3 . . .
45.3500 45.3550 2031.4 . . .
45.3600 45.3650 2028.9 . . .
45.3700 45.3750 2045.5 . . .
45.3800 45.3850 2034.5 . . .
45.3900 45.3950 2043.4 . . .
45.4000 45.4050 2048.4 . . .
45.4100 45.4150 2039.9 . . .
45.4200 45.4250 2053.5 . . .
45.4300 45.4350 2052.2 . . .
45.4400 45.4450 2065.5 . . .
45.4500 45.4550 2050.7 . . .
45.4600 45.4650 2058.8 . . .
45.4700 45.4750 2063.0 . . .
45.4800 45.4850 2074.0 . . .
45.4900 45.4950 2051.8 . . .
45.5000 45.5050 2067.2 . . .
45.5100 45.5150 2100.1 . . .
45.5200 45.5250 2111.2 . . .
45.5300 45.5350 2119.2 . . .
45.5400 45.5450 2117.3 . . .
45.5500 45.5550 2133.4 . . .
45.5600 45.5650 2147.4 . . .
45.5700 45.5750 2166.3 . . .
45.5800 45.5850 2148.1 . . .
45.5900 45.5950 2192.6 . . .
45.6000 45.6050 2202.7 . . .
45.6100 45.6150 2167.7 . . .
45.6200 45.6250 2201.7 . . .
45.6300 45.6350 2220.9 . . .
45.6400 45.6450 2231.4 . . .
45.6500 45.6550 2201.6 . . .
45.6600 45.6650 2228.3 . . .
45.6700 45.6750 2187.9 . . .
45.6800 45.6850 2213.0 . . .
45.6900 45.6950 2184.8 . . .
45.7000 45.7050 2193.5 . . .
45.7100 45.7150 2180.5 . . .
45.7200 45.7250 2174.4 . . .
45.7300 45.7350 2185.3 . . .
45.7400 45.7450 2157.7 . . .
45.7500 45.7550 2169.6 . . .
45.7600 45.7650 2184.4 . . .
45.7700 45.7750 2170.0 . . .
45.7800 45.7850 2190.3 . . .
45.7900 45.7950 2193.7 . . .
45.8000 45.8050 2192.7 . . .
45.8100 45.8150 2211.9 . . .
45.8200 45.8250 2215.5 . . .
45.8300 45.8350 2241.7 . . .
45.8400 45.8450 2265.1 . . .
45.8500 45.8550 2280.5 . . .
45.8600 45.8650 2291.5 . . .
45.8700 45.8750 2293.3 . . .
45.8800 45.8850 2333.7 . . .
45.8900 45.8950 2326.0 . . .
45.9000 45.9050 2325.4 . . .
45.9100 45.9150 2337.8 . . .
45.9200 45.9250 2353.6 . . .
45.9300 45.9350 2363.2 . . .
45.9400 45.9450 2353.8 . . .
45.9500 45.9550 2347.7 . . .
45.9600 45.9650 2347.6 . . .
45.9700 45.9750 2344.3 . . .
45.9800 45.9850 2346.4 . . .
45.9900 45.9950 2331.5 . . .
46.0000 46.0050 2361.4 . . .
46.0100 46.0150 2346.0 . . .
46.0200 46.0250 2309.5 . . .
46.0300 46.0350 2345.0 . . .
46.0400 46.0450 2356.6 . . .
46.0500 46.0550 2322.1 . . .
46.0600 46.0650 2340.3 . . .
46.0700 46.0750 2343.9 . . .
46.0800 46.0850 2288.0 . . .
46.0900 46.0950 2308.4 . . .
46.1000 46.1050 2292.1 . . .
46.1100 46.1150 2254.6 . . .
46.1200 46.1250 2270.5 . . .
46.1300 46.1350 2235.0 . . .
46.1400 46.1450 2186.6 . . .
46.1500 46.1550 2191.9 . . .
46.1600 46.1650 2173.9 . . .
46.1700 46.1750 2150.1 . . .
46.1800 46.1850 2154.9 . . .
46.1900 46.1950 2099.9 . . .
46.2000 46.2050 2113.8 . . .
46.2100 46.2150 2096.6 . . .
46.2200 46.2250 2079.9 . . .
46.2300 46.2350 2081.9 . . .
46.2400 46.2450 2088.1 . . .
46.2500 46.2550 2056.2 . . .
46.2600 46.2650 2082.7 . . .
46.2700 46.2750 2054.8 . . .
46.2800 46.2850 2047.9 . . .
46.2900 46.2950 2055.4 . . .
46.3000 46.3050 2052.5 . . .
46.3100 46.3150 2051.9 . . .
46.3200 46.3250 2044.2 . . .
46.3300 46.3350 2065.2 . . .
46.3400 46.3450 2066.6 . . .
46.3500 46.3550 2055.2 . . .
46.3600 46.3650 2030.5 . . .
46.3700 46.3750 2036.0 . . .
46.3800 46.3850 2022.9 . . .
46.3900 46.3950 2030.2 . . .
46.4000 46.4050 2027.1 . . .
46.4100 46.4150 2014.1 . . .
46.4200 46.4250 2025.3 . . .
46.4300 46.4350 2014.0 . . .
46.4400 46.4450 2023.3 . . .
46.4500 46.4550 2008.4 . . .
46.4600 46.4650 2012.1 . . .
46.4700 46.4750 2029.1 . . .
46.4800 46.4850 2024.3 . . .
46.4900 46.4950 2034.0 . . .
46.5000 46.5050 2013.4 . . .
46.5100 46.5150 2018.8 . . .
46.5200 46.5250 2022.3 . . .
46.5300 46.5350 2026.1 . . .
46.5400 46.5450 2015.3 . . .
46.5500 46.5550 2031.8 . . .
46.5600 46.5650 2011.4 . . .
46.5700 46.5750 2034.6 . . .
46.5800 46.5850 2009.4 . . .
46.5900 46.5950 2013.5 . . .
46.6000 46.6050 2007.6 . . .
46.6100 46.6150 2028.6 . . .
46.6200 46.6250 1984.7 . . .
46.6300 46.6350 1989.0 . . .
46.6400 46.6450 1987.9 . . .
46.6500 46.6550 2001.7 . . .
46.6600 46.6650 1959.7 . . .
46.6700 46.6750 1946.6 . . .
46.6800 46.6850 1970.9 . . .
46.6900 46.6950 1960.1 . . .
46.7000 46.7050 1939.2 . . .
46.7100 46.7150 1916.5 . . .
46.7200 46.7250 1915.7 . . .
46.7300 46.7350 1931.5 . . .
46.7400 46.7450 1887.9 . . .
46.7500 46.7550 1908.1 . . .
46.7600 46.7650 1920.1 . . .
46.7700 46.7750 1902.5 . . .
46.7800 46.7850 1892.7 . . .
46.7900 46.7950 1915.2 . . .
46.8000 46.8050 1894.1 . . .
46.8100 46.8150 1891.5 . . .
46.8200 46.8250 1893.7 . . .
46.8300 46.8350 1954.0 . . .
46.8400 46.8450 1936.1 . . .
46.8500 46.8550 1927.4 . . .
46.8600 46.8650 1936.9 . . .
46.8700 46.8750 1940.0 . . .
46.8800 46.8850 1931.9 . . .
46.8900 46.8950 1974.7 . . .
46.9000 46.9050 1971.1 . . .
46.9100 46.9150 1991.8 . . .
46.9200 46.9250 1977.9 . . .
46.9300 46.9350 1982.0 . . .
46.9400 46.9450 1999.0 . . .
46.9500 46.9550 2024.6 . . .
46.9600 46.9650 2005.8 . . .
46.9700 46.9750 1988.6 . . .
46.9800 46.9850 2033.4 . . .
46.9900 46.9950 2047.2 . . .
loop_
_gsas_i100_meas
6.74
100.00
0.37
3.00
3.82
6.37
10.13
9.12
7.95
2.59
3.15
0.28
0.10
0.14
2.42
0.26
0.22
0.02
3.19
1.24
7.73
3.11
2.85
0.15
0.52
0.13
0.83
4.94
0.37
0.09
1.20
3.98
0.02
3.25
0.66
1.48
1.73
0.81
0.70
1.66
0.19
0.44
2.25
0.07
1.37
0.41
1.09
0.46
0.05
0.00
1.47
0.00
0.48
0.02
0.48
0.52
0.00
0.78
1.46
0.75
0.69
1.25
0.14
0.06
0.07
0.11
0.97
0.04
0.04
1.64
0.15
0.27
1.01
0.38
0.13
0.00
0.06
0.64
0.37
1.07
0.27
0.24
1.02
0.25
0.34
0.01
0.05
0.22
0.00
0.03
0.00
1.01
0.37
0.01
0.22
0.13
0.17
0.30
0.05
0.00
0.01
0.39
0.07
0.13
0.02
0.08
1.07
0.24
0.07
0.39
0.02
0.08
0.23
0.12
0.14
0.29
0.06
0.19
0.12
0.01
0.10
0.06
0.06
0.11
0.07
0.06
0.09
0.27
0.05
0.00
0.08
0.14
0.24
0.27
0.17
0.05
0.01
0.06
