#------------------------------------------------------------------------------
#$Date: 2019-11-24 14:15:46 +0200 (Sun, 24 Nov 2019) $
#$Revision: 238118 $
#$URL: file:///home/coder/svn-repositories/cod/cif/1/55/47/1554785.cif $
#------------------------------------------------------------------------------
#
# This file is available in the Crystallography Open Database (COD),
# http://www.crystallography.net/
#
# All data on this site have been placed in the public domain by the
# contributors.
#
data_1554785
loop_
_publ_author_name
'Hoffmann, Kerstin'
'Guentner, Manuel'
'Mayer, Peter'
'Dube, Henry'
_publ_section_title
;
 Symmetric and nonsymmetric bis-hemithioindigos -- precise visible light
 controlled shape-shifters
;
_journal_issue                   8
_journal_name_full               'Organic Chemistry Frontiers'
_journal_page_first              1244
_journal_paper_doi               10.1039/C9QO00202B
_journal_volume                  6
_journal_year                    2019
_chemical_formula_moiety         'C11 H12 O4 S2'
_chemical_formula_sum            'C11 H12 O4 S2'
_chemical_formula_weight         272.33
_chemical_name_common            KH-195
_space_group_crystal_system      triclinic
_space_group_IT_number           2
_space_group_name_Hall           '-P 1'
_space_group_name_H-M_alt        'P -1'
_atom_sites_solution_hydrogens   mixed
_audit_block_code                C11H12O4S2_wv669_dube
_audit_creation_method           'APEX3 v2017.3-0'
_audit_update_record
;
2019-02-04 deposited with the CCDC.	2019-03-13 downloaded from the CCDC.
;
_cell_angle_alpha                81.694(2)
_cell_angle_beta                 82.410(2)
_cell_angle_gamma                74.5610(10)
_cell_formula_units_Z            2
_cell_length_a                   5.1535(2)
_cell_length_b                   7.3073(3)
_cell_length_c                   16.2864(7)
_cell_measurement_reflns_used    5507
_cell_measurement_temperature    109.(2)
_cell_measurement_theta_max      30.5213
_cell_measurement_theta_min      2.9111
_cell_volume                     582.16(4)
_computing_cell_refinement       'SAINT V8.38A (Bruker AXS Inc., 2017)'
_computing_data_collection       'APEX3 v2016.5-0, Bruker AXS (2016)'
_computing_data_reduction        'SAINT V8.38A (Bruker AXS Inc., 2017)'
_computing_molecular_graphics    'shelXle (C.B. Huebschle, rev 833)'
_computing_structure_refinement  'SHELXL-2016/6 (Sheldrick, 2016)'
_computing_structure_solution    'SHELXT 2014/5 (Sheldrick, 2014)'
_diffrn_ambient_temperature      109.(2)
_diffrn_detector_area_resol_mean 7.3910
_diffrn_measured_fraction_theta_full 0.998
_diffrn_measured_fraction_theta_max 0.997
_diffrn_measurement_device       'fixed-chi three-circle diffractometer'
_diffrn_measurement_device_type  'Bruker D8 Venture TXS'
_diffrn_measurement_method       'mix of phi and omega scans'
_diffrn_radiation_monochromator  'focusing mirrors'
_diffrn_radiation_type           MoK\a
_diffrn_radiation_wavelength     0.71073
_diffrn_reflns_av_R_equivalents  0.0352
_diffrn_reflns_av_unetI/netI     0.0407
_diffrn_reflns_Laue_measured_fraction_full 0.998
_diffrn_reflns_Laue_measured_fraction_max 0.997
_diffrn_reflns_limit_h_max       7
_diffrn_reflns_limit_h_min       -7
_diffrn_reflns_limit_k_max       10
_diffrn_reflns_limit_k_min       -10
_diffrn_reflns_limit_l_max       23
_diffrn_reflns_limit_l_min       -23
_diffrn_reflns_number            10443
_diffrn_reflns_point_group_measured_fraction_full 0.998
_diffrn_reflns_point_group_measured_fraction_max 0.997
_diffrn_reflns_theta_full        25.242
_diffrn_reflns_theta_max         30.508
_diffrn_reflns_theta_min         2.540
_diffrn_source                   'rotating anode (TXS)'
_diffrn_source_current           50
_diffrn_source_power             2.5
_diffrn_source_type              'Bruker TXS'
_diffrn_source_voltage           50
_exptl_absorpt_coefficient_mu    0.456
_exptl_absorpt_correction_T_max  0.98
_exptl_absorpt_correction_T_min  0.94
_exptl_absorpt_correction_type   multi-scan
_exptl_absorpt_process_details
;
SADABS-2016/2 - Bruker AXS area detector scaling and absorption correction
;
_exptl_crystal_colour            colourless
_exptl_crystal_density_diffrn    1.554
_exptl_crystal_density_method    'not measured'
_exptl_crystal_description       block
_exptl_crystal_F_000             284
_exptl_crystal_size_max          0.060
_exptl_crystal_size_mid          0.050
_exptl_crystal_size_min          0.050
_refine_diff_density_max         0.521
_refine_diff_density_min         -0.407
_refine_diff_density_rms         0.071
_refine_ls_extinction_method     none
_refine_ls_goodness_of_fit_ref   1.076
_refine_ls_hydrogen_treatment    mixed
_refine_ls_matrix_type           full
_refine_ls_number_parameters     163
_refine_ls_number_reflns         3549
_refine_ls_number_restraints     0
_refine_ls_restrained_S_all      1.076
_refine_ls_R_factor_all          0.0459
_refine_ls_R_factor_gt           0.0367
_refine_ls_shift/su_max          0.000
_refine_ls_shift/su_mean         0.000
_refine_ls_structure_factor_coef Fsqd
_refine_ls_weighting_details
'w=1/[\s^2^(Fo^2^)+(0.0411P)^2^+0.3712P] where P=(Fo^2^+2Fc^2^)/3'
_refine_ls_weighting_scheme      calc
_refine_ls_wR_factor_gt          0.0941
_refine_ls_wR_factor_ref         0.0995
_reflns_Friedel_coverage         0.000
_reflns_number_gt                3016
_reflns_number_total             3549
_reflns_threshold_expression     'I > 2\s(I)'
_cod_data_source_file            c9qo00202b2.cif
_cod_data_source_block           wv669
_cod_depositor_comments
;
The following automatic conversions were performed:

data item '_exptl_absorpt_correction_type' value 'Multi-Scan' was
changed to 'multi-scan' in accordance with the
/home/saulius/struct/COD-crude-data/automatic-downloads/DataCite-retrospective/RSC/depositions/lib/dictionaries/cif_core.dic
dictionary named 'cif_core.dic' version 2.4.2 last updated on
2011-04-26.

Automatic conversion script
Id: cif_fix_values 6909 2019-04-08 15:41:33Z antanas 
;
_cod_database_code               1554785
_shelx_estimated_absorpt_t_min   0.973
_shelx_estimated_absorpt_t_max   0.978
_shelx_space_group_comment
;
The symmetry employed for this shelxl refinement is uniquely defined
by the following loop, which should always be used as a source of
symmetry information in preference to the above space-group names.
They are only intended as comments.
;
_shelx_res_file
;

TITL wv669_0m_a.res in P-1
    wv669_0m_a.res
    created by SHELXL-2016/6 at 06:51:36 on 18-Dec-2018
REM Old TITL wv669_0m in P-1
REM SHELXT solution in P-1
REM R1 0.088,  Rweak 0.006,  Alpha 0.034,  Orientation as input
REM Formula found by SHELXT:  C12 O3 S2
CELL  0.71073   5.1535   7.3073  16.2864   81.694   82.410   74.561
ZERR    2.000   0.0002   0.0003   0.0007    0.002    0.002    0.001
LATT  1
SFAC C H O S
UNIT 22 24 8 4
TEMP -164
SIZE 0.05 0.05 0.06
L.S. 10
BOND $H
LIST 4
CONF
ACTA
SHEL 9.0 0.70
HTAB
EQIV $1 -x+3, -y, -z+1
HTAB O1 O2_$1
EQIV $2 -x, -y+2, -z
HTAB O3 O4_$2
HTAB O3 O3_$2
FMAP 2
PLAN -20
WGHT    0.041100    0.371200
FVAR       1.21744
S1    4    0.819414    0.193290    0.351005    11.00000    0.01346    0.01108 =
         0.01845   -0.00227   -0.00556   -0.00041
S2    4    0.072768    0.397040    0.131650    11.00000    0.02085    0.02073 =
         0.01571   -0.00332   -0.00659   -0.00478
O2    3    1.270334    0.007044    0.437749    11.00000    0.01572    0.01432 =
         0.01891   -0.00307   -0.00518   -0.00163
O1    3    1.284710    0.237880    0.512772    11.00000    0.01913    0.01570 =
         0.02168   -0.00493   -0.00955   -0.00006
H1    2    1.431841    0.143311    0.530938    11.00000    0.06245
O4    3    0.142245    0.761815    0.025998    11.00000    0.02866    0.03854 =
         0.03576    0.00649   -0.00385   -0.01074
O3    3   -0.286139    0.926795    0.051748    11.00000    0.03858    0.02736 =
         0.03807    0.00084    0.00293   -0.00216
H3    2   -0.187077    1.060845    0.013461    11.00000    0.05710
C1    1    0.552781    0.376612    0.310147    11.00000    0.01095    0.01183 =
         0.01444   -0.00026   -0.00161   -0.00214
C2    1    0.427074    0.326773    0.248153    11.00000    0.01389    0.01233 =
         0.01479   -0.00222   -0.00100   -0.00283
C3    1    0.214742    0.465297    0.212125    11.00000    0.01491    0.01571 =
         0.01256   -0.00178   -0.00216   -0.00432
C4    1    0.125402    0.646858    0.240076    11.00000    0.01523    0.01450 =
         0.01619   -0.00055   -0.00391    0.00015
AFIX  43
H4    2   -0.021649    0.738950    0.216722    11.00000   -1.20000
AFIX   0
C5    1    0.251679    0.691561    0.301659    11.00000    0.01755    0.01144 =
         0.01880   -0.00382   -0.00209   -0.00142
AFIX  43
H5    2    0.190371    0.814649    0.320243    11.00000   -1.20000
AFIX   0
C6    1    0.466832    0.558832    0.336637    11.00000    0.01521    0.01375 =
         0.01636   -0.00408   -0.00325   -0.00321
AFIX  43
H6    2    0.554668    0.591451    0.378103    11.00000   -1.20000
AFIX   0
C7    1    0.938794    0.308745    0.423606    11.00000    0.01302    0.01326 =
         0.01673   -0.00194   -0.00437   -0.00224
AFIX  23
H7A   2    0.990077    0.424865    0.394946    11.00000   -1.20000
H7B   2    0.795106    0.346633    0.469143    11.00000   -1.20000
AFIX   0
C8    1    1.180591    0.168284    0.458272    11.00000    0.01374    0.01509 =
         0.01388   -0.00034   -0.00236   -0.00479
C9    1   -0.190154    0.603437    0.103275    11.00000    0.02114    0.02415 =
         0.01885    0.00118   -0.00844   -0.00624
AFIX  23
H9A   2   -0.306705    0.566949    0.068111    11.00000   -1.20000
H9B   2   -0.303250    0.644727    0.154603    11.00000   -1.20000
AFIX   0
C10   1   -0.092294    0.772171    0.056533    11.00000    0.02781    0.02843 =
         0.01807   -0.00281   -0.00635   -0.00617
C11   1    0.523853    0.128977    0.221174    11.00000    0.02089    0.01495 =
         0.02503   -0.00753   -0.00553   -0.00223
AFIX 137
H11A  2    0.398810    0.111099    0.184400    11.00000   -1.50000
H11B  2    0.530824    0.033797    0.270375    11.00000   -1.50000
H11C  2    0.704838    0.113453    0.191208    11.00000   -1.50000
REM #####
AFIX   0
HKLF 4




REM  wv669_0m_a.res in P-1
REM R1 =  0.0367 for    3016 Fo > 4sig(Fo)  and  0.0459 for all    3549 data
REM    163 parameters refined using      0 restraints

END

WGHT      0.0411      0.3712

REM Instructions for potential hydrogen bonds
HTAB O1 O2_$1
HTAB O3 O4_$2
HTAB O3 O3_$2
EQIV $3 -x+2, -y+1, -z+1
HTAB C6 O1_$3

REM Highest difference peak  0.521,  deepest hole -0.407,  1-sigma level  0.071
Q1    1   0.0107  0.4974  0.1237  11.00000  0.05    0.52
Q2    1   0.1821  0.5602  0.2267  11.00000  0.05    0.47
Q3    1  -0.1640  0.6901  0.0923  11.00000  0.05    0.45
Q4    1   0.1966  0.6621  0.2740  11.00000  0.05    0.43
Q5    1   1.0603  0.2370  0.4378  11.00000  0.05    0.42
Q6    1   0.4957  0.4689  0.3205  11.00000  0.05    0.41
Q7    1   0.4985  0.3488  0.2814  11.00000  0.05    0.41
Q8    1   0.3438  0.3933  0.2272  11.00000  0.05    0.39
Q9    1   0.8769  0.2321  0.3795  11.00000  0.05    0.38
Q10   1   0.3618  0.6268  0.3241  11.00000  0.05    0.37
Q11   1   0.4740  0.2354  0.2340  11.00000  0.05    0.34
Q12   1   0.2433  0.9857 -0.0136  11.00000  0.05    0.31
Q13   1   0.1953  0.3703  0.1054  11.00000  0.05    0.30
Q14   1   0.1498  0.4241  0.1817  11.00000  0.05    0.29
Q15   1   0.6565  0.3047  0.3307  11.00000  0.05    0.29
Q16   1   1.2345  0.2023  0.4805  11.00000  0.05    0.27
Q17   1   0.8155  0.0888  0.3647  11.00000  0.05    0.26
Q18   1   0.5713  0.1652  0.1847  11.00000  0.05    0.25
Q19   1   0.9001  0.3432  0.4423  11.00000  0.05    0.24
Q20   1  -0.1173  0.4277  0.0215  11.00000  0.05    0.24
;
_shelx_res_checksum              59138
_shelx_hkl_file
;
  -1   0   0 1475.85   50.89
   1   0   0 1413.66   50.79
  -2   0   0  889.31   33.20
  -2   0   0  883.91   31.50
   2   0   0  866.81   31.40
   2   0   0  857.71   31.20
   2   0   0  824.52   32.90
   2   0   0  872.81   31.20
  -3   0   0 1568.54   58.89
  -3   0   0 1595.34   56.29
   3   0   0 1571.04   55.89
   3   0   0 1534.15   55.99
   3   0   0 1599.84   55.89
  -4   0   0   54.09    6.00
  -4   0   0   49.40    8.20
   4   0   0   51.59    5.30
   4   0   0   53.89    5.70
  -5   0   0   10.10    5.80
   5   0   0   17.30    4.50
  -6   0   0   16.70    5.30
   6   0   0   15.20    5.00
   6   0   0   20.10    7.40
  -7   0   0    5.30    5.80
   7   0   0   12.70    8.40
   7   0   0   -7.90    4.10
   6  -1   0   86.39   15.00
   6  -1   0  107.69    9.60
  -6   1   0  116.09   10.30
  -6   1   0  109.09   13.70
   5  -1   0  115.89    9.10
  -5   1   0  160.38   14.40
  -5   1   0  135.79   10.60
   4  -1   0  936.11   36.10
   4  -1   0  919.51   36.10
  -4   1   0  954.70   41.50
  -4   1   0  956.60   37.20
   3  -1   0   55.49    4.70
   3  -1   0   50.09    5.00
   3  -1   0   59.29    4.90
  -3   1   0   49.90    6.80
  -3   1   0   48.80    5.10
   2  -1   0 3411.36  115.29
   2  -1   0 3321.27  112.49
  -2   1   0 3263.27  111.99
   1  -1   0  867.41   29.50
   1  -1   0  859.91   29.30
   1  -1   0  835.02   30.90
  -1   1   0  805.92   30.80
  -1   1   0  835.92   29.20
  -1   1   0  832.32   29.50
  -1  -1   0  212.68    8.90
  -1  -1   0  209.58    9.10
   1   1   0  217.88    8.70
   1   1   0  205.68    9.00
   1   1   0  211.68    8.90
   1   1   0  231.98    8.90
  -2  -1   0  239.98   11.30
  -2  -1   0  236.98   10.80
  -2  -1   0  235.58   11.50
   2   1   0  222.98   11.00
   2   1   0  231.38   10.70
   2   1   0  218.48   10.40
  -3  -1   0   20.80    3.80
  -3  -1   0   27.90    4.50
  -3  -1   0   23.10    4.70
   3   1   0   25.20    4.80
   3   1   0   24.10    3.90
   3   1   0   20.50    3.70
  -4  -1   0  405.16   21.50
  -4  -1   0  424.16   19.70
   4   1   0  427.76   19.50
  -5  -1   0   84.89    9.80
   5   1   0   82.59   10.70
   5   1   0  101.69    8.70
  -6  -1   0  117.69   11.00
   6   1   0   94.29   12.60
   6   1   0  113.79   10.30
  -7  -1   0  213.58   18.20
   7   1   0  212.38   15.40
   7   1   0  207.68   19.90
   6  -2   0  286.97   23.30
  -6   2   0  321.87   18.20
  -6   2   0  256.77   22.00
   5  -2   0   34.80    5.90
  -5   2   0   21.20    7.60
  -5   2   0   28.20    5.90
   4  -2   0  246.38   12.80
   4  -2   0  238.98   12.60
  -4   2   0  252.47   17.50
  -4   2   0  241.18   13.80
   3  -2   0   33.40    3.80
   3  -2   0   30.90    4.00
  -3   2   0   26.50    6.40
  -3   2   0   28.20    4.60
   2  -2   0  214.68   10.50
   2  -2   0  220.68   10.30
  -2   2   0  219.18   10.20
  -2   2   0  213.78   10.60
  -2   2   0  216.18   12.90
   1  -2   0 1357.56   46.80
   1  -2   0 1361.56   48.50
   1  -2   0 1364.26   46.90
  -1   2   0 1279.87   46.60
  -1   2   0 1352.36   47.00
   0  -2   0 1379.46   48.10
   0  -2   0 1462.85   48.50
   0  -2   0 1352.86   47.90
   0   2   0 1399.66   48.00
   0   2   0 1401.16   48.40
   0   2   0 1371.56   48.10
  -1  -2   0  467.95   18.10
  -1  -2   0  468.05   16.20
  -1  -2   0  464.95   17.60
   1   2   0  402.86   17.30
   1   2   0  442.66   16.10
   1   2   0  453.55   17.90
  -2  -2   0 1038.90   39.30
   2   2   0 1095.39   39.10
   2   2   0 1053.59   38.20
   2   2   0 1097.69   38.50
   2   2   0 1092.59   39.00
   2   2   0 1026.90   39.20
  -3  -2   0  967.60   38.40
  -3  -2   0 1004.90   38.00
   3   2   0  940.21   38.00
   3   2   0  975.00   38.20
   3   2   0 1123.69   39.30
  -4  -2   0  119.79    9.00
  -4  -2   0  119.79    9.40
   4   2   0  113.79    9.80
  -5  -2   0   58.79    8.30
  -5  -2   0   60.99    8.50
   5   2   0   53.59    8.10
   5   2   0   58.29    9.80
  -6  -2   0   32.40    6.90
   6   2   0   35.50    9.00
   6   2   0   32.90    6.60
   7   2   0   -8.10    5.30
   7   2   0   -5.00    3.70
  -6   3   0   34.80   10.00
  -6   3   0   46.70    8.10
   5  -3   0  210.38   12.70
  -5   3   0  239.58   18.90
  -5   3   0  228.38   14.60
   4  -3   0   32.40    5.30
  -4   3   0   43.10    6.90
  -4   3   0   32.90    8.30
   3  -3   0  537.05   22.40
  -3   3   0  569.44   23.60
  -3   3   0  545.95   27.60
  -3   3   0  512.05   22.10
   2  -3   0 1705.23   62.09
   2  -3   0 1774.62   61.89
  -2   3   0 1809.42   62.69
  -2   3   0 1720.93   61.79
  -2   3   0 1770.72   65.59
   1  -3   0  882.91   34.20
   1  -3   0  878.71   32.90
  -1   3   0  914.01   33.00
  -1   3   0  881.21   34.30
  -1   3   0  846.62   32.60
   0  -3   0   82.49    6.30
   0  -3   0   80.99    5.90
   0  -3   0   88.39    5.80
   0   3   0   89.19    6.10
   0   3   0  102.59    6.20
   0   3   0   92.99    6.40
  -1  -3   0 1473.15   50.39
  -1  -3   0 1532.45   53.39
   1   3   0 1456.65   50.29
   1   3   0 1464.25   52.49
  -2  -3   0  671.93   27.80
   2   3   0  663.43   25.20
   2   3   0  702.03   27.50
   2   3   0  677.23   27.10
   2   3   0  692.43   27.80
   2   3   0  727.93   25.40
  -3  -3   0  777.72   32.00
   3   3   0  785.92   30.10
   3   3   0  812.22   30.50
   3   3   0  712.83   30.80
  -4  -3   0    3.90    3.30
   4   3   0    6.10    3.60
   4   3   0    3.50    3.70
  -5  -3   0  174.78   13.40
   5   3   0  179.88   13.00
   5   3   0  195.48   14.10
   6   3   0 1370.66   57.79
   6   3   0 1315.77   54.69
   6   3   0 1345.57   55.19
   7   3   0    2.60    4.00
   7   3   0    4.10    5.00
   5  -4   0   37.90    5.90
  -5   4   0   47.80    7.80
  -5   4   0   65.59   13.00
   4  -4   0  211.68   12.30
  -4   4   0  212.98   13.80
  -4   4   0  216.68   17.30
   3  -4   0    2.20    2.80
  -3   4   0    4.10    4.30
  -3   4   0   -0.70    3.00
   2  -4   0 1328.47   46.00
  -2   4   0 1206.68   45.90
  -2   4   0 1164.08   45.30
  -2   4   0 1192.28   48.90
   1  -4   0   12.40    3.40
   1  -4   0   18.20    3.70
  -1   4   0   13.70    3.70
  -1   4   0   22.00    4.10
  -1   4   0   16.10    4.10
   0  -4   0   94.39    7.20
   0  -4   0   81.09    6.40
   0  -4   0   85.89    6.30
   0   4   0   85.69    6.90
   0   4   0   90.89    6.80
  -1  -4   0    4.50    1.90
  -1  -4   0   -1.10    2.50
   1   4   0    0.90    1.60
   1   4   0    4.20    2.30
  -2  -4   0  299.87   15.50
  -2  -4   0  278.27   12.00
   2   4   0  314.27   12.10
   2   4   0  276.17   14.50
  -3  -4   0  183.98   12.40
   3   4   0  188.88    9.60
   3   4   0  202.78   12.20
   3   4   0  166.08   10.40
  -4  -4   0  942.31   38.90
   4   4   0  940.51   37.50
   4   4   0  886.41   35.70
   4   4   0  792.42   39.20
  -5  -4   0  133.19   12.10
   5   4   0  139.99   11.30
   5   4   0  120.89   11.20
  -6  -4   0   67.89   11.00
   6   4   0   72.89   11.00
   6   4   0   78.19   11.60
   7   4   0   13.80    6.90
   7   4   0    5.10    6.50
  -5   5   0   20.20    6.10
  -5   5   0   49.50   11.50
   4  -5   0    5.90    3.40
  -4   5   0    3.80    5.80
  -4   5   0   11.60    4.60
   3  -5   0  487.65   22.30
  -3   5   0  496.25   26.30
  -3   5   0  486.65   27.20
   2  -5   0   29.30    5.40
  -2   5   0   41.80    6.30
  -2   5   0   33.00    7.30
   1  -5   0 1418.96   53.39
  -1   5   0 1423.06   54.69
  -1   5   0 1440.26   53.49
   0  -5   0 1643.24   60.29
   0  -5   0 1602.84   58.49
   0   5   0 1628.04   59.49
   0   5   0 1622.84   58.79
  -1  -5   0   50.89    7.30
  -1  -5   0   56.69    4.80
   1   5   0   51.99    4.40
   1   5   0   56.39    6.20
  -2  -5   0   66.09    4.30
  -2  -5   0   76.89    7.60
   2   5   0   74.79    7.40
   2   5   0   67.89    4.40
  -3  -5   0   67.79    8.30
   3   5   0   63.69    7.60
   3   5   0   69.09    4.90
   3   5   0   65.59    5.40
  -4  -5   0  231.08   16.20
   4   5   0  234.38   12.70
   4   5   0  253.87   15.90
   4   5   0  242.48   12.60
  -5  -5   0   14.00    5.50
   5   5   0   10.30    4.70
   5   5   0    4.70    4.50
  -6  -5   0   52.49    9.70
   6   5   0   54.19    9.80
  -7  -5   0    7.20    5.80
   7   5   0  -11.80    3.90
   4  -6   0  375.26   19.50
  -4   6   0  422.96   27.40
  -4   6   0  407.26   22.00
   3  -6   0   15.70    4.50
  -3   6   0   32.00    7.90
  -3   6   0   13.90    5.10
   2  -6   0  185.28   12.60
  -2   6   0  194.18   14.70
  -2   6   0  176.68   12.90
   1  -6   0   48.60    7.30
  -1   6   0   50.89    7.70
  -1   6   0   43.40    7.40
   0  -6   0    6.70    3.30
   0  -6   0    3.90    3.60
   0   6   0    7.20    3.60
   0   6   0    9.10    4.00
  -1  -6   0   12.20    3.50
  -1  -6   0   10.90    5.10
   1   6   0   15.10    4.40
  -2  -6   0   56.09    4.10
  -2  -6   0   69.39    8.70
   2   6   0   56.89    4.10
   2   6   0   57.39    8.20
  -3  -6   0  383.56   21.30
   3   6   0  375.06   14.60
   3   6   0  364.16   14.40
   3   6   0  360.76   20.20
  -4  -6   0  545.55   28.40
   4   6   0  498.55   26.40
   4   6   0  551.14   21.60
  -5  -6   0    3.30    4.80
   5   6   0   -4.40    3.10
   5   6   0   -3.10    3.80
  -6  -6   0   49.30    9.90
   6   6   0   55.19    9.60
   6   6   0   38.60    7.70
   3  -7   0   12.00    4.40
  -3   7   0    4.10    5.20
  -3   7   0   12.60    5.50
   2  -7   0   97.09    9.70
  -2   7   0   91.99    9.50
  -2   7   0   91.59   11.30
   1  -7   0  430.86   22.60
  -1   7   0  421.76   22.40
  -1   7   0  419.46   25.20
   0  -7   0   67.99    8.80
   0   7   0   58.59    6.90
   0   7   0   53.39    8.30
  -1  -7   0  102.69   10.90
   1   7   0  108.59    7.60
   1   7   0  103.19   10.10
  -2  -7   0  763.12   27.40
  -2  -7   0  729.53   35.40
   2   7   0  780.62   34.50
   2   7   0  770.32   27.40
  -3  -7   0   91.39   10.90
   3   7   0  100.59   10.70
  -4  -7   0  479.45   26.90
   4   7   0  412.06   24.40
  -5  -7   0   -4.20    4.80
  -6  -7   0    8.70    6.70
   6   7   0   -1.00    4.60
   3  -8   0  181.88   13.50
  -3   8   0  174.88   16.90
  -3   8   0  161.38   14.20
   2  -8   0  410.86   23.00
  -2   8   0  425.66   25.20
  -2   8   0  404.36   22.90
   1  -8   0   13.40    6.00
  -1   8   0   15.30    5.10
  -1   8   0    7.10    5.00
   0  -8   0   30.20    7.10
   0   8   0   40.00    8.10
   0   8   0   40.30    6.60
  -1  -8   0   50.29    7.00
  -1  -8   0   64.69   10.00
   1   8   0   74.59    6.30
   1   8   0   78.89    9.50
  -2  -8   0   48.20    9.10
   2   8   0   39.90    8.20
   2   8   0   54.69    3.00
  -3  -8   0   -3.00    4.00
   3   8   0   -2.70    3.90
  -5  -8   0   63.09   12.10
   5   8   0   82.69   13.00
   1  -9   0    9.30    5.30
  -1   9   0   12.40    4.60
  -1   9   0    8.20    5.70
   0  -9   0   -2.40    3.90
   0   9   0   -2.00    4.40
   0   9   0   16.00    4.00
  -1  -9   0  400.76   24.70
   1   9   0  392.26   17.80
   1   9   0  384.66   23.90
   2   9   0   49.70   11.60
  -3  -9   0  142.39   15.30
   3   9   0  170.38   15.10
  -4  -9   0   84.19   13.70
   4   9   0   88.19   13.00
  -5  -9   0   11.50    7.30
   5   9   0    0.70    6.50
   0 -10   0  153.88   14.80
  -1 -10   0  117.29   13.50
   1  10   0  125.79   13.80
  -2 -10   0   -1.10    4.70
   2  10   0    0.10    5.70
  -3 -10   0   28.00    8.90
   3  10   0   12.10    7.00
   3  10  -1   33.80    9.30
  -3 -10   1   45.00   11.00
   2  10  -1   13.10    7.50
  -2 -10   1   16.30    6.60
   1  10  -1   14.20    6.60
  -1 -10   1   31.80    7.80
   4   9  -1   31.10    8.00
  -4  -9   1   37.30    9.40
   3   9  -1   29.10    8.00
  -3  -9   1   35.50    9.20
   2   9  -1    9.10    5.90
  -2  -9   1    2.80    6.10
   1   9  -1   28.10    4.50
   1   9  -1   17.10    6.60
  -1  -9   1   21.70    7.20
   0   9  -1  147.09   11.70
   0   9  -1  148.69   13.90
   0  -9   1  137.29   13.90
  -1   9  -1  651.03   32.20
   5   8  -1  285.67   21.00
  -5  -8   1  286.07   22.00
   4   8  -1  125.79   13.50
  -4  -8   1  117.49   13.80
   3   8  -1  236.08   17.50
  -3  -8   1  268.07   19.60
   2   8  -1  600.04   30.50
  -2  -8   1  604.34   23.90
  -2  -8   1  651.73   32.80
   1   8  -1  587.24   29.40
   1   8  -1  606.04   25.70
  -1  -8   1  603.24   31.00
   0   8  -1  187.98   14.50
   0   8  -1  210.78   13.80
   0  -8   1  182.08   15.00
  -1   8  -1   94.59   10.30
  -1   8  -1   95.89   10.40
   1  -8   1   94.99   10.80
  -2   8  -1    7.20    4.80
   2  -8   1    1.10    4.00
  -3   8  -1   -3.10    4.90
  -3   8  -1    7.30    5.20
   3  -8   1   -3.80    4.00
   6   7  -1  205.98   17.50
  -6  -7   1  208.98   18.50
   5   7  -1  645.94   27.10
   5   7  -1  700.13   34.50
   4   7  -1    8.40    5.50
   4   7  -1   15.60    3.90
  -4  -7   1    6.50    4.50
   3   7  -1  103.99    5.70
   3   7  -1   90.79   10.60
   3   7  -1  101.79    5.70
  -3  -7   1   96.79   11.40
   2   7  -1   73.29    9.10
   2   7  -1   93.69    6.90
  -2  -7   1   88.09    6.30
  -2  -7   1   97.49   11.00
   1   7  -1   50.69    8.10
   1   7  -1   41.70    5.40
  -1  -7   1   35.20    5.60
  -1  -7   1   35.90    7.60
   0   7  -1    1.60    3.90
   0   7  -1    6.50    3.90
   0  -7   1   -1.80    3.50
  -1   7  -1   17.80    6.30
  -1   7  -1   14.70    5.40
   1  -7   1   15.30    5.70
  -2   7  -1  200.58   14.30
  -2   7  -1  193.98   16.20
   2  -7   1  231.58   15.40
  -3   7  -1  132.09   14.70
   3  -7   1  165.98   12.70
   6   6  -1   59.59   10.90
   6   6  -1   43.90    8.40
  -6  -6   1   50.69   10.30
   5   6  -1   16.90    5.10
   5   6  -1   19.50    6.20
  -5  -6   1   18.60    6.90
   4   6  -1   16.80    4.50
   4   6  -1   16.10    5.40
  -4  -6   1   21.80    6.50
   3   6  -1  107.49   10.30
   3   6  -1   97.39    6.20
   3   6  -1   95.89    6.50
  -3  -6   1   92.29   10.50
   2   6  -1  154.98   11.90
   2   6  -1  161.68    8.50
  -2  -6   1  159.48   12.80
  -2  -6   1  157.68    8.50
   1   6  -1  273.57   13.50
   1   6  -1  267.27   15.30
  -1  -6   1  269.57   17.00
  -1  -6   1  267.37   14.10
   0   6  -1  223.48   13.60
   0   6  -1  234.58   13.50
   0  -6   1  222.78   14.60
  -1   6  -1   49.70    7.60
  -1   6  -1   56.99    8.50
   1  -6   1   34.40    6.60
  -2   6  -1  415.16   24.00
  -2   6  -1  451.55   22.00
   2  -6   1  437.26   22.10
  -3   6  -1  105.29   10.10
  -3   6  -1  117.09   12.90
  -4   6  -1   11.40    6.10
  -4   6  -1   -4.60    3.20
   4  -6   1    0.40    3.70
   7   5  -1  226.58   19.40
  -7  -5   1  241.28   19.50
   6   5  -1  209.18   18.80
   6   5  -1  202.98   15.50
  -6  -5   1  240.58   17.90
   5   5  -1   -0.80    3.30
   5   5  -1    1.10    4.40
  -5  -5   1   -1.60    3.50
   4   5  -1  304.17   15.90
   4   5  -1  324.97   15.80
   4   5  -1  338.67   19.10
  -4  -5   1  317.17   19.40
   3   5  -1  597.34   24.80
   3   5  -1  559.04   22.80
  -3  -5   1  570.94   30.00
   2   5  -1  156.78    8.20
   2   5  -1  150.28   10.70
  -2  -5   1  149.39   11.40
  -2  -5   1  154.78    8.20
   1   5  -1  482.85   22.90
   1   5  -1  560.34   21.80
  -1  -5   1  539.55   24.70
  -1  -5   1  533.75   21.30
   0   5  -1  334.97   16.30
   0   5  -1  335.87   16.40
   0  -5   1  325.87   15.90
   0  -5   1  333.67   17.30
  -1   5  -1 1041.90   40.30
  -1   5  -1 1045.00   42.00
   1  -5   1 1016.60   40.80
  -2   5  -1   47.50    6.50
   2  -5   1   50.99    7.40
  -3   5  -1    5.80    4.50
  -3   5  -1    1.30    3.10
   3  -5   1   -0.40    3.40
  -4   5  -1  970.40   40.30
  -4   5  -1  985.80   47.20
   4  -5   1  968.60   39.60
  -5   5  -1  132.69   11.40
  -5   5  -1  118.59   15.00
   5  -5   1   97.89    9.40
   7   4  -1  130.49   14.90
   7   4  -1  118.89   14.10
   6   4  -1    1.70    4.50
   6   4  -1    1.80    4.80
  -6  -4   1   -2.40    3.40
   5   4  -1    8.30    5.10
   5   4  -1    5.00    4.70
  -5  -4   1    8.30    4.60
   4   4  -1 1009.20   39.20
   4   4  -1  941.41   40.40
  -4  -4   1  985.90   41.70
   3   4  -1  107.49    7.50
   3   4  -1   90.79    8.00
   3   4  -1  111.89    7.20
  -3  -4   1   98.69    9.00
   2   4  -1  871.41   32.00
   2   4  -1  875.01   34.50
  -2  -4   1  882.41   35.50
  -2  -4   1  869.31   32.10
   1   4  -1  506.95   22.10
   1   4  -1  539.25   20.50
  -1  -4   1  512.15   20.30
  -1  -4   1  537.55   23.20
   0   4  -1 1894.41   69.99
   0   4  -1 2014.50   69.39
   0   4  -1 2002.50   69.59
   0  -4   1 1959.70   70.29
   0  -4   1 1936.91   69.09
   0  -4   1 1994.70   69.19
  -1   4  -1  591.04   24.00
  -1   4  -1  594.94   25.80
  -1   4  -1  575.74   24.50
   1  -4   1  590.84   24.70
   1  -4   1  578.14   23.70
  -2   4  -1  984.60   41.40
  -2   4  -1  959.30   37.60
   2  -4   1 1007.50   38.30
  -3   4  -1   84.49   10.10
  -3   4  -1   64.29    7.00
   3  -4   1   74.49    7.40
  -4   4  -1  139.49   10.40
  -4   4  -1  125.49   13.60
   4  -4   1  129.79    9.90
  -5   4  -1   -1.40    5.00
  -5   4  -1   -1.30    3.40
   5  -4   1   -3.10    3.50
   7   3  -1   57.59   12.10
   7   3  -1   55.89   10.10
   7   3  -1   48.90    9.00
   6   3  -1    0.60    4.20
   6   3  -1    5.40    5.70
  -6  -3   1   -2.20    4.40
   5   3  -1   46.10    8.00
  -5  -3   1   49.80    7.90
   4   3  -1  316.67   17.30
   4   3  -1  345.57   17.90
  -4  -3   1  317.77   17.10
  -4  -3   1  305.57   17.60
   3   3  -1   25.60    5.00
   3   3  -1   24.60    4.20
   3   3  -1   26.60    4.70
  -3  -3   1   13.20    4.00
   2   3  -1  357.16   15.10
   2   3  -1  368.46   16.50
   2   3  -1  370.26   16.40
   2   3  -1  344.27   16.50
  -2  -3   1  368.56   17.00
   1   3  -1   75.69    6.40
   1   3  -1   77.49    6.00
   1   3  -1   77.69    5.10
  -1  -3   1   82.79    5.20
  -1  -3   1   85.49    6.80
  -1  -3   1   81.49    6.80
   0   3  -1  452.35   18.60
   0   3  -1  429.06   18.00
   0   3  -1  459.95   18.00
   0  -3   1  438.66   18.60
   0  -3   1  425.06   17.60
   0  -3   1  431.86   17.80
  -1   3  -1  277.97   14.30
  -1   3  -1  279.97   12.70
  -1   3  -1  272.47   13.10
   1  -3   1  293.57   13.40
   1  -3   1  270.07   13.90
   1  -3   1  280.67   12.50
  -2   3  -1    7.20    3.90
  -2   3  -1   10.20    2.90
  -2   3  -1   10.60    2.90
   2  -3   1   10.20    3.10
   2  -3   1    8.70    2.60
  -3   3  -1   32.50    8.20
  -3   3  -1   30.20    4.70
  -3   3  -1   30.20    5.00
   3  -3   1   38.60    5.60
  -4   3  -1   84.09   10.40
  -4   3  -1  100.89    8.50
   4  -3   1  117.69    8.80
  -5   3  -1   71.79    7.90
  -5   3  -1   72.89   12.80
   5  -3   1   59.29    7.60
  -6   3  -1    8.80    7.50
  -6   3  -1   15.90    5.60
   6  -3   1   -1.90    4.90
   7   2  -1   54.29   12.50
   7   2  -1   41.50    8.30
   7   2  -1   26.20    7.10
   6   2  -1  685.33   32.30
   6   2  -1  735.83   37.10
  -6  -2   1  732.73   33.60
   5   2  -1  561.84   29.00
  -5  -2   1  534.45   25.90
  -5  -2   1  562.84   26.40
   4   2  -1   93.59    9.00
  -4  -2   1   85.69    8.10
  -4  -2   1   79.79    7.80
   3   2  -1   23.40    4.40
   3   2  -1   27.80    4.80
   3   2  -1   22.50    4.80
  -3  -2   1   23.10    4.60
  -3  -2   1   24.70    4.50
   2   2  -1   56.69    4.80
   2   2  -1   67.19    5.10
   2   2  -1   53.59    5.10
   2   2  -1   54.99    4.70
  -2  -2   1   52.49    5.20
  -2  -2   1   49.30    5.00
   1   2  -1 1155.38   41.70
   1   2  -1 1215.98   41.10
   1   2  -1 1351.96   42.30
   1   2  -1 1111.29   42.00
  -1  -2   1 1128.09   42.20
  -1  -2   1 1153.98   40.90
   0   2  -1 1124.19   38.30
   0   2  -1 1141.69   38.60
   0   2  -1  961.00   37.60
   0  -2   1 1102.39   38.70
   0  -2   1 1091.29   38.10
  -1   2  -1 1228.78   43.30
  -1   2  -1 1225.98   44.80
  -1   2  -1 1234.48   42.70
   1  -2   1 1216.68   42.60
   1  -2   1 1209.48   44.50
   1  -2   1 1224.58   43.30
  -2   2  -1 4207.08  141.49
  -2   2  -1 4094.49  141.69
   2  -2   1 4303.47  141.39
  -3   2  -1 1057.49   40.30
  -3   2  -1 1118.69   40.60
  -3   2  -1 1090.69   44.80
   3  -2   1 1053.39   40.10
   3  -2   1 1126.09   40.70
  -4   2  -1   17.30    6.20
  -4   2  -1   22.70    4.60
   4  -2   1   22.40    4.50
  -5   2  -1    1.80    5.30
   5  -2   1    0.80    3.20
  -6   2  -1  102.79   13.70
  -6   2  -1  114.99   10.70
   7   1  -1   16.30    5.50
   7   1  -1   15.30    8.80
  -7  -1   1   27.80    7.40
   6   1  -1   34.40    9.20
  -6  -1   1   25.00    6.40
   5   1  -1   48.90    6.80
   5   1  -1   45.00    8.90
  -5  -1   1   42.20    7.00
   4   1  -1    1.60    3.80
  -4  -1   1    2.90    2.60
  -4  -1   1   -2.30    2.70
   3   1  -1 1121.19   44.20
   3   1  -1 1203.08   46.10
  -3  -1   1 1119.19   42.40
  -3  -1   1 1124.89   42.10
   2   1  -1   10.40    3.50
   2   1  -1    9.90    2.50
   2   1  -1   10.00    2.70
   2   1  -1   10.80    2.60
  -2  -1   1    7.80    2.60
  -2  -1   1    9.00    2.30
  -1  -1   1 5743.93  194.98
   0   1  -1  207.08    8.50
   0   1  -1  194.38    7.90
   0   1  -1  207.28    8.30
   0  -1   1  196.98    8.40
   0  -1   1  223.88    8.00
   0  -1   1  206.58    8.30
  -1   1  -1   88.49    4.90
  -1   1  -1   83.69    4.20
  -1   1  -1   80.49    5.60
   1  -1   1   82.99    4.20
   1  -1   1   82.39    4.80
   1  -1   1   91.39    5.80
   2  -1   1 4331.87  148.09
  -3   1  -1  208.18   10.40
  -3   1  -1  186.98   12.80
   3  -1   1  195.28   10.20
   3  -1   1  211.68   10.70
  -4   1  -1    2.50    4.20
  -4   1  -1   -0.50    2.60
   4  -1   1    1.50    2.50
  -5   1  -1  295.27   20.40
  -5   1  -1  290.27   16.00
   5  -1   1  298.67   16.10
  -6   1  -1  206.58   14.10
  -6   1  -1  221.18   19.00
   7   0  -1  254.77   23.30
  -7   0   1  265.87   18.50
   6   0  -1   54.89   11.70
   6   0  -1   76.79    8.00
  -6   0   1   89.79    9.80
   5   0  -1    8.40    3.40
   5   0  -1   -6.30    3.90
  -5   0   1   10.80    4.20
   4   0  -1    6.30    2.80
   4   0  -1    4.40    2.30
  -4   0   1   10.60    4.90
  -4   0   1    6.30    3.50
   3   0  -1  230.28   11.90
   3   0  -1  234.98   11.10
  -3   0   1  246.88   12.30
  -3   0   1  233.68   13.70
   2   0  -1  761.12   26.80
   2   0  -1  722.03   28.90
   2   0  -1  748.53   27.60
  -2   0   1  742.73   27.70
  -2   0   1  699.83   28.80
  -2   0   1  756.52   26.90
   1   0  -1 1982.90   69.69
  -1   0   1 1759.02   66.29
  -1   0  -1  406.96   15.30
  -1   0  -1  393.76   14.60
  -1   0  -1  389.56   14.00
   1   0   1  400.26   15.30
   1   0   1  390.26   14.70
   1   0   1  366.46   14.50
   1   0   1  396.36   14.00
  -2   0  -1  278.37   11.50
  -2   0  -1  274.37   13.20
   2   0   1  284.57   12.20
   2   0   1  256.77   13.10
   2   0   1  270.07   11.40
   2   0   1  279.87   12.10
  -3   0  -1   44.10    4.30
  -3   0  -1   41.50    6.60
   3   0   1   39.20    5.00
   3   0   1   37.70    4.10
   3   0   1   37.10    4.40
  -4   0  -1 1016.60   42.80
  -4   0  -1 1014.10   38.80
   4   0   1 1009.20   39.30
  -5   0  -1  538.75   28.50
  -5   0  -1  534.65   24.20
   5   0   1  505.55   24.00
  -6   0  -1   27.60    6.40
  -6   0  -1   22.60    7.60
   6   0   1   30.70    9.00
   6   0   1   15.90    5.50
  -7   0  -1   37.60    7.70
   7   0   1   47.40   12.90
   7   0   1   29.80    7.30
   6  -1  -1   32.00    9.50
   6  -1  -1    3.90    4.20
  -6   1   1   16.50    5.60
   5  -1  -1   94.19    7.60
  -5   1   1   96.39    9.40
  -5   1   1   92.59   10.80
   4  -1  -1   27.30    4.10
   4  -1  -1   29.20    4.50
  -4   1   1   21.40    5.20
  -4   1   1   28.30    7.10
   3  -1  -1  402.76   16.70
   3  -1  -1  416.86   16.70
  -3   1   1  401.46   20.60
  -3   1   1  404.46   18.20
   2  -1  -1   -0.30    2.60
   2  -1  -1    1.30    1.50
   2  -1  -1   -0.70    1.40
   2  -1  -1    0.20    1.80
  -2   1   1   -1.40    2.70
  -2   1   1    2.70    2.20
   1  -1  -1 1407.06   46.80
   1  -1  -1 1402.66   49.20
   1  -1  -1 1355.56   47.90
  -1   1   1 1421.86   48.10
  -1   1   1 1400.56   49.10
  -1   1   1 1375.26   46.80
   0  -1  -1 4139.59  143.79
  -1  -1  -1   39.20    3.10
  -1  -1  -1   40.90    3.00
  -1  -1  -1   36.20    2.60
   1   1   1   41.00    3.00
   1   1   1   39.50    3.10
   1   1   1   45.00    3.00
   1   1   1   43.00    2.70
  -2  -1  -1    9.90    2.60
  -2  -1  -1   10.40    2.30
  -2  -1  -1    8.70    2.60
   2   1   1    8.50    2.10
   2   1   1    9.20    2.60
   2   1   1   10.20    2.70
  -3  -1  -1  264.37   14.10
  -3  -1  -1  293.87   13.90
  -3  -1  -1  269.67   12.70
   3   1   1  254.57   13.90
   3   1   1  263.87   12.60
   3   1   1  267.07   13.10
  -4  -1  -1    3.30    3.60
  -4  -1  -1    5.40    3.00
   4   1   1    5.70    3.20
  -5  -1  -1  171.58   11.70
  -5  -1  -1  168.58   13.90
   5   1   1  178.88   12.30
  -6  -1  -1   51.59    7.80
   6   1   1   44.70    7.60
   6   1   1   61.89   11.80
   7   1   1   17.90    6.30
   7   1   1   33.30    9.80
   7   1   1   10.70    5.30
   6  -2  -1   68.19   13.90
  -6   2   1   76.49    9.00
   5  -2  -1   75.49    7.00
   5  -2  -1   87.59    9.00
  -5   2   1   93.89    9.00
  -5   2   1   89.79   12.00
   4  -2  -1   95.89    9.00
   4  -2  -1   90.29    6.70
  -4   2   1   78.09    8.10
  -4   2   1   78.29   10.20
   3  -2  -1   32.70    3.60
   3  -2  -1   36.40    3.90
  -3   2   1   40.40    5.60
  -3   2   1   36.10    7.10
   2  -2  -1   75.29    5.70
   2  -2  -1   75.09    4.90
  -2   2   1   70.99    6.00
  -2   2   1   84.49    7.30
  -2   2   1   75.79    4.80
   1  -2  -1  318.67   13.30
   1  -2  -1  318.97   12.50
   1  -2  -1  317.77   14.40
  -1   2   1  310.77   13.40
  -1   2   1  309.77   12.40
   0  -2  -1  173.48    8.00
   0  -2  -1  163.08    7.90
   0  -2  -1  169.68    7.60
   0   2   1  186.28    7.70
   0   2   1  181.88    8.20
   0   2   1  168.88    7.80
  -1  -2  -1  193.48    9.40
  -1  -2  -1  223.28   10.10
   1   2   1  221.58    7.60
   1   2   1  206.68    9.90
   1   2   1  201.88    9.40
   1   2   1  226.58    7.70
  -2  -2  -1   10.10    3.10
   2   2   1   15.70    2.90
   2   2   1   14.70    3.20
   2   2   1   17.00    3.10
   2   2   1   14.80    3.30
   2   2   1   14.10    2.80
  -3  -2  -1 1841.32   66.29
  -3  -2  -1 1877.31   67.09
  -3  -2  -1 1909.91   66.09
   3   2   1 1854.41   65.89
   3   2   1 1799.82   66.59
   3   2   1 1892.21   66.09
   3   2   1 1844.62   66.49
  -4  -2  -1  163.78   11.70
  -4  -2  -1  184.38   11.90
  -4  -2  -1  172.48   10.70
   4   2   1  162.38   11.70
   5   2   1  108.39    9.80
   5   2   1  122.79   12.00
   6   2   1  246.08   16.00
   6   2   1  244.78   16.60
   6   2   1  260.27   18.90
   7   2   1  116.79   14.00
   7   2   1  102.39   11.60
   6  -3  -1  157.08   18.20
   5  -3  -1  276.67   14.10
  -5   3   1  305.97   22.40
  -5   3   1  328.97   18.40
   4  -3  -1   14.50    3.60
   4  -3  -1   19.30    3.30
  -4   3   1   17.20    7.00
  -4   3   1   18.70    5.20
   3  -3  -1  259.57   12.40
  -3   3   1  246.18   12.00
  -3   3   1  269.57   17.60
  -3   3   1  270.77   14.30
   2  -3  -1   28.40    3.60
  -2   3   1   33.80    3.60
  -2   3   1   31.30    4.90
  -2   3   1   34.20    6.30
   1  -3  -1 2232.18   81.39
   1  -3  -1 2312.47   77.79
   1  -3  -1 2251.07   78.39
  -1   3   1 2245.38   77.69
  -1   3   1 2319.97   78.79
  -1   3   1 2228.08   79.69
   0  -3  -1   65.59    6.00
   0  -3  -1   70.29    5.40
   0  -3  -1   68.79    4.80
   0   3   1   77.39    5.70
   0   3   1   71.29    5.00
   0   3   1   74.69    5.70
   1   3   1 3420.46  116.59
  -2  -3  -1 1196.78   45.10
   2   3   1 1198.88   41.70
   2   3   1 1149.58   44.70
   2   3   1 1227.88   44.10
   2   3   1 1256.17   41.80
   2   3   1 1202.68   44.20
  -3  -3  -1  753.72   32.00
   3   3   1  771.52   30.10
   3   3   1  804.52   31.10
   3   3   1  765.12   29.70
  -4  -3  -1  209.28   14.00
   4   3   1  229.88   13.60
   4   3   1  240.38   13.60
  -5  -3  -1  204.58   14.50
   5   3   1  202.38   14.40
   5   3   1  187.18   13.20
   6   3   1  792.62   37.30
   6   3   1  763.42   35.70
   6   3   1  721.83   34.30
   7   3   1   -9.00    3.90
   5  -4  -1  215.28   11.40
  -5   4   1  247.08   15.80
  -5   4   1  220.28   19.80
   4  -4  -1  109.89    7.50
   4  -4  -1  103.59    7.70
  -4   4   1  109.29   12.80
  -4   4   1  103.29    9.90
   3  -4  -1 1220.88   44.20
  -3   4   1 1172.68   46.30
  -3   4   1 1158.18   43.90
  -3   4   1 1212.78   50.69
   2  -4  -1 1235.28   44.50
  -2   4   1 1203.58   48.40
  -2   4   1 1159.58   44.20
  -2   4   1 1232.78   46.00
   1  -4  -1  315.97   14.60
   1  -4  -1  297.47   15.50
  -1   4   1  319.67   15.40
  -1   4   1  325.87   16.10
  -1   4   1  302.67   14.40
   0  -4  -1    4.50    2.70
   0  -4  -1    1.90    2.30
   0  -4  -1    4.40    2.30
   0   4   1    4.20    2.60
   0   4   1    3.30    2.60
   0   4   1    3.90    2.30
  -1  -4  -1  607.34   21.60
  -1  -4  -1  606.14   25.30
   1   4   1  613.34   25.00
   1   4   1  594.34   24.60
   1   4   1  583.44   21.50
  -2  -4  -1  382.86   18.30
   2   4   1  345.27   17.10
   2   4   1  377.16   13.60
   2   4   1  367.06   13.50
  -3  -4  -1    5.90    3.30
   3   4   1    7.00    2.20
   3   4   1   12.80    4.10
   3   4   1    3.60    2.20
  -4  -4  -1   21.40    5.80
   4   4   1   41.40    6.90
   4   4   1   40.60    4.70
   4   4   1   40.20    6.00
  -5  -4  -1   82.29   10.00
   5   4   1   87.19    9.50
   5   4   1   84.09    8.80
  -6  -4  -1  259.47   18.70
   6   4   1  266.07   17.80
   6   4   1  279.07   18.20
   7   4   1   -8.20    4.70
   7   4   1   -7.90    4.60
   7   4   1    2.80    6.20
  -5   5   1    1.90    4.60
  -5   5   1    4.00    5.80
   4  -5  -1  257.07   13.50
  -4   5   1  269.07   16.80
  -4   5   1  263.97   20.30
   3  -5  -1  226.38   12.60
  -3   5   1  234.38   14.90
  -3   5   1  225.88   17.30
   2  -5  -1  811.52   32.10
  -2   5   1  805.42   33.40
  -2   5   1  776.92   35.60
   1  -5  -1  158.48   10.50
  -1   5   1  157.08   11.20
  -1   5   1  184.68   11.40
   0  -5  -1   34.00    5.70
   0  -5  -1   36.70    5.70
   0   5   1   37.60    5.60
   0   5   1   35.50    5.20
  -1  -5  -1  525.25   19.60
  -1  -5  -1  506.55   23.40
   1   5   1  525.75   19.60
   1   5   1  490.55   22.70
  -2  -5  -1 1483.45   55.99
   2   5   1 1452.05   48.60
   2   5   1 1423.46   54.59
  -3  -5  -1  224.08   14.70
   3   5   1  212.38    9.40
   3   5   1  218.48   13.60
   3   5   1  211.88    9.50
  -4  -5  -1  907.31   40.30
   4   5   1  929.71   35.90
   4   5   1  921.21   38.70
   4   5   1  898.11   34.70
  -5  -5  -1  331.17   20.30
   5   5   1  278.87   15.90
   5   5   1  309.07   18.80
  -6  -5  -1   66.99   11.20
   6   5   1   57.29   10.30
   6   5   1   69.49   10.00
  -7  -5  -1   11.50    5.90
   7   5   1  -12.70    4.70
   7   5   1   -4.50    4.40
   7   5   1   -5.20    4.70
  -4   6   1   17.80    7.50
  -4   6   1   11.60    5.20
   3  -6  -1   88.29    8.00
  -3   6   1   83.99   11.30
  -3   6   1   74.29    9.20
   2  -6  -1   51.29    6.70
  -2   6   1   53.79    9.10
  -2   6   1   62.79    8.80
   1  -6  -1  140.79   10.50
  -1   6   1  133.69   12.90
  -1   6   1  107.49    9.60
   0  -6  -1 1532.75   57.79
   0  -6  -1 1641.94   60.49
   0   6   1 1574.04   58.19
   0   6   1 1604.14   59.99
  -1  -6  -1  908.91   34.00
  -1  -6  -1  949.01   39.20
   1   6   1  923.71   38.10
   1   6   1  941.71   34.10
  -2  -6  -1   67.89   11.30
   2   6   1   86.79    8.70
  -3  -6  -1  223.98   15.80
   3   6   1  231.68   15.20
  -4  -6  -1  139.39   13.10
   4   6   1  152.98   12.70
   4   6   1  153.08    7.30
   4   6   1  115.09    7.20
  -5  -6  -1    3.90    5.20
   5   6   1    2.60    4.40
   5   6   1   -5.30    2.80
  -6  -6  -1    7.40    5.20
   6   6   1   -7.50    3.50
   6   6   1   -1.30    3.90
  -3   7   1   40.00    7.50
  -3   7   1   42.70   10.00
   2  -7  -1  159.48   13.50
  -2   7   1  136.19   11.90
  -2   7   1  155.58   14.00
   1  -7  -1  121.79   10.50
  -1   7   1  113.89   10.60
  -1   7   1  115.19   10.70
   0  -7  -1   64.39    8.40
   0   7   1   48.20    6.30
   0   7   1   73.29    8.70
  -1  -7  -1  206.98   10.90
  -1  -7  -1  230.08   15.60
   1   7   1  204.48   14.40
  -2  -7  -1  280.07   18.30
   2   7   1  272.67   16.90
  -3  -7  -1  345.07   21.50
   3   7   1  339.37   20.00
  -4  -7  -1  104.39   12.30
   4   7   1  108.09   11.10
  -5  -7  -1   58.39   12.30
   5   7   1   66.49   10.80
   5   7   1   53.99    3.50
  -6  -7  -1   18.90    7.40
   6   7   1    1.70    5.10
  -3   8   1  112.09   13.10
   2  -8  -1  146.99   12.70
  -2   8   1  148.39   13.50
  -2   8   1  142.39   13.40
   1  -8  -1   83.29   10.50
  -1   8   1   92.49   10.40
  -1   8   1  103.29   10.70
   0  -8  -1   57.99    9.60
   0   8   1   53.89    9.30
   0   8   1   52.09    6.80
  -1  -8  -1    0.80    4.10
   1   8   1    4.90    2.40
   1   8   1    0.40    4.00
  -2  -8  -1  453.05   26.20
   2   8   1  485.25   25.60
  -3  -8  -1  405.36   25.00
   3   8   1  439.46   24.60
  -4  -8  -1  196.98   19.60
  -5  -8  -1  531.35   31.40
   5   8   1  497.85   29.20
   1  -9  -1    4.00    4.10
  -1   9   1    1.50    4.80
   0  -9  -1    2.40    4.50
   0   9   1    9.20    3.40
  -1  -9  -1  395.66   24.80
   1   9   1  415.76   27.30
  -2  -9  -1  187.18   16.80
  -3  -9  -1   54.39   10.50
   3   9   1   58.39   10.70
  -4  -9  -1    9.30    5.40
   4   9   1   -2.70    5.20
  -5  -9  -1   62.79   12.60
   5   9   1   71.29   12.80
   0 -10  -1   11.20    5.80
   0  10   1   10.80    6.60
  -1 -10  -1  156.68   15.20
   1  10   1  139.89   14.80
  -2 -10  -1   18.90    7.30
   2  10   1   28.20    8.40
  -3 -10  -1   46.30   10.60
   3  10   1   39.60   10.10
  -3 -10   2   60.49   12.30
   2  10  -2  146.99   15.50
  -2 -10   2  114.49   14.90
   1  10  -2    5.70    5.80
  -1 -10   2    3.90    5.60
   4   9  -2  113.29   13.10
  -4  -9   2  105.59   13.80
   3   9  -2  376.76   24.40
  -3  -9   2  432.06   27.30
   2   9  -2   66.19   10.90
   2   9  -2  101.19    7.30
  -2  -9   2   61.99   11.60
   1   9  -2   40.40    8.90
  -1  -9   2   56.99   12.40
   0   9  -2   28.00    7.50
   0   9  -2   32.60    6.10
  -1   9  -2   61.49    8.00
   1  -9   2   38.20    9.60
   5   8  -2    0.80    5.40
  -5  -8   2    6.90    5.60
   4   8  -2  150.58   14.70
  -4  -8   2  136.79   14.70
   3   8  -2  103.29    5.80
   3   8  -2   69.19   10.90
  -3  -8   2  107.59   12.80
   2   8  -2   90.59   10.80
   2   8  -2  124.39    7.80
  -2  -8   2   90.79   11.50
   1   8  -2   11.50    3.80
   1   8  -2   11.50    5.40
  -1  -8   2    7.90    5.20
   0   8  -2  212.98   14.40
   0   8  -2  199.18   14.80
   0  -8   2  211.78   16.30
  -1   8  -2  251.47   16.80
  -1   8  -2  266.47   17.80
   1  -8   2  229.98   17.50
  -2   8  -2   18.10    5.60
  -2   8  -2    2.70    4.00
   2  -8   2   -1.60    3.60
   6   7  -2    0.40    5.90
  -6  -7   2    1.60    4.50
   5   7  -2  264.07   18.80
   5   7  -2  237.38   13.90
  -5  -7   2  204.48   21.00
   4   7  -2  205.08   16.80
   4   7  -2  278.37   13.90
   4   7  -2  261.57   13.00
  -4  -7   2  282.97   19.70
   3   7  -2   66.69    5.80
   3   7  -2   62.99    9.90
  -3  -7   2   54.49    9.60
   2   7  -2  210.48   11.00
   2   7  -2  157.08   13.10
  -2  -7   2  199.38   15.60
   1   7  -2  575.44   27.10
   1   7  -2  546.75   24.40
  -1  -7   2  550.44   28.50
   0   7  -2  251.17   15.60
   0   7  -2  281.97   16.60
   0  -7   2  248.58   17.40
  -1   7  -2    2.40    3.90
  -1   7  -2    1.60    3.80
   1  -7   2   -0.20    3.80
  -2   7  -2   63.99    9.20
  -2   7  -2   62.09   10.70
   2  -7   2   51.49    8.40
  -3   7  -2   46.90    7.80
   3  -7   2   64.69    9.70
   6   6  -2   52.69    9.70
   6   6  -2   73.19   12.20
  -6  -6   2   70.39   11.90
   5   6  -2  211.98   13.90
   5   6  -2  200.88   16.20
  -5  -6   2  222.78   17.50
   4   6  -2  128.89   12.00
   4   6  -2  143.79    9.60
   4   6  -2  129.79    9.80
  -4  -6   2  114.09   12.00
   3   6  -2  305.07   14.40
   3   6  -2  284.87   17.60
  -3  -6   2  298.97   19.00
   2   6  -2  204.48   13.30
   2   6  -2  203.48   10.70
  -2  -6   2  188.68   10.60
  -2  -6   2  191.78   14.40
   1   6  -2    2.70    2.70
   1   6  -2    2.50    3.70
  -1  -6   2   -0.80    3.40
  -1  -6   2   -3.70    2.60
   0   6  -2  971.20   39.10
   0   6  -2  961.40   38.80
   0  -6   2  958.00   43.90
  -1   6  -2  301.47   18.00
  -1   6  -2  270.47   15.60
   1  -6   2  272.87   19.10
  -2   6  -2  489.75   25.00
  -2   6  -2  482.25   26.40
   2  -6   2  473.45   23.90
  -3   6  -2  552.34   25.30
  -3   6  -2  505.65   29.30
   3  -6   2  498.45   25.30
  -4   6  -2   53.89   11.40
  -4   6  -2   36.20    6.60
   4  -6   2   43.90    7.40
   6   5  -2   25.60    6.90
   6   5  -2   33.00    8.40
  -6  -5   2   29.30    8.00
   5   5  -2    4.20    5.00
   5   5  -2    1.30    4.20
  -5  -5   2    4.90    4.80
   4   5  -2   43.70    8.20
   4   5  -2   51.09    6.80
  -4  -5   2   47.30    8.60
   3   5  -2   23.00    4.80
   3   5  -2   23.00    5.70
   3   5  -2   23.20    4.70
   2   5  -2  622.24   24.80
   2   5  -2  557.24   25.60
  -2  -5   2  569.24   27.10
  -2  -5   2  574.44   23.30
   1   5  -2  110.19    8.20
   1   5  -2  102.59    7.30
  -1  -5   2   98.79    7.20
  -1  -5   2  104.49    8.90
   0   5  -2  203.18   11.60
   0   5  -2  179.58   11.40
   0  -5   2  197.38   12.50
   0  -5   2  171.68   11.00
  -1   5  -2  651.73   29.40
  -1   5  -2  631.94   27.20
   1  -5   2  668.13   28.70
  -2   5  -2 1122.79   48.00
   2  -5   2 1132.59   44.90
  -3   5  -2  272.87   15.20
  -3   5  -2  274.97   19.40
   3  -5   2  270.17   16.10
  -4   5  -2  327.77   23.40
  -4   5  -2  348.17   18.50
   4  -5   2  345.37   20.80
  -5   5  -2   60.69    8.30
  -5   5  -2   70.39   13.20
   5  -5   2   65.99    8.60
   7   4  -2  366.76   24.50
   7   4  -2  410.86   29.40
   6   4  -2  172.68   14.90
   6   4  -2  162.98   14.30
  -6  -4   2  168.48   14.40
   5   4  -2   84.49    9.90
   5   4  -2   57.79    9.10
  -5  -4   2   60.89    9.10
   4   4  -2  882.81   38.30
   4   4  -2  880.01   36.90
  -4  -4   2  963.80   39.60
   3   4  -2  706.83   28.00
   3   4  -2  682.83   29.60
   3   4  -2  669.73   27.50
  -3  -4   2  685.03   30.20
   2   4  -2  510.05   20.90
   2   4  -2  550.94   23.00
  -2  -4   2  498.85   23.30
  -2  -4   2  486.65   20.60
   1   4  -2   -0.20    2.30
   1   4  -2    1.20    2.50
  -1  -4   2    1.80    2.10
  -1  -4   2    0.60    2.60
   0   4  -2 1129.09   40.90
   0   4  -2 1097.39   41.30
   0  -4   2 1087.19   42.00
   0  -4   2 1078.59   40.50
  -1   4  -2   10.30    4.20
  -1   4  -2    4.40    2.90
   1  -4   2   10.90    3.80
   1  -4   2    7.90    3.00
  -2   4  -2  246.78   15.90
  -2   4  -2  234.48   12.40
   2  -4   2  240.88   13.60
  -3   4  -2  183.38   11.20
  -3   4  -2  172.48   14.50
   3  -4   2  181.58   11.90
  -4   4  -2  291.47   20.90
  -4   4  -2  299.47   15.90
   4  -4   2  279.97   16.20
  -5   4  -2  217.18   13.50
  -5   4  -2  193.68   18.10
   7   3  -2  337.37   23.00
   7   3  -2  342.17   21.40
   7   3  -2  366.16   25.00
   6   3  -2    0.60    4.00
   6   3  -2    5.90    5.90
  -6  -3   2   11.50    4.90
   5   3  -2   22.80    6.20
   5   3  -2   30.40    7.00
  -5  -3   2   20.90    6.30
  -5  -3   2   31.30    7.80
   4   3  -2  509.75   23.90
  -4  -3   2  472.85   25.50
  -4  -3   2  489.85   23.60
   3   3  -2   53.99    5.60
   3   3  -2   71.09    6.50
   3   3  -2   52.39    6.30
  -3  -3   2   61.99    6.60
  -3  -3   2   62.19    6.50
   2   3  -2  122.19    8.50
   2   3  -2  153.28    8.50
   2   3  -2  127.29    8.80
  -2  -3   2  149.29    9.50
  -2  -3   2  146.39    8.30
   1   3  -2   10.40    2.60
   1   3  -2   17.70    3.60
   1   3  -2   11.60    3.10
   1   3  -2    7.90    3.30
  -1  -3   2    6.90    2.70
  -1  -3   2    8.10    3.00
  -1  -3   2   11.60    3.20
   0   3  -2  825.22   28.80
   0   3  -2  752.72   29.70
   0   3  -2  740.23   29.20
   0  -3   2  770.92   29.20
   0  -3   2  761.62   29.80
   0  -3   2  753.42   28.50
  -1   3  -2 2264.07   75.09
  -1   3  -2 2176.68   76.19
  -1   3  -2 2196.08   77.59
   1  -3   2 2143.79   76.29
   1  -3   2 2149.78   74.69
   1  -3   2 2126.09   77.19
  -2   3  -2  204.88   11.50
  -2   3  -2  227.68   14.10
  -2   3  -2  215.88   10.90
   2  -3   2  233.68   12.10
   2  -3   2  237.58   11.90
  -3   3  -2  462.95   20.10
   3  -3   2  472.05   21.20
  -4   3  -2  271.57   19.80
  -4   3  -2  338.57   15.90
   4  -3   2  290.57   16.10
  -5   3  -2  164.38   16.40
   5  -3   2  141.79   11.50
  -6   3  -2    2.90    4.30
  -6   3  -2   -7.50    4.80
   7   2  -2    5.90    5.20
   7   2  -2   10.80    8.10
   7   2  -2    8.40    5.30
  -7  -2   2   13.20    5.50
   6   2  -2    9.70    6.70
   6   2  -2    8.80    4.10
  -6  -2   2   11.50    5.30
   5   2  -2   63.59   10.40
  -5  -2   2   67.29    8.20
  -5  -2   2   57.09    7.50
   4   2  -2  398.06   21.20
  -4  -2   2  386.26   19.70
  -4  -2   2  418.76   19.60
   3   2  -2  640.24   26.80
   3   2  -2  602.04   26.10
   3   2  -2  611.04   25.40
  -3  -2   2  631.54   25.90
  -3  -2   2  632.64   26.10
   2   2  -2    2.60    2.40
   2   2  -2    5.30    3.30
   2   2  -2    1.70    2.20
  -2  -2   2    3.20    2.20
  -2  -2   2    3.40    2.40
  -2  -2   2    6.50    2.80
   1   2  -2 7700.03  265.57
  -1  -2   2 7542.05  265.27
   0  -2   2 2778.92   93.49
  -1   2  -2    9.90    3.50
  -1   2  -2   11.10    2.20
  -1   2  -2   13.10    3.00
   1  -2   2   10.60    3.30
   1  -2   2   11.10    2.10
   1  -2   2    8.70    3.30
  -2   2  -2    4.50    2.10
  -2   2  -2    3.90    3.50
  -2   2  -2    7.40    2.60
   2  -2   2    4.80    1.80
   2  -2   2    9.60    2.90
  -3   2  -2    0.50    3.30
  -3   2  -2    3.00    2.30
  -3   2  -2    4.80    2.20
   3  -2   2    7.90    3.10
   3  -2   2    1.70    2.00
  -4   2  -2   34.80    8.30
  -4   2  -2   34.80    5.20
   4  -2   2   35.50    6.10
  -5   2  -2    9.40    3.60
  -5   2  -2   13.00    6.50
   5  -2   2    2.80    4.20
  -6   2  -2   11.10    4.40
  -6   2  -2   19.70    8.80
   6  -2   2    6.50    5.60
   7   1  -2    8.60    4.70
   7   1  -2    4.00    7.30
  -7  -1   2   14.90    6.80
   6   1  -2  151.68   11.60
   6   1  -2  174.28   16.40
  -6  -1   2  144.19   13.10
   5   1  -2  914.11   37.40
   5   1  -2  967.70   43.50
  -5  -1   2  932.41   39.40
   4   1  -2   70.79    6.20
   4   1  -2   66.89    8.60
  -4  -1   2   75.09    7.40
  -4  -1   2   65.19    6.40
   3   1  -2  696.43   29.50
   3   1  -2  688.03   26.60
  -3  -1   2  671.83   27.60
  -3  -1   2  676.03   26.70
   2   1  -2   45.40    4.70
   2   1  -2   40.90    4.90
   2   1  -2   34.10    4.10
   2   1  -2   29.30    3.60
  -2  -1   2   39.20    4.00
  -2  -1   2   39.90    4.30
   1   1  -2 6574.34  228.58
  -1  -1   2 6803.42  233.28
   0   1  -2  277.97   10.30
   0   1  -2  278.87   10.30
   0   1  -2  276.87   11.30
   0   1  -2  262.27   11.10
   0  -1   2  285.87   11.20
   0  -1   2  280.47   11.30
  -1   1  -2 1237.68   43.30
  -1   1  -2 1195.78   40.60
  -1   1  -2 1081.29   41.90
   1  -1   2 1239.38   43.20
   1  -1   2 1221.78   42.30
   1  -1   2 1240.28   40.60
  -2   1  -2   80.99    5.60
  -2   1  -2   74.79    7.20
  -2   1  -2   75.39    4.70
   2  -1   2   76.89    4.60
   2  -1   2   67.99    6.70
  -3   1  -2  298.57   16.80
  -3   1  -2  306.87   13.10
   3  -1   2  296.67   14.30
   3  -1   2  281.87   14.00
   3  -1   2  275.57   12.80
  -4   1  -2  898.71   40.30
  -4   1  -2  941.01   35.40
   4  -1   2  906.01   36.40
  -5   1  -2    1.30    4.50
  -5   1  -2    3.40    2.90
   5  -1   2    7.40    3.90
  -6   1  -2  537.15   25.10
  -6   1  -2  527.35   31.90
   6  -1   2  506.75   25.40
   6   0  -2  124.39   15.20
   6   0  -2  130.29    9.90
  -6   0   2  143.79   12.50
   5   0  -2   81.49   12.90
   5   0  -2   91.29    7.60
  -5   0   2   97.69    9.20
   4   0  -2   -1.50    4.00
   4   0  -2   -1.30    1.80
   4   0  -2    2.50    2.40
  -4   0   2    3.80    2.80
   3   0  -2 2739.63   84.79
   3   0  -2 2346.27   84.29
   3   0  -2 2420.36   89.09
  -3   0   2 2461.15   88.69
  -3   0   2 2361.56   86.19
   2   0  -2   19.70    2.60
   2   0  -2   15.10    3.10
   2   0  -2   26.00    4.80
  -2   0   2   18.90    3.50
  -2   0   2   18.40    2.60
  -2   0   2   17.60    3.80
   1   0  -2 2300.17   81.79
  -1   0   2 2179.68   81.29
   0   0  -2    0.20    0.50
   0   0  -2    0.10    0.40
   0   0   2    0.20    0.50
   0   0   2   -0.50    0.40
   0   0   2    0.10    0.30
  -1   0  -2  843.72   30.40
  -1   0  -2  818.72   28.90
  -1   0  -2  850.21   30.90
   1   0   2  865.01   30.80
   1   0   2  943.01   30.70
   1   0   2  844.32   28.90
  -2   0  -2 6456.15  217.28
   2   0   2 6266.57  217.28
  -3   0  -2   90.79    6.00
  -3   0  -2   85.09    7.90
   3   0   2   90.29    5.90
   3   0   2   91.49    6.70
   3   0   2   79.99    6.40
  -4   0  -2    1.90    3.50
  -4   0  -2    1.20    2.60
   4   0   2   -1.80    2.50
  -5   0  -2   78.59    7.60
  -5   0  -2   90.09   10.70
   5   0   2   73.19    8.00
  -6   0  -2  131.89   10.60
  -6   0  -2  139.19   14.10
   6   0   2  110.09   10.90
  -7   0  -2   11.70    5.90
   7   0   2    4.80    5.50
   7   0   2   35.40   10.60
   6  -1  -2   -5.60    3.10
   6  -1  -2    2.00    5.80
  -6   1   2    9.60    5.60
   5  -1  -2   -2.00    5.10
   5  -1  -2   -2.80    2.20
  -5   1   2    1.70    3.50
   4  -1  -2  516.65   21.00
   4  -1  -2  523.15   21.10
  -4   1   2  524.35   23.90
  -4   1   2  537.55   27.40
   3  -1  -2 2063.89   70.89
   3  -1  -2 2102.39   70.89
  -3   1   2 2028.90   76.39
  -3   1   2 2085.89   73.69
   2  -1  -2 1829.52   62.59
   2  -1  -2 1978.60   62.69
   2  -1  -2 1798.02   66.79
   2  -1  -2 1842.62   65.09
  -2   1   2 1849.61   66.89
  -2   1   2 1844.12   65.09
   1  -1  -2 1210.48   43.50
   1  -1  -2 1203.18   42.60
   1  -1  -2 1203.58   40.40
  -1   1   2 1211.18   42.70
  -1   1   2 1262.87   43.70
  -1   1   2 1223.18   40.40
  -1  -1  -2   10.30    1.80
  -1  -1  -2   10.10    2.30
  -1  -1  -2   12.80    1.90
   1   1   2   12.30    1.80
   1   1   2   14.70    1.90
   1   1   2   12.10    2.30
  -2  -1  -2 1332.77   49.40
  -2  -1  -2 1336.37   46.50
  -2  -1  -2 1310.27   47.60
   2   1   2 1320.17   47.60
   2   1   2 1354.56   47.90
   2   1   2 1367.46   46.60
  -3  -1  -2   14.80    2.90
  -3  -1  -2   15.90    4.10
   3   1   2   14.50    3.40
   3   1   2   16.40    3.90
   3   1   2   14.10    3.50
   3   1   2   13.20    3.30
  -4  -1  -2  488.75   21.30
  -4  -1  -2  480.35   23.90
   4   1   2  501.35   22.60
  -5  -1  -2  684.93   32.30
  -5  -1  -2  640.24   28.20
   5   1   2  652.83   29.90
  -6  -1  -2  171.78   15.50
  -6  -1  -2  168.88   12.40
   6   1   2  148.19   15.10
   6   1   2  178.18   13.40
   7   1   2   -3.00    3.40
   7   1   2    8.80    6.30
   7   1   2   -5.00    3.80
   6  -2  -2    7.80    7.70
  -6   2   2    5.70    4.60
   5  -2  -2   45.10   10.90
   5  -2  -2   45.10    5.10
  -5   2   2   57.59    8.60
  -5   2   2   43.40   10.30
   4  -2  -2   97.29    6.30
  -4   2   2  113.59   11.80
  -4   2   2  101.49    8.90
   3  -2  -2   16.80    2.80
   3  -2  -2   20.40    2.90
  -3   2   2   23.80    6.10
  -3   2   2   18.30    4.20
   2  -2  -2  211.48    8.90
   2  -2  -2  209.98   10.90
  -2   2   2  217.08    8.80
  -2   2   2  205.68   12.30
  -2   2   2  205.88   11.00
   1  -2  -2   13.40    2.00
   1  -2  -2   18.00    3.60
   1  -2  -2   19.40    3.30
  -1   2   2   10.60    2.80
  -1   2   2   17.30    2.20
  -1   2   2   15.20    3.90
   0  -2  -2  759.52   27.40
   0  -2  -2  781.72   28.00
   0  -2  -2  765.82   27.60
   0   2   2  756.82   27.50
   0   2   2  783.02   28.20
   0   2   2  793.02   27.40
  -1  -2  -2  662.73   26.80
  -1  -2  -2  746.33   26.40
   1   2   2  725.23   27.00
   1   2   2  762.72   26.60
  -2  -2  -2   27.30    3.10
  -2  -2  -2   32.80    4.80
   2   2   2   30.40    3.70
   2   2   2   29.60    3.40
   2   2   2   29.00    4.90
   2   2   2   27.70    3.40
  -3  -2  -2   59.79    5.90
  -3  -2  -2   58.09    5.80
   3   2   2   68.59    5.70
   3   2   2   68.69    5.50
  -4  -2  -2   66.59    7.40
  -4  -2  -2   84.29    8.30
   4   2   2   77.49    7.10
  -5  -2  -2   35.10    8.80
   5   2   2   44.40    6.90
   5   2   2   43.10    8.50
   6   2   2   94.59   10.80
   6   2   2  107.89   12.00
   6   2   2  113.39   10.50
   7   2   2   -6.10    4.30
   7   2   2   -6.50    5.30
   7   2   2    5.40    4.20
   6  -3  -2    3.20    7.20
  -6   3   2    0.10    4.40
   5  -3  -2  133.99   15.70
  -5   3   2  134.89   11.80
  -5   3   2  131.49   15.10
   4  -3  -2  505.85   20.40
  -4   3   2  515.25   28.60
  -4   3   2  527.65   24.90
   3  -3  -2 1570.54   55.59
  -3   3   2 1624.54   59.49
   2  -3  -2  854.41   30.60
  -2   3   2  837.32   33.10
  -2   3   2  817.72   34.90
  -2   3   2  848.72   30.50
   1  -3  -2 2206.88   72.99
   1  -3  -2 2012.40   74.09
   1  -3  -2 2169.88   75.59
  -1   3   2 2041.80   72.69
  -1   3   2 2145.79   74.59
  -1   3   2 2201.48   75.39
   0  -3  -2 1451.75   50.49
   0  -3  -2 1424.06   50.99
   0   3   2 1449.15   51.49
   0   3   2 1466.35   50.49
   0   3   2 1452.15   50.89
  -1  -3  -2    6.50    2.50
   1   3   2    9.00    2.60
   1   3   2    5.00    2.20
  -2  -3  -2  749.33   29.40
  -2  -3  -2  761.02   30.60
   2   3   2  765.72   26.80
   2   3   2  789.52   26.90
   2   3   2  780.22   29.60
   2   3   2  746.43   30.20
  -3  -3  -2  875.51   37.00
   3   3   2  947.61   36.10
   3   3   2  952.20   35.10
   3   3   2  934.81   34.70
  -4  -3  -2   91.09    9.20
   4   3   2   97.79    8.40
   4   3   2  117.59    9.00
  -5  -3  -2    9.70    4.70
   5   3   2    9.70    4.10
   5   3   2    9.70    4.70
   6   3   2  306.27   20.60
   6   3   2  308.97   18.60
   6   3   2  295.07   19.30
   7   3   2    4.90    5.90
   7   3   2   -6.70    4.30
   7   3   2   -1.30    4.90
   5  -4  -2 1094.29   53.49
  -5   4   2 1065.69   45.50
  -5   4   2 1077.69   52.29
   4  -4  -2   10.50    2.10
   4  -4  -2    6.70    2.90
  -4   4   2    0.90    3.70
  -4   4   2    4.00    5.40
   3  -4  -2   58.49    5.10
  -3   4   2   47.70    9.10
  -3   4   2   64.99    8.30
  -3   4   2   40.70    4.50
   2  -4  -2  296.37   13.80
  -2   4   2  290.17   13.70
  -2   4   2  317.47   16.20
  -2   4   2  331.67   18.10
   1  -4  -2  138.79    9.30
   1  -4  -2  132.59    8.00
  -1   4   2  126.49    7.90
  -1   4   2  126.79    8.90
  -1   4   2  139.19    9.30
   0  -4  -2 1079.59   40.50
   0  -4  -2 1071.49   39.30
   0   4   2 1075.19   40.30
   0   4   2 1111.99   39.50
   0   4   2 1082.69   40.70
  -1  -4  -2   55.59    3.20
  -1  -4  -2   53.49    5.80
   1   4   2   49.70    2.80
   1   4   2   42.40    4.80
   1   4   2   41.30    5.10
  -2  -4  -2 1132.19   44.90
   2   4   2 1210.78   44.30
  -3  -4  -2 2373.36   86.79
   3   4   2 2443.46   81.59
   3   4   2 2348.17   84.99
   3   4   2 2397.86   81.59
   4   4   2  133.19    8.70
   4   4   2  119.79    8.70
   4   4   2  141.49   10.60
  -5  -4  -2  338.47   20.70
   5   4   2  366.36   19.70
   5   4   2  331.37   18.80
  -6  -4  -2  348.37   21.90
   6   4   2  324.97   20.40
   6   4   2  337.77   20.30
   7   4   2   35.50    8.70
   7   4   2   15.70    7.00
   7   4   2   30.90    8.60
   5  -5  -2    7.50    7.10
  -5   5   2    2.80    6.00
  -5   5   2   10.30    5.10
   4  -5  -2   80.19    6.00
  -4   5   2   82.49    9.00
  -4   5   2   79.49   11.10
   3  -5  -2  135.29    8.50
  -3   5   2  134.09   13.20
  -3   5   2  138.29   11.10
  -3   5   2  120.69    8.60
   2  -5  -2   12.60    3.60
  -2   5   2   14.60    3.70
  -2   5   2   13.50    5.10
  -2   5   2   21.50    5.40
   1  -5  -2  165.78   10.10
  -1   5   2  187.38   11.70
  -1   5   2  137.99   10.90
  -1   5   2  160.58   11.30
   0  -5  -2   30.50    3.90
   0  -5  -2   29.60    5.00
   0   5   2   19.60    4.80
   0   5   2   31.50    4.60
  -1  -5  -2  205.28    9.00
  -1  -5  -2  217.58   12.90
   1   5   2  224.18   12.60
   1   5   2  208.78    8.90
  -2  -5  -2  103.59    8.80
   2   5   2  103.99    8.20
  -3  -5  -2    4.80    3.90
   3   5   2    4.80    3.20
   3   5   2    3.30    1.30
  -4  -5  -2   54.99    9.00
   4   5   2   59.99    4.90
   4   5   2   58.59    8.50
  -5  -5  -2  223.68   17.20
   5   5   2  268.17   16.80
   5   5   2  247.18   14.10
  -6  -5  -2   67.29   11.30
   6   5   2   66.39    9.50
   7   5   2   -7.90    4.70
   7   5   2   -5.70    4.20
  -4   6   2   35.80    9.30
  -4   6   2   29.70    6.90
   3  -6  -2  330.37   16.20
  -3   6   2  297.87   20.90
  -3   6   2  320.97   19.20
   2  -6  -2   17.10    4.50
  -2   6   2   15.80    5.20
  -2   6   2   22.90    7.00
   1  -6  -2   17.00    4.70
  -1   6   2   21.80    5.70
  -1   6   2   22.50    5.60
   0  -6  -2    4.00    3.60
   0  -6  -2    9.90    3.40
   0   6   2    9.40    3.60
   0   6   2    6.70    4.70
  -1  -6  -2  451.75   22.60
  -1  -6  -2  439.66   17.60
   1   6   2  461.45   22.40
   1   6   2  455.05   17.70
   2   6   2  223.98   14.20
  -3  -6  -2  136.29   12.10
   3   6   2  133.29   11.40
  -4  -6  -2  588.04   30.10
   4   6   2  567.54   20.40
   4   6   2  577.64   28.30
  -5  -6  -2  445.96   25.70
   5   6   2  382.36   22.80
   5   6   2  422.56   18.40
  -6  -6  -2   63.19   11.10
   6   6   2   68.59    8.20
   3  -7  -2   26.70    5.20
  -3   7   2   18.30    6.40
  -3   7   2   19.80    6.80
   2  -7  -2   23.80    5.50
  -2   7   2   45.60    8.10
  -2   7   2   39.30    8.70
   1  -7  -2  113.99   10.40
  -1   7   2  120.69   10.70
  -1   7   2  124.79   11.30
   0  -7  -2  336.97   19.10
   0   7   2  319.17   19.00
   0   7   2  338.57   17.00
  -1  -7  -2  984.90   40.90
  -1  -7  -2  910.71   34.20
   1   7   2  906.61   34.00
   1   7   2  955.40   39.90
  -2  -7  -2   43.50    8.50
   2   7   2   50.19    8.40
  -3  -7  -2   54.39    9.20
   3   7   2   66.89    8.10
  -4  -7  -2  525.35   28.90
   4   7   2  492.05   26.80
  -5  -7  -2  112.19   12.90
   5   7   2  107.09   11.30
  -6  -7  -2   13.30    5.50
   6   7   2    9.30    5.70
  -3   8   2   11.20    6.20
  -3   8   2    8.90    5.80
   2  -8  -2  505.95   25.00
  -2   8   2  474.65   27.00
  -2   8   2  515.15   27.40
   1  -8  -2  189.48   14.00
  -1   8   2  174.98   14.20
  -1   8   2  174.58   13.60
   0  -8  -2   11.00    5.10
   0   8   2   10.60    4.30
   0   8   2    9.50    5.60
  -1  -8  -2    9.30    5.30
   1   8   2    7.70    5.10
  -2  -8  -2   46.90    9.20
   2   8   2   49.40    9.10
  -3  -8  -2   33.20    7.80
   3   8   2   42.00    8.30
  -4  -8  -2   50.19   10.20
   4   8   2   54.29    9.90
  -5  -8  -2    0.00    5.20
   5   8   2   -8.40    4.00
  -6  -8  -2   63.79   12.50
   6   8   2   42.60   10.20
   1  -9  -2   42.20    8.30
  -1   9   2   47.40    9.40
   0  -9  -2  101.49   11.40
  -1  -9  -2   40.10    8.60
   1   9   2   29.60   11.70
  -2  -9  -2  162.78   15.40
  -3  -9  -2  257.37   20.20
   3   9   2  259.97   19.20
  -4  -9  -2   -1.40    4.90
   4   9   2    1.90    5.60
  -5  -9  -2   70.69   13.30
   5   9   2   62.29   11.60
   0 -10  -2   16.10    6.20
   0  10   2   23.50    7.90
  -1 -10  -2   11.50    5.90
   1  10   2    8.70    6.10
  -2 -10  -2    9.20    5.30
   2  10   2   10.00    6.40
  -3 -10  -2    4.20    5.50
   3  10   2    0.00    5.60
   2  10  -3  390.66   25.20
  -2 -10   3  398.96   27.50
  -1 -10   3   16.70    7.20
   4   9  -3   -4.30    4.70
  -4  -9   3   18.40    7.30
   3   9  -3   85.79   13.00
  -3  -9   3  105.89   13.60
   2   9  -3  139.19    8.40
   2   9  -3   87.69   13.00
  -2  -9   3  111.19   13.80
   1   9  -3   26.00    8.10
  -1  -9   3   32.10    8.00
   0   9  -3    8.50    5.70
   0  -9   3   12.50    6.70
  -1   9  -3  117.59   18.00
  -1   9  -3  136.89   12.30
   1  -9   3  168.38   15.20
   5   8  -3   77.79   12.60
  -5  -8   3  118.39   14.70
   4   8  -3   34.70    8.80
   4   8  -3   48.50    4.10
   3   8  -3  332.97   15.10
   3   8  -3  303.27   20.70
  -3  -8   3  337.17   22.80
   2   8  -3  227.88   12.70
   2   8  -3  226.58   16.40
  -2  -8   3  217.38   17.60
   1   8  -3  106.49   11.00
   1   8  -3  123.39    9.80
  -1  -8   3  119.39   12.70
   0   8  -3   99.69   10.40
   0   8  -3   96.69   10.60
   0  -8   3   88.89   11.20
  -1   8  -3  102.29   10.80
  -1   8  -3  116.79   12.10
   1  -8   3  112.59   12.60
  -2   8  -3   36.30    7.70
  -2   8  -3   34.20    7.10
   2  -8   3   23.50    6.50
   6   7  -3   15.50    8.20
  -6  -7   3   17.40    7.40
   5   7  -3   65.99   11.10
   5   7  -3   46.30    7.70
  -5  -7   3   75.99   12.40
   4   7  -3  126.09   12.80
   4   7  -3  132.89    9.30
  -4  -7   3  107.19   12.50
   3   7  -3  229.78   15.90
   3   7  -3  180.38   10.90
  -3  -7   3  197.98   11.50
  -3  -7   3  173.98   15.50
   2   7  -3    1.90    2.60
   2   7  -3   -0.80    3.90
  -2  -7   3   -4.30    2.70
  -2  -7   3    2.60    4.80
   1   7  -3  159.78   11.30
   1   7  -3  169.48   12.80
  -1  -7   3  156.28   13.70
   0   7  -3   24.10    5.90
   0   7  -3   26.40    6.10
   0  -7   3   25.10    6.90
  -1   7  -3  449.95   22.20
  -1   7  -3  415.26   23.70
   1  -7   3  422.76   23.70
  -2   7  -3   78.19   10.70
  -2   7  -3   99.59    9.50
   2  -7   3   94.09   10.40
  -3   7  -3  151.48   15.10
   3  -7   3  147.09   13.20
   6   6  -3   -2.50    5.00
  -6  -6   3   -0.40    4.70
   5   6  -3    2.90    5.00
   5   6  -3    4.20    4.90
  -5  -6   3    5.70    5.20
   4   6  -3   23.70    6.80
   4   6  -3   26.70    6.20
  -4  -6   3   29.50    6.80
   3   6  -3  193.98   11.60
   3   6  -3  190.78   14.00
  -3  -6   3  212.68   11.90
  -3  -6   3  174.58   14.50
   2   6  -3    6.70    4.40
   2   6  -3    3.90    3.10
  -2  -6   3   -0.20    4.00
  -2  -6   3    4.90    3.30
   1   6  -3  646.64   28.60
   1   6  -3  654.13   27.50
  -1  -6   3  616.84   27.10
  -1  -6   3  667.93   30.50
   0   6  -3  216.88   13.60
   0   6  -3  238.88   14.60
   0  -6   3  230.78   15.40
  -1   6  -3   19.60    4.80
  -1   6  -3   20.30    6.30
   1  -6   3   22.40    6.10
  -2   6  -3   51.39    9.50
  -2   6  -3   41.10    6.70
   2  -6   3   53.59    8.40
  -3   6  -3    8.00    6.50
  -3   6  -3   13.70    4.30
   3  -6   3    9.10    5.10
  -4   6  -3    5.50    4.60
  -4   6  -3   11.30    5.60
   4  -6   3   13.00    5.40
   6   5  -3   38.30    9.00
   6   5  -3   39.50    8.80
  -6  -5   3   41.60    8.40
   5   5  -3  889.11   37.80
   5   5  -3  825.32   39.10
   4   5  -3  236.98   14.20
   4   5  -3  227.48   15.80
  -4  -5   3  220.38   15.90
   3   5  -3  135.59    9.90
   3   5  -3  130.69   10.80
  -3  -5   3  108.29   10.70
  -3  -5   3  121.59    8.80
   2   5  -3   69.79    7.60
   2   5  -3   83.69    6.80
  -2  -5   3   70.99    6.90
  -2  -5   3   81.69    8.80
   1   5  -3   66.59    6.30
   1   5  -3   55.59    6.40
  -1  -5   3   66.09    7.80
  -1  -5   3   56.49    5.90
   0   5  -3  168.78   11.00
   0   5  -3  156.98   10.20
   0  -5   3  154.88   11.50
  -1   5  -3 1027.30   42.20
  -1   5  -3  991.80   39.10
   1  -5   3 1033.00   41.50
  -2   5  -3   76.19    9.80
  -2   5  -3   83.59    7.60
   2  -5   3   94.39    9.30
  -3   5  -3  338.97   22.20
  -3   5  -3  353.76   17.70
  -4   5  -3  136.89   11.70
  -4   5  -3  140.39   14.90
   4  -5   3  132.19   11.70
  -5   5  -3    7.90    6.60
  -5   5  -3    3.60    4.30
   5  -5   3   -1.30    4.70
   7   4  -3  474.55   28.90
  -7  -4   3  476.25   27.00
   6   4  -3   93.09   14.60
   6   4  -3   96.69   12.00
  -6  -4   3  113.09   11.60
   5   4  -3   85.89   10.20
   5   4  -3  116.89   11.30
  -5  -4   3  100.19   10.90
   4   4  -3   -3.10    3.30
   4   4  -3    4.30    4.10
   3   4  -3  524.95   23.60
   3   4  -3  575.44   25.60
   3   4  -3  572.44   24.30
  -3  -4   3  537.35   25.70
  -3  -4   3  567.04   24.20
   2   4  -3  224.98   11.90
   2   4  -3  228.08   12.90
  -2  -4   3  216.48   11.60
  -2  -4   3  224.48   13.30
   1   4  -3    6.80    3.00
   1   4  -3    5.30    2.80
  -1  -4   3    8.00    3.60
  -1  -4   3    8.10    2.90
   0   4  -3   78.29    6.30
   0   4  -3   66.69    6.30
   0  -4   3   70.69    6.40
   0  -4   3   64.79    7.00
   0  -4   3   76.89    5.90
  -1   4  -3 2209.48   78.19
  -1   4  -3 2245.78   81.39
   1  -4   3 2157.28   80.19
   1  -4   3 2357.06   78.19
  -2   4  -3 1138.89   41.60
  -2   4  -3 1090.79   46.10
   2  -4   3 1174.98   44.00
   2  -4   3 1065.09   41.10
  -3   4  -3   34.90    8.10
  -3   4  -3   33.80    5.20
   3  -4   3   32.80    6.30
  -4   4  -3  197.08   17.10
  -4   4  -3  199.28   12.00
   4  -4   3  207.38   13.90
  -5   4  -3    9.30    5.50
  -5   4  -3    1.80    5.60
   5  -4   3    1.10    4.70
   7   3  -3   -1.90    6.30
   7   3  -3   -4.20    5.40
   7   3  -3   -0.40    4.60
   6   3  -3   42.70    8.90
   6   3  -3   46.90   10.00
  -6  -3   3   49.60    9.00
  -6  -3   3   40.70    7.80
   5   3  -3   11.10    5.80
  -5  -3   3    4.10    4.30
   4   3  -3   74.49    8.10
  -4  -3   3   59.99    7.70
  -4  -3   3   60.69    8.50
   3   3  -3  731.33   30.30
   3   3  -3  733.13   30.50
  -3  -3   3  722.93   30.70
  -3  -3   3  778.82   31.20
   2   3  -3  315.27   15.60
   2   3  -3  314.27   15.00
  -2  -3   3  327.37   16.10
  -2  -3   3  340.57   15.30
   1   3  -3  252.37   12.70
   1   3  -3  243.08   11.90
   1   3  -3  232.48   12.00
   1   3  -3  255.07   12.10
  -1  -3   3  244.08   13.00
  -1  -3   3  253.47   11.90
   0   3  -3  440.06   19.70
   0   3  -3  472.65   19.70
   0   3  -3  450.25   18.30
   0  -3   3  455.65   20.10
   0  -3   3  438.06   18.10
   0  -3   3  477.75   19.50
  -1   3  -3  217.68   11.50
  -1   3  -3  193.38   12.00
   1  -3   3  194.28    9.50
   1  -3   3  199.78   11.70
   1  -3   3  208.48   11.60
  -2   3  -3  142.89    8.00
  -2   3  -3  146.89   11.30
   2  -3   3  154.68   10.10
   2  -3   3  148.19    7.90
  -3   3  -3   12.40    5.90
  -3   3  -3    5.80    2.70
   3  -3   3    8.70    2.70
   3  -3   3    5.10    3.90
  -4   3  -3  133.49    9.10
  -4   3  -3  136.39   13.10
   4  -3   3  134.19   10.60
  -5   3  -3  466.75   28.70
   5  -3   3  449.76   23.20
  -6   3  -3  246.98   22.10
   7   2  -3   59.59   12.40
   7   2  -3   53.99    9.00
  -7  -2   3   69.29   11.00
   6   2  -3   54.29    8.30
   6   2  -3   60.79   11.30
  -6  -2   3   65.09   10.00
   5   2  -3    2.90    4.90
  -5  -2   3    4.10    4.00
  -5  -2   3    6.00    3.60
   4   2  -3    2.10    3.90
  -4  -2   3   -0.50    3.00
  -4  -2   3    0.50    2.70
   3   2  -3    7.10    2.80
   3   2  -3    9.50    3.60
  -3  -2   3    7.90    3.40
  -3  -2   3    4.90    2.70
   2   2  -3   96.49    7.20
   2   2  -3  102.49    6.90
  -2  -2   3  101.09    7.20
  -2  -2   3  100.19    7.20
  -2  -2   3  103.09    7.30
   1   2  -3 1668.03   59.19
   1   2  -3 1638.84   58.79
   1   2  -3 1721.53   58.69
   1   2  -3 1703.13   58.89
  -1  -2   3 1657.13   58.79
  -1  -2   3 1769.32   58.99
  -1  -2   3 1642.94   59.19
   0   2  -3 2028.80   71.09
   0   2  -3 2021.40   70.99
   0   2  -3 2035.50   69.69
   0  -2   3 2126.49   69.79
   0  -2   3 2046.80   70.89
  -1   2  -3 4191.68  137.49
   1  -2   3 3914.81  139.79
  -2   2  -3  209.08   12.90
  -2   2  -3  202.08    9.20
  -2   2  -3  194.88   10.80
   2  -2   3  208.48    9.20
   2  -2   3  216.18   11.40
  -3   2  -3  297.57   17.80
  -3   2  -3  292.47   13.20
   3  -2   3  295.37   15.10
   3  -2   3  295.47   13.20
  -4   2  -3  283.37   19.10
  -4   2  -3  280.87   13.80
   4  -2   3  289.27   15.90
  -5   2  -3  358.36   17.30
  -5   2  -3  335.27   23.20
   5  -2   3  351.46   19.10
  -6   2  -3    0.20    3.50
  -6   2  -3    3.70    5.50
   6  -2   3   -5.30    4.50
   7   1  -3    4.70    7.50
  -7  -1   3   17.50    6.90
   6   1  -3    2.00    3.00
   6   1  -3    4.10    6.20
  -6  -1   3   -1.90    3.40
   5   1  -3   12.50    6.50
   5   1  -3   -1.40    2.80
  -5  -1   3   -2.30    3.40
   4   1  -3 1194.08   46.30
   4   1  -3 1309.87   51.89
  -4  -1   3 1286.57   47.00
  -4  -1   3 1236.58   48.60
   3   1  -3  153.88    8.60
   3   1  -3  167.98   11.40
  -3  -1   3  147.19    8.70
  -3  -1   3  166.98    9.90
   2   1  -3  151.68    8.80
   2   1  -3  180.28   10.80
   2   1  -3  156.78    9.50
   2   1  -3  163.08    8.10
  -2  -1   3  161.78   10.70
  -2  -1   3  148.59    8.70
  -2  -1   3  155.38    8.20
   0   1  -3  277.57   11.90
   0   1  -3  277.27   10.60
   0   1  -3  284.07   11.80
   0  -1   3  281.07   11.70
   0  -1   3  276.07   11.90
   0  -1   3  288.57   10.70
  -1   1  -3   27.00    3.80
  -1   1  -3   28.50    3.30
  -1   1  -3   22.50    1.60
   1  -1   3   24.30    3.50
   1  -1   3   25.70    4.00
  -2   1  -3 1657.23   55.49
  -2   1  -3 1613.14   57.89
  -2   1  -3 1648.64   59.89
   2  -1   3 1626.94   59.49
   2  -1   3 1708.43   55.49
   2  -1   3 1532.85   57.79
  -3   1  -3  249.08   15.40
  -3   1  -3  246.78   13.10
   3  -1   3  261.47   11.50
   3  -1   3  281.27   13.80
  -4   1  -3  166.78   13.50
  -4   1  -3  175.48    9.50
   4  -1   3  143.79    8.90
   4  -1   3  166.88   11.10
  -5   1  -3   15.20    6.70
  -5   1  -3   11.80    4.00
   5  -1   3   15.10    5.00
  -6   1  -3   10.50    6.80
  -6   1  -3    5.10    3.70
   6  -1   3    6.40    4.60
   6   0  -3   61.19    7.00
  -6   0   3   85.39   10.30
   5   0  -3  229.28   12.20
   5   0  -3  283.87   19.90
   5   0  -3  226.28   12.50
  -5   0   3  224.88   15.10
   4   0  -3   38.50    6.60
   4   0  -3   32.20    4.10
  -4   0   3   35.30    6.20
   3   0  -3  461.45   22.60
   3   0  -3  443.16   17.80
  -3   0   3  461.95   18.10
  -3   0   3  436.16   20.00
   2   0  -3  131.59    6.20
   2   0  -3  121.09    7.60
   2   0  -3  124.49    9.00
   2   0  -3  120.99    8.20
  -2   0   3  129.59    7.90
  -2   0   3  122.69    6.10
  -1   0   3 2604.54   89.19
   0   0  -3  114.99    5.70
   0   0  -3  101.59    5.20
   0   0  -3  112.49    4.90
   0   0   3  110.19    5.70
   0   0   3  121.99    5.50
   0   0   3  111.49    5.00
  -1   0  -3  359.16   14.70
  -1   0  -3  341.07   14.20
   1   0   3  358.66   12.10
   1   0   3  355.26   12.20
   1   0   3  351.06   14.50
   1   0   3  379.56   14.60
  -2   0  -3    1.80    1.30
  -2   0  -3   -1.10    2.30
  -2   0  -3    0.10    1.80
   2   0   3   -2.20    2.20
   2   0   3    0.70    2.20
   2   0   3    3.50    1.40
   2   0   3    1.40    2.10
  -3   0  -3 1371.46   52.39
   3   0   3 1352.06   48.20
   3   0   3 1361.06   50.59
   3   0   3 1408.76   50.79
  -4   0  -3  183.98   13.80
  -4   0  -3  203.68   10.60
   4   0   3  201.58   12.30
   4   0   3  188.48   10.30
  -5   0  -3   72.59   10.10
  -5   0  -3   65.89    6.60
   5   0   3   76.29    8.50
  -6   0  -3  272.77   15.50
  -6   0  -3  223.68   19.00
   6   0   3  282.17   17.40
  -7   0  -3   41.30   10.70
   7   0   3   55.19   12.30
   7   0   3   32.80    6.80
   7   0   3   18.20    6.90
   6  -1  -3   30.90   10.00
  -6   1   3   27.90    7.50
   5  -1  -3    3.60    5.00
   5  -1  -3   -4.00    2.10
  -5   1   3   -1.30    3.10
   4  -1  -3    5.20    5.00
   4  -1  -3    5.70    2.30
   4  -1  -3    5.90    2.20
  -4   1   3    9.80    4.10
   3  -1  -3   55.39    3.70
   3  -1  -3   53.09    3.70
   3  -1  -3   52.79    7.30
  -3   1   3   59.99    6.20
  -3   1   3   48.80    7.80
   2  -1  -3 1069.29   42.30
   2  -1  -3 1107.09   40.90
   2  -1  -3 1110.69   37.50
   2  -1  -3 1100.39   43.00
   2  -1  -3 1161.08   38.00
  -2   1   3 1105.99   41.00
  -2   1   3 1121.19   42.70
   1  -1  -3 1548.45   55.09
   1  -1  -3 1613.84   55.59
   1  -1  -3 1524.55   54.19
  -1   1   3 1568.84   54.49
   0  -1  -3  241.18   10.00
   0  -1  -3  262.47   10.10
   0  -1  -3  245.68    9.50
   0   1   3  243.78   10.00
   0   1   3  243.38   10.10
   0   1   3  241.38    9.50
  -1  -1  -3 2671.03  100.49
   1   1   3 2889.91  101.29
  -2  -1  -3  358.66   15.70
  -2  -1  -3  361.76   16.10
   2   1   3  360.76   14.20
   2   1   3  367.26   14.30
   2   1   3  358.56   15.80
   2   1   3  372.66   16.00
   2   1   3  359.46   15.50
  -3  -1  -3   88.79    5.90
  -3  -1  -3   77.79    7.10
   3   1   3   76.49    6.70
   3   1   3   80.49    6.90
   3   1   3   85.19    7.00
   3   1   3   91.49    5.80
  -4  -1  -3   72.49    8.10
  -4  -1  -3   58.79    5.50
   4   1   3   68.79    6.90
  -5  -1  -3    1.60    4.30
  -5  -1  -3    8.50    3.60
   5   1   3    0.30    3.30
  -6  -1  -3    6.00    5.20
   6   1   3   -0.80    3.40
   6   1   3    6.60    3.90
   7   1   3   92.69   15.40
   7   1   3   78.89   10.40
   7   1   3   77.69    9.70
   6  -2  -3  209.08   20.20
   5  -2  -3    5.50    1.70
   5  -2  -3   -0.70    4.10
  -5   2   3   -0.10    3.60
   4  -2  -3  615.94   23.00
   4  -2  -3  628.24   23.10
   4  -2  -3  616.74   32.40
  -4   2   3  648.34   28.90
  -4   2   3  617.54   31.70
   3  -2  -3 2310.37   76.89
   3  -2  -3 2238.08   76.79
  -3   2   3 2295.77   84.69
  -3   2   3 2294.47   81.79
   2  -2  -3  426.56   15.40
   2  -2  -3  440.46   20.10
   2  -2  -3  414.66   15.30
  -2   2   3  458.05   19.30
  -2   2   3  441.36   20.50
   1  -2  -3   82.99    4.00
   1  -2  -3   86.09    6.00
   1  -2  -3   79.49    6.20
  -1   2   3   85.29    6.40
  -1   2   3   85.49    4.00
  -1   2   3   82.89    5.80
   0  -2  -3   28.10    2.60
   0  -2  -3   29.50    2.90
   0  -2  -3   30.00    2.70
   0  -2  -3   31.60    3.00
   0   2   3   30.30    2.80
   0   2   3   32.40    3.20
  -1  -2  -3 1008.60   36.30
  -1  -2  -3  987.80   33.70
  -1  -2  -3  962.80   35.40
   1   2   3  966.20   36.00
   1   2   3 1036.20   33.80
   1   2   3 1034.50   35.60
  -2  -2  -3 1733.73   61.49
  -2  -2  -3 1745.13   63.59
  -2  -2  -3 1767.72   61.89
   2   2   3 1922.71   63.59
   2   2   3 1788.22   61.89
   2   2   3 1750.42   63.39
   2   2   3 1814.52   61.49
  -3  -2  -3   78.09    7.30
  -3  -2  -3   86.19    6.80
   3   2   3   86.99    6.30
   3   2   3   84.89    6.00
  -4  -2  -3  334.87   18.00
  -4  -2  -3  345.37   17.60
   4   2   3  333.47   16.10
   4   2   3  309.97   17.30
   5   2   3 3730.43  132.69
   5   2   3 3751.12  130.29
  -6  -2  -3   24.60    7.60
   6   2   3    8.30    5.30
   6   2   3   22.30    6.30
   6   2   3   18.40    5.40
   7   2   3   18.40    6.00
   7   2   3   17.20    8.20
   7   2   3    4.80    4.70
  -6   3   3   -5.40    4.60
  -5   3   3   23.20    5.90
   4  -3  -3  138.59    6.40
   4  -3  -3  133.39    6.40
  -4   3   3  158.58   12.10
  -4   3   3  136.69   13.70
   3  -3  -3  683.93   24.40
   3  -3  -3  680.43   24.30
  -3   3   3  672.83   29.10
  -3   3   3  641.54   34.70
   2  -3  -3  125.99    6.30
  -2   3   3  123.89    9.90
  -2   3   3  134.19    6.40
  -2   3   3  138.69    9.30
   1  -3  -3  407.76   18.60
   1  -3  -3  424.46   16.30
   1  -3  -3  406.46   18.00
  -1   3   3  420.06   18.30
  -1   3   3  414.76   16.20
  -1   3   3  417.26   18.60
   0  -3  -3  111.29    6.50
   0  -3  -3  116.39    6.70
   0  -3  -3  104.99    7.00
   0   3   3  112.79    6.40
   0   3   3  102.09    6.50
   0   3   3  124.39    7.40
  -1  -3  -3 4592.94  172.18
   1   3   3 4655.63  172.68
  -2  -3  -3   57.69    4.90
  -2  -3  -3   55.59    6.10
   2   3   3   49.70    3.30
   2   3   3   67.99    5.80
   2   3   3   57.49    3.30
   2   3   3   51.99    5.60
  -3  -3  -3 2091.99   76.19
  -3  -3  -3 2112.19   72.99
   3   3   3 2057.49   72.99
   3   3   3 2151.48   74.49
  -4  -3  -3  568.04   24.50
  -4  -3  -3  583.54   27.00
   4   3   3  536.75   24.40
  -5  -3  -3  433.46   24.00
   5   3   3  473.35   23.90
   6   3   3   14.80    6.20
   6   3   3   11.60    5.20
   6   3   3   15.80    6.10
   7   3   3    1.90    4.60
   7   3   3   -2.90    4.30
   7   3   3    0.90    4.50
   5  -4  -3   35.30   10.50
  -5   4   3   55.69    9.10
   4  -4  -3  546.95   20.60
   4  -4  -3  584.04   20.80
  -4   4   3  560.44   27.70
  -4   4   3  632.74   32.70
   3  -4  -3  271.57   11.80
  -3   4   3  254.07   11.60
  -3   4   3  276.27   16.30
  -3   4   3  310.37   19.10
   2  -4  -3  592.14   22.90
  -2   4   3  614.34   28.00
  -2   4   3  584.64   26.20
  -2   4   3  596.44   23.00
   1  -4  -3 2388.56   81.39
   1  -4  -3 2286.47   83.69
  -1   4   3 2334.77   81.19
  -1   4   3 2366.76   83.79
  -1   4   3 2406.76   83.59
   0  -4  -3  328.47   14.80
   0  -4  -3  308.47   14.00
   0   4   3  321.47   14.00
   0   4   3  325.67   15.50
   0   4   3  307.47   15.50
  -1  -4  -3  513.75   17.60
  -1  -4  -3  490.95   17.60
  -1  -4  -3  522.95   22.20
   1   4   3  523.15   21.90
   1   4   3  516.35   21.90
  -2  -4  -3    9.60    3.70
   2   4   3    6.00    3.10
  -3  -4  -3    6.10    3.60
   3   4   3   14.20    2.50
   3   4   3   10.30    2.40
   3   4   3    9.90    3.70
  -4  -4  -3    6.40    4.90
   4   4   3   12.60    4.30
   4   4   3   10.10    3.60
   4   4   3   19.70    3.70
  -5  -4  -3  166.98   14.10
   5   4   3  198.48   13.70
   5   4   3  187.38   12.80
  -6  -4  -3    6.50    4.90
   6   4   3    0.80    3.50
   6   4   3   11.40    5.70
   6   4   3   11.40    5.80
   7   4   3  225.58   17.70
   7   4   3  184.18   16.90
   5  -5  -3  315.47   25.70
  -4   5   3    4.80    4.20
  -4   5   3    3.10    4.60
   3  -5  -3  183.88    9.60
  -3   5   3  187.98   15.40
  -3   5   3  175.68   10.30
  -3   5   3  192.98   13.60
   2  -5  -3   98.29    7.10
  -2   5   3   98.49    7.20
  -2   5   3   93.89    9.80
  -2   5   3   93.79   10.50
   1  -5  -3  250.57   12.80
  -1   5   3  254.17   14.50
  -1   5   3  238.58   14.20
  -1   5   3  226.98   12.50
   0  -5  -3  231.28   12.00
   0  -5  -3  261.07   13.50
   0   5   3  251.57   12.30
   0   5   3  249.88   14.10
  -1  -5  -3    0.50    1.00
  -1  -5  -3    1.50    1.30
  -1  -5  -3    2.20    3.00
   1   5   3    1.60    2.40
  -2  -5  -3  286.67   16.10
   2   5   3  276.07   15.10
  -3  -5  -3 1216.38   49.30
   3   5   3 1221.88   47.70
  -4  -5  -3  477.65   25.20
   4   5   3  458.75   23.10
   4   5   3  470.55   18.90
   4   5   3  472.85   19.00
  -5  -5  -3    6.30    4.90
   5   5   3    4.90    4.30
   5   5   3    0.50    3.20
  -6  -5  -3  107.39   12.50
   6   5   3  111.89   10.70
   6   5   3  111.79   11.00
   7   5   3   24.90    7.80
   7   5   3    8.90    6.80
   7   5   3   16.80    7.20
   4  -6  -3   33.90    9.70
  -4   6   3   52.59    9.40
  -4   6   3   38.10   10.00
   3  -6  -3  116.49    8.00
  -3   6   3  126.89   11.50
  -3   6   3  124.39   12.80
   2  -6  -3  472.05   21.10
  -2   6   3  430.26   24.40
  -2   6   3  496.85   24.20
   1  -6  -3   28.60    5.40
  -1   6   3   36.10    6.90
  -1   6   3   27.20    6.10
   0  -6  -3    8.20    2.80
   0  -6  -3   -1.10    3.10
   0   6   3    6.30    3.00
   0   6   3    1.60    4.00
  -1  -6  -3  452.05   21.60
  -1  -6  -3  367.06   15.80
  -1  -6  -3  440.36   16.10
  -2  -6  -3  290.57   19.40
   2   6   3  306.57   17.10
  -3  -6  -3 1099.09   49.70
   3   6   3 1350.06   49.60
  -4  -6  -3   13.40    5.60
   4   6   3   17.10    5.90
  -5  -6  -3    2.00    4.20
   5   6   3    4.90    4.20
  -6  -6  -3   -0.10    4.90
   6   6   3   -3.70    4.40
   6   6   3   -3.20    3.50
   3  -7  -3  431.36   20.10
  -3   7   3  436.66   26.90
  -3   7   3  456.85   25.10
   2  -7  -3  101.99    8.80
  -2   7   3  106.89   10.80
  -2   7   3   92.69   11.20
   1  -7  -3    1.70    3.40
  -1   7   3    7.80    4.30
  -1   7   3    7.80    4.70
   0  -7  -3  390.56   23.40
   0   7   3  378.46   18.50
   0   7   3  418.06   21.90
  -1  -7  -3  178.08   13.20
  -1  -7  -3  154.88    8.10
  -1  -7  -3  163.78    8.10
   1   7   3  158.58   12.50
  -2  -7  -3  125.39   11.80
   2   7   3  135.99   11.60
  -3  -7  -3   11.30    5.70
   3   7   3   10.30    4.70
  -4  -7  -3  351.26   22.60
   4   7   3  340.57   20.70
  -5  -7  -3  186.78   16.70
   5   7   3  159.38   14.50
  -6  -7  -3    4.70    5.30
   6   7   3    4.30    5.40
   3  -8  -3   -0.20    6.60
  -3   8   3   -2.00    5.10
   2  -8  -3   25.90    5.60
  -2   8   3    4.20    5.30
  -2   8   3   22.00    6.10
   1  -8  -3   18.60    5.30
  -1   8   3   16.30    6.30
  -1   8   3   21.80    6.20
   0  -8  -3  986.30   42.30
   0   8   3  954.20   42.70
  -1  -8  -3  322.67   13.90
  -1  -8  -3  362.56   21.10
  -1  -8  -3  323.07   13.90
   1   8   3  351.56   20.80
  -2  -8  -3  151.18   13.30
   2   8   3  136.79   12.80
  -3  -8  -3   74.29   11.50
   3   8   3   78.69   11.20
  -4  -8  -3   -4.70    4.80
   4   8   3   -1.10    4.40
  -5  -8  -3    7.30    6.10
   5   8   3    7.30    6.10
  -6  -8  -3   37.40   10.30
   6   8   3   31.80    9.60
   1  -9  -3  213.38   16.00
   1  -9  -3  215.88   15.40
  -1   9   3  215.48   17.10
   0  -9  -3  169.88   13.80
   0  -9  -3  169.78   12.00
   0   9   3  151.78   14.70
  -1  -9  -3   43.40    8.40
  -2  -9  -3    9.00    5.00
   2   9   3    9.10    7.20
  -3  -9  -3   12.10    6.60
   3   9   3   20.70    6.80
  -4  -9  -3   46.60   10.60
   4   9   3   41.10    9.50
  -5  -9  -3   19.10    8.10
   5   9   3   22.80    8.80
   0 -10  -3   48.40    9.50
   0  10   3   45.50   10.50
  -1 -10  -3   21.90    7.20
   1  10   3   28.90    8.70
  -2 -10  -3  171.48   16.20
   2  10   3  156.18   15.30
  -3 -10  -3  336.77   24.00
   3  10   3  334.27   23.50
   4   9  -4  189.28   17.80
  -4  -9   4  235.98   20.50
   3   9  -4  115.09   13.10
  -3  -9   4  108.59   13.70
   2   9  -4  101.59   14.20
   2   9  -4  168.58   10.10
  -2  -9   4  148.19   15.70
  -1  -9   4  138.79   14.70
   0   9  -4  141.79   13.80
   0   9  -4  188.58   14.00
   0  -9   4  150.98   15.20
  -1   9  -4   15.10    5.20
  -1   9  -4   15.70    6.70
   1  -9   4   17.30    6.20
   5   8  -4   18.30    8.10
  -5  -8   4   25.40    8.00
   4   8  -4   12.90    7.00
  -4  -8   4    3.00    5.40
   3   8  -4  105.19    7.60
   3   8  -4   74.79   11.50
   2   8  -4   25.50    7.30
   2   8  -4   33.40    5.70
  -2  -8   4   29.40    8.50
   1   8  -4   88.39    9.10
   1   8  -4   74.59    9.20
  -1  -8   4   66.29   11.40
   0   8  -4   30.80    7.20
   0   8  -4   42.20    7.90
   0  -8   4   27.90    7.80
  -1   8  -4  122.59   11.10
  -1   8  -4  132.79   12.90
   1  -8   4  126.79   12.70
  -2   8  -4   97.69   12.20
  -2   8  -4  101.19   10.30
   2  -8   4  101.39   12.00
   6   7  -4    1.50    6.60
  -6  -7   4    7.10    6.70
   5   7  -4   53.79   10.80
   5   7  -4   40.10    8.10
  -5  -7   4   69.79   12.00
   4   7  -4   -6.00    3.90
   4   7  -4   -1.70    3.60
  -4  -7   4    1.30    4.80
   3   7  -4  202.68   15.50
   3   7  -4  230.38   12.90
  -3  -7   4  188.38   15.90
   2   7  -4  352.56   17.90
   2   7  -4  337.17   20.20
  -2  -7   4  376.36   22.60
   1   7  -4   52.29    8.30
   1   7  -4   52.19    7.00
  -1  -7   4   59.49    9.90
   0   7  -4   34.30    7.20
   0   7  -4   26.30    6.00
   0  -7   4   29.20    7.40
  -1   7  -4  198.18   15.70
  -1   7  -4  180.48   12.90
   1  -7   4  213.18   15.70
  -2   7  -4  105.49   11.90
  -2   7  -4   95.49    9.50
   2  -7   4   79.39   10.60
  -3   7  -4   16.60    6.40
  -3   7  -4    5.90    4.50
   3  -7   4    4.80    5.60
   6   6  -4   10.70    6.90
   6   6  -4   16.40    7.00
  -6  -6   4   22.00    7.30
  -5  -6   4  207.28   16.90
   4   6  -4  565.24   28.70
   4   6  -4  532.65   25.60
  -4  -6   4  557.14   29.30
   3   6  -4   60.49    7.10
   3   6  -4   46.10    8.20
  -3  -6   4   61.09    9.60
   2   6  -4  249.88   13.90
   2   6  -4  227.38   15.10
  -2  -6   4  249.08   16.80
   1   6  -4  135.59   11.70
   1   6  -4  115.29    9.40
  -1  -6   4  124.59   11.70
   0   6  -4  496.85   24.60
   0   6  -4  499.55   23.30
   0  -6   4  534.25   26.20
  -1   6  -4   35.40    6.30
   1  -6   4   40.40    7.60
  -2   6  -4  108.79   12.10
  -2   6  -4  115.69    9.40
   2  -6   4  109.49   11.00
  -3   6  -4  715.73   31.70
  -3   6  -4  666.13   35.80
   3  -6   4  664.43   32.50
  -4   6  -4  169.78   12.10
  -4   6  -4  195.38   18.10
   4  -6   4  180.98   14.40
   6   5  -4    1.80    5.70
   6   5  -4   17.00    7.20
  -6  -5   4   11.40    5.60
   5   5  -4  168.58   13.70
   5   5  -4  135.09   13.10
  -5  -5   4  159.38   13.80
   4   5  -4    3.10    4.40
   4   5  -4   -1.50    3.80
  -4  -5   4   -0.10    4.00
   3   5  -4  353.36   17.90
   3   5  -4  321.37   18.80
  -3  -5   4  349.77   20.00
   2   5  -4  103.39    9.10
   2   5  -4  107.79    8.50
  -2  -5   4  100.09    9.80
  -2  -5   4  102.09    8.10
   1   5  -4 1410.36   50.49
   1   5  -4 1286.77   50.39
  -1  -5   4 1291.97   49.80
  -1  -5   4 1357.06   52.59
   0   5  -4 1997.30   74.49
   0   5  -4 2139.59   76.49
   0  -5   4 2140.79   77.49
  -1   5  -4  142.79    9.60
  -1   5  -4  142.09   11.70
   1  -5   4  131.39   11.20
  -2   5  -4   93.99   10.70
  -2   5  -4   94.99    7.80
   2  -5   4  104.59   10.10
  -3   5  -4  192.18   11.70
  -3   5  -4  210.68   17.10
   3  -5   4  203.78   14.30
  -4   5  -4    7.40    3.70
   4  -5   4    9.10    5.00
  -5   5  -4   22.30    8.80
  -5   5  -4   19.60    8.80
   5  -5   4   16.60    6.50
   6   4  -4   22.00    7.60
   6   4  -4   21.40    6.90
  -6  -4   4   37.80    7.90
   5   4  -4  313.67   19.50
   5   4  -4  350.16   20.60
  -5  -4   4  314.77   19.40
   4   4  -4  564.54   27.90
   4   4  -4  570.64   27.10
  -4  -4   4  626.64   32.00
   3   4  -4   41.90    7.00
   3   4  -4   52.29    6.30
  -3  -4   4   41.70    7.20
   2   4  -4  468.65   19.90
   2   4  -4  433.76   20.30
  -2  -4   4  407.66   19.30
  -2  -4   4  407.06   20.80
   1   4  -4  780.32   31.20
   1   4  -4  796.82   31.20
  -1  -4   4  776.12   31.00
  -1  -4   4  791.52   32.60
   0   4  -4  103.89    8.00
   0   4  -4   90.99    6.60
   0  -4   4   92.99    6.50
   0  -4   4   83.99    8.10
   0  -4   4   88.39    7.60
  -1   4  -4    2.20    2.10
  -1   4  -4   -5.10    2.50
   1  -4   4   -1.30    1.70
   1  -4   4    0.70    3.40
  -2   4  -4    0.10    3.90
  -2   4  -4    0.40    2.40
   2  -4   4   -2.90    3.00
   2  -4   4   -0.50    2.20
  -3   4  -4  128.49   12.90
  -3   4  -4  128.69    8.40
   3  -4   4  127.89   10.70
  -4   4  -4  262.77   13.80
  -4   4  -4  254.87   19.90
   4  -4   4  269.07   16.80
  -5   4  -4   18.90    4.60
  -5   4  -4   20.80    8.50
   5  -4   4   19.90    6.50
   7   3  -4  175.28   14.30
   7   3  -4  176.48   17.60
   7   3  -4  180.38   17.10
   6   3  -4  222.48   18.50
  -6  -3   4  236.58   17.60
  -6  -3   4  244.78   16.30
   5   3  -4   48.50    9.70
  -5  -3   4   44.60    8.20
   4   3  -4  105.69   10.00
  -4  -3   4  117.79   10.40
  -4  -3   4  122.49   10.10
   3   3  -4   26.00    5.50
  -3  -3   4   24.50    5.20
  -3  -3   4   19.30    4.60
   2   3  -4 1990.50   68.79
   2   3  -4 1946.41   68.89
  -2  -3   4 1927.41   69.29
  -2  -3   4 1850.51   68.39
  -2  -3   4 1873.21   68.59
   1   3  -4 1200.98   46.70
   1   3  -4 1288.07   46.50
   1   3  -4 1289.07   45.90
   1   3  -4 1306.87   46.20
  -1  -3   4 1244.88   47.10
  -1  -3   4 1258.97   46.30
   0   3  -4   80.99    6.60
   0   3  -4   75.79    5.70
   0   3  -4   77.09    6.90
   0  -3   4   77.79    5.40
   0  -3   4   80.99    6.90
   0  -3   4   80.69    7.30
  -1   3  -4  808.32   29.80
  -1   3  -4  813.82   33.40
   1  -3   4  852.41   32.80
   1  -3   4  791.52   29.70
  -2   3  -4  895.81   37.90
   2  -3   4  867.51   32.40
   2  -3   4  922.11   36.00
  -3   3  -4  275.57   17.90
  -3   3  -4  285.27   12.80
   3  -3   4  281.97   15.70
   3  -3   4  257.07   12.50
  -4   3  -4  166.48   15.10
  -4   3  -4  156.78    9.40
   4  -3   4  154.28   12.10
  -5   3  -4   34.10    5.10
  -5   3  -4   31.90   10.90
   5  -3   4   21.50    6.40
  -6   3  -4  207.48   20.10
   6  -3   4  180.08   15.30
   7   2  -4   41.20   10.70
   7   2  -4   28.40    6.80
  -7  -2   4   41.30    9.00
   6   2  -4   10.10    6.60
   6   2  -4    8.70    4.30
  -6  -2   4    7.40    5.30
   5   2  -4   98.39   11.40
  -5  -2   4  104.89   10.40
  -5  -2   4   88.69    8.70
   4   2  -4  291.87   17.80
  -4  -2   4  281.97   15.30
  -4  -2   4  282.37   16.10
   3   2  -4    1.20    3.10
   3   2  -4    2.10    1.80
  -3  -2   4    2.70    2.90
  -3  -2   4    1.60    2.30
   2   2  -4 1861.21   66.49
   2   2  -4 1843.62   66.09
   2   2  -4 1892.61   67.09
  -2  -2   4 1879.71   66.49
  -2  -2   4 1924.11   67.29
  -2  -2   4 1832.42   66.19
   1   2  -4 1752.32   62.09
   1   2  -4 1775.52   61.59
   1   2  -4 1771.22   64.09
  -1  -2   4 1783.22   61.69
  -1  -2   4 1755.62   62.29
  -1  -2   4 1758.92   62.19
   0   2  -4  410.26   15.90
   0   2  -4  395.36   17.40
   0   2  -4  393.46   15.80
   0   2  -4  446.56   19.20
   0  -2   4  405.46   17.40
   0  -2   4  407.56   17.50
  -1   2  -4 6486.15  241.98
   1  -2   4 6828.12  243.28
  -2   2  -4  210.58   12.00
  -2   2  -4  236.58   13.90
  -2   2  -4  244.88    9.90
   2  -2   4  227.58   12.50
   2  -2   4  234.48    9.70
  -3   2  -4  335.97   19.30
   3  -2   4  339.07   17.10
   3  -2   4  336.47   14.10
  -4   2  -4  283.77   19.10
  -4   2  -4  293.87   13.60
   4  -2   4  312.77   17.00
   4  -2   4  280.27   13.50
  -5   2  -4  544.45   22.70
  -5   2  -4  495.15   29.50
   5  -2   4  529.65   25.80
  -6   2  -4  131.99   14.90
  -6   2  -4  115.99    9.30
   6  -2   4  102.49   11.30
   6   1  -4    2.50    3.60
   6   1  -4    9.30    7.10
  -6  -1   4    0.10    3.60
   5   1  -4    1.80    2.70
   5   1  -4    0.60    5.00
  -5  -1   4    0.60    3.10
   4   1  -4   87.69    9.60
   4   1  -4   88.79    6.80
  -4  -1   4  101.39   10.30
  -4  -1   4   99.29    7.60
   3   1  -4 1193.78   45.70
   3   1  -4 1106.39   41.30
  -3  -1   4 1144.89   41.70
  -3  -1   4 1114.19   43.50
   2   1  -4 1495.55   52.09
   2   1  -4 1475.05   54.59
   2   1  -4 1470.35   53.29
  -2  -1   4 1488.05   52.19
  -2  -1   4 1519.65   53.49
  -2  -1   4 1453.05   54.39
   1   1  -4 2008.30   68.99
   1   1  -4 1976.60   69.99
   1   1  -4 1989.70   68.79
  -1  -1   4 2062.69   68.99
  -1  -1   4 2027.30   69.09
  -1  -1   4 1988.00   69.99
   0   1  -4   81.09    5.30
   0   1  -4   87.69    4.40
   0   1  -4   84.69    5.90
   0  -1   4   89.59    5.60
   0  -1   4   76.79    4.30
   0  -1   4   79.39    5.40
  -1   1  -4  797.32   31.30
  -1   1  -4  814.82   27.50
  -1   1  -4  818.12   30.70
   1  -1   4  862.61   32.30
   1  -1   4  807.52   31.10
  -2   1  -4    6.50    3.50
  -2   1  -4    6.10    1.40
  -2   1  -4    8.90    2.80
   2  -1   4    3.90    1.40
   2  -1   4    7.70    3.00
   2  -1   4    4.70    3.20
  -3   1  -4  669.13   29.70
  -3   1  -4  668.13   24.00
   3  -1   4  596.84   26.80
   3  -1   4  655.73   23.90
  -4   1  -4   97.59   10.60
  -4   1  -4  101.19    6.60
   4  -1   4  103.49    9.20
   4  -1   4   95.59    6.50
  -5   1  -4   28.80    8.00
  -5   1  -4   25.20    4.60
   5  -1   4   25.70    7.00
  -6   1  -4    1.40    5.90
  -6   1  -4    1.20    2.90
   6  -1   4    7.70    5.20
   6   0  -4   22.40    9.20
   6   0  -4   14.10    3.90
  -6   0   4   19.30    5.90
   5   0  -4    4.70    2.30
   5   0  -4    9.20    5.90
   5   0  -4    3.90    2.60
  -5   0   4   -1.40    3.40
   4   0  -4  188.18    9.70
   4   0  -4  184.88    9.70
   4   0  -4  192.38   15.10
  -4   0   4  199.98   14.80
   3   0  -4  179.98   12.90
   3   0  -4  185.38    8.80
  -3   0   4  195.78    9.10
  -3   0   4  193.68   11.50
   2   0  -4  661.03   26.50
   2   0  -4  688.13   24.20
   2   0  -4  665.43   28.40
   2   0  -4  683.83   27.80
  -2   0   4  683.63   24.30
  -2   0   4  667.23   26.60
   1   0  -4 7119.29  241.18
  -1   0   4 6637.84  239.88
   0   0  -4   14.20    2.30
   0   0  -4   20.60    3.10
   0   0  -4   13.10    2.00
   0   0   4   16.20    2.80
   0   0   4   13.80    2.00
   0   0   4   12.10    2.20
  -1   0  -4   31.60    1.50
  -1   0  -4   35.50    3.80
  -1   0  -4   35.20    3.50
   1   0   4   32.90    1.50
   1   0   4   31.20    3.30
   1   0   4   29.90    3.40
  -2   0  -4    9.40    3.70
   2   0   4   12.20    1.70
   2   0   4   11.80    3.20
  -3   0  -4   45.30    7.00
  -3   0  -4   41.20    3.50
   3   0   4   41.80    5.10
   3   0   4   38.40    3.40
  -4   0  -4   40.90    7.90
  -4   0  -4   39.50    4.50
   4   0   4   40.60    6.70
   4   0   4   47.50    4.50
  -5   0  -4   83.89    7.20
  -5   0  -4   90.09   11.10
  -6   0  -4    8.60    6.20
  -6   0  -4    0.50    3.20
   6   0   4    5.00    4.20
  -7   0  -4  349.17   25.40
   7   0   4  309.57   18.20
   6  -1  -4   26.40    8.90
  -6   1   4   18.70    6.40
   5  -1  -4  396.56   16.50
   5  -1  -4  416.16   16.80
   5  -1  -4  432.26   27.10
  -5   1   4  445.06   23.00
   4  -1  -4  223.38   16.80
   4  -1  -4  212.18    9.50
   4  -1  -4  202.68    9.30
  -4   1   4  225.18   13.90
   3  -1  -4    6.40    1.40
   3  -1  -4    5.70    4.20
   3  -1  -4    6.40    1.50
  -3   1   4   10.60    3.50
   2  -1  -4   64.89    6.30
   2  -1  -4   69.89    6.00
   2  -1  -4   71.49    7.40
  -2   1   4   70.19    6.20
   1  -1  -4  252.57   14.70
   1  -1  -4  309.47   13.80
   1  -1  -4  307.37   13.00
  -1   1   4  306.07   14.00
  -1   1   4  302.57   13.10
   0  -1  -4 5175.38  189.08
   0   1   4 5447.06  189.58
  -1  -1  -4 1190.78   42.20
  -1  -1  -4 1312.67   41.50
   1   1   4 1146.79   42.70
   1   1   4 1195.68   41.30
   1   1   4 1225.88   42.20
   1   1   4 1183.98   42.90
  -2  -1  -4 1319.17   47.40
   2   1   4 1265.37   47.60
   2   1   4 1330.67   45.30
   2   1   4 1308.77   47.20
   2   1   4 1340.07   45.30
  -3  -1  -4  160.48   10.60
   3   1   4  162.28   10.20
   3   1   4  166.98    8.40
   3   1   4  171.88   10.50
   3   1   4  178.38   11.70
  -4  -1  -4  751.72   33.30
   4   1   4  773.72   29.70
   4   1   4  751.92   29.60
   4   1   4  776.42   32.70
  -5  -1  -4  224.88   16.40
   5   1   4  221.98   12.70
   5   1   4  231.98   15.40
  -6  -1  -4  315.07   21.60
   6   1   4  322.07   19.70
   6   1   4  318.17   17.30
   7   1   4  317.67   19.20
   7   1   4  378.06   26.20
   7   1   4  358.36   22.30
   6  -2  -4  159.38   18.50
  -6   2   4  192.98   22.90
   5  -2  -4   43.90   10.30
  -5   2   4   37.10    7.50
   4  -2  -4   48.10    9.90
  -4   2   4   44.50    7.20
   3  -2  -4  183.78   14.00
  -3   2   4  175.08   11.70
   2  -2  -4 1281.77   50.29
  -2   2   4 1321.47   48.30
   1  -2  -4   44.20    2.40
   1  -2  -4   46.00    4.90
   1  -2  -4   49.20    5.60
   1  -2  -4   47.30    4.50
  -1   2   4   45.50    5.00
   0  -2  -4  618.04   23.60
   0  -2  -4  615.44   22.70
   0  -2  -4  613.74   23.30
   0   2   4  612.44   22.70
   0   2   4  655.73   23.50
  -1  -2  -4  921.61   33.30
  -1  -2  -4  880.31   31.10
  -1  -2  -4  867.71   32.20
   1   2   4  881.31   33.00
   1   2   4  934.41   32.40
   1   2   4  902.41   31.10
  -2  -2  -4 3161.98  106.89
  -2  -2  -4 3132.29  106.99
   2   2   4 3187.58  108.99
   2   2   4 3174.38  106.79
  -3  -2  -4  948.21   36.40
  -3  -2  -4  963.20   38.00
   3   2   4  940.41   35.30
   3   2   4  957.50   35.40
  -4  -2  -4   32.10    6.00
   4   2   4   42.60    5.20
   4   2   4   34.20    6.30
   5   2   4  390.06   21.70
   5   2   4  415.16   19.80
  -6  -2  -4    4.70    4.80
   6   2   4    3.00    4.50
   6   2   4    1.50    3.60
   7   2   4   62.69   10.80
   7   2   4   70.09    9.60
   7   2   4   72.59   13.10
   6  -3  -4  205.38   22.00
  -6   3   4  262.67   18.10
   5  -3  -4   -2.10    5.50
  -5   3   4   -2.80    3.50
   4  -3  -4  115.59   13.10
  -4   3   4  100.39   10.40
   3  -3  -4  605.74   31.10
  -3   3   4  665.13   28.70
  -3   3   4  650.03   31.10
   2  -3  -4  262.47   15.30
   2  -3  -4  249.58    9.60
  -2   3   4  235.18   14.70
  -2   3   4  255.37    9.60
  -2   3   4  261.57   14.10
   1  -3  -4  720.13   28.80
   1  -3  -4  685.13   28.30
   1  -3  -4  714.63   25.20
  -1   3   4  714.13   28.10
  -1   3   4  694.53   28.30
  -1   3   4  664.03   25.00
   0  -3  -4  829.82   30.20
   0  -3  -4  823.72   30.10
   0  -3  -4  792.32   30.20
   0  -3  -4  835.62   31.10
   0   3   4  821.12   31.40
   0   3   4  814.82   30.10
  -1  -3  -4   11.10    3.00
  -1  -3  -4   13.10    1.80
  -1  -3  -4    2.90    2.50
   1   3   4   10.20    3.10
   1   3   4    5.60    2.70
  -2  -3  -4  826.92   32.40
  -2  -3  -4  804.92   30.70
  -2  -3  -4  829.52   28.20
   2   3   4  806.02   28.20
   2   3   4  801.72   32.00
   2   3   4  785.12   30.80
  -3  -3  -4    2.00    2.10
  -3  -3  -4    6.70    3.70
   3   3   4    0.10    2.00
   3   3   4    3.10    2.00
  -4  -3  -4  467.65   24.30
  -4  -3  -4  500.05   22.40
   4   3   4  517.55   22.60
   4   3   4  512.15   23.90
  -5  -3  -4  681.83   30.60
   5   3   4  637.04   31.40
   5   3   4  692.53   29.70
   6   3   4    3.50    4.40
   6   3   4    1.70    4.20
   6   3   4    0.50    4.20
   7   3   4   19.20    6.00
   7   3   4   23.80    7.80
   5  -4  -4   21.40    8.20
  -5   4   4   17.40    6.80
   4  -4  -4  202.58   18.10
  -4   4   4  226.18   15.40
   3  -4  -4  852.21   30.40
   3  -4  -4  872.31   30.30
   3  -4  -4  872.91   40.80
  -3   4   4  887.61   40.20
  -3   4   4  929.81   37.70
   2  -4  -4  449.76   17.20
  -2   4   4  436.16   22.40
  -2   4   4  430.56   17.10
  -2   4   4  450.65   21.50
   1  -4  -4   36.30    3.90
   1  -4  -4   34.70    4.80
  -1   4   4   37.80    4.10
  -1   4   4   41.60    5.30
  -1   4   4   40.00    6.10
   0  -4  -4 1021.90   38.50
   0  -4  -4 1024.30   38.20
   0  -4  -4 1035.20   38.10
   0   4   4 1033.00   39.80
   0   4   4 1088.99   40.00
  -1  -4  -4 1806.02   63.19
  -1  -4  -4 1701.43   58.29
   1   4   4 1746.83   62.69
   1   4   4 1741.13   62.79
  -2  -4  -4  189.18   11.80
   2   4   4  175.08   10.50
  -3  -4  -4  180.38   12.20
   3   4   4  213.18   11.90
   3   4   4  176.28    8.30
   3   4   4  189.48    8.50
  -4  -4  -4  127.89   11.30
   4   4   4  129.89    9.40
   4   4   4  133.99    8.80
   4   4   4  137.39   10.00
  -5  -4  -4  199.28   15.70
   5   4   4  183.68   13.00
   5   4   4  220.58   13.60
   6   4   4   37.30    8.80
   6   4   4   36.20    7.80
   6   4   4   44.00    8.00
   7   4   4   -6.90    3.60
   7   4   4   -9.20    3.80
   7   4   4   -8.20    4.20
   5  -5  -4   32.40   10.80
  -5   5   4   37.80    8.40
   4  -5  -4  126.59   14.60
  -4   5   4  112.09   11.40
   3  -5  -4   34.60    8.50
   3  -5  -4   33.10    3.20
  -3   5   4   20.40    6.90
  -3   5   4   32.20    7.00
  -3   5   4   26.50    3.20
   2  -5  -4  180.18    9.80
  -2   5   4  209.38   14.30
  -2   5   4  195.18   13.20
  -2   5   4  181.88    9.90
   1  -5  -4  817.12   31.40
  -1   5   4  790.02   33.70
  -1   5   4  811.72   31.20
  -1   5   4  794.02   33.40
   0  -5  -4  514.95   22.00
   0  -5  -4  527.95   22.30
   0  -5  -4  536.05   23.10
   0   5   4  505.75   24.00
   0   5   4  609.84   25.80
  -1  -5  -4    2.20    1.10
  -1  -5  -4    4.40    3.00
  -1  -5  -4    0.10    1.00
   1   5   4    3.30    2.90
  -2  -5  -4  195.38   12.60
   2   5   4  198.98   12.30
  -3  -5  -4  203.98   14.10
   3   5   4  204.58   13.00
  -4  -5  -4  144.29   12.60
   4   5   4  148.09   11.20
   4   5   4  119.89    7.30
   4   5   4  144.99    7.40
  -5  -5  -4   39.50    8.60
   5   5   4   44.40    6.40
   5   5   4   42.10    7.80
  -6  -5  -4   38.40    9.00
   6   5   4   47.20    8.30
   6   5   4   55.49    8.50
   7   5   4  225.28   16.80
   7   5   4  196.38   16.10
   7   5   4  197.78   17.90
   4  -6  -4   66.19   13.70
  -4   6   4   59.89   15.60
   3  -6  -4    1.00    5.70
  -3   6   4    6.30    4.50
  -3   6   4   11.20    5.80
   2  -6  -4   50.09    5.40
  -2   6   4   33.70    6.00
  -2   6   4   40.90    7.50
  -2   6   4   35.00    7.90
   1  -6  -4   16.20    4.30
  -1   6   4   27.90    6.50
  -1   6   4   25.80    5.90
   0  -6  -4  101.69    7.40
   0  -6  -4  107.29    9.20
   0  -6  -4  102.69    7.90
   0   6   4  104.29    9.50
  -1  -6  -4  181.98    8.00
  -1  -6  -4  177.68    8.00
  -1  -6  -4  179.38   12.50
   1   6   4  215.08   15.00
  -2  -6  -4  529.05   26.40
   2   6   4  537.95   25.20
  -3  -6  -4  426.16   23.20
   3   6   4  420.66   21.80
  -4  -6  -4   81.09    9.60
   4   6   4   82.89    9.40
  -5  -6  -4   30.60    7.70
   5   6   4   25.50    6.80
   5   6   4   20.60    3.70
  -6  -6  -4  176.78   16.50
   6   6   4  134.29   10.30
   6   6   4  173.38   14.10
   3  -7  -4  171.58    9.80
   3  -7  -4  175.48   16.70
  -3   7   4  188.38   15.80
   2  -7  -4  153.08   14.10
   2  -7  -4  172.98   11.10
  -2   7   4  157.68   13.70
  -2   7   4  150.98   13.10
   1  -7  -4  218.38   15.10
   1  -7  -4  250.87   14.60
  -1   7   4  194.78   15.00
  -1   7   4  233.08   15.10
   0  -7  -4    1.30    4.00
   0  -7  -4    4.90    3.40
   0   7   4    3.10    4.60
  -1  -7  -4  861.71   31.00
  -1  -7  -4  926.51   38.40
  -1  -7  -4  848.52   31.00
   1   7   4  868.91   38.00
  -2  -7  -4  790.52   35.80
   2   7   4  757.62   34.40
  -3  -7  -4  534.85   27.80
   3   7   4  472.35   25.20
  -4  -7  -4  567.34   30.70
   4   7   4  561.74   28.50
  -5  -7  -4    2.50    5.40
   5   7   4   -4.80    4.00
  -6  -7  -4   42.40    9.90
   6   7   4   31.20    8.90
   2  -8  -4   30.00    7.90
  -2   8   4   23.90    7.30
   1  -8  -4   28.20    6.10
   1  -8  -4   21.10    6.50
  -1   8   4   30.90    7.20
   0  -8  -4  173.08   11.50
   0  -8  -4  166.58   13.10
   0   8   4  181.58   14.50
  -1  -8  -4   78.69    5.00
  -1  -8  -4  103.39   10.50
  -1  -8  -4   83.59    4.90
   1   8   4  102.29   10.90
  -2  -8  -4   59.99    9.70
   2   8   4   78.69   10.80
  -3  -8  -4    8.40    5.70
   3   8   4    1.80    4.80
  -4  -8  -4  163.08   15.50
   4   8   4  136.59   13.30
  -5  -8  -4  611.24   33.80
   5   8   4  538.85   30.30
  -6  -8  -4  125.29   15.50
   6   8   4  109.39   13.30
   1  -9  -4   20.90    5.50
   1  -9  -4   20.40    6.40
  -1   9   4   16.50    7.10
   0  -9  -4  167.18   11.90
   0  -9  -4  172.88   13.70
   0   9   4  183.28   15.50
  -1  -9  -4  135.49   13.30
   1   9   4  117.29   17.50
  -2  -9  -4   17.60    6.70
   2   9   4   10.20    7.30
  -3  -9  -4  107.69   13.00
   3   9   4  120.99   13.20
  -4  -9  -4  131.19   14.70
   4   9   4   80.39   12.20
  -5  -9  -4   42.20   10.90
   5   9   4   34.20    9.00
   0  10   4  148.99   15.60
   1  10   4   46.20   10.20
  -2 -10  -4  176.88   16.40
   2  10   4  191.18   17.00
  -3 -10  -4   13.70    6.80
   3  10   4   -3.80    5.30
   4   9  -5   70.59   12.70
  -4  -9   5   66.59   12.80
   3   9  -5   79.09   12.30
  -3  -9   5  103.09   13.30
   2   9  -5   58.99   10.90
  -2  -9   5   36.20    9.50
   1   9  -5  131.79   10.60
  -1  -9   5   77.79   13.00
   0   9  -5  300.97   18.70
   0   9  -5  257.57   18.60
   0  -9   5  267.87   20.60
  -1   9  -5   19.60    5.80
  -1   9  -5    0.50    5.00
   1  -9   5   -0.10    4.70
   5   8  -5   31.00    9.40
  -5  -8   5   31.30    8.70
   4   8  -5   99.99    8.20
   4   8  -5   63.99   11.90
  -4  -8   5   89.79   13.70
   3   8  -5   93.49    7.80
  -3  -8   5   56.09   10.80
   2   8  -5  301.47   16.60
   2   8  -5  236.98   17.80
  -2  -8   5  317.77   21.70
   1   8  -5   30.20    7.20
   1   8  -5   43.10    9.10
  -1  -8   5   37.90    8.60
   0   8  -5    6.80    4.60
   0   8  -5   19.50    5.90
   0  -8   5    7.90    5.50
  -1   8  -5   11.00    5.00
  -1   8  -5    8.20    4.30
   1  -8   5   11.80    6.00
  -2   8  -5   38.90   10.60
  -2   8  -5   30.90    6.90
   2  -8   5   41.20    8.40
   5   7  -5   60.69   10.20
   5   7  -5   91.69   13.60
  -5  -7   5   96.69   12.50
   4   7  -5   92.79   11.10
   4   7  -5   81.79    9.30
  -4  -7   5   86.79   13.00
   3   7  -5    7.50    5.50
   3   7  -5    9.70    3.90
  -3  -7   5    3.40    4.10
   2   7  -5   -1.60    3.50
   2   7  -5    6.20    3.70
  -2  -7   5    3.50    5.00
   1   7  -5  213.58   14.80
   1   7  -5  240.48   15.10
  -1  -7   5  229.38   17.20
   0   7  -5  210.88   14.30
   0   7  -5  219.08   15.90
   0  -7   5  209.38   16.10
  -1   7  -5  192.98   13.20
  -1   7  -5  179.38   14.90
   1  -7   5  180.58   15.00
  -2   7  -5  612.54   32.50
  -2   7  -5  548.85   26.50
   2  -7   5  598.74   30.50
  -3   7  -5  148.49   15.00
  -3   7  -5  120.49   10.60
   3  -7   5  114.19   12.10
   6   6  -5    5.20    5.90
  -6  -6   5    5.70    5.00
   5   6  -5   -2.60    5.00
   5   6  -5    2.90    5.40
  -5  -6   5    3.50    4.50
   4   6  -5   27.50    6.80
   4   6  -5   21.20    6.30
  -4  -6   5   27.70    7.60
   3   6  -5  177.48   13.70
   3   6  -5  169.18   12.20
  -3  -6   5  171.88   14.40
   2   6  -5  237.68   14.30
   2   6  -5  259.87   15.90
  -2  -6   5  234.98   16.50
   1   6  -5  718.53   31.60
  -1  -6   5  745.73   34.30
   0   6  -5  480.05   21.90
   0   6  -5  463.95   23.50
   0  -6   5  414.36   23.60
  -1   6  -5 1665.23   65.89
  -1   6  -5 1645.74   61.49
   1  -6   5 1664.03   65.19
  -2   6  -5  296.97   20.10
  -2   6  -5  260.57   14.90
   2  -6   5  289.67   18.50
  -3   6  -5  330.47   17.20
  -3   6  -5  350.96   23.90
   3  -6   5  326.07   20.50
  -4   6  -5   34.70    8.60
  -4   6  -5   11.70    8.30
   4  -6   5   16.90    6.20
   6   5  -5   -8.60    5.10
   6   5  -5    5.10    5.80
  -6  -5   5    4.60    4.00
   5   5  -5   68.49    9.30
   5   5  -5   70.49   11.20
  -5  -5   5   58.69    9.20
   4   5  -5  122.69   11.40
   4   5  -5  139.89   12.40
  -4  -5   5  129.79   11.90
   3   5  -5  420.76   21.10
   3   5  -5  422.96   22.00
  -3  -5   5  426.86   23.00
   2   5  -5   38.40    6.50
   2   5  -5   25.90    5.60
  -2  -5   5   34.90    8.40
   1   5  -5  241.98   13.90
   1   5  -5  234.28   13.70
  -1  -5   5  213.88   14.60
   0   5  -5  420.56   19.80
   0   5  -5  458.75   22.20
   0  -5   5  449.06   22.80
  -1   5  -5  621.14   25.40
  -1   5  -5  614.04   29.20
   1  -5   5  581.84   28.70
  -2   5  -5   74.89    6.80
  -2   5  -5   75.29   10.00
   2  -5   5   75.89    9.20
  -3   5  -5  286.57   14.70
  -3   5  -5  318.57   21.60
   3  -5   5  278.47   18.00
  -4   5  -5  175.18   10.80
  -4   5  -5  200.68   18.40
   4  -5   5  174.28   14.50
  -5   5  -5  102.99   16.60
   5  -5   5   68.19   10.90
   6   4  -5   -6.60    5.10
   6   4  -5    1.40    5.30
  -6  -4   5    3.40    3.90
   5   4  -5  217.38   16.60
   5   4  -5  219.98   16.50
  -5  -4   5  224.08   16.00
   4   4  -5   35.00    7.30
   4   4  -5   21.10    6.40
  -4  -4   5   24.60    6.00
   3   4  -5  135.19   12.50
   3   4  -5  133.69   10.60
  -3  -4   5  111.09   10.20
   2   4  -5   63.99    7.00
   2   4  -5   70.69    7.20
  -2  -4   5   62.79    7.50
  -2  -4   5   57.79    7.30
   1   4  -5  950.30   37.50
   1   4  -5  980.30   38.30
  -1  -4   5 1036.80   39.70
  -1  -4   5  946.11   37.90
   0   4  -5 1243.98   46.20
   0   4  -5 1234.78   48.60
   0   4  -5 1313.47   46.60
   0  -4   5 1292.27   49.50
  -1   4  -5  687.93   26.90
  -1   4  -5  692.53   30.90
   1  -4   5  674.33   26.80
   1  -4   5  731.53   30.60
  -2   4  -5    8.70    5.30
  -2   4  -5   11.90    3.10
   2  -4   5   11.30    4.60
   2  -4   5    6.80    2.50
  -3   4  -5  282.07   12.80
  -3   4  -5  269.27   18.60
   3  -4   5  240.28   12.40
  -4   4  -5  181.98   10.40
  -4   4  -5  187.08   16.80
   4  -4   5  201.38   14.40
  -5   4  -5   73.49   13.60
  -5   4  -5   43.10    5.70
   5  -4   5   33.70    7.80
   6   3  -5    6.90    6.20
  -6  -3   5   17.00    6.50
  -6  -3   5   12.30    5.10
   5   3  -5  206.28   16.20
  -5  -3   5  223.98   16.80
  -5  -3   5  212.48   15.60
   4   3  -5   73.29    9.40
  -4  -3   5   83.59    8.40
  -4  -3   5   90.19    9.10
   3   3  -5   16.70    4.60
  -3  -3   5    9.70    4.00
  -3  -3   5   12.20    4.20
   2   3  -5  705.53   29.10
  -2  -3   5  734.53   29.50
  -2  -3   5  675.13   28.80
  -2  -3   5  689.83   28.80
   1   3  -5  431.56   18.30
   1   3  -5  408.36   19.00
   1   3  -5  407.96   17.90
  -1  -3   5  423.56   19.40
  -1  -3   5  412.86   18.80
   0   3  -5   53.29    4.40
   0   3  -5   42.70    4.10
   0   3  -5   40.40    5.70
   0  -3   5   52.79    6.40
   0  -3   5   50.79    6.00
  -1   3  -5  139.99    9.80
  -1   3  -5  124.49    6.80
   1  -3   5  126.99    9.50
   1  -3   5  134.19    6.90
  -2   3  -5   65.49    8.00
  -2   3  -5   59.29    4.40
   2  -3   5   58.29    7.00
   2  -3   5   53.49    4.10
  -3   3  -5  315.97   19.90
  -3   3  -5  326.97   13.60
   3  -3   5  300.67   13.30
   3  -3   5  303.17   17.20
  -4   3  -5  170.98    9.20
  -4   3  -5  187.68   16.10
   4  -3   5  180.58   13.10
   4  -3   5  150.98    8.90
  -5   3  -5   20.00    3.90
   5  -3   5   16.00    6.00
  -6   3  -5  375.06   27.60
   6  -3   5  326.77   21.50
   6   2  -5  290.67   21.80
  -6  -2   5  283.97   19.90
   5   2  -5    2.60    5.20
  -5  -2   5    3.40    3.30
  -5  -2   5    1.80    3.70
   4   2  -5  128.39   11.70
  -4  -2   5  126.29   10.70
  -4  -2   5  121.39    9.40
   3   2  -5   35.00    6.60
   3   2  -5   34.80    5.20
  -3  -2   5   40.40    5.70
  -3  -2   5   31.70    5.80
   2   2  -5 1493.45   55.89
   2   2  -5 1594.44   57.59
  -2  -2   5 1654.63   56.59
  -2  -2   5 1502.25   56.49
  -2  -2   5 1557.34   57.59
   1   2  -5   19.20    4.60
   1   2  -5   21.40    4.10
  -1  -2   5   18.00    3.60
  -1  -2   5   23.00    4.90
  -1  -2   5   16.10    4.10
   0   2  -5   13.30    3.70
   0   2  -5   11.50    2.60
   0   2  -5    9.30    4.00
   0   2  -5    9.50    2.30
   0  -2   5    8.30    3.60
   0  -2   5    9.90    4.40
  -1   2  -5  505.95   18.50
  -1   2  -5  557.94   22.10
  -1   2  -5  518.95   22.80
   1  -2   5  493.45   18.40
   1  -2   5  506.15   21.70
   1  -2   5  480.35   22.10
  -2   2  -5  698.03   24.20
  -2   2  -5  692.43   30.20
   2  -2   5  664.53   28.40
   2  -2   5  684.63   24.20
  -3   2  -5  679.73   24.90
  -3   2  -5  665.73   31.70
   3  -2   5  694.83   29.60
   3  -2   5  696.13   25.00
  -4   2  -5    2.40    2.00
  -4   2  -5   -6.10    3.80
   4  -2   5    1.70    3.50
   4  -2   5    0.50    4.00
  -5   2  -5  497.25   20.50
  -5   2  -5  453.95   28.20
   5  -2   5  491.65   24.90
  -6   2  -5   10.10    6.30
  -6   2  -5    3.60    4.00
   6  -2   5  -11.30    4.10
   6   1  -5   -3.20    3.00
  -6  -1   5   -1.10    4.10
   5   1  -5    2.30    5.00
   5   1  -5    2.40    2.50
  -5  -1   5    0.40    3.80
   4   1  -5  622.14   25.70
   4   1  -5  652.93   31.50
  -4  -1   5  656.53   29.10
  -4  -1   5  633.84   26.10
   3   1  -5  403.76   17.60
   3   1  -5  433.96   21.60
  -3  -1   5  406.36   19.70
  -3  -1   5  427.66   17.90
   2   1  -5 3707.83  127.19
   2   1  -5 3667.23  127.29
   2   1  -5 3633.44  124.09
  -2  -1   5 3672.43  127.19
  -2  -1   5 3682.03  125.79
   1   1  -5  131.09    8.30
   1   1  -5  116.69    6.80
   1   1  -5  108.09    6.70
  -1  -1   5  110.99    7.70
  -1  -1   5  116.49    7.00
  -1  -1   5  123.79    7.20
   0   1  -5  250.77   12.10
   0   1  -5  279.97   11.00
   0  -1   5  271.57   11.00
   0  -1   5  287.87   13.00
   0  -1   5  273.47   12.50
  -1   1  -5 6346.17  227.28
   1  -1   5 6258.87  227.58
  -2   1  -5  189.78   12.10
  -2   1  -5  194.58    7.00
  -2   1  -5  206.48   11.20
   2  -1   5  202.38    7.20
   2  -1   5  182.58   11.00
  -3   1  -5   15.70    2.20
  -3   1  -5   11.10    4.80
   3  -1   5   13.20    2.10
   3  -1   5   14.40    4.20
  -4   1  -5    6.40    5.10
  -4   1  -5    5.80    2.10
   4  -1   5    1.70    1.80
   4  -1   5    4.80    3.70
  -5   1  -5   55.09    5.40
  -5   1  -5   42.60    9.20
   5  -1   5   46.10    8.10
  -6   1  -5  124.19   14.80
   6  -1   5  109.29   11.90
   6   0  -5   52.79   12.30
   6   0  -5   33.70    4.90
  -6   0   5   56.79    9.50
   5   0  -5  225.58   19.00
   5   0  -5  263.47   12.30
  -5   0   5  250.07   16.60
   4   0  -5 1651.03   65.59
   4   0  -5 1580.54   56.79
  -4   0   5 1648.54   62.09
   3   0  -5  505.15   19.10
   3   0  -5  484.95   24.50
  -3   0   5  504.35   22.60
  -3   0   5  494.35   19.20
   2   0  -5  288.37   11.50
   2   0  -5  272.37   14.80
   2   0  -5  288.77   13.80
   2   0  -5  299.57   15.40
  -2   0   5  286.77   15.30
  -2   0   5  275.87   13.90
  -2   0   5  289.57   11.60
   1   0  -5 1046.50   38.60
   1   0  -5 1084.19   37.30
   1   0  -5 1083.29   40.00
  -1   0   5 1104.59   40.10
  -1   0   5 1064.89   38.80
  -1   0   5 1055.89   37.30
   0   0  -5  456.35   18.20
   0   0  -5  447.26   16.60
   0   0  -5  453.25   17.20
   0   0   5  455.35   16.60
   0   0   5  413.96   17.10
   0   0   5  431.96   17.90
  -1   0  -5  630.94   23.90
  -1   0  -5  504.45   22.90
  -1   0  -5  626.04   20.50
   1   0   5  618.04   20.40
   1   0   5  622.84   23.70
  -2   0  -5   48.80    6.00
  -2   0  -5   49.40    5.10
   2   0   5   54.89    5.60
   2   0   5   45.90    2.50
   2   0   5   48.40    5.70
   2   0   5   47.70    2.80
  -3   0  -5  313.67   17.10
   3   0   5  312.77   12.50
   3   0   5  320.97   16.10
   3   0   5  308.77   12.50
  -4   0  -5 1474.15   57.79
  -4   0  -5 1447.36   50.99
   4   0   5 1431.96   51.59
   4   0   5 1413.06   55.29
  -5   0  -5  727.13   34.70
   5   0   5  660.03   27.30
   5   0   5  675.13   31.40
  -6   0  -5    4.50    6.20
   6   0   5   14.40    4.10
   6   0   5   16.90    6.50
  -7   0  -5   58.49   12.70
   7   0   5   36.20    9.40
   7   0   5   40.50    7.30
   6  -1  -5   33.10   10.90
  -6   1   5   20.70    8.00
   5  -1  -5    2.60    5.00
  -5   1   5   -0.20    3.60
   4  -1  -5  130.19    5.70
   4  -1  -5  121.89    5.60
   4  -1  -5  148.79   13.80
  -4   1   5  129.09   10.90
   3  -1  -5  260.17   16.70
   3  -1  -5  265.57    9.40
  -3   1   5  275.67   14.80
   2  -1  -5   52.09    6.60
  -2   1   5   58.29    5.90
   1  -1  -5  595.04   23.90
   1  -1  -5  601.14   24.00
  -1   1   5  532.65   23.50
  -1   1   5  574.24   22.70
  -1   1   5  582.64   19.90
   0  -1  -5 6228.48  214.78
   0   1   5 5727.73  213.58
  -1  -1  -5 2155.88   74.19
   1   1   5 2520.35   76.59
   1   1   5 2131.29   74.29
   1   1   5 2110.09   76.09
   1   1   5 2131.99   75.49
  -2  -1  -5   97.39    7.20
   2   1   5  109.09    5.40
   2   1   5   98.99    7.10
   2   1   5  101.79    5.20
   2   1   5   92.19    7.20
   2   1   5   95.59    6.90
  -3  -1  -5  207.28   12.30
   3   1   5  207.68   12.00
   3   1   5  204.48   12.10
   3   1   5  210.18    9.50
   3   1   5  187.98    9.30
  -4  -1  -5   25.30    6.10
   4   1   5   26.40    4.10
   4   1   5   28.30    4.20
   4   1   5   24.90    5.70
  -5  -1  -5  248.68   17.40
   5   1   5  257.47   16.60
   5   1   5  263.67   13.70
  -6  -1  -5   20.80    7.30
   6   1   5   14.00    4.60
   6   1   5   13.00    5.50
  -7  -1  -5   18.00    8.50
   7   1   5   -6.20    4.10
   7   1   5    2.50    5.30
   6  -2  -5   46.30   12.20
  -6   2   5   45.80    9.00
   5  -2  -5  249.28   20.80
  -5   2   5  240.78   16.60
   4  -2  -5 1592.84   67.59
  -4   2   5 1696.43   63.59
   3  -2  -5    3.50    3.70
  -3   2   5    3.20    3.10
   2  -2  -5 1278.47   49.30
  -2   2   5 1233.58   47.10
   1  -2  -5 1968.10   70.29
   1  -2  -5 1993.00   71.09
   1  -2  -5 2079.89   71.79
  -1   2   5 2035.30   70.69
  -1   2   5 2025.50   66.69
  -1   2   5 1936.31   66.49
   0  -2  -5  326.87   14.50
   0  -2  -5  345.97   13.80
   0  -2  -5  353.76   14.60
   0   2   5  345.57   13.70
   0   2   5  347.17   14.80
   0   2   5  336.97   14.50
  -1  -2  -5  191.68    8.90
  -1  -2  -5  187.78    9.90
  -1  -2  -5  182.58    8.50
   1   2   5  194.18    8.50
   1   2   5  182.58    9.60
   1   2   5  185.78    9.10
  -2  -2  -5 3422.16  111.49
  -2  -2  -5 3372.36  111.09
  -2  -2  -5 3340.67  113.69
   2   2   5 2821.02  110.69
   2   2   5 3338.17  111.19
   2   2   5 3433.46  113.59
  -3  -2  -5    0.20    2.50
  -3  -2  -5   -0.80    1.90
   3   2   5    3.40    2.80
   3   2   5    2.60    2.20
   3   2   5    0.60    1.70
  -4  -2  -5  367.16   18.80
   4   2   5  358.26   19.30
   4   2   5  362.56   16.60
   5   2   5   22.90    5.10
   5   2   5   36.00    7.70
  -6  -2  -5    1.70    4.30
   6   2   5   -5.20    3.10
  -7  -2  -5  376.16   24.80
   7   2   5  338.57   24.70
   7   2   5  384.46   20.70
   5  -3  -5   15.60    7.70
  -5   3   5    1.00    4.10
   4  -3  -5    6.40    5.40
  -4   3   5    9.50    5.00
   3  -3  -5  602.94   29.90
  -3   3   5  538.05   29.10
   2  -3  -5  715.63   30.10
  -2   3   5  560.74   26.80
   1  -3  -5   92.69    7.30
   1  -3  -5   96.89    5.00
   1  -3  -5  108.69    8.20
  -1   3   5   94.19    5.00
  -1   3   5   96.89    7.20
   0  -3  -5  307.87   14.40
   0  -3  -5  313.97   13.90
   0  -3  -5  316.87   13.60
   0  -3  -5  310.27   13.70
   0   3   5  318.17   14.90
   0   3   5  316.27   13.50
  -1  -3  -5  531.75   22.50
  -1  -3  -5  540.55   20.00
  -1  -3  -5  592.74   22.40
   1   3   5  536.15   20.00
   1   3   5  574.84   22.50
  -2  -3  -5 3201.38  104.69
  -2  -3  -5 3137.79  106.89
  -2  -3  -5 3104.79  108.79
   2   3   5 3012.70  106.69
   2   3   5 3153.28  104.49
  -3  -3  -5 1024.80   38.10
  -3  -3  -5 1026.80   41.50
   3   3   5 1024.80   40.10
   3   3   5 1070.39   39.00
   3   3   5 1021.60   37.90
  -4  -3  -5   94.79    9.70
  -4  -3  -5   97.09    8.00
   4   3   5   95.19    7.80
  -5  -3  -5  423.66   22.10
   5   3   5  429.26   23.50
   5   3   5  432.06   20.80
  -6  -3  -5  134.69   12.60
   6   3   5  156.38   11.80
   6   3   5  137.89   13.50
   7   3   5   70.89    9.80
   7   3   5   65.49   11.00
   7   3   5   74.09   12.10
   5  -4  -5    0.00    6.10
   4  -4  -5  127.29   14.30
  -4   4   5  135.09   12.10
   3  -4  -5    0.10    4.40
  -3   4   5   -2.30    3.20
   2  -4  -5   98.59   10.00
   2  -4  -5  103.69    5.20
  -2   4   5  126.69   10.10
  -2   4   5  109.09    5.30
   1  -4  -5  116.69    9.40
   1  -4  -5  149.49    7.70
  -1   4   5  156.08   10.30
  -1   4   5  147.19    7.60
   0  -4  -5   82.89    5.90
   0  -4  -5   80.59    6.10
   0   4   5   78.49    7.00
   0   4   5   82.09    6.00
  -1  -4  -5  689.23   24.60
  -1  -4  -5  702.83   28.50
  -1  -4  -5  697.53   24.50
   1   4   5  717.43   28.40
   1   4   5  697.63   28.20
  -2  -4  -5  123.69    9.40
   2   4   5  117.19    8.30
  -3  -4  -5    9.80    4.20
   3   4   5   14.80    4.10
   3   4   5   11.40    2.30
  -4  -4  -5   50.49    8.50
   4   4   5   56.89    6.60
  -5  -4  -5   89.79   10.90
   5   4   5   92.89    8.80
   5   4   5  100.99    9.10
   6   4   5   18.70    6.00
   6   4   5   22.50    7.50
   6   4   5   23.80    6.10
   7   4   5   -9.00    4.30
   7   4   5   -6.40    4.40
   5  -5  -5   52.89   13.60
  -5   5   5   41.30    9.20
   4  -5  -5  231.98   22.70
  -4   5   5  240.28   17.40
   3  -5  -5   69.39   12.00
  -3   5   5   62.39    9.40
   2  -5  -5   21.00    3.20
  -2   5   5   17.50    3.20
  -2   5   5   24.50    6.10
   1  -5  -5   92.39    6.70
   1  -5  -5   79.39    8.10
  -1   5   5   88.69    8.20
  -1   5   5   79.59    6.80
   0  -5  -5  148.29    9.60
   0  -5  -5  155.08    9.30
   0  -5  -5  148.79    8.90
   0   5   5  145.59    9.40
   0   5   5  156.28   10.80
  -1  -5  -5  522.35   19.00
  -1  -5  -5  528.05   19.00
  -1  -5  -5  545.85   23.90
   1   5   5  521.45   23.70
  -2  -5  -5  572.24   26.50
   2   5   5  578.74   25.50
  -3  -5  -5  858.41   39.20
   3   5   5  804.32   34.20
  -4  -5  -5  640.44   31.80
   4   5   5  643.24   24.50
   4   5   5  691.23   24.80
   4   5   5  657.03   29.60
  -5  -5  -5  126.19   13.10
   5   5   5  137.29    9.70
   5   5   5  161.18    9.20
   5   5   5  142.79   11.60
  -6  -5  -5   24.20    7.00
   6   5   5   30.60    6.60
   6   5   5   14.80    6.20
   6   5   5   17.70    6.80
   7   5   5    2.00    5.60
   7   5   5    6.50    5.20
   7   5   5    6.90    6.00
   4  -6  -5   31.40    9.10
  -4   6   5   29.90    7.50
   3  -6  -5   14.80    6.60
   3  -6  -5   22.90    2.00
  -3   6   5   11.80    5.30
   2  -6  -5   17.70    7.00
   2  -6  -5   11.60    3.10
  -2   6   5    4.80    3.20
  -2   6   5   16.80    5.80
   1  -6  -5  780.92   34.30
   1  -6  -5  794.32   31.70
  -1   6   5  786.32   34.70
   0  -6  -5 2290.17   81.89
   0  -6  -5 2245.88   80.49
   0  -6  -5 2252.87   80.19
   0   6   5 2311.57   83.69
  -1  -6  -5    0.50    1.40
  -1  -6  -5    1.30    3.30
  -1  -6  -5    2.20    1.50
   1   6   5    0.90    3.30
  -2  -6  -5    6.50    3.90
   2   6   5    6.80    4.40
  -3  -6  -5  513.45   27.20
   3   6   5  564.34   26.20
  -4  -6  -5    8.80    5.30
   4   6   5   14.20    5.20
  -5  -6  -5  147.99   14.00
   5   6   5  125.29    6.80
   5   6   5  134.69   12.00
   5   6   5  129.99    6.90
  -6  -6  -5    7.40    6.30
   6   6   5   -5.40    3.30
   6   6   5    3.60    4.00
   3  -7  -5  266.67   21.00
  -3   7   5  246.58   18.70
   2  -7  -5  155.08   14.00
   2  -7  -5  115.79    8.70
  -2   7   5  133.79   12.60
   1  -7  -5    0.90    2.70
   1  -7  -5    3.10    4.10
  -1   7   5    8.10    4.80
   0  -7  -5  102.19    9.50
   0  -7  -5  105.79    8.50
   0   7   5  102.99   10.50
  -1  -7  -5  405.56   21.40
  -1  -7  -5  392.66   14.80
  -1  -7  -5  366.86   14.70
   1   7   5  412.96   22.10
  -2  -7  -5   60.89    9.30
   2   7   5   50.49    8.00
  -3  -7  -5   81.99   10.30
   3   7   5   85.19    9.90
  -4  -7  -5  140.19   13.80
   4   7   5  126.69   11.90
   5   7   5   -1.50    3.30
  -6  -7  -5  189.68   17.70
   6   7   5  136.99   14.40
   2  -8  -5   59.09   11.00
   2  -8  -5   70.49    7.40
  -2   8   5   74.89   11.60
   1  -8  -5  183.38   13.20
   1  -8  -5  216.88   15.40
  -1   8   5  208.18   16.10
   0  -8  -5   30.30    5.60
   0  -8  -5   37.50    7.20
   0   8   5   32.80    7.80
  -1  -8  -5   37.80    7.80
   1   8   5   27.80    7.30
  -2  -8  -5  564.34   29.40
   2   8   5  563.54   28.90
  -3  -8  -5   78.69   12.00
   3   8   5   79.89   11.40
  -4  -8  -5   54.69   10.80
   4   8   5   58.49   10.40
  -5  -8  -5   26.40    8.00
   5   8   5   14.90    6.50
  -6  -8  -5   90.39   15.10
   6   8   5   81.69   12.90
   1  -9  -5   10.40    4.70
   1  -9  -5    5.50    5.20
  -1   9   5   11.70    6.50
   0  -9  -5    5.10    3.30
   0  -9  -5   -0.70    4.00
   0   9   5    0.40    5.70
  -1  -9  -5    8.70    4.90
   1   9   5    3.70    5.70
  -2  -9  -5   27.20    7.60
   2   9   5   26.70    7.70
  -3  -9  -5   23.80    7.60
   3   9   5   14.50    7.00
  -4  -9  -5  135.99   15.20
   4   9   5  110.69   13.00
  -5  -9  -5  129.99   15.80
   5   9   5   96.39   14.60
   0  10   5  170.78   16.90
  -1 -10  -5   11.50    6.50
   1  10   5   15.00    7.40
  -2 -10  -5    8.90    5.50
   2  10   5    0.60    5.60
  -3 -10  -5  348.47   24.30
   3  10   5  293.57   22.10
   3   9  -6  165.98   15.60
  -3  -9   6  165.28   17.60
   2   9  -6   37.80    9.30
  -2  -9   6   46.80   10.10
   1   9  -6   38.40    8.90
  -1  -9   6   44.80   10.60
   0   9  -6   44.70    8.40
   0  -9   6   36.30    9.50
   4   8  -6  133.39   14.40
   4   8  -6  154.88   12.60
  -4  -8   6  111.49   13.90
   3   8  -6    4.70    5.00
  -3  -8   6    8.20    6.10
   2   8  -6   52.39    9.20
   2   8  -6   73.89    8.20
   1   8  -6    0.40    4.40
   1   8  -6    9.00    4.50
  -1  -8   6    5.90    6.50
   0   8  -6  198.68   14.40
   0   8  -6  236.28   17.00
   0  -8   6  188.28   17.20
  -1   8  -6  243.38   16.10
  -1   8  -6  257.87   18.80
   1  -8   6  205.48   19.50
  -2   8  -6   49.99   10.00
  -2   8  -6   18.80    6.00
   2  -8   6   31.20    8.50
   5   7  -6   41.50    9.40
   5   7  -6   48.40   10.10
  -5  -7   6   48.50    9.80
   4   7  -6  112.49   17.20
  -4  -7   6  112.99   13.50
   3   7  -6   34.10    6.80
   3   7  -6   23.70    6.70
  -3  -7   6   27.40    7.80
   2   7  -6   84.19   10.00
   2   7  -6   88.89    9.10
  -2  -7   6  109.49   12.30
   1   7  -6  334.77   18.80
   1   7  -6  302.77   18.20
  -1  -7   6  309.47   20.80
   0   7  -6  127.99   10.80
   0   7  -6  110.59   11.60
   0  -7   6  116.49   12.30
  -1   7  -6    4.00    3.90
  -1   7  -6    3.30    5.10
   1  -7   6    6.20    5.40
  -2   7  -6   30.90    8.40
  -2   7  -6   32.80    6.20
   2  -7   6   16.20    6.60
  -3   7  -6   -2.00    4.30
  -3   7  -6   12.10    6.10
   3  -7   6   12.00    6.80
   5   6  -6  332.17   22.40
   5   6  -6  336.87   21.50
  -5  -6   6  360.86   23.00
   4   6  -6   12.00    7.00
   4   6  -6   25.10    7.10
  -4  -6   6   16.80    6.60
   3   6  -6   56.09    9.20
   3   6  -6   56.39    8.80
  -3  -6   6   79.79   10.20
   2   6  -6   35.90    7.10
   2   6  -6   43.20    7.20
  -2  -6   6   37.50    8.30
   1   6  -6    5.20    3.90
   1   6  -6    6.50    4.50
  -1  -6   6    1.20    4.30
   0   6  -6  498.35   23.80
   0   6  -6  565.44   26.80
   0  -6   6  515.35   26.80
  -1   6  -6    2.50    4.30
  -1   6  -6    1.70    3.50
   1  -6   6   -2.80    4.20
  -2   6  -6  425.86   25.90
  -2   6  -6  439.16   20.50
   2  -6   6  456.45   25.50
  -3   6  -6  280.67   15.00
  -3   6  -6  293.07   21.70
   3  -6   6  282.67   19.20
  -4   6  -6   93.89   15.50
   4  -6   6   64.39   10.50
   6   5  -6   76.79   12.00
   6   5  -6   65.39   11.90
  -6  -5   6   97.99   11.10
   5   5  -6   44.90    9.70
   5   5  -6   34.20    8.60
  -5  -5   6   49.20    9.20
   4   5  -6   21.50    7.60
   4   5  -6   22.60    6.90
  -4  -5   6   20.30    6.10
   3   5  -6  205.18   14.50
   3   5  -6  217.08   14.80
  -3  -5   6  214.78   15.40
   2   5  -6  100.29    9.30
  -2  -5   6  111.49   10.70
   1   5  -6   38.20    6.80
   1   5  -6   54.09    7.20
  -1  -5   6   27.30    6.70
   0   5  -6  307.87   17.40
   0   5  -6  291.97   15.00
   0  -5   6  278.67   19.50
  -1   5  -6  299.17   14.80
  -1   5  -6  302.07   18.60
   1  -5   6  296.97   18.30
  -2   5  -6  239.58   17.30
  -2   5  -6  206.38   11.60
   2  -5   6  225.68   15.80
  -3   5  -6   53.79   11.00
  -3   5  -6   34.90    4.90
   3  -5   6   26.10    7.00
  -4   5  -6    3.00    3.00
  -4   5  -6   -1.60    5.70
   4  -5   6   -1.30    4.60
  -5   5  -6   78.69   14.30
   5  -5   6   47.50    9.90
   6   4  -6   -3.20    4.20
   6   4  -6   -2.40    5.20
  -6  -4   6    9.50    4.40
   5   4  -6    5.00    6.10
   5   4  -6    5.10    5.20
  -5  -4   6    1.50    4.50
  -5  -4   6    7.00    4.40
   4   4  -6  134.99   12.00
   4   4  -6  144.19   14.70
  -4  -4   6  129.49   11.20
  -4  -4   6  139.29   11.60
   3   4  -6   14.80    5.20
   3   4  -6   26.00    5.90
  -3  -4   6   18.20    5.50
   2   4  -6    2.50    3.30
   2   4  -6    5.90    4.40
  -2  -4   6    0.50    3.40
   1   4  -6    1.60    2.70
   1   4  -6    1.20    3.70
  -1  -4   6    0.20    3.30
   0   4  -6    1.10    3.30
   0   4  -6    7.40    3.00
   0   4  -6    7.10    2.60
   0  -4   6    6.30    4.00
  -1   4  -6   68.09    8.30
  -1   4  -6   74.69    5.80
   1  -4   6   83.99    5.80
   1  -4   6   68.09    8.20
  -2   4  -6  217.78   10.40
  -2   4  -6  205.28   15.40
   2  -4   6  191.58   13.80
  -3   4  -6   31.00    8.30
  -3   4  -6   32.90    4.00
   3  -4   6   26.80    7.10
  -4   4  -6  413.36   17.30
  -4   4  -6  416.86   26.90
   4  -4   6  412.76   23.40
  -5   4  -6  217.98   19.00
   5  -4   6  164.48   15.10
   6   3  -6   -5.90    5.10
  -6  -3   6    5.00    4.30
  -6  -3   6   -1.60    5.00
   5   3  -6    1.20    5.20
  -5  -3   6    7.00    4.50
  -5  -3   6    0.80    3.90
  -4  -3   6  179.68   12.60
  -4  -3   6  182.78   13.60
   3   3  -6   23.50    5.70
  -3  -3   6   25.40    5.40
  -3  -3   6   29.70    5.70
   2   3  -6    0.60    3.30
  -2  -3   6   -1.10    2.50
  -2  -3   6    1.00    2.80
   1   3  -6   86.89    7.90
   1   3  -6   84.49    6.60
   1   3  -6   80.49    6.30
  -1  -3   6   90.19    7.50
  -1  -3   6   80.19    7.60
   0   3  -6 2963.70   99.89
   0   3  -6 2732.83   99.69
   0   3  -6 2907.81  102.89
   0  -3   6 3116.99  103.29
  -1   3  -6  181.28    8.60
  -1   3  -6  177.18   12.10
  -1   3  -6  178.88    8.50
   1  -3   6  184.88   11.90
  -2   3  -6  386.26   20.50
  -2   3  -6  352.96   13.90
   2  -3   6  313.27   17.90
   2  -3   6  339.17   13.80
  -3   3  -6   47.60    3.90
  -3   3  -6   49.99    9.40
   3  -3   6   44.70    3.80
   3  -3   6   44.10    7.90
  -4   3  -6  203.88   12.20
  -4   3  -6  216.88   17.50
   4  -3   6  183.18    9.30
   4  -3   6  196.88   14.40
  -5   3  -6   13.90    3.20
  -5   3  -6   27.50    9.00
   5  -3   6    8.80    5.90
  -6   3  -6   32.50    9.70
   6  -3   6   20.00    8.30
   6   2  -6   -0.30    3.40
   6   2  -6    1.40    7.10
  -6  -2   6   -0.60    4.20
   5   2  -6  463.55   27.10
  -5  -2   6  459.35   25.00
  -5  -2   6  477.65   22.50
   4   2  -6  286.87   18.50
  -4  -2   6  288.97   15.40
  -4  -2   6  277.57   17.00
   3   2  -6   16.20    5.30
  -3  -2   6   13.50    4.40
  -3  -2   6   17.00    3.90
   2   2  -6 8839.12  316.47
  -2  -2   6 8923.41  316.57
   1   2  -6  161.88    8.90
   1   2  -6  170.38   10.80
   1   2  -6  158.38    9.60
  -1  -2   6  154.48    9.90
  -1  -2   6  159.48    9.00
  -1  -2   6  150.98    9.80
   0   2  -6    5.90    2.10
   0   2  -6    1.10    1.90
   0   2  -6    5.20    3.80
   0   2  -6    9.20    3.20
   0  -2   6   10.80    3.80
   0  -2   6    3.80    2.80
  -1   2  -6   46.20    3.20
  -1   2  -6   51.19    3.20
  -1   2  -6   56.79    6.80
   1  -2   6   50.59    6.20
  -2   2  -6  758.72   25.70
  -2   2  -6  755.82   32.70
   2  -2   6  739.63   31.10
   2  -2   6  737.13   25.70
  -3   2  -6    6.00    1.40
  -3   2  -6    2.10    4.30
   3  -2   6    6.80    3.90
   3  -2   6    6.30    1.50
  -4   2  -6    2.10    5.30
  -4   2  -6    3.40    1.50
   4  -2   6   -3.00    4.10
   4  -2   6    2.90    1.80
  -5   2  -6    0.90    1.90
  -5   2  -6    2.50    5.70
   5  -2   6   -0.20    4.10
  -6   2  -6  566.54   33.60
   6  -2   6  492.95   27.90
   6   1  -6  202.48   18.70
   6   1  -6  198.58   12.10
  -6  -1   6  224.08   17.70
   5   1  -6  249.68   19.50
   5   1  -6  273.97   13.90
  -5  -1   6  258.67   17.50
   4   1  -6   20.40    4.00
   4   1  -6   28.20    7.50
  -4  -1   6   13.90    5.10
  -4  -1   6   25.00    4.30
   3   1  -6   74.99    8.60
   3   1  -6   67.99    5.60
  -3  -1   6   83.49    6.20
  -3  -1   6   72.19    7.40
   2   1  -6  169.58    9.00
   2   1  -6  157.58   10.90
  -2  -1   6  156.08    8.80
  -2  -1   6  183.28   10.20
   1   1  -6  295.37   13.00
   1   1  -6  283.97   14.60
   1   1  -6  288.77   14.00
  -1  -1   6  269.07   14.10
  -1  -1   6  274.77   12.90
   0   1  -6  336.27   15.60
   0   1  -6  341.07   13.30
   0   1  -6  273.87   14.10
   0  -1   6  350.96   15.70
   0  -1   6  341.87   15.00
   0  -1   6  345.07   13.40
  -1   1  -6   23.90    5.10
  -1   1  -6   23.70    1.70
  -1   1  -6   26.70    4.50
   1  -1   6   27.80    4.60
   1  -1   6   32.60    5.40
  -2   1  -6 1951.60   73.79
   2  -1   6 2115.79   73.19
  -3   1  -6 1049.70   43.90
   3  -1   6 1076.09   36.00
   3  -1   6 1050.19   42.10
  -4   1  -6   87.49    5.10
  -4   1  -6   70.79    9.60
   4  -1   6   83.59    5.00
   4  -1   6   65.59    8.20
  -5   1  -6  570.34   30.80
   5  -1   6  496.35   21.40
   5  -1   6  575.74   27.70
  -6   1  -6   51.39   11.10
   6  -1   6   35.30    7.90
   6  -1   6   32.50    5.00
   6   0  -6   22.10    9.70
  -6   0   6   21.20    6.60
   5   0  -6    5.00    5.90
  -5   0   6    6.10    4.80
   4   0  -6  100.59    6.20
   4   0  -6  109.69   11.30
   4   0  -6   98.59    6.20
  -4   0   6   92.79    9.50
   3   0  -6  235.38   15.30
   3   0  -6  209.28    9.70
  -3   0   6  226.88   13.10
  -3   0   6  214.68    9.80
   2   0  -6  746.33   26.90
   2   0  -6  766.42   31.70
  -2   0   6  730.13   26.90
  -2   0   6  748.73   29.80
   1   0  -6 1178.98   45.10
   1   0  -6 1288.77   42.50
  -1   0   6 1248.38   42.50
  -1   0   6 1122.09   44.90
  -1   0   6 1214.08   43.80
   0   0  -6  110.89    6.60
   0   0  -6  110.49    6.00
   0   0  -6  127.89    7.80
   0   0   6  126.59    6.40
   0   0   6  122.29    7.50
   0   0   6  125.39    7.00
  -1   0  -6  807.62   31.10
  -1   0  -6  796.32   27.40
  -1   0  -6  762.92   30.40
   1   0   6  794.52   30.70
   1   0   6  815.82   27.40
   1   0   6  842.62   30.80
  -2   0  -6   64.99    6.80
  -2   0  -6   70.99    6.20
   2   0   6   74.49    6.90
   2   0   6   72.79    6.70
  -3   0  -6   91.29    8.80
   3   0   6  106.79    8.60
   3   0   6   95.59    4.90
   3   0   6  105.49    5.00
  -4   0  -6  219.88   15.60
   4   0   6  211.08    9.80
   4   0   6  194.78   13.40
  -5   0  -6  181.18   15.40
   5   0   6  186.68   10.00
   5   0   6  188.68    9.90
   5   0   6  176.58   13.70
  -6   0  -6  209.88   18.50
   6   0   6  227.78   12.50
   6   0   6  231.98   16.90
  -7   0  -6    4.20    7.10
   7   0   6   -6.00    7.40
   6  -1  -6    5.30    7.10
  -6   1   6    6.80    5.10
   5  -1  -6   26.10    8.80
  -5   1   6   32.90    7.60
   4  -1  -6  405.56   24.50
  -4   1   6  395.56   21.20
   3  -1  -6  383.46   21.80
  -3   1   6  384.96   19.40
   2  -1  -6  165.78   11.70
  -2   1   6  168.28   10.20
   1  -1  -6   36.80    4.50
   1  -1  -6   44.60    5.80
   1  -1  -6   35.80    2.70
  -1   1   6   36.80    5.00
  -1   1   6   40.10    4.80
  -1   1   6   43.80    3.00
   0  -1  -6   62.99    4.60
   0  -1  -6   69.69    5.60
   0  -1  -6   67.39    4.40
   0   1   6   65.79    4.50
   0   1   6   61.09    4.70
   0   1   6   61.69    5.20
  -1  -1  -6 9321.17  336.07
   1   1   6 9999.00  337.17
  -2  -1  -6  360.26   16.30
  -2  -1  -6  347.37   13.50
   2   1   6  350.56   13.50
   2   1   6  370.36   16.80
   2   1   6  336.67   16.60
   2   1   6  358.46   16.10
  -3  -1  -6  776.12   32.10
   3   1   6  756.62   27.80
   3   1   6  761.22   27.90
   3   1   6  785.32   32.30
  -4  -1  -6 5013.80  178.08
   4   1   6 5212.98  177.88
   4   1   6 5179.18  172.48
  -5  -1  -6  136.99   12.70
   5   1   6  158.08   12.70
   5   1   6  138.59    9.10
  -6  -1  -6   16.50    6.40
   6   1   6    5.70    5.10
   6   1   6   12.90    4.10
  -7  -1  -6   97.09   15.20
   7   1   6   77.99   13.50
   7   1   6   76.69    8.60
   6  -2  -6   -9.10    4.40
  -6   2   6    3.30    5.00
   5  -2  -6   31.40    9.30
  -5   2   6   36.50    8.00
   4  -2  -6  467.75   27.40
  -4   2   6  457.45   23.90
  -3   2   6   26.00    5.90
   2  -2  -6   63.99    7.50
  -2   2   6   63.49    6.20
   1  -2  -6  466.15   20.90
   1  -2  -6  438.86   19.70
   1  -2  -6  468.75   20.50
  -1   2   6  467.15   20.10
  -1   2   6  467.15   16.20
   0  -2  -6 2557.94   87.39
   0   2   6 2691.13   86.19
   0   2   6 2460.95   85.99
   0   2   6 2430.36   87.09
  -1  -2  -6    5.00    2.70
  -1  -2  -6    3.10    2.10
   1   2   6    3.20    2.20
   1   2   6    0.90    2.20
   1   2   6    1.70    2.10
  -2  -2  -6  790.32   28.40
  -2  -2  -6  761.92   29.10
   2   2   6  764.02   28.90
   2   2   6  746.13   30.60
   2   2   6  776.72   29.60
   2   2   6  770.02   30.80
  -3  -2  -6  204.58   11.70
   3   2   6  205.98   10.00
   3   2   6  209.18   10.20
   3   2   6  184.88   10.90
   3   2   6  218.98   12.90
  -4  -2  -6  909.01   37.10
   4   2   6  880.21   33.80
   4   2   6  882.21   37.60
   4   2   6  870.91   33.60
  -5  -2  -6   -0.50    3.60
   5   2   6   -1.50    3.40
   5   2   6    1.30    2.60
  -6  -2  -6   32.20    8.40
   6   2   6   25.20    5.60
   6   2   6   43.90    8.80
  -7  -2  -6   27.50    8.00
   7   2   6   -4.30    4.00
   7   2   6    7.20    5.30
   5  -3  -6  568.64   34.00
  -5   3   6  523.65   28.40
   4  -3  -6  158.08   15.60
  -4   3   6  142.39   12.40
   3  -3  -6  823.32   38.50
  -3   3   6  821.62   35.50
   2  -3  -6  981.90   41.10
  -2   3   6  970.90   39.20
   1  -3  -6   14.80    3.70
   1  -3  -6   11.20    1.80
   1  -3  -6   18.30    4.60
  -1   3   6   15.00    2.10
  -1   3   6   15.50    4.00
   0  -3  -6  264.87   12.70
   0  -3  -6  265.97   13.30
   0  -3  -6  298.87   12.60
   0   3   6  278.07   13.70
   0   3   6  267.87   12.10
  -1  -3  -6    0.30    2.30
  -1  -3  -6    3.50    2.30
  -1  -3  -6   -0.30    1.90
   1   3   6   -1.40    2.30
   1   3   6    0.00    1.90
   1   3   6    1.20    1.60
  -2  -3  -6  459.85   20.50
  -2  -3  -6  431.36   16.90
  -2  -3  -6  434.86   18.20
   2   3   6  430.86   18.40
   2   3   6  412.96   16.70
  -3  -3  -6   20.80    4.90
  -3  -3  -6   30.50    4.50
   3   3   6   22.00    3.70
   3   3   6   27.00    4.30
   3   3   6   21.20    3.80
  -4  -3  -6  843.32   34.50
   4   3   6  877.11   34.00
  -5  -3  -6   43.70    7.60
   5   3   6   44.80    6.40
   5   3   6   48.70    8.70
  -6  -3  -6  341.37   20.70
   6   3   6  338.57   21.60
   6   3   6  293.57   17.10
   7   3   6  181.98   17.00
   7   3   6  208.18   14.40
   5  -4  -6   -6.90    5.60
  -5   4   6   13.70    6.10
   4  -4  -6    0.80    6.00
  -4   4   6    4.60    4.80
   3  -4  -6    8.20    6.00
  -3   4   6    3.80    3.90
   2  -4  -6   63.09    8.30
   1  -4  -6  137.09    7.20
   1  -4  -6  126.19    9.70
  -1   4   6  139.39   10.00
  -1   4   6  132.99    7.10
   0  -4  -6  157.98    9.10
   0  -4  -6  154.88    8.90
   0  -4  -6  149.49    8.80
   0   4   6  161.08   10.30
   0   4   6  155.48    8.70
  -1  -4  -6  600.14   21.50
  -1  -4  -6  595.64   24.90
  -1  -4  -6  548.45   21.30
   1   4   6  587.54   24.50
   1   4   6  606.14   24.90
  -2  -4  -6 3331.77  123.59
   2   4   6 3772.52  122.69
  -3  -4  -6  837.22   30.40
  -3  -4  -6  838.72   36.20
   3   4   6  819.82   30.40
   3   4   6  896.41   34.00
  -4  -4  -6   20.30    6.20
  -4  -4  -6   14.60    3.50
   4   4   6   15.40    4.40
   4   4   6   20.00    4.40
  -5  -4  -6  157.38   14.30
  -5  -4  -6  180.78   12.00
   5   4   6  182.68   14.60
   5   4   6  176.98   12.20
   6   4   6   71.89    9.50
   6   4   6   74.79    9.80
   6   4   6   82.49   10.80
   7   4   6   17.80    6.60
   7   4   6   44.60   10.00
   7   4   6   40.60    9.90
  -4   5   6   63.39   10.70
   3  -5  -6  430.96   26.40
  -3   5   6  459.45   24.30
   2  -5  -6  437.66   24.00
   2  -5  -6  426.56   16.10
  -2   5   6  393.36   15.90
  -2   5   6  413.76   22.10
   1  -5  -6   83.49    8.80
   1  -5  -6   94.69    6.50
  -1   5   6   83.39    6.50
  -1   5   6   75.29    8.50
   0  -5  -6  686.73   26.70
   0  -5  -6  636.54   26.10
   0   5   6  612.84   27.90
   0   5   6  611.44   25.80
  -1  -5  -6  287.17   11.60
  -1  -5  -6  275.57   11.50
  -1  -5  -6  297.17   15.60
   1   5   6  295.67   15.80
  -2  -5  -6 1765.12   66.19
   2   5   6 1757.82   64.89
   3   5   6   75.19    7.80
  -4  -5  -6   24.60    7.00
   4   5   6   28.80    3.50
   4   5   6   29.90    6.40
   4   5   6   27.90    3.70
  -5  -5  -6    7.10    5.30
   5   5   6    5.20    3.90
   5   5   6   -1.30    2.50
   6   5   6  150.48   15.10
   6   5   6  135.59   11.30
   7   5   6    1.20    5.90
   7   5   6   -0.10    5.60
   4  -6  -6  352.86   26.10
  -4   6   6  350.46   22.90
   3  -6  -6  124.69   13.60
  -3   6   6  101.59   12.10
   2  -6  -6   30.60    7.70
   2  -6  -6   23.30    3.80
  -2   6   6   24.40    6.70
  -2   6   6   11.80    3.20
   1  -6  -6   94.59    9.80
   1  -6  -6  108.89    8.00
  -1   6   6  117.19   10.30
   0  -6  -6   45.70    4.90
   0  -6  -6   29.00    5.40
   0  -6  -6   37.20    5.70
   0   6   6   32.20    6.90
  -1  -6  -6  482.85   17.90
  -1  -6  -6  480.05   23.30
  -1  -6  -6  475.95   17.90
   1   6   6  486.25   23.80
  -2  -6  -6  105.09   11.60
   2   6   6  112.09    9.50
  -3  -6  -6  455.75   24.90
   3   6   6  489.05   23.90
  -4  -6  -6  610.04   32.00
   4   6   6  676.33   30.30
  -5  -6  -6  182.08   15.80
   5   6   6  171.38   13.20
   5   6   6  146.29    7.10
   5   6   6  175.68   10.10
  -6  -6  -6   -2.00    4.40
   6   6   6    9.10    5.60
   3  -7  -6   59.29   13.90
  -3   7   6   39.00    8.90
   2  -7  -6   70.99    9.90
   2  -7  -6   62.09    5.80
  -2   7   6   52.59    9.50
   1  -7  -6  629.74   30.10
   1  -7  -6  634.74   27.60
  -1   7   6  655.93   31.50
   0  -7  -6  618.04   27.00
   0  -7  -6  660.43   29.00
   0   7   6  633.64   30.40
  -1  -7  -6    9.60    4.60
  -1  -7  -6   13.20    2.20
  -1  -7  -6    9.50    2.10
   1   7   6   11.50    5.50
  -2  -7  -6    7.00    5.00
   2   7   6    9.70    5.10
  -3  -7  -6   11.40    5.70
   3   7   6   12.10    5.40
  -4  -7  -6   24.90    7.40
   4   7   6   23.50    6.60
   5   7   6   23.10    6.70
  -6  -7  -6   -7.70    4.10
   6   7   6   -3.80    5.00
   2  -8  -6   93.59    7.80
   2  -8  -6   80.79   11.40
  -2   8   6   97.29   11.50
   1  -8  -6  200.18   15.40
   1  -8  -6  214.58   15.50
  -1   8   6  233.78   17.30
   0  -8  -6   22.10    5.80
   0  -8  -6   13.70    4.30
   0   8   6   19.60    6.30
  -1  -8  -6   22.70    6.10
   1   8   6   10.20    5.00
  -2  -8  -6   15.00    5.50
   2   8   6    8.40    5.60
  -3  -8  -6  244.58   18.30
   3   8   6  225.58   16.70
  -4  -8  -6  191.38   19.40
   4   8   6  167.08   14.90
  -5  -8  -6    0.90    5.70
   5   8   6    5.00    4.80
  -6  -8  -6  190.48   19.20
   6   8   6  227.68   18.20
   1  -9  -6  175.48   13.10
   1  -9  -6  178.28   14.70
  -1   9   6  175.28   16.20
   0  -9  -6   12.50    4.90
   0   9   6    0.70    5.20
  -1  -9  -6  233.98   16.50
   1   9   6  200.78   16.60
  -2  -9  -6  448.66   27.10
   2   9   6  502.15   27.80
  -3  -9  -6   64.69   13.20
   3   9   6   47.50    9.70
  -4  -9  -6   17.20    7.30
   4   9   6   21.10    7.50
  -5  -9  -6  139.49   16.30
   5   9   6  114.89   13.90
   1  10   6  314.67   22.40
  -2 -10  -6    1.10    4.90
   2  10   6    3.30    6.70
  -3 -10  -6   16.00    6.30
   3  10   6   14.90    7.30
   3   9  -7   28.50    8.20
  -3  -9   7   25.60    8.90
   2   9  -7    1.80    5.50
  -2  -9   7   -0.50    5.60
   1   9  -7   15.20    6.10
  -1  -9   7   -0.10    5.10
   0   9  -7   38.60    7.00
   0   9  -7   27.70   11.90
   0  -9   7   33.00    9.40
   4   8  -7  103.49    9.60
   4   8  -7   76.79   13.00
  -4  -8   7   83.29   13.60
   3   8  -7  307.77   17.70
   3   8  -7  290.17   20.60
  -3  -8   7  265.97   21.30
   2   8  -7  136.19   13.20
   2   8  -7  192.48   13.40
  -2  -8   7  137.39   15.30
   1   8  -7   31.70    7.50
   1   8  -7   38.50    7.20
  -1  -8   7   24.70    8.50
   0   8  -7  176.18   13.60
   0   8  -7  197.58   15.70
   0  -8   7  214.28   17.80
  -1   8  -7   12.40    5.40
  -1   8  -7   19.50    6.40
   1  -8   7    7.10    5.50
  -2   8  -7   18.30    6.80
  -2   8  -7   43.40    9.40
   2  -8   7   25.10    7.50
   5   7  -7  113.69   13.70
  -5  -7   7  100.79   13.40
   4   7  -7   31.60    8.40
   4   7  -7   18.60    7.10
  -4  -7   7   25.50    7.80
   3   7  -7   33.70    7.70
  -3  -7   7   41.70    9.60
   2   7  -7  182.38   15.60
   2   7  -7  159.78   13.40
  -2  -7   7  166.88   15.30
   1   7  -7  760.12   34.30
   1   7  -7  774.52   35.30
  -1  -7   7  796.52   38.30
   0   7  -7  383.46   20.60
   0   7  -7  423.96   23.70
   0  -7   7  374.06   23.80
  -1   7  -7  236.78   14.70
  -1   7  -7  260.27   19.00
   1  -7   7  232.38   17.80
  -2   7  -7  293.87   20.80
   2  -7   7  237.88   18.60
  -3   7  -7   55.39   12.40
  -3   7  -7   91.89   12.30
   3  -7   7   87.59   12.90
   5   6  -7   18.30    7.30
   5   6  -7   23.50    8.30
  -5  -6   7   19.80    6.80
   4   6  -7  504.75   27.40
   4   6  -7  480.15   26.00
  -4  -6   7  497.85   28.00
   3   6  -7   13.60    5.80
   3   6  -7   12.80    5.80
  -3  -6   7   10.30    5.40
   2   6  -7  586.54   27.50
   2   6  -7  559.84   27.20
  -2  -6   7  558.94   29.40
   1   6  -7  830.32   35.90
   1   6  -7  767.32   34.20
  -1  -6   7  813.92   37.60
   0   6  -7   25.30    5.80
   0   6  -7   31.10    7.30
   0  -6   7   32.90    7.70
  -1   6  -7   25.00    5.10
  -1   6  -7   20.50    6.50
   1  -6   7   20.70    7.20
  -2   6  -7  122.39   13.20
  -2   6  -7  115.79    8.70
   2  -6   7   99.99   12.10
  -3   6  -7   16.00    4.30
   3  -6   7   16.40    6.50
  -4   6  -7    7.40    7.00
   6   5  -7  192.78   17.60
   6   5  -7  147.19   16.30
  -6  -5   7  191.48   15.50
   5   5  -7  185.48   16.30
   5   5  -7  186.38   16.20
  -5  -5   7  215.08   16.10
   4   5  -7    2.10    4.70
   4   5  -7    5.20    5.10
  -4  -5   7    2.10    3.60
   3   5  -7   68.89    8.40
   3   5  -7   80.39   10.20
  -3  -5   7   73.79    9.60
   2   5  -7  274.47   16.00
   2   5  -7  252.57   15.90
  -2  -5   7  250.67   16.80
   1   5  -7   57.69    8.80
   1   5  -7   55.39    6.70
  -1  -5   7   45.50    8.20
   0   5  -7  277.47   16.80
   0   5  -7  230.88   13.40
   0  -5   7  258.57   16.90
  -1   5  -7  338.07   20.50
  -1   5  -7  345.87   16.10
   1  -5   7  339.27   20.20
  -2   5  -7  221.38   11.40
  -2   5  -7  213.58   16.90
   2  -5   7  189.18   15.00
  -3   5  -7  721.63   36.70
  -3   5  -7  683.43   26.50
   3  -5   7  720.23   33.50
   3  -5   7  611.94   26.50
  -4   5  -7   83.29   14.10
  -4   5  -7   80.19    6.10
   4  -5   7   70.19   11.50
   6   4  -7    0.30    6.50
   6   4  -7    6.70    5.60
  -6  -4   7   11.70    5.30
   5   4  -7   -0.40    4.40
   5   4  -7    5.40    6.20
  -5  -4   7    5.70    4.60
  -5  -4   7    3.70    5.40
   4   4  -7    7.50    5.00
   4   4  -7    2.80    4.30
  -4  -4   7    1.90    3.80
  -4  -4   7   -5.50    3.20
   3   4  -7  302.47   17.90
   3   4  -7  291.37   17.30
  -3  -4   7  303.97   20.00
   2   4  -7  829.02   31.40
   2   4  -7  665.93   30.70
  -2  -4   7  627.74   30.50
   1   4  -7  239.08   13.30
   1   4  -7  235.38   14.50
  -1  -4   7  236.18   14.60
   0   4  -7  401.46   20.60
   0   4  -7  357.16   17.10
   0   4  -7  430.56   17.90
   0  -4   7  386.16   20.60
  -1   4  -7 1062.09   39.50
  -1   4  -7 1108.79   45.30
  -1   4  -7 1058.59   39.60
   1  -4   7 1120.59   44.70
  -2   4  -7  126.49    7.20
  -2   4  -7  125.69   12.30
   2  -4   7  108.29    6.70
   2  -4   7  125.09   11.30
  -3   4  -7  169.58   15.40
   3  -4   7  190.18   14.70
   3  -4   7  153.08    8.10
  -4   4  -7   16.60    7.20
   4  -4   7   17.60    6.50
  -5   4  -7  170.18   17.70
   5  -4   7  174.08   15.60
  -6  -3   7   46.40    8.00
  -6  -3   7   69.99   11.30
   5   3  -7   32.10    8.60
  -5  -3   7   38.20    7.10
  -5  -3   7   44.50    8.40
   4   3  -7   92.69   10.60
  -4  -3   7   80.09    9.20
  -4  -3   7   73.39    8.20
   3   3  -7 2212.68   84.09
  -3  -3   7 2366.06   82.99
  -3  -3   7 2254.17   83.59
   2   3  -7  677.33   30.30
  -2  -3   7  710.93   29.50
  -2  -3   7  711.23   29.90
   1   3  -7    3.40    2.40
   1   3  -7    4.30    4.00
  -1  -3   7    4.10    3.10
   0   3  -7 2689.23   92.79
   0   3  -7 2753.12   96.49
   0  -3   7 2674.93   95.99
  -1   3  -7  246.18   14.70
  -1   3  -7  228.08   10.20
  -1   3  -7  228.78   10.30
   1  -3   7  224.78   13.70
  -2   3  -7  108.39   10.60
  -2   3  -7   90.49    4.80
  -2   3  -7   87.59    4.90
   2  -3   7   89.49    9.30
  -3   3  -7  144.79    6.40
  -3   3  -7  158.68   14.00
   3  -3   7  167.78   12.70
   3  -3   7  135.19    6.40
  -4   3  -7  359.66   13.60
  -4   3  -7  369.06   24.10
   4  -3   7  348.87   13.70
   4  -3   7  379.16   21.50
  -5   3  -7  293.07   22.70
   5  -3   7  297.37   19.80
   6   2  -7   16.00    5.00
   6   2  -7   10.90    6.90
  -6  -2   7   24.10    7.60
   5   2  -7   79.79   11.20
  -5  -2   7   83.39    9.50
  -5  -2   7   93.89    8.50
   4   2  -7  221.98   16.40
  -4  -2   7  239.88   15.40
  -4  -2   7  238.18   13.50
   3   2  -7  181.68   13.30
  -3  -2   7  169.68   11.80
  -3  -2   7  179.38   11.10
   2   2  -7   93.59    8.80
   2   2  -7   84.69    7.00
  -2  -2   7   95.79    7.40
  -2  -2   7   88.09    7.60
   1   2  -7   71.89    6.40
   1   2  -7   66.29    5.50
   1   2  -7   73.99    7.60
  -1  -2   7   67.79    5.90
  -1  -2   7   67.89    6.60
   0   2  -7  498.75   19.90
   0   2  -7  553.54   21.40
   0   2  -7  534.05   23.40
   0  -2   7  476.85   22.60
   0  -2   7  524.75   22.80
  -1   2  -7  360.56   13.60
  -1   2  -7  358.06   18.40
  -1   2  -7  368.26   13.60
   1  -2   7  349.67   17.70
  -2   2  -7    1.20    2.70
   2  -2   7    2.10    3.40
  -3   2  -7  231.38   15.90
   3  -2   7  220.68   14.50
  -4   2  -7  443.96   25.60
   4  -2   7  445.46   23.30
   4  -2   7  420.76   15.60
  -5   2  -7   37.70    9.30
   5  -2   7   30.00    7.20
   5  -2   7   23.80    3.50
   5  -2   7   28.70    3.00
  -6   2  -7   32.50    9.90
   6  -2   7   17.50    7.60
   6   1  -7   -1.00    3.10
   6   1  -7    6.00    7.40
  -6  -1   7   14.60    6.10
   5   1  -7  546.65   30.60
  -5  -1   7  490.85   26.80
   4   1  -7  276.87   14.10
   4   1  -7  329.87   20.50
  -4  -1   7  292.87   17.70
  -4  -1   7  305.47   14.50
   3   1  -7   29.20    6.40
  -3  -1   7   20.70    5.10
  -3  -1   7   29.40    4.40
   2   1  -7  960.90   39.80
   2   1  -7  990.60   36.70
  -2  -1   7  975.50   36.70
  -2  -1   7 1038.80   38.70
   1   1  -7  206.08   10.30
   1   1  -7  186.28   10.20
   1   1  -7  193.88   12.10
  -1  -1   7  204.78   10.60
  -1  -1   7  208.58   10.50
  -1  -1   7  167.58   10.90
   0   1  -7 1131.39   43.60
   0   1  -7 1192.18   40.60
   0   1  -7 1000.50   41.90
   0  -1   7 1174.98   43.50
   0  -1   7 1248.68   43.00
   0  -1   7 1161.88   40.60
  -1   1  -7  163.88   10.40
  -1   1  -7  180.88   11.60
  -1   1  -7  192.78    7.30
  -1   1  -7  203.78    7.40
   1  -1   7  191.98   11.20
   1  -1   7  193.68   11.70
  -2   1  -7   78.19    8.00
   2  -1   7   89.29    7.80
  -3   1  -7  306.37   18.40
   3  -1   7  318.47   17.30
  -4   1  -7  210.28   16.20
   4  -1   7  219.28    8.70
   4  -1   7  220.48   15.10
   4  -1   7  219.58    8.70
  -5   1  -7   13.50    6.80
   5  -1   7    5.10    2.00
   5  -1   7    7.90    5.20
  -6   1  -7  370.86   26.00
   6  -1   7  355.76   18.30
   6  -1   7  422.76   24.30
   6   0  -7  166.38   17.90
  -6   0   7  142.69   14.20
   5   0  -7  241.58   19.30
   5   0  -7  225.98    9.90
   5   0  -7  213.88   10.00
  -5   0   7  249.08   17.00
   4   0  -7   98.29    6.10
   4   0  -7   86.49   11.30
   4   0  -7  109.59    6.10
  -4   0   7  113.89   10.70
   3   0  -7   62.69    4.60
   3   0  -7   58.89    8.40
  -3   0   7   65.69    7.40
  -3   0   7   72.39    4.70
   2   0  -7  675.43   25.00
   2   0  -7  691.13   29.90
  -2   0   7  671.23   28.00
  -2   0   7  687.83   25.20
   1   0  -7  195.08   10.60
   1   0  -7  207.08   12.40
   1   0  -7  215.08    9.90
  -1   0   7  223.38   10.20
  -1   0   7  215.88   12.30
  -1   0   7  214.18   11.00
   0   0  -7  296.37   12.90
   0   0  -7  275.27   11.90
   0   0  -7  261.67   13.70
   0   0   7  272.97   14.90
   0   0   7  275.77   11.90
   0   0   7  282.77   14.10
  -1   0  -7  629.74   26.70
  -1   0  -7  659.33   27.40
  -1   0  -7  727.43   23.80
   1   0   7  662.03   27.00
   1   0   7  713.43   23.80
   1   0   7  661.23   27.20
  -2   0  -7  361.26   17.60
   2   0   7  349.67   17.40
   2   0   7  360.66   17.40
  -3   0  -7 1722.03   64.39
   3   0   7 1634.54   63.09
   3   0   7 1729.13   56.59
  -4   0  -7   76.99   13.10
   4   0   7   86.49    4.90
   4   0   7   81.39    4.90
   4   0   7   95.19    9.50
  -5   0  -7   75.59   10.10
   5   0   7   50.19    4.80
   5   0   7   55.49    9.10
  -6   0  -7  608.64   33.90
   6   0   7  589.84   24.30
   6  -1  -7    2.40    7.10
  -6   1   7    8.30    5.80
   5  -1  -7   80.49   13.60
  -5   1   7   88.19   10.20
   4  -1  -7   13.20    6.10
  -4   1   7    1.60    3.20
   3  -1  -7  698.93   33.00
  -3   1   7  664.33   29.80
   2  -1  -7  162.88   11.80
  -2   1   7  154.48   10.20
   1  -1  -7  186.08   10.00
   1  -1  -7  198.38   11.60
   1  -1  -7  175.68    7.80
  -1   1   7  185.18   10.30
  -1   1   7  187.48    8.10
  -1   1   7  152.98   10.60
   0  -1  -7   20.20    3.40
   0  -1  -7   20.40    3.10
   0  -1  -7   21.80    4.60
   0   1   7   19.00    3.40
   0   1   7   16.00    3.90
   0   1   7   19.30    3.20
  -1  -1  -7  355.76   13.90
  -1  -1  -7  350.86   15.90
   1   1   7  359.26   15.90
   1   1   7  345.67   13.90
   1   1   7  338.67   15.70
  -2  -1  -7 1358.66   50.19
  -2  -1  -7 1314.07   46.50
   2   1   7 1298.57   49.70
   2   1   7 1516.25   51.39
   2   1   7 1327.97   46.50
  -3  -1  -7  121.59    9.50
   3   1   7  112.09    5.90
   3   1   7  124.09    6.10
   3   1   7  102.89    9.00
  -4  -1  -7  386.66   21.40
   4   1   7  425.36   21.70
   4   1   7  417.56   16.50
   4   1   7  382.16   16.40
  -5  -1  -7    3.30    4.60
   5   1   7    8.60    4.70
   5   1   7    3.70    2.60
   5   1   7    6.80    2.60
  -6  -1  -7  195.28   16.40
   6   1   7  165.48   10.60
   6   1   7  194.68   15.90
  -7  -1  -7    3.70    6.50
   7   1   7   -3.60    4.40
   6  -2  -7   21.80    9.50
  -6   2   7   48.60   10.10
  -5   2   7   24.20    6.60
   4  -2  -7  624.24   34.30
  -4   2   7  674.43   31.20
   3  -2  -7  301.87   19.50
  -3   2   7  289.67   16.90
   2  -2  -7  574.24   27.10
  -2   2   7  578.24   25.50
   1  -2  -7  149.49   10.00
   1  -2  -7  124.89    9.10
  -1   2   7  130.89    5.70
  -1   2   7  134.29    8.70
  -1   2   7  133.49    9.40
  -1   2   7  129.29    5.70
   0  -2  -7  306.67   14.20
   0  -2  -7  330.97   15.00
   0   2   7  298.87   13.40
   0   2   7  336.17   13.70
   0   2   7  302.97   14.70
   0   2   7  341.47   14.70
  -1  -2  -7  115.09    6.90
  -1  -2  -7  127.49    8.00
   1   2   7  121.39    7.20
   1   2   7  117.09    7.20
   1   2   7  118.29    7.80
  -2  -2  -7   46.70    5.00
  -2  -2  -7   40.70    3.80
   2   2   7   45.40    5.10
   2   2   7   41.80    5.00
  -3  -2  -7  145.39    9.70
   3   2   7  132.39    7.50
   3   2   7  133.79   10.20
   3   2   7  140.19    7.50
   3   2   7  131.29    9.00
  -4  -2  -7  832.52   35.50
   4   2   7  870.41   32.20
   4   2   7  820.22   31.90
  -5  -2  -7    3.10    4.50
   5   2   7   -1.30    3.70
   5   2   7   -2.50    2.30
  -6  -2  -7   28.90    7.80
   6   2   7   29.80    5.70
   6   2   7   33.10    8.30
  -7  -2  -7   -0.80    4.30
   7   2   7   -8.10    3.60
   5  -3  -7   82.89   15.10
   4  -3  -7  965.90   46.80
  -4   3   7 1021.80   43.60
   3  -3  -7   12.40    6.20
  -3   3   7    6.10    4.60
   2  -3  -7   29.10    6.80
  -2   3   7   13.00    4.00
   1  -3  -7  101.09    8.30
  -1   3   7   93.59    7.80
  -1   3   7   91.39    4.60
  -1   3   7   87.09    4.60
   0  -3  -7 2175.78   76.39
   0  -3  -7 2212.88   77.59
   0   3   7 2180.58   76.19
   0   3   7 2317.57   77.89
   0   3   7 2180.48   77.99
  -1  -3  -7    9.70    3.20
  -1  -3  -7    8.60    2.90
  -1  -3  -7    9.00    2.90
   1   3   7    7.80    2.40
   1   3   7    3.90    2.50
   1   3   7    8.00    3.20
  -2  -3  -7  115.69    9.00
  -2  -3  -7  125.79    7.60
  -2  -3  -7  117.59    6.80
   2   3   7  112.59    7.50
   2   3   7  120.29    6.80
  -3  -3  -7   78.49    6.30
  -3  -3  -7   77.79    7.80
  -3  -3  -7   76.09    6.00
   3   3   7   77.69    7.90
   3   3   7   68.39    5.80
   3   3   7   78.39    6.20
  -4  -3  -7  323.37   16.50
   4   3   7  306.07   18.30
   4   3   7  296.97   15.10
  -5  -3  -7  199.38   14.00
   5   3   7  213.38   15.80
   5   3   7  208.38   12.50
  -6  -3  -7    3.30    5.40
   6   3   7    3.80    3.60
   6   3   7   -4.90    3.60
  -7  -3  -7   25.90    7.30
   7   3   7   16.70    8.10
   7   3   7   12.40    5.30
   5  -4  -7  111.29   17.80
  -5   4   7  104.09   13.80
   4  -4  -7  131.89   15.00
  -4   4   7  144.59   13.60
   3  -4  -7    2.80    5.00
  -3   4   7    0.20    4.00
   2  -4  -7  685.33   32.40
  -2   4   7  702.33   31.20
   1  -4  -7 1020.00   40.60
   1  -4  -7 1007.20   35.80
  -1   4   7  997.20   35.70
  -1   4   7  992.20   40.20
   0  -4  -7   29.90    4.80
   0  -4  -7   29.30    4.30
   0   4   7   30.80    4.40
   0   4   7   32.00    5.30
  -1  -4  -7   29.00    3.20
  -1  -4  -7   35.80    5.40
  -1  -4  -7   29.80    3.60
   1   4   7   30.70    4.70
   1   4   7   39.90    5.80
  -2  -4  -7   41.40    3.10
  -2  -4  -7   48.50    6.20
   2   4   7   42.90    5.90
   2   4   7   38.40    3.00
  -3  -4  -7  241.28   15.50
  -3  -4  -7  243.38   10.90
   3   4   7  260.57   13.50
   3   4   7  229.48   10.90
  -4  -4  -7    5.00    4.60
  -4  -4  -7    5.50    2.70
   4   4   7    1.80    3.00
   4   4   7    6.70    3.00
  -5  -4  -7  117.99    9.50
   5   4   7  113.19   11.80
   6   4   7  418.16   25.60
   7   4   7  531.55   29.00
   7   4   7  478.15   30.10
   7   4   7  513.25   26.00
   4  -5  -7    5.90    6.60
   3  -5  -7    5.60    5.70
  -3   5   7    7.90    4.90
   2  -5  -7   17.80    6.30
  -2   5   7   23.50    6.70
   1  -5  -7  174.28    9.10
   1  -5  -7  148.49   11.50
  -1   5   7  198.28   13.10
  -1   5   7  153.08    8.90
   0  -5  -7  301.07   15.40
   0  -5  -7  324.87   15.60
   0  -5  -7  338.07   16.00
   0   5   7  341.17   17.80
   0   5   7  320.57   15.40
  -1  -5  -7  401.46   19.10
  -1  -5  -7  392.66   15.50
  -1  -5  -7  373.06   15.30
   1   5   7  386.36   19.50
  -2  -5  -7  645.84   29.00
   2   5   7  637.64   27.80
  -3  -5  -7   83.59    9.60
   3   5   7  103.09    8.80
  -4  -5  -7   61.89    9.90
   4   5   7   68.09    7.50
   4   5   7   49.30    4.50
   4   5   7   53.59    4.40
  -5  -5  -7  233.58   17.90
   5   5   7  253.27   13.40
   5   5   7  225.28   15.10
   5   5   7  238.78   12.80
   6   5   7   62.19    9.30
   6   5   7   69.39    8.40
   7   5   7   -3.30    5.30
   7   5   7   -1.80    5.10
   7   5   7   -3.10    3.80
   4  -6  -7  171.58   17.90
  -4   6   7  143.09   14.30
   3  -6  -7   96.49   12.30
  -3   6   7   88.69   12.60
   2  -6  -7  142.09    7.20
   2  -6  -7  151.38   13.90
  -2   6   7  154.88   13.20
  -2   6   7  135.59    7.20
   1  -6  -7  312.57   17.40
   1  -6  -7  261.17   13.20
  -1   6   7  233.08   16.00
  -1   6   7  222.98   12.80
   0  -6  -7   86.89    7.00
   0  -6  -7   71.09    7.10
   0  -6  -7   84.49    7.80
   0   6   7   87.79    9.50
  -1  -6  -7  703.33   26.30
  -1  -6  -7  738.83   31.80
  -1  -6  -7  746.43   26.50
   1   6   7  714.93   32.20
   2   6   7  970.10   40.20
  -3  -6  -7  933.81   39.30
   3   6   7  776.12   35.90
  -4  -6  -7   30.30    7.30
   4   6   7   37.10    7.10
  -5  -6  -7  339.57   22.40
   5   6   7  279.07   18.10
  -6  -6  -7  503.05   29.30
   6   6   7  360.66   22.50
   6   6   7  488.55   28.50
   6   6   7  410.36   19.10
  -3   7   7   48.40    9.70
   2  -7  -7   96.49   11.50
   2  -7  -7   92.99    6.30
  -2   7   7   84.69   12.30
   1  -7  -7  242.38   16.10
   1  -7  -7  233.78   13.40
  -1   7   7  229.68   16.50
   0  -7  -7  114.29    9.80
   0  -7  -7  118.59    9.10
   0   7   7  112.79   11.40
  -1  -7  -7  337.87   13.20
  -1  -7  -7  347.17   19.70
  -1  -7  -7  339.27   13.10
   1   7   7  319.07   19.70
  -2  -7  -7   74.79    9.40
   2   7   7   78.59    9.60
  -3  -7  -7  171.48   14.50
   3   7   7  158.08   13.30
  -4  -7  -7  643.44   33.30
   4   7   7  610.24   30.50
  -5  -7  -7  210.18   18.30
   5   7   7  226.98   16.60
  -6  -7  -7   25.20    8.70
   6   7   7   24.80    7.40
   2  -8  -7   -9.50    4.90
  -2   8   7    5.70    5.70
   1  -8  -7  182.38   12.20
   1  -8  -7  171.08   14.10
  -1   8   7  151.98   17.00
   0  -8  -7   82.99    8.30
   0  -8  -7  106.89   10.10
   0   8   7  104.09   11.50
  -1  -8  -7   12.80    5.20
   1   8   7   12.90    5.90
  -2  -8  -7   27.50    6.90
   2   8   7   34.60    7.50
  -3  -8  -7   80.29   10.30
   3   8   7   63.19   10.10
   4   8   7  124.59   13.10
  -5  -8  -7   -1.00    5.10
   5   8   7   -6.90    5.70
   1  -9  -7  136.79   10.70
   1  -9  -7   79.99   11.40
  -1   9   7  111.59   13.40
   0  -9  -7  140.59   11.10
   0  -9  -7  176.78   13.80
   0   9   7  187.98   16.20
  -1  -9  -7   70.79    9.30
   1   9   7   78.59   11.80
  -2  -9  -7    4.20    4.10
   2   9   7    8.90    5.80
  -3  -9  -7   21.80    8.30
   3   9   7   29.90    8.50
  -4  -9  -7  174.08   17.00
   4   9   7  165.18   15.50
  -5  -9  -7    9.30    6.70
   5   9   7   12.80    6.20
  -1 -10  -7    7.70    5.30
   1  10   7   -1.90    5.50
  -2 -10  -7  301.07   21.40
   2  10   7  302.87   22.50
  -3 -10  -7   64.19   11.60
   3  10   7   58.09   11.50
   2   9  -8   18.30    6.70
  -2  -9   8   42.30   10.70
   1   9  -8   47.00    9.30
  -1  -9   8   52.09   12.00
   4   8  -8   -7.10    4.50
  -4  -8   8    2.50    5.10
   3   8  -8   -2.10    5.10
  -3  -8   8    4.20    5.30
   2   8  -8  299.37   18.70
   2   8  -8  313.57   20.40
  -2  -8   8  287.97   22.20
   1   8  -8    7.80    5.60
   1   8  -8   25.20    6.20
  -1  -8   8   17.80    7.90
   0   8  -8   77.79   10.30
   0  -8   8   70.59   12.40
  -1   8  -8  333.17   19.00
  -1   8  -8  330.87   23.30
   1  -8   8  309.17   22.90
   2  -8   8  110.79   13.60
   5   7  -8    9.40    7.90
   5   7  -8   31.80    8.80
  -5  -7   8   43.00   10.00
   4   7  -8   18.80    7.20
   4   7  -8   23.40    8.00
  -4  -7   8   36.50    8.70
   3   7  -8  149.49   14.00
   3   7  -8  172.18   13.60
  -3  -7   8  154.78   15.40
   2   7  -8  516.55   26.30
   2   7  -8  490.05   26.10
  -2  -7   8  489.65   28.80
   1   7  -8   29.90    6.60
   1   7  -8   35.80    7.10
  -1  -7   8   23.30    8.10
   0   7  -8  391.26   20.90
   0   7  -8  427.36   24.40
   0  -7   8  400.06   24.90
  -1   7  -8  151.98   14.60
  -1   7  -8  152.38   11.30
   1  -7   8  130.89   13.80
  -2   7  -8  249.38   15.50
   2  -7   8  246.78   21.80
  -3   7  -8   66.99   12.40
   3  -7   8   51.89   10.90
   5   6  -8   12.80    6.50
   5   6  -8   -8.90    5.50
  -5  -6   8    5.50    5.80
   4   6  -8   28.60    7.90
   4   6  -8   23.70    7.10
  -4  -6   8   37.60    8.40
   3   6  -8   56.49    9.60
   3   6  -8   48.00    9.10
  -3  -6   8   57.59   10.50
   2   6  -8    4.20    4.40
  -2  -6   8    6.00    5.00
   1   6  -8  152.58   13.30
   1   6  -8  127.29   10.80
  -1  -6   8  140.49   13.20
   0   6  -8  140.99   10.60
   0   6  -8  141.29   12.60
   0  -6   8  143.79   13.40
  -1   6  -8  177.28   11.40
  -1   6  -8  179.88   15.50
   1  -6   8  193.08   15.80
  -2   6  -8   64.69   12.00
  -2   6  -8   46.70    5.80
   2  -6   8   38.30    8.90
  -3   6  -8   92.59   12.70
  -3   6  -8   62.39    6.10
   3  -6   8   64.79   11.20
  -4   6  -8   32.90   10.10
   4  -6   8   17.00    7.60
   6   5  -8   36.70   11.00
   6   5  -8   48.10   11.00
   5   5  -8   -7.20    4.60
   5   5  -8    1.90    5.70
  -5  -5   8    3.90    4.20
   4   5  -8   -2.00    3.80
   4   5  -8    3.00    5.90
  -4  -5   8   -5.00    3.20
   3   5  -8    2.10    4.40
   3   5  -8    2.80    5.80
  -3  -5   8   -0.90    3.70
   2   5  -8  207.38   14.90
   2   5  -8  186.48   13.20
  -2  -5   8  179.48   14.50
   1   5  -8  904.91   38.30
   1   5  -8  819.82   35.30
  -1  -5   8  896.91   38.90
   0   5  -8  380.06   21.80
   0   5  -8  400.16   18.70
   0  -5   8  404.96   22.30
  -1   5  -8   80.19   10.10
  -1   5  -8   71.29    6.30
   1  -5   8   74.89   10.70
  -2   5  -8  131.89    8.10
  -2   5  -8  133.19   13.80
  -2   5  -8  129.99    8.20
   2  -5   8  151.88   13.30
  -3   5  -8   38.90   10.20
  -3   5  -8   38.70    4.10
   3  -5   8   46.90    9.80
  -4   5  -8   85.19   14.50
   4  -5   8   59.69   10.30
   6   4  -8   40.60    9.90
   6   4  -8   26.00    9.60
  -6  -4   8   45.90    8.30
   5   4  -8  101.89   13.40
  -5  -4   8  129.89   12.00
  -5  -4   8  102.99   15.60
   4   4  -8   45.10    9.10
   4   4  -8   49.00    8.70
  -4  -4   8   46.60    8.70
  -4  -4   8   54.79    8.60
   3   4  -8  274.77   17.20
   3   4  -8  278.07   17.90
  -3  -4   8  291.77   17.70
  -3  -4   8  301.27   17.70
   2   4  -8  223.08   15.20
   2   4  -8  223.68   14.00
  -2  -4   8  232.08   15.10
   1   4  -8    3.50    4.40
   1   4  -8    4.80    3.50
  -1  -4   8   10.50    5.00
   0   4  -8   19.80    6.00
   0   4  -8   16.70    3.90
   0  -4   8   11.80    5.00
  -1   4  -8   20.50    6.40
  -1   4  -8   23.90    3.60
  -1   4  -8   24.80    3.90
   1  -4   8   18.00    6.00
  -2   4  -8  155.38    7.90
  -2   4  -8  167.68   13.90
   2  -4   8  170.38   13.50
  -3   4  -8  203.38    8.70
  -3   4  -8  214.48    8.80
  -3   4  -8  218.28   17.30
   3  -4   8  204.68   15.70
  -4   4  -8  175.88   16.30
   4  -4   8  141.79   14.20
  -5   4  -8  423.16   29.70
   5  -4   8  448.06   26.40
   6   3  -8    1.60    6.60
  -6  -3   8   -0.40    4.80
  -6  -3   8   -1.70    3.70
   5   3  -8   24.00    7.70
  -5  -3   8   19.40    6.80
  -5  -3   8   24.20    5.90
   4   3  -8  172.38   14.80
  -4  -3   8  201.28   14.40
  -4  -3   8  187.88   13.00
   3   3  -8 1788.12   68.79
  -3  -3   8 1798.52   67.39
  -3  -3   8 1760.52   66.59
   2   3  -8   66.09    8.50
  -2  -3   8   48.80    7.00
  -2  -3   8   52.49    6.90
   1   3  -8  128.69    9.00
   1   3  -8  132.39   10.90
  -1  -3   8  140.19   10.60
   0   3  -8  188.98   12.40
   0   3  -8  175.58    9.50
   0   3  -8  175.08    9.40
   0  -3   8  178.68   12.20
  -1   3  -8  544.85   20.30
  -1   3  -8  546.95   26.20
  -1   3  -8  529.35   20.30
   1  -3   8  508.95   25.00
  -2   3  -8 1355.56   46.70
  -2   3  -8 1411.56   46.80
   2  -3   8 1359.56   54.19
  -3   3  -8   46.40    9.80
   3  -3   8   51.59    8.70
  -4   3  -8  433.86   27.60
   4  -3   8  501.85   26.10
  -5   3  -8    4.80    4.50
   5  -3   8   -0.90    5.60
   6   2  -8   41.50   11.00
  -6  -2   8   35.40    8.60
   5   2  -8  174.78   16.00
  -5  -2   8  173.98   11.80
  -5  -2   8  186.28   14.80
   4   2  -8  110.59   12.00
  -4  -2   8  114.39    8.80
  -4  -2   8  100.89   10.50
   3   2  -8 1657.73   66.49
  -3  -2   8 1800.42   63.49
  -3  -2   8 1729.53   65.59
   2   2  -8  284.77   16.30
  -2  -2   8  274.47   14.50
  -2  -2   8  280.17   15.00
   1   2  -8   16.40    3.50
   1   2  -8   18.40    5.40
  -1  -2   8   12.00    3.80
  -1  -2   8   15.90    3.60
   0   2  -8 2904.81  102.19
   0   2  -8 2813.02   97.99
   0  -2   8 2958.70   98.29
   0  -2   8 2855.61  101.19
  -1   2  -8   37.40    6.70
  -1   2  -8   28.20    2.70
  -1   2  -8   32.80    2.70
   1  -2   8   31.20    5.70
  -2   2  -8  222.48   14.80
   2  -2   8  218.38   13.90
  -3   2  -8   29.30    7.40
  -4   2  -8  356.56   22.60
   4  -2   8  344.07   20.50
  -5   2  -8  385.36   25.70
   5  -2   8  379.96   23.10
  -6   2  -8  237.88   20.60
   6  -2   8  196.18   20.00
   6   1  -8   13.80    8.40
  -6  -1   8   19.80    7.20
   5   1  -8  277.97   21.00
  -5  -1   8  286.37   19.00
  -5  -1   8  271.77   13.80
   4   1  -8  155.88    9.80
   4   1  -8  181.58   15.30
  -4  -1   8  167.18    9.80
  -4  -1   8  169.08   13.20
   3   1  -8   44.10    5.10
   3   1  -8   56.79    9.30
  -3  -1   8   41.60    4.80
   2   1  -8  917.51   35.10
   2   1  -8  983.30   38.90
  -2  -1   8  915.31   35.00
  -2  -1   8  905.41   36.60
   1   1  -8  496.55   20.40
   1   1  -8  457.15   20.10
   1   1  -8  495.25   22.70
  -1  -1   8  481.65   20.40
  -1  -1   8  486.15   20.60
   0   1  -8 2451.45   86.49
   0   1  -8 2419.46   84.29
   0   1  -8 2427.16   87.79
   0  -1   8 2377.96   87.59
   0  -1   8 2675.03   86.99
   0  -1   8 2494.55   84.59
  -1   1  -8  339.67   17.80
  -1   1  -8  353.96   13.10
   1  -1   8  372.66   17.60
  -2   1  -8   92.59    9.00
   2  -1   8  120.09    9.30
  -3   1  -8  489.05   25.30
   3  -1   8  480.65   23.80
  -4   1  -8  700.83   35.70
   4  -1   8  792.12   34.60
  -5   1  -8  207.18   17.70
   5  -1   8  204.88   15.60
  -6   1  -8   10.60    6.30
   6  -1   8    1.90    5.40
   6   0  -8   14.40    7.60
  -6   0   8   13.40    6.60
   5   0  -8   35.20    9.20
  -5   0   8   21.90    6.70
   4   0  -8  407.56   16.30
   4   0  -8  454.35   26.00
  -4   0   8  408.56   22.60
   3   0  -8   60.39    4.60
   3   0  -8   80.49   10.50
  -3   0   8   70.69    4.70
   2   0  -8  890.81   37.20
   2   0  -8  876.41   32.00
  -2   0   8  879.01   35.20
  -2   0   8  884.61   32.10
   1   0  -8 1541.65   51.89
   1   0  -8 1486.25   55.09
   1   0  -8 1403.76   52.59
  -1   0   8 1449.95   51.89
  -1   0   8 1434.66   52.79
   0   0  -8   39.40    5.50
   0   0  -8   38.80    3.90
   0   0  -8   31.60    4.00
   0   0   8   34.10    4.30
   0   0   8   42.60    5.00
   0   0   8   44.30    5.30
  -1   0  -8    3.70    2.60
  -1   0  -8    2.70    3.90
  -1   0  -8    1.50    1.40
   1   0   8    5.30    3.70
   1   0   8    1.10    2.60
   1   0   8    2.60    1.40
  -2   0  -8   21.60    5.10
   2   0   8   35.60    5.80
  -3   0  -8    8.40    4.50
   3   0   8   11.80    4.40
  -4   0  -8   33.90    7.90
   4   0   8   41.00    7.50
   4   0   8   29.10    2.20
   4   0   8   35.70    2.40
  -5   0  -8   56.19   10.40
   5   0   8   38.20    7.90
   5   0   8   52.89    4.00
   5   0   8   56.59    4.10
  -6   0  -8   14.20    7.70
   6   0   8    1.20    2.40
   6   0   8    5.30    5.20
   6  -1  -8  165.78   19.30
  -6   1   8  178.18   16.10
   5  -1  -8 1034.30   50.09
  -5   1   8 1018.60   45.70
   4  -1  -8   -1.40    4.10
  -4   1   8    4.00    4.20
   3  -1  -8  380.06   21.80
  -3   1   8  372.06   19.80
   2  -1  -8  611.34   21.80
   2  -1  -8  576.74   27.60
  -2   1   8  592.34   25.90
  -2   1   8  585.44   20.50
   1  -1  -8   28.40    3.00
   1  -1  -8   36.50    5.90
  -1   1   8   28.70    4.70
  -1   1   8   31.20    3.40
   0  -1  -8   59.59    6.50
   0  -1  -8   58.59    4.90
   0  -1  -8   51.09    4.50
   0   1   8   54.79    5.00
   0   1   8   58.39    6.10
  -1  -1  -8  556.94   23.50
  -1  -1  -8  593.44   24.30
   1   1   8  590.14   21.70
   1   1   8  578.64   24.00
   1   1   8  563.04   23.80
  -2  -1  -8    3.70    3.10
  -2  -1  -8    5.70    1.60
   2   1   8    6.20    3.10
   2   1   8    3.90    1.50
   2   1   8    2.10    2.90
  -3  -1  -8 1986.70   75.09
   3   1   8 2014.00   69.49
   3   1   8 2287.07   76.49
   3   1   8 1946.01   69.29
  -4  -1  -8   -2.60    3.60
   4   1   8    4.60    1.80
   4   1   8   -3.10    2.80
   4   1   8    3.60    1.80
  -5  -1  -8    4.90    5.10
   5   1   8    1.40    4.00
   5   1   8   10.80    3.90
   5   1   8    8.90    2.70
  -6  -1  -8  571.64   31.10
   6   1   8  529.55   29.40
   6   1   8  531.95   22.40
  -7  -1  -8    6.10    5.20
   7   1   8   -0.10    6.70
   5  -2  -8   84.79   14.60
  -5   2   8   94.59   13.90
   4  -2  -8   19.50    7.50
  -4   2   8    8.90    4.80
   3  -2  -8  322.47   20.50
  -3   2   8  351.56   19.30
   2  -2  -8   39.40    7.50
  -2   2   8   37.60    6.30
   1  -2  -8  674.23   29.00
  -1   2   8  679.93   24.20
  -1   2   8  678.13   24.20
  -1   2   8  684.63   28.10
   0  -2  -8  621.24   25.30
   0  -2  -8  667.03   26.50
   0   2   8  652.63   26.30
   0   2   8  644.94   24.60
   0   2   8  579.84   24.20
   0   2   8  666.23   25.70
  -1  -2  -8 8087.19  293.37
   1   2   8 8067.79  292.77
  -2  -2  -8 1898.01   66.89
  -2  -2  -8 1925.51   68.89
   2   2   8 2132.39   67.59
   2   2   8 1790.92   69.89
   2   2   8 1956.70   70.39
  -3  -2  -8  177.98   11.50
   3   2   8  188.88    9.20
   3   2   8  162.48   11.90
   3   2   8  191.28   11.30
   3   2   8  194.88    9.30
  -4  -2  -8  470.75   23.60
   4   2   8  458.65   19.60
   4   2   8  471.65   24.70
   4   2   8  519.15   20.00
  -5  -2  -8  183.68   14.30
   5   2   8  178.68   14.80
   5   2   8  198.38   10.90
  -6  -2  -8   39.50    8.50
   6   2   8   43.70    6.20
   6   2   8   33.30    8.80
  -7  -2  -8    8.70    6.10
   7   2   8   -2.00    5.60
   7   2   8   -6.40    5.60
   5  -3  -8    3.30    6.30
  -5   3   8    8.10    5.70
   4  -3  -8   -1.30    4.70
  -4   3   8    4.70    4.60
   3  -3  -8  748.33   35.70
  -3   3   8  670.23   32.20
   2  -3  -8  384.66   21.60
  -2   3   8  401.86   22.50
   1  -3  -8  203.98   13.00
  -1   3   8  198.98    8.60
  -1   3   8  217.98    8.80
  -1   3   8  230.88   13.00
   0  -3  -8  498.55   20.20
   0   3   8  441.16   18.20
   0   3   8  437.06   19.80
   0   3   8  443.26   19.80
   0   3   8  406.26   19.00
  -1  -3  -8   -0.30    1.60
  -1  -3  -8   -1.00    2.40
   1   3   8   -2.20    2.00
   1   3   8    0.20    1.90
   1   3   8   -1.70    1.60
   1   3   8    1.50    2.20
  -2  -3  -8    5.60    2.40
  -2  -3  -8    8.40    2.50
   2   3   8   13.40    3.10
   2   3   8   10.60    2.80
   2   3   8   10.40    3.40
  -3  -3  -8   97.09    7.50
  -3  -3  -8   99.59    7.10
   3   3   8  105.59    7.40
   3   3   8  123.09   10.00
   3   3   8  104.09    7.80
  -4  -3  -8  108.89    9.20
   4   3   8  125.59    8.30
   4   3   8  108.89   10.60
  -5  -3  -8  267.17   16.50
   5   3   8  253.27   17.80
   5   3   8  259.37   14.20
  -6  -3  -8  149.29   13.50
   6   3   8  134.79   14.00
  -7  -3  -8    2.50    5.20
   7   3   8   -7.60    4.30
   7   3   8   -7.10    3.90
   5  -4  -8  105.29   18.10
  -5   4   8  126.39   13.70
   4  -4  -8    3.60    5.90
  -4   4   8   12.40    6.00
   3  -4  -8   38.30    9.00
  -3   4   8   56.79    9.30
  -2   4   8   32.90    6.90
   1  -4  -8  623.04   27.80
  -1   4   8  630.94   22.80
  -1   4   8  606.24   22.70
  -1   4   8  595.04   27.40
   0  -4  -8  907.51   36.60
   0  -4  -8  957.20   36.00
   0  -4  -8  967.10   36.80
   0   4   8  983.50   38.30
  -1  -4  -8 1988.00   68.19
  -1  -4  -8 1988.80   70.79
   1   4   8 1941.31   70.69
   1   4   8 1925.21   68.29
  -2  -4  -8   15.70    2.80
  -2  -4  -8   13.50    4.50
   2   4   8   12.00    3.80
   2   4   8   14.80    2.70
  -3  -4  -8  691.93   26.20
  -3  -4  -8  667.13   31.20
   3   4   8  660.13   26.00
   3   4   8  723.43   28.60
  -4  -4  -8  661.23   31.90
  -4  -4  -8  671.83   26.80
   4   4   8  635.24   26.60
   4   4   8  625.54   31.00
   4   4   8  649.14   27.70
  -5  -4  -8   22.50    5.40
   5   4   8   22.80    6.60
   5   4   8   19.20    5.20
  -6  -4  -8    5.70    4.70
   6   4   8   -4.10    3.90
   6   4   8   -0.60    3.40
   7   4   8   70.69    9.20
   7   4   8   82.89   11.10
   7   4   8   67.09   11.90
   4  -5  -8   70.99   14.00
  -4   5   8   97.69   11.60
   3  -5  -8   -1.10    4.70
  -3   5   8   -5.80    3.80
   2  -5  -8  249.78   17.50
  -2   5   8  235.48   16.30
  -1   5   8 1629.74   59.29
  -1   5   8 1787.52   65.39
   0  -5  -8  195.58   11.60
   0  -5  -8  182.78   11.00
   0  -5  -8  198.18   11.20
   0   5   8  185.28   10.70
  -1  -5  -8  221.18   10.50
  -1  -5  -8  220.68   10.40
  -1  -5  -8  228.48   13.50
   1   5   8  214.58   13.60
  -2  -5  -8  601.34   27.90
   2   5   8  606.24   26.80
  -3  -5  -8  100.69   10.50
   3   5   8  104.59    9.10
  -4  -5  -8    8.20    5.20
   4   5   8    9.90    4.50
   4   5   8    5.80    2.80
  -5  -5  -8   57.99   10.60
   5   5   8   49.30    6.50
   5   5   8   81.59   10.60
   5   5   8   58.59    8.20
   5   5   8   71.69    6.50
   6   5   8  253.77   15.40
   6   5   8  216.48   15.00
   6   5   8  242.38   19.20
   7   5   8  361.66   21.30
   7   5   8  403.96   27.20
   4  -6  -8   90.29   16.30
  -4   6   8  112.49   13.20
   3  -6  -8   63.39   11.90
   2  -6  -8   33.90    8.80
  -2   6   8   27.50    7.40
   1  -6  -8  104.19   10.20
   1  -6  -8   93.29    7.10
  -1   6   8  109.29   10.80
  -1   6   8   81.89    7.20
   0  -6  -8   67.39    6.90
   0  -6  -8   50.89    6.30
   0  -6  -8   46.90    6.90
   0   6   8   43.50    8.00
  -1  -6  -8    1.00    2.70
  -1  -6  -8    0.30    2.10
  -1  -6  -8    4.50    1.70
   1   6   8    3.30    4.00
  -2  -6  -8   74.29    8.90
   2   6   8   70.29    8.40
  -3  -6  -8  282.07   18.70
   3   6   8  294.07   17.20
  -4  -6  -8   89.69   11.20
   4   6   8   94.09    9.70
  -5  -6  -8   51.39   10.50
   5   6   8   61.79    9.30
   6   6   8  171.58   16.80
   6   6   8  170.98   14.00
   3  -7  -8   18.00    8.40
  -3   7   8   22.30    7.90
   2  -7  -8  364.76   23.10
   1  -7  -8   63.39    6.40
  -1   7   8   41.60    8.40
   0  -7  -8   75.39    7.60
   0  -7  -8   67.49    7.80
   0   7   8   82.79   10.10
  -1  -7  -8  605.94   22.90
  -1  -7  -8  652.93   30.00
  -1  -7  -8  597.44   22.90
   1   7   8  674.03   31.00
  -2  -7  -8  102.59   10.60
   2   7   8   79.19    9.90
  -3  -7  -8   37.70    8.30
   3   7   8   32.30    7.30
  -4  -7  -8   29.00    7.80
   4   7   8   24.70    6.60
  -5  -7  -8   62.59   11.10
   5   7   8   87.59   10.60
  -6  -7  -8   60.29   11.50
   6   7   8   62.89   10.40
   2  -8  -8   24.70    8.90
  -2   8   8   51.79   10.20
   1  -8  -8   17.70    6.20
   1  -8  -8   20.90    4.50
  -1   8   8   15.40    6.80
   0  -8  -8   22.90    5.50
   0  -8  -8    9.10    4.20
   0   8   8   16.00    5.90
  -1  -8  -8    3.10    3.60
   1   8   8    5.30    5.10
  -2  -8  -8   24.00    6.00
   2   8   8   33.70    8.20
  -3  -8  -8   62.79   10.60
   3   8   8   75.09   11.00
   4   8   8  178.38   15.10
  -5  -8  -8  453.55   29.20
   5   8   8  481.35   27.20
   1  -9  -8  181.08   12.00
   1  -9  -8  138.19   14.20
  -1   9   8  157.78   15.50
   0  -9  -8   72.19    8.80
   0  -9  -8   97.29   10.00
   0   9   8  115.39   13.00
  -1  -9  -8  107.09   10.80
   1   9   8  120.89   13.30
  -2  -9  -8  279.27   19.50
   2   9   8  268.57   20.00
  -3  -9  -8  143.79   14.50
   3   9   8  122.19   13.70
  -4  -9  -8   81.09   13.50
   4   9   8   58.49   10.70
  -5  -9  -8   93.89   15.30
   1  10   8  158.58   16.50
  -2 -10  -8   19.60    6.90
   2  10   8   17.30    8.00
  -3 -10  -8   12.50    5.90
   3  10   8    7.50    7.00
   3   8  -9    0.20    5.10
  -3  -8   9    7.10    6.70
  -2  -8   9   10.60    6.00
   1   8  -9   47.60    8.50
   1   8  -9   75.89    9.30
  -1  -8   9   44.40   10.30
   0   8  -9   34.90    7.20
   0  -8   9   58.19   11.50
  -1   8  -9   25.00    6.60
  -1   8  -9    7.50    5.20
   1  -8   9   20.60    7.60
   4   7  -9   25.60    7.40
   4   7  -9   21.10    7.50
  -4  -7   9   22.20    7.40
   3   7  -9   19.70    6.50
   3   7  -9   24.60    7.30
  -3  -7   9   17.90    7.10
   2   7  -9   15.20    5.60
   2   7  -9   -2.60    4.00
  -2  -7   9    0.20    5.10
   1   7  -9   91.09   10.40
   1   7  -9  101.29   10.50
  -1  -7   9   92.69   12.30
   0   7  -9  155.88   12.20
   0   7  -9  179.48   15.30
   0  -7   9  159.08   15.40
  -1   7  -9  233.38   14.80
  -1   7  -9  282.47   20.50
  -2   7  -9  352.16   17.40
  -2   7  -9  354.16   24.50
   2  -7   9  292.77   22.30
   5   6  -9    4.50    5.90
   5   6  -9  -15.70    6.20
  -5  -6   9    8.10    5.20
   4   6  -9   18.90    6.90
   4   6  -9   16.40    7.60
  -4  -6   9   30.00    7.50
   3   6  -9  117.39   11.90
   3   6  -9  107.39   12.30
  -3  -6   9  107.69   12.50
   2   6  -9  321.47   19.70
   2   6  -9  324.87   18.80
  -2  -6   9  296.47   20.50
   1   6  -9  181.28   12.90
   1   6  -9  195.58   15.30
  -1  -6   9  186.78   15.60
   0   6  -9  453.15   26.00
   0   6  -9  493.85   22.80
   0  -6   9  489.65   27.30
  -1   6  -9  207.58   16.50
  -1   6  -9  177.78   11.70
   1  -6   9  217.18   17.10
  -2   6  -9   36.00    8.90
  -2   6  -9   28.80    4.70
   2  -6   9   38.50    8.90
  -3   6  -9   25.60    8.00
   3  -6   9   12.80    7.30
   5   5  -9   47.90   11.10
   5   5  -9   66.69   11.30
  -5  -5   9   57.99    9.90
   4   5  -9  159.88   15.60
   4   5  -9  156.28   14.20
  -4  -5   9  171.28   14.30
   3   5  -9   36.60    8.30
   3   5  -9   19.90    6.30
  -3  -5   9   36.70    8.30
   2   5  -9    6.00    4.90
   2   5  -9   -2.90    3.50
  -2  -5   9    2.50    4.70
   1   5  -9   41.60    6.60
  -1  -5   9   37.60    8.10
   0   5  -9   36.40    8.20
   0   5  -9   37.70    5.90
   0  -5   9   29.80    7.50
  -1   5  -9    9.30    3.10
  -1   5  -9    6.80    5.20
   1  -5   9    6.70    5.80
  -2   5  -9    6.30    2.60
  -2   5  -9    7.30    5.50
  -2   5  -9    7.00    2.90
   2  -5   9    4.90    5.20
  -3   5  -9  100.99   13.10
  -3   5  -9   97.19    5.30
   3  -5   9   93.09   11.70
  -4   5  -9  193.58   19.20
   6   4  -9    9.10    7.10
   6   4  -9    2.50    8.30
  -6  -4   9    0.80    5.60
  -6  -4   9    9.00    5.10
   5   4  -9   24.60    7.70
   5   4  -9   20.40    7.70
  -5  -4   9   24.80    7.60
  -5  -4   9   19.90    6.10
   4   4  -9  184.58   15.70
  -4  -4   9  210.38   15.60
  -4  -4   9  189.28   14.20
   3   4  -9   25.30    6.10
   3   4  -9   29.30    8.60
  -3  -4   9   22.40    6.50
  -3  -4   9   21.50    6.30
   2   4  -9  126.79   12.10
  -2  -4   9  120.99   11.20
   1   4  -9 1417.06   56.29
   1   4  -9 1527.95   53.89
  -1  -4   9 1311.27   58.99
   0   4  -9  723.83   29.40
   0   4  -9  740.63   33.90
   0  -4   9  768.42   34.00
  -1   4  -9   66.39    9.20
  -1   4  -9   60.99    5.00
  -1   4  -9   72.39    5.60
   1  -4   9   61.29    9.40
  -2   4  -9    0.40    1.50
  -2   4  -9    1.70    1.60
  -2   4  -9    1.50    4.40
   2  -4   9   -0.20    4.30
  -3   4  -9  367.96   24.10
   3  -4   9  350.56   21.80
  -4   4  -9   35.70   12.20
   4  -4   9   29.00    8.30
  -5   4  -9   87.69   15.60
   5  -4   9   44.10    9.50
   6   3  -9  223.88   20.30
  -6  -3   9  273.57   20.10
   5   3  -9  160.08   15.90
  -5  -3   9  201.38   13.80
  -5  -3   9  187.78   18.10
   4   3  -9  238.78   18.20
  -4  -3   9  246.08   17.00
  -4  -3   9  273.57   16.10
   3   3  -9 1098.39   48.40
  -3  -3   9 1180.48   47.30
  -3  -3   9 1204.48   46.70
   2   3  -9   43.50    8.30
  -2  -3   9   47.80    7.50
  -2  -3   9   47.10    7.10
   1   3  -9  537.45   26.00
   1   3  -9  568.04   23.70
  -1  -3   9  536.45   23.20
  -1  -3   9  514.75   25.20
   0   3  -9   22.80    3.80
   0   3  -9   15.50    3.10
   0   3  -9   19.50    5.90
   0  -3   9   17.60    4.80
  -1   3  -9  375.46   21.00
  -1   3  -9  370.96   15.10
  -1   3  -9  385.06   15.20
   1  -3   9  372.56   20.30
  -2   3  -9  168.28    6.40
  -2   3  -9  176.08   13.80
   2  -3   9  162.48   13.20
  -3   3  -9   80.59   10.20
   3  -3   9   85.29   10.60
  -4   3  -9   15.00    6.60
   4  -3   9   15.70    6.30
  -5   3  -9  377.86   27.00
   5  -3   9  361.36   23.60
   6   2  -9   66.29   13.60
  -6  -2   9  100.69   14.40
   5   2  -9    4.90    5.30
  -5  -2   9    7.90    5.30
  -5  -2   9    8.30    3.70
   4   2  -9   17.10    6.90
  -4  -2   9   22.50    4.70
  -4  -2   9   17.70    6.20
   3   2  -9  312.37   19.70
  -3  -2   9  321.57   18.30
  -3  -2   9  329.67   16.80
   2   2  -9   -0.50    3.60
  -2  -2   9    0.90    3.30
  -2  -2   9   -0.60    2.80
   1   2  -9  133.59   10.60
  -1  -2   9  130.09    8.70
  -1  -2   9  139.19   10.20
   0   2  -9   76.79    8.40
   0   2  -9   71.09    5.40
   0  -2   9   75.39    5.60
   0  -2   9   71.39    7.50
  -1   2  -9  857.11   36.90
  -1   2  -9  843.42   30.50
  -1   2  -9  900.81   30.60
   1  -2   9  872.11   36.00
  -2   2  -9  452.65   23.90
   2  -2   9  486.65   23.70
  -3   2  -9    3.10    4.80
   3  -2   9    0.20    3.00
  -4   2  -9   74.39   12.30
   4  -2   9   74.49   11.00
   5  -2   9    1.40    5.10
  -6   2  -9    2.90    5.60
   6  -2   9   -3.80    5.60
   6   1  -9   -6.90    5.70
  -6  -1   9    4.50    6.00
   5   1  -9   27.50    8.80
  -5  -1   9   21.90    7.10
  -5  -1   9   22.70    3.90
   4   1  -9    7.40    3.70
   4   1  -9   12.30    6.50
  -4  -1   9   26.50    6.80
  -4  -1   9   15.40    3.60
   3   1  -9  531.45   27.20
   3   1  -9  507.35   21.70
  -3  -1   9  530.05   22.00
  -3  -1   9  509.45   24.90
   2   1  -9  405.16   21.30
   2   1  -9  380.16   17.50
  -2  -1   9  412.86   19.50
  -2  -1   9  397.26   17.80
   1   1  -9   10.50    3.90
   1   1  -9   10.80    3.40
  -1  -1   9   12.50    3.80
  -1  -1   9    9.30    3.10
   0   1  -9    2.70    1.70
   0   1  -9    2.20    3.70
   0  -1   9    2.00    2.70
   0  -1   9    0.80    1.70
  -1   1  -9   30.50    2.60
  -1   1  -9   38.60    6.70
   1  -1   9   34.70    2.70
   1  -1   9   29.40    5.40
  -2   1  -9   19.20    5.20
   2  -1   9   10.80    4.30
   3  -1   9   35.50    6.90
  -4   1  -9   79.59   10.80
   4  -1   9   81.69    9.70
  -5   1  -9  515.55   30.10
   5  -1   9  515.75   28.00
  -6   1  -9  104.69   13.40
   6   0  -9    1.10    7.20
  -6   0   9    2.60    4.90
   5   0  -9  244.78   20.70
  -5   0   9  256.67   18.20
   4   0  -9  140.99   14.20
   4   0  -9  122.39    6.40
  -4   0   9  145.29   12.40
   3   0  -9  215.08   15.90
   3   0  -9  210.98    9.80
  -3   0   9  209.18    9.80
  -3   0   9  219.08   14.10
   2   0  -9  217.48   14.50
   2   0  -9  213.08   10.20
  -2   0   9  212.98   12.80
  -2   0   9  211.48   10.40
   1   0  -9    1.20    3.60
   1   0  -9    4.00    2.20
  -1   0   9    2.40    2.40
  -1   0   9    1.00    2.30
   0   0  -9 1691.53   59.29
   0   0  -9 1533.45   61.99
   0   0  -9 1745.73   60.69
   0   0   9 1815.02   60.99
   0   0   9 1681.53   59.39
  -1   0  -9  232.58    9.60
  -1   0  -9  222.28   13.10
   1   0   9  222.98   12.70
   1   0   9  229.78    9.60
  -2   0  -9  167.18   11.80
   2   0   9  171.08   11.40
  -3   0  -9 5217.08  184.38
   3   0   9 5417.56  183.88
  -4   0  -9  106.79   11.70
   4   0   9  127.89   11.60
  -5   0  -9    7.70    5.70
   5   0   9    6.90    4.70
  -6   0  -9   86.59   12.20
   6   0   9   96.49   11.70
   6  -1  -9   37.30   11.40
  -6   1   9   48.00   10.40
   5  -1  -9  168.88   17.70
  -5   1   9  211.98   24.10
   4  -1  -9    2.90    5.70
  -4   1   9   -0.20    3.40
   3  -1  -9   28.80    7.20
  -3   1   9   24.20    5.90
   2  -1  -9   81.39    4.20
   2  -1  -9   89.29    8.80
  -2   1   9   88.29    8.10
  -2   1   9   78.99    4.30
   1  -1  -9 1822.72   65.99
   1  -1  -9 1988.20   70.89
  -1   1   9 1947.01   66.29
  -1   1   9 1925.01   68.79
   0  -1  -9  781.02   31.60
   0  -1  -9  810.12   29.60
   0  -1  -9  765.22   29.40
   0   1   9  733.03   31.10
   0   1   9  754.42   29.40
   0   1   9  773.12   29.60
  -1  -1  -9  419.66   16.50
  -1  -1  -9  394.36   18.30
  -1  -1  -9  399.76   19.10
   1   1   9  405.96   18.90
   1   1   9  447.76   19.10
   1   1   9  404.56   16.50
  -2  -1  -9  190.78    8.20
  -2  -1  -9  196.48   12.00
   2   1   9  184.78   11.70
   2   1   9  194.08    8.30
  -3  -1  -9 1029.70   41.50
   3   1   9  958.80   41.20
   3   1   9 1036.50   35.00
   3   1   9 1010.40   35.00
  -4  -1  -9   35.80    7.80
   4   1   9   31.30    3.00
   4   1   9   36.40    3.10
   4   1   9   39.60    7.60
  -5  -1  -9    8.50    5.90
   5   1   9   15.20    2.80
   5   1   9   13.30    5.60
  -6  -1  -9   43.80    9.90
   6   1   9   24.30    3.70
   6   1   9   20.30    7.20
   5  -2  -9  255.97   21.90
  -5   2   9  247.48   18.40
   4  -2  -9   22.90    7.60
  -4   2   9   22.60    6.50
   3  -2  -9  209.48   16.00
  -3   2   9  220.68   14.90
   2  -2  -9   -0.10    3.90
  -2   2   9   -1.20    3.10
   1  -2  -9   77.99    7.90
  -1   2   9   75.39    4.70
  -1   2   9   81.09    4.70
  -1   2   9   84.59    7.30
   0  -2  -9  233.48   13.20
   0   2   9  241.08   13.10
   0   2   9  237.68   11.60
   0   2   9  256.97   12.70
   0   2   9  235.18   11.50
  -1  -2  -9  109.69    8.00
  -1  -2  -9  107.49    6.80
   1   2   9  115.79    7.90
   1   2   9  115.49    7.80
   1   2   9  101.09    6.70
   1   2   9   82.89    7.10
  -2  -2  -9  147.29    9.70
  -2  -2  -9  140.29    7.80
   2   2   9  148.79    8.00
   2   2   9  150.68    9.50
   2   2   9  158.48   10.60
  -3  -2  -9  942.81   36.90
   3   2   9  878.91   32.90
   3   2   9  903.61   33.00
   3   2   9  883.71   37.90
  -4  -2  -9  147.79   11.90
   4   2   9  150.88    8.10
   4   2   9  119.19   11.70
  -5  -2  -9  352.26   20.80
   5   2   9  324.87   15.20
   5   2   9  333.77   15.10
   5   2   9  319.77   20.80
  -6  -2  -9  476.45   27.00
   6   2   9  479.55   27.80
   6   2   9  460.55   20.40
  -7  -2  -9   38.60    8.90
   7   2   9   40.10    9.40
   5  -3  -9   -7.00    4.80
  -5   3   9    3.60    6.10
   4  -3  -9    3.70    6.80
  -4   3   9    0.40    4.30
   3  -3  -9  321.37   20.80
  -3   3   9  298.57   18.70
   2  -3  -9  412.06   22.70
  -2   3   9  407.56   21.20
   1  -3  -9  138.69   10.90
  -1   3   9  138.79    6.50
  -1   3   9  137.59   10.20
  -1   3   9  130.49    6.30
   0  -3  -9  192.88   11.40
   0   3   9  176.48    9.40
   0   3   9  181.88   11.10
   0   3   9  184.88   11.00
   0   3   9  175.68    9.50
  -1  -3  -9 1950.30   67.69
   1   3   9 1908.51   68.39
   1   3   9 1852.81   67.49
   1   3   9 1864.81   68.29
   1   3   9 1961.10   68.09
  -2  -3  -9 1533.75   57.49
  -2  -3  -9 1604.04   57.79
   2   3   9 1651.53   57.99
   2   3   9 1733.93   60.79
   2   3   9 1561.04   57.59
  -3  -3  -9  127.19    8.80
  -3  -3  -9  115.39    7.70
   3   3   9  123.19   10.40
   3   3   9  122.09    7.80
   3   3   9  105.29    8.30
  -4  -3  -9   45.50    7.40
   4   3   9   42.50    5.50
   4   3   9   50.89    8.70
  -5  -3  -9    4.50    4.00
   5   3   9    2.60    3.70
   5   3   9    3.60    3.10
  -6  -3  -9  222.98   16.40
   6   3   9  212.98   12.90
   6   3   9  219.78   18.00
   7   3   9   -5.70    4.90
   7   3   9   -0.50    3.80
   5  -4  -9   10.60    8.50
  -5   4   9   10.10    6.20
  -4   4   9  128.79   23.00
   3  -4  -9  106.29   12.50
  -3   4   9  105.09   11.20
   2  -4  -9  294.57   18.80
  -2   4   9  290.07   17.70
   1  -4  -9    2.60    3.70
  -1   4   9    4.60    1.90
  -1   4   9    2.40    3.70
  -1   4   9    0.20    1.50
   0  -4  -9   42.60    5.00
   0  -4  -9   42.20    6.20
   0   4   9   50.59    7.00
   0   4   9   46.10    4.70
   0   4   9   53.69    5.20
  -1  -4  -9 1490.95   52.69
  -1  -4  -9 1444.06   54.49
   1   4   9 1428.96   52.59
   1   4   9 1487.35   54.69
  -2  -4  -9   12.40    3.10
  -2  -4  -9   10.70    4.00
   2   4   9   10.00    2.60
   2   4   9    8.30    3.50
  -3  -4  -9   10.40    3.40
   3   4   9   10.90    3.30
   3   4   9   13.90    4.20
  -4  -4  -9  141.29    9.50
   4   4   9  123.69    9.30
   4   4   9  143.19   10.10
   4   4   9  141.39   12.40
  -5  -4  -9  531.45   24.60
   5   4   9  508.25   28.20
   5   4   9  516.25   23.80
  -6  -4  -9  150.78   13.00
   6   4   9  169.48   11.80
  -7  -4  -9   33.00    7.90
   7   4   9   24.40    6.20
   7   4   9   29.70    7.40
   7   4   9   21.50    9.40
   4  -5  -9   54.49   12.80
  -4   5   9   68.19   11.60
   3  -5  -9   -3.50    4.30
  -3   5   9   -0.60    4.50
   2  -5  -9  177.78   14.80
  -2   5   9  186.98   14.50
   1  -5  -9    0.60    3.60
  -1   5   9    1.90    2.20
  -1   5   9   12.50    5.20
  -1   5   9    4.70    2.80
   0  -5  -9  986.70   38.00
   0  -5  -9 1000.90   38.80
   0   5   9  962.40   37.50
   0   5   9  992.00   40.80
  -1  -5  -9  230.88   11.40
  -1  -5  -9  254.37   14.40
   1   5   9  236.18   14.60
  -2  -5  -9  948.81   32.70
  -2  -5  -9  931.61   39.10
  -2  -5  -9  918.91   32.50
   2   5   9  901.11   37.70
  -3  -5  -9  555.84   20.10
  -3  -5  -9  557.04   27.90
   3   5   9  534.55   20.10
   3   5   9  587.14   25.60
  -4  -5  -9   51.29    4.50
  -4  -5  -9   40.90    8.00
   4   5   9   59.49    7.10
   4   5   9   41.80    4.60
  -5  -5  -9    3.90    2.70
   5   5   9    0.40    3.10
   5   5   9   -2.40    3.20
   6   5   9   -0.80    4.60
   6   5   9   10.10    4.80
   6   5   9    3.90    4.10
   4  -6  -9   26.30   10.60
  -4   6   9   30.10    8.80
   3  -6  -9  104.99   13.30
  -3   6   9  114.19   12.30
   2  -6  -9  676.43   33.20
  -2   6   9  608.74   31.80
   1  -6  -9  765.22   34.10
   1  -6  -9  753.12   29.30
  -1   6   9  736.33   34.50
   0  -6  -9   -0.50    2.80
   0  -6  -9    6.00    3.90
   0   6   9    3.90    4.40
  -1  -6  -9    4.20    4.10
  -1  -6  -9    6.00    2.30
  -1  -6  -9    3.00    2.60
   1   6   9    4.80    3.40
  -2  -6  -9   18.30    5.70
   2   6   9   10.70    5.30
  -3  -6  -9    0.40    3.20
   3   6   9    5.00    4.50
  -4  -6  -9   12.10    5.70
   4   6   9   16.80    5.60
  -5  -6  -9  132.89   14.40
   5   6   9  123.19   11.20
   6   6   9   31.50    9.10
   3  -7  -9   11.40    8.50
  -3   7   9   25.90    8.10
   2  -7  -9   93.89   12.20
  -2   7   9  101.69   12.30
   1  -7  -9   75.19    6.50
   1  -7  -9   50.99    9.00
  -1   7   9   69.09   10.40
   0  -7  -9    9.80    4.20
   0  -7  -9   10.00    4.20
   0   7   9   10.80    5.60
  -1  -7  -9    3.20    2.40
  -1  -7  -9   14.00    5.10
   1   7   9    7.10    5.10
  -2  -7  -9  322.87   19.90
   2   7   9  328.97   19.80
  -3  -7  -9  580.64   29.60
   3   7   9  513.05   27.10
  -4  -7  -9   34.40    8.70
   4   7   9   45.40    8.40
  -5  -7  -9  404.46   27.00
   5   7   9  446.76   24.40
  -6  -7  -9  225.48   20.50
   6   7   9  225.58   17.20
   6   7   9  198.68   19.20
   2  -8  -9  210.58   17.80
  -2   8   9  245.68   19.20
   1  -8  -9   22.00    6.70
  -1   8   9   31.50    8.60
   0  -8  -9  116.89    9.90
   0  -8  -9  137.89   11.30
   0   8   9  129.39   14.50
  -1  -8  -9 1041.00   45.00
   1   8   9 1069.19   46.90
  -2  -8  -9  319.47   20.00
   2   8   9  296.47   20.10
  -3  -8  -9    5.90    5.20
   3   8   9   19.20    6.40
  -4  -8  -9   88.79   13.70
   4   8   9   98.39   14.90
  -5  -8  -9   17.40    6.70
   5   8   9   13.00    6.10
   1  -9  -9   -1.50    7.00
  -1   9   9   15.30    7.40
   0  -9  -9  340.07   19.70
   0   9   9  324.57   22.60
  -1  -9  -9   17.80    5.20
   1   9   9    3.00    5.40
  -2  -9  -9   27.10    6.70
   2   9   9   20.40    7.50
  -3  -9  -9   28.30    7.40
   3   9   9   40.90    9.40
  -4  -9  -9  239.58   19.80
   4   9   9  228.68   18.20
  -2 -10  -9   42.30    8.80
   2  10   9   48.40   10.90
  -3 -10  -9   35.10    8.70
   3  10   9   18.90    8.10
   3   8 -10   64.79   12.00
  -3  -8  10   70.09   12.50
   2   8 -10  269.97   19.10
   2   8 -10  275.97   18.50
  -2  -8  10  223.18   20.10
   1   8 -10  165.28   13.60
   1   8 -10  112.59   12.40
  -1  -8  10  131.79   15.10
   0   8 -10  295.17   20.20
   0   8 -10  231.08   16.40
   0  -8  10  273.47   21.60
  -1   8 -10   49.50    8.20
   1  -8  10   59.29   11.10
   4   7 -10    6.50    6.20
   4   7 -10    8.00    6.20
  -4  -7  10    6.50    6.40
   3   7 -10   91.29   11.20
   3   7 -10  100.09   11.50
  -3  -7  10   99.79   13.20
   2   7 -10  527.05   27.60
   2   7 -10  559.54   29.00
  -2  -7  10  496.75   30.00
   1   7 -10    6.20    5.00
   1   7 -10   -2.40    3.90
   0   7 -10    0.10    3.90
   0   7 -10    1.60    4.00
   0  -7  10    0.10    5.40
  -1   7 -10  114.59   13.30
   1  -7  10  106.29   13.40
  -2   7 -10   24.30    7.90
  -2   7 -10   -5.10    4.60
   2  -7  10    9.00    6.50
   5   6 -10   30.40   10.90
   5   6 -10   36.80    9.80
  -5  -6  10   50.09    9.90
   4   6 -10   11.70    6.70
   4   6 -10   20.60    7.90
  -4  -6  10   16.40    6.40
   3   6 -10  112.29   12.40
   3   6 -10  103.09   11.60
  -3  -6  10  117.99   12.80
   2   6 -10   14.30    5.80
   2   6 -10    4.30    4.60
  -2  -6  10   13.40    6.20
   1   6 -10  136.39   11.70
   1   6 -10  168.48   14.30
  -1  -6  10  143.49   14.30
   0   6 -10   38.00    8.70
   0   6 -10   41.60    7.50
   0  -6  10   36.50    8.80
  -1   6 -10  195.48   16.80
  -1   6 -10  181.68   11.40
   1  -6  10  176.38   15.60
  -2   6 -10  586.54   24.40
  -2   6 -10  633.14   34.60
   2  -6  10  612.94   33.00
  -3   6 -10  176.88   17.60
   3  -6  10  181.48   17.40
   5   5 -10    0.00    6.30
   5   5 -10   -3.60    4.60
  -5  -5  10    5.10    3.90
   4   5 -10  345.27   22.20
   4   5 -10  349.27   23.00
  -4  -5  10  352.26   21.90
   3   5 -10  460.15   25.50
   3   5 -10  516.85   27.80
  -3  -5  10  488.85   26.80
   2   5 -10  202.38   15.80
   2   5 -10  217.88   14.80
  -2  -5  10  196.28   15.60
   1   5 -10   13.50    6.70
   1   5 -10    7.60    4.60
  -1  -5  10    5.70    5.20
   0   5 -10  409.66   23.20
   0   5 -10  381.86   18.40
   0  -5  10  342.67   22.10
  -1   5 -10  298.37   14.50
  -1   5 -10  305.37   20.40
   1  -5  10  306.47   20.20
  -2   5 -10  318.27   22.40
  -2   5 -10  327.77   14.00
   2  -5  10  319.07   21.10
  -3   5 -10   21.10    9.00
   3  -5  10    1.70    5.30
  -4   5 -10  283.17   23.10
   4  -5  10  262.07   20.80
   5   4 -10  -11.00    4.80
  -5  -4  10    4.10    4.20
  -5  -4  10    3.00    5.30
   4   4 -10  555.64   30.10
  -4  -4  10  524.15   27.90
  -4  -4  10  526.05   27.10
   3   4 -10  347.07   20.40
   3   4 -10  343.27   22.00
  -3  -4  10  384.36   21.20
  -3  -4  10  353.96   20.20
   2   4 -10   53.79    8.10
   2   4 -10   58.29   10.20
  -2  -4  10   42.20    8.10
   1   4 -10  833.02   35.00
  -1  -4  10  901.61   38.60
   0   4 -10   -1.40    4.30
   0   4 -10    1.20    2.90
   0  -4  10    1.60    5.00
  -1   4 -10  702.33   34.40
  -1   4 -10  691.93   27.30
  -1   4 -10  750.42   27.60
   1  -4  10  716.23   33.70
  -2   4 -10   35.40    8.40
  -2   4 -10   31.30    2.90
  -2   4 -10   33.90    2.80
   2  -4  10   29.70    7.50
  -3   4 -10  483.85   29.00
   3  -4  10  458.75   26.40
  -4   4 -10  509.85   31.60
   4  -4  10  522.45   29.70
  -5   4 -10    2.80    6.30
   5  -4  10  -12.50    5.70
   6   3 -10    4.50    7.40
  -6  -3  10    6.10    6.60
  -6  -3  10    1.40    5.50
   5   3 -10   42.70   10.40
  -5  -3  10   50.89    8.20
  -5  -3  10   34.80    8.10
   4   3 -10    6.70    5.30
  -4  -3  10    6.30    4.90
  -4  -3  10    2.40    4.50
   3   3 -10  362.36   22.10
  -3  -3  10  362.26   19.80
  -3  -3  10  368.46   20.40
   2   3 -10    3.10    4.80
  -2  -3  10    0.10    3.20
  -2  -3  10   -0.40    4.10
   1   3 -10  880.31   38.20
  -1  -3  10  853.61   36.90
  -1  -3  10  885.31   34.90
   0   3 -10  503.35   21.70
   0   3 -10  546.55   22.30
   0   3 -10  559.24   26.90
   0  -3  10  545.45   26.00
  -1   3 -10   21.80    3.20
  -1   3 -10   29.00    3.30
   1  -3  10   21.30    7.00
  -2   3 -10   11.80    5.90
   2  -3  10   14.80    6.10
  -3   3 -10  334.97   22.20
   3  -3  10  302.07   19.80
  -4   3 -10   93.39   13.00
   4  -3  10   71.39   11.30
  -5   3 -10   94.59   16.10
   6   2 -10  185.78   19.10
  -6  -2  10  169.08   16.30
   5   2 -10  231.98   19.50
  -5  -2  10  216.88   20.00
  -5  -2  10  238.98   13.90
   4   2 -10    3.40    4.20
  -4  -2  10    1.50    2.70
  -4  -2  10    6.80    4.40
   3   2 -10  701.63   34.80
  -3  -2  10  759.72   31.30
  -3  -2  10  748.73   33.10
   2   2 -10   50.99    9.00
  -2  -2  10   57.49    7.80
  -2  -2  10   54.49    7.30
   1   2 -10   70.89    8.20
  -1  -2  10   60.19    7.20
  -1  -2  10   61.49    6.40
   0   2 -10   69.09    5.30
   0   2 -10   69.39    8.60
   0  -2  10   67.89    5.40
   0  -2  10   61.89    7.50
  -1   2 -10   11.90    2.10
  -1   2 -10   15.90    5.40
  -1   2 -10   16.60    2.40
   1  -2  10   17.60    5.40
  -3   2 -10  344.47   22.30
   3  -2  10  391.26   21.70
  -4   2 -10  148.89   15.10
   4  -2  10  145.39   13.40
  -5   2 -10  120.69   14.50
   5  -2  10  111.99   12.90
  -6   2 -10  190.88   19.20
   6  -2  10  146.59   16.90
   6   1 -10  197.68   20.30
  -6  -1  10  209.88   18.20
   5   1 -10   13.90    7.30
  -5  -1  10   17.90    3.50
   4   1 -10   30.10    4.90
   4   1 -10   41.50    9.70
  -4  -1  10   26.60    6.90
  -4  -1  10   39.70    4.80
   3   1 -10  161.68   13.50
   3   1 -10  138.59    9.50
  -3  -1  10  180.18   13.00
  -3  -1  10  178.88   10.10
   2   1 -10  134.09   11.90
   2   1 -10  118.69    8.50
  -2  -1  10  129.49    8.80
  -2  -1  10  140.49   10.20
   1   1 -10  130.59   11.10
  -1  -1  10  137.99    9.10
  -1  -1  10  138.79    9.40
   0   1 -10   17.80    3.40
   0   1 -10   13.70    5.20
   0  -1  10   13.10    4.20
   0  -1  10   14.50    3.10
  -1   1 -10  168.08   12.40
  -1   1 -10  176.38    7.90
   1  -1  10  200.58   12.40
   1  -1  10  178.98    8.00
  -2   1 -10 3320.07  124.29
   2  -1  10 3673.03  123.99
  -3   1 -10  281.67   19.20
   3  -1  10  374.16   20.10
  -4   1 -10  115.19   12.90
   4  -1  10  126.89   12.40
  -5   1 -10  726.53   38.50
   5  -1  10  727.23   36.20
  -6   1 -10   60.49   13.20
   6  -1  10   48.30   10.30
   6   0 -10   35.50   11.60
  -6   0  10   39.80    9.60
   5   0 -10   15.60    9.20
  -5   0  10    7.50    5.70
   4   0 -10  286.67   11.80
   4   0 -10  336.27   22.30
  -4   0  10  312.97   19.50
   3   0 -10  247.88   11.30
   3   0 -10  246.48   17.70
  -3   0  10  252.37   11.30
  -3   0  10  235.28   15.20
   2   0 -10  267.97   12.50
   2   0 -10  250.57   16.60
  -2   0  10  274.67   12.60
  -2   0  10  274.67   15.20
   1   0 -10  163.28   11.60
   1   0 -10  156.18    9.00
  -1   0  10  161.38    9.40
  -1   0  10  144.59    9.60
   0   0 -10 1363.56   50.39
   0   0 -10 1237.38   47.70
   0   0 -10 1254.07   46.40
   0   0  10 1290.77   46.60
   0   0  10 1323.07   48.20
  -1   0 -10 1989.80   69.39
  -1   0 -10 2082.69   74.79
   1   0  10 2077.39   69.49
   1   0  10 1997.10   73.49
  -2   0 -10  217.68   14.10
   2   0  10  202.28   13.30
  -3   0 -10   87.29    9.70
  -4   0 -10   -2.00    4.10
   4   0  10   -1.40    4.00
  -5   0 -10   41.90    9.90
   5   0  10   47.30    9.10
  -6   0 -10    9.90    6.80
   5  -1 -10  226.88   20.70
  -5   1  10  218.28   17.40
   4  -1 -10  435.66   27.00
  -4   1  10  418.36   23.50
   3  -1 -10  594.14   30.90
  -3   1  10  599.94   28.50
   2  -1 -10  150.38   12.00
   2  -1 -10  135.99    6.70
  -2   1  10  138.19    6.70
  -2   1  10  151.38   11.00
   1  -1 -10    3.00    3.80
   1  -1 -10    0.10    1.70
  -1   1  10   -0.50    2.40
   0  -1 -10 1111.49   41.90
   0  -1 -10 1081.39   41.70
   0  -1 -10 1199.68   44.80
   0   1  10 1152.88   42.30
   0   1  10 1135.89   42.00
  -1  -1 -10   38.40    6.30
  -1  -1 -10   32.90    3.60
   1   1  10   40.10    3.80
   1   1  10   32.10    5.20
  -2  -1 -10  188.28    8.20
  -2  -1 -10  190.48   12.30
   2   1  10  190.38   12.30
   2   1  10  181.48    8.30
  -3  -1 -10  513.25   24.90
   3   1  10  501.85   18.00
   3   1  10  523.75   18.10
   3   1  10  468.05   24.30
  -4  -1 -10   14.30    6.20
   4   1  10    9.70    1.40
   4   1  10   10.20    1.60
   4   1  10    5.30    4.60
  -5  -1 -10  424.76   24.70
   5   1  10  400.56   23.70
   5   1  10  386.56   14.50
   5   1  10  385.76   14.60
  -6  -1 -10   21.40    7.50
   6   1  10   12.80    7.60
   5  -2 -10  485.85   32.00
  -5   2  10  501.05   28.50
   4  -2 -10  219.88   19.00
  -4   2  10  196.98   15.60
   3  -2 -10   28.70    7.70
  -3   2  10   29.70    7.00
   2  -2 -10   48.60    8.90
  -2   2  10   50.99    7.90
   1  -2 -10 1110.89   45.00
  -1   2  10 1094.59   39.60
  -1   2  10 1162.68   39.80
  -1   2  10 1107.19   43.40
   0  -2 -10  464.55   21.70
   0   2  10  463.55   19.60
   0   2  10  469.85   20.60
  -1  -2 -10  945.61   36.80
  -1  -2 -10  937.91   34.70
   1   2  10  961.20   36.60
   1   2  10  879.51   36.10
   1   2  10  924.41   34.80
  -2  -2 -10  102.69    8.20
  -2  -2 -10  101.89    6.40
   2   2  10  108.09    8.90
   2   2  10  105.79    8.30
   2   2  10   97.49    6.40
  -3  -2 -10  744.83   31.90
  -3  -2 -10  698.43   27.50
   3   2  10  789.32   33.70
   3   2  10  756.42   27.90
  -4  -2 -10  354.86   20.20
   4   2  10  359.76   15.10
   4   2  10  350.86   15.10
   4   2  10  365.06   21.10
  -5  -2 -10   -0.10    3.70
   5   2  10    0.60    4.00
   5   2  10    0.40    2.20
   5   2  10   -1.70    2.00
  -6  -2 -10   79.29   10.30
   6   2  10   77.69   12.50
   6   2  10   65.99    6.00
   5  -3 -10   70.19   13.90
  -5   3  10   61.29   11.40
   4  -3 -10    3.90    4.50
  -4   3  10    6.90    5.30
   3  -3 -10   72.19   12.40
  -3   3  10   86.79   10.20
   2  -3 -10  181.38   14.40
  -2   3  10  172.98   12.90
   1  -3 -10  130.69   10.70
  -1   3  10  121.19    6.40
  -1   3  10  125.19    6.30
  -1   3  10  126.59   10.10
   0  -3 -10   55.49    6.90
   0   3  10   48.30    4.90
   0   3  10   60.39    6.50
  -1  -3 -10    8.60    3.90
   1   3  10    8.70    3.40
   1   3  10    8.20    3.10
   1   3  10    4.50    2.80
  -2  -3 -10  448.76   19.70
   2   3  10  428.56   19.00
   2   3  10  436.16   21.30
   2   3  10  435.06   19.40
  -3  -3 -10  301.17   15.40
  -3  -3 -10  287.97   13.80
   3   3  10  275.77   18.80
   3   3  10  289.27   14.00
   3   3  10  284.07   15.20
  -4  -3 -10   25.30    5.80
   4   3  10   21.70    6.10
   4   3  10   23.90    4.50
  -5  -3 -10  288.57   20.40
   5   3  10  253.57   13.50
   5   3  10  254.87   18.70
  -6  -3 -10  386.86   23.00
   6   3  10  369.76   18.20
  -7  -3 -10   54.09   12.20
   7   3  10   64.69   11.90
   4  -4 -10   -7.80    3.80
  -4   4  10    0.20    4.60
   3  -4 -10   31.20    8.70
  -3   4  10   37.70    8.00
   2  -4 -10   71.99    9.90
  -2   4  10   78.59    9.40
   1  -4 -10   23.00    6.00
  -1   4  10   18.40    5.80
  -1   4  10   21.90    2.80
  -1   4  10   24.00    3.00
   0  -4 -10   14.00    4.50
   0   4  10   12.00    3.20
   0   4  10    9.90    4.10
   0   4  10   15.30    3.20
  -1  -4 -10  662.93   28.50
   1   4  10  757.12   30.10
   1   4  10  725.93   30.20
   1   4  10  717.23   28.80
  -2  -4 -10  108.99    7.40
   2   4  10  113.69    7.40
   2   4  10  106.79    8.40
   2   4  10   84.89    8.60
  -3  -4 -10  130.09    8.50
   3   4  10  119.29    8.90
   3   4  10  129.49   10.70
  -4  -4 -10   98.99    8.00
   4   4  10   98.79    8.30
   4   4  10   89.19    9.80
  -5  -4 -10   28.40    6.20
   5   4  10   34.60    8.20
   5   4  10   24.70    5.30
  -6  -4 -10    7.60    5.10
   6   4  10    8.30    5.40
   6   4  10    3.60    4.10
   4  -5 -10   23.50    9.30
  -4   5  10   20.90    7.90
   3  -5 -10  266.17   20.40
  -3   5  10  263.97   18.80
   2  -5 -10  564.94   29.40
  -2   5  10  540.05   28.30
   1  -5 -10   65.39    8.70
  -1   5  10   66.09    9.50
  -1   5  10   68.69    5.10
  -1   5  10   73.99    5.40
   0  -5 -10  515.25   23.30
   0   5  10  511.45   24.90
   0   5  10  496.85   21.80
   0   5  10  506.55   21.90
  -1  -5 -10 1324.97   49.99
  -1  -5 -10 1323.37   47.30
  -1  -5 -10 1206.08   48.40
  -2  -5 -10  524.25   20.60
  -2  -5 -10  493.45   25.40
   2   5  10  563.54   20.90
   2   5  10  524.75   24.70
  -3  -5 -10   57.79    9.30
  -3  -5 -10   52.99    4.20
   3   5  10   49.20    4.30
   3   5  10   65.79    7.40
   4   5  10  118.99   10.20
   4   5  10  114.09    7.50
   4   5  10   87.89   10.20
  -5  -5 -10  544.05   23.60
   5   5  10  549.25   30.30
   5   5  10  533.65   25.60
  -6  -5 -10    7.50    3.40
   6   5  10    0.90    3.90
   6   5  10   -0.50    5.10
   3  -6 -10   78.69   13.90
  -3   6  10   76.29   11.70
   2  -6 -10   23.50    7.30
  -2   6  10   23.10    7.20
   1  -6 -10   11.80    5.20
  -1   6  10    9.30    4.60
  -1   6  10   11.60    2.90
   0  -6 -10  185.18   12.10
   0  -6 -10  174.68   11.50
   0   6  10  184.18   14.10
  -1  -6 -10   25.90    6.20
  -1  -6 -10   33.80    4.20
  -1  -6 -10   33.90    4.90
   1   6  10   24.00    6.40
  -2  -6 -10   67.09    8.70
   2   6  10   76.19   10.00
  -3  -6 -10  742.73   35.30
   3   6  10  727.33   33.00
  -4  -6 -10  548.75   29.90
   4   6  10  529.35   26.20
   5   6  10  110.79   10.50
   5   6  10   89.49   13.50
   5   6  10   98.89    4.80
   6   6  10   10.60    5.10
   6   6  10    7.90    6.20
   3  -7 -10    5.50    7.00
  -3   7  10   22.10    7.50
   2  -7 -10   29.70    8.40
  -2   7  10   36.80    8.80
   1  -7 -10  102.99   11.00
  -1   7  10   98.69   11.40
   0  -7 -10  386.06   19.40
   0  -7 -10  346.57   18.60
   0   7  10  385.56   22.50
  -1  -7 -10   50.09    8.10
  -1  -7 -10   73.99    4.90
   1   7  10   52.79    9.30
  -2  -7 -10   35.70    7.90
   2   7  10   33.60    7.30
  -3  -7 -10  162.48   14.50
   3   7  10  168.28   13.50
  -4  -7 -10    4.40    5.30
   4   7  10    2.00    4.30
  -5  -7 -10   43.00    9.60
   5   7  10   56.29    9.40
   6   7  10    4.20    6.90
   6   7  10   21.00    6.00
   2  -8 -10   32.90   10.00
  -2   8  10   47.80   10.60
   1  -8 -10  129.59   12.60
   1  -8 -10  156.58    9.90
  -1   8  10  122.69   13.50
   0  -8 -10   48.40    7.80
   0  -8 -10   43.00    6.90
   0   8  10   50.49   10.00
  -1  -8 -10   92.69   10.10
  -1  -8 -10   72.49    4.40
   1   8  10   97.89   11.50
  -2  -8 -10  146.89   13.20
   2   8  10  137.59   13.40
  -3  -8 -10  303.17   21.10
   3   8  10  293.67   20.00
  -4  -8 -10  116.19   13.70
  -5  -8 -10  282.17   22.70
   5   8  10  269.27   19.10
   0  -9 -10   12.20    4.90
   0   9  10    4.20    5.90
  -1  -9 -10  167.38   14.00
   1   9  10  160.88   15.60
  -2  -9 -10  109.39   12.30
   2   9  10  116.29   13.00
  -3  -9 -10  202.78   17.20
   3   9  10  190.58   16.70
  -4  -9 -10  127.69   14.60
   4   9  10   86.79   13.00
   2   8 -11   -9.30    4.30
  -2  -8  11    7.00    6.40
   1   8 -11  342.77   22.30
  -1  -8  11  307.37   23.90
   0   8 -11  126.99   12.80
   0   8 -11   61.89    9.70
   0  -8  11   97.39   14.90
   4   7 -11   94.39   14.10
   4   7 -11   81.49   13.20
  -4  -7  11   76.49   12.90
   3   7 -11   -2.70    5.20
   3   7 -11    2.90    5.40
  -3  -7  11    7.70    5.60
   2   7 -11  146.29   13.70
   2   7 -11  124.69   12.60
  -2  -7  11  142.19   14.90
   1   7 -11   67.79    9.70
   1   7 -11   95.29   11.20
  -1  -7  11   78.29   12.60
   0   7 -11   46.40    9.40
   0   7 -11   40.10    6.80
   0  -7  11   41.60   10.00
  -1   7 -11    8.60    6.90
  -1   7 -11    8.40    4.40
   1  -7  11    4.10    6.00
  -2   7 -11   13.10    5.40
   2  -7  11   -1.80    6.30
   4   6 -11   -7.20    6.70
   4   6 -11    7.70    6.30
  -4  -6  11    7.10    5.60
   3   6 -11   24.70    7.70
   3   6 -11   25.90    7.40
  -3  -6  11   38.00    9.50
   2   6 -11  209.98   16.70
   2   6 -11  211.78   15.20
  -2  -6  11  211.68   17.40
   1   6 -11  272.87   19.50
   1   6 -11  284.07   16.60
  -1  -6  11  235.78   18.90
   0   6 -11  107.29   12.20
   0  -6  11  108.89   13.10
  -1   6 -11    8.20    5.50
  -1   6 -11    1.70    3.20
   1  -6  11   -3.60    4.70
  -2   6 -11   15.20    3.70
  -2   6 -11   32.90   10.30
   2  -6  11   21.30    7.30
  -3   6 -11  107.99   14.10
   3  -6  11   78.09   12.90
   5   5 -11   38.60   11.90
   5   5 -11   40.20    9.50
  -5  -5  11   49.80    9.40
   4   5 -11    2.00    5.10
   4   5 -11    4.20    6.70
  -4  -5  11    7.80    5.00
   3   5 -11    2.80    7.40
   3   5 -11    9.60    5.30
  -3  -5  11    4.30    5.40
   2   5 -11   23.50    7.70
   2   5 -11   24.20    6.30
  -2  -5  11   33.70    8.20
   1   5 -11   -0.10    4.00
   1   5 -11    1.20    5.10
  -1  -5  11    1.90    4.90
   0   5 -11   29.70    8.00
   0   5 -11   27.30    5.50
   0  -5  11   33.50    8.50
  -1   5 -11  225.78   12.00
  -1   5 -11  260.37   18.60
   1  -5  11  217.48   17.50
  -2   5 -11  510.95   20.00
  -2   5 -11  540.55   30.60
   2  -5  11  497.55   28.60
  -3   5 -11  336.27   24.80
  -4   5 -11  213.38   20.20
   4  -5  11  163.48   16.90
   5   4 -11   51.29   13.20
  -5  -4  11   44.20    9.70
  -5  -4  11   32.80    6.70
   4   4 -11  333.67   22.50
  -4  -4  11  309.17   19.30
  -4  -4  11  328.07   20.90
   3   4 -11   16.50    5.80
   3   4 -11   22.20    8.10
  -3  -4  11   34.50    7.40
  -3  -4  11   25.20    6.70
   2   4 -11   27.00    6.60
   2   4 -11   30.40    8.30
  -2  -4  11   28.80    7.00
   1   4 -11    5.60    3.90
   1   4 -11    2.90    5.10
  -1  -4  11   -1.30    4.50
   0   4 -11   74.09    9.40
   0   4 -11   76.59    6.90
   0  -4  11   73.39   10.70
  -1   4 -11  216.08   10.70
  -1   4 -11  194.18   16.10
  -1   4 -11  188.88   10.00
   1  -4  11  185.68   15.10
  -2   4 -11   43.10    9.60
  -2   4 -11   34.20    2.20
   2  -4  11   31.70    8.10
  -3   4 -11   77.19   13.30
   3  -4  11   67.09   11.20
  -4   4 -11   49.10   10.90
   5   3 -11   13.60    9.50
  -5  -3  11   13.30    5.90
  -5  -3  11   22.60    5.60
   4   3 -11 1091.19   49.90
  -4  -3  11 1095.79   45.20
  -4  -3  11 1108.69   47.70
   3   3 -11   80.79   12.10
  -3  -3  11   76.39    9.30
   2   3 -11    1.40    5.90
  -2  -3  11    4.30    3.90
  -2  -3  11    6.50    4.40
  -1  -3  11  607.44   28.50
  -1  -3  11  584.44   25.80
   0   3 -11  124.49    8.30
   0   3 -11  133.89    9.50
   0  -3  11  117.49   11.30
  -1   3 -11   69.89   10.70
  -1   3 -11   68.09    4.90
   1  -3  11   59.99    9.50
  -2   3 -11    4.50    5.00
   2  -3  11    4.40    5.10
  -3   3 -11   79.89   10.60
   3  -3  11   78.19   11.40
  -4   3 -11  482.15   29.80
   4  -3  11  444.06   26.80
  -5   3 -11  301.47   24.10
   5  -3  11  300.27   21.80
   5   2 -11   56.19   14.00
  -5  -2  11   51.39   10.10
  -5  -2  11   68.59    7.30
   4   2 -11   -4.00    5.00
  -4  -2  11    2.90    3.10
  -4  -2  11    6.30    4.80
   3   2 -11   26.70    8.20
  -3  -2  11   25.20    6.20
  -3  -2  11   24.80    5.40
   2   2 -11  269.97   18.20
  -2  -2  11  267.97   15.30
  -2  -2  11  264.07   15.50
   1   2 -11  273.57   17.30
  -1  -2  11  282.37   14.70
  -1  -2  11  279.07   16.20
   0   2 -11  173.88    9.70
   0   2 -11  186.98   14.10
   0  -2  11  188.48   10.20
   0  -2  11  186.98   13.00
  -1   2 -11    7.80    2.00
  -1   2 -11    9.60    2.10
  -1   2 -11    2.20    4.70
   1  -2  11    4.60    3.50
  -2   2 -11  452.65   25.00
   2  -2  11  459.45   24.20
  -3   2 -11  768.42   37.40
   3  -2  11  740.73   35.40
  -4   2 -11  143.69   14.70
   4  -2  11  173.48   14.80
  -5   2 -11   14.90    8.10
   5  -2  11    3.50    6.20
   5   1 -11  150.68   16.40
  -5  -1  11  157.58   14.90
  -5  -1  11  142.89    8.60
   4   1 -11   31.50    5.30
   4   1 -11   49.60   10.40
  -4  -1  11   55.09    9.30
  -4  -1  11   44.20    5.30
   3   1 -11   89.29   11.30
  -3  -1  11   79.89    9.30
  -3  -1  11   83.29    6.90
   2   1 -11  668.93   32.40
  -2  -1  11  680.43   28.00
  -2  -1  11  670.03   29.60
   1   1 -11  292.67   18.00
  -1  -1  11  289.27   15.40
  -1  -1  11  306.07   15.30
   0   1 -11   12.00    5.10
   0   1 -11   11.30    3.00
   0  -1  11   11.30    3.10
   0  -1  11    8.10    3.80
  -1   1 -11    4.20    4.30
  -1   1 -11    4.40    1.60
   1  -1  11    6.80    1.70
   1  -1  11    5.80    4.00
  -2   1 -11  195.98   14.70
   2  -1  11  204.58   13.80
  -3   1 -11   14.40    6.20
   3  -1  11   17.30    6.20
  -4   1 -11    2.10    4.90
   4  -1  11    3.70    4.80
  -5   1 -11   18.40    7.80
   5  -1  11   19.60    7.40
  -6   1 -11  100.89   14.10
   6  -1  11  101.19   13.40
   5   0 -11  114.19   15.30
  -5   0  11  152.68   14.20
   4   0 -11    0.40    1.40
   4   0 -11    4.20    6.10
  -4   0  11    4.30    4.10
   3   0 -11  159.58    8.50
   3   0 -11  153.38   13.70
  -3   0  11  163.48   12.90
   2   0 -11   52.69   10.30
  -2   0  11   46.90    7.30
  -2   0  11   39.20    4.80
   1   0 -11   36.60    4.60
   1   0 -11   47.60    7.70
  -1   0  11   42.10    6.10
  -1   0  11   48.00    5.60
   0   0 -11  831.52   32.60
   0   0 -11  921.91   36.90
   0   0  11  795.92   34.00
   0   0  11  908.51   33.10
  -1   0 -11  306.07   13.10
  -1   0 -11  298.97   17.20
   1   0  11  312.77   16.80
   1   0  11  334.37   13.30
  -2   0 -11 2763.52  100.49
   2   0  11 2779.22   99.79
   3   0  11  196.38   14.10
  -4   0 -11   10.00    5.70
   4   0  11   10.70    5.50
  -5   0 -11  942.51   44.90
   5   0  11  920.91   43.30
  -6   0 -11   11.90    8.10
   6   0  11    9.90    6.10
   5  -1 -11   -0.50    5.90
  -5   1  11   22.50    7.20
   4  -1 -11  333.37   23.30
  -4   1  11  327.47   20.70
   3  -1 -11   18.60    7.60
  -3   1  11   23.50    6.20
   2  -1 -11  289.87   18.50
   2  -1 -11  274.17   11.90
  -2   1  11  301.67   12.20
  -2   1  11  265.07   18.30
   1  -1 -11   30.70    6.90
   1  -1 -11   31.60    3.80
  -1   1  11   34.40    4.40
  -1   1  11   35.00    5.90
   0  -1 -11 1941.71   73.59
   0  -1 -11 2177.38   71.49
   0   1  11 1906.61   71.09
   0   1  11 1979.60   70.89
  -1  -1 -11 1130.99   43.80
  -1  -1 -11  995.80   39.60
   1   1  11 1071.59   39.70
   1   1  11 1206.98   43.40
  -2  -1 -11    1.20    3.40
  -2  -1 -11    5.50    1.80
   2   1  11    3.70    1.60
   2   1  11    9.60    4.10
  -3  -1 -11  300.77   17.90
   3   1  11  296.87   11.10
   3   1  11  296.07   11.10
   3   1  11  338.37   18.70
  -4  -1 -11  486.55   25.60
   4   1  11  407.36   24.00
  -5  -1 -11  318.87   21.30
   5   1  11  290.67   20.30
  -6  -1 -11   32.10    8.70
   6   1  11   19.40    7.50
   5  -2 -11   -1.10    6.50
  -5   2  11   11.80    6.00
   4  -2 -11  140.29   15.70
  -4   2  11  136.79   13.10
   3  -2 -11   92.29   11.60
  -3   2  11   97.69   10.60
   2  -2 -11   12.80    5.80
  -2   2  11   24.40    5.50
   1  -2 -11  230.48   15.20
  -1   2  11  258.37   11.40
  -1   2  11  230.78   11.00
  -1   2  11  244.18   14.30
   0  -2 -11   39.30    6.80
   0   2  11   31.50    4.60
   0   2  11   32.20    4.70
   0   2  11   31.00    5.10
  -1  -2 -11  625.94   26.80
  -1  -2 -11  615.14   24.40
   1   2  11  588.44   24.50
   1   2  11  601.84   26.10
  -2  -2 -11  116.99    9.20
   2   2  11  115.69    9.60
   2   2  11  106.59    6.90
  -3  -2 -11  127.99   10.50
  -3  -2 -11  139.89    7.60
   3   2  11  143.69    7.80
   3   2  11  171.88   12.80
  -4  -2 -11  622.04   29.60
   4   2  11  639.34   30.90
   4   2  11  580.34   23.10
  -5  -2 -11  439.56   25.10
   5   2  11  444.26   19.60
   5   2  11  441.76   20.00
   5   2  11  435.86   25.80
  -6  -2 -11   35.80    8.80
   6   2  11   40.70    9.40
   6   2  11   38.60    6.00
   5  -3 -11    6.90    8.50
  -5   3  11    0.50    5.10
  -4   3  11    1.40    6.00
   3  -3 -11  105.79   12.70
  -3   3  11   81.89   11.30
   2  -3 -11   77.99   10.10
  -2   3  11   71.39    8.90
   1  -3 -11  975.80   40.10
  -1   3  11  933.41   33.60
  -1   3  11  910.51   33.50
   0  -3 -11 2349.36   84.99
   0   3  11 2410.26   82.39
   0   3  11 2298.27   82.19
   0   3  11 2352.56   84.39
  -1  -3 -11   15.00    4.60
   1   3  11    7.40    3.20
   1   3  11   10.20    3.30
  -2  -3 -11  472.75   21.80
   2   3  11  501.75   21.20
   2   3  11  527.35   24.10
   2   3  11  467.45   21.70
  -3  -3 -11  377.96   17.80
  -3  -3 -11  357.06   18.10
   3   3  11  323.67   16.00
   3   3  11  359.96   20.00
  -4  -3 -11   36.00    7.20
   4   3  11   23.60    6.90
   4   3  11   35.20    4.90
  -5  -3 -11    3.00    4.60
   5   3  11   11.70    6.10
   5   3  11    5.20    3.00
  -6  -3 -11   30.60    7.40
   6   3  11   22.20    8.30
   6   3  11   15.60    4.20
   4  -4 -11    0.60    6.70
  -4   4  11    7.10    6.00
   3  -4 -11  212.68   18.20
  -3   4  11  213.08   16.40
   2  -4 -11 1630.34   65.59
  -2   4  11 1612.24   63.79
   1  -4 -11   71.89    9.10
  -1   4  11   62.19    4.50
  -1   4  11   61.59    4.40
  -1   4  11   64.29    9.20
   0  -4 -11  306.77   16.60
   0   4  11  292.17   14.20
   0   4  11  298.17   14.60
   0   4  11  280.77   16.60
  -1  -4 -11  238.98   13.00
   1   4  11  213.18   12.30
   1   4  11  194.88   12.50
   1   4  11  225.28   13.30
  -2  -4 -11   37.20    5.50
   2   4  11   34.80    5.20
   2   4  11   46.30    6.60
   2   4  11   33.90    6.40
  -3  -4 -11   33.50    5.20
   3   4  11   34.10    5.40
   3   4  11   33.10    7.10
   3   4  11   33.20    5.50
  -4  -4 -11  300.27   16.00
   4   4  11  303.97   19.60
   4   4  11  282.87   15.30
  -5  -4 -11  169.98   12.30
   5   4  11  165.08   10.90
   5   4  11  144.19   13.90
  -6  -4 -11  734.43   35.10
   6   4  11  807.62   40.80
   4  -5 -11    8.30    7.70
  -4   5  11   24.50    6.90
   3  -5 -11   -8.10    4.30
  -3   5  11    3.80    5.60
   2  -5 -11   76.49   10.30
  -2   5  11   70.39   10.70
   1  -5 -11  107.79   10.70
  -1   5  11  134.19   11.70
  -1   5  11  106.39    6.20
  -1   5  11  101.69    6.30
   0  -5 -11    2.10    3.60
   0   5  11    6.20    4.30
   0   5  11    1.70    2.30
  -1  -5 -11   34.70    4.70
  -1  -5 -11   42.00    6.20
   1   5  11   35.50    6.30
   1   5  11   42.30    7.40
   2   5  11 1142.59   42.00
   2   5  11 1146.99   49.60
  -3  -5 -11  491.05   23.10
   3   5  11  497.05   20.20
   3   5  11  501.45   26.50
   3   5  11  499.45   26.00
  -4  -5 -11  137.49    8.40
   4   5  11  138.89   10.60
   4   5  11  131.69   12.90
  -5  -5 -11  411.26   18.90
   5   5  11  338.27   23.60
   5   5  11  396.96   20.30
  -6  -5 -11   64.99    7.70
   6   5  11   73.19   13.20
   6   5  11   67.39    9.00
   3  -6 -11  322.17   24.40
  -3   6  11  343.37   22.80
   2  -6 -11  292.87   20.40
  -2   6  11  281.67   20.00
   1  -6 -11    0.40    4.80
  -1   6  11   -2.80    2.90
  -1   6  11    2.60    4.30
   0  -6 -11  596.44   27.90
   0   6  11  681.23   27.30
   0   6  11  620.94   30.50
  -1  -6 -11  198.08   10.50
  -1  -6 -11  176.38   12.90
  -1  -6 -11  192.08   11.10
   1   6  11  168.88   13.60
  -2  -6 -11   26.30    2.60
  -2  -6 -11   27.20    2.70
  -2  -6 -11   18.30    5.80
   2   6  11   22.80    5.90
  -3  -6 -11    4.80    4.40
   3   6  11    5.00    4.70
  -4  -6 -11  308.17   20.90
   4   6  11  252.87   19.10
   4   6  11  302.67   17.70
   5   6  11  110.39    6.10
   5   6  11  135.19   11.60
   5   6  11  127.59   13.30
   6   6  11   69.99   10.20
   6   6  11   55.49   11.80
   2  -7 -11    6.70    7.00
  -2   7  11    5.00    5.90
   1  -7 -11    2.40    5.20
  -1   7  11   -1.50    2.10
   0  -7 -11  102.09    9.70
   0  -7 -11  118.09    9.70
   0   7  11  106.59   11.60
  -1  -7 -11   29.50    4.90
  -1  -7 -11   21.40    5.50
   1   7  11   35.40    7.90
  -2  -7 -11   15.60    5.60
   2   7  11   16.70    5.90
  -3  -7 -11  106.89   11.90
   3   7  11  107.29   11.20
  -4  -7 -11  892.61   44.00
   4   7  11  943.31   41.10
   5   7  11  130.09   14.80
   5   7  11  124.59   11.90
   6   7  11   75.29   11.00
   6   7  11   72.19   13.60
   1  -8 -11  106.29   12.00
  -1   8  11  125.49   13.70
   0  -8 -11  185.68   14.50
   0  -8 -11  169.28   12.30
   0   8  11  168.88   15.40
  -1  -8 -11   37.10    4.20
  -2  -8 -11   22.00    6.90
   2   8  11   15.80    5.80
  -3  -8 -11   93.89   11.50
   3   8  11   96.39   11.20
  -4  -8 -11  163.58   16.00
   4   8  11  173.08   17.30
  -5  -8 -11    7.10    6.30
   5   8  11   11.30    6.80
   0  -9 -11  135.49   11.40
   0   9  11  129.99   14.70
  -1  -9 -11   -4.40    3.70
   1   9  11    0.20    4.90
  -2  -9 -11    0.90    4.80
   2   9  11    2.20    5.30
  -3  -9 -11  153.18   15.30
   3   9  11  163.88   15.70
  -4  -9 -11   34.40    9.00
   4   9  11   36.50    8.90
   1   8 -12   30.50    8.70
  -1  -8  12   34.80    9.90
   3   7 -12  271.57   20.60
   3   7 -12  273.07   19.70
  -3  -7  12  304.47   22.60
   2   7 -12   18.40    7.00
   2   7 -12   20.00    7.20
  -2  -7  12    2.40    5.80
   1   7 -12   65.39    9.40
   1   7 -12   94.79   11.30
  -1  -7  12   92.29   14.40
   0   7 -12  185.18   19.50
   0   7 -12  156.98   12.90
   0  -7  12  205.68   18.10
  -1   7 -12   14.30    6.20
   1  -7  12    7.80    6.60
  -2   7 -12   14.50    7.40
   2  -7  12   -6.10    5.90
   4   6 -12    1.70    5.70
   4   6 -12    1.80    8.80
  -4  -6  12   14.70    6.80
   3   6 -12    1.00    5.10
   2   6 -12    1.80    5.20
   2   6 -12   -7.80    4.10
  -2  -6  12    2.00    4.90
   1   6 -12   17.00    7.10
   1   6 -12   14.50    6.20
  -1  -6  12   19.40    6.30
   0   6 -12  185.98   16.30
   0   6 -12  171.78   12.00
   0  -6  12  185.58   16.80
  -1   6 -12  103.79    8.60
  -1   6 -12  145.19   15.20
   1  -6  12  133.49   15.00
  -2   6 -12   11.50    6.20
   2  -6  12    7.50    6.80
  -3   6 -12  107.89   15.00
   3  -6  12  119.39   14.90
   5   5 -12  112.59   15.70
   5   5 -12  106.99   15.10
  -5  -5  12  137.19   15.50
   4   5 -12  184.58   18.40
   4   5 -12  172.08   15.70
  -4  -5  12  202.18   16.40
   3   5 -12    3.80    7.90
   3   5 -12   11.00    5.50
  -3  -5  12    5.50    5.10
   2   5 -12  836.72   36.10
   2   5 -12  795.22   38.70
  -2  -5  12  747.13   37.50
   1   5 -12  497.95   28.50
   1   5 -12  540.45   25.10
  -1  -5  12  531.85   28.80
   0   5 -12   22.20    5.20
   0   5 -12   36.00    9.00
   0  -5  12   24.90    8.40
  -1   5 -12   60.29    5.90
  -1   5 -12   65.79   11.10
   1  -5  12   67.39   11.20
  -2   5 -12   80.49   13.30
  -2   5 -12   75.59    4.30
   2  -5  12   72.09   11.70
  -3   5 -12   24.20    8.30
   3  -5  12   18.20    7.80
  -4   5 -12   48.60   11.70
   4  -5  12   18.60    8.40
   5   4 -12  214.18   20.70
  -5  -4  12  214.98   16.00
  -5  -4  12  237.48   18.70
   4   4 -12  436.56   27.60
  -4  -4  12  465.65   25.00
   3   4 -12   74.09   10.60
   3   4 -12   62.29   11.60
  -3  -4  12   90.39   10.20
  -3  -4  12   72.79   10.20
   2   4 -12  236.38   18.40
   2   4 -12  247.18   16.00
  -2  -4  12  240.98   16.90
   1   4 -12   11.80    6.40
   1   4 -12   13.20    4.60
  -1  -4  12   17.70    6.50
   0   4 -12   64.39    6.60
   0   4 -12   76.59   11.80
   0  -4  12   68.89   10.80
  -1   4 -12    2.10    2.20
  -1   4 -12   -1.10    5.00
  -1   4 -12    0.00    2.00
   1  -4  12    5.50    5.30
  -2   4 -12   41.20    9.70
   2  -4  12   21.50    7.30
  -3   4 -12  216.08   18.90
   3  -4  12  196.98   17.40
  -4   4 -12  151.88   16.80
   4  -4  12  124.89   14.80
   5   3 -12   15.50    8.80
  -5  -3  12   29.90    6.20
  -5  -3  12   32.40    8.20
   4   3 -12   88.59   13.70
  -4  -3  12   66.79   10.80
  -4  -3  12   75.99    8.90
   3   3 -12   12.80    7.20
  -3  -3  12   12.90    5.40
  -3  -3  12   14.30    5.00
   2   3 -12   23.90    8.10
  -2  -3  12   16.10    5.20
  -2  -3  12   10.20    4.80
   1   3 -12  229.58   17.30
  -1  -3  12  244.28   16.10
  -1  -3  12  230.58   13.60
   0   3 -12  272.97   18.50
   0   3 -12  269.67   13.70
   0  -3  12  258.77   17.30
  -1   3 -12  691.23   26.80
  -1   3 -12  726.83   35.30
   1  -3  12  767.72   34.60
  -2   3 -12   39.70    9.40
   2  -3  12   48.20    8.90
  -3   3 -12   66.99   12.20
   3  -3  12   58.49   10.60
  -4   3 -12    8.20    7.00
   4  -3  12   -2.40    4.70
  -5   3 -12    3.90    7.30
   5  -3  12   -7.70    5.90
   5   2 -12   -5.50    5.20
  -5  -2  12    2.30    5.30
  -5  -2  12    5.60    3.80
   4   2 -12  337.87   23.50
  -4  -2  12  335.87   21.20
  -4  -2  12  339.77   17.90
   3   2 -12  899.31   42.80
  -3  -2  12  941.61   40.20
  -3  -2  12  916.31   37.90
   2   2 -12  141.39   12.90
  -2  -2  12  139.29   10.80
  -2  -2  12  147.09   11.20
   1   2 -12  114.79   11.40
  -1  -2  12  113.69   10.60
  -1  -2  12  105.79    8.80
   0   2 -12  140.79    8.70
   0  -2  12  140.19    8.90
   0  -2  12  165.98   12.40
  -1   2 -12   46.90    4.00
  -1   2 -12   32.20    7.50
  -1   2 -12   40.00    3.70
   1  -2  12   37.50    7.60
  -2   2 -12   73.79   11.70
   2  -2  12   65.59    9.90
  -3   2 -12  161.28   15.20
   3  -2  12  146.99   13.90
  -4   2 -12  481.15   29.10
   4  -2  12  444.46   26.70
  -5   2 -12  180.08   18.10
   5  -2  12  164.98   17.00
   5   1 -12   55.59   12.90
  -5  -1  12   52.59   10.40
   4   1 -12  163.78   16.30
  -4  -1  12  181.08   10.30
  -4  -1  12  174.98   14.70
   3   1 -12   43.60    9.70
  -3  -1  12   41.30    5.70
  -3  -1  12   35.30    7.40
   2   1 -12   14.20    5.60
  -2  -1  12   20.20    5.50
  -2  -1  12   16.10    4.50
   1   1 -12 1699.33   65.59
  -1  -1  12 1632.04   61.09
  -1  -1  12 1603.04   60.39
   0   1 -12  270.57   13.40
   0   1 -12  304.37   18.30
   0  -1  12  285.47   16.20
   0  -1  12  276.77   13.60
  -1   1 -12   20.80    2.90
  -1   1 -12   11.80    5.10
   1  -1  12   11.00    4.80
   1  -1  12   17.50    2.80
  -2   1 -12 1748.23   69.89
   2  -1  12 1832.62   68.89
  -3   1 -12   73.59   10.30
   3  -1  12   85.69    9.80
  -4   1 -12  321.87   22.00
   4  -1  12  291.67   20.30
   5  -1  12   -1.00    5.10
  -6   1 -12   58.99   12.20
   6  -1  12   52.29   11.60
   5   0 -12   57.59   13.10
  -5   0  12   59.19   10.70
   4   0 -12   37.30   10.10
   4   0 -12   20.30    2.60
  -4   0  12   36.00    8.20
   3   0 -12   21.60    7.50
  -3   0  12   32.00    3.90
  -3   0  12   29.20    6.60
   2   0 -12  322.27   20.70
   2   0 -12  341.37   15.60
  -2   0  12  330.77   18.30
  -2   0  12  352.96   15.90
   1   0 -12  444.06   24.00
  -1   0  12  486.15   21.50
  -1   0  12  445.76   20.50
   0   0 -12  181.48   13.50
   0   0  12  201.78   10.90
   0   0  12  214.78   12.90
  -1   0 -12  101.39    9.60
  -1   0 -12  102.99    6.20
   1   0  12  100.69    9.10
   1   0  12  101.19    6.20
  -2   0 -12  799.52   35.20
   2   0  12  780.32   26.20
   2   0  12  741.03   33.90
  -3   0 -12    5.00    5.00
   3   0  12    5.60    4.40
  -4   0 -12  160.98   14.80
   4   0  12  164.58   14.40
  -5   0 -12   21.70    7.80
   5   0  12   28.80    7.80
  -6   0 -12  552.04   32.80
   6   0  12  510.25   30.80
   5  -1 -12    6.80    5.80
  -5   1  12   22.40    7.50
   4  -1 -12   19.40    8.30
  -4   1  12   14.20    5.80
   3  -1 -12   11.60    5.80
  -3   1  12    6.50    4.80
   2  -1 -12    9.30    5.90
   2  -1 -12    6.60    2.10
  -2   1  12    3.50    3.90
  -2   1  12    6.60    2.30
   1  -1 -12   92.89    7.10
   1  -1 -12  130.09   11.70
  -1   1  12  122.29    9.50
  -1   1  12  118.29    8.00
   0  -1 -12  156.28   12.50
   0   1  12  155.98    9.70
   0   1  12  146.29    9.80
  -1  -1 -12    0.50    1.80
  -1  -1 -12    6.40    4.50
   1   1  12    3.70    3.10
   1   1  12    5.40    2.40
  -2  -1 -12 1263.47   45.80
  -2  -1 -12 1327.17   52.19
   2   1  12 1262.27   45.90
   2   1  12 1435.86   52.59
  -3  -1 -12  394.26   21.60
   3   1  12  382.86   13.30
   3   1  12  374.56   21.40
  -4  -1 -12   51.69    9.70
   4   1  12   63.69   10.20
  -5  -1 -12  143.09   14.10
   5   1  12  105.89   12.60
  -6  -1 -12    7.50    6.20
   6   1  12    8.30    6.00
   5  -2 -12   -4.10    5.90
  -5   2  12    0.80    4.70
   3  -2 -12   60.19   11.10
  -3   2  12   81.69    9.90
   2  -2 -12  328.37   20.80
  -2   2  12  328.37   18.90
   1  -2 -12    2.50    4.70
  -1   2  12   10.10    3.00
  -1   2  12    8.70    2.50
  -1   2  12    7.30    4.10
   0  -2 -12 1287.17   48.20
   0   2  12 1172.88   45.40
   0   2  12 1176.78   44.70
   0   2  12 1137.49   44.50
  -1  -2 -12  492.95   23.00
   1   2  12  470.15   21.80
   1   2  12  448.56   20.30
  -2  -2 -12   10.00    2.80
  -2  -2 -12   20.60    5.20
   2   2  12   14.20    4.80
   2   2  12   11.20    2.90
  -3  -2 -12   15.90    5.40
  -3  -2 -12   12.70    2.90
   3   2  12   20.50    3.20
   3   2  12   23.00    6.10
  -4  -2 -12   32.10    7.40
   4   2  12   34.90    3.90
   4   2  12   29.30    7.10
   4   2  12   29.30    3.20
  -5  -2 -12  295.97   19.80
   5   2  12  286.47   20.40
   5   2  12  290.97   12.00
   5   2  12  296.37   11.90
  -6  -2 -12    5.00    5.10
   6   2  12    2.40    4.70
   4  -3 -12  230.08   19.70
  -4   3  12  245.88   17.90
   3  -3 -12  443.76   27.40
  -3   3  12  473.95   25.90
   2  -3 -12    3.00    5.00
  -2   3  12    0.40    4.10
   1  -3 -12    0.50    4.40
  -1   3  12    4.80    4.10
  -1   3  12    5.00    1.90
  -1   3  12    2.60    2.00
   0  -3 -12  902.21   37.00
   0   3  12  830.82   33.50
   0   3  12  882.31   35.90
   0   3  12  856.51   33.80
  -1  -3 -12  104.89    9.40
   1   3  12  101.09    8.10
   1   3  12   93.19    8.20
  -2  -3 -12   77.49    7.60
   2   3  12   58.69    7.60
   2   3  12   80.59    6.70
  -3  -3 -12   67.69    7.40
   3   3  12   51.19    8.70
   3   3  12   70.69    6.30
  -4  -3 -12  589.84   28.00
   4   3  12  561.54   30.20
   4   3  12  624.04   24.50
  -5  -3 -12  393.16   22.40
   5   3  12  389.66   17.30
   5   3  12  381.86   24.40
  -6  -3 -12   41.70    8.20
   6   3  12   31.40    4.70
   6   3  12   40.00   10.20
   4  -4 -12    7.40    7.80
  -4   4  12   -3.10    4.70
   3  -4 -12    5.80    6.20
  -3   4  12    5.60    5.50
   2  -4 -12  147.79   14.00
  -2   4  12  169.18   13.70
  -1   4  12  690.93   25.70
  -1   4  12  709.13   32.30
  -1   4  12  692.13   25.60
   0  -4 -12  145.49   11.60
   0   4  12  129.89    9.00
   0   4  12  133.79   11.00
   0   4  12  147.99    9.00
  -1  -4 -12  407.76   20.30
   1   4  12  417.66   20.90
   1   4  12  450.55   21.10
  -2  -4 -12  384.16   18.30
   2   4  12  395.76   18.30
   2   4  12  374.26   20.20
   2   4  12  367.26   18.60
  -3  -4 -12  162.98   10.70
   3   4  12  160.68   10.90
   3   4  12  162.28   13.30
  -4  -4 -12   53.29    6.70
   4   4  12   41.50    9.00
   4   4  12   44.80    6.60
  -5  -4 -12   13.70    4.80
   5   4  12    8.10    5.50
   5   4  12    5.20    3.60
  -6  -4 -12   39.60    7.90
   6   4  12   33.10    9.20
   4  -5 -12  128.69   17.00
  -4   5  12  146.29   15.60
   3  -5 -12   93.89   14.80
  -3   5  12   93.99   11.40
   2  -5 -12  353.46   22.50
  -2   5  12  345.07   21.60
   1  -5 -12  115.69   11.30
  -1   5  12  124.89   11.90
  -1   5  12  118.89    6.80
  -1   5  12  116.89    6.50
   0  -5 -12  128.39   10.80
   0   5  12  115.29    8.60
   0   5  12  115.09   10.80
  -1  -5 -12    6.10    4.10
   1   5  12    2.30    4.10
   1   5  12    3.70    3.40
  -2  -5 -12  115.39    7.90
   2   5  12  106.89    9.70
   2   5  12   97.09    7.50
   2   5  12   95.79    9.60
  -3  -5 -12   53.09    5.20
   3   5  12   44.80    8.30
   3   5  12   39.40    6.90
  -4  -5 -12  222.38   11.80
   4   5  12  219.28   13.50
   4   5  12  172.38   11.40
   4   5  12  201.48   16.20
  -5  -5 -12   99.29    8.40
   5   5  12  100.99    9.40
   5   5  12   87.09   15.20
   6   5  12  516.65   25.00
   6   5  12  533.95   32.10
   3  -6 -12   49.00   11.60
  -3   6  12   49.30    9.90
   2  -6 -12   21.60    7.40
  -2   6  12   22.70    7.70
   1  -6 -12   20.20    6.90
  -1   6  12   31.00    7.70
  -1   6  12   10.30    3.60
   0  -6 -12    2.90    4.10
   0   6  12    0.90    4.20
   0   6  12    0.40    2.70
  -1  -6 -12  481.15   20.90
  -1  -6 -12  484.85   21.40
   1   6  12  434.36   22.70
   1   6  12  496.15   25.20
  -2  -6 -12  932.61   34.20
  -2  -6 -12  926.91   33.90
   2   6  12  964.00   40.60
   2   6  12  883.01   39.60
   3   6  12  374.06   20.50
   3   6  12  320.67   20.70
   4   6  12   85.29    9.30
   4   6  12   80.29   10.70
   5   6  12  148.29   15.50
   5   6  12  159.78   12.70
   6   6  12  371.06   26.30
   6   6  12  356.26   20.50
   2  -7 -12   34.20    9.70
  -2   7  12   42.50    9.60
   1  -7 -12   57.69   10.20
  -1   7  12   45.80    6.80
  -1   7  12   72.49   11.80
   0  -7 -12  465.55   23.20
   0   7  12  476.55   26.10
   0   7  12  466.75   22.00
  -1  -7 -12  169.28    9.50
  -1  -7 -12  119.19    9.10
  -1  -7 -12  123.39   11.30
   1   7  12  147.99   12.70
  -2  -7 -12    5.60    4.70
   2   7  12    0.20    4.40
  -3  -7 -12   70.19   11.10
   3   7  12   54.79    9.40
  -4  -7 -12    8.90    5.80
   4   7  12    4.60    4.10
   4   7  12    1.50    4.30
   5   7  12   61.29   11.80
   5   7  12   77.29   11.10
   1  -8 -12  289.47   19.30
  -1   8  12  299.47   21.60
   0  -8 -12   -6.30    4.60
   0   8  12    9.10    5.10
  -1  -8 -12   52.69    8.90
   1   8  12   59.69   10.90
  -2  -8 -12  202.28   16.00
  -3  -8 -12  203.98   16.90
  -4  -8 -12  197.78   17.70
   4   8  12  168.58   15.00
   5   8  12   -3.40    4.60
   5   8  12   -4.30    5.20
   0   9  12  447.06   27.90
  -1  -9 -12   28.20    7.10
   1   9  12   32.50    8.80
  -2  -9 -12   39.80    8.40
   2   9  12   18.40    7.50
  -3  -9 -12  285.87   20.90
   3   9  12  266.77   20.00
  -4  -9 -12   64.99   12.20
   4   9  12   60.59   11.00
   3   7 -13   15.90    6.90
   3   7 -13    1.20    5.30
  -3  -7  13   23.70    9.10
  -2  -7  13  148.49   16.20
   1   7 -13  125.69   12.10
  -1  -7  13  127.79   15.40
   0   7 -13   71.59    9.50
   0   7 -13  105.49   12.50
   0  -7  13   85.19   13.70
  -1   7 -13  469.05   29.70
   1  -7  13  452.65   29.90
   4   6 -13   62.39   11.80
   4   6 -13   71.49   14.30
  -4  -6  13   56.09   10.30
   3   6 -13  183.98   17.60
   3   6 -13  171.88   15.50
  -3  -6  13  200.18   17.30
   2   6 -13   10.20    6.00
   2   6 -13   -0.50    4.80
  -2  -6  13    5.70    5.60
   1   6 -13  138.29   13.60
   1   6 -13  124.89   11.50
  -1  -6  13  107.19   17.50
   0   6 -13   14.80    5.00
   0   6 -13    6.50    6.20
   0  -6  13    8.30    6.90
  -1   6 -13   50.59   10.80
  -1   6 -13   43.70    6.10
   1  -6  13   46.80   11.10
  -2   6 -13    7.90    5.80
   2  -6  13    3.60    6.70
   4   5 -13   84.49   12.50
   4   5 -13   65.99   14.20
  -4  -5  13   95.69   11.20
   3   5 -13    4.10    4.90
   3   5 -13   -6.00    4.90
  -3  -5  13    5.10    5.70
   2   5 -13  147.29   15.10
   2   5 -13  147.89   13.00
  -2  -5  13  151.18   14.40
   1   5 -13    5.00    4.00
   1   5 -13   -2.10    5.00
  -1  -5  13    6.20    6.10
   0   5 -13  237.78   18.40
   0   5 -13  221.88   13.60
   0  -5  13  223.18   18.30
  -1   5 -13   17.10    6.50
  -1   5 -13   10.30    3.40
   1  -5  13   10.20    5.90
   2  -5  13  107.89   13.70
  -3   5 -13  380.56   27.60
   3  -5  13  402.96   26.50
   5   4 -13   -1.00    7.80
  -5  -4  13    7.00    6.70
   4   4 -13   28.20    9.90
  -4  -4  13   42.20    7.70
  -4  -4  13   32.90    8.10
   3   4 -13   26.70    7.10
   3   4 -13   14.90    8.60
  -3  -4  13   32.60    7.80
  -3  -4  13   40.00    7.80
   2   4 -13  263.07   19.50
   2   4 -13  250.97   16.70
  -2  -4  13  241.88   17.40
   1   4 -13  411.76   22.40
   1   4 -13  333.77   22.70
  -1  -4  13  342.37   21.90
   0   4 -13  113.29    8.70
   0   4 -13  139.29   14.10
   0  -4  13  113.59   12.40
  -1   4 -13   86.09   11.50
  -1   4 -13   70.49    5.70
  -1   4 -13   71.59    5.80
   1  -4  13   62.59   10.90
  -2   4 -13  562.84   31.60
   2  -4  13  521.85   29.70
  -3   4 -13   49.90   11.00
  -4   4 -13  150.98   17.50
   4  -4  13  151.28   16.50
   5   3 -13    6.20    8.60
  -5  -3  13    4.70    4.40
  -5  -3  13   12.20    6.80
   4   3 -13   51.69   11.70
  -4  -3  13   69.39    8.70
   3   3 -13   -5.50    5.60
  -3  -3  13    0.60    3.90
  -3  -3  13    3.40    4.60
   2   3 -13  210.48   17.60
  -2  -3  13  197.28   14.00
  -2  -3  13  195.48   14.40
   1   3 -13   43.40    9.80
  -1  -3  13   54.09    6.60
  -1  -3  13   45.30    8.50
   0   3 -13    4.90    5.40
   0   3 -13    9.00    3.70
   0  -3  13    9.00    4.50
  -1   3 -13  160.78    8.40
  -1   3 -13  167.08    8.60
  -1   3 -13  173.08   15.50
   1  -3  13  151.38   14.00
  -2   3 -13  516.85   29.50
   2  -3  13  524.05   28.50
  -3   3 -13  168.78   16.70
   3  -3  13  177.78   15.90
  -4   3 -13   56.59   11.80
   4  -3  13   54.99   10.80
  -5   3 -13  171.88   18.60
   5  -3  13  107.59   15.80
   5   2 -13   -3.30    6.40
  -5  -2  13   -4.90    4.00
  -5  -2  13    3.50    3.90
   4   2 -13   33.90    9.80
  -4  -2  13   42.80    9.00
  -4  -2  13   61.29    7.40
   3   2 -13   27.00    9.10
  -3  -2  13   28.90    6.60
  -3  -2  13   39.00    6.70
   2   2 -13  574.04   30.20
  -2  -2  13  518.95   25.70
  -2  -2  13  559.74   26.40
   1   2 -13    4.90    4.70
  -1  -2  13    2.80    4.70
  -1  -2  13    2.10    3.10
   0   2 -13  279.77   18.80
   0  -2  13  303.17   18.30
   0  -2  13  321.77   15.00
  -1   2 -13 2500.35   86.19
  -1   2 -13 2570.04   95.69
   1  -2  13 2532.75   93.89
  -2   2 -13  806.32   38.40
   2  -2  13  765.32   36.50
  -3   2 -13    5.60    5.80
   3  -2  13    9.00    5.00
  -4   2 -13  575.64   33.10
   4  -2  13  550.14   31.10
  -5   2 -13   78.09   14.20
   5  -2  13   52.69   11.20
   5   1 -13   79.09   15.40
  -5  -1  13  111.39   13.00
   4   1 -13  170.48   17.20
  -4  -1  13  198.98   15.80
  -4  -1  13  191.28   10.90
   3   1 -13  121.69   14.00
  -3  -1  13  143.89   10.00
  -3  -1  13  144.89   12.40
   2   1 -13  118.79   13.00
  -2  -1  13  128.99   10.00
  -2  -1  13  125.99   10.70
   1   1 -13   63.99   10.60
  -1  -1  13   62.99    7.50
  -1  -1  13   64.69    7.10
   0   1 -13  542.65   28.20
   0  -1  13  569.44   26.40
   0  -1  13  552.84   23.20
  -1   1 -13  170.78    8.70
  -1   1 -13  181.48   14.50
  -2   1 -13  147.89   13.70
   2  -1  13  168.38   13.50
  -3   1 -13   13.20    6.30
   3  -1  13   12.40    6.20
  -4   1 -13  176.88   16.60
   4  -1  13  188.88   16.30
  -5   1 -13  147.39   16.00
   5  -1  13  141.69   15.20
   5   0 -13   95.29   15.90
  -5   0  13   67.69   12.40
   4   0 -13   84.49   14.40
  -4   0  13  120.69   11.90
   3   0 -13   58.19   11.30
  -3   0  13   51.49    8.90
  -3   0  13   63.79    5.30
   2   0 -13    3.10    6.00
   2   0 -13    3.20    3.00
  -2   0  13    8.30    4.60
  -2   0  13    4.40    3.30
   1   0 -13  416.66   23.30
  -1   0  13  408.86   19.50
  -1   0  13  391.26   19.60
   0   0 -13  271.07   17.60
   0   0  13  291.17   14.50
   0   0  13  306.67   16.40
  -1   0 -13   41.00    4.90
  -1   0 -13   47.50    8.80
   1   0  13   43.90    7.40
   1   0  13   41.80    4.30
  -2   0 -13  182.28    7.20
  -2   0 -13  177.98   16.80
   2   0  13  195.88   14.10
   2   0  13  181.38    7.20
  -3   0 -13    1.70    4.80
   3   0  13   -0.60    3.90
  -4   0 -13  338.77   22.60
   4   0  13  369.96   22.80
  -5   0 -13   92.09   12.70
   5   0  13   83.69   13.00
  -6   0 -13   14.60    7.40
   6   0  13    0.50    5.80
   5  -1 -13   33.60   11.70
  -5   1  13   58.49   11.10
   3  -1 -13   11.00    7.10
  -3   1  13    9.50    4.80
   2  -1 -13  780.62   30.10
   2  -1 -13  828.72   38.50
  -2   1  13  825.62   31.50
  -2   1  13  795.72   35.20
   1  -1 -13  860.91   38.00
   1  -1 -13  821.92   32.50
  -1   1  13  783.12   34.40
  -1   1  13  866.81   33.00
   0  -1 -13  236.68   16.50
   0   1  13  265.67   14.40
   0   1  13  260.87   13.80
  -1  -1 -13    2.50    2.20
  -1  -1 -13   10.70    5.60
   1   1  13    2.90    2.30
   1   1  13    6.30    4.10
  -2  -1 -13  554.44   27.30
  -2  -1 -13  564.54   21.30
   2   1  13  561.84   21.50
  -3  -1 -13  235.28   16.70
   3   1  13  269.87   17.50
  -4  -1 -13   45.20    9.30
   4   1  13   33.50    7.60
  -5  -1 -13    2.50    4.50
   5   1  13   -1.80    3.30
  -6  -1 -13  184.28   17.40
   6   1  13  192.48   18.70
   5  -2 -13   31.30   11.00
  -5   2  13   39.80    9.30
   4  -2 -13   62.89   12.30
  -4   2  13   44.80    8.90
   3  -2 -13  184.38   16.80
  -3   2  13  188.68   15.00
   2  -2 -13   47.60    9.80
  -2   2  13   61.49    9.20
  -2   2  13   53.89    2.90
   1  -2 -13   51.69    9.30
  -1   2  13   36.70    4.80
  -1   2  13   33.60    6.50
   0  -2 -13   47.30    8.40
   0   2  13   35.00    5.80
   0   2  13   37.60    6.10
  -1  -2 -13  225.08   14.80
   1   2  13  226.88   13.90
   1   2  13  202.28   11.70
  -2  -2 -13   98.29    9.50
  -2  -2 -13   81.19    6.30
   2   2  13   93.79    9.30
   2   2  13   89.59    6.60
  -3  -2 -13    6.00    2.30
  -3  -2 -13    3.90    4.20
   3   2  13   13.30    2.80
   3   2  13    5.00    4.30
  -4  -2 -13   56.99    9.90
   4   2  13   58.39    3.90
   4   2  13   51.49    9.80
   4   2  13   57.89    4.00
  -5  -2 -13  439.06   25.40
   5   2  13  404.16   25.50
  -6  -2 -13  235.58   18.70
   6   2  13  185.78   17.90
   4  -3 -13   -2.10    6.50
  -4   3  13    4.00    4.90
   3  -3 -13  208.08   18.20
  -3   3  13  218.18   16.80
   2  -3 -13   75.49   11.70
  -2   3  13   71.39   10.20
   1  -3 -13   46.80    9.10
  -1   3  13   38.30    3.80
  -1   3  13   25.80    6.20
   0  -3 -13  534.15   26.00
   0   3  13  541.25   24.80
   0   3  13  501.85   22.60
  -1  -3 -13  848.82   36.70
   1   3  13  944.61   36.80
   1   3  13  861.31   35.50
  -2  -3 -13  810.82   33.50
   2   3  13  806.02   31.20
   2   3  13  708.73   34.00
  -3  -3 -13   54.39    7.50
   3   3  13   50.89    8.70
   3   3  13   54.29    5.50
  -4  -3 -13   55.39    8.90
   4   3  13   37.70    8.40
   4   3  13   46.50    5.20
  -5  -3 -13    8.70    5.60
   5   3  13   10.80    3.10
   5   3  13   14.00    6.40
  -6  -3 -13   14.60    5.50
   6   3  13   10.00    6.70
   4  -4 -13  114.59   15.80
  -4   4  13  156.88   15.40
   3  -4 -13  855.91   42.50
  -3   4  13  799.62   40.10
   2  -4 -13   81.39   12.70
  -2   4  13   89.09   10.00
   1  -4 -13  194.68   14.70
  -1   4  13  183.48    9.10
  -1   4  13  193.18    9.10
  -1   4  13  188.68   14.20
   0  -4 -13 1354.66   54.99
   0   4  13 1460.55   55.59
   0   4  13 1414.76   52.09
  -1  -4 -13  518.35   24.20
   1   4  13  534.45   24.30
   1   4  13  469.75   23.40
  -2  -4 -13   32.00    6.00
   2   4  13   22.70    6.90
   2   4  13   33.30    6.10
  -3  -4 -13  247.18   14.30
   3   4  13  242.48   16.90
   3   4  13  240.58   13.70
  -4  -4 -13  830.12   35.30
   4   4  13  839.02   39.80
   4   4  13  814.02   33.40
  -5  -4 -13  107.09   12.80
   5   4  13  117.09   13.70
   5   4  13   92.49    8.30
  -6  -4 -13   75.09    9.00
   6   4  13   47.30    6.80
   6   4  13   56.79   12.00
   3  -5 -13   38.10   10.50
  -3   5  13   49.20    9.80
   2  -5 -13   26.40    8.40
  -2   5  13   41.10    9.00
   1  -5 -13  304.47   19.40
  -1   5  13  309.27   13.00
  -1   5  13  310.47   13.00
  -1   5  13  330.77   20.10
   0  -5 -13  166.68   12.70
   0   5  13  175.18   13.40
   0   5  13  151.28   10.20
  -1  -5 -13    7.30    5.00
   1   5  13    3.70    4.10
   1   5  13    2.30    3.40
  -2  -5 -13  132.49    9.10
   2   5  13  107.49   10.40
   2   5  13  114.79    8.70
   2   5  13  114.39   10.20
  -3  -5 -13  257.17   12.90
   3   5  13  228.68   16.50
   3   5  13  223.38   14.60
   3   5  13  219.68   12.60
  -4  -5 -13  413.86   19.10
   4   5  13  362.96   23.70
   4   5  13  419.86   20.90
  -5  -5 -13   65.29    6.90
   5   5  13   51.79   10.90
   5   5  13   40.50    7.40
  -6  -5 -13   15.20    4.90
   6   5  13    2.90    6.30
   6   5  13    3.10    4.50
   3  -6 -13   -9.90    5.40
  -3   6  13   -2.60    5.50
   2  -6 -13   31.60    9.50
  -2   6  13   30.40    8.40
   1  -6 -13  228.98   16.50
  -1   6  13  228.28   17.10
  -1   6  13  186.48    9.30
   0  -6 -13  167.78   12.90
   0   6  13  160.18   10.80
   0   6  13  178.18   14.30
  -1  -6 -13    3.30    4.30
   1   6  13   -0.50    4.10
   1   6  13    2.10    4.00
  -2  -6 -13  198.38   10.60
   2   6  13  200.58   14.90
   2   6  13  202.08   14.70
   3   6  13   -0.50    3.90
   3   6  13   -2.60    3.90
  -4  -6 -13    8.50    1.80
   4   6  13    6.60    4.60
   4   6  13    2.40    4.50
   5   6  13    1.00    3.60
   5   6  13   -2.90    4.40
   6   6  13  158.48   17.40
   2  -7 -13  126.29   14.20
  -2   7  13  156.28   15.80
   1  -7 -13    1.40    5.60
  -1   7  13   -1.30    4.70
   0  -7 -13   18.30    6.50
   0   7  13   11.80    6.10
   0   7  13   16.10    4.40
  -1  -7 -13    6.40    4.50
   1   7  13   16.20    6.10
   1   7  13   18.20    5.70
  -2  -7 -13  271.87   11.20
   2   7  13  377.76   20.70
   2   7  13  315.27   19.70
   3   7  13  269.57   18.50
   3   7  13  316.27   20.60
   4   7  13  189.48   15.00
   4   7  13  154.98   17.80
   5   7  13  138.69   12.70
   5   7  13  119.99   14.80
   1  -8 -13   20.10    8.20
  -1   8  13   34.60    9.90
   0  -8 -13  218.98   15.20
  -1  -8 -13  174.98   15.00
   1   8  13  179.68   15.90
   1   8  13  207.68   14.80
  -2  -8 -13  229.68   16.90
   2   8  13  189.98   15.30
   2   8  13  198.38   16.40
  -3  -8 -13   63.59   13.10
   3   8  13   56.89   10.10
   3   8  13   42.90    9.30
   4   8  13   23.30    7.10
   4   8  13   20.50    8.00
   5   8  13   42.40   10.30
   5   8  13   43.30    9.30
   1   9  13    0.00    5.30
   1   9  13   18.00    8.30
  -2  -9 -13   23.20    8.80
   2   9  13   20.10    7.70
  -3  -9 -13  116.39   13.60
   3   9  13   90.39   13.40
   2   7 -14   78.89   11.80
   2   7 -14  126.99   14.80
  -2  -7  14  127.89   15.60
   1   7 -14   37.60    8.20
   1   7 -14   19.30    6.70
  -1  -7  14   21.50    8.00
   0   7 -14  -13.10    4.60
   0   7 -14   19.70    7.60
   0  -7  14   -4.30    5.70
   3   6 -14   12.90    7.70
   3   6 -14    7.60    6.40
  -3  -6  14   17.70    7.90
   2   6 -14   -5.70    4.40
  -2  -6  14   -4.80    4.80
   1   6 -14   25.00    6.60
   1   6 -14   28.50    8.10
  -1  -6  14   23.60    8.50
   0   6 -14   14.20    4.70
   0  -6  14   12.80    7.00
  -1   6 -14  173.78   17.30
  -1   6 -14  158.28   10.50
   1  -6  14  174.68   17.30
  -2   6 -14  396.16   27.40
   2  -6  14  326.37   25.90
   4   5 -14  -10.20    6.90
   4   5 -14    3.70    5.80
  -4  -5  14   13.30    6.00
   3   5 -14    9.70    8.20
  -3  -5  14   23.90    7.50
   2   5 -14   44.70   10.20
   2   5 -14   33.60    8.30
  -2  -5  14   39.70    9.20
   1   5 -14   -2.00    4.80
   1   5 -14   -3.80    3.80
  -1  -5  14   -3.30    4.70
   0   5 -14  231.08   18.90
   0   5 -14  227.98   14.10
   0  -5  14  262.87   19.70
  -1   5 -14  163.68    9.50
  -1   5 -14  184.58   17.10
  -2   5 -14   35.30    9.50
   2  -5  14    7.90    7.40
  -3   5 -14   41.80   11.10
   3  -5  14   10.90    8.40
   4   4 -14  154.98   17.80
  -4  -4  14  195.38   16.20
   3   4 -14   90.49   14.90
   3   4 -14   86.29   10.70
  -3  -4  14  108.39   11.70
  -3  -4  14  108.99   12.10
   2   4 -14  170.58   16.70
   2   4 -14  166.48   13.80
  -2  -4  14  179.38   15.50
   1   4 -14   80.99   13.40
   1   4 -14   74.99    9.70
  -1  -4  14   58.09   10.50
   0   4 -14  114.99    9.00
   0   4 -14  109.69   13.00
   0  -4  14   95.09   12.20
  -1   4 -14    0.10    5.10
  -1   4 -14    3.90    3.30
  -1   4 -14    1.10    2.40
   1  -4  14   -1.00    5.10
  -2   4 -14  132.89   14.90
   2  -4  14  110.59   13.70
  -3   4 -14  345.17   25.60
   3  -4  14  340.67   24.10
  -4   4 -14  278.37   24.20
   4  -4  14  302.47   23.40
   5   3 -14   -4.70    7.80
  -5  -3  14    6.10    5.00
  -5  -3  14    0.10    6.00
   4   3 -14   91.19   15.00
  -4  -3  14   48.90    8.00
  -4  -3  14   64.59   10.70
   3   3 -14   23.20    8.70
  -3  -3  14   11.00    5.50
  -3  -3  14   17.50    5.60
   2   3 -14  200.68   17.50
  -2  -3  14  166.08   13.70
  -2  -3  14  173.48   13.50
   1   3 -14  221.88   18.30
  -1  -3  14  247.28   16.50
  -1  -3  14  232.88   16.70
   0   3 -14  122.19    8.90
   0   3 -14  105.59   12.00
   0  -3  14  112.59   12.20
  -1   3 -14    3.80    6.00
  -1   3 -14    1.30    2.20
  -1   3 -14    2.80    2.20
   1  -3  14    5.10    4.50
  -2   3 -14  175.78   15.80
   2  -3  14  172.78   15.80
  -3   3 -14  208.28   18.30
   3  -3  14  225.78   18.70
  -4   3 -14   21.20    8.20
   4  -3  14    4.40    6.20
   5   2 -14   58.49   13.50
  -5  -2  14   56.29   10.90
   4   2 -14    6.20    7.60
  -4  -2  14   -1.90    4.70
  -4  -2  14    6.80    3.70
   3   2 -14   13.90    7.80
  -3  -2  14   22.20    6.00
  -3  -2  14   19.80    6.10
   2   2 -14   -2.40    4.30
  -2  -2  14   -1.60    3.60
   1   2 -14   81.99   10.70
  -1  -2  14   69.29    9.00
  -1  -2  14   83.19    8.00
   0   2 -14  175.38   15.70
   0  -2  14  186.48   14.30
   0  -2  14  199.18   11.30
  -1   2 -14  206.18   10.70
  -1   2 -14  207.38   10.00
  -1   2 -14  222.98   17.20
   1  -2  14  225.78   16.40
  -2   2 -14   11.50    6.60
   2  -2  14    7.10    5.50
  -3   2 -14  109.49   13.10
   3  -2  14   91.59   12.20
  -4   2 -14   -0.50    6.10
  -5   2 -14   72.19   14.00
   5  -2  14   50.59   12.30
   5   1 -14    1.60    7.80
  -5  -1  14    1.10    5.70
   4   1 -14   25.30    9.30
  -4  -1  14   25.00    4.40
  -4  -1  14   17.30    6.90
   3   1 -14   -4.30    5.50
  -3  -1  14   -0.70    3.00
  -3  -1  14   -0.90    3.50
   2   1 -14   61.69   11.20
  -2  -1  14   64.79    7.60
  -2  -1  14   68.99    9.40
   1   1 -14   14.60    7.60
  -1  -1  14    7.40    5.00
  -1  -1  14   19.00    4.70
   0   1 -14   25.70    7.90
   0  -1  14   24.90    6.50
   0  -1  14   35.60    5.40
  -1   1 -14 2253.37   79.79
  -1   1 -14 2306.97   88.39
   1  -1  14 2376.36   86.99
   1  -1  14 2369.26   79.99
  -2   1 -14   80.49   10.90
   2  -1  14  108.29   11.60
  -3   1 -14    2.20    4.90
   3  -1  14    4.10    5.00
  -4   1 -14  437.76   27.70
   4  -1  14  406.16   25.60
  -5   1 -14   51.79   11.50
   5  -1  14   45.90   10.90
   5   0 -14   51.19   12.90
  -5   0  14   44.30   10.40
   4   0 -14   14.50    7.90
  -4   0  14   13.30    6.30
   3   0 -14  234.98   19.20
   3   0 -14  194.68   11.30
  -3   0  14  240.08   11.70
  -3   0  14  248.88   17.00
   2   0 -14    2.20    5.70
  -2   0  14    2.20    3.80
  -2   0  14   -0.90    2.80
   1   0 -14  991.30   44.70
  -1   0  14 1013.80   40.70
  -1   0  14 1029.00   40.40
   0   0 -14  301.57   18.90
   0   0  14  291.87   16.90
   0   0  14  306.87   15.20
  -1   0 -14   46.70    4.70
  -1   0 -14   48.40    9.20
   1   0  14   40.80    4.60
   1   0  14   55.89    9.90
  -2   0 -14   97.69   11.30
  -2   0 -14  100.79    4.80
   2   0  14  109.39   11.10
   2   0  14  107.09    4.90
  -3   0 -14  420.06   25.00
   3   0  14  440.46   24.80
  -4   0 -14  112.09   13.00
   4   0  14   99.29   11.50
   5   0  14   40.70    9.60
  -6   0 -14   11.80    6.30
   6   0  14   -3.00    6.80
   5  -1 -14  108.99   18.50
  -5   1  14  130.59   15.30
   4  -1 -14   97.99   16.00
  -4   1  14  113.99   13.10
   3  -1 -14    4.10    6.00
  -3   1  14   11.80    5.60
   2  -1 -14   22.10    7.20
  -2   1  14   22.30    6.40
  -2   1  14   16.80    3.60
   1  -1 -14  151.48   14.00
  -1   1  14  154.68   10.20
  -1   1  14  156.18   13.40
   0  -1 -14  146.39   15.60
   0   1  14  148.79   11.10
   0   1  14  158.18   10.50
  -1  -1 -14   -3.50    4.20
   1   1  14   -0.40    2.20
   1   1  14    2.80    3.70
  -2  -1 -14   50.39    4.40
   2   1  14   55.39    8.50
   2   1  14   53.19    6.40
  -3  -1 -14  604.84   30.70
   3   1  14  622.84   30.80
  -4  -1 -14  625.14   32.20
   4   1  14  604.74   32.10
  -5  -1 -14   49.40   10.30
   5   1  14   40.40   11.30
  -6  -1 -14  198.48   17.80
   6   1  14  145.39   16.60
   4  -2 -14   46.50   11.60
  -4   2  14   53.89   10.30
   3  -2 -14   90.09   12.70
  -3   2  14   99.49   11.40
   2  -2 -14  419.36   25.40
  -2   2  14  424.96   15.90
  -2   2  14  403.86   22.70
  -2   2  14  446.36   15.90
   1  -2 -14 1777.02   68.19
  -1   2  14 1720.53   65.09
  -1   2  14 1757.22   61.29
  -1   2  14 1588.84   60.89
   0  -2 -14  311.27   19.20
   0   2  14  333.77   17.10
   0   2  14  306.57   16.20
  -1  -2 -14   62.39    9.60
   1   2  14   51.19    6.00
   1   2  14   64.19    7.50
  -2  -2 -14  604.24   24.10
  -2  -2 -14  607.54   28.70
   2   2  14  581.44   24.20
   2   2  14  608.24   28.80
  -3  -2 -14   65.69    5.10
   3   2  14   72.59    5.30
   3   2  14   49.60    8.70
  -4  -2 -14   16.70    5.90
   4   2  14   20.70    2.30
   4   2  14   18.70    2.10
   4   2  14   21.20    7.00
  -5  -2 -14   96.19   11.50
   6   2  14   -0.60    5.90
   4  -3 -14   -3.10    6.00
  -4   3  14    7.30    5.30
   3  -3 -14  326.07   23.60
  -3   3  14  305.37   21.20
   2  -3 -14   47.40    9.90
  -2   3  14   32.40    7.60
   1  -3 -14  517.55   27.20
  -1   3  14  468.25   20.30
  -1   3  14  493.85   20.40
  -1   3  14  540.35   25.70
   0  -3 -14   64.89    9.80
   0   3  14   47.20    6.10
   0   3  14   41.70    7.30
  -1  -3 -14  299.37   17.60
   1   3  14  298.57   15.90
   1   3  14  279.87   16.20
  -2  -3 -14  107.79   10.10
   2   3  14  126.69   11.00
   2   3  14  117.99    8.50
  -3  -3 -14  541.45   25.90
   3   3  14  466.25   26.40
   3   3  14  533.05   22.10
  -4  -3 -14   84.89    9.60
   4   3  14   92.99    9.40
   4   3  14   88.59    6.60
   4   3  14   87.59   11.10
  -5  -3 -14  855.11   38.80
   5   3  14  789.92   30.50
   6   3  14  253.47   21.10
   4  -4 -14    0.40    7.20
  -4   4  14   -0.20    6.20
  -3   4  14   18.20    6.70
   2  -4 -14   17.80    7.00
  -2   4  14   12.70    6.40
   1  -4 -14   58.09   10.30
  -1   4  14   59.29    9.20
  -1   4  14   63.09    4.90
   0  -4 -14    8.50    5.00
   0   4  14   10.50    4.90
   0   4  14    6.60    3.10
  -1  -4 -14  930.01   39.10
   1   4  14  931.71   38.60
   1   4  14  940.81   38.70
  -2  -4 -14  592.64   27.30
   2   4  14  610.34   27.00
   2   4  14  628.54   29.60
  -3  -4 -14    3.80    3.60
   3   4  14   -5.40    2.50
   3   4  14    4.50    4.60
  -4  -4 -14  194.18   13.40
   4   4  14  176.38   11.10
   4   4  14  154.18   14.90
  -5  -4 -14   37.60    7.70
   5   4  14   35.40    5.80
   5   4  14   48.20   10.50
  -6  -4 -14   10.30    4.70
   6   4  14   -1.70    5.30
   3  -5 -14  135.79   15.90
  -3   5  14  141.99   14.90
   2  -5 -14    0.30    6.30
  -2   5  14    3.30    4.00
   1  -5 -14  160.78   14.40
  -1   5  14  174.48   14.20
  -1   5  14  150.08    7.60
  -1   5  14  138.89    7.40
   0  -5 -14    3.50    5.00
   0   5  14    7.00    4.90
   0   5  14    2.00    2.80
  -1  -5 -14   45.90    7.80
   1   5  14   50.09    7.50
   1   5  14   47.20    7.90
  -2  -5 -14   10.20    3.90
   2   5  14    0.60    3.40
   2   5  14    7.40    4.50
  -3  -5 -14  129.39    9.10
   3   5  14  116.19   12.00
   3   5  14  115.99   10.00
  -4  -5 -14  194.98   11.90
   4   5  14  165.78   12.20
   4   5  14  177.58   15.70
  -5  -5 -14  329.27   17.70
   5   5  14  365.66   24.80
   5   5  14  302.87   17.60
  -6  -5 -14   15.30    5.60
   6   5  14   -5.50    5.90
   6   5  14    1.80    4.20
   2  -6 -14    2.20    5.40
  -2   6  14   10.30    6.20
   1  -6 -14   38.30    8.40
  -1   6  14   31.30    3.70
   0   6  14   49.50    9.10
   0   6  14   56.49    6.60
  -1  -6 -14    9.20    4.90
   1   6  14   11.40    4.80
   1   6  14   25.40    6.40
  -2  -6 -14   54.99    5.70
  -2  -6 -14   59.99    6.30
   2   6  14   61.09    9.10
   2   6  14   33.30    7.30
   3   6  14 1115.09   49.60
   3   6  14 1172.18   47.70
   4   6  14  193.58   16.60
   4   6  14  162.88   13.30
   5   6  14  102.09   15.10
   5   6  14  102.09   10.60
   2  -7 -14  101.89   18.10
  -2   7  14  144.09   15.60
   1  -7 -14  350.46   22.70
  -1   7  14  423.66   25.50
   0  -7 -14    5.20    6.50
   0   7  14   10.20    5.90
   0   7  14    5.80    4.00
  -1  -7 -14   39.10    6.80
   1   7  14   30.80    7.90
   1   7  14   32.60    6.80
  -2  -7 -14  142.79    7.90
   2   7  14  143.19   13.10
   2   7  14  133.99   12.40
   3   7  14  275.77   18.20
   3   7  14  265.47   19.10
   4   7  14   36.20    9.20
   4   7  14   15.10    6.50
   5   7  14   14.00    7.20
   5   7  14   12.20    6.40
   1  -8 -14   63.19   11.40
  -1   8  14  101.89   15.10
   0  -8 -14   -9.90    6.00
   0   8  14    4.10    5.80
   0   8  14   -8.70    6.10
   1   8  14   14.30    5.90
   1   8  14   17.60    7.20
   2   8  14  262.97   18.80
   2   8  14  288.67   20.00
   3   8  14   86.09   15.20
   3   8  14   74.19   11.60
   4   8  14   18.00    7.20
   4   8  14   26.80    7.90
   1   9  14  467.35   25.40
   1   9  14  472.85   29.10
   2   9  14  257.07   20.40
   3   9  14    4.20    5.90
   3   6 -15  302.07   23.40
   3   6 -15  293.27   21.40
  -3  -6  15  332.57   23.60
   2   6 -15  280.67   19.70
   2   6 -15  314.87   23.10
  -2  -6  15  297.97   22.60
   1   6 -15   81.19   10.00
   1   6 -15  103.09   13.30
  -1  -6  15   88.09   13.40
   0   6 -15   33.40    9.20
   0   6 -15   26.80    6.10
   0  -6  15   31.40    9.80
   1  -6  15   65.49   13.00
   3   5 -15  181.58   16.20
   3   5 -15  148.99   17.50
  -3  -5  15  185.08   16.50
   2   5 -15    6.80    5.30
   1   5 -15    7.90    6.10
   1   5 -15   -0.50    4.40
   0   5 -15   56.39   11.40
   0   5 -15   34.30    6.50
   0  -5  15   45.50   10.50
  -1   5 -15  173.38   10.00
  -1   5 -15  191.28   18.00
   1  -5  15  192.68   18.00
  -2   5 -15  284.07   22.90
   2  -5  15  268.47   21.70
  -3   5 -15   65.49   13.80
   3  -5  15   37.60   11.60
   4   4 -15   -1.70    8.00
  -4  -4  15   13.20    4.90
  -4  -4  15    7.00    5.50
  -3  -4  15  159.38   14.40
  -3  -4  15  156.78   14.30
   2   4 -15  230.68   16.10
   2   4 -15  244.28   20.30
  -2  -4  15  236.98   18.10
   1   4 -15   49.90    8.00
   1   4 -15   64.19   12.30
  -1  -4  15   50.39    9.70
   0   4 -15  198.68   17.50
   0   4 -15  172.48   11.50
   0  -4  15  173.58   15.90
  -1   4 -15  100.89   13.10
  -1   4 -15   84.69    6.30
   1  -4  15   70.29   11.90
  -2   4 -15   13.10    8.60
   2  -4  15   33.80    9.00
  -3   4 -15   34.70    9.80
   3  -4  15   21.90    8.70
   4   3 -15  223.18   21.80
  -4  -3  15  240.88   18.90
  -4  -3  15  254.47   16.60
   3   3 -15    9.90    8.20
  -3  -3  15   16.70    6.10
  -3  -3  15   27.10    6.80
   2   3 -15   -0.10    6.30
  -2  -3  15    4.10    4.30
  -2  -3  15    3.70    5.10
   1   3 -15   -2.40    5.40
  -1  -3  15    2.70    5.30
  -1  -3  15    1.40    3.30
   0   3 -15  118.59   13.70
   0   3 -15  124.59    9.30
   0  -3  15  110.59   12.30
  -1   3 -15   49.60   10.80
  -1   3 -15   59.19    5.00
   1  -3  15   37.50    8.70
  -2   3 -15    4.70    6.20
   2  -3  15    6.30    6.20
  -3   3 -15  454.25   29.60
   3  -3  15  462.05   28.00
  -4   3 -15  407.56   28.20
   4  -3  15  326.27   24.80
   4   2 -15   20.90    9.70
  -4  -2  15    9.10    5.80
  -4  -2  15   20.90    5.10
   3   2 -15   -0.80    6.70
  -3  -2  15   13.20    4.50
  -3  -2  15   12.00    5.30
   2   2 -15  228.58   19.60
  -2  -2  15  225.98   15.30
  -2  -2  15  240.58   16.20
   1   2 -15  184.78   17.10
  -1  -2  15  200.98   14.80
  -1  -2  15  200.98   14.80
   0   2 -15  439.76   26.00
   0  -2  15  468.85   20.70
   0  -2  15  442.16   24.60
  -1   2 -15  485.75   19.50
  -1   2 -15  495.75   28.10
   1  -2  15  473.95   26.40
  -2   2 -15   37.50    9.70
   2  -2  15   13.40    6.70
  -3   2 -15  203.18   18.10
   3  -2  15  187.38   17.00
  -4   2 -15   14.90    6.20
   4  -2  15   20.50    8.80
  -5   2 -15   62.99   13.80
   5  -2  15   37.20   10.90
   4   1 -15    1.00    6.70
  -4  -1  15    2.60    5.10
  -4  -1  15    5.30    3.10
   3   1 -15  202.58   18.70
  -3  -1  15  185.78   12.30
  -3  -1  15  188.48   14.90
   2   1 -15  592.94   32.50
  -2  -1  15  614.34   27.40
  -2  -1  15  581.24   28.50
   1   1 -15  105.39   13.30
  -1  -1  15  113.99   10.30
   0   1 -15    1.70    4.50
   0  -1  15    4.10    3.00
   0  -1  15    2.90    5.10
  -1   1 -15  549.74   22.40
  -1   1 -15  577.44   29.70
   1  -1  15  539.45   21.80
   1  -1  15  535.15   27.60
  -2   1 -15   38.00    9.00
   2  -1  15   28.80    7.60
  -3   1 -15   93.39   11.90
   3  -1  15   76.39   11.80
  -4   1 -15  130.79   15.10
  -5   1 -15  265.67   21.80
   5  -1  15  215.08   19.80
   4   0 -15    3.60    7.60
  -4   0  15   14.90    6.90
   3   0 -15   13.60    6.70
  -3   0  15   11.90    5.90
   2   0 -15   23.10    8.30
  -2   0  15   17.90    6.20
  -2   0  15   22.50    4.90
   1   0 -15   18.70    7.90
  -1   0  15   16.40    5.20
  -1   0  15   30.30    6.30
   0   0 -15    2.30    5.80
   0   0  15   -1.70    3.50
   0   0  15    1.90    3.00
  -1   0 -15  598.14   30.60
  -1   0 -15  552.84   23.70
   1   0  15  631.74   24.20
   1   0  15  597.94   28.90
  -2   0 -15  625.54   31.70
  -2   0 -15  604.44   21.80
   2   0  15  622.24   21.90
   2   0  15  599.24   30.30
  -3   0 -15    9.80    6.00
   3   0  15    0.80    4.80
  -4   0 -15  107.09   13.20
   4   0  15  106.99   13.30
  -5   0 -15   50.39   11.80
   5   0  15   28.50    8.80
   4  -1 -15   95.19   15.90
  -4   1  15  120.29   13.40
   3  -1 -15  291.07   21.60
  -3   1  15  276.77   18.90
   2  -1 -15   96.19   12.50
   2  -1 -15   74.39    6.40
  -2   1  15   97.19   10.20
  -2   1  15  105.19    7.40
   1  -1 -15   94.29   12.00
  -1   1  15   95.79    8.40
  -1   1  15   99.59    9.60
   0  -1 -15  396.96   23.70
   0   1  15  409.86   20.00
   0   1  15  430.06   21.20
  -1  -1 -15  447.46   24.70
   1   1  15  451.15   19.90
  -2  -1 -15  229.68   16.40
  -2  -1 -15  201.48   10.10
   2   1  15  223.18   15.70
   2   1  15  223.68   10.50
  -3  -1 -15  102.99   11.90
   3   1  15  108.59   11.80
  -4  -1 -15  389.76   23.80
   4   1  15  320.87   22.70
  -5  -1 -15    4.30    5.30
   5   1  15    5.20    5.80
  -6  -1 -15   15.20    6.60
   6   1  15   -0.80    6.60
   4  -2 -15  335.77   25.80
  -4   2  15  323.17   22.30
   3  -2 -15   88.99   14.40
  -3   2  15  112.79   12.40
   2  -2 -15   15.90    7.90
  -2   2  15   26.70    3.00
  -2   2  15   16.80    6.50
  -2   2  15   16.50    2.50
   1  -2 -15  366.26   22.40
  -1   2  15  345.17   19.70
  -1   2  15  354.86   16.90
  -1   2  15  333.97   17.60
   0  -2 -15   16.20    7.00
   0   2  15    9.90    4.50
   0   2  15   23.80    5.60
  -1  -2 -15   15.10    7.50
   1   2  15   11.50    3.90
   1   2  15    9.70    4.60
  -2  -2 -15   63.59   11.60
   2   2  15   56.59    5.60
   2   2  15   49.20    8.30
  -3  -2 -15  593.04   23.90
  -3  -2 -15  702.33   32.00
   3   2  15  635.64   24.10
   3   2  15  601.64   31.30
  -4  -2 -15  733.23   36.30
   4   2  15  771.32   37.70
  -5  -2 -15   37.00    8.70
   5   2  15   34.50    9.70
  -6  -2 -15   82.39   11.20
   6   2  15   42.70   11.20
   4  -3 -15   58.39   13.40
  -4   3  15   45.40   10.20
  -3   3  15    4.30    5.10
   2  -3 -15  352.06   23.80
  -2   3  15  393.16   22.60
   1  -3 -15  170.18   15.20
  -1   3  15  173.58   13.70
  -1   3  15  189.58   10.50
  -1   3  15  177.48   10.00
   0  -3 -15  103.39   11.40
   0   3  15  120.49   10.80
   0   3  15  118.69    9.20
  -1  -3 -15    2.50    4.90
   1   3  15   -1.50    2.90
   1   3  15   -2.40    2.70
  -2  -3 -15   27.20    6.60
   2   3  15   24.90    5.20
   2   3  15   20.10    5.90
  -3  -3 -15   45.20    9.10
   3   3  15   46.90    8.70
   3   3  15   40.30    5.70
  -4  -3 -15   84.49   10.00
   4   3  15   74.19    6.00
   4   3  15   61.89   10.50
   4   3  15   75.29    5.90
  -5  -3 -15   26.20    7.20
   5   3  15   15.20    7.00
  -6  -3 -15   19.60    6.90
   6   3  15    3.00    6.30
   3  -4 -15  177.08   17.90
  -3   4  15  175.08   16.40
   2  -4 -15   15.80    7.00
  -2   4  15   10.80    6.00
   1  -4 -15   94.09   11.60
  -1   4  15  118.59    6.90
  -1   4  15  102.69   10.80
   0  -4 -15    9.00    6.20
   0   4  15    4.70    4.30
   0   4  15    2.10    3.20
  -1  -4 -15   56.89    9.40
   1   4  15   43.40    7.00
   1   4  15   45.70    7.60
  -2  -4 -15   47.40    7.80
   2   4  15   43.70    6.90
   2   4  15   62.69    8.20
  -3  -4 -15  613.84   28.20
   3   4  15  617.94   26.50
   3   4  15  556.34   30.20
  -4  -4 -15    7.10    4.30
   4   4  15    2.80    3.40
   4   4  15    4.60    5.50
  -5  -4 -15  464.45   24.60
   5   4  15  421.96   19.80
   5   4  15  432.16   27.70
  -6  -4 -15  251.47   17.20
   6   4  15  195.58   19.70
   3  -5 -15   42.80   11.10
  -3   5  15   44.90   10.40
   2  -5 -15   -2.60    5.50
  -2   5  15    5.20    5.80
   1  -5 -15   13.10    6.80
  -1   5  15   14.90    6.00
  -1   5  15   12.60    2.80
   0  -5 -15  120.49   11.50
   0   5  15  109.79    8.70
   0   5  15  120.09   11.80
  -1  -5 -15  864.01   35.70
   1   5  15  831.42   36.20
   1   5  15  715.03   36.70
  -2  -5 -15  512.55   24.50
   2   5  15  521.05   25.70
   2   5  15  568.04   27.80
  -3  -5 -15   50.09    6.40
   3   5  15   46.00    9.20
   3   5  15   55.49    8.00
  -4  -5 -15   95.39    8.50
   4   5  15   86.39    9.00
   4   5  15  110.99   12.80
  -5  -5 -15  342.07   18.60
   5   5  15  320.17   23.80
   5   5  15  350.16   18.40
  -2   6  15    1.90    4.60
   1  -6 -15  300.67   20.80
  -1   6  15  331.47   21.80
   0  -6 -15  189.18   14.80
   0   6  15  198.08   15.80
   0   6  15  204.08   12.40
  -1  -6 -15    2.40    5.00
   1   6  15   -2.50    3.50
   1   6  15    9.50    4.50
  -2  -6 -15   10.00    3.50
   2   6  15    6.50    4.70
   2   6  15    1.40    3.70
  -3  -6 -15   82.19    6.10
   3   6  15   57.19    9.20
   3   6  15   48.60    9.80
  -4  -6 -15   83.89    6.30
   4   6  15   69.39    8.50
   5   6  15    5.00    5.80
   5   6  15    5.90    4.60
   1  -7 -15   -1.80    6.10
  -1   7  15    7.20    5.90
   0  -7 -15   61.39   10.10
   0   7  15   71.09   11.40
   0   7  15   72.29    7.80
  -1  -7 -15   98.79   10.00
   1   7  15  141.29   11.90
  -2  -7 -15  176.98   10.00
   2   7  15  166.08   14.30
   2   7  15  160.88   14.20
   3   7  15  282.87   20.70
   3   7  15  328.37   20.00
   4   7  15   83.49   13.50
   4   7  15   93.79   10.90
   5   7  15   98.29   15.00
   0  -8 -15  -10.70    6.60
   0   8  15   20.10    7.70
   1   8  15   44.50    8.20
   1   8  15   34.30    9.10
   2   8  15  173.48   15.10
   2   8  15  176.88   15.60
   3   8  15   82.49   13.00
   3   8  15  123.59   12.90
   4   8  15   -8.90    3.90
   4   8  15   -9.30    5.10
   2   6 -16   -2.20    5.20
   2   6 -16    9.50    7.90
  -2  -6  16    8.00    6.90
   1   6 -16  182.78   14.80
  -1  -6  16  224.08   19.60
   0   6 -16    1.70    5.10
   0   6 -16   -0.30    4.50
   0  -6  16    8.20    7.40
  -1   6 -16   61.79   12.40
   1  -6  16   51.49   12.50
   3   5 -16   61.29   13.20
   3   5 -16   70.39   11.80
  -3  -5  16   64.09   11.40
   2   5 -16  115.89   11.80
   2   5 -16  123.69   15.30
  -2  -5  16  122.19   13.80
   1   5 -16   57.69   11.50
   1   5 -16   52.39    8.70
  -1  -5  16   61.59   11.30
   0   5 -16   17.60    7.30
   0  -5  16   -1.40    5.90
  -1   5 -16   67.59   13.40
   1  -5  16   52.49   11.70
  -2   5 -16    5.50    6.70
   2  -5  16    0.00    6.20
   4   4 -16   13.30   11.40
   4   4 -16   20.80    8.20
  -4  -4  16   20.40    7.30
  -4  -4  16   32.50    7.70
   3   4 -16    6.60    9.00
   3   4 -16    1.80    4.70
  -3  -4  16    2.90    4.60
  -3  -4  16   -0.30    4.60
   2   4 -16    7.30    4.70
  -2  -4  16    9.20    6.50
   1   4 -16    9.60    5.10
   1   4 -16   10.40    7.40
  -1  -4  16    7.70    5.80
   0   4 -16   37.60   10.10
   0   4 -16   20.50    5.20
   0  -4  16   35.50    8.90
  -1   4 -16  271.77   12.50
  -2   4 -16  437.56   29.00
   2  -4  16  419.26   27.60
  -3   4 -16   14.80    7.90
   3  -4  16    3.70    7.60
   4   3 -16   -6.00    6.90
  -4  -3  16    1.90    4.20
  -4  -3  16    3.60    4.70
   3   3 -16  122.69   16.40
  -3  -3  16  119.99   11.90
  -3  -3  16  117.99   16.60
   2   3 -16   41.50   11.30
  -2  -3  16   53.49    8.90
  -2  -3  16   48.70    8.90
   1   3 -16   18.00    8.60
  -1  -3  16   17.40    6.70
  -1  -3  16   25.70    6.10
   0   3 -16 1166.88   53.19
   0   3 -16 1161.08   44.90
   0  -3  16 1174.08   50.99
  -1   3 -16  348.37   24.10
  -1   3 -16  342.27   14.60
   1  -3  16  312.37   22.00
  -2   3 -16    4.40    5.80
   2  -3  16   -0.30    6.50
  -3   3 -16  239.88   21.60
   3  -3  16  248.38   20.60
  -4   3 -16   23.70    8.70
   4  -3  16   -6.00    6.30
   4   2 -16  105.99   17.00
  -4  -2  16  103.19   14.30
  -4  -2  16  116.59   10.50
   3   2 -16   77.49   14.40
  -3  -2  16   86.19   10.40
  -3  -2  16   87.09    9.40
   2   2 -16   76.19   13.10
  -2  -2  16   91.69   10.40
  -2  -2  16   90.39    9.60
   1   2 -16  180.88   17.40
  -1  -2  16  193.68   13.30
  -1  -2  16  203.58   15.50
   0   2 -16   22.50    8.40
   0  -2  16   13.60    6.80
   0  -2  16   24.70    4.90
  -1   2 -16   47.20    4.80
  -1   2 -16   49.60   10.90
   1  -2  16   51.69    9.90
  -2   2 -16    2.80    5.70
   2  -2  16    5.70    4.70
  -3   2 -16   39.60   10.90
  -4   2 -16  139.19   16.10
   4  -2  16   95.49   14.90
   4   1 -16   11.40    9.10
  -4  -1  16   21.80    7.10
  -4  -1  16   10.70    5.60
  -3  -1  16   24.70    5.40
  -3  -1  16   18.60    6.40
   2   1 -16  574.24   32.50
  -2  -1  16  596.94   28.80
   1   1 -16  112.39   14.20
  -1  -1  16  129.89   10.60
  -1  -1  16  122.39   11.60
   0   1 -16   -5.10    5.80
   0  -1  16    8.00    5.10
   0  -1  16   11.70    3.80
  -1   1 -16   45.90    9.90
  -1   1 -16   38.10    4.80
   1  -1  16   44.70    9.00
   1  -1  16   45.50    4.80
  -2   1 -16    6.50    5.60
   2  -1  16    3.80    5.60
  -3   1 -16  544.05   32.00
   3  -1  16  610.04   32.20
  -4   1 -16  151.88   16.20
   4  -1  16  137.39   15.60
  -5   1 -16    9.30    7.00
   5  -1  16   -8.40    5.50
   4   0 -16    5.60    7.80
  -4   0  16    9.70    5.60
  -3   0  16  317.07   20.60
  -3   0  16  303.87   14.90
   2   0 -16  448.86   28.70
  -2   0  16  528.05   26.10
  -2   0  16  499.65   23.00
   1   0 -16  552.74   31.00
  -1   0  16  527.15   25.80
  -1   0  16  576.44   26.50
   0   0 -16   45.50    9.90
   0   0  16   41.50    6.30
   0   0  16   49.30    8.60
  -1   0 -16  352.96   22.90
   1   0  16  387.26   21.80
   1   0  16  373.96   16.90
  -2   0 -16   32.80    8.80
  -2   0 -16   20.50    2.50
   2   0  16   30.90    7.20
   2   0  16   25.60    2.60
  -3   0 -16  229.38   18.20
   3   0  16  221.18   17.90
  -4   0 -16    5.40    5.70
  -5   0 -16  375.96   26.30
   5   0  16  372.56   26.30
   4  -1 -16   -3.60    6.90
  -4   1  16   -4.90    4.80
   3  -1 -16    0.30    7.90
  -3   1  16    7.10    6.30
   2  -1 -16    6.80    6.20
  -2   1  16   -3.60    3.20
  -2   1  16    1.20    2.60
   1  -1 -16    7.20    6.90
  -1   1  16   18.70    5.60
  -1   1  16   14.30    4.90
   0  -1 -16  178.48   15.90
   0   1  16  181.08   13.00
   0   1  16  190.18   12.30
  -1  -1 -16  548.35   28.70
   1   1  16  540.55   26.70
   1   1  16  515.35   22.80
  -2  -1 -16  248.28   17.80
   2   1  16  217.48   16.40
   2   1  16  231.68   11.10
  -3  -1 -16   19.20    7.30
   3   1  16   16.50    6.80
  -4  -1 -16   99.19   12.30
   4   1  16  109.19   13.20
  -5  -1 -16  325.57   27.20
   5   1  16  265.07   21.70
   4  -2 -16   89.19   16.20
  -4   2  16   93.79   13.90
   3  -2 -16  215.78   20.00
  -3   2  16  257.17   18.50
   2  -2 -16  154.48   16.40
  -2   2  16  184.78    8.70
  -2   2  16  178.28   14.70
  -2   2  16  191.98    9.00
   1  -2 -16  254.27   19.10
  -1   2  16  273.97   14.40
  -1   2  16  263.67   16.90
   0  -2 -16  292.87   20.00
   0   2  16  289.67   16.80
   0   2  16  304.57   16.90
  -1  -2 -16  316.87   20.40
   1   2  16  318.47   18.70
   1   2  16  342.27   16.90
  -2  -2 -16    5.40    4.50
   2   2  16    7.90    3.20
   2   2  16    6.10    4.40
  -3  -2 -16   -1.40    3.80
  -3  -2 -16    4.10    4.70
   3   2  16   -0.70    4.30
   3   2  16    2.40    2.00
  -4  -2 -16   71.69   10.00
   4   2  16   58.29   11.00
   5   2  16    7.00    6.30
   3  -3 -16    9.30    7.10
  -3   3  16   19.10    7.40
   2  -3 -16   70.49   12.70
  -2   3  16   69.49   10.60
   1  -3 -16  730.73   36.30
  -1   3  16  727.23   28.90
  -1   3  16  708.53   28.90
  -1   3  16  769.22   34.50
   0  -3 -16  298.17   19.80
   0   3  16  277.77   15.90
   0   3  16  283.27   17.10
  -1  -3 -16   15.70    6.60
   1   3  16    7.70    5.00
  -2  -3 -16   12.90    5.60
   2   3  16    7.00    4.90
   2   3  16   11.30    4.20
  -3  -3 -16  562.34   27.90
   3   3  16  497.05   22.70
   3   3  16  571.14   29.30
  -4  -3 -16  343.27   21.30
   4   3  16  333.67   14.90
   4   3  16  324.37   22.20
  -5  -3 -16  270.47   18.60
   5   3  16  200.38   18.60
   3  -4 -16   -0.20    6.40
  -3   4  16    1.80    5.50
   2  -4 -16  111.19   14.70
  -2   4  16  112.49   12.60
   1  -4 -16   36.30    9.00
  -1   4  16   22.70    4.30
  -1   4  16   28.00    7.30
   0  -4 -16   54.79   10.00
   0   4  16   85.69    9.70
   0   4  16   86.89    8.00
  -1  -4 -16   21.60    7.30
   1   4  16   19.00    6.50
   1   4  16   24.90    6.10
  -2  -4 -16  252.17   16.40
   2   4  16  245.38   15.20
   2   4  16  276.57   17.60
  -3  -4 -16  441.36   22.90
   3   4  16  448.36   20.80
   3   4  16  379.96   24.00
   4   4  16   51.59   10.60
   4   4  16   52.39    6.40
  -5  -4 -16   19.20    5.80
   5   4  16    2.20    3.00
   5   4  16    0.50    4.90
   2  -5 -16  388.06   29.60
  -2   5  16  428.86   26.00
   1  -5 -16  295.77   20.80
  -1   5  16  268.87   11.90
  -1   5  16  303.57   20.00
   0  -5 -16    4.80    5.80
   0   5  16   -2.10    3.00
   0   5  16   -4.10    4.10
  -1  -5 -16  146.69   14.60
   1   5  16  148.29   12.90
   1   5  16  168.38   12.60
  -2  -5 -16   10.20    4.10
   2   5  16   13.40    5.50
   2   5  16   11.30    4.70
  -3  -5 -16   12.00    4.20
   3   5  16   -4.00    3.30
   3   5  16    4.70    4.00
  -4  -5 -16   13.80    4.40
   4   5  16    3.30    4.10
  -5  -5 -16  216.18   14.30
   5   5  16  189.68   18.20
   5   5  16  198.88   13.10
   2  -6 -16   10.60    8.00
  -2   6  16   14.80    7.20
   1  -6 -16   24.60    7.80
  -1   6  16   24.20    7.50
   0  -6 -16   57.69   10.50
   0   6  16   34.00    5.90
   0   6  16   60.69   10.40
  -1  -6 -16  332.47   19.70
   1   6  16  329.27   19.30
   1   6  16  365.16   21.40
  -2  -6 -16  673.53   27.90
   2   6  16  654.63   30.70
   2   6  16  531.65   29.90
  -3  -6 -16   15.20    3.50
   3   6  16    7.50    4.80
   3   6  16    8.70    5.20
  -4  -6 -16  111.99    7.90
   4   6  16   80.59    9.50
   4   6  16  100.09   13.10
   5   6  16  327.67   18.90
   5   6  16  296.27   23.70
   1  -7 -16   35.40    9.90
  -1   7  16   55.39   10.80
   0  -7 -16   65.39   10.60
   0   7  16   64.39    7.90
   0   7  16  115.69   12.70
  -1  -7 -16  301.27   18.10
   1   7  16  340.87   21.50
   1   7  16  328.47   19.50
   2   7  16   -0.50    4.30
   3   7  16   -6.30    4.30
   3   7  16    5.10    5.10
   4   7  16  118.79   11.90
   4   7  16  119.19   14.20
   0  -8 -16   22.10    9.40
   0   8  16   40.50   10.90
   1   8  16    7.40    5.20
   1   8  16   27.10    9.00
   2   8  16   11.30    6.30
   2   8  16   17.60    7.30
   3   8  16    9.40    6.00
   3   8  16    7.80    7.00
   2   5 -17   29.30   10.10
  -2  -5  17   32.20    9.10
   1   5 -17   45.60   10.70
   1   5 -17   18.50    6.20
  -1  -5  17   24.80    8.00
   0   5 -17    6.50    5.40
   0   5 -17   33.10    9.80
   0  -5  17   14.90    7.80
  -1   5 -17   31.90    9.30
   1  -5  17   14.40    8.40
  -2   5 -17  111.19   14.70
   2  -5  17   61.89   13.60
   3   4 -17    7.20    5.60
   3   4 -17   -3.70    7.50
   2   4 -17   49.99    9.10
   2   4 -17   50.59   12.40
  -2  -4  17   58.99   12.40
   1   4 -17  182.98   13.60
   1   4 -17  182.48   18.50
  -1  -4  17  182.68   29.10
   0   4 -17   22.90    8.90
   0   4 -17   17.60    4.80
   0  -4  17   17.10    8.20
  -1   4 -17   77.09    6.30
  -1   4 -17  108.69   14.30
   1  -4  17   79.89   13.50
  -2   4 -17   98.79   13.20
   2  -4  17   57.99   12.20
  -3   4 -17   12.90    8.00
   3  -4  17   14.50    9.10
   3   3 -17    6.60    9.40
  -3  -3  17   22.00    6.60
  -3  -3  17   27.60    8.20
   2   3 -17   84.69   15.80
  -2  -3  17   67.99   10.00
  -2  -3  17   75.09   11.00
   1   3 -17   56.99   12.10
   1   3 -17   54.89    8.10
  -1  -3  17   61.89   10.80
  -1  -3  17   56.79    8.30
   0   3 -17  145.29   10.50
   0   3 -17  153.08   16.20
   0  -3  17  140.69   14.30
  -1   3 -17    8.60    7.70
  -1   3 -17    2.80    2.60
   1  -3  17    1.90    5.70
  -2   3 -17    6.30    4.70
   2  -3  17   -0.10    6.20
  -3   3 -17    8.10    6.90
   3  -3  17   11.10    8.30
   4   2 -17    1.00    9.10
  -4  -2  17    2.20    6.00
  -4  -2  17    9.50    5.40
   3   2 -17  126.19   16.70
  -3  -2  17  143.69   12.20
  -3  -2  17  122.79   12.70
   2   2 -17   14.30    9.10
  -2  -2  17   12.90    5.50
  -2  -2  17    5.50    4.40
   1   2 -17   40.30   11.00
  -1  -2  17   39.70    7.10
  -1  -2  17   38.60    8.30
   0   2 -17 1280.77   57.39
   0  -2  17 1257.97   54.39
   0  -2  17 1317.77   49.20
  -1   2 -17  123.89   13.60
  -1   2 -17  128.69    8.40
  -1   2 -17  117.39    7.60
   1  -2  17  115.89   13.60
  -2   2 -17   60.99   11.60
   2  -2  17   35.20    8.60
  -3   2 -17  259.27   20.70
   3  -2  17  214.58   19.50
  -4   2 -17   44.00   10.70
   4  -2  17   22.00    9.50
   4   1 -17  116.79   19.00
  -4  -1  17  129.69   14.30
   3   1 -17  117.79   16.20
  -3  -1  17  106.99    9.70
  -3  -1  17   94.19   14.80
   2   1 -17   35.10   11.10
  -2  -1  17   24.30    6.30
  -2  -1  17   42.50    7.50
   1   1 -17   58.29   12.30
  -1  -1  17   84.59    8.70
  -1  -1  17   69.29    9.80
   0   1 -17   44.50   10.50
   0  -1  17   45.20    8.80
   0  -1  17   49.30    6.80
  -1   1 -17    0.20    2.90
  -1   1 -17    7.70    6.20
   1  -1  17    1.10    5.20
   1  -1  17   12.50    3.10
  -2   1 -17  300.57   21.90
   2  -1  17  293.67   20.70
  -3   1 -17  148.49   15.30
   3  -1  17  118.09   13.80
  -4   1 -17  138.49   15.70
   4  -1  17   93.19   14.70
   4   0 -17    0.80    8.40
  -4   0  17   -4.60    4.90
   3   0 -17    2.30    6.50
  -3   0  17    6.10    3.10
  -3   0  17   -4.70    3.20
   2   0 -17   26.80   10.10
  -2   0  17   43.70    8.10
  -2   0  17   45.00    7.00
   1   0 -17  229.78   18.60
  -1   0  17  238.38   15.30
   0   0 -17  163.58   16.10
   0   0  17  172.18   13.90
   0   0  17  184.58   12.00
  -1   0 -17    5.10    6.40
   1   0  17    5.50    5.30
   1   0  17    1.70    2.60
  -2   0 -17  198.08    8.70
  -2   0 -17  226.18   18.00
   2   0  17  190.68   16.30
   2   0  17  201.38    8.70
  -3   0 -17  355.36   24.00
   3   0  17  382.46   24.30
   4   0  17  148.09   16.00
  -5   0 -17   16.30    7.00
   5   0  17    4.10    7.70
   4  -1 -17    5.10    8.40
  -4   1  17   14.60    8.00
   3  -1 -17   55.39   12.70
  -3   1  17   61.79   10.50
   2  -1 -17  756.42   40.50
  -2   1  17  812.02   32.00
  -2   1  17  834.22   37.40
   1  -1 -17  175.58   17.10
  -1   1  17  188.68   13.00
  -1   1  17  179.98   13.40
   0  -1 -17   10.50    7.10
   0   1  17    8.30    4.00
   0   1  17    4.40    4.30
  -1  -1 -17   53.89   10.70
   1   1  17   46.40    6.30
   1   1  17   54.59    9.20
  -2  -1 -17   -3.70    4.70
  -2  -1 -17   -3.50    2.40
   2   1  17    3.60    4.90
   2   1  17   -0.10    2.00
  -3  -1 -17   84.99   11.30
   3   1  17   78.59   12.10
  -4  -1 -17   20.20    6.40
   4   1  17    9.60    6.60
  -5  -1 -17   30.80    8.50
   5   1  17   20.10    8.40
   3  -2 -17    0.10    6.70
  -3   2  17   -7.20    3.60
   2  -2 -17  334.47   24.30
  -2   2  17  355.96   21.60
   1  -2 -17   -6.30    4.90
  -1   2  17   -3.40    3.20
  -1   2  17    6.70    4.60
   0  -2 -17   69.29   12.20
   0   2  17   74.79    8.90
   0   2  17   77.29    8.40
  -1  -2 -17   -0.50    5.20
   1   2  17    4.60    4.40
   1   2  17    3.50    3.20
  -2  -2 -17  487.35   27.20
   2   2  17  524.25   22.10
   2   2  17  499.95   27.00
  -3  -2 -17    9.40    5.00
   3   2  17   -1.90    4.70
   3   2  17    4.30    2.20
  -4  -2 -17  487.35   28.10
  -5  -2 -17  141.29   14.30
   5   2  17  115.49   15.10
   3  -3 -17   -8.10    6.40
  -3   3  17   -4.80    4.40
   2  -3 -17   18.20    8.80
   1  -3 -17   14.70    7.70
  -1   3  17   20.30    6.10
  -1   3  17   11.10    4.30
   0  -3 -17  684.93   34.80
   0   3  17  691.13   30.30
   0   3  17  707.53   32.10
  -1  -3 -17  433.06   24.80
   1   3  17  464.45   23.50
   1   3  17  411.36   21.50
  -2  -3 -17   32.70    7.80
   2   3  17   14.20    5.30
   2   3  17   21.10    5.10
  -3  -3 -17  179.18   14.60
   3   3  17  148.49    9.70
   3   3  17  153.08   14.20
  -4  -3 -17   19.70    6.80
  -5  -3 -17   18.50    6.30
   5   3  17    4.90    5.80
   3  -4 -17   40.00   11.80
  -3   4  17   47.10   10.70
  -2   4  17   40.20    9.10
   1  -4 -17    2.70    6.40
  -1   4  17   -1.40    4.40
   0  -4 -17   58.89   10.60
   0   4  17   52.69    8.40
   0   4  17   43.80    7.10
  -1  -4 -17    3.80    5.60
   1   4  17    3.20    4.30
   1   4  17    1.20    4.00
  -2  -4 -17  236.78   16.50
   2   4  17  227.08   14.60
   2   4  17  223.98   16.10
  -3  -4 -17  198.88   14.30
   3   4  17  178.58   12.40
   3   4  17  166.38   15.40
  -4  -4 -17  401.56   22.70
   4   4  17  385.86   28.70
   4   4  17  383.96   18.60
   5   4  17   28.10    9.70
   2  -5 -17  180.28   17.80
  -2   5  17  188.68   16.80
   1  -5 -17  141.59   14.90
  -1   5  17  168.58   14.90
   0  -5 -17   25.90    8.10
   0   5  17   35.30    8.40
   0   5  17   26.50    5.40
  -1  -5 -17    1.40    5.70
   1   5  17    7.80    4.80
   1   5  17   -6.40    3.20
  -2  -5 -17  789.62   37.90
   2   5  17  836.32   37.60
   2   5  17  772.22   35.30
  -3  -5 -17  401.96   21.20
   3   5  17  380.36   24.00
   4   5  17  353.86   18.90
   4   5  17  360.86   24.40
  -5  -5 -17  164.58   12.00
   5   5  17  117.19   10.00
   5   5  17  107.19   16.40
   1  -6 -17   -0.30    7.30
  -1   6  17   11.20    6.20
   0  -6 -17   -2.90    5.90
   0   6  17    1.10    3.50
   0   6  17    6.10    5.00
  -1  -6 -17   27.40    7.70
   1   6  17   29.00    6.60
   1   6  17   40.40    8.20
  -2  -6 -17  168.68   11.90
   2   6  17  135.29   12.90
   2   6  17  153.98   13.60
   3   6  17    1.00    3.90
   3   6  17   -7.40    3.50
   4   6  17   48.00    8.10
   4   6  17   28.80    8.70
   5   6  17   -9.80    5.00
   5   6  17   -4.70    4.10
   0   7  17   -7.50    4.80
   1   7  17  350.96   20.30
   1   7  17  358.36   23.10
  -2  -7 -17  238.58   13.40
   2   7  17  217.28   17.30
   2   7  17  226.48   16.90
   3   7  17   -7.40    4.60
   4   7  17   87.99   14.30
   1   8  17  157.88   15.70
   2   8  17   -4.20    5.40
   2   8  17    5.10    5.90
   1   5 -18   65.59   10.00
   1   5 -18   59.19   12.50
  -1  -5  18   88.19   14.20
   0   5 -18   26.80    9.60
   0   5 -18   15.80    6.50
   0  -5  18   29.00   10.30
  -1   5 -18   10.70    7.00
   1  -5  18   -1.00    6.40
   2   4 -18   -4.90    7.00
   2   4 -18   -4.00    4.30
  -2  -4  18   -1.20    4.80
   1   4 -18  214.38   19.60
   1   4 -18  150.88   13.00
  -1  -4  18  175.78   17.00
   0   4 -18   38.40   10.40
   0  -4  18   31.50    9.20
  -1   4 -18   16.20    8.20
   1  -4  18   -1.30    6.30
  -2   4 -18  230.58   20.70
   2  -4  18  217.98   20.70
   3   3 -18  179.98   20.90
  -3  -3  18  219.98   16.80
  -3  -3  18  208.98   16.70
   2   3 -18  169.68   18.90
  -2  -3  18  161.88   15.10
  -2  -3  18  176.38   14.30
   1   3 -18  387.96   27.50
   1   3 -18  420.16   22.00
  -1  -3  18  404.56   25.60
   0   3 -18   36.00   10.10
   0   3 -18   47.00    6.80
   0  -3  18   52.49   10.70
  -1   3 -18    6.80    3.20
  -1   3 -18   13.90    8.10
   1  -3  18    3.50    6.90
  -2   3 -18  469.65   30.50
   2  -3  18  411.26   27.90
  -3   3 -18   72.69   14.50
   3  -3  18   82.09   15.20
   3   2 -18  114.79   18.70
  -3  -2  18  153.68   14.70
  -3  -2  18  155.18   13.00
   2   2 -18  139.49   17.80
  -2  -2  18  159.68   13.30
  -2  -2  18  166.78   13.60
  -1  -2  18  108.19   11.90
  -1  -2  18   76.79    8.80
   0   2 -18  286.27   21.80
   0  -2  18  269.47   20.40
   0  -2  18  309.57   16.30
  -1   2 -18    6.10    6.70
  -1   2 -18   -4.40    2.20
   1  -2  18    2.90    6.10
  -2   2 -18  229.38   19.40
   2  -2  18  211.68   18.70
  -3   2 -18  172.98   17.50
   3  -2  18  173.18   17.80
  -4   2 -18  205.08   20.20
   4  -2  18  180.88   19.40
   3   1 -18   13.50    9.30
  -3  -1  18    9.10    4.60
  -3  -1  18   14.60    7.20
   2   1 -18  220.48   21.20
  -2  -1  18  266.67   16.80
  -2  -1  18  233.78   16.50
   1   1 -18   36.90   11.30
  -1  -1  18   43.80    8.10
  -1  -1  18   57.79    8.20
   0   1 -18  547.85   32.00
   0  -1  18  532.75   24.80
   0  -1  18  563.14   29.00
  -1   1 -18  679.03   35.70
   1  -1  18  639.24   25.90
   1  -1  18  629.14   33.10
  -2   1 -18  115.39   14.00
   2  -1  18   82.49   13.00
  -3   1 -18    1.80    5.30
   3  -1  18   -7.90    5.40
  -4   1 -18    6.60    6.00
   4  -1  18    0.40    6.90
   3   0 -18  140.09   17.70
  -3   0  18  149.29   10.20
  -3   0  18  167.88   14.90
  -2   0  18    6.20    4.40
  -2   0  18   10.80    5.00
   1   0 -18   50.19   11.40
  -1   0  18   43.30    7.90
  -1   0  18   46.50    8.30
   0   0 -18  117.29   14.50
   0   0  18  108.09    9.60
   0   0  18   97.99   11.90
  -1   0 -18  177.88   16.60
   1   0  18  169.78   10.20
   1   0  18  154.18   14.40
  -2   0 -18   49.80   11.20
  -2   0 -18   45.90    4.00
   2   0  18   36.70    9.30
  -3   0 -18  171.68   16.70
  -4   0 -18   39.80    9.70
   4   0  18   20.60    8.70
   3  -1 -18    1.50    7.10
  -3   1  18    0.20    4.80
   2  -1 -18  111.09   20.10
  -2   1  18  112.29    8.80
  -2   1  18  116.29   11.90
   1  -1 -18   -1.10    7.20
  -1   1  18   -3.60    3.10
  -1   1  18   -2.50    3.90
   0  -1 -18   20.20    8.30
   0   1  18   15.00    4.60
   0   1  18    3.50    5.00
  -1  -1 -18   27.60    8.50
   1   1  18   24.90    7.30
   1   1  18   34.90    5.80
  -2  -1 -18  179.68   16.10
  -2  -1 -18  171.28    9.90
   2   1  18  178.88   15.60
   2   1  18  174.88    9.50
  -3  -1 -18  686.53   35.50
   3   1  18  615.04   34.00
  -4  -1 -18   51.29   10.60
   4   1  18   69.49   12.50
  -5  -1 -18   36.80    9.70
   5   1  18   18.90    9.40
   3  -2 -18  115.79   17.80
  -3   2  18  101.09   12.60
   2  -2 -18   59.49   15.10
  -2   2  18   83.99   13.20
   1  -2 -18   -6.20    5.20
  -1   2  18    0.70    4.20
  -1   2  18   -2.90    3.60
   0  -2 -18   22.50    8.70
   0   2  18   44.10    7.60
   0   2  18   31.70    6.70
  -1  -2 -18    2.10    5.70
   1   2  18   -0.40    4.10
   1   2  18    2.10    4.00
  -2  -2 -18   90.89   11.40
   2   2  18   88.59    7.50
   2   2  18   81.99   10.60
  -3  -2 -18   64.99   10.90
   3   2  18   62.59    5.10
   3   2  18   54.29   10.60
  -4  -2 -18   37.50    9.10
   4   2  18   21.80    7.80
  -5  -2 -18   25.20    7.30
   5   2  18    7.40    6.70
   3  -3 -18   43.20   12.90
  -3   3  18   39.20    9.80
   2  -3 -18  193.08   18.70
  -2   3  18  192.88   15.90
   1  -3 -18    3.00    6.60
  -1   3  18   -6.40    2.90
  -1   3  18    0.40    4.80
   0  -3 -18   70.79   12.20
   0   3  18   54.49    7.90
   0   3  18   75.49    8.90
  -1  -3 -18  121.39   13.00
   1   3  18  106.89   10.90
   1   3  18  142.39   11.20
  -2  -3 -18  462.45   26.00
   2   3  18  453.05   25.70
   2   3  18  445.46   21.50
  -3  -3 -18   26.60    7.20
   3   3  18   18.40    3.90
   3   3  18   19.60    6.40
  -4  -3 -18  251.47   17.70
   4   3  18  222.98   18.80
   4   3  18  208.68   10.60
  -5  -3 -18  238.08   18.20
   5   3  18  202.68   19.50
   2  -4 -18   94.79   15.20
  -2   4  18   83.59   13.00
   1  -4 -18   42.70   10.50
  -1   4  18   29.70    5.00
   0  -4 -18  654.93   33.50
   0   4  18  605.24   28.00
   0   4  18  626.34   30.90
  -1  -4 -18  684.83   34.30
   1   4  18  696.13   32.40
   1   4  18  746.73   33.40
  -2  -4 -18   99.99   11.30
   2   4  18   75.79   11.20
   2   4  18   96.29    9.20
  -3  -4 -18    8.10    5.50
   3   4  18    0.60    4.10
   3   4  18   -0.20    3.20
  -4  -4 -18  360.86   21.40
   4   4  18  324.07   23.10
   4   4  18  307.97   16.20
  -5  -4 -18   52.49    9.00
   5   4  18   36.20    9.90
   2  -5 -18   -1.40    6.60
  -2   5  18   12.50    7.30
   1  -5 -18   12.20    7.80
  -1   5  18   14.00    6.20
   0  -5 -18   -2.30    6.00
   0   5  18    9.10    5.20
   0   5  18   -0.80    4.00
  -1  -5 -18    4.70    6.50
   1   5  18   11.90    5.80
   1   5  18   -3.70    3.80
  -2  -5 -18   77.49    9.30
   2   5  18   75.29    8.70
   2   5  18   50.39    9.00
  -3  -5 -18  169.78   12.70
   3   5  18  135.89   14.00
   3   5  18  133.99   11.60
   4   5  18   37.60    6.70
   4   5  18   45.60   10.20
   5   5  18    1.50    6.50
   1  -6 -18   50.99   13.50
  -1   6  18   49.10   10.00
   0  -6 -18  319.67   22.10
   0   6  18  330.07   21.80
  -1  -6 -18   -3.70    5.50
   1   6  18    2.00    4.50
   2   6  18  175.98   14.30
   2   6  18  147.79   13.00
  -3  -6 -18   76.99    7.30
   3   6  18   44.90    8.20
   4   6  18  148.29   12.30
   4   6  18  167.28   17.30
   0  -7 -18   44.80   10.80
   0   7  18   75.39   12.50
  -1  -7 -18   51.29    9.60
   1   7  18   72.09   11.20
   1   7  18   53.89    8.40
   2   7  18  100.59   11.90
   2   7  18   75.29   11.90
   3   7  18   -0.60    5.70
   3   7  18    4.80    4.70
   2   4 -19   -3.70    7.00
   2   4 -19   -6.80    4.80
  -2  -4  19    2.60    6.30
   1   4 -19  332.07   25.50
   1   4 -19  279.87   18.30
  -1  -4  19  309.67   22.80
   0   4 -19  188.28   13.10
   0   4 -19  230.48   21.20
   0  -4  19  227.18   20.00
  -1   4 -19   85.29   15.20
   1  -4  19   67.89   13.60
   2   3 -19   -7.60    8.50
  -2  -3  19   -8.20    4.40
   1   3 -19   -3.00    6.40
   1   3 -19    0.80    4.60
   0   3 -19   16.40    5.90
   0   3 -19   30.20   10.10
   0  -3  19   25.20    8.80
  -1   3 -19   10.10    7.60
   1  -3  19    5.40    7.50
  -2   3 -19   87.79   15.30
   2  -3  19   79.19   14.50
   3   2 -19   96.69   18.10
  -3  -2  19  109.99   12.50
  -3  -2  19  104.29   11.50
   2   2 -19   54.39   13.30
  -2  -2  19   47.20    9.20
  -2  -2  19   52.19    9.40
   1   2 -19   90.69   16.10
  -1  -2  19   92.59    9.50
  -1  -2  19   87.89   12.80
   0   2 -19    5.90    7.10
   0  -2  19   16.70    5.10
   0  -2  19   -0.80    6.00
  -1   2 -19   82.89    7.00
  -1   2 -19  113.59   14.60
  -2   2 -19  146.59   16.30
   2  -2  19  119.19   15.20
  -3   2 -19   85.79   14.70
   3  -2  19   71.49   13.80
   3   1 -19  125.29   20.00
  -3  -1  19  180.38   13.30
  -3  -1  19  178.38   15.80
   2   1 -19   63.39   14.90
  -2  -1  19   80.09   10.00
  -2  -1  19   98.99   11.20
   1   1 -19    2.20    5.90
  -1  -1  19    0.50    4.30
  -1  -1  19    6.30    4.30
   0   1 -19   84.59   14.80
   0  -1  19   58.49    8.00
   0  -1  19   46.30    9.60
  -1   1 -19   22.90    8.50
   1  -1  19   35.90    9.30
   1  -1  19   31.00    4.80
  -2   1 -19  314.77   23.50
  -3   1 -19   62.29   12.40
   3  -1  19   49.90   11.50
  -4   1 -19  181.88   18.20
   4  -1  19  135.39   19.40
   3   0 -19    0.40    8.20
  -3   0  19   10.20    5.90
   2   0 -19   -0.40    7.60
  -2   0  19   10.30    5.80
  -2   0  19    1.00    3.80
  -1   0  19   39.60    7.20
  -1   0  19   42.50    8.20
   0   0 -19   84.19   14.20
   0   0  19   92.59   12.60
   0   0  19  107.19    9.40
  -1   0 -19  149.79   16.10
   1   0  19  144.79   14.30
   1   0  19  150.08    9.90
  -2   0 -19   72.89   13.00
   2   0  19   59.19   11.00
  -3   0 -19   53.49   11.40
   3   0  19   47.40   10.60
  -4   0 -19  214.58   19.20
   4   0  19  170.38   18.10
   3  -1 -19   84.89   16.50
  -3   1  19  131.39   13.90
   2  -1 -19   75.99   15.10
  -2   1  19   69.19    7.60
   1  -1 -19  212.28   19.80
  -1   1  19  192.58   14.80
  -1   1  19  212.38   14.50
   0  -1 -19  289.27   22.30
   0   1  19  273.77   18.60
   0   1  19  295.17   17.10
  -1  -1 -19   20.10    7.90
   1   1  19    8.40    5.60
   1   1  19   10.10    3.90
  -2  -1 -19    5.00    5.70
   2   1  19   -0.20    2.50
   2   1  19   -4.10    4.50
  -3  -1 -19   71.69   13.00
   3   1  19   69.19   12.40
  -4  -1 -19   10.40    6.00
   4   1  19   -1.60    6.30
   3  -2 -19   -8.90    7.20
  -3   2  19    6.00    5.80
   2  -2 -19  305.87   24.20
  -2   2  19  313.17   20.90
   1  -2 -19  323.67   23.90
  -1   2  19  295.97   16.90
  -1   2  19  296.87   18.80
   0  -2 -19   38.30   10.40
   0   2  19   40.10    7.80
   0   2  19   30.10    7.30
  -1  -2 -19   -4.90    5.30
   1   2  19   -4.20    4.70
   1   2  19   -4.50    3.20
  -2  -2 -19  581.84   30.50
   2   2  19  513.75   22.90
   2   2  19  485.95   28.30
  -3  -2 -19  521.55   28.90
   3   2  19  416.66   19.70
   3   2  19  439.26   30.80
  -4  -2 -19  444.76   27.50
   4   2  19  454.35   28.90
   2  -3 -19   25.70   10.30
  -2   3  19   41.70    9.30
   1  -3 -19  129.59   15.80
  -1   3  19  113.79   11.90
  -1   3  19  113.59    9.50
   0  -3 -19   51.29   11.00
   0   3  19   47.20    8.20
   0   3  19   40.40    7.90
  -1  -3 -19    6.60    6.00
   1   3  19    6.90    4.10
   1   3  19   -6.00    4.60
  -2  -3 -19  394.36   24.00
   2   3  19  392.16   21.50
   2   3  19  370.16   23.20
  -3  -3 -19  185.98   15.60
   3   3  19  164.88   10.60
   3   3  19  183.78   16.60
  -4  -3 -19   20.70    6.00
   4   3  19   -0.20    5.90
  -5  -3 -19  101.49   11.90
   2  -4 -19  101.69   16.80
  -2   4  19  132.49   15.30
   1  -4 -19   -4.20    7.50
  -1   4  19    6.80    4.80
   0  -4 -19   38.80   11.10
   0   4  19   50.99    8.90
  -1  -4 -19   75.59   12.20
   1   4  19   90.09    9.50
   1   4  19   77.49    9.50
  -2  -4 -19  240.28   17.50
   2   4  19  208.68   16.30
   2   4  19  199.78   14.00
  -3  -4 -19  111.09   11.80
   3   4  19   81.89   14.90
   3   4  19   90.69    8.70
   4   4  19  171.88   16.70
   4   4  19  170.48   10.80
   1  -5 -19  -11.50    5.50
  -1   5  19   -6.10    4.30
   0  -5 -19  188.18   17.70
   0   5  19  204.98   15.90
   0   5  19  170.68   12.70
  -1  -5 -19  721.83   35.90
   1   5  19  722.03   34.10
   1   5  19  774.82   35.40
  -2  -5 -19   19.70    6.10
   2   5  19    7.60    5.40
   2   5  19   12.30    5.20
  -3  -5 -19   23.90    5.40
   3   5  19   19.00    5.30
   3   5  19    6.60    6.60
  -4  -5 -19  270.67   16.80
   4   5  19  224.18   20.40
   4   5  19  217.58   14.50
   0  -6 -19   98.89   14.90
   0   6  19   89.89   11.50
   0   6  19  108.69   12.20
  -1  -6 -19  -10.00    5.90
   1   6  19   -6.80    4.40
   1   6  19    5.30    5.70
  -2  -6 -19    5.50    4.70
   2   6  19   -8.50    4.10
   2   6  19    7.70    4.60
   3   6  19   45.80    8.00
   3   6  19   39.40    9.60
   4   6  19   -1.80    4.30
   4   6  19    3.10    6.30
  -1  -7 -19  -11.80    6.30
   1   7  19   -9.30    4.80
   1   7  19   -3.10    4.20
   2   7  19   -5.30    5.40
   2   7  19    2.60    5.20
   2   3 -20   24.00   11.80
  -2  -3  20   26.40    7.10
  -2  -3  20   10.80    7.30
   1   3 -20  564.44   35.70
   1   3 -20  558.34   28.30
  -1  -3  20  598.64   32.70
   0   3 -20   55.49   13.20
   0   3 -20   34.10    6.50
   0  -3  20   53.39   11.30
  -1   3 -20   40.70   11.30
   1  -3  20   34.50   10.00
  -2   3 -20   40.70   11.00
   2   2 -20    0.10    9.70
  -2  -2  20   13.30    6.10
  -2  -2  20   14.80    6.80
   1   2 -20    6.70    7.70
  -1  -2  20   13.70    5.00
  -1  -2  20   -0.80    5.70
   0   2 -20   15.10    9.40
   0  -2  20    8.10    9.30
   0  -2  20   17.60    5.20
  -1   2 -20   57.39   13.00
   1  -2  20   45.40   11.00
  -2   2 -20    1.10    5.20
   2  -2  20   -5.20    6.10
  -3   2 -20   69.09   13.40
   3  -2  20   52.09   13.00
   2   1 -20    9.60   10.30
  -2  -1  20   13.90    6.10
  -2  -1  20   17.40    5.60
   1   1 -20   44.00   12.80
  -1  -1  20   44.20    7.40
  -1  -1  20   35.50    8.10
   0   1 -20   85.09   14.80
   0  -1  20   86.09   12.50
   0  -1  20   74.79    8.70
  -1   1 -20    8.50    6.50
   1  -1  20    1.60    9.30
   1  -1  20   -2.30    2.70
  -2   1 -20  203.28   19.20
   2  -1  20  187.28   18.00
  -3   1 -20  124.09   15.80
   3  -1  20  105.79   16.30
   2   0 -20  251.07   24.00
  -2   0  20  311.27   19.80
  -2   0  20  271.67   17.00
   1   0 -20   50.39   13.40
  -1   0  20   69.69   10.10
  -1   0  20   50.19    9.20
   0   0 -20   63.89   13.30
   0   0  20   63.99   10.30
   0   0  20   65.39    8.00
   1   0  20    8.90    6.60
   1   0  20    2.80    3.30
  -2   0 -20   95.99   13.40
   2   0  20   90.19   14.30
  -3   0 -20   27.30    9.40
   3   0  20   29.60    9.60
  -4   0 -20   26.10    8.70
   4   0  20   20.60    9.80
   2  -1 -20   -9.70    7.10
  -2   1  20   -2.40    4.30
  -2   1  20   -1.30    4.80
   1  -1 -20   58.69   13.70
  -1   1  20   61.49    9.30
  -1   1  20   48.60    8.20
   0  -1 -20    5.00    7.90
   0   1  20    8.60    5.90
   0   1  20    6.40    4.30
  -1  -1 -20  366.36   25.10
   1   1  20  330.57   22.00
  -2  -1 -20   48.10   10.60
   2   1  20   46.60    5.00
   2   1  20   37.10    9.30
  -3  -1 -20  131.49   14.60
   3   1  20  128.19   15.30
  -4  -1 -20  119.39   14.50
   4   1  20   67.99   13.60
   2  -2 -20   34.70   12.00
  -2   2  20   25.90    7.40
   1  -2 -20  165.68   18.60
  -1   2  20  158.08   13.80
   0  -2 -20  137.19   16.40
   0   2  20  156.78   13.50
   0   2  20  171.78   12.80
  -1  -2 -20   43.30   10.00
   1   2  20   34.50    6.50
   1   2  20   23.00    7.50
  -2  -2 -20    3.40    6.30
   2   2  20    2.30    3.10
   2   2  20   -6.50    4.10
  -3  -2 -20   23.40    8.40
   3   2  20   19.50    8.10
  -4  -2 -20   45.70    9.60
   4   2  20   23.40    9.20
   2  -3 -20   22.10   10.40
  -2   3  20   26.00    7.20
   1  -3 -20   59.59   13.10
  -1   3  20   67.79   10.10
  -1   3  20   41.10    7.00
   0  -3 -20   -1.10    7.70
   0   3  20    9.00    4.50
   0   3  20    2.30    5.40
  -1  -3 -20   16.40    8.10
   1   3  20    2.40    4.70
   1   3  20   11.00    4.70
  -2  -3 -20  106.79   12.70
   2   3  20   77.09   11.80
   2   3  20   75.39    8.30
  -3  -3 -20  636.54   33.40
   3   3  20  594.64   25.70
   3   3  20  631.34   34.10
  -4  -3 -20  238.08   18.30
   4   3  20  200.88   19.50
   1  -4 -20   49.70   12.60
  -1   4  20   61.49   10.50
   0  -4 -20   48.60   11.50
   0   4  20   57.49    9.30
   0   4  20   42.80    7.90
  -1  -4 -20  209.08   18.20
   1   4  20  211.78   16.20
   1   4  20  234.58   16.10
  -2  -4 -20  100.19   11.40
   2   4  20   94.29   12.40
   2   4  20   97.49    9.80
   3   4  20  259.57   20.00
   3   4  20  258.77   15.20
  -4  -4 -20  101.99   10.50
   4   4  20   54.39   12.00
   1  -5 -20   -6.60    7.10
  -1   5  20    7.00    6.50
   0  -5 -20   -5.20    7.80
   0   5  20  -15.50    7.90
   0   5  20   10.50    5.30
  -1  -5 -20   79.49   12.10
   1   5  20   62.19   10.20
   1   5  20   83.59   10.20
  -2  -5 -20   18.20    5.60
   2   5  20   -2.00    3.50
   2   5  20   -6.50    4.70
   3   5  20   49.00    7.80
   3   5  20   52.39   10.60
   4   5  20   18.90    5.30
   4   5  20   18.20    7.90
  -1  -6 -20  127.89   14.00
   1   6  20  150.58   13.70
  -2  -6 -20   24.10    5.90
   2   6  20    2.70    5.20
   2   6  20    7.30    5.30
  -3  -6 -20   71.09    9.10
   3   6  20   53.89    9.10
   0   3 -21    3.20    8.10
   0   3 -21   -5.80    6.70
   0  -3  21   -3.20    7.00
   1   2 -21  130.19   18.10
   0   2 -21  222.48   14.40
   0   2 -21  210.48   20.90
   0  -2  21  226.98   19.90
  -1   2 -21   51.79   12.20
   1  -2  21   27.50   10.40
  -2   2 -21   12.50    6.70
   2  -2  21    2.50    8.20
   2   1 -21    2.00   10.60
  -2  -1  21    4.80    5.80
  -2  -1  21   18.30    6.70
   1   1 -21  126.29   19.20
  -1  -1  21  116.89   11.30
  -1  -1  21  141.39   13.90
   0   1 -21   94.89   15.80
   0  -1  21  102.69    9.80
   0  -1  21  120.09   24.60
  -1   1 -21   11.20    6.70
   1  -1  21    1.10    6.70
   2  -1  21   53.99   12.50
  -3   1 -21   68.79   13.50
   3  -1  21   26.00    9.90
   2   0 -21   38.70   13.20
  -2   0  21   47.60    8.90
  -2   0  21   60.29    9.90
   1   0 -21   52.79   13.60
  -1   0  21   65.79    9.80
   0   0 -21   16.10    8.90
   0   0  21   12.80    4.80
   0   0  21    7.60    6.60
  -1   0 -21  128.19   15.60
   1   0  21  116.29    9.20
   1   0  21  139.59   17.00
  -2   0 -21  555.84   33.20
   2   0  21  509.05   31.30
  -3   0 -21  208.88   19.40
   3   0  21  195.18   19.60
   2  -1 -21    5.50   10.50
  -2   1  21    7.30    5.90
   1  -1 -21   66.99   14.60
  -1   1  21   77.79    9.60
  -1   1  21   68.19   10.10
   0  -1 -21   43.00   11.70
   0   1  21   27.20    6.20
   0   1  21   25.40    8.60
  -1  -1 -21   19.50    8.80
   1   1  21   10.90    4.20
   1   1  21   11.30    7.30
  -2  -1 -21   54.69   11.80
   2   1  21   26.40    8.60
   2   1  21   27.00    4.20
  -3  -1 -21   72.39   12.90
   3   1  21   35.50   10.50
   2  -2 -21    3.90   10.00
  -2   2  21    7.80    6.10
   1  -2 -21    3.40    9.30
  -1   2  21   -7.20    4.30
  -1   2  21   -3.10    5.00
   0  -2 -21   19.40    9.80
   0   2  21   21.60    7.30
   0   2  21   31.50    6.70
   1   2  21  562.94   30.80
   1   2  21  605.54   27.50
   2   2  21  143.89   10.10
  -3  -2 -21   15.40    6.80
   3   2  21    4.00    6.90
   4   2  21   29.20   10.10
   1  -3 -21  262.47   23.10
  -1   3  21  267.47   18.90
   0  -3 -21  429.56   28.40
   0   3  21  376.76   22.20
   0   3  21  458.25   24.40
  -1  -3 -21   46.20   11.60
   1   3  21   39.90    7.10
   1   3  21   32.50    8.20
  -2  -3 -21   17.70    6.60
   2   3  21   -0.40    5.10
   2   3  21    9.40    4.50
  -3  -3 -21  119.19   14.70
   3   3  21  115.89   14.10
   3   3  21   97.89    8.90
   4   3  21   -2.00    6.50
   1  -4 -21    4.20    8.60
  -1   4  21    6.70    5.50
   0  -4 -21    6.80    7.70
   0   4  21   -8.60    5.10
   0   4  21   -0.60    4.30
  -1  -4 -21   29.80   10.20
   1   4  21   32.00    7.00
   1   4  21   27.20    7.70
  -2  -4 -21   10.50    6.10
   2   4  21    1.60    5.10
   2   4  21   15.40    4.70
  -3  -4 -21   12.90    5.80
   3   4  21    9.00    4.40
   3   4  21   -8.30    5.00
   0   5  21    7.50    4.90
  -1  -5 -21   63.69   11.40
   1   5  21   70.39   10.60
   1   5  21   39.20    8.90
  -2  -5 -21   86.49   10.80
   2   5  21   65.29    9.50
   3   5  21  190.38   13.70
   3   5  21  162.58   16.30
   1   1 -22   74.29   15.80
   0   1 -22  117.19   16.40
   0  -1  22  135.39   15.60
   0  -1  22  113.49   10.70
  -1   1 -22  120.49   15.70
   1  -1  22   75.69   13.30
  -2   1 -22   22.80    8.00
   2  -1  22  -13.20    6.10
   1   0 -22   21.80   11.60
  -1   0  22   18.30    7.40
   0   0 -22   -3.60    6.60
   0   0  22  -12.90    4.60
   0   0  22    8.90    4.70
  -1   0 -22   39.20   10.90
   1   0  22   14.50    8.70
  -2   0 -22   95.89   16.00
   2   0  22   74.99   13.70
   1  -1 -22   19.60   11.30
  -1   1  22   46.20    8.90
  -1   1  22   65.19    9.80
   0  -1 -22   90.49   16.20
   0   1  22  117.29   10.70
   0   1  22   70.39   11.40
  -1  -1 -22  109.19   15.00
   1   1  22  133.59   10.30
  -2  -1 -22  366.06   25.90
   2   1  22  330.97   24.40
  -3  -1 -22  330.57   24.40
   3   1  22  269.67   23.10
   1  -2 -22   51.69   14.10
  -1   2  22   60.19    9.80
  -1   2  22   56.89    9.90
   0  -2 -22  -13.10    6.60
   0   2  22    4.90    4.70
  -1  -2 -22  139.09   15.90
   1   2  22  106.49   14.10
   1   2  22  116.09   10.30
  -2  -2 -22   40.10    9.90
   2   2  22   15.60    8.70
   2   2  22   24.10    7.50
  -3  -2 -22   16.10    6.00
   3   2  22   -2.40    6.30
   0  -3 -22   42.10   12.80
   0   3  22   62.99    9.80
   0   3  22   38.50    9.20
  -1  -3 -22  111.69   15.10
   1   3  22  123.29   11.10
   1   3  22  102.89   13.30
  -2  -3 -22   84.79   11.20
   2   3  22   47.90   11.10
   2   3  22   50.59    7.30
  -3  -3 -22  117.09   13.60
   3   3  22   78.29   13.80
   0  -4 -22  502.65   33.30
   0   4  22  618.94   31.00
  -1  -4 -22   48.40   10.90
   1   4  22   28.20    8.40
   1   4  22   45.40   10.20
   2   4  22   -7.00    5.90
   2   4  22   -7.60    3.50
  -1   0 -23  236.28   21.20
   1   0  23  168.88   18.90
   0  -1 -23   -6.20    8.30
   0   1  23    2.30    4.60
   0   1  23  -13.10    7.60
  -1  -1 -23    1.00    6.70
   1   1  23    4.30    4.00
   1   1  23  -12.80    6.90
  -1  -2 -23   22.30    8.90
   1   2  23   18.10    5.40
   1   2  23   -2.60    7.30
  -2  -2 -23  281.07   22.60
   2   2  23  270.17   22.40
  -1  -3 -23   75.69   14.00
   0   0   0    0.00    0.00

_computing_structure_solution     'SHELXT 2014/5 (Sheldrick, 2014)'
;
_shelx_hkl_checksum              96377
loop_
_space_group_symop_operation_xyz
'x, y, z'
'-x, -y, -z'
loop_
_atom_site_label
_atom_site_type_symbol
_atom_site_fract_x
_atom_site_fract_y
_atom_site_fract_z
_atom_site_U_iso_or_equiv
_atom_site_adp_type
_atom_site_occupancy
_atom_site_site_symmetry_order
_atom_site_calc_flag
_atom_site_refinement_flags_posn
_atom_site_refinement_flags_adp
S1 S 0.81941(7) 0.19329(5) 0.35101(2) 0.01442(10) Uani 1 1 d . .
S2 S 0.07277(8) 0.39704(6) 0.13165(2) 0.01861(11) Uani 1 1 d . .
O2 O 1.2703(2) 0.00704(16) 0.43775(7) 0.0163(2) Uani 1 1 d . .
O1 O 1.2847(2) 0.23788(17) 0.51277(7) 0.0187(2) Uani 1 1 d . .
H1 H 1.432(6) 0.143(5) 0.5309(19) 0.062(9) Uiso 1 1 d . .
O4 O 0.1422(3) 0.7618(2) 0.02600(10) 0.0349(3) Uani 1 1 d . .
O3 O -0.2861(3) 0.9268(2) 0.05175(10) 0.0369(4) Uani 1 1 d . .
H3 H -0.187(6) 1.061(4) 0.0135(18) 0.057(8) Uiso 1 1 d . .
C1 C 0.5528(3) 0.3766(2) 0.31015(9) 0.0126(3) Uani 1 1 d . .
C2 C 0.4271(3) 0.3268(2) 0.24815(9) 0.0137(3) Uani 1 1 d . .
C3 C 0.2147(3) 0.4653(2) 0.21213(9) 0.0142(3) Uani 1 1 d . .
C4 C 0.1254(3) 0.6469(2) 0.24008(10) 0.0160(3) Uani 1 1 d . .
H4 H -0.021649 0.738950 0.216722 0.019 Uiso 1 1 calc R U
C5 C 0.2517(3) 0.6916(2) 0.30166(10) 0.0161(3) Uani 1 1 d . .
H5 H 0.190371 0.814649 0.320243 0.019 Uiso 1 1 calc R U
C6 C 0.4668(3) 0.5588(2) 0.33664(10) 0.0148(3) Uani 1 1 d . .
H6 H 0.554668 0.591451 0.378103 0.018 Uiso 1 1 calc R U
C7 C 0.9388(3) 0.3087(2) 0.42361(10) 0.0142(3) Uani 1 1 d . .
H7A H 0.990077 0.424865 0.394946 0.017 Uiso 1 1 calc R U
H7B H 0.795106 0.346633 0.469143 0.017 Uiso 1 1 calc R U
C8 C 1.1806(3) 0.1683(2) 0.45827(9) 0.0141(3) Uani 1 1 d . .
C9 C -0.1902(3) 0.6034(3) 0.10327(11) 0.0210(3) Uani 1 1 d . .
H9A H -0.306705 0.566949 0.068111 0.025 Uiso 1 1 calc R U
H9B H -0.303250 0.644727 0.154603 0.025 Uiso 1 1 calc R U
C10 C -0.0923(4) 0.7722(3) 0.05653(11) 0.0245(4) Uani 1 1 d . .
C11 C 0.5239(3) 0.1290(2) 0.22117(11) 0.0199(3) Uani 1 1 d . .
H11A H 0.398810 0.111099 0.184400 0.030 Uiso 1 1 calc R U
H11B H 0.530824 0.033797 0.270375 0.030 Uiso 1 1 calc R U
H11C H 0.704838 0.113453 0.191208 0.030 Uiso 1 1 calc R U
loop_
_atom_site_aniso_label
_atom_site_aniso_U_11
_atom_site_aniso_U_22
_atom_site_aniso_U_33
_atom_site_aniso_U_23
_atom_site_aniso_U_13
_atom_site_aniso_U_12
S1 0.01346(17) 0.01108(17) 0.01845(19) -0.00227(13) -0.00556(14) -0.00041(13)
S2 0.0208(2) 0.0207(2) 0.01571(19) -0.00332(14) -0.00659(15) -0.00478(15)
O2 0.0157(5) 0.0143(5) 0.0189(5) -0.0031(4) -0.0052(4) -0.0016(4)
O1 0.0191(6) 0.0157(5) 0.0217(6) -0.0049(4) -0.0096(5) -0.0001(4)
O4 0.0287(7) 0.0385(8) 0.0358(8) 0.0065(6) -0.0038(6) -0.0107(6)
O3 0.0386(8) 0.0274(7) 0.0381(8) 0.0008(6) 0.0029(7) -0.0022(6)
C1 0.0110(6) 0.0118(6) 0.0144(6) -0.0003(5) -0.0016(5) -0.0021(5)
C2 0.0139(6) 0.0123(6) 0.0148(7) -0.0022(5) -0.0010(5) -0.0028(5)
C3 0.0149(7) 0.0157(7) 0.0126(6) -0.0018(5) -0.0022(5) -0.0043(5)
C4 0.0152(7) 0.0145(7) 0.0162(7) -0.0006(5) -0.0039(6) 0.0001(5)
C5 0.0175(7) 0.0114(6) 0.0188(7) -0.0038(5) -0.0021(6) -0.0014(5)
C6 0.0152(7) 0.0137(6) 0.0164(7) -0.0041(5) -0.0033(5) -0.0032(5)
C7 0.0130(6) 0.0133(6) 0.0167(7) -0.0019(5) -0.0044(5) -0.0022(5)
C8 0.0137(6) 0.0151(7) 0.0139(7) -0.0003(5) -0.0024(5) -0.0048(5)
C9 0.0211(8) 0.0242(8) 0.0189(8) 0.0012(6) -0.0084(6) -0.0062(6)
C10 0.0278(9) 0.0284(9) 0.0181(8) -0.0028(7) -0.0064(7) -0.0062(7)
C11 0.0209(8) 0.0149(7) 0.0250(8) -0.0075(6) -0.0055(6) -0.0022(6)
loop_
_atom_type_symbol
_atom_type_description
_atom_type_scat_dispersion_real
_atom_type_scat_dispersion_imag
_atom_type_scat_source
C C 0.0033 0.0016 'International Tables Vol C Tables 4.2.6.8 and 6.1.1.4'
H H 0.0000 0.0000 'International Tables Vol C Tables 4.2.6.8 and 6.1.1.4'
O O 0.0106 0.0060 'International Tables Vol C Tables 4.2.6.8 and 6.1.1.4'
S S 0.1246 0.1234 'International Tables Vol C Tables 4.2.6.8 and 6.1.1.4'
loop_
_geom_angle_atom_site_label_1
_geom_angle_atom_site_label_2
_geom_angle_atom_site_label_3
_geom_angle
C1 S1 C7 102.91(7)
C3 S2 C9 103.84(8)
C8 O1 H1 107.4(19)
C10 O3 H3 107.8(13)
C6 C1 C2 121.07(13)
C6 C1 S1 123.79(12)
C2 C1 S1 115.13(11)
C3 C2 C1 118.53(13)
C3 C2 C11 121.68(14)
C1 C2 C11 119.79(13)
C4 C3 C2 120.21(14)
C4 C3 S2 123.32(12)
C2 C3 S2 116.47(11)
C5 C4 C3 119.99(14)
C5 C4 H4 120.0
C3 C4 H4 120.0
C4 C5 C6 120.87(14)
C4 C5 H5 119.6
C6 C5 H5 119.6
C5 C6 C1 119.29(14)
C5 C6 H6 120.4
C1 C6 H6 120.4
C8 C7 S1 107.48(10)
C8 C7 H7A 110.2
S1 C7 H7A 110.2
C8 C7 H7B 110.2
S1 C7 H7B 110.2
H7A C7 H7B 108.5
O2 C8 O1 123.88(14)
O2 C8 C7 123.39(13)
O1 C8 C7 112.73(13)
C10 C9 S2 114.85(12)
C10 C9 H9A 108.6
S2 C9 H9A 108.6
C10 C9 H9B 108.6
S2 C9 H9B 108.6
H9A C9 H9B 107.5
O4 C10 O3 124.27(18)
O4 C10 C9 123.96(17)
O3 C10 C9 111.76(16)
C2 C11 H11A 109.5
C2 C11 H11B 109.5
H11A C11 H11B 109.5
C2 C11 H11C 109.5
H11A C11 H11C 109.5
H11B C11 H11C 109.5
loop_
_geom_bond_atom_site_label_1
_geom_bond_atom_site_label_2
_geom_bond_distance
S1 C1 1.7690(15)
S1 C7 1.8014(15)
S2 C3 1.7716(15)
S2 C9 1.7889(17)
O2 C8 1.2234(18)
O1 C8 1.3175(18)
O1 H1 0.93(3)
O4 C10 1.232(2)
O3 C10 1.294(2)
O3 H3 1.27(3)
C1 C6 1.399(2)
C1 C2 1.406(2)
C2 C3 1.405(2)
C2 C11 1.508(2)
C3 C4 1.405(2)
C4 C5 1.384(2)
C4 H4 0.9500
C5 C6 1.389(2)
C5 H5 0.9500
C6 H6 0.9500
C7 C8 1.504(2)
C7 H7A 0.9900
C7 H7B 0.9900
C9 C10 1.521(3)
C9 H9A 0.9900
C9 H9B 0.9900
C11 H11A 0.9800
C11 H11B 0.9800
C11 H11C 0.9800
loop_
_geom_hbond_atom_site_label_D
_geom_hbond_atom_site_label_H
_geom_hbond_atom_site_label_A
_geom_hbond_distance_DH
_geom_hbond_distance_HA
_geom_hbond_distance_DA
_geom_hbond_angle_DHA
_geom_hbond_site_symmetry_A
O1 H1 O2 0.93(3) 1.72(3) 2.6452(16) 172(3) 2_856
O3 H3 O4 1.27(3) 1.42(3) 2.674(2) 166(2) 2_575
O3 H3 O3 1.27(3) 2.55(3) 3.540(3) 133.1(18) 2_575
loop_
_geom_torsion_atom_site_label_1
_geom_torsion_atom_site_label_2
_geom_torsion_atom_site_label_3
_geom_torsion_atom_site_label_4
_geom_torsion
C7 S1 C1 C6 -2.83(15)
C7 S1 C1 C2 177.66(11)
C6 C1 C2 C3 1.0(2)
S1 C1 C2 C3 -179.50(11)
C6 C1 C2 C11 -179.80(14)
S1 C1 C2 C11 -0.27(19)
C1 C2 C3 C4 -2.3(2)
C11 C2 C3 C4 178.53(15)
C1 C2 C3 S2 177.70(11)
C11 C2 C3 S2 -1.5(2)
C9 S2 C3 C4 -1.22(16)
C9 S2 C3 C2 178.82(12)
C2 C3 C4 C5 1.8(2)
S2 C3 C4 C5 -178.13(12)
C3 C4 C5 C6 -0.1(2)
C4 C5 C6 C1 -1.2(2)
C2 C1 C6 C5 0.8(2)
S1 C1 C6 C5 -178.73(12)
C1 S1 C7 C8 -176.26(10)
S1 C7 C8 O2 0.36(19)
S1 C7 C8 O1 -179.75(11)
C3 S2 C9 C10 71.42(14)
S2 C9 C10 O4 13.2(2)
S2 C9 C10 O3 -167.78(13)
