#------------------------------------------------------------------------------
#$Date: 2019-11-24 07:24:12 +0200 (Sun, 24 Nov 2019) $
#$Revision: 237110 $
#$URL: file:///home/coder/svn-repositories/cod/cif/1/55/43/1554304.cif $
#------------------------------------------------------------------------------
#
# This file is available in the Crystallography Open Database (COD),
# http://www.crystallography.net/
#
# All data on this site have been placed in the public domain by the
# contributors.
#
data_1554304
loop_
_publ_author_name
'Hu, Yang'
'Yin, Xuguang'
'Chen, Ziyi'
'Dong, Xiu-Qin'
'Zhang, Xumu'
_publ_section_title
;
 Highly enantioselective Ir/f-amphox-catalyzed hydrogenation of
 ketoamides: efficient access to chiral hydroxy amides
;
_journal_issue                   12
_journal_name_full               'Organic Chemistry Frontiers'
_journal_page_first              2000
_journal_paper_doi               10.1039/C8QO00307F
_journal_volume                  5
_journal_year                    2018
_chemical_formula_sum            'C17 H18 Cl N O2'
_chemical_formula_weight         303.77
_space_group_crystal_system      monoclinic
_space_group_IT_number           4
_space_group_name_Hall           'P 2yb'
_space_group_name_H-M_alt        'P 1 21 1'
_atom_sites_solution_hydrogens   geom
_audit_creation_method           SHELXL-2014/7
_audit_update_record
;
2018-03-15 deposited with the CCDC.
2018-05-02 downloaded from the CCDC.
;
_cell_angle_alpha                90
_cell_angle_beta                 93.352(2)
_cell_angle_gamma                90
_cell_formula_units_Z            2
_cell_length_a                   5.9758(3)
_cell_length_b                   8.5937(4)
_cell_length_c                   15.7695(7)
_cell_measurement_reflns_used    5164
_cell_measurement_temperature    296(2)
_cell_measurement_theta_max      70.47
_cell_measurement_theta_min      2.81
_cell_volume                     808.45(7)
_computing_cell_refinement       'Bruker SAINT'
_computing_data_collection       'Bruker APEX2'
_computing_data_reduction        'Bruker SAINT'
_computing_molecular_graphics    'Bruker SHELXTL'
_computing_publication_material  'Bruker SHELXTL'
_computing_structure_refinement  'SHELXL-2014/7 (Sheldrick, 2014)'
_computing_structure_solution    'SHELXS-97 (Sheldrick, 2008)'
_diffrn_ambient_temperature      296(2)
_diffrn_measured_fraction_theta_full 0.963
_diffrn_measured_fraction_theta_max 0.963
_diffrn_measurement_device_type  'Bruker APEX-II CCD'
_diffrn_measurement_method       '\f and \w scans'
_diffrn_radiation_type           CuK\a
_diffrn_radiation_wavelength     1.54178
_diffrn_reflns_av_R_equivalents  0.0402
_diffrn_reflns_av_unetI/netI     0.0432
_diffrn_reflns_Laue_measured_fraction_full 0.963
_diffrn_reflns_Laue_measured_fraction_max 0.963
_diffrn_reflns_limit_h_max       6
_diffrn_reflns_limit_h_min       -5
_diffrn_reflns_limit_k_max       10
_diffrn_reflns_limit_k_min       -9
_diffrn_reflns_limit_l_max       18
_diffrn_reflns_limit_l_min       -18
_diffrn_reflns_number            7618
_diffrn_reflns_point_group_measured_fraction_full 0.946
_diffrn_reflns_point_group_measured_fraction_max 0.945
_diffrn_reflns_theta_full        64.999
_diffrn_reflns_theta_max         64.999
_diffrn_reflns_theta_min         2.807
_exptl_absorpt_coefficient_mu    2.118
_exptl_absorpt_correction_type   none
_exptl_crystal_colour            colorless
_exptl_crystal_density_diffrn    1.248
_exptl_crystal_description       block
_exptl_crystal_F_000             320
_exptl_crystal_size_max          0.200
_exptl_crystal_size_mid          0.100
_exptl_crystal_size_min          0.100
_refine_diff_density_max         0.133
_refine_diff_density_min         -0.178
_refine_diff_density_rms         0.043
_refine_ls_abs_structure_details
; 
 Flack x determined using 965 quotients [(I+)-(I-)]/[(I+)+(I-)] 
 (Parsons, Flack and Wagner, Acta Cryst. B69 (2013) 249-259). 
;
_refine_ls_abs_structure_Flack   0.052(9)
_refine_ls_extinction_method     none
_refine_ls_goodness_of_fit_ref   1.131
_refine_ls_hydrogen_treatment    constr
_refine_ls_matrix_type           full
_refine_ls_number_parameters     191
_refine_ls_number_reflns         2587
_refine_ls_number_restraints     1
_refine_ls_restrained_S_all      1.131
_refine_ls_R_factor_all          0.0426
_refine_ls_R_factor_gt           0.0371
_refine_ls_shift/su_max          0.000
_refine_ls_shift/su_mean         0.000
_refine_ls_structure_factor_coef Fsqd
_refine_ls_weighting_details
'w=1/[\s^2^(Fo^2^)+(0.0780P)^2^+0.0039P] where P=(Fo^2^+2Fc^2^)/3'
_refine_ls_weighting_scheme      calc
_refine_ls_wR_factor_gt          0.1144
_refine_ls_wR_factor_ref         0.1175
_reflns_Friedel_coverage         0.827
_reflns_Friedel_fraction_full    0.925
_reflns_Friedel_fraction_max     0.924
_reflns_number_gt                2388
_reflns_number_total             2587
_reflns_threshold_expression     'I > 2\s(I)'
_cod_data_source_file            c8qo00307f2.cif
_cod_data_source_block           cu_180312E_0m
_cod_original_sg_symbol_H-M      'P 21'
_cod_database_code               1554304
_shelx_shelxl_version_number     2014/7
_shelx_space_group_comment
; 
The symmetry employed for this shelxl refinement is uniquely defined 
by the following loop, which should always be used as a source of 
symmetry information in preference to the above space-group names. 
They are only intended as comments. 
;
_shelx_estimated_absorpt_t_min   0.677
_shelx_estimated_absorpt_t_max   0.816
_shelx_res_file
; 
  
    cu_180312E_0m.res created by SHELXL-2014/7 
  
TITL cu_180312E_0m in P2(1) 
CELL 1.54178   5.9758   8.5937  15.7695  90.000  93.352  90.000 
ZERR    2.00   0.0003   0.0004   0.0007   0.000   0.002   0.000 
LATT -1 
SYMM -X, 0.5+Y, -Z 
SFAC C  H  N  O  Cl 
UNIT 34  36  2  4  2 
OMIT -3 130 
L.S. 4 
ACTA 
BOND $H 
FMAP 2 
PLAN 20 
CONF 
SIZE 0.2 0.1 0.1 
EQIV $1 -x+1, y+1/2, -z+2 
HTAB C10 O2_$1 
HTAB C13 O2 
EQIV $2 -x, y+1/2, -z+2 
HTAB N2 O1_$2 
EQIV $3 x-1, y, z 
HTAB O1 O2_$3 
TEMP 23.000 
WGHT    0.078000    0.003900 
FVAR       0.40015 
MOLE 1 
C1    1   -0.396900    0.792700    0.598766    11.00000    0.10101    0.07968 = 
         0.05342    0.00261   -0.01671    0.01507 
C2    1   -0.195535    0.719635    0.589591    11.00000    0.11093    0.10617 = 
         0.03994    0.00053    0.00546    0.02677 
AFIX  43 
H2    2   -0.122994    0.730335    0.539324    11.00000   -1.20000 
AFIX   0 
C3    1   -0.101532    0.631105    0.654344    11.00000    0.07179    0.08734 = 
         0.04499   -0.00610    0.00333    0.01719 
AFIX  43 
H3    2    0.033032    0.579777    0.647114    11.00000   -1.20000 
AFIX   0 
C4    1   -0.204404    0.616682    0.730983    11.00000    0.04706    0.05187 = 
         0.04897   -0.00676   -0.00139   -0.00599 
C5    1   -0.405831    0.693660    0.739158    11.00000    0.05434    0.08132 = 
         0.07212    0.01308    0.00990    0.00527 
AFIX  43 
H5    2   -0.477214    0.687223    0.789887    11.00000   -1.20000 
AFIX   0 
C6    1   -0.502081    0.780504    0.672045    11.00000    0.05688    0.08509 = 
         0.09172    0.00550   -0.00771    0.01095 
AFIX  43 
H6    2   -0.638739    0.830128    0.677621    11.00000   -1.20000 
AFIX   0 
C7    1   -0.087329    0.532271    0.804753    11.00000    0.05044    0.04662 = 
         0.04475   -0.00201    0.00611   -0.00129 
AFIX  13 
H7    2    0.016424    0.456868    0.781893    11.00000   -1.20000 
AFIX   0 
C8    1    0.049323    0.647501    0.859502    11.00000    0.04706    0.04910 = 
         0.04983    0.00285   -0.00019   -0.00330 
AFIX  23 
H8A   2   -0.053002    0.716083    0.887040    11.00000   -1.20000 
H8B   2    0.136894    0.710957    0.822837    11.00000   -1.20000 
AFIX   0 
C9    1    0.207948    0.573737    0.927671    11.00000    0.04877    0.04922 = 
         0.05231    0.00018   -0.00172   -0.00046 
AFIX  23 
H9A   2    0.124589    0.504519    0.962788    11.00000   -1.20000 
H9B   2    0.321229    0.513023    0.900985    11.00000   -1.20000 
AFIX   0 
C10   1    0.319433    0.700257    0.982391    11.00000    0.07416    0.05383 = 
         0.05614   -0.01062   -0.01726    0.01412 
AFIX  23 
H10A  2    0.367459    0.782809    0.945644    11.00000   -1.20000 
H10B  2    0.209263    0.743875    1.018443    11.00000   -1.20000 
AFIX   0 
C11   1    0.518573    0.646306    1.037714    11.00000    0.05456    0.04704 = 
         0.04807   -0.00381   -0.00223    0.00316 
C12   1    0.681797    0.661638    1.186928    11.00000    0.05315    0.04433 = 
         0.04605    0.00460    0.00038   -0.00088 
C13   1    0.879412    0.582000    1.177763    11.00000    0.05664    0.05837 = 
         0.06026   -0.00177   -0.00275    0.00842 
AFIX  43 
H13   2    0.909592    0.539002    1.125530    11.00000   -1.20000 
AFIX   0 
C14   1    1.031891    0.566349    1.246193    11.00000    0.06393    0.07254 = 
         0.08256    0.00620   -0.01500    0.01055 
AFIX  43 
H14   2    1.164917    0.512481    1.239985    11.00000   -1.20000 
AFIX   0 
C15   1    0.988400    0.630404    1.324340    11.00000    0.08596    0.08592 = 
         0.06262    0.00888   -0.02238    0.00394 
AFIX  43 
H15   2    1.091755    0.619398    1.370372    11.00000   -1.20000 
AFIX   0 
C16   1    0.791509    0.710319    1.333387    11.00000    0.10309    0.08841 = 
         0.04314    0.00028   -0.00469    0.00542 
AFIX  43 
H16   2    0.762017    0.754980    1.385280    11.00000   -1.20000 
AFIX   0 
C17   1    0.636754    0.723739    1.264137    11.00000    0.06713    0.07075 = 
         0.04818    0.00106    0.00164    0.00520 
AFIX  43 
H17   2    0.501845    0.775252    1.270381    11.00000   -1.20000 
AFIX   0 
CL1   5   -0.516400    0.906094    0.516846    11.00000    0.18511    0.14638 = 
         0.07057    0.01442   -0.02292    0.07638 
N2    3    0.515051    0.684197    1.120350    11.00000    0.04809    0.05092 = 
         0.04821   -0.00481    0.00024    0.00935 
AFIX  43 
H2A   2    0.394144    0.728541    1.134938    11.00000   -1.20000 
AFIX   0 
O1    4   -0.240785    0.449602    0.852969    11.00000    0.06786    0.05572 = 
         0.05219   -0.00576    0.01008   -0.01941 
AFIX 147 
H1    2   -0.259469    0.496776    0.897199    11.00000   -1.50000 
AFIX   0 
O2    4    0.673821    0.574796    1.008233    11.00000    0.06604    0.08077 = 
         0.05024   -0.01380   -0.00023    0.01855 
HKLF 4 
  
REM  cu_180312E_0m in P2(1) 
REM R1 =  0.0371 for    2388 Fo > 4sig(Fo)  and  0.0426 for all    2587 data 
REM    191 parameters refined using      1 restraints 
  
END 
  
WGHT      0.0777      0.0031 
  
REM Highest difference peak  0.133,  deepest hole -0.178,  1-sigma level  0.043 
Q1    1  -0.4591  0.8679  0.8561  11.00000  0.05    0.13 
Q2    1   0.6554  0.5604  1.3981  11.00000  0.05    0.13 
Q3    1  -0.1611  0.3868  0.8997  11.00000  0.05    0.13 
Q4    1   0.3414  0.8769  0.8339  11.00000  0.05    0.13 
Q5    1   0.7150  0.7633  1.2849  11.00000  0.05    0.12 
Q6    1  -0.4177  0.9324  0.5779  11.00000  0.05    0.12 
Q7    1   0.1193  0.8806  1.0228  11.00000  0.05    0.12 
Q8    1   0.4442  0.7718  1.1271  11.00000  0.05    0.12 
Q9    1  -0.5907  0.7292  0.6168  11.00000  0.05    0.12 
Q10   1  -0.5680  1.0320  0.4026  11.00000  0.05    0.11 
Q11   1  -0.4581  0.7410  0.6931  11.00000  0.05    0.11 
Q12   1   0.2213  0.4806  0.5964  11.00000  0.05    0.11 
Q13   1  -0.3953  0.8480  0.6372  11.00000  0.05    0.11 
Q14   1  -0.2035  0.8570  0.6322  11.00000  0.05    0.11 
Q15   1  -0.7501  0.9368  0.6038  11.00000  0.05    0.11 
Q16   1   0.0453  0.3746  0.7836  11.00000  0.05    0.11 
Q17   1   0.6007  0.6657  1.3990  11.00000  0.05    0.10 
Q18   1   0.0634  0.3683  0.8223  11.00000  0.05    0.10 
Q19   1  -0.8131  0.8313  0.6202  11.00000  0.05    0.10 
Q20   1  -0.4238  0.4305  0.7988  11.00000  0.05    0.10 
;
_shelx_res_checksum              6777
_shelx_hkl_file
; 
   1   0   0  135.88    7.51 
  -1   0   0  141.94    7.52 
  -1   0   0  138.11    7.51 
   1   0   0  141.38    8.71 
   1   0   0  134.54    7.52 
   2   0   0   63.54    4.63 
   2   0   0   73.21    4.50 
  -2   0   0   72.78    4.50 
  -2   0   0   75.97    3.89 
  -3   0   0   14.76    0.89 
   3   0   0   15.55    1.02 
   3   0   0   16.37    1.10 
   3   0   0   14.68    0.92 
  -3   0   0   15.69    1.03 
   0  -1   0   -1.39    0.01 
   0   1   0   -1.42    0.01 
  -1  -1   0  514.15   29.69 
   1  -1   0  525.92   29.45 
  -1  -1   0  512.61   29.52 
   1  -1   0  534.66   34.18 
  -1   1   0  568.42   29.46 
  -1   1   0  544.00   29.47 
   1   1   0  561.90   35.31 
  -1   1   0  592.89   34.24 
   2  -1   0    7.03    0.47 
  -2  -1   0    6.49    0.40 
   2  -1   0    6.65    0.46 
   2  -1   0    6.09    0.53 
   2  -1   0    6.65    0.42 
  -2  -1   0    6.52    0.40 
  -2  -1   0    6.54    0.48 
   2   1   0    7.54    0.51 
  -2   1   0    6.97    0.46 
  -2   1   0    7.30    0.42 
  -2   1   0    7.32    0.47 
   2   1   0    7.43    0.48 
  -3  -1   0    8.67    0.60 
   3  -1   0    8.17    0.54 
   3  -1   0    8.14    0.58 
   3  -1   0    8.17    0.59 
   3  -1   0    8.15    0.68 
   3   1   0    9.05    0.64 
   3   1   0    8.41    0.60 
  -3   1   0    8.27    0.58 
  -4  -1   0    3.13    0.30 
   4  -1   0    3.14    0.28 
   4  -1   0    2.88    0.27 
   4  -1   0    2.90    0.34 
   4   1   0    2.97    0.25 
   0  -2   0  942.80   61.67 
   0  -2   0  957.54   52.97 
   0   2   0  943.14   53.03 
   0   2   0  997.42   61.65 
   0   2   0 1000.00   53.12 
  -1  -2   0  479.09   28.96 
   1  -2   0  499.23   25.01 
   1  -2   0  441.61   29.54 
   1   2   0  467.71   28.94 
  -1   2   0  418.75   28.82 
  -1   2   0  458.61   24.98 
   2  -2   0    9.57    0.51 
   2   2   0    7.27    0.55 
   2   2   0    7.83    0.58 
  -2   2   0    6.95    0.54 
   3  -2   0   11.98    0.80 
  -3  -2   0   12.43    0.85 
  -3  -2   0   11.83    0.83 
   3  -2   0   12.38    0.74 
   3  -2   0   11.95    0.92 
   3  -2   0   12.06    0.80 
   3   2   0   11.80    0.86 
   3   2   0   11.19    0.81 
  -3   2   0   10.05    0.79 
   4  -2   0    0.90    0.16 
   4  -2   0    0.87    0.16 
   4  -2   0    0.81    0.21 
  -4  -2   0    0.86    0.18 
   4   2   0    1.07    0.14 
   5  -2   0    1.01    0.16 
   5  -2   0    0.77    0.16 
   5  -2   0    1.32    0.19 
   5   2   0    1.06    0.15 
   0  -3   0   -0.02    0.02 
   0  -3   0   -0.01    0.02 
   0   3   0   -0.01    0.02 
   0   3   0    0.00    0.02 
   0   3   0   -0.03    0.02 
   1  -3   0   31.97    2.08 
  -1  -3   0   30.68    2.02 
  -1  -3   0   31.07    2.08 
   1   3   0   31.90    2.02 
   1   3   0   31.80    2.00 
  -1   3   0   31.93    1.74 
  -1   3   0   30.84    2.01 
   2  -3   0   10.62    0.75 
   2  -3   0   10.55    0.68 
   2  -3   0   11.70    0.81 
  -2  -3   0   11.50    0.81 
  -2  -3   0   10.70    0.77 
   2   3   0   11.33    0.77 
   2   3   0   11.45    0.75 
  -2   3   0   10.91    0.76 
   3  -3   0    4.42    0.43 
  -3  -3   0    4.30    0.38 
   3  -3   0    4.80    0.32 
   3  -3   0    4.32    0.34 
   3   3   0    3.20    0.29 
   3   3   0    3.79    0.37 
  -3   3   0    3.42    0.32 
   4  -3   0   22.02    1.34 
   4  -3   0   24.85    1.56 
   4  -3   0   20.89    1.72 
   4  -3   0   24.81    1.44 
   4   3   0   23.77    1.44 
   5  -3   0    4.91    0.37 
   5  -3   0    4.19    0.39 
   5  -3   0    5.24    0.39 
   5  -3   0    4.55    0.40 
   5  -3   0    4.37    0.28 
   5   3   0    4.82    0.30 
   5   3   0    4.57    0.37 
  -5   3   0    5.08    0.43 
   6  -3   0    3.39    0.27 
   6  -3   0    3.33    0.31 
   0  -4   0   86.02    5.65 
   0   4   0   88.33    5.49 
  -1  -4   0   74.80    4.98 
   1  -4   0   76.69    4.97 
   1  -4   0   70.87    4.34 
  -1  -4   0   68.71    4.84 
   1   4   0   85.50    4.83 
   1   4   0   78.45    4.84 
  -1   4   0   79.80    4.83 
   2  -4   0   20.67    1.32 
  -2  -4   0   20.36    1.32 
  -2  -4   0   19.31    1.26 
   2  -4   0   19.43    1.22 
   2  -4   0   19.49    1.13 
   2   4   0   16.01    1.13 
  -2   4   0   17.80    1.25 
   2   4   0   18.06    1.23 
   2   4   0   16.89    1.24 
   3  -4   0    4.64    0.47 
   3  -4   0    4.51    0.36 
   3  -4   0    4.70    0.38 
  -3  -4   0    4.67    0.44 
  -3   4   0    4.69    0.39 
   3   4   0    4.24    0.34 
   4  -4   0   12.91    0.90 
   4  -4   0   13.28    0.84 
   4  -4   0   12.48    0.78 
   4  -4   0   10.59    1.03 
   4   4   0   12.74    0.83 
   4   4   0   11.81    0.64 
   4   4   0   13.34    0.68 
   5  -4   0    0.59    0.10 
   5  -4   0    0.47    0.13 
   5  -4   0    0.57    0.14 
   5  -4   0    0.68    0.16 
   5   4   0    0.41    0.10 
   5   4   0    0.56    0.09 
  -5   4   0    0.60    0.15 
   5   4   0    0.62    0.13 
   5   4   0    0.48    0.10 
   6  -4   0    0.17    0.10 
   6  -4   0    0.20    0.07 
   6  -4   0    0.23    0.06 
   6   4   0    0.26    0.06 
   0  -5   0    0.01    0.05 
   0   5   0    0.00    0.04 
  -1  -5   0    1.83    0.23 
   1  -5   0    1.79    0.22 
  -1   5   0    1.91    0.21 
   1   5   0    2.15    0.20 
   1   5   0    1.78    0.18 
   2  -5   0    0.38    0.13 
   2  -5   0    0.18    0.07 
  -2  -5   0    0.24    0.11 
   2  -5   0    0.22    0.09 
   2   5   0    0.25    0.08 
  -2   5   0    0.20    0.09 
   3  -5   0   14.86    0.99 
  -3  -5   0   14.87    1.09 
   3  -5   0   14.71    0.92 
   3  -5   0   13.02    0.86 
   3  -5   0   13.53    1.12 
  -3   5   0   13.86    1.01 
   3   5   0   14.78    0.93 
   4  -5   0    1.57    0.20 
   4  -5   0    1.26    0.15 
   4  -5   0    1.33    0.22 
   4  -5   0    1.41    0.19 
   4  -5   0    4.41    1.98 
   4  -5   0    1.34    0.19 
   4   5   0    1.47    0.18 
   4   5   0    1.23    0.18 
  -4   5   0    1.33    0.21 
   4   5   0    1.39    0.16 
   4   5   0    1.29    0.14 
   5  -5   0    1.88    0.21 
   5  -5   0    1.77    0.15 
   5  -5   0    1.61    0.20 
   5   5   0    1.74    0.20 
   5   5   0    1.83    0.18 
   5   5   0    1.55    0.14 
   5   5   0    1.75    0.16 
   6  -5   0    0.50    0.12 
   6  -5   0    0.46    0.06 
   6   5   0    0.49    0.07 
   0  -6   0    5.95    0.53 
   0   6   0    5.97    0.48 
  -1  -6   0    2.50    0.29 
   1  -6   0    2.57    0.28 
   1   6   0    1.83    0.22 
  -1   6   0    1.98    0.24 
  -2  -6   0    2.46    0.31 
   2  -6   0    2.16    0.29 
  -2   6   0    2.20    0.26 
   2   6   0    2.42    0.23 
  -3  -6   0    3.49    0.41 
   3  -6   0    3.36    0.44 
   3  -6   0    3.89    0.25 
   3  -6   0    3.70    0.34 
   3  -6   0    3.90    0.34 
   3   6   0    3.95    0.27 
   3   6   0    4.07    0.34 
  -3   6   0    4.18    0.38 
   3   6   0    3.88    0.26 
  -3   6   0    4.13    0.37 
   4  -6   0    3.57    0.35 
   4  -6   0    3.77    0.30 
   4  -6   0    3.87    0.34 
   4  -6   0    3.79    0.25 
   4   6   0    3.93    0.26 
  -4   6   0    3.78    0.37 
   4   6   0    3.67    0.29 
   4   6   0    4.33    0.28 
   4   6   0    4.92    0.36 
   5  -6   0    0.95    0.16 
   5  -6   0    0.97    0.14 
   5  -6   0    1.02    0.11 
   5   6   0    1.05    0.11 
   5   6   0    1.16    0.12 
   5   6   0    1.10    0.13 
   6  -6   0    0.03    0.06 
   0  -7   0   -0.03    0.07 
   0   7   0    0.02    0.06 
  -1  -7   0    0.82    0.21 
   1  -7   0    0.89    0.22 
  -1   7   0    0.83    0.18 
   1   7   0    0.91    0.17 
   2   7   0    3.02    0.25 
   2   7   0    2.78    0.21 
   3  -7   0    5.24    0.35 
   3  -7   0    4.67    0.29 
  -3  -7   0    4.64    0.48 
   3   7   0    5.64    0.36 
   3   7   0    5.60    0.42 
   3   7   0    5.20    0.33 
   4  -7   0    0.46    1.05 
  -4  -7   0    0.10    0.10 
   4  -7   0    0.07    0.07 
   4  -7   0    0.33    0.07 
   4   7   0    0.14    0.08 
  -4   7   0    0.29    0.81 
   4   7   0    0.25    0.09 
   4   7   0    0.10    0.06 
   4   7   0    0.12    0.07 
   5  -7   0    0.23    0.08 
   5  -7   0    0.17    0.05 
   5   7   0    0.17    0.05 
   5   7   0    0.21    0.05 
   5   7   0    0.21    0.06 
   0   8   0    0.65    1.13 
  -2  -8   0   12.50    0.71 
   2  -8   0   11.15    0.63 
   2   8   0   11.24    0.62 
   2   8   0   10.69    0.61 
   3  -8   0    0.18    0.08 
   3  -8   0    0.47    1.11 
   3   8   0    0.17    0.06 
   3   8   0    0.14    0.07 
  -3   8   0    0.18    0.81 
   4  -8   0    0.70    0.08 
   4  -8   0    0.76    0.13 
  -4   8   0    0.21    0.65 
   4   8   0    0.75    0.08 
   4   8   0    0.77    0.10 
   0   9   0   -0.15    0.77 
  -1  -9   0    0.06    0.10 
   1   9   0    0.04    0.05 
  -1   9   0   -0.21    0.74 
  -2  -9   0    0.89    0.16 
  -2   9   0    0.15    0.80 
   2   9   0    0.97    0.11 
  -3  -9   0    0.18    0.09 
   3  -9   0    0.26    0.08 
  -3   9   0    0.12    0.66 
   3   9   0    0.29    0.07 
  -1  10   0    0.12    0.66 
  -2  10   0    0.10    0.53 
  -3   0   1   32.40    2.16 
   3   0  -1   38.08    2.16 
  -3   0   1   32.12    1.88 
   3   0  -1   34.06    2.25 
   3   0  -1   31.57    1.95 
  -2   0   1   28.84    1.57 
   2   0  -1   29.65    1.80 
   2   0  -1   28.28    1.57 
   2   0  -1   27.24    1.80 
  -2   0   1   27.62    1.81 
   1   0  -1   39.44    2.34 
   1   0  -1   38.06    2.03 
  -1   0   1   35.77    2.34 
  -1   0   1   35.57    2.02 
   0   0  -1   15.31    0.83 
   1   0   1    7.07    0.46 
   1   0   1    7.01    0.40 
  -1   0  -1    7.28    0.41 
  -1   0  -1    7.03    0.40 
   2   0   1  208.34   13.05 
  -2   0  -1  207.46   11.24 
   3   0   1   24.48    1.67 
  -3   0  -1   23.25    1.35 
   3   0   1   23.50    1.42 
  -3   0  -1   24.86    1.58 
   3   0   1   24.52    1.57 
   4   0   1    7.46    0.60 
   4   0   1    6.57    0.48 
   4  -1  -1    4.45    0.37 
   4  -1  -1    4.38    0.35 
   3  -1  -1   32.57    1.96 
   3  -1  -1   32.09    2.14 
   3  -1  -1   38.10    2.17 
   3  -1  -1   33.25    2.29 
  -3  -1   1   35.01    2.19 
   3   1  -1   34.32    2.24 
   3   1  -1   30.56    2.17 
  -3   1   1   33.00    2.16 
   3   1  -1   34.58    2.16 
   2  -1  -1   56.97    3.37 
  -2  -1   1   54.42    3.39 
   2  -1  -1   49.55    3.49 
   2  -1  -1   53.97    2.93 
  -2  -1   1   55.17    2.91 
  -2   1   1   53.72    2.93 
   2   1  -1   49.05    3.36 
   2   1  -1   53.88    3.46 
   2   1  -1   53.68    2.91 
   2   1  -1   55.17    3.39 
  -2   1   1   51.50    3.36 
  -1  -1   1  103.75    5.25 
  -1   1   1   89.47    6.07 
  -1   1   1   95.98    5.25 
  -1   1   1   93.68    5.25 
   1   1  -1   97.72    5.24 
  -1   1   1   90.13    6.06 
   1   1  -1  106.41    6.09 
   0  -1   1    5.65    0.40 
   0  -1   1    5.63    0.34 
   0  -1  -1    5.72    0.39 
   0  -1  -1    6.14    0.34 
   0   1   1    5.66    0.39 
   0   1   1    6.04    0.34 
   0   1  -1    5.55    0.40 
   1  -1   1  171.45    9.37 
  -1  -1  -1  169.00    9.38 
   1  -1   1  174.07   10.87 
  -1   1  -1  176.37   10.31 
   1   1   1  172.27    9.38 
  -1   1  -1  170.46    9.38 
   1   1   1  163.04   10.89 
  -1   1  -1  190.17   10.87 
  -2  -1  -1  125.74    6.81 
   2  -1   1  125.01    7.86 
   2  -1   1  124.55    7.89 
   2  -1   1  121.59    8.13 
  -2   1  -1  129.34    6.83 
   2   1   1  121.73    8.10 
   2   1   1  132.99    7.92 
  -3  -1  -1    7.27    0.54 
   3  -1   1    6.98    0.52 
   3  -1   1    7.16    0.49 
   3  -1   1    6.89    0.62 
   3   1   1    8.54    0.59 
   3   1   1    7.49    0.54 
   4  -1   1    4.35    0.35 
   4  -1   1    4.37    0.34 
   4  -1   1    4.36    0.44 
  -4  -1  -1    3.76    0.38 
   4   1   1    4.83    0.42 
   4   1   1    4.24    0.33 
   5  -1   1    0.90    0.16 
   5  -2  -1    8.43    0.63 
   5  -2  -1    9.70    0.61 
   5  -2  -1    9.02    0.68 
   4  -2  -1    1.10    0.17 
   4  -2  -1    1.00    0.16 
   4   2  -1    0.72    0.13 
   3  -2  -1    2.65    0.31 
  -3  -2   1    3.00    0.26 
   3  -2  -1    3.23    0.25 
  -3  -2   1    2.72    0.25 
   3  -2  -1    2.81    0.25 
   3  -2  -1    2.93    0.24 
  -3   2   1    2.17    0.23 
   3   2  -1    2.10    0.25 
   2  -2  -1  124.93    7.26 
  -2  -2   1  133.79    8.59 
   2  -2  -1  124.22    7.55 
   2  -2  -1  146.10    8.37 
  -2  -2   1  134.90    8.41 
   2  -2  -1  131.70    8.60 
   2   2  -1  118.61    8.37 
  -2   2   1  134.72    7.26 
  -2   2   1  140.88    8.37 
   2   2  -1  143.08    8.60 
   2   2  -1  136.62    8.41 
   1  -2  -1  581.82   30.06 
  -1  -2   1  581.00   34.83 
   1  -2  -1  535.82   34.65 
   1   2  -1  509.45   34.64 
  -1   2   1  489.11   34.66 
  -1   2   1  569.89   30.07 
   1   2  -1  614.90   34.83 
   0  -2   1  455.47   27.87 
   0  -2  -1  503.91   27.78 
   0   2  -1  477.34   27.01 
   0   2   1  564.00   27.79 
   0   2   1  477.85   31.85 
   0   2  -1  520.60   27.72 
  -1  -2  -1  191.17   11.82 
   1  -2   1  194.34   11.62 
   1  -2   1  187.09   11.83 
   1   2   1  187.64   11.84 
  -1   2  -1  192.21   10.51 
  -1   2  -1  175.10   11.55 
  -1   2  -1  173.83   11.52 
   1   2   1  173.70   11.59 
   2  -2   1   95.19    5.92 
  -2  -2  -1   99.05    6.75 
   2  -2   1  104.99    6.78 
   2   2   1  119.50    6.77 
  -2   2  -1  106.71    5.70 
   2   2   1  105.82    6.60 
  -2   2  -1  100.99    6.56 
  -3  -2  -1   14.01    0.97 
   3  -2   1   13.67    0.86 
   3  -2   1   14.10    0.94 
  -3  -2  -1   12.84    1.00 
   3  -2   1   12.90    1.06 
   3   2   1   14.39    0.97 
   3   2   1   16.00    1.03 
  -4  -2  -1   16.73    1.29 
   4  -2   1   18.42    1.21 
   4  -2   1   16.73    1.36 
   4  -2   1   17.92    1.12 
   4   2   1   17.99    1.13 
   4   2   1   20.00    1.33 
   5  -2   1    6.12    0.48 
   5  -2   1    6.26    0.44 
   5  -2   1    5.07    0.45 
  -5   2  -1    6.30    0.50 
   5   2   1    6.11    0.45 
   6  -2   1    0.79    0.18 
   6  -3  -1    0.57    0.12 
   6  -3  -1    0.59    0.09 
   5  -3  -1    8.62    0.54 
   5  -3  -1    6.61    0.54 
   5  -3  -1    7.46    0.40 
   5  -3  -1    7.53    0.49 
   5  -3  -1    7.61    0.58 
   5   3  -1    7.21    0.41 
   5   3  -1    6.81    0.52 
   4  -3  -1    7.69    0.52 
   4  -3  -1    6.76    0.49 
   4  -3  -1    7.55    0.56 
   4   3  -1    6.32    0.49 
   3  -3  -1   10.52    0.88 
   3  -3  -1   11.60    0.73 
  -3  -3   1   11.29    0.84 
   3  -3  -1   10.75    0.79 
  -3   3   1   12.84    0.81 
   3   3  -1   10.90    0.72 
   2  -3  -1    3.92    0.34 
   2  -3  -1    3.41    0.31 
   2  -3  -1    3.54    0.29 
  -2  -3   1    3.68    0.32 
  -2  -3   1    3.79    0.33 
   2   3  -1    4.34    0.32 
  -2   3   1    4.53    0.33 
   1  -3  -1  164.52   10.36 
  -1  -3   1  164.90   10.14 
  -1  -3   1  151.93   10.35 
   1  -3  -1  165.98    8.74 
  -1   3   1  153.74   10.09 
   1   3  -1  169.22   10.09 
  -1   3   1  158.99    8.74 
   0  -3  -1   63.01    3.19 
   0  -3  -1   54.46    3.70 
   0  -3  -1   57.28    3.81 
   0  -3   1   58.79    3.70 
   0  -3   1   60.50    3.81 
   0   3  -1   57.24    3.19 
   0   3   1   57.53    3.70 
   0   3   1   59.81    3.70 
   0   3   1   59.97    3.19 
  -1  -3  -1   11.81    0.84 
   1  -3   1   11.51    0.82 
  -1  -3  -1   11.32    0.79 
  -1   3  -1   11.63    0.79 
  -1   3  -1   12.23    0.68 
   1   3   1   12.17    0.79 
   1   3   1   12.20    0.78 
   2  -3   1   66.53    4.17 
  -2  -3  -1   61.37    4.05 
  -2  -3  -1   65.54    4.17 
   2  -3   1   61.18    3.64 
   2  -3   1   58.58    3.96 
   2   3   1   72.41    4.19 
   2   3   1   62.36    4.05 
  -2   3  -1   61.62    4.02 
   3  -3   1    1.67    0.26 
   3  -3   1    1.84    0.19 
  -3  -3  -1    1.86    0.24 
   3  -3   1    1.75    0.19 
   3   3   1    1.87    0.18 
  -3   3  -1    1.82    0.19 
   3   3   1    2.23    0.26 
  -4  -3  -1    5.34    0.52 
   4  -3   1    4.79    0.57 
   4  -3   1    5.94    0.44 
   4  -3   1    5.82    0.46 
   4  -3   1    5.01    0.41 
   4   3   1    5.75    0.43 
   4   3   1    6.38    0.55 
   5  -3   1    2.62    0.19 
   5  -3   1    2.68    0.29 
   5  -3   1    3.13    0.29 
   5  -3   1    2.77    0.28 
   5  -3   1    2.51    0.28 
   5   3   1    2.63    0.22 
   5   3   1    2.87    0.23 
   5   3   1    2.68    0.26 
  -5   3  -1    2.91    0.30 
   6  -3   1    2.56    0.22 
   6  -3   1    2.13    0.25 
   6  -4  -1    0.92    0.17 
   6  -4  -1    0.86    0.13 
   6  -4  -1    0.93    0.10 
   6   4  -1    1.02    0.11 
   5  -4  -1    1.12    0.19 
   5  -4  -1    1.29    0.19 
   5  -4  -1    1.20    0.14 
   5  -4  -1    1.13    0.18 
   5   4  -1    1.39    0.16 
   5   4  -1    1.24    0.13 
   5   4  -1    1.41    0.17 
  -5   4   1    1.16    0.19 
   4  -4  -1    1.81    0.22 
   4  -4  -1    1.80    0.22 
   4  -4  -1    2.00    0.23 
  -4   4   1    1.76    0.23 
   4   4  -1    1.63    0.19 
   4   4  -1    1.55    0.15 
   4   4  -1    1.59    0.17 
   3  -4  -1    3.83    0.33 
   3  -4  -1    3.76    0.35 
   3  -4  -1    3.59    0.41 
  -3  -4   1    3.98    0.38 
  -3   4   1    4.64    0.37 
   3   4  -1    4.28    0.32 
   2  -4  -1    6.50    0.46 
   2  -4  -1    6.72    0.43 
   2  -4  -1    7.00    0.51 
  -2  -4   1    6.69    0.50 
   2   4  -1    4.91    0.40 
  -2   4   1    5.72    0.47 
   2   4  -1    5.12    0.44 
   1  -4  -1    2.66    0.22 
  -1  -4   1    2.72    0.26 
   1  -4  -1    3.01    0.27 
  -1  -4   1    3.00    0.24 
   1   4  -1    2.03    0.22 
   0  -4  -1    1.76    0.21 
   0  -4   1    1.68    0.20 
   0   4   1    2.31    0.20 
   0   4  -1    2.24    0.19 
  -1  -4  -1    4.05    0.32 
  -1  -4  -1    3.66    0.27 
   1  -4   1    3.69    0.25 
   1   4   1    2.66    0.25 
   1   4   1    2.66    0.25 
  -1   4  -1    2.76    0.26 
   2  -4   1    2.10    0.21 
   2  -4   1    2.18    0.21 
  -2  -4  -1    2.27    0.27 
   2  -4   1    2.83    0.28 
   3  -4   1    9.02    0.79 
   3  -4   1    9.76    0.63 
  -3  -4  -1    9.60    0.77 
   3  -4   1    9.52    0.68 
  -3   4  -1    9.17    0.68 
   3   4   1    9.23    0.63 
  -4  -4  -1   12.56    0.97 
   4  -4   1   11.34    0.74 
   4  -4   1   12.21    0.80 
   4  -4   1    9.66    0.99 
   4  -4   1   11.83    0.85 
   4   4   1   12.45    0.65 
   4   4   1   10.84    0.61 
  -4   4  -1   12.28    0.87 
   4   4   1   12.47    0.80 
   5  -4   1    0.48    0.09 
   5  -4   1    0.40    0.13 
   5  -4   1    0.50    0.12 
   5  -4   1    0.53    0.13 
   5   4   1    0.38    0.09 
   5   4   1    0.39    0.11 
  -5   4  -1    0.36    0.12 
   5   4   1    0.37    0.10 
   6  -4   1    0.06    0.09 
   6  -4   1    0.11    0.06 
   6  -4   1    0.13    0.04 
   6   4   1    0.16    0.06 
   6   4   1    0.12    0.06 
   6  -5  -1    1.38    0.10 
   6  -5  -1    1.06    0.16 
   6   5  -1    1.35    0.10 
   5  -5  -1    2.28    0.18 
   5  -5  -1    2.22    0.23 
   5  -5  -1    2.25    0.24 
   5   5  -1    2.40    0.20 
   5   5  -1    2.34    0.23 
   5   5  -1    2.37    0.19 
   5   5  -1    2.50    0.18 
   4  -5  -1    7.65    0.59 
   4  -5  -1    7.19    0.40 
   4  -5  -1    7.21    0.52 
   4  -5  -1    7.52    0.55 
   4  -5  -1    7.18    0.46 
   4   5  -1    7.06    0.41 
   4   5  -1    7.83    0.54 
   4   5  -1    7.57    0.44 
   4   5  -1    6.93    0.44 
   3  -5  -1    3.30    0.31 
   3  -5  -1    3.46    0.33 
   3  -5  -1    3.17    0.32 
   3  -5  -1    3.36    0.40 
  -3  -5   1    3.62    0.38 
   3   5  -1    4.02    0.31 
  -3   5   1    3.76    0.35 
  -2  -5   1    3.67    0.36 
   2  -5  -1    3.14    0.31 
   2  -5  -1    4.12    0.31 
   2  -5  -1    3.32    0.36 
  -2   5   1    3.96    0.35 
   2   5  -1    4.03    0.33 
   2   5  -1    3.60    0.29 
  -1  -5   1   20.68    1.45 
   1  -5  -1   20.22    1.24 
   1  -5  -1   21.85    1.46 
  -1  -5   1   20.36    1.32 
   1   5  -1   21.34    1.38 
  -1   5   1   21.52    1.40 
   1   5  -1   19.69    1.27 
   0  -5  -1    9.34    0.71 
   0  -5   1    9.16    0.70 
   0   5   1    9.17    0.66 
   0   5  -1    8.90    0.65 
   1  -5   1   29.83    2.01 
  -1  -5  -1   30.73    2.03 
  -1   5  -1   29.01    1.93 
   1   5   1   28.52    1.92 
   2  -5   1   13.36    0.91 
   2  -5   1   14.21    0.85 
   2  -5   1   14.91    1.03 
  -2  -5  -1   14.71    1.04 
  -2   5  -1   12.48    0.92 
  -2   5  -1   12.80    0.95 
   2   5   1   12.63    0.86 
   3  -5   1   11.71    0.85 
  -3  -5  -1   12.36    0.97 
   3  -5   1   11.39    0.75 
   3  -5   1   11.34    0.99 
   3  -5   1   11.88    0.80 
   3   5   1   13.22    0.82 
  -3   5  -1   12.97    0.88 
  -3   5  -1   12.50    0.88 
   4  -5   1   13.80    0.91 
   4  -5   1   13.32    0.77 
   4  -5   1   13.13    0.84 
   4  -5   1   13.94    0.97 
   4  -5   1   13.21    0.66 
   4   5   1   14.20    0.92 
   4   5   1   14.47    0.75 
  -4   5  -1   13.34    0.98 
   4   5   1   13.71    0.70 
   4   5   1   14.18    0.75 
   5  -5   1    4.12    0.32 
   5  -5   1    4.54    0.34 
   5  -5   1    4.38    0.25 
   5   5   1    4.16    0.35 
   5   5   1    4.08    0.27 
   5   5   1    4.31    0.27 
   5   5   1    4.13    0.29 
   6  -5   1    1.13    0.17 
   6  -5   1    1.29    0.10 
   6   5   1    1.33    0.12 
   5  -6  -1    2.36    0.23 
   5  -6  -1    2.64    0.17 
   5  -6  -1    2.55    0.22 
   5   6  -1    2.55    0.20 
   5   6  -1    2.63    0.18 
   5   6  -1    2.77    0.18 
  -5   6   1    0.96    0.98 
   4  -6  -1    1.08    0.17 
  -4  -6   1    1.29    0.25 
   4  -6  -1    1.10    0.13 
   4  -6  -1    1.09    0.17 
   4  -6  -1    1.00    0.16 
   4  -6  -1    4.59    2.12 
   4   6  -1    1.09    0.13 
   4   6  -1    1.09    0.16 
   4   6  -1    1.08    0.13 
  -4   6   1    1.01    0.19 
   4   6  -1    1.15    0.16 
  -3  -6   1   10.49    0.74 
   3  -6  -1    8.07    0.79 
   3  -6  -1    9.84    0.65 
   3  -6  -1    9.11    0.47 
   3  -6  -1    9.29    0.68 
   3   6  -1    8.89    0.48 
  -3   6   1    8.84    0.72 
   3   6  -1    8.21    0.51 
   3   6  -1    9.72    0.65 
  -3   6   1    8.21    0.68 
   2  -6  -1   17.15    1.34 
  -2  -6   1   17.74    1.33 
  -2  -6   1   19.49    1.24 
   2  -6  -1   17.59    1.13 
  -2   6   1   18.07    1.28 
   2   6  -1   19.44    1.16 
   2   6  -1   17.87    1.25 
   1  -6  -1   18.12    1.34 
  -1  -6   1   17.53    1.34 
   1   6  -1   18.80    1.26 
  -1   6   1   19.61    1.29 
   0  -6   1    5.19    0.50 
   0  -6  -1    5.56    0.52 
   0   6  -1    6.15    0.48 
   0   6   1    6.44    0.49 
  -1  -6  -1   16.72    1.17 
   1  -6   1   15.61    1.14 
  -1   6  -1   14.62    1.07 
   1   6   1   14.52    1.06 
  -2  -6  -1   14.63    1.08 
   2  -6   1   12.62    1.04 
   2   6   1   13.71    0.89 
  -2   6  -1   13.44    0.97 
   3  -6   1    5.12    0.59 
   3  -6   1    5.63    0.47 
   3  -6   1    5.54    0.33 
   3  -6   1    6.11    0.46 
  -3  -6  -1    6.20    0.59 
  -3   6  -1    6.15    0.50 
  -3   6  -1    5.87    0.50 
   3   6   1    7.20    0.48 
   3   6   1    6.01    0.37 
   3   6   1    6.06    0.36 
   4  -6   1   10.30    0.77 
   4  -6   1   11.05    0.68 
   4  -6   1   11.52    0.64 
   4  -6   1   11.31    0.54 
   4   6   1   10.97    0.75 
  -4   6  -1    9.43    0.79 
   4   6   1   11.28    0.61 
   4   6   1   10.90    0.62 
   4   6   1   11.09    0.57 
   5  -6   1    0.95    0.10 
   5  -6   1    0.84    0.13 
   5  -6   1    0.91    0.15 
   5   6   1    1.17    0.14 
   5   6   1    1.10    0.12 
   5   6   1    0.97    0.10 
   5  -7  -1    0.19    0.08 
   5  -7  -1    0.17    0.05 
   5  -7  -1    0.59    0.82 
   5   7  -1    0.17    0.06 
   5   7  -1    0.18    0.05 
   5   7  -1    0.19    0.05 
  -5   7   1    0.21    0.65 
  -4  -7   1    1.43    0.26 
   4  -7  -1    1.74    0.19 
   4  -7  -1    1.79    0.15 
   4   7  -1    1.84    0.15 
   4   7  -1    1.74    0.15 
   4   7  -1    1.85    0.19 
   4   7  -1    2.07    0.18 
  -3  -7   1    2.08    0.28 
   3  -7  -1    2.11    0.20 
   3   7  -1    1.93    0.16 
   3   7  -1    1.84    0.21 
  -3   7   1    0.34    0.98 
   3   7  -1    1.85    0.19 
  -2  -7   1    2.00    0.28 
   2  -7  -1    1.67    0.18 
  -2  -7   1    2.13    0.29 
   2   7  -1    1.84    0.20 
   2   7  -1    1.92    0.16 
  -2   7   1    0.19    0.98 
   2   7  -1    2.02    0.21 
  -1  -7   1    3.87    0.41 
   1  -7  -1    3.70    0.41 
   1   7  -1    3.61    0.35 
  -1   7   1    4.34    0.39 
   0  -7   1    4.86    0.47 
   0  -7  -1    4.76    0.48 
   0   7  -1    4.40    0.41 
   0   7   1    4.85    0.42 
   1  -7   1    0.34    0.14 
  -1  -7  -1    0.38    0.16 
  -1   7  -1    0.38    0.12 
   2   7   1    8.67    0.51 
   2   7   1    9.08    0.53 
   3  -7   1    4.43    0.32 
  -3  -7  -1    4.79    0.46 
   3  -7   1    4.63    0.26 
   3   7   1    4.68    0.33 
   3   7   1    4.29    0.37 
   3   7   1    4.21    0.29 
   4  -7   1    2.88    0.24 
   4  -7   1    2.89    0.19 
  -4  -7  -1    2.59    0.32 
   4   7   1    3.03    0.27 
   4   7   1    2.63    0.20 
   4   7   1    2.83    0.23 
   4   7   1    2.72    0.20 
   5  -7   1    0.95    0.14 
   5  -7   1    0.92    0.08 
   5   7   1    0.74    0.08 
   5   7   1    0.74    0.08 
   5   7   1    0.93    0.11 
  -4  -8   1    0.21    0.09 
   4  -8  -1    0.22    0.08 
   4  -8  -1    1.28    1.11 
   4   8  -1    0.17    0.05 
  -4   8   1   -0.11    0.57 
   4   8  -1    0.22    0.07 
   3  -8  -1    4.03    2.10 
  -3  -8   1    0.89    0.18 
   3  -8  -1    1.10    0.16 
   3   8  -1    1.12    0.14 
  -3   8   1    0.31    0.92 
   3   8  -1    0.93    0.11 
  -2  -8   1    4.76    0.39 
   2  -8  -1    4.64    0.32 
   2   8  -1    4.95    0.32 
   1  -8  -1    2.38    1.77 
  -1  -8   1    0.48    0.16 
  -1   8   1    0.19    1.00 
   1   8  -1    0.46    0.11 
   0   8  -1    0.45    1.07 
   0   8   1    0.91    1.21 
   1  -8   1    6.69    2.86 
   2  -8   1    0.89    1.24 
   2   8   1    0.25    0.09 
  -2   8  -1    0.18    0.91 
   2   8   1    0.15    0.06 
   3  -8   1    1.22    0.16 
  -3   8  -1    0.07    0.78 
   3   8   1    1.02    0.12 
   3   8   1    1.22    0.16 
   4  -8   1    0.11    0.04 
   4  -8   1    0.15    0.07 
   4  -8   1    0.62    0.83 
   4   8   1    0.14    0.05 
   4   8   1    0.20    0.07 
  -4   8  -1    0.02    0.57 
  -3  -9   1    0.03    0.07 
   3  -9  -1    0.05    0.06 
   3  -9  -1    0.35    0.87 
   3   9  -1    0.03    0.05 
  -3   9   1   -0.18    0.53 
  -2  -9   1    1.88    0.21 
  -2   9   1    0.15    0.85 
   2   9  -1    1.59    0.14 
  -1  -9   1    1.30    0.20 
  -1   9   1    0.03    0.85 
   1   9  -1    1.30    0.13 
   0   9  -1    0.19    0.91 
  -1   9  -1    0.39    0.90 
  -2  -9  -1    0.08    0.09 
   2   9   1    0.14    0.06 
  -2   9  -1    0.20    0.77 
  -3  -9  -1    0.33    0.10 
   3   9   1    0.53    0.07 
   3   9   1    0.49    0.08 
  -3   9  -1    0.18    0.65 
  -2  10   1    0.20    0.58 
  -1  10   1   -0.10    0.58 
   0  10  -1    0.29    0.65 
  -1  10  -1    0.15    0.65 
  -2  10  -1    0.03    0.52 
  -3   0   2   77.65    5.41 
   3   0  -2   93.68    5.41 
   2   0  -2    7.43    0.45 
   2   0  -2    7.60    0.52 
  -2   0   2    7.40    0.45 
  -2   0   2    8.09    0.52 
  -1   0   2  879.72   45.81 
   1   0  -2  815.48   46.01 
  -1   0   2  799.58   52.79 
   1   0   2  193.05   10.78 
  -1   0  -2  182.61   10.80 
   1   0   2  221.90   12.52 
   2   0   2    1.09    0.11 
   2   0   2    1.05    0.17 
  -2   0  -2    1.16    0.09 
   3   0   2    7.05    0.58 
   3   0   2    7.19    0.51 
   3   0   2    6.87    0.46 
   4   0   2    3.89    0.40 
   4   0   2    3.78    0.31 
   5   0   2    7.54    0.66 
   4  -1  -2    2.96    0.28 
   4  -1  -2    2.88    0.27 
  -4   1   2    2.93    0.27 
   3  -1  -2   56.05    3.26 
   3  -1  -2   49.34    2.93 
  -3  -1   2   51.18    3.27 
   3  -1  -2   48.42    3.21 
  -3   1   2   53.62    3.26 
   3   1  -2   47.80    3.24 
  -2  -1   2   74.27    4.58 
   2  -1  -2   74.87    3.96 
  -2  -1   2   73.52    3.94 
   2  -1  -2   81.16    4.57 
   2   1  -2   69.50    3.94 
   2   1  -2   62.83    4.56 
   2   1  -2   77.53    4.58 
  -2   1   2   67.65    4.55 
  -2   1   2   71.25    3.96 
  -1  -1   2  779.24   50.47 
  -1  -1   2  844.05   43.02 
   1   1  -2  797.41   42.92 
  -1   1   2  714.18   49.36 
   0  -1   2  276.61   16.87 
   0  -1  -2  320.76   16.89 
   0  -1   2  306.29   19.57 
   0   1   2  328.08   17.43 
   0   1   2  340.61   19.58 
   0   1  -2  299.22   17.43 
  -1  -1  -2   28.77    1.51 
   1   1   2   26.80    1.51 
  -1   1  -2   26.83    1.52 
   2  -1   2   59.44    3.85 
   2  -1   2   59.90    4.01 
  -2  -1  -2   59.98    3.31 
  -2   1  -2   63.51    3.34 
   2   1   2   61.96    3.87 
   3  -1   2   22.28    1.55 
   3  -1   2   21.03    1.38 
  -3  -1  -2   20.76    1.24 
   3  -1   2   21.16    1.28 
   3   1   2   21.14    1.49 
   3   1   2   22.62    1.27 
   3   1   2   21.11    1.42 
   4  -1   2   14.78    1.13 
   4  -1   2   14.37    0.92 
   4   1   2   14.74    0.93 
   4   1   2   14.75    1.09 
  -4   1  -2   14.33    0.99 
   5  -1   2    8.90    0.62 
  -5  -1  -2    7.75    0.73 
   5  -1   2   10.25    0.78 
   5  -2  -2    7.49    0.41 
   5  -2  -2    7.82    0.60 
   5  -2  -2    7.70    0.54 
   4  -2  -2    0.20    0.09 
   4  -2  -2    0.27    0.10 
   4  -2  -2    0.26    0.10 
  -4   2   2    0.39    0.11 
   4   2  -2    0.39    0.09 
  -3  -2   2    1.74    0.20 
   3  -2  -2    2.07    0.20 
   3  -2  -2    2.04    0.21 
   3  -2  -2    1.79    0.19 
   2  -2  -2  128.31    7.09 
   2  -2  -2  130.05    8.39 
  -2  -2   2  139.80    8.21 
  -2  -2   2  125.62    8.37 
   2  -2  -2  129.88    7.37 
   2  -2  -2  144.44    8.18 
   2   2  -2  114.73    8.36 
  -2   2   2  137.17    8.18 
  -2   2   2  130.06    7.09 
   2   2  -2  133.06    8.20 
   2   2  -2  120.06    8.17 
   1  -2  -2  252.23   13.84 
  -1  -2   2  260.45   16.02 
   1  -2  -2  229.12   15.96 
  -1  -2   2  247.95   13.77 
  -1   2   2  263.54   15.98 
   1   2  -2  248.94   15.94 
   1   2  -2  279.52   13.76 
   0  -2   2  247.55   15.63 
   0  -2  -2  239.12   13.46 
   0  -2   2  242.66   13.49 
   0   2   2  274.86   13.46 
   0   2  -2  239.83   13.46 
   0   2   2  247.19   15.63 
   1  -2   2  337.67   22.42 
  -1  -2  -2  349.38   18.89 
   1   2   2  359.78   18.89 
  -1   2  -2  361.00   18.98 
  -1   2  -2  334.20   21.86 
   1   2   2  354.30   21.98 
   2  -2   2   20.31    1.36 
   2  -2   2   19.21    1.15 
  -2  -2  -2   17.95    1.33 
  -2   2  -2   18.85    1.26 
   2   2   2   20.80    1.35 
   2   2   2   19.83    1.29 
  -2   2  -2   19.75    1.11 
  -3  -2  -2    7.04    0.52 
   3  -2   2    6.28    0.45 
   3  -2   2    5.80    0.56 
   3  -2   2    5.67    0.42 
   3   2   2    5.31    0.41 
   4  -2   2    1.32    0.17 
   4  -2   2    2.08    0.30 
  -4  -2  -2    1.17    0.20 
   4  -2   2    1.21    0.17 
   4  -2   2    1.31    0.18 
   4   2   2    1.19    0.24 
   4   2   2    1.19    0.16 
  -4   2  -2    1.07    0.17 
   5  -2   2    0.58    0.14 
   5  -2   2    0.78    0.14 
   5  -2   2    0.74    0.18 
   5   2   2    0.90    0.16 
  -5   2  -2    0.83    0.16 
   5   2   2    1.02    0.14 
   6  -2   2    0.47    0.16 
   6  -3  -2    0.43    0.11 
   6  -3  -2    0.57    0.08 
   5  -3  -2    1.30    0.15 
   5  -3  -2    1.19    0.21 
   5  -3  -2    1.56    0.21 
   5  -3  -2    1.36    0.20 
   5   3  -2    1.49    0.14 
   5   3  -2    1.37    0.17 
   5   3  -2    1.57    0.16 
   4  -3  -2    4.90    0.40 
   4  -3  -2    5.12    0.44 
   4  -3  -2    4.68    0.40 
   4   3  -2    5.12    0.38 
  -4   3   2    5.55    0.45 
   3  -3  -2    3.03    0.27 
   3  -3  -2    2.95    0.29 
   3  -3  -2    2.88    0.28 
  -3   3   2    3.60    0.31 
   3   3  -2    3.14    0.28 
   3   3  -2    3.20    0.25 
  -2  -3   2  141.12    9.55 
  -2  -3   2  152.94    9.37 
   2  -3  -2  157.38    9.33 
   2  -3  -2  151.51    9.57 
   2  -3  -2  144.83    9.18 
   2  -3  -2  146.54    8.41 
   2   3  -2  141.32    9.35 
  -2   3   2  151.85    9.33 
   2   3  -2  149.88    9.32 
   1  -3  -2   89.20    5.74 
  -1  -3   2   93.38    5.61 
   1  -3  -2   90.46    4.84 
  -1  -3   2   83.52    5.73 
   1  -3  -2   84.80    5.04 
  -1   3   2   88.19    4.84 
   1   3  -2   90.54    5.58 
  -1   3   2   90.42    5.59 
   0  -3   2   22.68    1.33 
   0  -3   2   24.02    1.60 
   0  -3   2   22.70    1.54 
   0  -3  -2   22.83    1.61 
   0  -3  -2   23.72    1.33 
   0   3   2   25.23    1.33 
   0   3   2   24.62    1.55 
   0   3   2   24.74    1.54 
   0   3  -2   24.67    1.55 
   0   3  -2   25.78    1.32 
  -1  -3  -2    0.83    0.12 
   1  -3   2    0.74    0.11 
  -1   3  -2    0.52    0.06 
  -1   3  -2    0.45    0.09 
   1   3   2    0.45    0.08 
  -2  -3  -2   52.44    3.34 
   2  -3   2   54.28    3.34 
   2  -3   2   51.98    2.90 
   2  -3   2   49.36    3.15 
  -2   3  -2   44.87    3.19 
   2   3   2   47.96    3.22 
   2   3   2   51.80    3.34 
   3  -3   2   18.30    1.13 
   3  -3   2   19.37    1.40 
  -3  -3  -2   17.78    1.33 
   3  -3   2   17.93    1.22 
   3   3   2   17.67    1.15 
   3   3   2   20.15    1.36 
   4  -3   2   16.81    1.05 
   4  -3   2   16.84    1.13 
   4  -3   2   14.26    1.29 
  -4  -3  -2   15.59    1.24 
   4  -3   2   15.42    0.98 
   4   3   2   17.89    1.07 
  -4   3  -2   16.92    1.14 
   4   3   2   17.91    1.27 
   5  -3   2   12.25    0.71 
   5  -3   2   10.03    0.80 
   5  -3   2    9.50    0.75 
   5  -3   2   12.56    0.72 
   5  -3   2   11.22    0.55 
   5   3   2   11.68    0.77 
   5   3   2   11.83    0.60 
  -5   3  -2   11.46    0.83 
   5   3   2   11.94    0.63 
   6  -3   2    0.77    0.12 
   6  -3   2    0.83    0.18 
   6   3   2    0.91    0.12 
   6  -4  -2    0.82    0.10 
   6  -4  -2    0.87    0.13 
   6   4  -2    0.81    0.10 
   5  -4  -2    7.17    0.48 
   5  -4  -2    7.79    0.52 
   5  -4  -2    7.55    0.40 
   5  -4  -2    7.35    0.58 
   5   4  -2    7.21    0.42 
   5   4  -2    6.64    0.51 
   5   4  -2    7.17    0.40 
   4  -4  -2    0.73    0.16 
   4  -4  -2    0.64    0.14 
   4  -4  -2    0.63    0.15 
  -4   4   2    1.00    0.19 
   4   4  -2    0.74    0.12 
   4   4  -2    0.85    0.15 
   4   4  -2    0.67    0.10 
   3  -4  -2   42.91    2.48 
   3  -4  -2   42.93    2.71 
   3   4  -2   40.71    2.75 
  -3   4   2   44.15    2.77 
   3   4  -2   40.68    2.52 
   2  -4  -2   50.87    2.94 
   2  -4  -2   50.71    3.36 
   2  -4  -2   49.28    3.20 
  -2  -4   2   47.24    3.34 
  -2   4   2   55.61    3.28 
   2   4  -2   53.13    3.25 
   2   4  -2   48.84    2.99 
   1  -4  -2  155.12    9.03 
  -1  -4   2  155.45   10.28 
   1  -4  -2  170.74   10.30 
  -1  -4   2  157.42   10.05 
  -1   4   2  158.03   10.03 
   1   4  -2  161.82   10.01 
   0  -4   2   10.86    0.75 
   0  -4  -2   11.32    0.77 
   0  -4  -2   10.05    0.63 
   0   4  -2    9.73    0.71 
   0   4   2    9.86    0.71 
   1  -4   2   18.66    1.22 
  -1  -4  -2   18.90    1.24 
  -1  -4  -2   17.03    1.16 
  -1   4  -2   15.45    1.13 
   1   4   2   17.66    1.16 
   1   4   2   17.88    1.15 
  -1   4  -2   17.05    1.16 
   2  -4   2   71.83    4.47 
   2  -4   2   66.28    4.23 
  -2  -4  -2   73.52    4.49 
   2  -4   2   70.78    3.89 
  -2   4  -2   64.09    4.30 
   2   4   2   64.32    3.97 
  -2   4  -2   64.23    4.24 
   3  -4   2    3.60    0.30 
   3  -4   2    3.31    0.29 
  -3  -4  -2    3.37    0.38 
   3  -4   2    3.25    0.40 
  -3   4  -2    3.34    0.31 
   3   4   2    3.12    0.28 
   4  -4   2   18.98    1.14 
  -4  -4  -2   18.89    1.46 
   4  -4   2   16.41    1.50 
   4  -4   2   20.36    1.31 
   4  -4   2   20.10    1.23 
  -4   4  -2   19.90    1.33 
   4   4   2   19.05    0.95 
   4   4   2   20.23    1.24 
   4   4   2   19.96    1.01 
   5  -4   2    2.36    0.17 
   5  -4   2    2.11    0.24 
   5  -4   2    2.52    0.26 
   5  -4   2    2.38    0.24 
   5   4   2    2.66    0.21 
   5   4   2    2.52    0.25 
   5   4   2    2.37    0.21 
  -5   4  -2    2.09    0.25 
   6  -4   2    0.02    0.04 
   6  -4   2    0.05    0.09 
   6  -4   2    0.02    0.05 
   6   4   2   -0.01    0.05 
   6   4   2    0.08    0.06 
   6  -5  -2    0.72    0.08 
   6  -5  -2    0.52    0.12 
   6   5  -2    0.72    0.08 
   6   5  -2    0.57    0.07 
  -5  -5   2    1.63    0.24 
   5  -5  -2    1.78    0.15 
   5  -5  -2    1.74    0.20 
   5  -5  -2    1.76    0.21 
   5   5  -2    1.53    0.18 
   5   5  -2    1.41    0.14 
   5   5  -2    1.58    0.15 
   5   5  -2    1.49    0.15 
   4  -5  -2    1.22    0.21 
   4  -5  -2    1.13    0.17 
   4  -5  -2    1.19    0.19 
   4  -5  -2    1.40    0.15 
   4  -5  -2    1.32    0.20 
   4   5  -2    1.44    0.18 
   4   5  -2    1.35    0.14 
   4   5  -2    1.35    0.16 
   4   5  -2    1.50    0.17 
   3  -5  -2    6.52    0.53 
   3  -5  -2    6.54    0.49 
   3  -5  -2    6.25    0.48 
  -3   5   2    7.29    0.57 
   3   5  -2    6.59    0.48 
  -2  -5   2   35.46    2.53 
   2  -5  -2   35.66    2.40 
   2  -5  -2   36.87    2.55 
   2  -5  -2   38.84    2.22 
   2   5  -2   35.42    2.44 
  -2   5   2   42.19    2.49 
   2   5  -2   39.29    2.26 
  -1  -5   2   34.91    2.34 
   1  -5  -2   36.59    2.35 
   1  -5  -2   33.77    2.03 
  -1  -5   2   33.63    2.13 
   1   5  -2   34.75    2.25 
   1   5  -2   33.98    2.07 
  -1   5   2   35.51    2.28 
   0  -5   2    2.34    0.26 
   0  -5  -2    2.64    0.29 
   0   5  -2    2.70    0.24 
   0   5   2    2.60    0.25 
   1  -5   2    1.98    0.23 
  -1  -5  -2    1.83    0.25 
   1   5   2    2.06    0.20 
  -1   5  -2    2.15    0.21 
  -2  -5  -2   23.38    1.69 
   2  -5   2   23.10    1.41 
   2  -5   2   23.14    1.53 
   2  -5   2   24.71    1.68 
  -2   5  -2   23.32    1.54 
   2   5   2   24.06    1.45 
  -2   5  -2   23.47    1.57 
  -3  -5  -2    2.29    0.32 
   3  -5   2    1.85    0.26 
   3  -5   2    2.23    0.34 
   3  -5   2    2.14    0.24 
   3  -5   2    2.19    0.24 
   3   5   2    2.37    0.20 
  -3   5  -2    2.44    0.25 
   3   5   2    2.80    0.26 
  -3   5  -2    2.61    0.27 
   4  -5   2   11.53    0.77 
   4  -5   2   11.26    0.56 
   4  -5   2   12.57    0.67 
   4  -5   2   11.35    0.81 
   4  -5   2   11.56    0.71 
   4   5   2   10.65    0.63 
  -4   5  -2   10.28    0.82 
   4   5   2   11.33    0.63 
   4   5   2   10.98    0.59 
   4   5   2   11.28    0.78 
   5  -5   2    0.46    0.13 
   5  -5   2    0.64    0.09 
   5  -5   2    0.57    0.12 
   5   5   2    0.87    0.14 
   5   5   2    0.60    0.11 
   5   5   2    0.69    0.10 
   5   5   2    0.74    0.14 
   6  -5   2    0.08    0.03 
   6  -5   2    0.08    0.09 
   6   5   2    0.10    0.06 
   6   5   2    0.15    0.05 
   5  -6  -2    0.58    0.94 
   5  -6  -2    0.16    0.09 
   5  -6  -2    0.18    0.06 
   5  -6  -2    0.22    0.09 
   5   6  -2    0.18    0.06 
  -5   6   2   -0.05    0.72 
   5   6  -2    0.19    0.06 
   5   6  -2    0.18    0.07 
   4  -6  -2    3.89    0.29 
   4  -6  -2    3.37    0.33 
   4  -6  -2    3.77    0.24 
  -4  -6   2    3.56    0.38 
   4  -6  -2    3.55    0.32 
   4   6  -2    3.33    0.23 
   4   6  -2    3.45    0.24 
  -4   6   2    3.20    0.34 
   4   6  -2    2.99    0.29 
   4   6  -2    3.09    0.25 
   3  -6  -2    6.10    0.48 
  -3  -6   2    6.63    0.55 
   3  -6  -2    5.63    0.35 
   3  -6  -2    5.37    0.49 
   3   6  -2    6.49    0.47 
   3   6  -2    5.84    0.35 
  -3   6   2    6.46    0.55 
   3   6  -2    6.45    0.37 
   2  -6  -2    4.35    0.37 
  -2  -6   2    4.88    0.45 
   2  -6  -2    4.27    0.46 
  -2  -6   2    4.59    0.45 
   2   6  -2    5.62    0.39 
  -2   6   2    5.09    0.45 
   1  -6  -2    3.19    0.35 
  -1  -6   2    2.84    0.33 
  -1  -6   2    3.20    0.34 
  -1   6   2    3.73    0.34 
   1   6  -2    3.38    0.31 
   1   6  -2    3.33    0.27 
   0  -6   2    5.12    0.45 
   0  -6  -2    5.39    0.49 
   0   6  -2    4.80    0.41 
   0   6   2    4.63    0.41 
   1  -6   2    5.21    0.49 
  -1  -6  -2    5.43    0.52 
  -1   6  -2    5.58    0.45 
  -2  -6  -2    5.99    0.59 
   2  -6   2    5.81    0.57 
   2  -6   2    5.51    0.46 
   2   6   2    6.49    0.38 
   2   6   2    6.90    0.47 
  -2   6  -2    6.09    0.50 
  -3  -6  -2    6.49    0.62 
   3  -6   2    6.44    0.34 
   3  -6   2    5.89    0.63 
   3  -6   2    6.16    0.48 
  -3   6  -2    5.66    0.49 
   3   6   2    5.88    0.37 
   3   6   2    5.77    0.38 
   3   6   2    6.24    0.48 
   4  -6   2    0.35    0.10 
   4  -6   2    0.16    0.09 
   4  -6   2    0.32    0.10 
   4  -6   2    0.26    0.07 
   4   6   2    0.30    0.09 
  -4   6  -2    0.24    0.10 
   4   6   2    0.31    0.11 
   4   6   2    0.20    0.08 
   4   6   2    0.32    0.10 
   5  -6   2    1.05    0.10 
   5  -6   2    0.69    0.14 
   5  -6   2    0.84    0.12 
   5   6   2    0.81    0.10 
   5   6   2    1.13    0.14 
   5   6   2    0.88    0.11 
   5  -7  -2    0.06    0.06 
   5  -7  -2    0.11    0.70 
   5  -7  -2    0.09    0.04 
  -5  -7   2   -0.08    0.06 
   5   7  -2    0.03    0.03 
  -5   7   2    0.18    0.64 
   5   7  -2    0.01    0.03 
   5   7  -2    0.06    0.04 
  -4  -7   2    0.52    0.15 
   4  -7  -2    0.56    0.09 
   4  -7  -2    0.53    0.12 
   4  -7  -2    2.30    1.54 
   4   7  -2    0.35    0.07 
   4   7  -2    0.58    0.11 
   4   7  -2    0.39    0.08 
   4   7  -2    0.57    0.11 
  -4   7   2    0.06    0.77 
   3  -7  -2    0.79    1.30 
  -3  -7   2    0.04    0.09 
   3  -7  -2    0.08    0.07 
   3   7  -2    0.16    0.08 
  -3   7   2   -0.24    0.82 
   3   7  -2    0.10    0.06 
   3   7  -2    0.17    0.08 
   3   7  -2    0.21    0.07 
  -2  -7   2    4.00    0.40 
   2  -7  -2    3.88    0.28 
   2   7  -2    3.36    0.24 
   2   7  -2    3.63    0.28 
   2   7  -2    3.80    0.31 
   1  -7  -2    4.25    0.44 
  -1  -7   2    3.96    0.42 
  -1   7   2    4.32    0.41 
   1   7  -2    4.19    0.38 
   0  -7  -2    4.40    0.47 
   0  -7   2    4.65    0.45 
   0   7   2    4.72    0.42 
   0   7  -2    4.77    0.41 
  -1  -7  -2   13.17    1.02 
   1  -7   2   13.15    0.99 
  -1   7  -2   12.25    0.90 
   1   7   2   11.48    0.67 
   3  -7   2    3.75    0.28 
  -3  -7  -2    3.64    0.40 
   3  -7   2    3.80    0.23 
   3   7   2    3.89    0.34 
   3   7   2    3.65    0.29 
   3   7   2    3.62    0.26 
   4  -7   2    9.00    0.55 
   4  -7   2    9.35    0.46 
   4   7   2    9.94    0.54 
   4   7   2    9.38    0.52 
   5  -7   2    0.10    0.04 
   5  -7   2    0.04    0.07 
   5   7   2    0.10    0.05 
  -4  -8   2    0.26    0.10 
   4  -8  -2    0.88    1.02 
   4  -8  -2    0.27    0.08 
  -4   8   2    0.09    0.67 
   4   8  -2    0.27    0.05 
   4   8  -2    0.31    0.07 
   3  -8  -2    1.11    0.16 
   3  -8  -2    3.94    2.10 
  -3  -8   2    0.94    0.18 
   3   8  -2    0.86    0.10 
   3   8  -2    0.88    0.12 
  -3   8   2    0.39    1.00 
  -2  -8   2    4.03    0.35 
   2  -8  -2    3.71    0.27 
   2   8  -2    3.57    0.26 
  -1  -8   2    2.25    0.28 
   1  -8  -2    2.13    0.19 
  -1   8   2    0.39    1.10 
   1   8  -2    2.43    0.20 
   0  -8   2    0.68    0.18 
   0   8  -2    0.74    0.11 
   0   8  -2    0.06    0.94 
  -1   8  -2    0.15    0.85 
   4  -8   2    0.80    0.07 
   4  -8   2    1.00    0.12 
   4   8   2    0.89    0.11 
  -4   8  -2    0.08    0.60 
  -4   8  -2    0.68    0.08 
   4   8   2    0.64    0.08 
   3  -9  -2    0.89    1.02 
   3  -9  -2    0.27    0.08 
  -3  -9   2    0.25    0.09 
   3   9  -2    0.22    0.06 
  -3   9   2    0.11    0.66 
   2  -9  -2    2.95    0.22 
  -2  -9   2    2.70    0.26 
   2   9  -2    2.97    0.20 
  -1   9   2    0.00    0.84 
   1   9  -2    0.09    0.82 
   0  -9   2    0.46    0.13 
   0   9  -2    0.07    0.79 
  -1   9  -2    0.04    0.75 
  -2   9  -2    0.44    0.81 
   2   9   2    1.24    0.12 
  -3  -9  -2   -0.02    0.07 
   3   9   2   -0.03    0.04 
  -3   9  -2   -0.04    0.55 
  -1 -10   2    0.05    0.07 
   0  10  -2   -0.04    0.56 
  -1  10  -2    0.14    0.62 
  -2  10  -2   -0.01    0.47 
   4   0  -3    0.10    0.07 
   3   0  -3    3.45    0.30 
   3   0  -3    3.91    0.31 
   2   0  -3   68.72    4.75 
   2   0  -3   77.48    4.12 
  -2   0   3   80.19    4.76 
  -1   0   3    2.15    0.17 
   1   0  -3    2.15    0.14 
  -1   0  -3    9.87    0.59 
   1   0   3   11.20    0.69 
   2   0   3   11.23    0.73 
   2   0   3   10.57    0.66 
   2   0   3   11.27    0.81 
  -2   0  -3   10.61    0.62 
   3   0   3   38.89    2.53 
   3   0   3   37.94    2.16 
   3   0   3   34.86    2.39 
  -4   0  -3    3.66    0.28 
   4   0   3    3.38    0.30 
   4   0   3    3.52    0.29 
   4   0   3    4.07    0.40 
   5   0   3   11.93    0.96 
   4  -1  -3    0.01    0.05 
   4  -1  -3    0.21    0.09 
   4   1  -3    0.12    0.08 
  -4   1   3    0.27    0.09 
   3  -1  -3   14.89    0.96 
   3  -1  -3   15.68    1.06 
  -3  -1   3   15.55    1.07 
   3  -1  -3   16.85    1.07 
   3   1  -3   16.23    1.06 
  -2  -1   3   22.19    1.45 
   2  -1  -3   21.09    1.25 
   2  -1  -3   22.11    1.45 
   2   1  -3   23.05    1.24 
   2   1  -3   22.86    1.45 
  -2   1   3   22.20    1.42 
  -1  -1   3  190.28   11.56 
  -1  -1   3  183.47    9.95 
   1   1  -3  194.28   10.33 
  -1   1   3  167.71   11.53 
   0  -1   3   78.19    4.28 
   0  -1   3   86.61    4.97 
   0  -1  -3   75.81    4.28 
   0   1  -3   78.49    4.28 
   0   1   3   83.30    4.97 
   0   1   3   71.82    4.28 
   1  -1   3  140.92    8.21 
  -1  -1  -3  130.81    7.08 
   1   1   3  130.11    7.08 
  -1   1  -3  121.42    7.08 
   2  -1   3   59.28    3.90 
  -2  -1  -3   60.82    3.21 
   2  -1   3   58.34    3.37 
  -2  -1  -3   58.61    3.35 
   2  -1   3   56.01    3.73 
   2   1   3   59.45    3.75 
  -2   1  -3   57.91    3.23 
   2   1   3   61.49    3.37 
  -3  -1  -3   52.31    2.92 
   3  -1   3   49.39    3.20 
   3  -1   3   50.45    2.95 
   3  -1   3   55.22    3.46 
  -3   1  -3   50.17    3.21 
   3   1   3   55.76    2.95 
   3   1   3   47.94    3.39 
   3   1   3   48.12    3.28 
   4  -1   3   15.96    1.19 
  -4  -1  -3   15.18    0.92 
   4  -1   3   15.12    0.96 
   4   1   3   14.65    1.15 
   4   1   3   15.76    0.98 
   5  -1   3    4.59    0.41 
  -5   1  -3    5.92    0.39 
   5   1   3    5.05    0.41 
   6  -1   3    1.49    0.24 
   5  -2  -3    2.54    0.21 
   5  -2  -3    2.59    0.30 
   5  -2  -3    2.60    0.28 
   4  -2  -3   18.27    1.22 
   4  -2  -3   19.22    1.22 
   4  -2  -3   16.80    1.10 
   4  -2  -3   16.46    1.04 
  -4   2   3   17.24    1.22 
   3  -2  -3    8.69    0.59 
   3  -2  -3    9.90    0.67 
   3  -2  -3    8.87    0.66 
   3   2  -3    8.36    0.65 
  -3   2   3   10.15    0.68 
   2  -2  -3    6.33    0.45 
   2  -2  -3    5.90    0.39 
   2  -2  -3    5.69    0.40 
  -2  -2   3    6.49    0.46 
  -1  -2   3  173.07    9.55 
   1  -2  -3  188.45   11.00 
   1  -2  -3  168.93    9.53 
  -1  -2   3  187.63   11.12 
   1   2  -3  171.65    9.51 
  -1   2   3  165.51   11.03 
  -1   2   3  176.75   11.05 
   0  -2   3  470.98   29.45 
   0  -2  -3  460.10   26.45 
   0   2  -3  440.49   29.30 
   0   2  -3  482.03   25.38 
   0   2   3  490.52   29.45 
  -1  -2  -3   57.98    3.59 
   1  -2   3   63.14    4.28 
  -1  -2  -3   57.47    4.28 
   1  -2   3   59.64    4.16 
   1   2   3   73.87    3.59 
  -1   2  -3   70.37    4.16 
  -1   2  -3   73.37    3.61 
   1   2   3   67.16    4.30 
   1   2   3   72.49    4.19 
  -2  -2  -3    6.31    0.40 
   2  -2   3    7.07    0.55 
  -2  -2  -3    5.85    0.50 
   2  -2   3    6.80    0.43 
   3  -2   3   17.17    1.41 
   3  -2   3   19.45    1.26 
   3  -2   3   18.71    1.16 
  -3   2  -3   20.91    1.28 
   3   2   3   17.96    1.37 
   3   2   3   20.54    1.19 
   4  -2   3    1.66    0.23 
  -4  -2  -3    1.38    0.24 
   4  -2   3    1.84    0.21 
   4  -2   3    1.94    0.31 
   4  -2   3    1.84    0.20 
   4   2   3    2.23    0.22 
  -4   2  -3    2.00    0.23 
   4   2   3    1.97    0.28 
   5  -2   3    6.42    0.43 
   5  -2   3    4.72    0.44 
   5  -2   3    6.16    0.47 
   5   2   3    6.02    0.46 
   5   2   3    6.34    0.38 
   5   2   3    6.11    0.37 
   6  -2   3    3.59    0.35 
   6   2   3    4.19    0.27 
   6  -3  -3    0.83    0.14 
   6  -3  -3    0.94    0.11 
   5  -3  -3    5.68    0.33 
   5  -3  -3    5.53    0.47 
   5  -3  -3    5.84    0.44 
   5  -3  -3    4.83    0.43 
   5   3  -3    5.58    0.32 
   5   3  -3    5.24    0.32 
   4  -3  -3    3.60    0.32 
   4  -3  -3    3.76    0.34 
   4  -3  -3    3.73    0.35 
   4  -3  -3    3.18    0.34 
   4   3  -3    3.47    0.29 
  -4   3   3    3.71    0.36 
   3  -3  -3   11.87    0.76 
   3  -3  -3   10.62    0.74 
   3  -3  -3   10.66    0.67 
   3   3  -3    9.20    0.65 
  -3   3   3   10.24    0.75 
   3   3  -3    8.63    0.72 
   2  -3  -3  191.11   11.55 
   2  -3  -3  174.86   10.42 
   2  -3  -3  175.26   11.37 
   2  -3  -3  177.58   11.84 
  -2  -3   3  187.36   11.60 
  -2   3   3  194.93   11.56 
   2   3  -3  188.47   11.55 
   1  -3  -3   28.70    1.68 
   1  -3  -3   30.58    1.62 
  -1  -3   3   30.64    1.88 
   1  -3  -3   29.22    1.92 
  -1  -3   3   27.96    1.91 
   1   3  -3   28.27    1.86 
  -1   3   3   28.80    1.87 
  -1   3   3   27.87    1.62 
   0  -3   3   27.01    1.72 
   0  -3  -3   28.47    1.49 
   0  -3   3   27.75    1.78 
   0  -3  -3   28.27    1.80 
   0   3  -3   25.80    1.72 
   0   3   3   25.23    1.72 
   0   3   3   25.54    1.73 
   0   3  -3   27.30    1.48 
   1  -3   3  111.76    6.90 
  -1  -3  -3  110.65    6.92 
   1   3   3  108.26    6.74 
  -1   3  -3  104.31    6.70 
  -1   3  -3   99.24    5.80 
   2  -3   3   35.74    2.05 
   2  -3   3   34.41    2.22 
   2  -3   3   37.39    2.38 
  -2  -3  -3   34.55    2.37 
  -2   3  -3   34.77    2.25 
   2   3   3   35.05    2.28 
  -2   3  -3   33.70    2.23 
   2   3   3   35.80    2.38 
   3  -3   3   16.03    0.94 
  -3  -3  -3   13.41    1.11 
   3  -3   3   16.06    1.02 
   3  -3   3   16.34    1.19 
   3   3   3   14.25    0.95 
   3   3   3   14.83    1.14 
  -3   3  -3   14.23    1.02 
  -4  -3  -3    5.78    0.63 
   4  -3   3    6.99    0.49 
   4  -3   3    7.70    0.55 
   4  -3   3    7.09    0.71 
   4  -3   3    7.96    0.53 
  -4   3  -3    6.91    0.56 
   4   3   3    7.30    0.67 
   4   3   3    7.35    0.53 
   5  -3   3    0.85    0.14 
   5  -3   3    0.94    0.19 
   5  -3   3    0.95    0.15 
   5  -3   3    0.74    0.16 
   5   3   3    1.14    0.16 
   5   3   3    1.11    0.17 
  -5   3  -3    1.10    0.18 
   5   3   3    1.09    0.14 
   6  -3   3    0.43    0.09 
   6  -3   3    0.33    0.13 
   6   3   3    0.53    0.09 
   6   3   3    0.51    0.10 
   6  -4  -3    1.49    0.17 
   6  -4  -3    1.60    0.13 
   6   4  -3    1.34    0.11 
   5  -4  -3    0.44    0.13 
   5  -4  -3    0.42    0.13 
   5  -4  -3    0.45    0.13 
   5  -4  -3    2.30    1.63 
   5  -4  -3    0.48    0.10 
  -5  -4   3    0.37    0.13 
   5   4  -3    0.52    0.12 
   5   4  -3    0.57    0.09 
   5   4  -3    0.40    0.08 
   4  -4  -3    6.68    0.51 
   4  -4  -3    6.83    0.57 
   4  -4  -3    6.76    0.53 
   4   4  -3    6.99    0.39 
   4   4  -3    7.18    0.41 
   4   4  -3    6.94    0.50 
  -4   4   3    7.50    0.60 
   3  -4  -3    6.57    0.47 
   3  -4  -3    6.79    0.52 
  -3   4   3    6.87    0.54 
   3   4  -3    5.80    0.51 
   3   4  -3    5.77    0.45 
   2  -4  -3    8.55    0.59 
   2  -4  -3    9.01    0.55 
   2  -4  -3    8.66    0.63 
   2   4  -3    6.80    0.53 
   2   4  -3    7.70    0.59 
  -2   4   3    7.93    0.61 
   1  -4  -3  123.81    7.80 
  -1  -4   3  111.69    7.78 
  -1  -4   3  114.18    7.61 
   1  -4  -3  114.58    6.85 
  -1   4   3  133.45    7.61 
   1   4  -3  126.58    7.58 
   0  -4  -3   53.94    3.56 
   0  -4  -3   50.66    3.09 
   0  -4   3   50.80    3.52 
   0   4  -3   55.65    3.43 
   0   4   3   59.06    3.44 
   1  -4   3   93.49    5.74 
  -1  -4  -3   95.31    5.78 
   1  -4   3   89.73    5.47 
  -1   4  -3   81.89    5.48 
   1   4   3   85.51    5.59 
  -1   4  -3   84.48    5.57 
   2  -4   3   24.21    1.60 
  -2  -4  -3   24.52    1.75 
   2  -4   3   25.50    1.74 
   2  -4   3   24.83    1.48 
   2   4   3   24.82    1.51 
  -2   4  -3   25.07    1.63 
  -2   4  -3   25.28    1.62 
   3  -4   3    9.14    0.62 
  -3  -4  -3    7.56    0.75 
   3  -4   3    8.66    0.79 
   3  -4   3    9.04    0.65 
  -3   4  -3    9.95    0.68 
   3   4   3    9.70    0.63 
   4  -4   3   14.46    0.93 
  -4  -4  -3   11.71    1.11 
   4  -4   3   14.48    0.99 
   4  -4   3   14.14    0.86 
   4  -4   3   13.04    1.18 
   4   4   3   15.35    0.74 
  -4   4  -3   14.38    1.01 
   4   4   3   14.39    0.76 
   4   4   3   15.04    0.95 
   5  -4   3    0.69    0.13 
   5  -4   3    0.56    0.15 
   5  -4   3    0.74    0.10 
   5  -4   3    0.75    0.13 
  -5   4  -3    0.59    0.14 
   5   4   3    0.70    0.14 
   5   4   3    0.75    0.12 
   5   4   3    0.61    0.12 
   6  -4   3    3.52    0.29 
   6  -4   3    2.90    0.23 
   6   4   3    3.72    0.23 
   6  -5  -3    0.39    0.06 
   6   5  -3    0.28    0.06 
   6   5  -3    0.33    0.05 
   5  -5  -3    3.66    0.23 
   5  -5  -3    3.03    0.27 
  -5  -5   3    3.45    0.35 
   5  -5  -3    3.48    0.29 
   5   5  -3    2.69    0.27 
   5   5  -3    3.18    0.22 
   5   5  -3    3.36    0.21 
   4  -5  -3    5.18    0.36 
   4  -5  -3    4.73    0.42 
  -4  -5   3    4.90    0.47 
   4  -5  -3    4.97    0.31 
   4  -5  -3    5.31    0.42 
   4  -5  -3    5.00    0.45 
   4   5  -3    5.09    0.33 
   4   5  -3    5.40    0.32 
   4   5  -3    5.23    0.40 
   4   5  -3    5.23    0.31 
   3  -5  -3    6.80    0.49 
   3  -5  -3    6.83    0.55 
  -3  -5   3    7.39    0.58 
   3  -5  -3    7.27    0.51 
   3   5  -3    6.22    0.49 
   3   5  -3    6.67    0.39 
  -3   5   3    7.08    0.59 
   3   5  -3    6.43    0.56 
   2  -5  -3   38.56    2.55 
   2  -5  -3   38.42    2.68 
   2  -5  -3   39.85    2.35 
  -2  -5   3   39.74    2.45 
   2   5  -3   38.70    2.59 
  -2   5   3   44.71    2.64 
   2   5  -3   39.14    2.38 
   1  -5  -3   16.84    1.21 
  -1  -5   3   15.81    1.11 
  -1  -5   3   15.96    1.19 
   1  -5  -3   16.44    1.04 
   1   5  -3   16.80    1.04 
  -1   5   3   18.53    1.18 
   1   5  -3   17.80    1.14 
   0  -5   3   14.04    1.03 
   0  -5   3   13.45    0.95 
   0  -5  -3   14.90    1.07 
   0   5   3   14.78    1.00 
   0   5  -3   14.40    0.89 
   0   5  -3   14.87    0.99 
  -1  -5  -3    2.56    0.30 
   1  -5   3    2.59    0.27 
  -1   5  -3    2.27    0.23 
   2  -5   3    3.62    0.32 
   2  -5   3    3.92    0.40 
  -2  -5  -3    4.09    0.43 
   2   5   3    4.27    0.32 
  -2   5  -3    3.79    0.34 
  -2   5  -3    3.73    0.33 
   3  -5   3   37.76    2.21 
  -3  -5  -3   35.59    2.61 
   3  -5   3   36.12    2.07 
   3  -5   3   36.36    2.64 
   3  -5   3   37.93    2.39 
  -3   5  -3   38.65    2.41 
   3   5   3   35.82    1.86 
   3   5   3   39.09    2.27 
   4  -5   3    5.44    0.42 
   4  -5   3    5.40    0.44 
   4  -5   3    5.34    0.45 
   4  -5   3    6.13    0.41 
   4  -5   3    5.20    0.31 
   4   5   3    6.33    0.37 
   4   5   3    5.96    0.39 
  -4   5  -3    5.74    0.49 
   4   5   3    5.96    0.46 
   4   5   3    6.11    0.36 
   5  -5   3    0.20    0.06 
   5  -5   3    0.07    0.09 
   5  -5   3    0.21    0.08 
   5   5   3    0.17    0.08 
   5   5   3    0.19    0.08 
   5   5   3    0.17    0.09 
   6  -5   3    1.39    0.09 
   6  -5   3    1.28    0.16 
   6   5   3    1.51    0.13 
   5  -6  -3    0.22    0.07 
   5  -6  -3    0.43    0.90 
   5  -6  -3    0.09    0.08 
   5  -6  -3    0.18    0.08 
   5   6  -3    0.13    0.05 
   5   6  -3    0.17    0.06 
   4  -6  -3    0.26    0.11 
  -4  -6   3    0.14    0.10 
   4  -6  -3    0.19    0.08 
   4  -6  -3    0.39    1.17 
   4  -6  -3    0.11    0.08 
   4  -6  -3    0.16    0.10 
   4   6  -3    0.06    0.05 
   4   6  -3    0.09    0.07 
  -4   6   3    0.11    0.09 
   4   6  -3    0.09    0.07 
   4   6  -3    0.02    0.06 
  -3  -6   3   15.23    1.03 
   3  -6  -3   14.37    1.00 
   3  -6  -3   14.44    0.93 
   3  -6  -3   13.80    0.69 
   3  -6  -3   13.58    0.87 
   3   6  -3   13.39    0.69 
   3   6  -3   14.08    0.92 
   3   6  -3   13.92    0.75 
  -2  -6   3   14.33    0.93 
   2  -6  -3   11.86    0.96 
   2  -6  -3   12.87    0.83 
   2   6  -3   11.57    0.90 
   2   6  -3   13.08    0.82 
  -2   6   3   13.19    0.95 
   2   6  -3   11.16    0.66 
   1  -6  -3    0.24    0.12 
   1  -6  -3    0.33    0.11 
  -1  -6   3    0.24    0.11 
  -1  -6   3    0.20    0.10 
   1   6  -3    0.37    0.10 
   1   6  -3    0.45    0.09 
  -1   6   3    0.40    0.13 
   0  -6  -3    1.46    0.22 
   0  -6   3    1.31    0.19 
   0   6   3    0.92    0.18 
   0   6  -3    0.93    0.15 
  -1  -6  -3    1.44    0.24 
   1  -6   3    1.51    0.22 
  -1   6  -3    1.28    0.18 
  -2  -6  -3   31.07    2.15 
   2  -6   3   31.11    2.12 
   2  -6   3   30.71    1.92 
  -2   6  -3   28.90    1.97 
   2   6   3   28.44    1.51 
  -2   6  -3   28.82    1.94 
   3  -6   3   13.56    0.73 
   3  -6   3   13.64    0.63 
   3  -6   3   13.20    0.90 
   3   6   3   12.48    0.72 
   3   6   3   13.87    0.89 
   3   6   3   12.59    0.73 
  -3   6  -3   12.19    0.92 
   3   6   3   12.71    0.67 
   4  -6   3    0.02    0.05 
   4  -6   3    0.03    0.07 
   4  -6   3    0.03    0.06 
   4  -6   3    0.01    0.05 
   4   6   3    0.04    0.07 
   4   6   3    0.08    0.07 
  -4   6  -3    0.08    0.07 
   4   6   3   -0.01    0.07 
   4   6   3    0.07    0.06 
   5  -6   3    1.21    0.18 
   5  -6   3    1.38    0.11 
   5  -6   3    1.10    0.13 
   5   6   3    1.19    0.13 
   5   6   3    0.93    0.10 
   5   6   3    1.26    0.14 
   5  -7  -3    1.04    0.09 
  -5  -7   3    1.11    0.13 
   5  -7  -3    1.00    0.13 
   5   7  -3    1.07    0.09 
   5   7  -3    1.19    0.10 
  -5   7   3    0.64    0.77 
   5   7  -3    1.08    0.08 
   4  -7  -3    3.55    1.88 
  -4  -7   3    0.62    0.16 
   4  -7  -3    0.60    0.12 
   4  -7  -3    0.57    0.09 
   4   7  -3    0.44    0.08 
  -4   7   3   -0.01    0.78 
   4   7  -3    0.50    0.10 
   4   7  -3    0.54    0.08 
   4   7  -3    0.63    0.10 
  -3  -7   3    2.22    0.29 
   3  -7  -3    2.23    0.21 
  -3   7   3    0.41    1.04 
   3   7  -3    2.08    0.17 
   3   7  -3    2.28    0.20 
   3   7  -3    2.15    0.22 
   3   7  -3    2.42    0.17 
  -2  -7   3    3.37    0.31 
   2  -7  -3    3.04    0.24 
  -2  -7   3    2.93    0.34 
   2   7  -3    2.74    0.25 
  -2   7   3    0.83    1.24 
   2   7  -3    2.90    0.23 
   1  -7  -3    4.25    0.46 
  -1  -7   3    4.55    0.44 
   1   7  -3    4.73    0.35 
  -1   7   3    4.76    0.44 
   1   7  -3    4.77    0.41 
   0  -7   3    3.66    0.38 
   0  -7  -3    3.92    0.42 
   0   7   3    3.34    0.34 
   0   7  -3    3.35    0.33 
  -1  -7  -3    0.39    0.17 
   1  -7   3    0.43    0.16 
   1   7   3    0.55    0.11 
  -1   7  -3    0.30    0.11 
   3  -7   3    1.66    0.18 
   3  -7   3    1.91    0.15 
   3   7   3    1.77    0.20 
   3   7   3    2.09    0.18 
   4  -7   3    0.41    0.11 
   4  -7   3    0.59    0.08 
   4   7   3    0.59    0.10 
   4   7   3    0.45    0.09 
   4   7   3    0.59    0.11 
   5  -7   3    0.57    0.06 
   5  -7   3    0.64    0.12 
  -5   7  -3    0.58    0.07 
   5   7   3    0.57    0.09 
   4  -8  -3    1.48    1.16 
   4  -8  -3    0.54    0.11 
  -4  -8   3    0.50    0.11 
   4   8  -3    0.46    0.06 
  -4   8   3    0.34    0.76 
   4   8  -3    0.52    0.07 
   4   8  -3    0.43    0.06 
   3  -8  -3    2.95    0.24 
  -3  -8   3    3.04    0.28 
   3   8  -3    2.94    0.21 
  -3   8   3    1.00    1.19 
   3   8  -3    2.80    0.19 
  -2  -8   3    0.14    0.11 
   2  -8  -3    2.78    1.45 
  -2   8   3   -0.27    0.82 
   1  -8  -3    0.48    1.24 
  -1  -8   3    0.23    0.13 
   1  -8  -3    0.35    0.10 
   1   8  -3    0.28    0.95 
   1   8  -3    0.28    0.08 
  -1   8   3   -0.17    0.88 
   0  -8   3    3.41    0.33 
   0   8  -3    3.22    0.23 
   1  -8   3    0.14    0.11 
  -1   8  -3   -0.20    0.71 
  -2   8  -3    0.24    0.84 
   2   8   3    1.21    0.13 
   2   8   3    1.03    0.15 
   3   8   3    3.52    0.23 
   3   8   3    2.93    0.24 
   4  -8   3    0.55    0.11 
   4  -8   3    0.56    0.06 
   4   8   3    0.52    0.09 
  -4   8  -3    0.52    0.07 
   4   8   3    0.64    0.08 
   3  -9  -3    2.71    1.27 
  -3  -9   3    0.90    0.14 
   3  -9  -3    0.98    0.13 
   3   9  -3    0.88    0.09 
  -3   9   3    0.18    0.67 
   2  -9  -3    0.18    0.07 
   2  -9  -3    0.14    0.95 
  -2  -9   3    0.09    0.10 
  -2   9   3   -0.14    0.68 
   2   9  -3    0.07    0.05 
  -1  -9   3    2.82    0.26 
  -1   9   3    0.37    0.97 
   0  -9   3    0.56    0.14 
   0   9  -3   -0.16    0.69 
  -1   9  -3   -0.11    0.63 
   2   9   3    1.65    0.13 
  -2   9  -3    0.71    0.90 
  -3  -9  -3    1.01    0.14 
  -3   9  -3    0.21    0.61 
   3   9   3    0.87    0.09 
  -1 -10   3    0.02    0.06 
   1  10  -3    0.09    0.62 
   0  10  -3    0.08    0.57 
  -1  10  -3    0.04    0.53 
   4   0  -4    0.24    0.09 
   3   0  -4   49.58    3.13 
   2   0  -4    9.10    0.69 
   2   0  -4   11.11    0.61 
  -2   0   4   10.50    0.69 
  -1   0   4  481.90   29.74 
   1   0  -4  424.74   29.60 
   1   0  -4  519.47   26.82 
   0   0  -4   19.23    1.07 
  -1   0  -4   39.55    2.29 
   1   0   4   42.84    2.75 
   1   0   4   43.47    2.66 
  -2   0  -4    2.64    0.20 
   2   0   4    2.91    0.24 
   2   0   4    2.80    0.22 
   2   0   4    3.10    0.29 
  -2   0  -4    2.90    0.20 
   3   0   4    2.31    0.21 
   3   0   4    1.94    0.21 
   3   0   4    2.64    0.29 
   3   0   4    2.37    0.21 
  -3   0  -4    2.10    0.18 
   4   0   4   10.98    0.87 
  -4   0  -4   10.64    0.67 
   4   0   4   10.48    0.70 
   4   0   4   10.55    0.72 
   5   0   4    1.71    0.30 
   5   0   4    2.08    0.26 
  -5   0  -4    2.47    0.22 
   5   0   4    2.34    0.21 
   4  -1  -4    5.99    0.47 
   4  -1  -4    5.58    0.47 
  -4   1   4    5.19    0.46 
   3  -1  -4   18.07    1.18 
   3  -1  -4   18.16    1.19 
   3  -1  -4   16.59    1.05 
  -3  -1   4   17.67    1.18 
   3   1  -4   17.01    1.17 
  -2  -1   4    8.41    0.56 
   2  -1  -4    7.51    0.48 
   2  -1  -4    7.43    0.56 
   2   1  -4    8.09    0.47 
   2   1  -4    8.53    0.56 
  -2   1   4    7.39    0.53 
  -1   1   4   15.17    0.97 
   1   1  -4   14.68    0.98 
   1   1  -4   14.84    0.83 
   0  -1   4   16.70    1.03 
   0  -1  -4   17.17    0.88 
   0   1  -4   13.68    0.88 
   0   1   4   15.52    1.02 
   1  -1   4    4.30    0.29 
  -1  -1  -4    3.66    0.24 
   1  -1   4    3.81    0.33 
   1   1   4    3.79    0.31 
  -2  -1  -4   91.47    4.83 
   2  -1   4   88.30    5.05 
   2  -1   4   88.53    5.82 
   2  -1   4   90.10    5.61 
  -2  -1  -4   90.59    5.03 
   2   1   4   88.89    5.63 
  -2   1  -4   87.58    4.84 
   2   1   4   83.27    5.77 
   2   1   4   91.83    5.06 
   3  -1   4    0.67    0.12 
   3  -1   4    1.47    0.22 
   3  -1   4    1.07    0.12 
  -3  -1  -4    1.01    0.12 
  -3   1  -4    1.14    0.14 
   3   1   4    0.76    0.17 
   3   1   4    0.65    0.12 
   3   1   4    0.86    0.14 
   4  -1   4    4.07    0.44 
   4  -1   4    3.80    0.31 
   4  -1   4    3.88    0.33 
  -4  -1  -4    3.95    0.30 
   4   1   4    4.08    0.35 
   4   1   4    4.41    0.34 
   4   1   4    4.12    0.42 
   5  -1   4    2.61    0.28 
   5  -1   4    2.71    0.33 
  -5   1  -4    2.94    0.25 
   5   1   4    2.80    0.35 
   5   1   4    2.85    0.23 
   5   1   4    2.82    0.27 
   6  -1   4    1.46    0.24 
   6   1   4    1.84    0.16 
   5  -2  -4    2.67    0.21 
   5  -2  -4    2.70    0.31 
   5  -2  -4    2.53    0.29 
   5   2  -4    2.50    0.19 
   4  -2  -4    0.40    0.13 
   4  -2  -4    0.59    0.14 
   4  -2  -4    0.52    0.13 
   4  -2  -4    0.55    0.14 
   4   2  -4    0.38    0.11 
  -4   2   4    0.56    0.14 
   3  -2  -4   35.64    2.28 
   3  -2  -4   37.24    2.32 
   3  -2  -4   36.85    2.08 
  -3   2   4   35.46    2.31 
   3   2  -4   34.60    2.29 
   3   2  -4   32.45    2.09 
   2  -2  -4  112.57    6.83 
   2  -2  -4  102.46    6.15 
   2  -2  -4  107.79    6.72 
  -2  -2   4  109.56    6.85 
   2   2  -4  107.57    6.82 
  -2   2   4  110.25    6.83 
   1   2  -4    0.48    0.08 
  -1   2   4    0.45    0.06 
  -1   2   4    0.39    0.08 
   1   2  -4    0.45    0.05 
   0  -2  -4   32.69    2.03 
   0  -2   4   34.88    2.35 
   0   2  -4   37.51    2.34 
   0   2   4   40.68    2.35 
   0   2  -4   39.02    2.03 
   1  -2   4    6.05    0.44 
   1  -2   4    6.37    0.49 
  -1  -2  -4    5.83    0.48 
  -1  -2  -4    5.92    0.38 
   1   2   4    5.67    0.49 
   1   2   4    7.48    0.47 
  -1   2  -4    7.19    0.44 
  -1   2  -4    7.30    0.39 
  -2  -2  -4  177.57    9.96 
   2  -2   4  185.60   11.42 
   2  -2   4  182.81    9.99 
  -2  -2  -4  165.01   11.36 
   2  -2   4  171.55   10.88 
  -2   2  -4  176.38   10.89 
   2   2   4  177.54   11.12 
   3  -2   4   21.28    1.62 
  -3  -2  -4   22.00    1.30 
   3  -2   4   23.19    1.34 
  -3  -2  -4   20.13    1.55 
   3  -2   4   22.93    1.44 
  -3   2  -4   23.78    1.46 
   3   2   4   20.01    1.56 
   3   2   4   22.55    1.37 
   3   2   4   23.49    1.37 
  -4  -2  -4   14.21    1.25 
   4  -2   4   17.10    1.33 
   4  -2   4   15.99    1.14 
   4  -2   4   17.70    1.08 
   4  -2   4   16.66    1.00 
   4   2   4   19.35    1.12 
   4   2   4   16.98    1.30 
  -4   2  -4   18.96    1.18 
   5  -2   4    5.94    0.40 
   5  -2   4    5.37    0.45 
   5  -2   4    5.08    0.43 
   5   2   4    5.40    0.35 
  -5   2  -4    5.60    0.40 
   5   2   4    5.60    0.36 
   5   2   4    5.28    0.43 
   6  -2   4    0.94    0.19 
   6   2   4    1.59    0.15 
   6  -3  -4    3.18    0.20 
   6  -3  -4    3.38    0.28 
   5  -3  -4    6.29    0.46 
   5  -3  -4    6.24    0.35 
   5  -3  -4    6.23    0.51 
   5   3  -4    5.51    0.35 
   5   3  -4    5.52    0.33 
   4  -3  -4    1.50    0.21 
   4  -3  -4    1.59    0.22 
   4  -3  -4    1.35    0.20 
   4  -3  -4    1.28    0.21 
   4   3  -4    1.52    0.14 
   4   3  -4    1.72    0.18 
  -4   3   4    1.80    0.24 
   3  -3  -4    5.32    0.45 
   3  -3  -4    4.98    0.41 
   3  -3  -4    5.49    0.46 
  -3   3   4    6.25    0.48 
   3   3  -4    5.70    0.45 
   3   3  -4    5.51    0.39 
   2  -3  -4   62.88    3.97 
   2  -3  -4   58.00    3.90 
   2  -3  -4   58.49    3.57 
  -2  -3   4   62.06    3.98 
   2   3  -4   64.33    3.97 
  -2   3   4   67.58    3.98 
   1  -3  -4   12.18    0.69 
   1  -3  -4   12.39    0.80 
   1  -3  -4   11.95    0.82 
   1  -3  -4   11.53    0.72 
  -1  -3   4   12.13    0.80 
   1   3  -4   10.54    0.78 
  -1   3   4   11.10    0.80 
   0  -3  -4   15.28    1.07 
   0  -3   4   15.40    1.05 
   0  -3   4   16.15    1.03 
   0  -3  -4   15.36    0.93 
   0  -3  -4   16.01    0.88 
   0   3   4   14.67    1.02 
   0   3   4   14.89    1.02 
   0   3  -4   16.07    1.02 
   0   3  -4   16.27    0.87 
   1  -3   4  184.44   11.21 
  -1  -3  -4  185.27   11.24 
  -1  -3  -4  150.33    9.84 
  -1   3  -4  171.24   10.90 
   1   3   4  182.95   10.97 
  -1   3  -4  172.43    9.44 
  -2  -3  -4   85.97    5.29 
  -2  -3  -4   86.97    6.08 
   2  -3   4   95.07    5.78 
   2  -3   4   96.44    5.31 
   2  -3   4  104.03    6.12 
  -2   3  -4   90.05    5.79 
   2   3   4   94.80    5.92 
   3  -3   4   56.02    3.92 
   3  -3   4   57.79    3.35 
   3  -3   4   62.08    3.64 
   3   3   4   49.81    3.86 
   3   3   4   60.74    3.44 
  -3   3  -4   60.00    3.66 
   4  -3   4   19.66    1.52 
   4  -3   4   19.76    1.21 
   4  -3   4   19.00    1.13 
   4  -3   4   20.38    1.30 
  -4   3  -4   19.93    1.32 
   4   3   4   19.95    1.25 
   4   3   4   18.05    1.46 
   4   3   4   18.22    0.96 
   5  -3   4    3.24    0.30 
   5  -3   4    3.92    0.30 
   5  -3   4    3.55    0.34 
  -5   3  -4    3.25    0.33 
   5   3   4    3.62    0.32 
   5   3   4    3.53    0.27 
   5   3   4    3.64    0.27 
   6  -3   4    0.12    0.10 
   6  -3   4    0.10    0.05 
   6   3   4    0.08    0.06 
   6   3   4    0.11    0.07 
   6  -4  -4    0.10    0.07 
   6  -4  -4    0.09    0.05 
   6   4  -4    0.06    0.05 
   6   4  -4    0.03    0.04 
  -5  -4   4    0.09    0.09 
   5  -4  -4    0.11    0.09 
   5  -4  -4    0.08    0.07 
   5  -4  -4    0.14    0.09 
   5  -4  -4   -0.09    0.86 
   5   4  -4    0.02    0.06 
   5   4  -4    0.08    0.06 
   5   4  -4    0.02    0.05 
   4  -4  -4    8.89    0.66 
   4  -4  -4    8.52    0.58 
  -4  -4   4    8.59    0.65 
   4  -4  -4    8.40    0.60 
   4   4  -4    7.91    0.45 
   4   4  -4    7.32    0.56 
  -4   4   4    7.89    0.67 
   4   4  -4    7.47    0.43 
   3  -4  -4    2.18    0.24 
   3  -4  -4    1.97    0.22 
  -3  -4   4    2.24    0.26 
   3  -4  -4    1.90    0.26 
   3   4  -4    1.53    0.21 
  -3   4   4    1.89    0.25 
   3   4  -4    1.81    0.19 
  -2  -4   4    0.93    0.18 
   2  -4  -4    0.96    0.16 
   2  -4  -4    0.96    0.16 
  -2   4   4    1.13    0.17 
   2   4  -4    1.29    0.14 
   2   4  -4    1.20    0.16 
   1  -4  -4   29.04    1.77 
  -1  -4   4   28.31    1.96 
  -1  -4   4   27.76    2.01 
   1  -4  -4   29.99    2.03 
   1   4  -4   34.05    1.96 
  -1   4   4   32.38    1.99 
   0  -4  -4   16.73    1.08 
   0  -4   4   16.39    1.05 
   0  -4  -4   16.23    0.92 
   0   4  -4   13.19    1.00 
   0   4   4   12.91    1.00 
   1  -4   4  157.62    9.48 
  -1  -4  -4  159.96    9.96 
  -1  -4  -4  150.03    8.71 
   1  -4   4  159.44    9.93 
  -1   4  -4  149.26    9.65 
  -1   4  -4  152.11    9.50 
   1   4   4  148.93    9.70 
  -2  -4  -4   11.19    0.96 
   2  -4   4   11.83    0.95 
   2  -4   4   11.14    0.84 
   2  -4   4   11.61    0.78 
  -2   4  -4   14.62    0.88 
  -2   4  -4   13.42    0.87 
   2   4   4   14.06    0.82 
   3  -4   4   26.73    1.63 
   3  -4   4   24.18    1.41 
   3  -4   4   25.40    1.84 
   3  -4   4   24.82    1.50 
  -3  -4  -4   21.73    1.78 
  -3   4  -4   25.00    1.65 
   3   4   4   25.78    1.55 
   4  -4   4   11.88    0.57 
   4  -4   4   12.16    0.74 
   4  -4   4   12.18    0.83 
   4  -4   4   12.72    0.80 
   4  -4   4   11.20    1.03 
   4   4   4   11.57    0.81 
   4   4   4   10.98    0.63 
  -4   4  -4   11.25    0.86 
   5  -4   4    0.01    0.05 
   5  -4   4    0.02    0.06 
   5  -4   4    0.02    0.05 
   5  -4   4   -0.01    0.09 
  -5   4  -4    0.04    0.06 
   5   4   4    0.14    0.08 
   5   4   4    0.10    0.08 
   5   4   4    0.05    0.07 
   6  -4   4    0.56    0.14 
   6   4   4    0.67    0.10 
   6   4   4    0.43    0.07 
   6  -5  -4    0.47    0.07 
   5  -5  -4    1.66    0.16 
   5  -5  -4    1.48    0.20 
  -5  -5   4    1.25    0.23 
   5  -5  -4    1.26    0.18 
   5   5  -4    1.66    0.14 
   5   5  -4    1.41    0.16 
   5   5  -4    1.73    0.14 
   4  -5  -4    4.65    0.41 
   4  -5  -4    4.21    0.38 
   4  -5  -4    4.00    0.38 
  -4  -5   4    3.95    0.41 
   4  -5  -4    4.05    0.31 
   4  -5  -4    4.37    0.28 
   4   5  -4    3.88    0.34 
   4   5  -4    4.18    0.26 
   4   5  -4    4.44    0.28 
   3  -5  -4    1.97    0.24 
   3  -5  -4    1.91    0.24 
  -3  -5   4    1.68    0.25 
   3  -5  -4    1.95    0.23 
  -3   5   4    2.04    0.27 
   3   5  -4    1.86    0.20 
   3   5  -4    1.94    0.16 
   3   5  -4    1.67    0.24 
   3   5  -4    1.52    0.16 
   2  -5  -4   15.81    0.97 
  -2  -5   4   14.99    1.03 
  -2   5   4   15.75    1.10 
   2   5  -4   14.51    0.95 
   2   5  -4   14.45    1.05 
  -1  -5   4    8.96    0.68 
   1  -5  -4    9.37    0.61 
  -1  -5   4    9.21    0.67 
   1  -5  -4    9.29    0.71 
  -1   5   4    9.25    0.69 
   1   5  -4    8.81    0.65 
   1   5  -4    8.60    0.59 
   0  -5   4   20.27    1.34 
   0  -5  -4   22.04    1.49 
   0  -5   4   20.98    1.45 
   0  -5  -4   21.41    1.26 
   0   5   4   19.63    1.40 
   0   5  -4   21.16    1.39 
   1  -5   4   16.68    1.25 
  -1  -5  -4   17.08    1.29 
  -1   5  -4   17.76    1.18 
  -1   5  -4   18.45    1.17 
   2  -5   4    1.97    0.20 
  -2  -5  -4    1.59    0.27 
   2  -5   4    1.96    0.27 
  -2   5  -4    2.26    0.23 
   2   5   4    2.08    0.21 
  -2   5  -4    1.90    0.21 
   3  -5   4   35.41    2.06 
   3  -5   4   35.48    1.93 
  -3  -5  -4   28.74    2.42 
   3  -5   4   35.45    2.49 
   3  -5   4   34.92    2.22 
   3   5   4   33.74    1.63 
  -3   5  -4   36.91    2.26 
   3   5   4   33.64    1.74 
   3   5   4   36.40    2.12 
   4  -5   4    2.77    0.26 
   4  -5   4    2.60    0.26 
   4  -5   4    2.67    0.27 
   4  -5   4    2.51    0.18 
   4  -5   4    2.73    0.26 
  -4   5  -4    2.53    0.28 
   4   5   4    2.46    0.27 
   4   5   4    2.63    0.24 
   4   5   4    2.66    0.21 
   4   5   4    2.84    0.24 
   5  -5   4    0.04    0.09 
   5  -5   4    0.09    0.06 
   5  -5   4    0.10    0.05 
   5   5   4    0.04    0.07 
   5   5   4    0.07    0.07 
   5   5   4    0.01    0.06 
   6  -5   4    0.58    0.12 
   6   5   4    0.75    0.09 
   5  -6  -4    0.59    0.11 
   5  -6  -4    0.52    0.12 
   5  -6  -4    1.74    1.31 
   5  -6  -4    0.55    0.09 
   5   6  -4    0.45    0.07 
   5   6  -4    0.55    0.07 
  -4  -6   4    3.92    0.40 
   4  -6  -4    4.15    0.35 
   4  -6  -4    3.66    0.36 
   4  -6  -4    3.50    0.29 
   4  -6  -4    3.74    0.26 
   4   6  -4    3.83    0.26 
   4   6  -4    3.99    0.25 
   4   6  -4    3.60    0.31 
   4   6  -4    3.95    0.23 
  -3  -6   4    8.94    0.74 
   3  -6  -4    9.08    0.56 
   3  -6  -4    9.71    0.65 
   3  -6  -4    9.54    0.68 
   3   6  -4    9.42    0.53 
   3   6  -4    9.47    0.65 
   3   6  -4    9.35    0.48 
   3   6  -4   10.18    0.53 
  -2  -6   4   11.24    0.83 
   2  -6  -4   11.23    0.76 
   2   6  -4   10.62    0.83 
  -2   6   4   11.34    0.87 
   2   6  -4   11.29    0.74 
  -1  -6   4   11.09    0.78 
   1  -6  -4   11.21    0.71 
   1  -6  -4   10.57    0.82 
   1   6  -4    9.76    0.75 
   1   6  -4    9.47    0.67 
  -1   6   4   10.15    0.79 
   0  -6   4   26.28    1.82 
   0  -6  -4   27.38    1.87 
   0   6  -4   25.21    1.74 
   1  -6   4    2.38    0.29 
  -1  -6  -4    2.43    0.33 
  -1   6  -4    2.72    0.26 
  -2  -6  -4    6.10    0.62 
   2  -6   4    6.95    0.62 
   2  -6   4    7.12    0.48 
  -2   6  -4    5.94    0.50 
  -2   6  -4    6.03    0.50 
   2   6   4    6.00    0.39 
   3  -6   4    6.86    0.37 
   3  -6   4    6.93    0.45 
   3  -6   4    6.50    0.53 
   3   6   4    6.78    0.45 
  -3   6  -4    7.45    0.58 
   3   6   4    7.58    0.43 
   3   6   4    7.80    0.45 
   3   6   4    8.23    0.56 
   4  -6   4    0.95    0.14 
   4  -6   4    1.09    0.11 
   4  -6   4    1.05    0.17 
   4   6   4    1.11    0.16 
   4   6   4    1.16    0.13 
   4   6   4    1.27    0.15 
   4   6   4    1.26    0.18 
   5  -6   4    0.54    0.09 
   5  -6   4    0.57    0.13 
   5  -6   4    0.66    0.07 
   5   6   4    0.51    0.08 
   5   6   4    0.49    0.09 
   5   6   4    0.50    0.10 
   5  -7  -4    1.20    0.13 
   5  -7  -4    1.11    0.09 
   5   7  -4    1.12    0.09 
  -5   7   4    0.64    0.75 
   4  -7  -4    0.55    0.09 
   4  -7  -4    1.93    1.48 
  -4  -7   4    0.45    0.12 
   4  -7  -4    0.50    0.12 
   4   7  -4    0.58    0.08 
   4   7  -4    0.56    0.09 
  -4   7   4    0.37    0.96 
   4   7  -4    0.44    0.07 
  -3  -7   4    0.49    0.13 
  -3  -7   4    0.27    0.12 
   3  -7  -4    0.29    0.10 
   3  -7  -4    0.89    1.32 
   3   7  -4    0.29    0.08 
   3   7  -4    0.31    0.09 
   3   7  -4    0.41    0.07 
   3   7  -4    0.23    0.06 
  -2  -7   4    7.90    0.66 
   2  -7  -4    8.59    0.60 
  -2  -7   4    7.74    0.53 
   2  -7  -4    8.03    0.49 
   2   7  -4    8.23    0.46 
   2   7  -4    7.88    0.55 
   1  -7  -4    1.95    0.28 
  -1  -7   4    1.72    0.26 
   1   7  -4    1.71    0.22 
  -1   7   4    1.60    0.23 
   0  -7  -4    0.46    0.17 
   0  -7   4    0.64    0.17 
   0   7  -4    0.45    0.12 
   1  -7   4    1.30    0.22 
  -1  -7  -4    1.11    0.26 
   1   7   4    1.30    0.17 
  -1   7  -4    0.07    0.83 
  -1   7  -4    1.01    0.17 
   2  -7   4    1.43    1.37 
   2  -7   4    0.20    0.11 
  -2   7  -4    0.25    0.85 
   2   7   4    0.32    0.09 
   3  -7   4    3.67    0.21 
   3   7   4    3.96    0.27 
   3   7   4    3.08    0.27 
   4  -7   4    0.27    0.09 
   4  -7   4    0.30    0.06 
   4   7   4    0.13    0.08 
   4   7   4    0.17    0.07 
   4   7   4    0.29    0.08 
   5  -7   4    1.49    0.09 
   5  -7   4    1.41    0.15 
  -5   7  -4    1.47    0.11 
   4  -8  -4    2.68    1.44 
   4  -8  -4    0.80    0.12 
  -4  -8   4    0.75    0.12 
   4   8  -4    0.60    0.07 
   4   8  -4    0.63    0.08 
  -4   8   4    0.15    0.66 
  -3  -8   4   10.36    0.62 
   3  -8  -4   10.93    0.60 
   3   8  -4   10.28    0.55 
   2  -8  -4    3.96    2.12 
  -2  -8   4    1.03    0.21 
   2  -8  -4    1.22    0.15 
  -2  -8   4    1.10    0.19 
   2   8  -4   -0.05    0.77 
  -2   8   4    0.43    1.04 
   2   8  -4    1.37    0.14 
  -1  -8   4    0.54    0.16 
   1  -8  -4    0.66    0.12 
   1   8  -4    0.74    0.11 
   1   8  -4    0.09    0.84 
   0  -8  -4    0.34    0.09 
   0  -8   4    0.28    0.13 
   0   8  -4    0.33    0.08 
   0   8  -4    0.16    0.91 
   1  -8   4    4.42    0.37 
   1   8   4    5.02    0.32 
  -2   8  -4    0.12    0.75 
   3  -8   4    1.30    0.10 
  -3   8  -4    0.20    0.77 
   3   8   4    1.04    0.14 
   3   8   4    1.18    0.12 
  -3   8  -4    1.23    0.12 
   4  -8   4    1.33    0.09 
   4   8   4    0.98    0.11 
  -4   8  -4    1.09    0.10 
   4   8   4    1.07    0.10 
  -3  -9   4    0.10    0.07 
   3  -9  -4    0.37    0.81 
   3  -9  -4    0.08    0.06 
   3   9  -4    0.09    0.04 
  -3   9   4    0.12    0.63 
  -2  -9   4    0.64    0.14 
   2  -9  -4    0.70    0.12 
   2  -9  -4    1.70    1.32 
  -2   9   4   -0.08    0.70 
   2   9  -4    0.48    0.08 
   1  -9  -4    1.65    0.16 
  -1  -9   4    1.55    0.22 
   1   9  -4    1.63    0.14 
   0  -9   4    1.11    0.17 
   0   9  -4   -0.01    0.73 
   1  -9   4    0.42    0.11 
  -1   9  -4   -0.03    0.67 
  -2   9  -4   -0.09    0.57 
  -3   9  -4    0.14    0.53 
  -1 -10   4    0.59    0.10 
   1  10  -4    0.02    0.54 
   0  10  -4    0.00    0.53 
  -1  10  -4   -0.02    0.49 
   4   0  -5   26.58    1.76 
   3   0  -5   97.19    6.06 
   2   0  -5   23.86    1.50 
  -2   0   5   22.74    1.49 
   2   0  -5   22.41    1.30 
  -1   0   5   31.38    2.00 
   1   0  -5   30.50    1.73 
   1   0  -5   31.82    1.99 
   0   0   5    0.19    0.04 
   1   0   5   78.48    5.03 
  -1   0  -5   80.06    4.33 
   1   0   5   80.49    5.16 
  -2   0  -5  211.84   11.76 
  -2   0  -5  206.60   12.24 
   2   0   5  232.89   13.99 
   2   0   5  216.06   13.65 
   2   0   5  219.49   12.27 
  -3   0  -5   25.51    1.55 
   3   0   5   27.86    1.59 
   3   0   5   27.35    1.86 
   3   0   5   26.18    1.63 
   4   0   5   28.39    1.76 
   4   0   5   28.91    2.06 
   4   0   5   30.62    1.81 
  -4   0  -5   29.06    1.71 
   5   0   5    7.70    0.56 
  -5   0  -5    6.95    0.48 
   5   0   5    6.02    0.53 
   5   0   5    6.70    0.51 
   5   0   5    7.07    0.41 
   6   0   5    0.92    0.19 
   6   0   5    1.17    0.13 
   5  -1  -5    6.52    0.55 
   5  -1  -5    6.63    0.38 
   4  -1  -5   18.91    1.21 
   4  -1  -5   16.64    1.21 
  -4   1   5   16.43    1.21 
  -3  -1   5   13.55    0.91 
   3  -1  -5   15.30    0.94 
   3  -1  -5   12.47    0.92 
   3   1  -5   12.37    0.90 
   3   1  -5   12.19    0.90 
  -2  -1   5   40.48    2.62 
   2  -1  -5   38.04    2.35 
  -2   1   5   38.15    2.60 
   2   1  -5   42.77    2.26 
   2   1  -5   44.97    2.62 
   1  -1  -5   57.41    3.12 
  -1  -1   5   61.25    3.62 
   1   1  -5   51.63    3.11 
  -1   1   5   59.06    3.60 
   1   1  -5   55.64    3.60 
   0  -1  -5   75.20    4.02 
   0   1   5   70.51    4.66 
   0   1  -5   75.95    4.02 
   1  -1   5   28.71    1.95 
  -1  -1  -5   31.78    1.69 
   1  -1   5   28.69    2.04 
   1   1   5   32.07    1.97 
   1   1   5   30.38    2.01 
  -1   1  -5   31.15    1.69 
  -2  -1  -5   63.07    3.73 
   2  -1   5   66.51    4.34 
   2  -1   5   67.37    3.75 
   2  -1   5   63.32    4.17 
  -2  -1  -5   63.75    3.58 
   2   1   5   68.12    4.18 
   2   1   5   63.57    3.77 
   2   1   5   69.72    4.30 
   3  -1   5    0.97    0.12 
   3  -1   5    1.00    0.14 
   3  -1   5    0.88    0.20 
  -3  -1  -5    0.91    0.12 
   3  -1   5    0.99    0.13 
   3   1   5    0.83    0.14 
  -3   1  -5    0.80    0.13 
   3   1   5    0.80    0.17 
   3   1   5    0.71    0.14 
   4  -1   5    0.71    0.12 
  -4  -1  -5    0.93    0.14 
   4  -1   5    0.68    0.14 
   4  -1   5    0.71    0.13 
   4  -1   5    0.91    0.21 
  -4  -1  -5    0.68    0.17 
  -4   1  -5    1.08    0.15 
   4   1   5    0.70    0.14 
   4   1   5    1.00    0.22 
   4   1   5    0.61    0.16 
   5  -1   5    2.54    0.21 
   5  -1   5    1.96    0.31 
   5  -1   5    2.55    0.28 
  -5   1  -5    2.59    0.24 
   5   1   5    2.89    0.27 
   5   1   5    2.74    0.33 
   5   1   5    2.67    0.23 
   6  -1   5    0.13    0.12 
   6   1   5    0.15    0.07 
   6   1   5    0.21    0.12 
   6  -2  -5    2.10    0.16 
   5  -2  -5    7.72    0.42 
   5  -2  -5    7.93    0.55 
   5  -2  -5    7.28    0.61 
   5   2  -5    7.15    0.43 
   4  -2  -5    2.80    0.31 
   4  -2  -5    3.10    0.31 
   4  -2  -5    2.75    0.31 
  -4   2   5    2.90    0.31 
   3  -2  -5    9.69    0.75 
   3  -2  -5   10.26    0.75 
   3  -2  -5    9.95    0.67 
  -3  -2   5    9.66    0.70 
  -3   2   5   10.61    0.76 
   3   2  -5   10.90    0.74 
  -2  -2   5   11.08    0.70 
   2  -2  -5   11.19    0.71 
   2  -2  -5   10.50    0.63 
   2  -2  -5    9.03    0.70 
   2   2  -5    8.87    0.69 
  -2   2   5    8.56    0.69 
   1  -2  -5   14.38    0.92 
   1  -2  -5   15.55    0.83 
   1   2  -5   13.69    0.91 
  -1   2   5   12.37    0.91 
   1   2  -5   12.26    0.77 
   0  -2   5   59.50    3.89 
   0  -2  -5   54.80    3.42 
   0  -2   5   67.45    3.82 
   0  -2  -5   60.51    3.90 
   0  -2  -5   62.34    3.29 
   0   2   5   61.70    3.82 
   0   2  -5   56.89    3.29 
   0   2  -5   58.50    3.78 
  -1  -2  -5  205.12   12.72 
  -1  -2  -5  209.43   10.72 
   1  -2   5  188.72   12.43 
   1  -2   5  200.62   12.73 
  -1  -2  -5  196.34   11.17 
   1   2   5  175.33   12.72 
   1   2   5  207.25   12.45 
  -1   2  -5  202.42   10.73 
   2  -2   5   34.39    2.17 
   2  -2   5   32.63    1.98 
  -2  -2  -5   34.07    1.81 
   2  -2   5   34.44    1.83 
   2   2   5   27.96    2.04 
  -2   2  -5   28.92    1.99 
   2   2   5   27.04    2.11 
   3  -2   5    7.50    0.51 
   3  -2   5    7.13    0.49 
  -3  -2  -5    7.58    0.59 
   3  -2   5    7.49    0.48 
   3  -2   5    7.72    0.66 
  -3  -2  -5    7.55    0.45 
   3   2   5    5.31    0.50 
   3   2   5    5.88    0.48 
  -3   2  -5    5.89    0.51 
   4  -2   5    4.74    0.37 
   4  -2   5    4.92    0.40 
   4  -2   5    4.26    0.38 
   4  -2   5    4.67    0.52 
  -4  -2  -5    4.25    0.47 
  -4   2  -5    5.53    0.43 
   4   2   5    6.02    0.54 
   4   2   5    5.71    0.42 
   5  -2   5   19.17    1.01 
   5  -2   5   21.50    1.16 
   5  -2   5   19.81    1.15 
   5   2   5   19.63    1.04 
   5   2   5   20.48    1.00 
   5   2   5   19.98    1.29 
   5   2   5   20.50    1.15 
   6  -2   5    0.23    0.11 
   6   2   5    0.28    0.08 
   6  -3  -5    0.18    0.08 
   6  -3  -5    0.26    0.07 
   5  -3  -5    1.74    0.18 
   5  -3  -5    1.96    0.27 
   5  -3  -5    1.89    0.24 
   5  -3  -5    4.77    2.17 
   5   3  -5    1.47    0.14 
   5   3  -5    1.65    0.15 
  -4  -3   5    0.78    0.18 
   4  -3  -5    0.69    0.16 
   4  -3  -5    0.60    0.15 
   4  -3  -5    0.61    0.14 
   4  -3  -5    0.62    0.17 
   4   3  -5    0.53    0.13 
   4   3  -5    0.53    0.09 
   4   3  -5    0.76    0.13 
   4   3  -5    0.51    0.08 
  -4   3   5    0.60    0.17 
  -3  -3   5   25.26    1.60 
   3  -3  -5   25.48    1.53 
   3  -3  -5   25.85    1.69 
   3  -3  -5   24.70    1.71 
  -3   3   5   25.18    1.72 
   3   3  -5   24.52    1.53 
   3   3  -5   25.89    1.69 
   2  -3  -5   28.29    1.58 
  -2  -3   5   26.84    1.65 
   2  -3  -5   26.33    1.76 
   2  -3  -5   28.91    1.74 
  -2   3   5   25.30    1.76 
   2   3  -5   25.94    1.59 
   2   3  -5   24.01    1.74 
   1  -3  -5   65.07    4.50 
   1  -3  -5   68.24    4.06 
  -1  -3   5   72.81    4.52 
   1   3  -5   73.50    4.49 
  -1   3   5   75.95    4.52 
   0  -3   5   42.75    2.76 
   0  -3  -5   40.71    2.84 
   0  -3   5   42.77    2.82 
   0  -3  -5   39.68    2.49 
   0  -3  -5   43.90    2.39 
   0   3   5   44.87    2.76 
   0   3  -5   44.41    2.38 
   0   3  -5   46.92    2.75 
   1  -3   5   40.91    2.55 
  -1  -3  -5   35.67    2.34 
   1  -3   5   39.98    2.70 
  -1  -3  -5   41.58    2.72 
  -1   3  -5   41.31    2.57 
  -1   3  -5   42.67    2.59 
   1   3   5   43.08    2.63 
   2  -3   5    9.61    0.68 
  -2  -3  -5    9.99    0.62 
  -2  -3  -5   10.17    0.78 
   2  -3   5   10.12    0.64 
   2  -3   5   10.58    0.80 
  -2   3  -5   10.32    0.70 
   2   3   5    8.74    0.77 
   2   3   5   10.08    0.66 
   3  -3   5   13.92    1.21 
   3  -3   5   16.16    0.98 
  -3  -3  -5   15.25    1.18 
   3  -3   5   17.12    1.05 
  -3   3  -5   16.00    1.08 
   3   3   5   15.84    1.01 
   3   3   5   14.20    1.18 
   4  -3   5   15.38    0.90 
  -4  -3  -5   14.03    1.18 
   4  -3   5   15.03    1.03 
   4  -3   5   14.86    0.97 
   4  -3   5   15.64    1.24 
   4   3   5   15.11    1.20 
   4   3   5   14.62    0.78 
  -4   3  -5   15.18    1.06 
   4   3   5   16.07    1.02 
   5  -3   5    0.05    0.06 
   5  -3   5    0.03    0.05 
   5  -3   5    0.10    0.11 
  -5   3  -5    0.07    0.07 
   5   3   5    0.07    0.07 
   5   3   5    0.07    0.08 
   5   3   5    0.12    0.08 
   6  -3   5    0.32    0.12 
   6  -3   5    0.16    0.06 
   6   3   5    0.35    0.08 
   6   3   5    0.29    0.07 
   6  -4  -5    1.89    0.14 
   6   4  -5    1.68    0.14 
   5  -4  -5    5.10    2.28 
   5  -4  -5    1.45    0.21 
   5  -4  -5    1.39    0.21 
   5  -4  -5    1.55    0.16 
   5   4  -5    1.48    0.13 
   5   4  -5    1.40    0.14 
   4  -4  -5    2.13    0.29 
   4  -4  -5    1.98    0.20 
   4  -4  -5    2.04    0.25 
   4  -4  -5    1.98    0.26 
  -4  -4   5    2.01    0.28 
   4   4  -5    2.16    0.18 
   4   4  -5    2.01    0.21 
   4   4  -5    2.00    0.24 
   4   4  -5    2.34    0.17 
  -4   4   5    2.16    0.29 
   3  -4  -5    3.07    0.32 
  -3  -4   5    3.06    0.32 
   3  -4  -5    3.15    0.29 
   3  -4  -5    2.72    0.31 
  -3   4   5    2.83    0.32 
   3   4  -5    2.80    0.29 
   3   4  -5    2.86    0.25 
  -2  -4   5   30.47    1.96 
   2  -4  -5   31.65    1.88 
   2  -4  -5   33.11    2.06 
   2   4  -5   30.26    1.89 
  -2   4   5   32.45    2.11 
   2   4  -5   31.18    2.08 
   1  -4  -5    2.91    0.27 
  -1  -4   5    2.73    0.27 
  -1  -4   5    2.94    0.30 
  -1   4   5    4.06    0.32 
   1   4  -5    4.07    0.30 
   1   4  -5    3.62    0.26 
   0  -4  -5   48.21    3.27 
   0  -4   5   47.16    3.24 
   0  -4  -5   47.88    2.86 
   0   4  -5   48.55    3.15 
   0   4  -5   55.47    3.12 
  -1  -4  -5   12.88    1.01 
   1  -4   5   12.65    0.98 
  -1  -4  -5   11.40    0.84 
   1  -4   5   11.96    0.88 
  -1   4  -5   15.38    0.93 
   1   4   5   15.08    0.95 
  -1   4  -5   16.14    0.93 
   2  -4   5   14.56    0.98 
  -2  -4  -5   13.52    1.11 
   2  -4   5   14.33    1.12 
  -2   4  -5   16.19    1.02 
   2   4   5   15.16    0.95 
   3  -4   5    4.42    0.51 
   3  -4   5    4.49    0.35 
  -3  -4  -5    4.19    0.48 
   3  -4   5    5.02    0.39 
   3  -4   5    4.98    0.38 
  -3   4  -5    4.82    0.41 
   3   4   5    4.85    0.39 
   4  -4   5    7.89    0.50 
   4  -4   5    7.72    0.53 
   4  -4   5    7.74    0.55 
   4  -4   5    7.50    0.38 
   4  -4   5    7.79    0.49 
  -4   4  -5    6.47    0.57 
   4   4   5    6.82    0.43 
   4   4   5    6.70    0.54 
   4   4   5    5.96    0.44 
   5  -4   5    1.39    0.12 
   5  -4   5    1.15    0.21 
   5  -4   5    1.51    0.17 
   5   4   5    1.52    0.18 
   5   4   5    1.52    0.19 
   5   4   5    1.57    0.17 
   6  -4   5    0.21    0.09 
   6   4   5    0.26    0.07 
   6   4   5    0.24    0.06 
   6  -5  -5    2.26    1.10 
   5  -5  -5    1.43    0.19 
   5  -5  -5    1.08    0.16 
  -5  -5   5    1.10    0.20 
   5  -5  -5    1.52    0.15 
   5   5  -5    1.34    0.12 
   5   5  -5    1.35    0.15 
   5   5  -5    1.30    0.12 
   4  -5  -5    1.69    0.20 
   4  -5  -5    1.63    0.24 
   4  -5  -5    1.94    0.25 
  -4  -5   5    1.74    0.26 
   4  -5  -5    1.95    0.19 
   4  -5  -5    2.21    0.28 
   4   5  -5    2.23    0.16 
   4   5  -5    1.93    0.20 
   4   5  -5    2.03    0.16 
   3  -5  -5    4.49    0.41 
  -3  -5   5    4.47    0.44 
   3  -5  -5    4.11    0.42 
   3  -5  -5    4.50    0.40 
   3   5  -5    4.67    0.43 
   3   5  -5    5.09    0.37 
   3   5  -5    5.44    0.30 
  -3   5   5    4.67    0.46 
   3   5  -5    4.94    0.28 
   2  -5  -5   10.33    0.68 
  -2  -5   5   10.58    0.74 
  -2   5   5    9.15    0.75 
   2   5  -5    9.56    0.64 
   2   5  -5    8.88    0.72 
   1  -5  -5    1.10    0.18 
  -1  -5   5    1.49    0.21 
   1   5  -5    1.17    0.16 
   1   5  -5    1.50    0.14 
  -1   5   5    1.04    0.17 
   0  -5   5   15.42    1.09 
   0  -5   5   16.65    1.16 
   0  -5  -5   16.84    1.02 
   0  -5  -5   15.69    1.19 
   0   5  -5   16.59    1.10 
   1  -5   5   32.51    2.25 
  -1  -5  -5   33.62    2.30 
  -1   5  -5   33.94    2.12 
  -1   5  -5   32.17    2.15 
  -2  -5  -5   19.02    1.50 
   2  -5   5   21.27    1.33 
   2  -5   5   20.62    1.51 
  -2   5  -5   20.15    1.36 
   3  -5   5    8.84    0.82 
  -3  -5  -5    7.39    0.77 
   3  -5   5    8.95    0.64 
   3  -5   5    8.96    0.56 
   3   5   5    9.02    0.51 
  -3   5  -5    9.23    0.68 
   3   5   5    9.14    0.64 
   3   5   5    8.81    0.52 
   4  -5   5    0.33    0.09 
   4  -5   5    0.41    0.07 
   4  -5   5    0.39    0.09 
   4  -5   5    0.36    0.11 
   4   5   5    0.45    0.13 
   4   5   5    0.29    0.08 
  -4   5  -5    0.29    0.11 
   4   5   5    0.41    0.12 
   4   5   5    0.31    0.10 
   5  -5   5    0.37    0.12 
   5  -5   5    0.49    0.07 
   5  -5   5    0.37    0.08 
   5   5   5    0.41    0.10 
   5   5   5    0.56    0.10 
   6  -5   5    0.38    0.10 
   6   5   5    0.41    0.07 
   5  -6  -5    0.55    0.93 
   5  -6  -5    0.03    0.07 
   5  -6  -5    0.04    0.06 
   5  -6  -5    0.04    0.05 
   5   6  -5    0.03    0.04 
   5   6  -5    0.06    0.04 
   4  -6  -5    3.74    2.01 
   4  -6  -5    1.16    0.19 
   4  -6  -5    1.16    0.17 
   4  -6  -5    1.09    0.14 
  -4  -6   5    0.63    0.17 
   4   6  -5    0.93    0.11 
   4   6  -5    0.79    0.12 
   4   6  -5    0.91    0.11 
   3  -6  -5    1.12    0.20 
  -3  -6   5    1.16    0.23 
   3  -6  -5    3.56    2.08 
   3  -6  -5    1.33    0.20 
   3  -6  -5    0.99    0.16 
   3   6  -5    0.83    0.11 
   3   6  -5    1.10    0.12 
   3   6  -5    0.85    0.13 
   3   6  -5   -0.10    0.93 
   3   6  -5    0.90    0.14 
   2  -6  -5    1.89    0.24 
  -2  -6   5    1.59    0.25 
  -2   6   5    1.72    0.26 
   2   6  -5    1.78    0.15 
   2   6  -5    1.71    0.23 
   2   6  -5    1.99    0.19 
  -1  -6   5   10.53    0.74 
   1  -6  -5   10.61    0.67 
   1   6  -5    8.98    0.62 
  -1   6   5    8.90    0.73 
   1   6  -5    8.53    0.69 
   0  -6  -5    1.99    0.28 
   0  -6   5    1.75    0.26 
   0  -6   5    1.84    0.24 
   0   6  -5    2.24    0.23 
  -1  -6  -5   11.13    0.92 
   1  -6   5   11.32    0.89 
   1   6   5   11.17    0.63 
  -1   6  -5   11.22    0.81 
   2  -6   5    3.61    0.42 
  -2  -6  -5    3.10    0.41 
  -2   6  -5    3.57    0.33 
   2   6   5    3.75    0.27 
   3  -6   5    1.10    0.15 
   3  -6   5    1.43    0.12 
  -3   6  -5    1.03    0.17 
   3   6   5    0.99    0.15 
   3   6   5    1.12    0.15 
   3   6   5    0.98    0.17 
   4  -6   5    1.03    0.10 
   4  -6   5    0.80    0.12 
   4  -6   5    0.85    0.16 
   4   6   5    1.04    0.16 
   4   6   5    1.14    0.15 
   4   6   5    1.08    0.13 
   4   6   5    1.08    0.17 
   5  -6   5    0.59    0.13 
   5  -6   5    0.59    0.07 
  -5   6  -5    0.66    0.08 
   5   6   5    0.60    0.09 
   5   6   5    0.66    0.11 
   5  -7  -5    0.18    0.06 
   5  -7  -5    0.72    0.79 
  -5   7   5    0.16    0.56 
   4  -7  -5    0.53    0.11 
  -4  -7   5    0.42    0.11 
   4  -7  -5    1.45    1.34 
   4   7  -5    0.31    0.06 
   4   7  -5    0.42    0.07 
   4   7  -5    0.35    0.06 
   3  -7  -5    2.43    1.78 
   3  -7  -5    0.46    0.12 
  -3  -7   5    0.46    0.15 
  -3  -7   5    0.53    0.13 
   3   7  -5    0.50    0.09 
   3   7  -5    0.12    0.88 
   3   7  -5    0.44    0.08 
   3   7  -5    0.46    0.10 
   3   7  -5    0.49    0.08 
  -2  -7   5    1.65    0.23 
  -2  -7   5    1.37    0.26 
   2  -7  -5    1.50    0.22 
   2  -7  -5    1.51    0.18 
   2   7  -5    0.17    0.94 
   2   7  -5    1.66    0.15 
   2   7  -5    1.59    0.17 
   1  -7  -5    2.74    0.23 
  -1  -7   5    3.15    0.30 
  -1  -7   5    2.75    0.33 
   1   7  -5    2.79    0.21 
   0  -7  -5    1.92    0.29 
   0   7  -5    1.97    0.23 
  -1  -7  -5    0.74    0.14 
   1  -7   5    0.44    0.14 
   1   7   5    0.82    0.14 
  -1   7  -5   -0.13    0.73 
   2  -7   5    2.41    0.25 
   2  -7   5    2.74    0.17 
   2   7   5    2.79    0.22 
  -2   7  -5    2.51    0.20 
   3  -7   5    2.69    0.17 
   3   7   5    1.95    0.21 
  -3   7  -5    2.64    0.19 
   3   7   5    2.64    0.21 
   4  -7   5    1.50    0.11 
   4  -7   5    1.28    0.16 
  -4   7  -5    1.45    0.13 
   4   7   5    1.35    0.13 
   4   7   5    1.30    0.15 
   4   7   5    1.37    0.14 
   4  -8  -5    0.89    0.99 
   4  -8  -5    0.27    0.08 
  -4  -8   5    0.25    0.08 
   4   8  -5    0.34    0.05 
  -4   8   5   -0.04    0.60 
   3  -8  -5    6.55    0.42 
  -3  -8   5    7.22    0.45 
   3   8  -5    7.29    0.39 
   2  -8  -5    2.76    0.23 
  -2  -8   5    2.26    0.30 
  -2  -8   5    2.88    0.28 
   2   8  -5    2.97    0.20 
   1  -8  -5    0.70    0.13 
  -1  -8   5    0.60    0.15 
   1   8  -5    0.35    0.89 
   1   8  -5    0.48    0.09 
   0  -8  -5    1.22    0.16 
   0  -8   5    0.83    0.17 
   0   8  -5   -0.03    0.76 
   1  -8   5    1.20    0.19 
   1   8   5    1.73    0.16 
   2  -8   5    0.08    0.07 
  -2   8  -5    0.22    0.78 
   2   8   5    0.16    0.07 
   3  -8   5    0.99    0.09 
  -3   8  -5    1.05    0.11 
  -3   8  -5    0.30    0.71 
   3   8   5    1.00    0.11 
   4   8   5    2.25    0.15 
   3  -9  -5   -0.02    0.05 
   3  -9  -5    0.16    0.69 
  -3  -9   5    0.03    0.06 
   3   9  -5    0.05    0.03 
  -3   9   5   -0.03    0.55 
  -2  -9   5    0.62    0.13 
   2  -9  -5    0.70    0.12 
   2  -9  -5    2.51    1.34 
   2   9  -5    0.29    0.71 
  -2   9   5    0.11    0.73 
   2   9  -5    0.76    0.09 
   1  -9  -5    2.71    0.21 
  -1  -9   5    2.40    0.25 
   0  -9  -5    3.50    0.25 
   0  -9   5    3.65    0.29 
  -1   9  -5   -0.06    0.65 
  -2   9  -5    0.10    0.63 
   0 -10   5    0.21    0.06 
   0  10  -5   -0.01    0.48 
  -1  10  -5   -0.17    0.39 
   5   0  -6   20.93    3.88 
   4   0  -6    5.36    0.46 
   3   0  -6   42.11    2.62 
   3   0  -6   39.39    2.64 
   2   0  -6   27.78    1.74 
  -2   0   6   24.68    1.73 
   2   0  -6   27.88    1.73 
   1   0  -6   46.96    2.75 
   1   0  -6   41.89    2.38 
  -1   0   6   40.97    2.76 
   0   0   6  260.35   16.25 
   0   0  -6  257.50   14.14 
   1   0   6   11.97    0.76 
  -1   0  -6   11.98    0.72 
  -1   0  -6   11.83    0.71 
   1   0   6   11.71    0.82 
   1   0   6   13.46    0.86 
   2   0   6    3.26    0.26 
   2   0   6    3.11    0.31 
  -2   0  -6    3.09    0.23 
   2   0   6    3.20    0.28 
   3   0   6   34.78    2.18 
  -3   0  -6   36.05    2.08 
   3   0   6   37.06    2.13 
   3   0   6   36.31    2.46 
   4   0   6    0.47    0.12 
  -4   0  -6    0.43    0.11 
   4   0   6    0.48    0.16 
   4   0   6    0.30    0.12 
   5   0   6   29.04    1.60 
   5   0   6   29.76    1.45 
   6   0   6    0.23    0.12 
   6   0   6    0.21    0.07 
   5  -1  -6    2.14    1.65 
   5  -1  -6    0.78    0.13 
   5  -1  -6    0.77    0.17 
   5   1  -6    0.57    0.11 
   5   1  -6    1.63    1.25 
   4  -1  -6   10.76    0.81 
   4  -1  -6   12.57    0.83 
  -4   1   6    9.10    0.80 
   3  -1  -6    7.43    0.56 
   3  -1  -6    6.15    0.53 
   3   1  -6    6.99    0.53 
   3   1  -6    7.18    0.54 
   2  -1  -6   56.05    3.20 
   2  -1  -6   51.87    3.55 
  -2  -1   6   52.62    3.56 
   2  -1  -6   62.44    3.53 
   2   1  -6   52.07    3.07 
   2   1  -6   56.38    3.50 
   2   1  -6   59.49    3.55 
   1  -1  -6   89.98    5.42 
   1  -1  -6   94.05    5.63 
   1  -1  -6   97.73    6.25 
  -1  -1   6   99.20    6.28 
   1   1  -6  108.20    6.25 
   1   1  -6   96.29    5.41 
  -1   1   6  110.78    6.27 
   0  -1  -6    0.75    0.08 
   0  -1  -6    0.87    0.10 
   0  -1   6    0.88    0.10 
   0   1  -6    0.59    0.07 
   0   1   6    0.70    0.09 
   0   1  -6    0.62    0.09 
  -1  -1  -6   83.87    4.24 
   1  -1   6   77.39    4.92 
  -1  -1  -6   84.00    5.02 
  -1  -1  -6   75.44    4.40 
   1  -1   6   74.54    5.06 
   1  -1   6   79.80    4.42 
  -1   1  -6   74.90    4.24 
   1   1   6   75.53    4.93 
  -1   1  -6   72.90    4.40 
   1   1   6   78.51    5.03 
   2  -1   6   69.13    4.41 
   2  -1   6   61.58    4.24 
   2  -1   6   69.94    3.82 
  -2  -1  -6   63.23    3.79 
  -2   1  -6   67.10    4.16 
  -2   1  -6   68.57    3.79 
   2   1   6   62.32    3.85 
   2   1   6   66.44    4.26 
   2   1   6   72.63    4.38 
   3  -1   6    3.07    0.27 
   3  -1   6    2.88    0.27 
   3  -1   6    3.40    0.36 
  -3  -1  -6    2.87    0.24 
   3  -1   6    2.91    0.25 
   3   1   6    3.12    0.33 
  -3   1  -6    3.46    0.25 
  -3   1  -6    3.19    0.28 
   3   1   6    3.33    0.29 
   3   1   6    2.88    0.30 
   4  -1   6    3.71    0.33 
   4  -1   6    4.02    0.31 
   4  -1   6    3.86    0.34 
  -4  -1  -6    3.69    0.39 
   4  -1   6    4.16    0.43 
  -4  -1  -6    3.67    0.30 
   4   1   6    4.08    0.42 
   4   1   6    4.01    0.35 
  -4   1  -6    4.13    0.31 
   4   1   6    3.23    0.36 
   5  -1   6    0.43    0.10 
   5  -1   6    0.20    0.15 
   5  -1   6    0.38    0.09 
   5   1   6    0.28    0.09 
   5   1   6    0.41    0.16 
   5   1   6    0.39    0.12 
   6  -1   6    0.27    0.12 
   6  -1   6    0.39    0.08 
   6   1   6    0.46    0.09 
   6   1   6    0.43    0.13 
   6  -2  -6    6.18    2.19 
   5  -2  -6    2.51    0.30 
   5  -2  -6    5.79    2.37 
   5  -2  -6    2.49    0.22 
   5  -2  -6    2.53    0.31 
   5   2  -6    2.44    0.20 
   4  -2  -6    2.45    0.30 
   4  -2  -6    3.03    0.31 
   4  -2  -6    2.15    0.27 
  -4   2   6    1.97    0.26 
   4   2  -6    2.11    0.17 
   4   2  -6    2.08    0.24 
   3  -2  -6   40.31    2.25 
   3  -2  -6   33.79    2.50 
   3  -2  -6   42.46    2.50 
   3   2  -6   40.57    2.49 
  -3   2   6   34.18    2.50 
   2  -2  -6   10.07    0.73 
  -2  -2   6    9.36    0.71 
   2  -2  -6    9.66    0.65 
  -2   2   6   10.67    0.74 
   2   2  -6   11.27    0.73 
   2   2  -6   10.06    0.70 
   1  -2  -6   52.99    3.12 
  -1  -2   6   57.58    3.48 
   1   2  -6   57.51    3.47 
  -1   2   6   54.76    3.46 
   1   2  -6   59.30    2.99 
  -1   2   6   45.22    3.45 
   0  -2  -6   17.32    1.10 
   0  -2   6   17.57    1.27 
   0  -2  -6   17.66    1.14 
   0   2  -6   22.18    1.10 
   0   2   6   22.51    1.29 
  -1  -2  -6  117.34    7.05 
   1  -2   6  109.25    6.87 
  -1  -2  -6  110.81    6.17 
   1  -2   6  108.04    6.17 
  -1  -2  -6  114.00    5.93 
   1  -2   6  109.48    7.06 
   1   2   6  104.24    7.05 
  -1   2  -6   98.26    6.15 
   1   2   6  108.68    6.90 
  -1   2  -6  110.24    6.75 
   2  -2   6   28.84    2.15 
   2  -2   6   28.40    1.87 
  -2  -2  -6   31.77    1.80 
   2  -2   6   31.21    1.97 
  -2  -2  -6   35.31    2.12 
   2  -2   6   33.05    1.83 
   2   2   6   29.92    2.11 
  -2   2  -6   30.48    1.99 
   3  -2   6   24.02    1.80 
   3  -2   6   23.50    1.53 
   3  -2   6   25.38    1.50 
   3  -2   6   23.94    1.60 
  -3  -2  -6   24.91    1.46 
  -3  -2  -6   26.68    1.76 
  -3   2  -6   25.64    1.64 
   3   2   6   25.16    1.55 
   3   2   6   24.83    1.76 
   4  -2   6   35.10    1.83 
  -4  -2  -6   33.47    2.30 
   4  -2   6   34.47    1.97 
   4  -2   6   30.53    2.09 
   4  -2   6   31.71    2.32 
  -4  -2  -6   33.12    1.92 
   4   2   6   33.00    2.31 
  -4   2  -6   32.11    2.13 
  -4   2  -6   33.04    1.92 
   4   2   6   30.83    1.56 
   4   2   6   32.87    2.03 
   5  -2   6    8.67    0.61 
   5  -2   6    8.29    0.49 
   5  -2   6    9.49    0.56 
   5   2   6    9.07    0.50 
   5   2   6    8.28    0.63 
   5   2   6    9.37    0.61 
   5   2   6    8.14    0.51 
   6  -2   6    0.19    0.11 
   6   2   6    0.34    0.08 
   6  -3  -6    1.67    0.19 
   6  -3  -6    1.60    0.13 
   6   3  -6    1.39    0.13 
   5  -3  -6    2.64    0.31 
   5  -3  -6    2.65    0.22 
   5  -3  -6    2.91    0.31 
   5   3  -6    2.61    0.20 
   5   3  -6    2.62    0.18 
   4  -3  -6    2.93    0.33 
   4  -3  -6    2.90    0.32 
   4  -3  -6    2.28    0.30 
   4  -3  -6    2.81    0.29 
  -4   3   6    2.25    0.31 
   4   3  -6    2.57    0.28 
   4   3  -6    2.65    0.19 
   4   3  -6    2.74    0.19 
  -3  -3   6   11.07    0.77 
   3  -3  -6   11.64    0.72 
   3  -3  -6   11.92    0.81 
   3  -3  -6    9.85    0.80 
   3   3  -6   10.35    0.77 
  -3   3   6    9.54    0.80 
   3   3  -6   10.11    0.69 
  -2  -3   6    2.69    0.28 
   2  -3  -6    2.77    0.26 
   2  -3  -6    2.64    0.29 
  -2   3   6    3.14    0.30 
   2   3  -6    3.48    0.24 
   2   3  -6    3.32    0.29 
   1  -3  -6    0.40    0.10 
   1  -3  -6    0.72    0.13 
  -1  -3   6    0.57    0.11 
   1  -3  -6    0.77    0.12 
   0  -3   6   28.91    2.12 
   0  -3  -6   31.85    1.84 
   0  -3  -6   34.01    2.20 
   0  -3  -6   31.86    1.92 
   0   3   6   35.02    2.14 
   0   3  -6   36.02    2.11 
  -1  -3  -6  175.78    9.96 
   1  -3   6  176.05   11.34 
  -1  -3  -6  187.42   11.36 
   1   3   6  168.34   11.09 
  -1   3  -6  172.49   10.86 
   2  -3   6   19.84    1.34 
   2  -3   6   20.46    1.51 
   2  -3   6   19.31    1.28 
   2  -3   6   21.70    1.25 
  -2  -3  -6   23.36    1.50 
  -2  -3  -6   21.10    1.24 
   2   3   6   20.84    1.29 
  -2   3  -6   21.21    1.37 
   2   3   6   19.34    1.48 
   3  -3   6   16.61    1.04 
  -3  -3  -6   15.93    0.95 
  -3  -3  -6   16.08    1.19 
   3  -3   6   14.60    0.90 
   3  -3   6   15.89    0.98 
   3  -3   6   14.60    1.22 
  -3   3  -6   14.64    1.06 
   3   3   6   15.37    1.01 
   3   3   6   14.85    1.19 
   4  -3   6    2.69    0.19 
   4  -3   6    2.87    0.29 
  -4  -3  -6    2.91    0.38 
   4  -3   6    2.85    0.40 
   4  -3   6    2.76    0.27 
   4  -3   6    3.01    0.28 
   4   3   6    3.46    0.28 
   4   3   6    3.23    0.40 
  -4   3  -6    3.16    0.27 
  -4   3  -6    3.42    0.32 
   4   3   6    3.44    0.32 
   5  -3   6    0.24    0.12 
   5  -3   6    0.41    0.09 
   5  -3   6    0.38    0.09 
   5   3   6    0.45    0.11 
   5   3   6    0.54    0.12 
   5   3   6    0.52    0.13 
   5   3   6    0.53    0.17 
   6  -3   6    0.63    0.14 
   6   3   6    0.67    0.09 
   6   3   6    0.82    0.11 
   6  -4  -6    0.61    0.78 
   6  -4  -6    0.15    0.05 
   6   4  -6    0.08    0.05 
   5  -4  -6    0.40    0.12 
   5  -4  -6    1.43    1.38 
   5   4  -6    0.26    0.07 
   5   4  -6    0.30    0.07 
   4  -4  -6    4.54    0.43 
  -4  -4   6    4.44    0.42 
   4  -4  -6    4.27    0.40 
   4  -4  -6    3.95    0.38 
   4  -4  -6    4.50    0.30 
   4   4  -6    4.69    0.28 
   4   4  -6    3.65    0.33 
   4   4  -6    4.63    0.26 
  -3  -4   6    5.14    0.47 
   3  -4  -6    4.45    0.44 
   3  -4  -6    5.16    0.48 
   3  -4  -6    5.21    0.43 
   3   4  -6    6.21    0.40 
   3   4  -6    5.46    0.46 
  -3   4   6    5.03    0.49 
  -2  -4   6    7.71    0.58 
   2  -4  -6    7.77    0.59 
   2  -4  -6    8.19    0.54 
   2   4  -6    7.10    0.50 
   2   4  -6    7.19    0.58 
  -2   4   6    6.65    0.59 
  -1  -4   6    3.84    0.34 
   1  -4  -6    3.86    0.30 
   1   4  -6    3.49    0.30 
  -1   4   6    2.93    0.31 
   1   4  -6    3.76    0.27 
   0  -4   6   41.49    2.81 
   0  -4  -6   45.78    3.09 
   0  -4  -6   46.16    2.70 
   0   4  -6   52.42    2.95 
   0   4  -6   46.53    2.97 
  -1  -4  -6    6.99    0.49 
  -1  -4  -6    7.93    0.61 
   1  -4   6    7.68    0.58 
   1  -4   6    7.67    0.52 
  -1   4  -6    6.14    0.50 
  -1   4  -6    6.39    0.52 
  -2  -4  -6   13.81    0.89 
   2  -4   6   14.49    1.10 
   2  -4   6   13.97    0.91 
  -2  -4  -6   15.93    1.11 
   2  -4   6   15.96    0.96 
   2   4   6   12.22    0.91 
  -2   4  -6   13.13    0.97 
   3  -4   6    0.41    0.18 
  -3  -4  -6    0.53    0.19 
   3  -4   6    0.51    0.13 
   3  -4   6    0.59    0.12 
   3  -4   6    0.71    0.12 
   4  -4   6   10.74    0.77 
   4  -4   6   11.85    0.71 
   4  -4   6   12.11    0.71 
   4  -4   6   11.61    0.56 
   4  -4   6   10.16    0.62 
   4   4   6   12.50    0.82 
  -4   4  -6   11.74    0.85 
  -4   4  -6   12.33    0.74 
   4   4   6   12.70    0.64 
   4   4   6   10.51    0.65 
   4   4   6   11.88    0.74 
   5  -4   6    1.43    0.11 
   5  -4   6    1.29    0.21 
   5   4   6    1.30    0.18 
   5   4   6    1.36    0.16 
   6  -4   6    0.12    0.08 
   6   4   6    0.03    0.04 
   6  -5  -6    2.30    1.08 
   5  -5  -6    2.56    1.62 
   5  -5  -6    0.73    0.14 
   5  -5  -6    0.75    0.11 
   5   5  -6    0.76    0.10 
   5   5  -6    0.70    0.08 
   4  -5  -6    2.22    1.75 
  -4  -5   6    0.45    0.14 
   4  -5  -6    0.52    0.15 
   4  -5  -6    0.68    0.16 
   4  -5  -6    0.54    0.11 
   4  -5  -6    0.66    0.14 
   4   5  -6    0.43    0.08 
   4   5  -6    0.38    0.08 
   4   5  -6    0.36    0.09 
   3  -5  -6    1.08    0.19 
   3  -5  -6    1.07    0.19 
   3  -5  -6    0.90    0.19 
  -3  -5   6    1.05    0.22 
   3   5  -6    0.76    0.13 
   3   5  -6    0.73    0.10 
  -3   5   6    0.63    0.18 
   3   5  -6    0.82    0.11 
   3   5  -6    0.61    0.16 
  -2  -5   6    3.26    0.34 
   2  -5  -6    2.34    0.34 
   2  -5  -6    3.13    0.30 
   2   5  -6    3.32    0.32 
  -2   5   6    2.99    0.34 
   2   5  -6    3.17    0.26 
   1  -5  -6    9.99    0.68 
  -1  -5   6   10.02    0.74 
  -1   5   6    9.31    0.74 
   1   5  -6    9.95    0.72 
   1   5  -6   10.15    0.64 
   0  -5  -6   16.96    1.03 
   0  -5   6   15.59    1.10 
   0  -5  -6   16.72    1.19 
   0   5  -6   15.56    1.10 
   1  -5   6    3.89    0.35 
  -1  -5  -6    3.53    0.32 
  -1  -5  -6    3.49    0.40 
   1  -5   6    3.27    0.37 
  -1   5  -6    4.81    0.36 
  -1   5  -6    4.37    0.34 
  -2  -5  -6    0.46    0.17 
   2  -5   6    0.40    0.16 
  -2   5  -6    0.70    0.14 
   2   5   6    0.93    0.14 
   3  -5   6    5.04    0.60 
   3  -5   6    5.52    0.31 
  -3  -5  -6    5.30    0.59 
   3  -5   6    5.84    0.41 
   3   5   6    6.44    0.39 
   3   5   6    6.44    0.48 
   3   5   6    6.63    0.39 
  -3   5  -6    6.38    0.50 
   4  -5   6    0.34    0.09 
   4  -5   6    0.39    0.13 
   4  -5   6    0.44    0.09 
   4  -5   6    0.41    0.07 
   4   5   6    0.39    0.12 
  -4   5  -6    0.20    0.09 
   4   5   6    0.31    0.09 
   4   5   6    0.24    0.10 
   4   5   6    0.20    0.10 
   5  -5   6    0.83    0.11 
   5  -5   6    0.89    0.08 
   5  -5   6    0.96    0.17 
   5   5   6    0.96    0.12 
   5   5   6    0.98    0.13 
  -5   5  -6    0.88    0.10 
   5  -6  -6    1.14    0.11 
   5  -6  -6    1.23    0.14 
   5   6  -6    0.99    0.10 
   5   6  -6    1.30    0.09 
   4  -6  -6    2.62    0.28 
   4  -6  -6    2.59    0.20 
   4  -6  -6    2.68    0.23 
  -4  -6   6    1.99    0.28 
   4   6  -6    3.05    0.18 
   4   6  -6    2.39    0.22 
   4   6  -6    2.77    0.19 
  -3  -6   6    1.71    0.26 
  -3  -6   6    1.92    0.23 
   3  -6  -6    1.85    0.24 
   3  -6  -6    2.16    0.30 
   3  -6  -6    1.74    0.19 
   3  -6  -6    6.46    2.69 
   3   6  -6    1.69    0.15 
   3   6  -6    1.54    0.15 
   3   6  -6    1.77    0.14 
   3   6  -6    1.80    0.18 
   2  -6  -6    1.25    0.22 
  -2  -6   6    1.08    0.23 
   2   6  -6    1.28    0.20 
  -2   6   6    1.16    0.24 
   2   6  -6    1.17    0.12 
   2   6  -6    1.18    0.15 
  -1  -6   6    6.00    0.53 
   1  -6  -6    6.13    0.47 
   1   6  -6    5.77    0.49 
   0  -6  -6    2.54    0.32 
   0  -6  -6    2.85    0.28 
   0  -6   6    2.12    0.30 
   0   6   6    2.96    0.24 
   0   6  -6    2.98    0.27 
   1  -6   6    7.28    0.64 
  -1  -6  -6    7.69    0.67 
  -1   6  -6    6.97    0.55 
   1   6   6    7.32    0.46 
  -2  -6  -6    7.29    0.70 
   2  -6   6    6.92    0.38 
   2  -6   6    6.78    0.69 
   2   6   6    8.48    0.47 
  -2   6  -6    8.01    0.59 
  -2   6  -6    7.78    0.40 
   3  -6   6    1.44    0.17 
   3  -6   6    1.40    0.12 
  -3   6  -6    1.49    0.15 
   3   6   6    1.37    0.18 
   3   6   6    1.64    0.17 
   3   6   6    1.54    0.18 
  -3   6  -6    1.63    0.21 
   4  -6   6    0.03    0.04 
   4  -6   6    0.02    0.08 
   4  -6   6   -0.01    0.05 
   4   6   6    0.09    0.08 
   4   6   6   -0.01    0.06 
   4   6   6    0.04    0.05 
  -4   6  -6    0.02    0.05 
   5  -6   6    1.12    0.16 
   5  -6   6    0.93    0.07 
   5   6   6    0.66    0.09 
   5   6   6    0.93    0.11 
  -5   6  -6    0.82    0.09 
   5  -7  -6    1.71    0.98 
  -5   7   6    0.19    0.56 
   4  -7  -6    1.48    0.16 
   4  -7  -6    4.61    1.96 
   4   7  -6    1.87    0.12 
   4   7  -6    1.54    0.12 
  -3  -7   6    2.89    0.26 
   3  -7  -6    2.59    0.22 
  -3  -7   6    2.74    0.31 
   3   7  -6    2.62    0.19 
   3   7  -6    2.42    0.17 
   3   7  -6    2.45    0.16 
  -2  -7   6    0.37    0.14 
  -2  -7   6    0.50    0.14 
   2  -7  -6    0.39    0.11 
   2  -7  -6    1.18    1.45 
   2   7  -6    0.12    0.84 
   2   7  -6    0.33    0.08 
   1  -7  -6    4.28    0.30 
  -1  -7   6    4.57    0.37 
  -1  -7   6    3.42    0.40 
   1   7  -6    4.45    0.27 
   0  -7  -6    5.27    0.37 
   0  -7   6    5.29    0.42 
   0   7  -6    5.31    0.32 
   0   7   6    5.89    0.37 
  -1  -7  -6    0.63    0.13 
   1  -7   6    0.53    0.14 
  -1   7  -6   -0.29    0.69 
   1   7   6    0.67    0.13 
  -2  -7  -6    5.22    0.39 
   2  -7   6    6.77    0.42 
   2  -7   6    6.02    0.32 
   2   7   6    6.79    0.41 
  -2   7  -6    6.73    0.35 
   3  -7   6    2.61    0.20 
   3  -7   6    2.69    0.16 
   3   7   6    2.21    0.20 
  -3   7  -6    2.45    0.18 
   4  -7   6    0.52    0.06 
  -4   7  -6    0.34    0.07 
   4   7   6    0.46    0.08 
   4   7   6    0.43    0.09 
   4  -8  -6    1.20    0.87 
   4  -8  -6    0.63    0.10 
  -4   8   6    0.46    0.70 
   3  -8  -6    0.01    0.06 
   3  -8  -6    0.11    0.89 
  -3  -8   6    0.04    0.08 
   3   8  -6    0.04    0.72 
  -3   8   6    0.00    0.72 
   3   8  -6    0.01    0.04 
  -2  -8   6    5.34    0.37 
   2  -8  -6    5.17    0.33 
  -2  -8   6    3.68    0.41 
   2   8  -6    4.89    0.28 
  -1  -8   6    2.03    0.25 
   1  -8  -6    2.04    0.20 
   1   8  -6    2.37    0.17 
   0  -8  -6    1.52    0.16 
   0  -8   6    1.23    0.20 
   0   8  -6    0.24    0.86 
  -1  -8  -6    0.76    0.13 
   1  -8   6    0.78    0.15 
  -1   8  -6    0.02    0.71 
   1   8   6    1.03    0.15 
   2  -8   6    2.49    0.20 
   2   8   6    2.30    0.19 
   3  -8   6    0.77    0.08 
  -3   8  -6    0.77    0.09 
   3   8   6    0.77    0.11 
   3  -9  -6    0.04    0.05 
  -3  -9   6    0.01    0.05 
  -2  -9   6    0.18    0.08 
   2  -9  -6    0.28    0.08 
   2   9  -6   -0.01    0.58 
  -1  -9   6    1.99    0.21 
   1  -9  -6    2.29    0.18 
   0  -9   6    1.01    0.15 
   0  -9  -6    0.97    0.12 
   0   9  -6    0.10    0.63 
  -1   9  -6    0.17    0.63 
   2  -9   6    0.62    0.09 
  -2   9  -6    0.07    0.54 
   2   9   6    0.69    0.09 
   0  10  -6   -0.01    0.43 
   5   0  -7    3.26    1.89 
   4   0  -7    2.71    0.30 
   3   0  -7   15.17    1.05 
   3   0  -7   14.72    1.04 
   2   0  -7   14.84    0.97 
  -2   0   7   13.61    0.97 
   2   0  -7   14.65    0.99 
   1   0  -7  146.65    8.62 
  -1   0   7  128.45    8.66 
   0   0  -7   17.09    0.96 
   0   0   7   17.76    1.12 
   0   0  -7   15.84    0.98 
  -1   0  -7   72.82    4.12 
   1   0   7   68.67    4.62 
   1   0   7   72.16    4.17 
   1   0   7   77.22    4.72 
   2   0   7   77.00    4.59 
   2   0   7   65.95    4.11 
  -2   0  -7   72.35    3.98 
   2   0   7   70.31    4.03 
   2   0   7   69.28    4.47 
  -2   0  -7   64.74    4.35 
   3   0   7   29.85    2.01 
  -3   0  -7   29.79    1.70 
   3   0   7   27.58    1.78 
   3   0   7   28.77    1.75 
   4   0   7    1.42    0.24 
   4   0   7    1.51    0.20 
   4   0   7    1.19    0.22 
  -4   0  -7    1.51    0.18 
   5   0   7    0.63    0.11 
   5   0   7    0.33    0.15 
   5   0   7    0.41    0.12 
   6   0   7    0.19    0.07 
   6   0   7    0.17    0.10 
   6  -1  -7    4.23    1.82 
   5  -1  -7    3.92    2.13 
   5  -1  -7    1.20    0.16 
   5  -1  -7    1.14    0.21 
   5   1  -7    1.10    1.11 
   5   1  -7    1.08    0.14 
   4  -1  -7    8.77    0.62 
   4  -1  -7    8.61    0.69 
   4  -1  -7    9.97    0.72 
   4   1  -7    8.58    0.68 
  -4   1   7    8.57    0.70 
   4   1  -7    8.51    0.49 
   3  -1  -7   39.54    2.51 
   3  -1  -7   34.96    2.51 
   3   1  -7   40.50    2.49 
   3   1  -7   39.25    2.51 
  -2  -1   7   62.24    4.29 
   2  -1  -7   72.46    4.26 
   2  -1  -7   71.55    4.30 
   2   1  -7   63.76    4.23 
   2   1  -7   67.67    4.28 
   1  -1  -7   36.81    2.19 
  -1  -1   7   35.26    2.20 
   1  -1  -7   33.36    1.97 
   1  -1  -7   32.83    2.17 
   1   1  -7   33.15    2.18 
  -1   1   7   35.10    2.19 
   1   1  -7   31.76    2.15 
   0  -1  -7   43.83    2.55 
   0  -1   7   42.71    2.85 
   0  -1  -7   44.59    2.46 
   0   1   7   47.30    2.86 
   1  -1   7  135.03    8.53 
   1  -1   7  134.31    8.32 
   1  -1   7  128.04    7.49 
  -1  -1  -7  143.35    8.49 
  -1  -1  -7  132.35    7.46 
   1   1   7  139.03    8.51 
  -1   1  -7  130.73    7.45 
   1   1   7  121.44    8.33 
  -1   1  -7  123.95    8.16 
   2  -1   7    5.77    0.48 
  -2  -1  -7    6.90    0.42 
   2  -1   7    6.76    0.45 
   2  -1   7    7.06    0.56 
   2  -1   7    6.04    0.45 
   2   1   7    5.80    0.47 
  -2   1  -7    6.98    0.42 
   2   1   7    5.96    0.45 
  -2   1  -7    6.05    0.47 
   2   1   7    6.65    0.52 
   3  -1   7    5.75    0.41 
   3  -1   7    5.64    0.50 
   3  -1   7    4.92    0.41 
  -3  -1  -7    5.58    0.37 
   3   1   7    5.61    0.49 
  -3   1  -7    5.26    0.37 
  -3   1  -7    4.77    0.41 
   3   1   7    4.86    0.44 
   3   1   7    5.27    0.42 
   4  -1   7   10.37    0.62 
   4  -1   7    9.58    0.69 
  -4  -1  -7   10.04    0.80 
  -4  -1  -7    9.51    0.63 
   4  -1   7    9.96    0.70 
   4  -1   7    9.70    0.82 
   4   1   7    9.73    0.56 
   4   1   7    8.53    0.71 
   4   1   7   10.32    0.83 
  -4   1  -7   10.05    0.64 
   4   1   7   10.77    0.72 
   5  -1   7    5.92    0.41 
   5  -1   7    5.46    0.47 
   5  -1   7    6.08    0.36 
   5   1   7    6.09    0.47 
   5   1   7    5.78    0.46 
  -5   1  -7    5.99    0.40 
   5   1   7    5.58    0.37 
   6  -1   7    0.46    0.08 
   6  -1   7    0.31    0.11 
   6   1   7    0.57    0.09 
   6   1   7    0.26    0.10 
   6  -2  -7    1.39    1.16 
   6  -2  -7    0.49    0.08 
   5  -2  -7    0.06    0.09 
   5  -2  -7    0.09    0.09 
   5  -2  -7    0.09    0.87 
   5  -2  -7    0.12    0.08 
   5   2  -7   -0.02    0.88 
   5   2  -7    0.02    0.06 
   4  -2  -7    0.11    0.11 
   4  -2  -7    0.16    0.11 
   4  -2  -7    0.02    0.10 
  -4   2   7    0.06    0.09 
   4   2  -7    0.07    0.08 
   4   2  -7    0.07    0.05 
   3  -2  -7    6.93    0.52 
   3  -2  -7    6.51    0.59 
   3  -2  -7    7.42    0.61 
   3   2  -7    8.45    0.58 
  -3   2   7    8.17    0.61 
   2  -2  -7   30.50    1.88 
   2  -2  -7   28.47    1.69 
   2  -2  -7   24.53    1.87 
   2   2  -7   30.20    1.87 
  -2   2   7   29.87    1.88 
   2   2  -7   27.40    1.83 
   1  -2  -7  116.64    8.30 
  -1  -2   7  134.83    8.34 
   1  -2  -7  135.03    8.21 
   1  -2  -7  131.02    7.50 
   1   2  -7  128.65    8.31 
  -1   2   7  135.22    8.31 
   1   2  -7  144.37    8.18 
   0  -2   7   47.56    3.20 
   0  -2  -7   47.30    2.87 
   0   2  -7   50.84    3.17 
   0   2  -7   54.71    3.15 
   1  -2   7   11.36    0.84 
   1  -2   7   12.11    0.78 
   1  -2   7   12.32    0.71 
  -1  -2  -7   13.23    0.83 
  -1  -2  -7   11.98    0.70 
   1   2   7    9.15    0.81 
  -1   2  -7    9.37    0.77 
  -2  -2  -7   28.02    1.66 
  -2  -2  -7   30.81    1.95 
   2  -2   7   26.88    1.73 
   2  -2   7   28.97    1.68 
   2  -2   7   27.02    1.98 
  -2   2  -7   28.89    1.84 
   2   2   7   30.35    1.96 
  -2   2  -7   29.02    1.65 
   2   2   7   26.16    1.73 
   3  -2   7    1.65    0.20 
   3  -2   7    1.62    0.27 
   3  -2   7    1.74    0.21 
  -3  -2  -7    1.79    0.18 
   3  -2   7    1.72    0.21 
  -3  -2  -7    1.87    0.25 
  -3   2  -7    1.88    0.22 
   3   2   7    2.00    0.27 
  -3   2  -7    2.15    0.19 
   3   2   7    1.91    0.22 
   4  -2   7    3.43    0.32 
   4  -2   7    3.81    0.42 
  -4  -2  -7    3.55    0.28 
   4  -2   7    3.74    0.33 
   4  -2   7    4.14    0.30 
  -4  -2  -7    3.50    0.40 
   4   2   7    3.05    0.32 
   4   2   7    3.32    0.29 
  -4   2  -7    3.20    0.33 
  -4   2  -7    3.46    0.29 
   4   2   7    3.40    0.41 
   5  -2   7    0.53    0.10 
   5  -2   7    0.35    0.09 
   5  -2   7    0.63    0.17 
   5   2   7    0.49    0.16 
   5   2   7    0.33    0.10 
   5   2   7    0.37    0.11 
   5   2   7    0.37    0.10 
   6  -2   7    0.49    0.08 
   6  -2   7    0.57    0.13 
   6   2   7    0.53    0.09 
   6  -3  -7    3.80    1.63 
   6  -3  -7    0.99    0.11 
   6   3  -7    0.94    0.11 
   5  -3  -7    2.39    0.29 
   5  -3  -7    2.60    0.21 
   5  -3  -7    2.61    0.29 
   5   3  -7    2.24    0.19 
   5   3  -7    0.73    1.10 
   4  -3  -7    0.23    0.12 
   4  -3  -7    0.21    0.11 
   4  -3  -7    0.32    0.11 
   4  -3  -7    0.43    0.14 
   4  -3  -7    0.17    0.12 
  -4   3   7    0.16    0.12 
   4   3  -7    0.24    0.11 
   4   3  -7    0.14    0.06 
   4   3  -7    0.44    0.08 
  -3  -3   7    2.01    0.24 
   3  -3  -7    1.39    0.20 
   3  -3  -7    2.06    0.24 
   3  -3  -7    1.37    0.22 
   3  -3  -7    1.17    0.22 
   3   3  -7    1.17    0.14 
   3   3  -7    1.26    0.18 
  -3   3   7    1.06    0.22 
   2  -3  -7   11.81    0.86 
  -2  -3   7   11.22    0.81 
   2  -3  -7   12.20    0.77 
  -2   3   7   11.16    0.85 
   2   3  -7   12.09    0.85 
   2   3  -7   11.97    0.74 
   1  -3  -7    1.26    0.16 
   1   3  -7    1.14    0.15 
  -1   3   7    1.14    0.16 
   1   3  -7    1.23    0.15 
   0  -3   7   27.15    1.85 
   0  -3   7   27.79    1.76 
   0  -3  -7   31.54    1.69 
   0   3   7   25.69    1.86 
   0   3  -7   27.82    1.83 
   0   3  -7   30.81    1.84 
   1  -3   7   23.71    1.75 
  -1  -3  -7   25.41    1.74 
   1  -3   7   24.32    1.55 
  -1  -3  -7   25.32    1.50 
  -1   3  -7   27.90    1.66 
   2  -3   7    0.68    0.19 
  -2  -3  -7    0.98    0.13 
  -2  -3  -7    1.04    0.20 
   2  -3   7    0.99    0.15 
   2  -3   7    1.07    0.15 
  -2   3  -7    0.86    0.15 
   2   3   7    0.93    0.16 
  -2   3  -7    0.83    0.12 
   2   3   7    0.83    0.19 
   3  -3   7    6.18    0.41 
  -3  -3  -7    6.57    0.57 
   3  -3   7    5.20    0.57 
   3  -3   7    6.09    0.44 
  -3  -3  -7    6.18    0.42 
   3  -3   7    5.49    0.45 
   3   3   7    5.97    0.57 
  -3   3  -7    5.50    0.40 
  -3   3  -7    5.92    0.48 
   3   3   7    5.70    0.46 
   4  -3   7    5.31    0.42 
   4  -3   7    5.98    0.44 
   4  -3   7    5.87    0.38 
   4  -3   7    5.36    0.34 
   4   3   7    4.89    0.43 
  -4   3  -7    4.93    0.44 
   4   3   7    4.27    0.34 
   4   3   7    4.95    0.36 
   4   3   7    5.13    0.44 
  -4   3  -7    5.25    0.38 
   5  -3   7    0.82    0.18 
   5  -3   7    1.34    0.16 
   5  -3   7    1.36    0.14 
   5   3   7    1.30    0.21 
   5   3   7    1.47    0.18 
   5   3   7    1.43    0.17 
   5   3   7    1.27    0.18 
   6  -3   7    0.43    0.11 
   6   3   7    0.53    0.08 
   6  -4  -7    0.40    0.07 
   6  -4  -7    1.61    1.03 
   6   4  -7    0.24    0.06 
   5  -4  -7    1.12    1.25 
   5  -4  -7    0.47    0.10 
   5  -4  -7    0.67    0.14 
   5   4  -7    0.33    0.08 
   5   4  -7    0.36    0.07 
   4  -4  -7    2.08    1.67 
   4  -4  -7    0.97    0.19 
  -4  -4   7    0.76    0.18 
   4  -4  -7    0.72    0.18 
   4  -4  -7    0.74    0.13 
   4  -4  -7    0.75    0.17 
   4   4  -7   -0.15    0.86 
   4   4  -7    0.65    0.10 
   4   4  -7    0.77    0.11 
   4   4  -7    0.79    0.10 
   3  -4  -7   -0.06    0.08 
   3  -4  -7    0.00    0.10 
  -3  -4   7   -0.01    0.07 
   3  -4  -7    0.01    0.08 
   3   4  -7    0.03    0.05 
   3   4  -7    0.07    0.05 
   3   4  -7    0.05    0.08 
  -3   4   7    0.04    0.09 
   3   4  -7    0.00    0.04 
   2  -4  -7    2.11    0.27 
   2  -4  -7    2.13    0.25 
  -2  -4   7    2.43    0.28 
  -2   4   7    2.39    0.28 
   2   4  -7    2.53    0.27 
   2   4  -7    2.73    0.21 
   1  -4  -7    2.46    0.25 
  -1  -4   7    2.24    0.27 
   1   4  -7    2.51    0.25 
  -1   4   7    2.49    0.26 
   0  -4  -7   14.85    0.90 
   0  -4   7   13.78    0.96 
   0   4  -7   13.69    0.96 
  -1  -4  -7   25.56    1.61 
   1  -4   7   25.36    1.86 
  -1  -4  -7   27.21    1.87 
   1  -4   7   26.98    1.67 
  -1   4  -7   29.34    1.77 
   2  -4   7    4.35    0.48 
  -2  -4  -7    4.90    0.37 
   2  -4   7    4.64    0.34 
  -2  -4  -7    4.83    0.48 
   2  -4   7    4.60    0.38 
  -2   4  -7    5.51    0.42 
  -3  -4  -7    7.28    0.62 
   3  -4   7    6.45    0.45 
   3  -4   7    6.09    0.62 
   3  -4   7    6.94    0.42 
   3   4   7    5.21    0.39 
   3   4   7    4.97    0.46 
  -3   4  -7    5.36    0.48 
   3   4   7    5.10    0.36 
   4  -4   7    1.31    0.18 
   4  -4   7    1.07    0.15 
   4  -4   7    1.08    0.11 
   4  -4   7    0.96    0.19 
   4   4   7    0.86    0.17 
   4   4   7    1.03    0.16 
   4   4   7    0.89    0.15 
   4   4   7    1.05    0.21 
   5  -4   7    0.77    0.17 
   5  -4   7    0.86    0.12 
   5  -4   7    0.79    0.08 
   5  -4   7    0.74    0.10 
   5   4   7    0.95    0.14 
   5   4   7    0.80    0.12 
  -5   4  -7    0.80    0.10 
   6  -4   7    0.78    0.13 
   6   4   7    0.82    0.09 
   5  -5  -7    0.74    0.13 
   5  -5  -7    0.88    0.11 
   5  -5  -7    2.46    1.56 
   5   5  -7    0.75    0.08 
   5   5  -7    0.51    0.08 
  -4  -5   7    0.39    0.13 
   4  -5  -7    0.21    0.11 
   4  -5  -7    0.43    0.14 
   4  -5  -7    0.42    0.10 
   4  -5  -7    1.09    1.36 
   4   5  -7    0.34    0.07 
   4   5  -7    0.23    0.07 
   4   5  -7    0.09    0.84 
   4   5  -7    0.22    0.06 
  -3  -5   7    3.96    0.40 
   3  -5  -7    3.56    0.38 
   3  -5  -7    3.47    0.35 
   3  -5  -7    3.70    0.39 
   3   5  -7    3.85    0.23 
   3   5  -7    4.06    0.30 
  -3   5   7    3.10    0.38 
   3   5  -7    4.31    0.25 
   3   5  -7    3.62    0.36 
   2  -5  -7    6.30    0.50 
  -2  -5   7    6.31    0.54 
   2  -5  -7    7.46    0.52 
   2   5  -7    5.70    0.53 
  -2   5   7    5.70    0.54 
   2   5  -7    6.79    0.45 
   1  -5  -7    1.14    0.19 
  -1  -5   7    0.77    0.19 
   1   5  -7    1.15    0.17 
   0  -5  -7   21.34    1.37 
   0  -5   7   22.35    1.45 
   0   5  -7   22.95    1.49 
  -1  -5  -7   14.15    1.04 
  -1  -5  -7   11.70    0.85 
   1  -5   7   14.23    0.90 
  -1   5  -7   12.97    0.93 
   2  -5   7    8.39    0.78 
  -2  -5  -7    8.80    0.77 
  -2   5  -7    9.56    0.68 
   2   5   7    8.79    0.53 
   3  -5   7    2.90    0.18 
   3  -5   7    2.92    0.24 
  -3  -5  -7    2.85    0.25 
   3  -5   7    3.28    0.26 
   3   5   7    2.43    0.27 
   3   5   7    2.38    0.24 
   3   5   7    3.09    0.24 
   3   5   7    2.66    0.30 
  -3   5  -7    2.80    0.30 
   3   5   7    2.70    0.26 
  -3   5  -7    2.87    0.21 
   4  -5   7    8.00    0.49 
   4  -5   7    8.06    0.52 
   4  -5   7    7.80    0.44 
   4  -5   7    8.04    0.38 
  -4  -5  -7    7.16    0.46 
   4   5   7    8.19    0.46 
  -4   5  -7    8.00    0.41 
   4   5   7    6.46    0.55 
   4   5   7    8.52    0.53 
   4   5   7    7.16    0.46 
   5  -5   7    0.76    0.07 
   5  -5   7    0.86    0.16 
   5  -5   7    0.54    0.09 
   5   5   7    0.72    0.10 
  -5   5  -7    0.62    0.08 
   5   5   7    0.82    0.12 
  -5   5  -7    0.70    0.09 
   5  -6  -7    0.17    0.05 
   5  -6  -7    0.66    0.88 
   5   6  -7    0.19    0.04 
   5   6  -7    0.26    0.06 
   4  -6  -7    1.58    0.23 
  -4  -6   7    1.42    0.22 
   4  -6  -7    1.71    0.17 
   4  -6  -7    1.38    0.15 
   4  -6  -7    5.44    2.26 
   4   6  -7    1.56    0.16 
   4   6  -7    1.66    0.13 
   4   6  -7    1.70    0.14 
   3  -6  -7    1.71    0.23 
   3  -6  -7    1.38    0.19 
   3  -6  -7    4.53    2.32 
  -3  -6   7    1.42    0.26 
   3   6  -7    1.26    0.12 
   3   6  -7    1.16    0.14 
   3   6  -7    0.16    0.94 
   3   6  -7    1.23    0.12 
   2  -6  -7   13.55    0.89 
  -2  -6   7   12.73    0.74 
   2  -6  -7   12.21    0.70 
  -2  -6   7   12.99    0.94 
   2   6  -7   12.09    0.66 
   2   6  -7   13.15    0.62 
   1  -6  -7    4.04    0.37 
  -1  -6   7    3.83    0.41 
  -1   6   7    4.25    0.31 
   1   6  -7    3.95    0.37 
   0  -6   7    2.15    0.27 
   0  -6  -7    2.15    0.25 
   0   6   7    1.77    0.20 
   0   6  -7    2.07    0.23 
  -1  -6  -7    0.56    0.18 
   1  -6   7    0.35    0.10 
   2  -6   7    0.14    0.09 
  -2  -6  -7    0.40    0.12 
   2  -6   7    0.20    0.06 
  -2   6  -7    0.39    0.12 
  -2   6  -7    0.34    0.09 
   2   6   7    0.40    0.10 
   2   6   7    0.28    0.15 
   3  -6   7    4.39    0.31 
   3  -6   7    4.80    0.26 
  -3  -6  -7    4.42    0.33 
  -3   6  -7    5.20    0.29 
   3   6   7    5.15    0.39 
   3   6   7    5.22    0.33 
  -3   6  -7    4.54    0.42 
   4  -6   7    2.58    0.22 
   4  -6   7    2.52    0.16 
   4  -6   7    2.45    0.18 
  -4   6  -7    2.70    0.21 
   4   6   7    2.65    0.21 
  -4   6  -7    2.58    0.18 
   4   6   7    2.56    0.19 
   4   6   7    2.57    0.21 
   5  -6   7    0.50    0.11 
   5  -6   7    0.52    0.06 
   5   6   7    0.72    0.09 
  -5   6  -7    0.40    0.06 
   4  -7  -7    0.61    0.11 
   4  -7  -7    1.60    1.26 
   4   7  -7    0.59    0.07 
   4   7  -7    0.43    0.07 
   3  -7  -7    3.15    0.24 
  -3  -7   7    2.65    0.25 
  -3  -7   7    2.89    0.32 
   3   7  -7    3.05    0.18 
   3   7  -7    2.60    0.19 
  -2  -7   7    0.43    0.14 
   2  -7  -7    0.64    0.12 
  -2  -7   7    0.51    0.14 
   2   7  -7    0.58    0.09 
   2   7  -7    0.29    0.94 
  -1  -7   7   13.09    1.00 
   1  -7  -7   14.10    0.77 
  -1  -7   7   14.83    0.82 
   1   7  -7   14.43    0.72 
   0  -7  -7    0.68    0.14 
   0  -7   7    0.49    0.15 
   0  -7   7    0.52    0.14 
   0   7  -7    0.23    0.84 
   0   7   7    0.70    0.14 
   1  -7   7    1.98    0.24 
  -1  -7  -7    1.58    0.19 
   1   7   7    2.36    0.21 
  -2  -7  -7    0.51    0.12 
   2  -7   7    0.66    0.09 
   2  -7   7    0.47    0.11 
   2   7   7    0.82    0.14 
   2   7   7    1.00    0.19 
  -2   7  -7    0.03    0.75 
  -2   7  -7    0.65    0.10 
   3  -7   7    4.54    0.29 
   3  -7   7    4.56    0.25 
  -3   7  -7    4.71    0.27 
   3   7   7    4.86    0.31 
   4  -7   7    0.14    0.04 
  -4   7  -7    0.17    0.05 
   4   7   7    0.21    0.06 
   4   7   7    0.16    0.05 
   4  -8  -7    1.96    0.92 
   4  -8  -7    0.67    0.09 
  -4   8   7    0.59    0.64 
  -3  -8   7    0.00    0.06 
   3  -8  -7   -0.13    0.75 
   3  -8  -7   -0.06    0.05 
   3   8  -7   -0.03    0.63 
   3   8  -7   -0.02    0.03 
  -3   8   7   -0.03    0.69 
   2  -8  -7    3.60    0.27 
  -2  -8   7    3.70    0.30 
   2   8  -7    4.06    0.23 
   1  -8  -7    2.37    0.21 
  -1  -8   7    2.70    0.29 
  -1  -8   7    2.25    0.25 
   0  -8   7    1.34    0.20 
   0  -8  -7    1.48    0.16 
   0   8   7    1.65    0.16 
  -1  -8  -7    0.24    0.08 
   1  -8   7    0.47    0.12 
   1   8   7    0.37    0.10 
  -1   8  -7    0.07    0.71 
   2  -8   7    1.55    0.15 
  -2  -8  -7    0.99    0.13 
   2   8   7    1.50    0.14 
   3  -8   7    0.19    0.06 
   3  -8   7    0.28    0.05 
   3   8   7    0.25    0.07 
  -3   8  -7    0.29    0.05 
  -2  -9   7    0.22    0.08 
   2  -9  -7    0.24    0.07 
   2   9  -7    0.04    0.57 
  -1  -9   7    2.67    0.22 
   1  -9  -7    2.24    0.18 
   0  -9   7    0.22    0.08 
   0  -9  -7    0.18    0.07 
   0   9  -7   -0.09    0.53 
  -1  -9  -7    0.75    0.11 
   1  -9   7    1.06    0.12 
   1   9   7    0.80    0.09 
  -1   9  -7    0.08    0.57 
  -2   9  -7   -0.03    0.45 
   6   0  -8    2.55    1.41 
   5   0  -8    6.68    2.54 
   5   0  -8    4.09    0.28 
   5   0  -8    3.43    0.27 
   4   0  -8   12.52    0.70 
   4   0  -8   13.04    0.95 
   4   0  -8   13.18    0.96 
   3   0  -8    6.61    0.52 
   3   0  -8    6.22    0.53 
   2   0  -8    3.79    0.29 
   2   0  -8    3.56    0.31 
  -2   0   8    2.59    0.27 
   1   0  -8   19.10    1.20 
   1   0  -8   19.08    1.20 
  -1   0   8   16.48    1.20 
   0   0  -8   66.54    4.04 
   0   0   8   74.93    4.52 
   0   0  -8   72.09    4.43 
  -1   0  -8  136.03    7.59 
  -1   0  -8  132.54    8.30 
   2   0   8   15.42    1.04 
   2   0   8   15.81    1.04 
  -2   0  -8   17.07    0.98 
   2   0   8   16.69    1.16 
   3   0   8   23.00    1.39 
  -3   0  -8   20.29    1.22 
   3   0   8   24.19    1.56 
   3   0   8   20.58    1.37 
  -3   0  -8   22.60    1.30 
   3   0   8   20.37    1.24 
   4   0   8   25.40    1.77 
  -4   0  -8   27.84    1.59 
   4   0   8   30.88    1.81 
  -4   0  -8   29.09    1.70 
   4   0   8   30.02    2.02 
   5   0   8    0.29    0.14 
   5   0   8    0.37    0.09 
   5   0   8    0.27    0.10 
   6   0   8    0.72    0.13 
   6   0   8    1.15    0.11 
   6  -1  -8    1.24    1.10 
   6   1  -8    1.49    1.12 
   5  -1  -8    7.55    0.42 
   5  -1  -8    6.67    0.59 
   5   1  -8    7.02    0.43 
   5   1  -8    7.04    2.40 
   4  -1  -8   21.69    1.52 
   4  -1  -8   22.85    1.53 
   4  -1  -8   20.71    1.13 
   4  -1  -8   21.72    1.31 
   4   1  -8   21.28    1.12 
  -4   1   8   23.34    1.54 
   3  -1  -8    7.36    0.57 
   3  -1  -8    6.54    0.52 
   3   1  -8    6.35    0.51 
   3   1  -8    6.02    0.53 
   2  -1  -8    7.78    0.59 
   2  -1  -8    7.15    0.60 
   2   1  -8    8.54    0.58 
   2   1  -8    8.36    0.60 
  -1  -1   8   28.45    2.16 
   1  -1  -8   31.67    2.14 
   1  -1  -8   33.30    1.95 
   1  -1  -8   37.43    2.16 
   1   1  -8   33.93    2.13 
   1   1  -8   33.49    2.15 
  -1   1   8   36.00    2.16 
   0  -1   8   12.38    0.93 
   0  -1  -8   14.03    0.84 
   0  -1  -8   13.30    0.92 
   0   1  -8   15.56    0.93 
   0   1   8   13.93    0.94 
  -1  -1  -8    9.56    0.53 
   1  -1   8    8.94    0.58 
   1  -1   8    9.00    0.61 
  -1   1  -8    7.46    0.60 
  -1   1  -8    7.49    0.52 
   2  -1   8   41.64    2.41 
  -2  -1  -8   43.69    2.71 
   2  -1   8   40.85    2.45 
  -2  -1  -8   43.70    2.36 
   2  -1   8   41.44    2.75 
  -2   1  -8   39.84    2.35 
   2   1   8   39.52    2.72 
  -2   1  -8   36.21    2.59 
   3  -1   8   21.82    1.62 
  -3  -1  -8   23.20    1.60 
   3  -1   8   23.60    1.42 
   3  -1   8   23.29    1.44 
   3  -1   8   22.95    1.30 
  -3  -1  -8   22.99    1.36 
   3   1   8   21.49    1.44 
  -3   1  -8   24.56    1.36 
  -3   1  -8   21.53    1.51 
  -3   1  -8   22.88    1.29 
   3   1   8   23.08    1.62 
   4  -1   8    4.17    0.36 
   4  -1   8    4.53    0.34 
  -4  -1  -8    4.18    0.31 
   4  -1   8    4.13    0.39 
  -4  -1  -8    3.96    0.41 
   4  -1   8    4.44    0.44 
  -4   1  -8    3.84    0.31 
   4   1   8    3.64    0.36 
   4   1   8    3.69    0.31 
  -4   1  -8    3.66    0.31 
   4   1   8    4.15    0.44 
   5  -1   8    2.52    0.30 
   5  -1   8    2.79    0.21 
   5   1   8    2.33    0.26 
  -5   1  -8    2.38    0.22 
   5   1   8    2.58    0.28 
   5   1   8    2.76    0.21 
   6  -1   8    0.11    0.09 
   6  -1   8    0.14    0.05 
   6   1   8    0.07    0.08 
   6   1   8    0.09    0.05 
   6  -2  -8    4.63    1.74 
   6  -2  -8    1.63    0.14 
   5  -2  -8    0.16    0.11 
   5  -2  -8    0.17    0.92 
   5  -2  -8    0.07    0.08 
   5  -2  -8    0.14    0.10 
   5   2  -8    0.11    0.88 
   5   2  -8    0.05    0.06 
   4  -2  -8   10.61    0.57 
   4  -2  -8   10.86    0.72 
   4  -2  -8   11.67    0.83 
   4  -2  -8    9.44    0.79 
   4   2  -8   10.26    0.57 
   4   2  -8   10.19    0.78 
  -4   2   8    9.66    0.81 
   3  -2  -8    1.98    0.26 
   3  -2  -8    1.82    0.24 
   3  -2  -8    1.90    0.25 
  -3   2   8    2.19    0.25 
   3   2  -8    2.05    0.22 
   2  -2  -8    7.09    0.56 
   2  -2  -8    7.71    0.54 
   2  -2  -8    6.57    0.48 
  -2  -2   8    6.39    0.51 
   2   2  -8    6.33    0.51 
  -2   2   8    6.71    0.53 
   2   2  -8    6.78    0.52 
   1  -2  -8    5.93    0.54 
   1  -2  -8    7.32    0.53 
   1  -2  -8    6.68    0.49 
   1   2  -8    8.44    0.53 
   1   2  -8    7.81    0.54 
   0  -2   8    2.95    0.27 
   0  -2  -8    3.65    0.26 
   0   2  -8    3.20    0.28 
   1  -2   8    6.21    0.42 
  -1  -2  -8    6.15    0.39 
  -1   2  -8    4.57    0.43 
   2  -2   8    1.88    0.20 
  -2  -2  -8    1.76    0.17 
   2  -2   8    1.60    0.18 
  -2  -2  -8    1.69    0.21 
   2  -2   8    1.56    0.23 
  -2   2  -8    1.26    0.14 
  -2   2  -8    1.36    0.19 
   2   2   8    1.39    0.21 
   2   2   8    1.24    0.20 
   3  -2   8   32.99    1.92 
   3  -2   8   29.81    2.22 
  -3  -2  -8   31.37    1.86 
   3  -2   8   32.77    1.78 
   3  -2   8   33.11    1.96 
  -3  -2  -8   32.50    2.20 
   3   2   8   27.89    1.95 
  -3   2  -8   32.04    1.86 
  -3   2  -8   32.41    2.07 
   3   2   8   32.95    2.22 
   4  -2   8    2.00    0.26 
  -4  -2  -8    1.92    0.20 
   4  -2   8    1.84    0.18 
   4  -2   8    1.40    0.25 
   4  -2   8    1.67    0.22 
   4  -2   8    2.12    0.23 
   4   2   8    1.83    0.23 
   4   2   8    2.04    0.29 
  -4   2  -8    2.09    0.21 
   4   2   8    1.83    0.19 
   4   2   8    2.15    0.24 
   5  -2   8    0.27    0.08 
   5  -2   8    0.14    0.12 
   5  -2   8    0.14    0.08 
   5   2   8    0.17    0.08 
   5   2   8    0.11    0.09 
   5   2   8    0.15    0.11 
   5   2   8    0.27    0.10 
  -5   2  -8    0.10    0.06 
   6  -2   8    0.59    0.12 
   6  -2   8    0.82    0.09 
   6   2   8    0.85    0.10 
   6   2   8    0.56    0.11 
   6  -3  -8    0.49    0.79 
   5  -3  -8    1.95    0.25 
   5  -3  -8    1.76    0.18 
   5   3  -8    1.35    1.24 
   5   3  -8    1.48    0.15 
   4  -3  -8    4.01    0.39 
   4  -3  -8    3.00    0.26 
   4  -3  -8    3.36    0.37 
   4   3  -8    3.27    0.23 
   4   3  -8    3.04    0.20 
   3  -3  -8   26.67    1.89 
   3  -3  -8   27.14    1.63 
   3  -3  -8   28.89    1.90 
   3  -3  -8   26.90    1.70 
  -3  -3   8   29.46    1.79 
   3   3  -8   28.10    1.86 
   3   3  -8   27.37    1.68 
  -3   3   8   29.02    1.92 
  -2  -3   8    5.02    0.44 
   2  -3  -8    5.02    0.40 
   2  -3  -8    4.87    0.44 
   2  -3  -8    5.25    0.46 
   2   3  -8    5.15    0.43 
  -2   3   8    4.86    0.44 
   2   3  -8    5.53    0.36 
  -1  -3   8   10.24    0.77 
   1  -3  -8   10.00    0.79 
   1  -3  -8   10.77    0.72 
   1   3  -8   13.12    0.81 
   0  -3  -8   74.31    4.01 
   0  -3   8   65.65    4.13 
   0   3  -8   69.08    4.42 
   1  -3   8   11.47    0.77 
  -1  -3  -8   12.31    0.74 
  -1   3  -8   10.88    0.82 
   2  -3   8    0.34    0.14 
   2  -3   8    0.35    0.10 
  -2  -3  -8    0.48    0.11 
  -2  -3  -8    0.42    0.14 
   2   3   8    0.66    0.17 
   2   3   8    0.56    0.13 
  -2   3  -8    0.49    0.12 
   3  -3   8    7.22    0.74 
  -3  -3  -8    8.23    0.73 
   3  -3   8    8.64    0.55 
   3  -3   8    8.21    0.60 
  -3  -3  -8    8.24    0.57 
   3  -3   8    7.88    0.61 
  -3   3  -8    9.17    0.56 
   3   3   8   10.06    0.77 
   3   3   8    8.60    0.52 
  -3   3  -8    9.71    0.67 
   3   3   8    8.07    0.62 
   4  -3   8    1.57    0.26 
   4  -3   8    2.31    0.23 
   4  -3   8    2.14    0.26 
   4  -3   8    2.06    0.19 
   4   3   8    2.47    0.29 
   4   3   8    2.10    0.25 
  -4   3  -8    2.13    0.21 
   4   3   8    2.12    0.24 
  -4   3  -8    1.95    0.24 
   4   3   8    2.06    0.21 
   5  -3   8    1.17    0.16 
   5  -3   8    1.38    0.13 
   5  -3   8    1.03    0.19 
   5   3   8    1.28    0.15 
   5   3   8    1.25    0.19 
   5   3   8    1.35    0.15 
  -5   3  -8    1.20    0.13 
   5   3   8    1.31    0.17 
   6  -3   8    0.13    0.08 
   6   3   8    0.16    0.05 
   6  -4  -8    2.23    1.09 
   5  -4  -8    0.62    0.14 
   5  -4  -8    0.75    0.11 
   5  -4  -8    2.71    1.61 
   5   4  -8    0.21    0.81 
   5   4  -8    0.44    0.09 
   5   4  -8    0.45    0.07 
   4  -4  -8   -0.09    0.91 
   4  -4  -8   -0.02    0.07 
   4  -4  -8    0.09    0.09 
   4  -4  -8    0.03    0.10 
   4   4  -8    0.00    0.84 
   4   4  -8    0.03    0.05 
   4   4  -8    0.02    0.05 
   3  -4  -8   21.21    1.27 
  -3  -4   8   21.65    1.40 
   3  -4  -8   21.34    1.47 
   3  -4  -8   20.83    1.32 
   3   4  -8   22.07    1.06 
   3   4  -8   20.19    1.27 
   3   4  -8   19.87    1.42 
   3   4  -8   20.74    0.97 
  -3   4   8   18.77    1.46 
  -2  -4   8   12.38    0.88 
   2  -4  -8   11.80    0.80 
   2  -4  -8   11.28    0.89 
   2  -4  -8   12.58    0.82 
   2   4  -8   12.56    0.78 
   2   4  -8   12.21    0.89 
  -2   4   8   12.09    0.91 
   1  -4  -8    0.17    0.10 
  -1  -4   8    0.33    0.12 
   1   4  -8    0.13    0.08 
   0  -4   8   15.09    1.10 
   0  -4  -8   16.99    1.06 
   0   4  -8   17.91    1.14 
   1  -4   8   10.71    0.75 
  -1  -4  -8   10.59    0.73 
  -1   4  -8   11.86    0.81 
   2  -4   8    7.63    0.49 
   2  -4   8    7.92    0.55 
   2  -4   8    6.30    0.66 
  -2  -4  -8    8.43    0.67 
  -2  -4  -8    8.28    0.54 
  -2   4  -8    6.78    0.47 
  -2   4  -8    7.33    0.59 
   3  -4   8    7.06    0.36 
  -3  -4  -8    7.07    0.66 
   3  -4   8    6.34    0.67 
   3  -4   8    7.54    0.47 
   3   4   8    5.85    0.52 
  -3   4  -8    7.48    0.39 
  -3   4  -8    7.44    0.57 
   3   4   8    7.21    0.45 
   4  -4   8    2.78    0.29 
   4  -4   8    2.42    0.20 
   4  -4   8    2.10    0.15 
   4  -4   8    2.53    0.23 
   4   4   8    2.14    0.25 
  -4   4  -8    2.37    0.19 
   4   4   8    2.75    0.28 
   4   4   8    2.24    0.24 
   4   4   8    2.32    0.22 
   5  -4   8    0.50    0.09 
   5  -4   8    0.75    0.10 
   5  -4   8    0.59    0.14 
   5   4   8    0.79    0.11 
  -5   4  -8    0.61    0.09 
   5   4   8    0.89    0.12 
   5   4   8    1.22    0.17 
   5  -5  -8    2.08    1.34 
   5  -5  -8    0.60    0.12 
   5  -5  -8    0.59    0.09 
   5   5  -8    0.47    0.08 
   5   5  -8    0.52    0.06 
   4  -5  -8    1.14    0.15 
  -4  -5   8    1.35    0.24 
   4  -5  -8    4.22    2.09 
   4  -5  -8    1.46    0.22 
   4   5  -8    1.57    0.14 
   4   5  -8    0.07    0.88 
   4   5  -8    1.51    0.12 
   3  -5  -8    5.19    0.45 
   3  -5  -8    3.96    0.44 
   3  -5  -8    4.65    0.42 
  -3  -5   8    4.88    0.46 
   3   5  -8    4.93    0.36 
   3   5  -8    5.18    0.30 
   3   5  -8    4.80    0.27 
   2  -5  -8   16.42    0.98 
   2  -5  -8   15.41    1.01 
  -2  -5   8   16.40    1.09 
   2   5  -8   14.70    0.72 
   2   5  -8   14.21    1.09 
  -2   5   8   14.62    1.12 
  -1  -5   8   11.35    0.80 
   1  -5  -8   10.93    0.73 
  -1   5   8    8.91    0.59 
   1   5  -8   10.16    0.77 
   0  -5  -8    6.59    0.54 
   0  -5   8    7.73    0.60 
   0   5  -8    7.92    0.57 
   1  -5   8    1.23    0.18 
  -1  -5  -8    1.28    0.21 
   1   5   8    1.48    0.18 
  -1   5  -8    1.49    0.21 
   2  -5   8    4.78    0.39 
   2  -5   8    4.43    0.26 
  -2  -5  -8    5.48    0.51 
   2  -5   8    4.31    0.51 
  -2   5  -8    4.83    0.29 
  -2   5  -8    5.23    0.44 
   2   5   8    4.62    0.33 
  -3  -5  -8    3.18    0.25 
   3  -5   8    3.24    0.26 
   3  -5   8    2.90    0.17 
   3  -5   8    2.88    0.23 
   3   5   8    2.28    0.25 
  -3   5  -8    2.22    0.27 
  -3   5  -8    2.30    0.24 
   3   5   8    2.24    0.21 
  -3   5  -8    2.24    0.20 
   3   5   8    2.57    0.28 
   4  -5   8    0.34    0.08 
   4  -5   8    0.40    0.06 
  -4  -5  -8    0.38    0.09 
   4  -5   8    0.32    0.09 
   4   5   8    0.31    0.10 
  -4   5  -8    0.38    0.08 
   4   5   8    0.35    0.11 
  -4   5  -8    0.31    0.08 
   4   5   8    0.41    0.10 
   4   5   8    0.45    0.13 
   5  -5   8    0.36    0.05 
   5  -5   8    0.39    0.11 
   5   5   8    0.43    0.08 
  -5   5  -8    0.29    0.06 
   5   5   8    0.36    0.08 
   5  -6  -8    0.16    0.05 
   5  -6  -8    0.51    0.71 
   5   6  -8    0.11    0.04 
   5   6  -8    0.12    0.04 
   4  -6  -8    1.99    1.43 
   4  -6  -8    0.82    0.13 
   4  -6  -8    0.76    0.15 
   4  -6  -8    0.42    0.09 
   4   6  -8    0.51    0.08 
   4   6  -8    0.05    0.73 
   4   6  -8    0.75    0.08 
  -3  -6   8    4.65    0.46 
   3  -6  -8    4.85    0.43 
   3  -6  -8    4.71    0.33 
   3   6  -8    5.18    0.30 
   3   6  -8    5.20    0.27 
  -2  -6   8    7.48    0.48 
   2  -6  -8    7.10    0.56 
   2  -6  -8    7.12    0.44 
  -2  -6   8    7.68    0.62 
   2   6  -8    6.83    0.37 
  -1  -6   8   12.42    0.89 
   1  -6  -8   13.02    0.84 
  -1   6   8   11.19    0.68 
   1   6  -8   11.18    0.88 
   0  -6  -8    1.62    0.23 
   0  -6   8    2.32    0.27 
   0   6   8    1.60    0.19 
   0   6  -8    1.80    0.22 
   1  -6   8    4.38    0.37 
   1  -6   8    4.37    0.25 
   1  -6   8    4.38    0.35 
  -1  -6  -8    4.80    0.33 
   1   6   8    4.23    0.32 
   1   6   8    3.86    0.36 
  -1   6  -8    4.55    0.27 
   2  -6   8    3.59    0.27 
   2  -6   8    3.29    0.20 
  -2  -6  -8    3.57    0.27 
   2   6   8    3.43    0.31 
   2   6   8    2.83    0.25 
  -2   6  -8    2.74    0.21 
  -2   6  -8    2.40    0.30 
   3  -6   8    2.35    0.19 
   3  -6   8    2.07    0.14 
  -3  -6  -8    2.20    0.20 
   3   6   8    1.83    0.23 
   3   6   8    1.66    0.17 
  -3   6  -8    1.83    0.17 
   4  -6   8    1.45    0.13 
   4  -6   8    1.55    0.11 
  -4  -6  -8    1.61    0.15 
   4  -6   8    1.48    0.17 
   4   6   8    1.28    0.15 
   4   6   8    1.49    0.13 
   4   6   8    1.45    0.15 
  -4   6  -8    1.44    0.13 
   4  -7  -8    2.32    1.29 
   4  -7  -8    0.48    0.09 
   4   7  -8    0.42    0.05 
   4   7  -8    0.25    0.06 
   4   7  -8    0.03    0.59 
   3  -7  -8    4.89    2.01 
   3  -7  -8    1.35    0.15 
   3   7  -8    1.23    0.10 
   3   7  -8    0.14    0.84 
   2  -7  -8    2.40    0.21 
  -2  -7   8    1.81    0.26 
  -2  -7   8    2.30    0.24 
   2   7  -8    2.29    0.16 
  -1  -7   8    4.77    0.44 
   1  -7  -8    4.59    0.32 
  -1  -7   8    4.43    0.36 
   0  -7   8    0.58    0.15 
   0  -7  -8    0.76    0.14 
   0  -7   8    0.80    0.16 
   0   7   8    1.01    0.16 
   0   7  -8    0.29    0.83 
   1  -7   8    4.46    0.33 
  -1  -7  -8    4.33    0.31 
   1  -7   8    4.50    0.25 
   1   7   8    3.57    0.30 
   2  -7   8    0.49    0.11 
  -2  -7  -8    0.57    0.12 
   2  -7   8    0.73    0.09 
   2   7   8    0.33    0.10 
  -2   7  -8    0.36    0.08 
  -3  -7  -8    3.35    0.24 
   3  -7   8    3.22    0.22 
   3  -7   8    3.22    0.19 
  -3   7  -8    3.46    0.21 
   3   7   8    3.39    0.24 
   4  -7   8    2.63    0.15 
   4  -7   8    2.60    0.16 
  -4   7  -8    2.54    0.15 
   3  -8  -8    1.07    0.91 
   3  -8  -8    0.58    0.10 
  -3  -8   8    0.32    0.08 
  -3   8   8    0.24    0.63 
   3   8  -8    0.10    0.59 
   2  -8  -8    1.51    0.15 
  -2  -8   8    1.58    0.18 
   2   8  -8    0.24    0.74 
   1  -8  -8    0.41    0.10 
  -1  -8   8    0.15    0.09 
   1   8  -8   -0.31    0.57 
   0  -8  -8    1.12    0.15 
   0  -8   8    0.97    0.16 
   0   8   8    1.15    0.15 
   0   8  -8    0.13    0.69 
  -1  -8  -8    1.44    0.15 
   1  -8   8    1.87    0.18 
   1   8   8    1.38    0.15 
   2  -8   8    2.65    0.19 
  -2  -8  -8    1.97    0.18 
   2   8   8    2.38    0.19 
   3  -8   8    1.84    0.13 
   3   8   8    1.82    0.14 
   2  -9  -8    0.06    0.05 
  -2  -9   8    0.06    0.05 
   2   9  -8    0.15    0.54 
  -1  -9   8    1.60    0.15 
   1  -9  -8    1.73    0.14 
   0  -9  -8    0.23    0.07 
   0  -9   8    0.27    0.07 
   0   9  -8    0.04    0.52 
  -1  -9  -8    0.01    0.05 
   1  -9   8    0.06    0.05 
  -1   9  -8    0.01    0.50 
   6   0  -9    1.55    1.09 
   5   0  -9    3.07    0.24 
   5   0  -9    7.77    2.66 
   5   0  -9    3.17    0.24 
   4   0  -9    0.21    0.11 
   4   0  -9    0.03    0.09 
   4   0  -9    0.21    0.10 
   4   0  -9    0.11    0.08 
   3   0  -9    1.81    0.25 
   3   0  -9    1.99    0.23 
   2   0  -9   16.69    1.11 
   2   0  -9   16.03    1.13 
   1   0  -9   21.51    1.39 
   1   0  -9   20.50    1.37 
   0   0  -9    3.58    0.29 
   0   0  -9    3.43    0.25 
  -1   0  -9    5.96    0.47 
  -1   0  -9    6.81    0.42 
   1   0   9    6.49    0.45 
   2   0   9    2.77    0.26 
   2   0   9    2.73    0.28 
  -2   0  -9    2.73    0.22 
   3   0   9   27.24    1.68 
   3   0   9   28.05    1.68 
   3   0   9   24.24    1.51 
   3   0   9   26.78    1.86 
  -3   0  -9   25.73    1.49 
  -3   0  -9   28.75    1.58 
   4   0   9    3.92    0.36 
  -4   0  -9    4.07    0.30 
   4   0   9    4.29    0.29 
  -4   0  -9    3.78    0.31 
   4   0   9    4.36    0.39 
   4   0   9    3.73    0.34 
   5   0   9    2.33    0.19 
   5   0   9    2.63    0.27 
   5   0   9    2.07    0.23 
   6   0   9    0.31    0.06 
   6   0   9    0.26    0.09 
   6  -1  -9    0.20    0.69 
   6  -1  -9    0.12    0.06 
   6   1  -9    0.07    0.60 
   5  -1  -9    1.71    0.18 
   5  -1  -9    1.50    0.23 
   5  -1  -9    5.16    2.27 
   5   1  -9    1.29    0.15 
   5   1  -9    1.86    1.35 
   4  -1  -9    2.53    0.23 
   4  -1  -9    2.82    0.25 
   4  -1  -9    2.81    0.33 
   4  -1  -9    2.89    0.36 
   4  -1  -9    2.57    0.31 
   4   1  -9    2.79    0.30 
   4   1  -9    2.58    0.23 
  -4   1   9    3.13    0.32 
   4   1  -9    2.70    0.22 
   3  -1  -9    9.77    0.71 
   3  -1  -9    8.85    0.74 
   3  -1  -9    8.32    0.64 
   3   1  -9   10.00    0.70 
   3   1  -9    9.98    0.73 
   2  -1  -9   12.87    1.05 
   2  -1  -9   13.94    1.03 
   2   1  -9   17.26    1.06 
   2   1  -9   16.05    1.03 
   1  -1  -9   17.16    1.28 
   1  -1  -9   17.50    1.16 
   1   1  -9   22.16    1.29 
   1   1  -9   20.62    1.28 
   0  -1   9    7.75    0.53 
   0  -1  -9    7.09    0.55 
   0  -1  -9    7.36    0.50 
   0   1  -9    9.04    0.57 
   1  -1   9   13.75    0.91 
  -1  -1  -9   13.87    0.86 
  -1   1  -9   14.18    0.96 
   1   1   9   15.24    0.91 
  -1   1  -9   14.10    0.85 
   2  -1   9   29.34    1.87 
   2  -1   9   33.17    1.90 
  -2  -1  -9   32.55    1.81 
   2  -1   9   30.45    2.10 
  -2   1  -9   28.65    2.00 
   2   1   9   31.04    1.90 
  -2   1  -9   30.74    1.80 
   2   1   9   31.42    2.10 
  -3  -1  -9    7.57    0.65 
  -3  -1  -9    7.92    0.53 
   3  -1   9    6.94    0.60 
   3  -1   9    6.95    0.53 
   3  -1   9    7.79    0.67 
   3  -1   9    8.61    0.60 
  -3   1  -9    8.76    0.54 
   3   1   9    9.08    0.69 
   3   1   9    9.03    0.62 
  -3   1  -9    8.18    0.51 
   4  -1   9    0.38    0.12 
   4  -1   9    0.40    0.10 
  -4  -1  -9    0.23    0.09 
   4  -1   9    0.26    0.14 
   4  -1   9    0.26    0.10 
   4  -1   9    0.27    0.14 
  -4   1  -9    0.36    0.11 
  -4   1  -9    0.30    0.08 
   4   1   9    0.33    0.14 
   4   1   9    0.52    0.13 
   4   1   9    0.46    0.10 
   4   1   9    0.44    0.13 
   5  -1   9    0.06    0.07 
   5  -1   9    0.15    0.11 
   5  -1   9    0.12    0.07 
   5  -1   9    0.27    0.08 
   5   1   9    0.22    0.08 
   5   1   9    0.25    0.10 
   5   1   9    0.22    0.11 
  -5   1  -9    0.14    0.06 
   6  -1   9    0.08    0.07 
   6  -1   9    0.11    0.05 
   6   1   9    0.06    0.07 
   6   1   9    0.12    0.05 
   6  -2  -9    0.42    0.74 
   6   2  -9    0.47    0.69 
   5  -2  -9    4.23    0.28 
   5  -2  -9    8.34    2.81 
   5  -2  -9    3.93    0.36 
   5   2  -9    2.11    1.34 
   4  -2  -9   11.46    0.61 
   4  -2  -9    9.87    0.57 
   4  -2  -9   10.55    0.83 
   4  -2  -9   11.05    0.73 
   4   2  -9    9.28    0.58 
   3  -2  -9    4.71    0.44 
   3  -2  -9    4.89    0.47 
   3  -2  -9    4.64    0.45 
  -3   2   9    5.25    0.45 
   3   2  -9    5.33    0.43 
   2  -2  -9    5.08    0.41 
   2  -2  -9    6.13    0.47 
   2  -2  -9    5.00    0.47 
   2   2  -9    5.78    0.46 
   2   2  -9    5.35    0.43 
  -2   2   9    5.70    0.45 
   1  -2  -9    8.92    0.55 
  -1  -2   9    7.16    0.57 
   1  -2  -9    6.99    0.60 
   1   2  -9    8.70    0.58 
   0  -2  -9   20.30    1.22 
   0  -2   9   20.63    1.27 
   0   2  -9   19.87    1.33 
   1  -2   9   22.65    1.32 
  -1  -2  -9   22.49    1.27 
  -1   2  -9   18.34    1.39 
   2  -2   9    7.36    0.51 
   2  -2   9    6.93    0.52 
  -2  -2  -9    7.60    0.47 
  -2  -2  -9    7.38    0.57 
  -2   2  -9    6.53    0.54 
  -2   2  -9    6.21    0.43 
   2   2   9    6.22    0.50 
   2   2   9    7.12    0.59 
  -2   2  -9    6.61    0.45 
  -3  -2  -9   18.26    1.14 
   3  -2   9   16.37    1.36 
  -3  -2  -9   17.94    1.36 
   3  -2   9   17.82    1.09 
   3  -2   9   18.97    1.22 
   3  -2   9   17.38    1.20 
   3   2   9   21.64    1.41 
  -3   2  -9   20.33    1.08 
  -3   2  -9   19.29    1.14 
   3   2   9   19.35    1.23 
   3   2   9   18.73    0.96 
  -3   2  -9   19.51    1.30 
   4  -2   9    4.95    0.43 
   4  -2   9    5.15    0.33 
   4  -2   9    4.89    0.38 
   4  -2   9    4.50    0.44 
   4  -2   9    4.56    0.41 
  -4  -2  -9    4.75    0.37 
   4   2   9    5.16    0.43 
   4   2   9    5.13    0.36 
   4   2   9    5.45    0.43 
  -4   2  -9    5.70    0.37 
   4   2   9    5.40    0.34 
  -4   2  -9    4.70    0.37 
   5  -2   9    0.16    0.07 
   5  -2   9    0.21    0.12 
   5  -2   9    0.15    0.08 
   5   2   9    0.26    0.11 
  -5   2  -9    0.15    0.06 
   5   2   9    0.32    0.08 
   5   2   9    0.18    0.09 
   5   2   9    0.18    0.09 
   6  -2   9    0.60    0.11 
   6  -2   9    0.75    0.08 
   6   2   9    0.58    0.10 
   6   2   9    0.71    0.08 
   6  -3  -9    0.26    0.67 
   5  -3  -9    0.75    1.11 
   5  -3  -9    0.23    0.11 
   5  -3  -9    0.39    0.10 
   5   3  -9    0.36    0.90 
   5   3  -9    0.30    0.08 
   4  -3  -9    5.18    0.49 
   4  -3  -9    5.28    0.35 
   4  -3  -9    5.45    0.46 
   4   3  -9    4.79    0.32 
   4   3  -9    5.02    0.28 
   3  -3  -9   10.97    0.78 
   3  -3  -9   12.27    0.67 
   3  -3  -9   11.82    0.79 
   3  -3  -9   11.24    0.89 
   3  -3  -9   12.11    0.88 
  -3   3   9   11.16    0.88 
   3   3  -9   10.46    0.83 
  -3   3   9   11.81    0.64 
   3   3  -9   12.09    0.63 
   3   3  -9   11.40    0.56 
   2  -3  -9   28.00    2.06 
   2  -3  -9   29.18    1.78 
   2  -3  -9   30.55    2.06 
   2  -3  -9   32.17    1.87 
  -2  -3   9   32.91    1.97 
  -2   3   9   32.38    2.08 
   2   3  -9   32.01    2.05 
   1  -3  -9   34.75    1.98 
  -1  -3   9   30.37    2.06 
   1   3  -9   31.71    2.17 
   1   3  -9   35.97    2.14 
   0  -3   9   14.53    0.95 
   0  -3  -9   14.21    0.91 
  -1  -3  -9    6.26    0.41 
   1  -3   9    5.87    0.43 
  -1   3  -9    4.51    0.44 
  -2  -3  -9    5.88    0.44 
  -2  -3  -9    5.43    0.53 
   2  -3   9    5.15    0.42 
   2  -3   9    6.28    0.47 
  -2   3  -9    7.07    0.53 
  -2   3  -9    6.21    0.41 
   2   3   9    6.76    0.56 
  -3  -3  -9   12.70    0.74 
   3  -3   9   13.35    0.80 
   3  -3   9   10.60    0.92 
  -3  -3  -9   12.35    0.92 
   3  -3   9   12.30    0.79 
   3  -3   9   11.37    0.54 
   3  -3   9   13.21    0.71 
   3   3   9    9.49    0.62 
  -3   3  -9   11.27    0.69 
  -3   3  -9   10.91    0.57 
   3   3   9   10.26    0.90 
  -3   3  -9    9.96    0.71 
  -3   3  -9   10.51    0.83 
   3   3   9    9.73    0.77 
   4  -3   9    0.96    0.13 
   4  -3   9    0.82    0.15 
   4  -3   9    0.89    0.19 
   4   3   9    0.72    0.13 
   4   3   9    0.58    0.13 
   4   3   9    0.63    0.17 
  -4   3  -9    0.57    0.11 
  -4   3  -9    0.74    0.17 
   4   3   9    0.81    0.16 
   5  -3   9    0.22    0.08 
   5  -3   9    0.13    0.10 
   5  -3   9    0.32    0.08 
   5   3   9    0.13    0.08 
  -5   3  -9    0.14    0.05 
   5   3   9    0.21    0.08 
   5   3   9    0.24    0.10 
   6  -4  -9    0.04    0.46 
   5  -4  -9    1.21    0.17 
   5  -4  -9    1.10    0.13 
   5  -4  -9    3.61    1.72 
   5   4  -9    1.06    0.09 
   5   4  -9    1.11    0.12 
   5   4  -9    0.26    0.78 
   4  -4  -9    0.97    0.21 
   4  -4  -9    3.57    1.97 
   4  -4  -9    0.83    0.14 
   4  -4  -9    1.14    0.20 
   4   4  -9    0.69    0.11 
   4   4  -9    0.11    0.84 
   4   4  -9    1.04    0.11 
   3  -4  -9    5.63    0.50 
  -3  -4   9    6.67    0.54 
   3  -4  -9    5.51    0.53 
   3  -4  -9    4.53    0.36 
   3  -4  -9    5.59    0.47 
   3   4  -9    5.94    0.32 
  -3   4   9    5.92    0.54 
   3   4  -9    6.74    0.36 
  -2  -4   9    2.47    0.30 
   2  -4  -9    2.29    0.24 
   2  -4  -9    2.88    0.32 
   2  -4  -9    2.29    0.27 
   2  -4  -9    1.86    0.28 
   2   4  -9    2.69    0.27 
  -2   4   9    2.38    0.22 
  -2   4   9    2.55    0.29 
   1  -4  -9   18.20    1.10 
   1  -4  -9   14.37    1.04 
  -1  -4   9   16.59    1.16 
   1   4  -9   16.73    1.19 
   1   4  -9   19.58    1.16 
   0  -4  -9    2.61    0.27 
   0  -4   9    2.73    0.29 
   0   4  -9    2.64    0.27 
  -1  -4  -9    1.18    0.19 
   1  -4   9    0.79    0.15 
  -1   4  -9    1.45    0.20 
  -2  -4  -9    4.76    0.35 
   2  -4   9    4.21    0.33 
   2  -4   9    4.71    0.36 
   2   4   9    3.08    0.32 
   2   4   9    3.81    0.29 
  -2   4  -9    3.50    0.37 
  -2   4  -9    3.18    0.29 
   3  -4   9    8.89    0.48 
   3  -4   9    8.24    0.60 
   3  -4   9    8.63    0.41 
   3  -4   9    9.16    0.55 
   3   4   9    7.94    0.56 
   3   4   9    7.34    0.49 
   3   4   9    6.67    0.59 
  -3   4  -9    8.04    0.44 
  -3   4  -9    8.49    0.52 
   4  -4   9    2.85    0.18 
   4  -4   9    2.94    0.30 
   4  -4   9    3.46    0.23 
   4  -4   9    3.19    0.26 
   4   4   9    3.11    0.26 
   4   4   9    3.22    0.29 
  -4   4  -9    2.77    0.21 
  -4   4  -9    3.02    0.24 
   4   4   9    2.85    0.23 
   4   4   9    2.78    0.28 
  -5  -4  -9    2.42    0.18 
   5  -4   9    2.35    0.16 
   5  -4   9    2.10    0.22 
   5   4   9    2.34    0.18 
   5   4   9    2.09    0.20 
   5   4   9    2.03    0.17 
   5  -5  -9    1.45    1.11 
   5  -5  -9    0.24    0.07 
   5   5  -9    0.01    0.63 
   5   5  -9    0.20    0.06 
   5   5  -9    0.26    0.05 
   4  -5  -9    1.75    0.18 
   4  -5  -9    1.76    0.24 
  -4  -5   9    1.84    0.25 
   4   5  -9    2.34    0.17 
   4   5  -9    2.20    0.14 
   3  -5  -9    0.57    0.16 
   3  -5  -9    2.12    1.63 
  -3  -5   9    0.34    0.13 
   3   5  -9    0.47    0.09 
   3   5  -9    0.57    0.08 
   3   5  -9    0.23    0.94 
   2  -5  -9    5.11    0.49 
  -2  -5   9    5.49    0.51 
   2  -5  -9    5.25    0.46 
   2   5  -9    5.76    0.30 
   2   5  -9    5.89    0.49 
  -2   5   9    5.70    0.38 
  -1  -5   9   17.44    0.95 
   1  -5  -9   21.18    1.27 
  -1  -5   9   19.94    1.35 
   1   5  -9   19.89    0.93 
   1   5  -9   19.96    1.38 
  -1   5   9   21.20    1.08 
   0  -5  -9   23.24    1.44 
   0  -5   9   25.43    1.51 
   0   5   9   19.98    1.21 
   0   5  -9   23.90    1.53 
  -1  -5  -9   14.41    0.92 
   1  -5   9   13.85    0.92 
  -1   5  -9   14.12    0.98 
   1   5   9   12.69    0.77 
  -2  -5  -9    5.78    0.43 
   2  -5   9    4.83    0.28 
  -2  -5  -9    5.43    0.36 
   2  -5   9    5.39    0.42 
   2  -5   9    5.48    0.36 
   2   5   9    5.09    0.40 
  -2   5  -9    4.93    0.31 
  -2   5  -9    4.54    0.45 
   2   5   9    5.28    0.36 
   3  -5   9   14.39    0.90 
  -3  -5  -9   15.68    0.82 
   3  -5   9   15.40    0.79 
   3  -5   9   14.83    0.70 
  -3   5  -9   15.04    0.87 
   3   5   9   13.73    0.78 
   3   5   9   16.87    0.89 
  -3   5  -9   15.25    0.73 
   3   5   9   15.44    0.82 
   4  -5   9    0.71    0.08 
  -4  -5  -9    0.64    0.11 
   4  -5   9    0.63    0.12 
   4  -5   9    0.66    0.10 
  -4   5  -9    0.59    0.09 
   4   5   9    1.09    0.17 
   4   5   9    0.76    0.12 
  -4   5  -9    0.68    0.10 
   4   5   9    0.88    0.12 
  -5  -5  -9    0.71    0.08 
   5  -5   9    0.72    0.08 
   5   5   9    0.75    0.09 
   5  -6  -9    1.96    0.96 
   4  -6  -9    2.91    1.53 
   4  -6  -9    0.67    0.13 
   4   6  -9   -0.09    0.63 
   4   6  -9    0.46    0.08 
   4   6  -9    0.63    0.07 
   3  -6  -9    2.18    0.29 
   3  -6  -9    2.42    0.20 
  -3  -6   9    2.25    0.28 
   3   6  -9    2.23    0.15 
   2  -6  -9    3.08    0.24 
  -2  -6   9    2.66    0.33 
   2   6  -9    2.68    0.18 
   1  -6  -9    7.30    0.44 
  -1  -6   9    7.93    0.61 
   1  -6  -9    6.56    0.54 
  -1  -6   9    6.15    0.47 
  -1   6   9    7.08    0.46 
   0  -6  -9    2.21    0.27 
   0  -6   9    1.74    0.24 
   0  -6   9    2.77    0.28 
   0  -6  -9    2.39    0.22 
   0   6   9    2.17    0.22 
   1  -6   9    3.16    0.27 
  -1  -6  -9    3.12    0.25 
   1  -6   9    2.76    0.28 
   1  -6   9    3.03    0.19 
   1   6   9    2.67    0.28 
   1   6   9    2.51    0.24 
  -1   6  -9    2.57    0.19 
   2  -6   9    7.80    0.46 
   2  -6   9    7.01    0.38 
  -2  -6  -9    7.58    0.47 
  -2   6  -9    7.57    0.60 
   2   6   9    7.83    0.52 
   2   6   9    7.76    0.47 
  -2   6  -9    7.83    0.41 
   3  -6   9    0.87    0.10 
   3  -6   9    1.04    0.13 
  -3  -6  -9    1.11    0.15 
   3   6   9    1.63    0.22 
   3   6   9    1.17    0.14 
  -3   6  -9    1.10    0.13 
  -4  -6  -9    0.25    0.07 
   4  -6   9    0.24    0.06 
   4  -6   9    0.15    0.04 
  -4   6  -9    0.21    0.06 
   4   6   9    0.37    0.10 
   4   6   9    0.24    0.07 
   4  -7  -9    0.15    0.06 
   4  -7  -9    0.48    0.67 
  -4   7   9    0.38    0.65 
   4   7  -9   -0.06    0.52 
   4   7  -9    0.08    0.03 
  -3  -7   9    1.27    0.12 
   3  -7  -9    4.26    1.63 
   3  -7  -9    1.50    0.15 
   3   7  -9    0.24    0.78 
   3   7  -9    1.34    0.10 
   2  -7  -9    2.09    0.18 
  -2  -7   9    1.22    0.18 
  -2  -7   9    1.67    0.23 
   2   7  -9    0.26    0.86 
  -1  -7   9    2.81    0.28 
  -1  -7   9    3.77    0.34 
   1  -7  -9    3.35    0.25 
  -1   7   9    2.70    0.25 
   0  -7   9    3.22    0.30 
   0  -7   9    2.77    0.27 
   0  -7  -9    3.31    0.25 
   0   7   9    2.67    0.24 
   1  -7   9    0.14    0.08 
  -1  -7  -9    0.05    0.07 
   1   7   9    0.10    0.07 
  -1   7  -9   -0.01    0.70 
  -1   7  -9    0.10    0.05 
   2  -7   9    1.00    0.14 
  -2  -7  -9    1.17    0.14 
   2  -7   9    1.04    0.11 
   2   7   9    1.16    0.14 
  -2   7  -9    1.12    0.11 
   3  -7   9    1.01    0.09 
  -3  -7  -9    1.00    0.12 
   3  -7   9    1.22    0.12 
  -3   7  -9    0.85    0.09 
   3   7   9    0.92    0.11 
   3   8  -9    0.24    0.58 
  -2  -8   9    0.87    0.12 
   2   8  -9    0.31    0.71 
   1  -8  -9    0.21    0.07 
  -1  -8   9    0.14    0.08 
   1   8  -9    0.09    0.67 
   0  -8   9    0.37    0.10 
   0  -8  -9    0.23    0.08 
   0   8   9    0.28    0.08 
   0   8  -9   -0.10    0.58 
  -1  -8  -9    3.03    0.21 
   1  -8   9    2.92    0.22 
   1   8   9    2.52    0.21 
  -2  -8  -9    0.81    0.10 
   2  -8   9    0.82    0.10 
  -2   8  -9    0.84    0.08 
   2   8   9    0.84    0.10 
   1  -9  -9    0.49    0.08 
  -1  -9   9    0.26    0.06 
   1   9  -9    0.10    0.51 
   0  -9   9   -0.01    0.04 
   0  -9  -9    0.01    0.04 
   0   9  -9   -0.14    0.41 
   1  -9   9    0.25    0.05 
  -1  -9  -9    0.29    0.06 
   6   0 -10    1.23    0.97 
   5   0 -10    5.82    0.35 
   5   0 -10    5.67    0.36 
   4   0 -10    2.01    0.20 
   4   0 -10    1.54    0.17 
   4   0 -10    1.32    1.18 
   4   0 -10    1.30    0.24 
   3   0 -10    0.33    0.13 
   3   0 -10    0.25    0.09 
   2   0 -10    0.25    0.09 
   2   0 -10    0.32    0.12 
   1   0 -10   13.79    0.96 
   0   0 -10    0.38    0.09 
   1   0  10   24.91    1.48 
  -1   0 -10   24.45    1.42 
  -1   0 -10   22.92    1.56 
  -2   0 -10    0.23    0.07 
  -2   0 -10    0.29    0.08 
   2   0  10    0.40    0.11 
   2   0  10    0.36    0.11 
   3   0  10    0.42    0.13 
   3   0  10    0.30    0.11 
   3   0  10    0.40    0.13 
  -3   0 -10    0.41    0.10 
  -3   0 -10    0.32    0.08 
   3   0  10    0.21    0.12 
  -4   0 -10    0.31    0.08 
   4   0  10    0.56    0.10 
   4   0  10    0.36    0.14 
   4   0  10    0.56    0.14 
   4   0  10    0.61    0.13 
   4   0  10    0.26    0.10 
   5   0  10    0.22    0.11 
   5   0  10    0.24    0.07 
   6   0  10    0.49    0.07 
   6   0  10    0.38    0.08 
   6  -1 -10    0.05    0.05 
   6  -1 -10    0.17    0.59 
   6   1 -10    0.30    0.63 
   5  -1 -10    3.97    1.90 
   5  -1 -10    1.72    0.17 
   5  -1 -10    1.70    0.18 
   5   1 -10    3.81    1.77 
   5   1 -10    1.86    0.18 
   4  -1 -10   15.36    0.96 
   4  -1 -10   16.79    0.83 
   4  -1 -10   14.63    1.11 
   4  -1 -10   14.75    0.77 
   4   1 -10   15.58    0.82 
   4   1 -10   14.18    0.75 
   4   1 -10   14.02    1.09 
   3  -1 -10   14.67    1.08 
   3  -1 -10   15.26    0.79 
   3  -1 -10   13.85    0.92 
   3  -1 -10   14.60    1.03 
   3   1 -10   15.17    0.79 
   3   1 -10   14.19    1.02 
   3   1 -10   14.24    1.06 
   2  -1 -10    5.50    0.47 
   2  -1 -10    5.10    0.42 
   2   1 -10    5.55    0.45 
   2   1 -10    4.69    0.40 
   1  -1 -10    1.59    0.21 
   1  -1 -10    1.64    0.18 
   1   1 -10    1.80    0.20 
   0  -1 -10    8.43    0.62 
   0  -1 -10    8.48    0.56 
   0  -1  10    9.04    0.59 
   1  -1  10   14.54    0.83 
  -1  -1 -10   13.49    0.78 
   1   1  10   12.16    0.81 
  -1   1 -10   11.10    0.75 
  -1   1 -10   11.43    0.85 
  -2  -1 -10    8.35    0.51 
  -2  -1 -10    8.72    0.54 
   2  -1  10    8.13    0.55 
   2  -1  10    9.16    0.60 
  -2   1 -10    7.80    0.61 
   2   1  10    7.48    0.55 
   2   1  10    8.57    0.60 
  -2   1 -10    7.97    0.51 
  -2   1 -10    8.20    0.53 
   3  -1  10    8.33    0.63 
   3  -1  10    8.07    0.65 
   3  -1  10    8.80    0.60 
  -3  -1 -10    8.17    0.49 
   3  -1  10    8.48    0.55 
  -3  -1 -10    8.24    0.52 
   3   1  10    7.73    0.59 
   3   1  10    6.70    0.64 
  -3   1 -10    7.52    0.50 
  -3   1 -10    7.09    0.51 
   3   1  10    6.46    0.47 
   4  -1  10    2.16    0.26 
   4  -1  10    2.46    0.29 
   4  -1  10    2.34    0.25 
   4  -1  10    2.58    0.20 
   4   1  10    1.93    0.24 
   4   1  10    1.66    0.25 
   4   1  10    1.97    0.23 
  -4   1 -10    2.16    0.21 
   4   1  10    2.12    0.19 
   5  -1  10    2.51    0.19 
   5  -1  10    2.79    0.27 
   5   1  10    2.80    0.26 
   5   1  10    2.69    0.21 
   5   1  10    2.68    0.20 
  -5   1 -10    2.76    0.21 
   6  -1  10    0.19    0.07 
   6   1  10    0.11    0.04 
   6   1  10    0.19    0.06 
   6  -2 -10    0.66    0.76 
   6  -2 -10    0.12    0.05 
   6   2 -10    0.10    0.47 
   5  -2 -10    2.87    0.22 
   5  -2 -10    2.50    0.29 
   5  -2 -10    6.23    2.29 
   5   2 -10    2.64    0.21 
   5   2 -10    1.27    1.05 
   4  -2 -10    6.27    0.51 
   4  -2 -10    6.04    0.39 
   4  -2 -10    5.73    0.55 
   4  -2 -10    6.97    0.41 
   4   2 -10    6.12    0.39 
   3  -2 -10    0.75    0.19 
   3  -2 -10    1.11    0.16 
   3  -2 -10    0.91    0.18 
   3   2 -10    0.74    0.17 
  -3   2  10    0.72    0.16 
   3   2 -10    0.59    0.11 
   3   2 -10    0.80    0.16 
   3   2 -10    0.81    0.09 
   2  -2 -10   16.52    1.05 
   2  -2 -10   17.94    1.17 
   2  -2 -10   16.15    1.19 
   2  -2 -10   15.10    1.02 
  -2   2  10   16.71    1.16 
   2   2 -10   15.93    1.14 
   2   2 -10   18.98    1.18 
  -1  -2  10    1.46    0.19 
   1  -2 -10    1.24    0.20 
   1  -2 -10    1.26    0.19 
   1   2 -10    1.51    0.18 
   0  -2 -10    7.09    0.50 
   0  -2  10    7.65    0.52 
   0   2 -10    7.09    0.54 
  -1  -2 -10    2.45    0.24 
   1  -2  10    2.46    0.24 
  -1   2 -10    2.75    0.27 
   2  -2  10   34.20    1.98 
   2  -2  10   33.56    2.13 
   2  -2  10   37.84    2.16 
  -2  -2 -10   35.82    2.07 
   2   2  10   36.09    2.16 
  -2   2 -10   35.16    1.94 
  -2   2 -10   33.92    2.29 
   3  -2  10    6.08    0.53 
  -3  -2 -10    6.74    0.57 
   3  -2  10    6.46    0.46 
   3  -2  10    6.93    0.51 
  -3  -2 -10    6.84    0.45 
   3   2  10    6.37    0.58 
  -3   2 -10    5.88    0.43 
   3   2  10    6.38    0.50 
  -3   2 -10    6.34    0.42 
   3   2  10    5.74    0.42 
  -3   2 -10    5.29    0.51 
   4  -2  10    1.42    0.15 
   4  -2  10    1.18    0.18 
   4  -2  10    1.15    0.21 
   4  -2  10    1.37    0.19 
   4   2  10    1.48    0.16 
  -4   2 -10    1.33    0.17 
   4   2  10    1.34    0.18 
   4   2  10    1.15    0.20 
   4   2  10    1.24    0.19 
   5  -2  10    1.42    0.13 
   5  -2  10    1.27    0.20 
   5   2  10    1.67    0.15 
  -5   2 -10    1.53    0.14 
   5   2  10    1.58    0.19 
   5   2  10    1.59    0.16 
   6  -3 -10    2.89    1.18 
   5  -3 -10    0.99    0.13 
   5  -3 -10    3.54    1.75 
   5  -3 -10    0.90    0.16 
   5   3 -10    0.81    0.95 
   5   3 -10    0.74    0.12 
   4  -3 -10    8.87    0.78 
   4  -3 -10    9.87    0.69 
   4  -3 -10    9.35    0.54 
   4   3 -10   10.56    0.49 
   4   3 -10   10.42    0.56 
   3  -3 -10   20.70    1.46 
   3  -3 -10   22.56    1.13 
   3  -3 -10   17.87    1.46 
   3  -3 -10   17.45    1.00 
   3  -3 -10   20.09    1.28 
   3   3 -10   20.95    0.98 
  -3   3  10   23.00    1.10 
   3   3 -10   21.23    1.43 
  -3   3  10   22.32    1.48 
   3   3 -10   23.64    1.09 
  -2  -3  10    2.21    0.29 
   2  -3 -10    2.00    0.29 
   2  -3 -10    2.40    0.30 
   2  -3 -10    2.47    0.24 
   2  -3 -10    2.51    0.28 
  -2   3  10    3.13    0.23 
   2   3 -10    2.84    0.27 
   2   3 -10    3.17    0.30 
   1  -3 -10    3.19    0.37 
  -1  -3  10    3.34    0.35 
   1  -3 -10    3.81    0.34 
   1   3 -10    4.75    0.36 
   1   3 -10    4.21    0.35 
   0  -3  10   40.36    2.55 
   0  -3 -10   40.70    2.48 
   0   3 -10   45.43    2.70 
   1  -3  10   33.34    2.00 
   1  -3  10   29.60    1.83 
  -1  -3 -10   34.07    1.94 
  -1   3 -10   30.57    1.80 
  -1   3 -10   36.35    2.15 
   2  -3  10    6.23    0.50 
  -2  -3 -10    7.44    0.52 
   2  -3  10    7.30    0.54 
   2   3  10    6.95    0.46 
  -2   3 -10    8.25    0.48 
  -2   3 -10    7.44    0.60 
  -3  -3 -10    1.75    0.21 
   3  -3  10    1.62    0.18 
   3  -3  10    1.51    0.21 
   3  -3  10    1.69    0.22 
   3  -3  10    1.42    0.14 
   3   3  10    2.18    0.24 
  -3   3 -10    1.89    0.25 
   3   3  10    2.13    0.25 
  -3   3 -10    1.98    0.18 
  -3   3 -10    2.11    0.22 
   3   3  10    2.10    0.25 
   4  -3  10    2.82    0.27 
   4  -3  10    3.05    0.23 
   4  -3  10    2.66    0.28 
   4  -3  10    2.62    0.30 
   4   3  10    3.24    0.30 
  -4   3 -10    3.17    0.24 
   4   3  10    3.81    0.31 
   4   3  10    3.34    0.23 
   4   3  10    3.16    0.27 
   5  -3  10    0.07    0.08 
   5  -3  10    0.08    0.05 
   5  -3  10    0.03    0.06 
   5   3  10    0.14    0.06 
  -5   3 -10    0.10    0.05 
   5   3  10    0.06    0.08 
   5   3  10    0.15    0.08 
   5  -4 -10    0.59    0.12 
   5  -4 -10    0.41    0.08 
   5  -4 -10    2.08    1.32 
  -5  -4  10    0.33    0.06 
   5   4 -10    0.42    0.06 
   5   4 -10    0.35    0.08 
   5   4 -10    0.27    0.73 
   4  -4 -10    2.78    0.23 
   4  -4 -10    2.98    0.31 
   4   4 -10    3.07    0.19 
   4   4 -10    2.99    0.22 
   3  -4 -10    4.35    0.32 
   3  -4 -10    3.15    0.39 
   3  -4 -10    4.01    0.37 
   3  -4 -10    3.93    0.41 
  -3  -4  10    3.85    0.40 
   3  -4 -10    3.10    0.28 
  -3   4  10    4.10    0.29 
   3   4 -10    4.41    0.27 
   3   4 -10    4.01    0.23 
   2  -4 -10    2.27    0.28 
   2  -4 -10    2.27    0.30 
   2  -4 -10    2.55    0.25 
  -2  -4  10    2.15    0.30 
   2   4 -10    2.62    0.18 
   2   4 -10    2.70    0.28 
  -2   4  10    2.88    0.23 
   1  -4 -10    6.15    0.47 
   1  -4 -10    4.97    0.49 
   1  -4 -10    6.01    0.41 
  -1  -4  10    5.76    0.50 
  -1   4  10    6.00    0.39 
   1   4 -10    6.25    0.47 
   1   4 -10    5.28    0.48 
   0  -4  10    7.13    0.52 
   0  -4 -10    7.25    0.50 
   0   4  10    5.71    0.41 
   0   4 -10    6.00    0.50 
   1  -4  10    8.46    0.61 
  -1  -4 -10    9.38    0.61 
   1   4  10    7.46    0.50 
  -1   4 -10    8.37    0.65 
  -2  -4 -10    2.54    0.27 
   2  -4  10    2.52    0.26 
   2  -4  10    2.18    0.27 
   2  -4  10    2.20    0.18 
   2   4  10    2.73    0.28 
  -2   4 -10    2.76    0.21 
  -2   4 -10    2.88    0.31 
   2   4  10    3.06    0.24 
  -2   4 -10    3.05    0.24 
   3  -4  10    0.06    0.05 
   3  -4  10    0.01    0.07 
   3  -4  10    0.08    0.07 
   3  -4  10    0.06    0.08 
   3   4  10    0.01    0.09 
  -3   4 -10   -0.01    0.06 
   3   4  10    0.01    0.09 
  -3   4 -10    0.02    0.05 
  -3   4 -10    0.01    0.07 
   4  -4  10    0.05    0.07 
   4  -4  10    0.18    0.06 
   4  -4  10    0.08    0.05 
   4   4  10    0.12    0.08 
  -4   4 -10    0.10    0.05 
  -4   4 -10    0.06    0.05 
   4   4  10    0.17    0.10 
   4   4  10    0.11    0.06 
   4   4  10    0.06    0.09 
   5  -4  10    0.07    0.04 
   5  -4  10    0.08    0.07 
  -5  -4 -10    0.08    0.05 
   5   4  10    0.04    0.06 
   5   4  10    0.06    0.06 
   5  -5 -10    2.29    1.16 
  -5  -5  10    0.68    0.07 
   5  -5 -10    0.67    0.08 
   5   5 -10    0.70    0.06 
   5   5 -10    0.46    0.07 
   5   5 -10   -0.01    0.51 
   4  -5 -10    0.24    0.11 
   4  -5 -10    0.23    0.08 
   4  -5 -10    1.36    1.24 
   4   5 -10   -0.01    0.74 
   4   5 -10    0.26    0.06 
   4   5 -10    0.23    0.07 
   3  -5 -10    5.64    0.47 
  -3  -5  10    5.30    0.50 
   3   5 -10    5.79    0.31 
   3   5 -10    6.12    0.35 
  -2  -5  10   20.21    1.39 
   2  -5 -10   22.79    1.33 
   2  -5 -10   18.50    1.25 
  -2  -5  10   18.90    0.99 
   2   5 -10   20.81    0.97 
  -2   5  10   22.75    1.11 
   1  -5 -10   15.41    0.95 
  -1  -5  10   14.29    1.00 
  -1  -5  10   14.71    0.70 
   1   5 -10   12.72    1.01 
  -1   5  10   13.51    0.79 
   1   5 -10   13.77    0.68 
   0  -5  10    1.33    0.20 
   0  -5 -10    1.36    0.22 
   0   5 -10    1.33    0.18 
   0   5 -10    1.44    0.13 
   0   5  10    1.34    0.20 
   1  -5  10    2.24    0.23 
   1  -5  10    2.10    0.17 
  -1  -5 -10    2.06    0.21 
   1  -5  10    2.06    0.24 
  -1  -5 -10    2.58    0.27 
  -1   5 -10    2.48    0.26 
  -1   5 -10    2.32    0.18 
   1   5  10    2.30    0.26 
   1   5  10    2.55    0.23 
   2  -5  10    3.09    0.29 
   2  -5  10    3.38    0.25 
  -2  -5 -10    3.80    0.32 
  -2  -5 -10    3.26    0.25 
   2  -5  10    3.36    0.20 
   2   5  10    2.59    0.24 
   2   5  10    2.62    0.28 
  -2   5 -10    2.60    0.21 
  -2   5 -10    2.53    0.30 
   3  -5  10    4.48    0.24 
   3  -5  10    4.18    0.33 
  -3  -5 -10    4.28    0.29 
   3  -5  10    4.45    0.28 
  -3   5 -10    3.71    0.29 
   3   5  10    4.20    0.33 
   3   5  10    3.67    0.27 
   3   5  10    3.44    0.29 
  -3   5 -10    3.50    0.25 
   4  -5  10    0.65    0.12 
  -4  -5 -10    0.88    0.12 
   4  -5  10    0.75    0.08 
   4  -5  10    1.01    0.11 
  -4   5 -10    0.70    0.10 
   4   5  10    0.92    0.15 
  -4   5 -10    0.68    0.09 
   4   5  10    0.75    0.12 
  -4  -6  10    0.18    0.05 
   4  -6 -10    1.41    1.07 
   4   6 -10    0.11    0.66 
   4   6 -10    0.23    0.06 
   4   6 -10    0.28    0.05 
  -3  -6  10    0.91    0.11 
  -3  -6  10    0.80    0.18 
   3  -6 -10    3.90    1.77 
   3  -6 -10    0.76    0.16 
   3   6 -10    0.84    0.09 
   3   6 -10    0.36    0.86 
  -2  -6  10    3.03    0.34 
   2  -6 -10    3.53    0.25 
  -2  -6  10    3.29    0.22 
   2   6 -10    3.35    0.20 
  -2   6  10    3.21    0.26 
   1  -6 -10    0.83    0.13 
  -1  -6  10    0.35    0.12 
  -1  -6  10    0.42    0.13 
  -1   6  10    0.78    0.15 
   1   6 -10    0.21    0.85 
   0  -6  10    5.06    0.37 
   0  -6 -10    5.19    0.34 
   0  -6  10    5.16    0.42 
   0   6  10    4.70    0.35 
   0   6 -10    4.88    0.28 
   1  -6  10    1.52    0.20 
   1  -6  10    1.71    0.20 
  -1  -6 -10    1.75    0.19 
   1   6  10    1.92    0.20 
  -1   6 -10    2.04    0.15 
   1   6  10    2.21    0.23 
   2  -6  10    0.13    0.07 
  -2  -6 -10    0.13    0.07 
   2  -6  10    0.08    0.05 
  -2   6 -10    0.13    0.06 
   2   6  10    0.17    0.10 
   2   6  10    0.12    0.07 
   3  -6  10    3.08    0.22 
   3  -6  10    2.95    0.19 
  -3  -6 -10    3.30    0.23 
  -3   6 -10    3.07    0.20 
   3   6  10    3.64    0.27 
   3   6  10    3.09    0.22 
  -4  -6 -10    3.10    0.20 
   4  -6  10    3.30    0.19 
   4  -6  10    3.05    0.17 
  -4   6 -10    2.88    0.17 
   4   6  10    3.11    0.22 
   4   7 -10    0.01    0.47 
  -3  -7  10    0.10    0.05 
   3  -7 -10    0.15    0.06 
   3   7 -10    0.10    0.04 
   3   7 -10    0.10    0.66 
   2  -7 -10    1.79    0.16 
   2   7 -10    1.80    0.13 
   2   7 -10    0.36    0.84 
  -1  -7  10    0.49    0.12 
   1  -7 -10    0.66    0.11 
  -1  -7  10    0.38    0.11 
   1   7 -10    0.06    0.72 
  -1   7  10    0.48    0.12 
   0  -7 -10    0.11    0.07 
   0  -7  10    0.05    0.07 
   0  -7  10    0.08    0.08 
   0   7 -10   -0.12    0.57 
   0   7  10    0.13    0.08 
  -1  -7 -10    2.36    0.21 
   1  -7  10    2.39    0.21 
   1   7  10    2.45    0.21 
  -1   7 -10    2.55    0.16 
  -2  -7 -10    2.09    0.18 
   2  -7  10    1.72    0.16 
   2   7  10    2.01    0.18 
  -2   7 -10    2.05    0.14 
  -3  -7 -10    0.68    0.10 
   3  -7  10    0.70    0.09 
  -3   7 -10    0.83    0.08 
   3   7  10    0.77    0.09 
   3   8 -10    0.15    0.47 
  -1  -8  10    0.11    0.07 
   1  -8 -10    0.05    0.05 
   1   8 -10    0.00    0.58 
   0  -8  10    0.76    0.11 
   0  -8 -10    0.84    0.12 
   0   8  10    0.89    0.12 
   0   8 -10   -0.05    0.56 
  -1  -8 -10    0.63    0.10 
   1  -8  10    0.54    0.09 
   1   8  10    0.65    0.10 
   2  -8  10    1.06    0.10 
  -2  -8 -10    1.09    0.10 
   1  -9 -10    0.22    0.05 
   0  -9 -10    0.07    0.04 
   6   0 -11    1.29    0.86 
   5   0 -11    0.38    0.09 
   5   0 -11    0.43    0.10 
   5   0 -11    1.54    1.26 
   4   0 -11   15.13    0.77 
   4   0 -11   19.74    3.19 
   4   0 -11   15.68    0.83 
   4   0 -11   13.86    1.11 
   3   0 -11    6.97    0.59 
   3   0 -11    6.40    0.41 
   2   0 -11    2.36    0.30 
   2   0 -11    2.49    0.25 
   2   0 -11    2.60    0.29 
   1   0 -11    0.27    0.10 
   0   0 -11    3.30    0.30 
   1   0  11    8.64    0.57 
  -1   0 -11    8.06    0.50 
  -1   0 -11    7.90    0.52 
  -1   0 -11    7.62    0.58 
  -2   0 -11   49.09    2.86 
  -2   0 -11   48.89    2.70 
   2   0  11   48.64    2.75 
   2   0  11   51.46    2.98 
   3   0  11    7.83    0.46 
   3   0  11    7.80    0.48 
   3   0  11    8.26    0.57 
  -3   0 -11    7.88    0.54 
   3   0  11    8.74    0.62 
   3   0  11    8.46    0.57 
  -3   0 -11    8.38    0.51 
  -4   0 -11    7.69    0.47 
   4   0  11    6.73    0.51 
   4   0  11    8.13    0.53 
   4   0  11    7.37    0.44 
   4   0  11    7.51    0.43 
   4   0  11    7.58    0.57 
   5   0  11    0.15    0.09 
   5   0  11    0.12    0.06 
   6  -1 -11    0.53    0.62 
   6   1 -11    0.63    0.65 
   5  -1 -11    3.51    1.72 
   5  -1 -11    0.73    0.12 
   5  -1 -11    1.01    0.13 
   5   1 -11    2.10    1.33 
   5   1 -11    0.78    0.12 
  -5   1  11    1.05    0.11 
   4  -1 -11    9.45    0.78 
   4  -1 -11    9.17    0.67 
   4  -1 -11    9.67    0.56 
   4  -1 -11    9.60    0.54 
   4   1 -11   10.10    0.56 
   4   1 -11    9.89    0.77 
   4   1 -11    9.90    0.53 
   3  -1 -11    0.12    0.10 
   3  -1 -11    0.23    0.12 
   3  -1 -11    0.14    0.08 
   3  -1 -11    0.16    0.10 
   3   1 -11    0.10    0.08 
   3   1 -11    0.06    0.07 
   3   1 -11    0.12    0.09 
  -3   1  11    0.10    0.08 
   2  -1 -11    0.14    0.10 
   2  -1 -11    0.04    0.08 
   2   1 -11    0.02    0.07 
   2   1 -11    0.00    0.06 
   1  -1 -11    8.94    0.66 
   1  -1 -11    7.83    0.56 
   1   1 -11    8.92    0.65 
   0  -1  11   25.97    1.52 
   0  -1 -11   24.59    1.62 
   0  -1 -11   23.31    1.46 
   0   1 -11   24.65    1.61 
   1  -1  11   42.42    2.44 
  -1  -1 -11   38.61    2.23 
   1  -1  11   37.70    2.26 
  -1  -1 -11   41.23    2.36 
  -1   1 -11   41.75    2.59 
  -1   1 -11   41.20    2.22 
   2  -1  11    1.47    0.21 
   2  -1  11    1.18    0.19 
  -2  -1 -11    1.39    0.18 
  -2  -1 -11    1.71    0.21 
  -2   1 -11    2.01    0.22 
  -2   1 -11    1.97    0.18 
   2   1  11    2.45    0.24 
   3  -1  11   17.57    0.97 
   3  -1  11   19.67    1.16 
   3  -1  11   18.93    0.98 
  -3  -1 -11   17.79    1.18 
   3  -1  11   20.47    1.28 
  -3  -1 -11   19.26    1.11 
  -3   1 -11   18.92    1.18 
   3   1  11   19.58    1.00 
   3   1  11   20.43    1.10 
   3   1  11   21.55    1.29 
  -3   1 -11   21.63    1.12 
   4  -1  11    1.13    0.16 
   4  -1  11    1.09    0.17 
   4  -1  11    0.71    0.16 
   4  -1  11    1.12    0.13 
   4   1  11    0.85    0.12 
   4   1  11    0.75    0.16 
   4   1  11    0.66    0.16 
   4   1  11    0.85    0.15 
  -4   1 -11    0.64    0.10 
   5  -1  11    0.51    0.08 
   5  -1  11    0.35    0.11 
   5   1  11    0.34    0.11 
   5   1  11    0.56    0.09 
   5   1  11    0.47    0.09 
   6  -2 -11    0.33    0.56 
   6   2 -11    0.12    0.45 
   5  -2 -11    0.18    0.07 
   5  -2 -11    0.46    0.88 
   5   2 -11    0.13    0.07 
   5   2 -11    0.10    0.59 
   4  -2 -11    4.54    0.33 
   4  -2 -11    4.81    0.33 
   4  -2 -11    4.59    0.43 
   4  -2 -11    3.99    0.44 
   4   2 -11    5.16    0.33 
   4   2 -11    4.91    0.31 
  -4   2  11    5.17    0.31 
   3  -2 -11    0.39    0.13 
   3  -2 -11    0.48    0.16 
   3  -2 -11    0.42    0.12 
   3  -2 -11    0.40    0.14 
  -3  -2  11    0.35    0.09 
   3   2 -11    0.45    0.10 
   3   2 -11   -0.09    0.88 
  -3   2  11    0.32    0.12 
   3   2 -11    0.54    0.15 
  -3   2  11    0.29    0.08 
   3   2 -11    0.32    0.09 
   3   2 -11    0.41    0.12 
   3   2 -11    0.30    0.07 
   2  -2 -11    5.07    0.46 
   2  -2 -11    5.68    0.37 
   2  -2 -11    5.54    0.51 
   2   2 -11    5.89    0.36 
  -2   2  11    5.74    0.35 
   2   2 -11    5.45    0.45 
   2   2 -11    6.09    0.49 
   1  -2 -11    3.60    0.31 
  -1  -2  11    3.88    0.32 
   1  -2 -11    3.44    0.36 
   1  -2 -11    3.14    0.34 
   1   2 -11    4.09    0.35 
   0  -2  11   24.97    1.46 
   0  -2 -11   25.02    1.42 
   0  -2 -11   22.61    1.34 
   0   2 -11   24.85    1.55 
   0   2 -11   19.76    1.30 
   1  -2  11    6.12    0.46 
  -1  -2 -11    6.28    0.44 
   1  -2  11    5.57    0.44 
  -1  -2 -11    5.71    0.42 
  -1   2 -11    5.93    0.39 
  -1   2 -11    6.24    0.49 
   2  -2  11   13.93    0.75 
   2  -2  11   15.96    1.00 
  -2  -2 -11   15.76    0.95 
   2  -2  11   15.24    0.93 
  -2   2 -11   14.54    1.05 
   2   2  11   15.11    1.00 
   2   2  11   14.56    0.79 
  -2   2 -11   15.72    0.88 
   3  -2  11    5.21    0.39 
   3  -2  11    5.45    0.42 
  -3  -2 -11    4.83    0.36 
   3  -2  11    5.04    0.30 
   3   2  11    4.50    0.39 
  -3   2 -11    4.07    0.34 
   3   2  11    4.45    0.40 
  -3   2 -11    4.80    0.34 
   3   2  11    4.21    0.35 
  -3   2 -11    4.14    0.40 
   4  -2  11    0.07    0.08 
   4  -2  11    0.08    0.07 
   4  -2  11    0.12    0.06 
   4  -2  11    0.08    0.10 
  -4   2 -11    0.05    0.05 
   4   2  11    0.21    0.07 
   4   2  11    0.07    0.10 
   4   2  11    0.08    0.07 
   4   2  11    0.05    0.09 
   5  -2  11    0.54    0.12 
   5  -2  11    0.74    0.09 
   5   2  11    0.53    0.09 
   5   2  11    0.56    0.09 
   5   2  11    0.52    0.11 
   5  -3 -11    1.95    1.25 
   5  -3 -11    0.83    0.11 
   5  -3 -11    0.73    0.14 
   5   3 -11    0.53    0.74 
   5   3 -11    0.60    0.10 
   4  -3 -11    0.79    0.19 
   4  -3 -11    1.00    0.15 
   4  -3 -11    0.76    0.13 
   4  -3 -11    2.82    1.68 
   4  -3 -11    0.91    0.18 
  -4  -3  11    0.62    0.10 
   4   3 -11    0.70    0.09 
  -4   3  11    0.79    0.12 
   4   3 -11    0.11    0.90 
   4   3 -11    0.72    0.12 
  -3  -3  11    1.21    0.14 
   3  -3 -11    1.65    0.25 
   3  -3 -11    1.38    0.25 
   3  -3 -11    1.51    0.19 
   3  -3 -11    1.86    0.19 
   3   3 -11    1.30    0.13 
  -3   3  11    1.36    0.15 
   3   3 -11    1.47    0.16 
   3   3 -11    1.27    0.15 
   3   3 -11    0.74    1.07 
  -2  -3  11    4.89    0.43 
  -2  -3  11    4.73    0.30 
   2  -3 -11    5.03    0.46 
   2  -3 -11    4.85    0.47 
   2  -3 -11    5.28    0.41 
   2  -3 -11    5.23    0.36 
   2   3 -11    4.35    0.27 
   2   3 -11    4.22    0.39 
   2   3 -11    4.84    0.43 
  -2   3  11    4.94    0.33 
   1  -3 -11   26.20    1.38 
  -1  -3  11   27.72    1.67 
   1  -3 -11   23.20    1.52 
   1  -3 -11   26.97    1.61 
   1   3 -11   27.51    1.74 
  -1   3  11   26.15    1.35 
   0  -3  11    5.77    0.43 
   0  -3 -11    5.99    0.43 
   0  -3 -11    5.42    0.42 
   0   3 -11    4.55    0.42 
   0   3  11    4.56    0.34 
   1  -3  11    6.97    0.47 
   1  -3  11    7.09    0.49 
  -1  -3 -11    7.38    0.48 
  -1   3 -11    5.20    0.40 
   1   3  11    5.62    0.39 
  -1   3 -11    5.95    0.50 
   2  -3  11   37.84    2.30 
   2  -3  11   38.13    1.68 
  -2  -3 -11   39.63    2.23 
   2  -3  11   38.96    2.13 
  -2   3 -11   37.98    1.69 
  -2   3 -11   39.11    2.08 
   2   3  11   33.27    1.79 
  -2   3 -11   36.50    2.45 
   3  -3  11    4.44    0.24 
   3  -3  11    4.19    0.35 
   3  -3  11    4.64    0.29 
   3  -3  11    4.59    0.37 
  -3   3 -11    3.59    0.38 
  -3   3 -11    4.00    0.26 
   3   3  11    3.81    0.32 
   3   3  11    3.77    0.35 
   3   3  11    4.02    0.35 
  -3   3 -11    4.35    0.31 
   4  -3  11    3.50    0.23 
   4  -3  11    2.90    0.28 
   4  -3  11    2.88    0.26 
   4   3  11    3.15    0.22 
   4   3  11    3.11    0.26 
   4   3  11    3.26    0.29 
  -4   3 -11    3.07    0.23 
   4   3  11    3.28    0.28 
  -5  -3 -11    0.57    0.08 
   5  -3  11    0.46    0.11 
   5  -3  11    0.54    0.07 
   5   3  11    0.36    0.07 
   5   3  11    0.39    0.08 
   5   3  11    0.46    0.10 
   5  -4 -11    0.05    0.05 
   5  -4 -11    0.37    0.72 
  -5  -4  11    0.07    0.04 
   5   4 -11   -0.05    0.52 
   5   4 -11    0.07    0.05 
   5   4 -11    0.11    0.04 
   4  -4 -11    1.53    1.26 
   4  -4 -11    0.45    0.13 
   4  -4 -11    0.37    0.10 
  -4  -4  11    0.51    0.08 
   4   4 -11    0.26    0.08 
   4   4 -11    0.37    0.07 
   4   4 -11   -0.05    0.73 
   3  -4 -11    4.59    0.43 
  -3  -4  11    4.33    0.29 
   3  -4 -11    5.05    0.35 
   3  -4 -11    4.06    0.44 
   3  -4 -11    4.52    0.32 
  -3   4  11    5.13    0.33 
   3   4 -11    5.28    0.32 
   3   4 -11    4.96    0.27 
   2  -4 -11   10.49    0.72 
  -2  -4  11    9.54    0.53 
   2  -4 -11   11.02    0.62 
   2  -4 -11    9.79    0.72 
  -2   4  11   10.41    0.59 
   2   4 -11    9.84    0.50 
   2   4 -11    9.74    0.51 
   1  -4 -11    8.60    0.56 
   1  -4 -11    8.96    0.64 
  -1  -4  11    9.58    0.68 
  -1  -4  11    9.13    0.47 
   1  -4 -11    8.84    0.66 
  -1   4  11    9.14    0.54 
   1   4 -11    8.71    0.46 
   1   4 -11    8.80    0.66 
   0  -4 -11    6.76    0.52 
   0  -4  11    6.59    0.37 
   0  -4  11    6.51    0.53 
   0   4 -11    7.81    0.56 
   0   4  11    7.65    0.46 
   0   4 -11    7.02    0.38 
   1  -4  11    1.90    0.23 
   1  -4  11    2.01    0.16 
  -1  -4 -11    2.28    0.25 
  -1   4 -11    2.02    0.24 
  -1   4 -11    2.11    0.17 
   1   4  11    1.98    0.21 
   2  -4  11   11.87    0.56 
   2  -4  11   11.66    0.79 
   2  -4  11   11.75    0.63 
  -2  -4 -11   11.03    0.64 
  -2  -4 -11   12.13    0.78 
   2  -4  11   11.54    0.73 
   2   4  11   11.87    0.66 
  -2   4 -11   11.08    0.85 
   2   4  11   10.48    0.63 
  -2   4 -11   12.06    0.58 
  -2   4 -11   11.96    0.69 
   2   4  11   10.73    0.69 
   3  -4  11    3.02    0.20 
   3  -4  11    3.03    0.29 
   3  -4  11    2.62    0.28 
  -3  -4 -11    2.91    0.24 
   3  -4  11    3.12    0.23 
   3   4  11    3.55    0.30 
  -3   4 -11    3.02    0.32 
  -3   4 -11    3.31    0.25 
  -3   4 -11    3.39    0.21 
   3   4  11    3.35    0.27 
   4  -4  11    2.68    0.16 
   4  -4  11    2.72    0.19 
  -4  -4 -11    2.76    0.21 
   4  -4  11    2.39    0.23 
  -4   4 -11    2.81    0.17 
   4   4  11    3.12    0.25 
  -4   4 -11    2.74    0.20 
   4   4  11    2.89    0.22 
   5  -4  11    0.47    0.06 
  -5  -4 -11    0.55    0.07 
   5   4  11    0.47    0.08 
   5  -5 -11    1.32    0.81 
   5   5 -11    0.13    0.43 
   4  -5 -11    0.00    0.06 
   4  -5 -11    0.34    0.84 
   4  -5 -11    0.03    0.08 
  -4  -5  11    0.04    0.05 
   4   5 -11    0.04    0.04 
   4   5 -11    0.27    0.80 
   4   5 -11    0.06    0.05 
  -3  -5  11    1.38    0.14 
  -3  -5  11    1.06    0.20 
   3  -5 -11    1.20    0.21 
   3   5 -11    1.49    0.12 
   3   5 -11    0.34    0.93 
   2  -5 -11    1.74    0.26 
  -2  -5  11    1.78    0.17 
   2   5 -11    2.02    0.15 
  -2   5  11    1.89    0.20 
  -1  -5  11    1.07    0.12 
   1  -5 -11    1.33    0.16 
   1  -5 -11    1.26    0.22 
  -1  -5  11    1.01    0.19 
   1   5 -11    1.15    0.13 
  -1   5  11    1.52    0.20 
   1   5 -11    1.12    0.13 
   1   5 -11    0.12    0.87 
   0  -5  11   10.91    0.79 
   0  -5 -11   10.94    0.64 
   0  -5 -11   11.38    0.78 
   0   5 -11   11.52    0.55 
   0   5 -11   10.98    0.81 
   0   5  11   11.31    0.68 
   0   5  11   12.62    0.68 
  -1  -5 -11    1.73    0.22 
  -1  -5 -11    1.41    0.17 
   1  -5  11    1.43    0.19 
   1  -5  11    1.55    0.18 
  -1   5 -11    1.35    0.19 
  -1   5 -11    1.44    0.14 
   1   5  11    1.70    0.23 
   1   5  11    1.59    0.18 
   2  -5  11    3.85    0.28 
   2  -5  11    3.33    0.33 
  -2  -5 -11    3.40    0.28 
   2  -5  11    3.75    0.24 
  -2   5 -11    4.93    0.26 
  -2   5 -11    4.22    0.37 
   2   5  11    4.78    0.35 
   2   5  11    4.47    0.30 
   3  -5  11    0.43    0.11 
  -3  -5 -11    0.40    0.09 
   3  -5  11    0.31    0.07 
   3  -5  11    0.44    0.09 
   3   5  11    0.72    0.13 
  -3   5 -11    0.57    0.09 
  -3   5 -11    0.64    0.09 
   3   5  11    0.64    0.14 
   4  -5  11    0.52    0.08 
  -4  -5 -11    0.64    0.09 
  -4   5 -11    0.45    0.06 
   4   5  11    0.49    0.10 
   4   5  11    0.43    0.09 
   4  -6 -11    0.27    0.65 
  -4  -6  11    0.07    0.04 
   4   6 -11   -0.11    0.52 
   4   6 -11    0.10    0.04 
  -3  -6  11    0.03    0.05 
   3  -6 -11    0.07    0.09 
   3   6 -11    0.10    0.05 
   3   6 -11   -0.17    0.60 
  -2  -6  11    7.68    0.40 
  -2  -6  11    6.92    0.58 
   2  -6 -11    7.24    0.44 
   2   6 -11    8.08    0.39 
  -2   6  11    7.82    0.47 
  -1  -6  11    0.52    0.13 
   1  -6 -11    0.61    0.11 
  -1   6  11    0.55    0.13 
   1   6 -11    0.52    0.08 
   1   6 -11    0.07    0.77 
   0  -6 -11    2.81    0.23 
   0  -6  11    2.50    0.26 
   0  -6  11    2.79    0.24 
   0   6 -11    2.82    0.18 
   0   6  11    2.83    0.24 
   1  -6  11    0.31    0.10 
   1  -6  11    0.30    0.09 
  -1  -6 -11    0.42    0.11 
  -1   6 -11    0.34    0.07 
   1   6  11    0.51    0.12 
   1   6  11    0.44    0.13 
   2  -6  11    1.65    0.16 
  -2  -6 -11    1.66    0.16 
   2   6  11    1.43    0.15 
   2   6  11    1.41    0.18 
  -2   6 -11    1.22    0.12 
   3  -6  11    3.81    0.23 
  -3  -6 -11    3.53    0.24 
   3   6  11    3.51    0.26 
   3   6  11    3.31    0.23 
  -3   6 -11    3.54    0.20 
  -4  -6 -11    0.33    0.06 
   4  -6  11    0.26    0.05 
   4   6  11    0.21    0.06 
  -3  -7  11    0.14    0.04 
   3   7 -11    0.08    0.57 
   3   7 -11    0.11    0.04 
   2  -7 -11    2.68    0.20 
   2   7 -11    2.72    0.16 
   1  -7 -11    2.84    0.21 
  -1   7  11    2.69    0.22 
   0  -7  11    0.14    0.07 
   0  -7 -11    0.00    0.05 
   0   7 -11   -0.13    0.63 
   0   7  11    0.03    0.06 
   1  -7  11    1.73    0.16 
  -1  -7 -11    1.80    0.16 
  -1   7 -11    1.32    0.11 
   1   7  11    1.63    0.16 
   2  -7  11    1.48    0.13 
  -2  -7 -11    1.49    0.14 
  -2   7 -11    1.47    0.11 
   2   7  11    1.54    0.14 
  -3  -7 -11    2.79    0.18 
   3  -7  11    2.89    0.17 
  -3   7 -11    2.68    0.15 
   2   8 -11    0.24    0.53 
  -1  -8  11    0.29    0.07 
   1  -8 -11    0.39    0.07 
   1   8 -11    0.13    0.56 
   0  -8 -11    0.80    0.10 
   0  -8  11    0.65    0.09 
   0   8 -11    0.18    0.55 
   0   8  11    0.82    0.11 
  -1  -8 -11    0.12    0.05 
   1  -8  11    0.11    0.05 
   1   8  11    0.08    0.05 
   2  -8  11    0.99    0.08 
   6   0 -12    1.02    0.68 
   5   0 -12    4.92    0.31 
   5   0 -12    5.07    0.30 
   4   0 -12    3.22    0.37 
   4   0 -12    3.59    0.27 
   4   0 -12    5.92    1.62 
   4   0 -12    3.86    0.27 
   3   0 -12    7.76    0.64 
   3   0 -12    7.36    0.45 
   3   0 -12    7.24    0.42 
   2   0 -12    0.89    0.19 
   2   0 -12    0.82    0.16 
   2   0 -12    0.64    0.12 
   1   0 -12    2.19    0.25 
   1   0 -12    2.03    0.27 
   0   0 -12   32.00    1.85 
   0   0 -12   34.49    2.16 
  -1   0 -12    8.56    0.53 
   1   0  12    8.70    0.59 
  -1   0 -12    7.74    0.60 
  -1   0 -12    8.22    0.55 
  -2   0 -12   32.37    1.75 
   2   0  12   32.86    1.95 
  -2   0 -12   29.68    1.85 
   2   0  12   30.90    1.50 
  -3   0 -12    0.23    0.08 
   3   0  12    0.33    0.13 
   3   0  12    0.42    0.13 
   3   0  12    0.43    0.12 
  -3   0 -12    0.30    0.10 
   4   0  12    0.78    0.11 
   4   0  12    0.54    0.14 
  -4   0 -12    0.56    0.10 
   4   0  12    0.76    0.14 
   4   0  12    0.85    0.13 
   5   0  12    0.06    0.04 
   5   0  12    0.00    0.07 
   5  -1 -12    1.52    0.15 
   5  -1 -12    1.73    0.16 
   5  -1 -12    3.89    1.61 
   5   1 -12    1.47    0.15 
  -5   1  12    1.56    0.14 
   5   1 -12    3.42    1.56 
   5   1 -12    1.45    0.14 
   4  -1 -12    1.19    0.23 
   4  -1 -12    1.18    0.17 
   4  -1 -12    4.29    1.94 
   4  -1 -12    1.48    0.17 
   4   1 -12    1.12    0.22 
   4   1 -12    0.93    1.04 
   4   1 -12    1.23    0.16 
   4   1 -12    1.24    0.16 
   3  -1 -12    0.91    0.14 
   3  -1 -12    0.84    0.14 
   3  -1 -12    2.86    1.53 
   3  -1 -12    1.12    0.21 
   3  -1 -12    0.69    0.18 
   3   1 -12    0.84    0.14 
   3   1 -12    0.96    0.14 
   3   1 -12    0.93    1.10 
   3   1 -12    0.96    0.20 
   2  -1 -12   15.32    0.94 
   2  -1 -12   14.43    0.81 
   2  -1 -12   15.46    1.10 
  -2  -1  12   14.39    0.72 
   2   1 -12   16.54    1.09 
   2   1 -12   14.20    0.72 
   2   1 -12   14.77    0.80 
  -2   1  12   14.75    0.79 
   1  -1 -12    3.88    0.38 
   1  -1 -12    3.43    0.35 
   1   1 -12    4.73    0.39 
   1   1 -12    4.03    0.34 
   0  -1  12   13.40    0.80 
   0  -1 -12   12.78    0.87 
   0  -1 -12   12.55    0.78 
   0  -1 -12   12.19    0.75 
   0   1 -12   10.73    0.84 
   0   1 -12   10.92    0.73 
  -1  -1 -12   35.44    1.92 
   1  -1  12   36.84    2.10 
  -1  -1 -12   36.59    2.04 
  -1   1 -12   31.04    2.21 
  -1   1 -12   32.48    1.91 
   2  -1  12   13.93    0.70 
  -2  -1 -12   13.23    0.84 
   2  -1  12   13.90    0.91 
  -2  -1 -12   13.25    0.80 
   2  -1  12   13.58    0.84 
   2   1  12   13.10    0.71 
  -2   1 -12   12.61    0.83 
  -2   1 -12   12.16    0.92 
   2   1  12   13.88    0.90 
  -2   1 -12   14.19    0.79 
   3  -1  12    2.18    0.18 
   3  -1  12    2.11    0.26 
   3  -1  12    2.46    0.25 
   3  -1  12    2.24    0.23 
  -3  -1 -12    2.20    0.22 
   3   1  12    1.56    0.24 
  -3   1 -12    2.13    0.21 
   3   1  12    2.06    0.24 
   3   1  12    2.37    0.25 
   4  -1  12    0.25    0.10 
   4  -1  12    0.29    0.12 
   4  -1  12    0.45    0.12 
   4  -1  12    0.32    0.08 
   4   1  12    0.43    0.11 
  -4   1 -12    0.26    0.07 
   4   1  12    0.27    0.07 
   4   1  12    0.30    0.12 
   4   1  12    0.45    0.11 
   5  -1  12    0.43    0.10 
   5  -1  12    0.52    0.08 
   5   1  12    0.54    0.10 
   5   1  12    0.52    0.08 
   5  -2 -12    4.19    0.26 
   5   2 -12    4.43    1.27 
   4  -2 -12    4.49    0.31 
   4  -2 -12    4.97    0.31 
   4  -2 -12    4.14    0.38 
   4   2 -12    2.20    1.36 
   4   2 -12    4.71    0.31 
   4   2 -12    4.13    0.28 
  -4   2  12    4.23    0.29 
   3  -2 -12    2.80    0.24 
   3  -2 -12    2.86    0.36 
  -3  -2  12    2.53    0.20 
   3  -2 -12    2.54    0.23 
   3  -2 -12    2.69    0.33 
   3   2 -12    2.81    0.18 
   3   2 -12    3.02    0.23 
  -3   2  12    2.54    0.21 
   3   2 -12    1.04    1.11 
   3   2 -12    2.70    0.31 
   3   2 -12    2.71    0.22 
   2  -2 -12    0.11    0.11 
   2  -2 -12    0.13    0.10 
  -2  -2  12    0.08    0.06 
   2  -2 -12    0.17    0.09 
  -2   2  12    0.11    0.06 
   2   2 -12    0.11    0.09 
   2   2 -12    0.08    0.08 
   2   2 -12    0.19    0.07 
   1  -2 -12   14.37    1.03 
  -1  -2  12   14.14    0.69 
   1  -2 -12   13.91    0.89 
   1  -2 -12   14.12    0.79 
  -1  -2  12   15.71    0.94 
   1  -2 -12   14.03    0.91 
  -1   2  12   13.38    0.76 
   1   2 -12   14.83    1.01 
   1   2 -12   13.61    0.69 
   0  -2 -12    2.50    0.25 
   0  -2 -12    2.08    0.28 
   0  -2  12    2.62    0.25 
   0  -2 -12    2.30    0.22 
   0   2  12    2.18    0.20 
   0   2 -12    2.12    0.24 
   0   2 -12    2.23    0.24 
   1  -2  12    9.80    0.68 
  -1  -2 -12    9.22    0.62 
   1  -2  12    9.39    0.50 
  -1  -2 -12    9.64    0.65 
  -1   2 -12    9.60    0.60 
  -1   2 -12   10.01    0.71 
   1   2  12    9.96    0.55 
  -2  -2 -12   32.42    1.90 
  -2  -2 -12   30.33    1.78 
   2  -2  12   30.22    1.51 
   2  -2  12   31.38    1.97 
   2  -2  12   32.46    1.83 
   2   2  12   32.36    1.54 
  -2   2 -12   35.23    1.78 
  -2   2 -12   31.14    2.08 
   3  -2  12    5.39    0.43 
   3  -2  12    4.61    0.31 
   3  -2  12    5.30    0.40 
   3   2  12    5.50    0.40 
  -3   2 -12    4.62    0.42 
  -3   2 -12    5.55    0.36 
   3   2  12    5.44    0.43 
   3   2  12    5.21    0.37 
   4  -2  12    0.06    0.05 
   4  -2  12    0.06    0.08 
  -4   2 -12    0.15    0.06 
   4   2  12    0.29    0.07 
   4   2  12    0.25    0.10 
   4   2  12    0.15    0.09 
   5  -2  12    0.09    0.07 
   5  -2  12    0.05    0.04 
   5   2  12    0.03    0.04 
   5   2  12   -0.02    0.05 
   5  -3 -12    1.03    0.11 
   5  -3 -12    3.13    1.31 
   5   3 -12    1.22    0.81 
  -4  -3  12    0.54    0.09 
   4  -3 -12    2.13    1.37 
   4  -3 -12    0.49    0.11 
   4  -3 -12    0.69    0.15 
   4  -3 -12    0.63    0.11 
   4   3 -12    0.63    0.08 
  -4   3  12    0.72    0.11 
   4   3 -12    0.03    0.76 
   4   3 -12    0.63    0.11 
   3  -3 -12    0.99    0.19 
   3  -3 -12    1.12    0.17 
  -3  -3  12    0.77    0.11 
   3  -3 -12    1.05    0.15 
   3  -3 -12    0.86    0.20 
   3   3 -12    0.68    0.12 
   3   3 -12    0.16    0.88 
  -3   3  12    0.70    0.12 
   3   3 -12    0.65    0.09 
   2  -3 -12    4.67    0.45 
   2  -3 -12    4.32    0.40 
   2  -3 -12    4.45    0.46 
   2  -3 -12    4.73    0.35 
  -2  -3  12    4.52    0.30 
   2   3 -12    5.24    0.28 
  -2   3  12    5.37    0.34 
   2   3 -12    5.39    0.45 
   2   3 -12    5.31    0.31 
   1  -3 -12   10.90    0.73 
  -1  -3  12   12.38    0.77 
  -1  -3  12   10.95    0.55 
   1  -3 -12   10.97    0.74 
   1  -3 -12   10.48    0.63 
   1   3 -12   10.27    0.78 
   1   3 -12   10.11    0.54 
  -1   3  12   10.15    0.61 
   0  -3 -12    1.27    0.19 
   0  -3  12    0.86    0.10 
   0  -3  12    1.22    0.17 
   0   3  12    0.89    0.15 
   0   3 -12    0.64    0.14 
   1  -3  12    3.01    0.30 
   1  -3  12    3.02    0.23 
  -1  -3 -12    3.00    0.30 
  -1   3 -12    3.24    0.27 
   1   3  12    3.46    0.26 
  -1   3 -12    3.68    0.22 
  -1   3 -12    3.63    0.33 
   2  -3  12    2.72    0.27 
  -2  -3 -12    2.57    0.26 
   2  -3  12    3.02    0.30 
   2  -3  12    2.34    0.20 
   2   3  12    2.48    0.27 
  -2   3 -12    2.83    0.19 
  -2   3 -12    2.42    0.28 
  -2   3 -12    2.94    0.24 
   2   3  12    2.31    0.26 
   3  -3  12    0.84    0.15 
   3  -3  12    0.75    0.11 
   3  -3  12    0.96    0.16 
   3   3  12    0.90    0.17 
  -3   3 -12    0.79    0.16 
  -3   3 -12    0.89    0.10 
   3   3  12    1.17    0.18 
  -3   3 -12    1.23    0.15 
   4  -3  12    0.38    0.08 
   4  -3  12    0.35    0.09 
  -4   3 -12    0.35    0.06 
   4   3  12    0.45    0.11 
   5  -3  12    1.57    0.11 
  -5  -3 -12    1.54    0.11 
   5   3  12    1.51    0.13 
   5  -4 -12    0.38    0.65 
   5  -4 -12    0.05    0.04 
   5   4 -12    0.07    0.39 
  -4  -4  12    1.77    0.14 
   4  -4 -12    1.52    0.15 
   4  -4 -12    1.47    0.19 
   4  -4 -12    4.37    1.67 
   4   4 -12    1.43    0.14 
   4   4 -12    1.76    0.12 
   4   4 -12    0.75    0.95 
   3  -4 -12    4.50    0.40 
   3  -4 -12    4.17    0.32 
  -3  -4  12    4.48    0.28 
   3   4 -12    4.54    0.30 
  -3   4  12    4.58    0.31 
   3   4 -12    4.69    0.26 
   2  -4 -12    1.66    0.19 
   2  -4 -12    1.45    0.22 
   2  -4 -12    1.52    0.24 
  -2  -4  12    1.59    0.16 
  -2  -4  12    1.46    0.21 
   2   4 -12    1.56    0.14 
  -2   4  12    1.62    0.17 
   2   4 -12    0.54    1.02 
   2   4 -12    1.53    0.16 
  -1  -4  12   10.37    0.51 
   1  -4 -12    9.88    0.70 
  -1  -4  12   10.10    0.72 
   1  -4 -12   10.03    0.70 
   1   4 -12    9.98    0.50 
   1   4 -12    9.29    0.50 
   1   4 -12    9.99    0.74 
  -1   4  12    9.99    0.59 
   0  -4  12    2.38    0.18 
   0  -4 -12    2.44    0.26 
   0  -4  12    2.32    0.25 
   0   4  12    2.22    0.21 
   0   4 -12    2.07    0.17 
   0   4  12    2.07    0.23 
   0   4 -12    2.09    0.24 
   1  -4  12    7.22    0.52 
  -1  -4 -12    6.80    0.41 
  -1  -4 -12    7.19    0.51 
   1   4  12    6.04    0.44 
  -1   4 -12    6.29    0.35 
   1   4  12    6.61    0.43 
  -1   4 -12    6.32    0.52 
   2  -4  12    3.24    0.30 
   2  -4  12    2.97    0.28 
   2  -4  12    3.26    0.22 
  -2  -4 -12    2.96    0.23 
   2   4  12    2.78    0.27 
  -2   4 -12    2.75    0.24 
  -2   4 -12    2.49    0.28 
   2   4  12    2.66    0.26 
  -2   4 -12    2.69    0.20 
   3  -4  12    0.67    0.11 
   3  -4  12    0.87    0.15 
   3  -4  12    0.68    0.14 
  -3  -4 -12    0.76    0.12 
  -3   4 -12    1.20    0.14 
  -3   4 -12    1.18    0.11 
   3   4  12    1.18    0.17 
   3   4  12    1.18    0.16 
   4  -4  12    1.03    0.10 
  -4  -4 -12    0.93    0.11 
   4   4  12    0.75    0.13 
   4   4  12    0.86    0.12 
  -4  -5  12    1.46    0.11 
   4   5 -12    1.34    0.10 
   3  -5 -12    1.99    0.25 
  -3  -5  12    2.23    0.16 
  -3   5  12    2.02    0.19 
   3   5 -12    2.17    0.15 
   2  -5 -12    1.81    0.25 
  -2  -5  12    1.90    0.16 
  -2  -5  12    1.77    0.22 
  -2   5  12    1.69    0.18 
   2   5 -12    0.43    0.96 
   2   5 -12    1.46    0.14 
  -1  -5  12    0.25    0.07 
  -1  -5  12    0.31    0.11 
   1   5 -12    0.38    0.08 
   1   5 -12    0.41    0.08 
  -1   5  12    0.49    0.12 
   1   5 -12   -0.19    0.71 
   0  -5 -12    0.12    0.07 
   0  -5  12    0.15    0.08 
   0   5 -12    0.05    0.06 
   0   5  12    0.10    0.08 
   0   5 -12    0.05    0.06 
  -1  -5 -12    1.68    0.17 
   1  -5  12    1.64    0.17 
   1  -5  12    1.55    0.20 
   1   5  12    1.89    0.21 
  -1   5 -12    1.86    0.15 
   1   5  12    1.86    0.19 
  -1   5 -12    1.85    0.21 
   2  -5  12    2.43    0.20 
   2  -5  12    2.22    0.24 
  -2  -5 -12    2.67    0.21 
  -2   5 -12    2.77    0.18 
   2   5  12    2.68    0.21 
   2   5  12    2.86    0.25 
   3  -5  12    1.08    0.15 
  -3  -5 -12    0.96    0.12 
   3  -5  12    0.98    0.12 
   3   5  12    1.17    0.16 
   3   5  12    1.12    0.14 
  -3   5 -12    1.15    0.10 
  -4  -5 -12    3.07    0.19 
   4  -5  12    3.02    0.18 
   4   5  12    2.91    0.21 
   4   6 -12   -0.05    0.46 
  -3  -6  12    2.85    0.17 
   3   6 -12    2.70    0.16 
  -2  -6  12    0.59    0.08 
  -2   6  12    0.61    0.12 
   2   6 -12    0.00    0.68 
   2   6 -12    0.61    0.08 
  -1  -6  12    0.53    0.12 
   1  -6 -12    0.56    0.10 
  -1  -6  12    0.50    0.08 
  -1   6  12    0.57    0.12 
   1   6 -12   -0.10    0.66 
   1   6 -12    0.51    0.08 
   0  -6 -12    5.67    0.35 
   0  -6  12    5.46    0.35 
   0  -6  12    4.85    0.42 
   0   6 -12    5.68    0.30 
   0   6  12    6.04    0.38 
   1  -6  12    0.14    0.08 
   1  -6  12    0.20    0.07 
  -1  -6 -12    0.19    0.08 
   1   6  12    0.29    0.09 
  -1   6 -12    0.24    0.06 
   2  -6  12    1.35    0.13 
  -2  -6 -12    1.38    0.14 
   2   6  12    1.52    0.14 
   2   6  12    1.57    0.17 
  -2   6 -12    1.55    0.12 
  -3  -6 -12    0.30    0.07 
   3  -6  12    0.37    0.06 
   3   6  12    0.29    0.08 
  -3   6 -12    0.27    0.05 
   3   7 -12    0.11    0.49 
   2   7 -12    0.32    0.66 
   1  -7 -12    1.51    0.13 
  -1   7  12    1.49    0.15 
   0  -7  12    0.16    0.06 
   0  -7 -12    0.20    0.07 
   0   7  12    0.17    0.07 
   1  -7  12    0.68    0.09 
  -1  -7 -12    0.71    0.10 
   1   7  12    0.69    0.10 
  -1   7 -12    0.62    0.07 
   2  -7  12    0.74    0.08 
  -2  -7 -12    0.70    0.09 
   2   7  12    0.82    0.09 
  -2   7 -12    0.75    0.07 
   1   8 -12    0.03    0.45 
   0  -8  12    1.58    0.12 
   0  -8 -12    1.71    0.13 
  -1  -8 -12    1.35    0.10 
   5   0 -13    2.53    0.17 
   5   0 -13    2.50    0.18 
  -5   0  13    2.26    0.17 
   4   0 -13    0.09    0.08 
   4   0 -13    0.27    0.74 
   4   0 -13   -0.03    0.07 
   3   0 -13    6.86    0.40 
   3   0 -13    7.27    0.44 
   3   0 -13    6.95    0.60 
   2   0 -13    2.13    0.20 
   2   0 -13    2.20    0.32 
   2   0 -13    2.42    0.29 
   2   0 -13    1.92    0.20 
   1   0 -13    0.30    0.10 
   1   0 -13    0.24    0.10 
   1   0 -13    0.18    0.10 
  -1   0  13    0.14    0.06 
   0   0  13   19.37    0.95 
   0   0 -13   19.63    1.34 
   0   0 -13   20.02    1.15 
  -1   0 -13   12.35    0.90 
   1   0  13   13.98    0.68 
   1   0  13   12.47    0.86 
  -1   0 -13   13.09    0.79 
   2   0  13    8.69    0.62 
  -2   0 -13    8.04    0.57 
  -2   0 -13    9.20    0.56 
   2   0  13    8.69    0.50 
   3   0  13    2.06    0.22 
   3   0  13    1.82    0.22 
  -3   0 -13    1.98    0.20 
  -4   0 -13    1.15    0.14 
   4   0  13    1.11    0.11 
   4   0  13    1.31    0.15 
   4   0  13    0.90    0.16 
   5   0  13    0.04    0.03 
   5   0  13    0.04    0.06 
   5  -1 -13    0.29    0.07 
   5  -1 -13    1.16    0.93 
   5  -1 -13    0.26    0.07 
  -5   1  13    0.30    0.07 
   5   1 -13    0.56    0.71 
   5   1 -13    0.31    0.07 
   5   1 -13    0.24    0.07 
   4  -1 -13    0.47    0.11 
   4  -1 -13    0.58    0.11 
   4  -1 -13    1.39    1.16 
   4   1 -13    0.56    0.11 
   4   1 -13    0.43    0.69 
  -4   1  13    0.47    0.09 
   4   1 -13    0.40    0.10 
   3  -1 -13    2.36    0.30 
   3  -1 -13    2.26    0.21 
   3  -1 -13    2.49    0.22 
   3  -1 -13    2.26    0.33 
  -3   1  13    2.47    0.20 
   3   1 -13    2.43    0.21 
   3   1 -13    2.42    0.29 
   3   1 -13    2.22    1.36 
   3   1 -13    2.37    0.21 
   2  -1 -13    1.81    0.18 
   2  -1 -13    2.32    0.27 
  -2  -1  13    2.01    0.16 
   2  -1 -13    2.06    0.19 
   2  -1 -13    2.01    0.26 
   2   1 -13    1.42    0.15 
   2   1 -13    1.46    0.23 
   2   1 -13    1.34    0.16 
  -2   1  13    1.55    0.16 
   2   1 -13    1.53    0.17 
   1  -1 -13    2.20    0.26 
   1  -1 -13    2.04    0.27 
   1  -1 -13    2.11    0.21 
  -1  -1  13    2.26    0.18 
   1   1 -13    2.30    0.28 
  -1   1  13    2.53    0.20 
   1   1 -13    2.55    0.28 
   0  -1 -13   31.03    2.10 
   0  -1  13   31.60    1.50 
   0  -1 -13   31.65    1.82 
   0   1 -13   32.22    2.10 
   0   1 -13   33.43    1.81 
   0   1  13   32.90    1.51 
  -1  -1 -13   53.94    3.13 
   1  -1  13   55.00    3.22 
  -1  -1 -13   57.29    2.97 
   1  -1  13   57.01    2.48 
  -1   1 -13   46.34    3.41 
   1   1  13   54.37    2.50 
  -1   1 -13   53.86    2.96 
  -2  -1 -13   13.25    0.82 
   2  -1  13   13.12    0.91 
  -2  -1 -13   13.38    0.87 
   2  -1  13   13.29    0.71 
  -2   1 -13   15.79    0.82 
  -2   1 -13   12.40    0.94 
   2   1  13   14.36    0.73 
   2   1  13   14.10    0.92 
   3  -1  13    4.27    0.29 
   3  -1  13    4.11    0.26 
  -3  -1 -13    4.36    0.31 
   3  -1  13    4.45    0.36 
   3   1  13    3.81    0.33 
   3   1  13    3.80    0.34 
  -3   1 -13    3.70    0.29 
   3   1  13    4.12    0.31 
   4  -1  13    0.49    0.08 
   4  -1  13    0.57    0.12 
   4   1  13    0.43    0.11 
  -4   1 -13    0.36    0.08 
   4   1  13    0.47    0.10 
   4   1  13    0.49    0.08 
   5  -1  13    0.64    0.07 
   5   1  13    0.68    0.10 
   5  -2 -13    6.04    1.45 
   5   2 -13    5.27    1.71 
   4  -2 -13    1.11    0.19 
   4  -2 -13    3.88    1.61 
   4  -2 -13    1.24    0.15 
   4  -2 -13    1.23    0.15 
   4   2 -13    1.25    0.14 
  -4   2  13    1.20    0.13 
   4   2 -13    1.23    0.14 
   4   2 -13    0.94    0.96 
   3  -2 -13    2.89    0.25 
  -3  -2  13    3.17    0.20 
   3  -2 -13    3.09    0.25 
   3  -2 -13    2.60    0.33 
   3  -2 -13    3.15    0.35 
   3   2 -13    3.12    0.24 
   3   2 -13    3.06    0.33 
   3   2 -13    3.08    0.23 
   3   2 -13    1.91    1.25 
   3   2 -13    3.31    0.20 
  -3   2  13    2.73    0.22 
   2  -2 -13    2.03    0.27 
  -2  -2  13    1.85    0.16 
   2  -2 -13    1.90    0.26 
   2  -2 -13    1.73    0.19 
   2  -2 -13    1.88    0.20 
   2   2 -13    1.77    0.18 
  -2   2  13    1.65    0.17 
   2   2 -13    1.84    0.16 
   2   2 -13    1.88    0.24 
   1  -2 -13    6.72    0.52 
  -1  -2  13    7.15    0.37 
   1  -2 -13    6.36    0.56 
   1  -2 -13    6.95    0.44 
  -1   2  13    6.99    0.42 
   1   2 -13    6.44    0.37 
   1   2 -13    6.66    0.55 
   1   2 -13    6.59    0.37 
   0  -2  13   20.29    0.97 
   0  -2  13   20.77    1.28 
   0  -2 -13   20.23    1.25 
   0  -2 -13   21.34    1.09 
   0  -2 -13   20.12    1.20 
   0   2 -13   19.88    1.37 
   0   2  13   20.20    1.06 
   0   2 -13   19.68    0.94 
   0   2 -13   19.97    1.17 
  -1  -2 -13    3.76    0.33 
   1  -2  13    3.71    0.32 
   1  -2  13    3.96    0.26 
  -1  -2 -13    4.17    0.33 
  -1   2 -13    3.08    0.32 
  -1   2 -13    3.41    0.23 
  -1   2 -13    3.61    0.31 
   1   2  13    3.42    0.28 
  -2  -2 -13    0.68    0.14 
   2  -2  13    0.66    0.15 
   2  -2  13    0.65    0.12 
  -2  -2 -13    0.82    0.13 
  -2   2 -13    0.84    0.13 
   2   2  13    1.07    0.17 
  -2   2 -13    0.98    0.16 
   2   2  13    0.90    0.17 
   3  -2  13    0.90    0.12 
   3  -2  13    1.04    0.16 
   3   2  13    0.97    0.16 
   3   2  13    1.30    0.18 
   3   2  13    0.97    0.17 
  -3   2 -13    0.98    0.13 
   4  -2  13    0.73    0.09 
  -4   2 -13    0.41    0.07 
   4   2  13    0.70    0.12 
   4   2  13    0.68    0.13 
   5  -3 -13    0.95    0.09 
   5   3 -13    1.04    0.68 
   4  -3 -13    0.19    0.10 
   4  -3 -13    0.21    0.08 
   4  -3 -13    0.61    0.84 
  -4  -3  13    0.19    0.05 
   4  -3 -13    0.20    0.07 
  -4   3  13    0.19    0.07 
   4   3 -13    0.13    0.07 
   4   3 -13    0.24    0.80 
   4   3 -13    0.18    0.06 
   3  -3 -13    1.55    0.23 
  -3  -3  13    1.41    0.14 
   3  -3 -13    1.39    0.17 
   3  -3 -13    1.62    0.18 
   3   3 -13    1.61    0.14 
  -3   3  13    1.52    0.16 
   3   3 -13    1.58    0.16 
   3   3 -13    1.71    0.16 
   3   3 -13    0.79    0.98 
  -2  -3  13    9.81    0.48 
   2  -3 -13    8.46    0.73 
   2  -3 -13    9.21    0.56 
   2  -3 -13   10.39    0.67 
  -2   3  13    8.64    0.53 
   2   3 -13    9.81    0.47 
   2   3 -13    8.71    0.70 
   2   3 -13    8.75    0.48 
   1  -3 -13    4.64    0.42 
  -1  -3  13    5.11    0.38 
  -1  -3  13    4.76    0.27 
   1  -3 -13    4.99    0.34 
   1  -3 -13    4.48    0.37 
   1   3 -13    3.65    0.26 
  -1   3  13    4.07    0.31 
   1   3 -13    3.75    0.26 
   1   3 -13    4.03    0.39 
   0  -3 -13    2.28    0.25 
   0  -3  13    2.41    0.18 
   0  -3 -13    2.49    0.30 
   0  -3  13    2.14    0.23 
   0   3 -13    1.85    0.23 
   0   3  13    1.98    0.20 
   0   3 -13    1.81    0.16 
   1  -3  13   14.84    1.02 
  -1  -3 -13   14.84    0.99 
   1  -3  13   15.01    0.76 
  -1  -3 -13   15.18    0.94 
  -1   3 -13   16.44    0.91 
  -1   3 -13   15.92    1.09 
  -1   3 -13   16.82    0.74 
  -2  -3 -13    2.13    0.19 
   2  -3  13    2.23    0.24 
   2  -3  13    2.23    0.19 
  -2   3 -13    2.37    0.26 
  -2   3 -13    2.55    0.23 
   2   3  13    2.31    0.24 
  -2   3 -13    2.48    0.17 
   2   3  13    2.45    0.24 
   3  -3  13    2.51    0.25 
  -3  -3 -13    2.66    0.21 
   3  -3  13    2.56    0.25 
   3  -3  13    2.54    0.19 
  -3   3 -13    2.72    0.21 
   3   3  13    2.65    0.24 
   3   3  13    2.94    0.24 
  -4  -3 -13    1.71    0.14 
   4  -3  13    1.64    0.13 
   4   3  13    1.67    0.16 
   4   3  13    1.73    0.16 
   4  -4 -13    0.05    0.58 
   4  -4 -13   -0.01    0.05 
  -4  -4  13    0.03    0.04 
   4   4 -13    0.04    0.04 
   4   4 -13    0.02    0.05 
   4   4 -13    0.02    0.67 
  -3  -4  13    1.77    0.15 
   3  -4 -13    1.35    0.17 
   3  -4 -13    1.85    0.23 
   3   4 -13    1.65    0.13 
  -3   4  13    1.50    0.16 
   2  -4 -13    0.07    0.09 
   2  -4 -13    0.07    0.11 
  -2  -4  13    0.05    0.07 
  -2  -4  13    0.07    0.06 
   2   4 -13    0.06    0.79 
   2   4 -13    0.11    0.06 
   2   4 -13    0.03    0.06 
  -2   4  13    0.11    0.07 
  -1  -4  13    2.75    0.19 
   1  -4 -13    2.31    0.33 
  -1  -4  13    2.32    0.25 
   1   4 -13    2.32    0.26 
   1   4 -13    2.49    0.19 
  -1   4  13    2.62    0.22 
   1   4 -13    2.53    0.18 
   0  -4  13    4.91    0.43 
   0  -4  13    5.54    0.31 
   0   4 -13    5.22    0.45 
   0   4 -13    5.46    0.31 
   0   4  13    6.42    0.38 
   1  -4  13    8.16    0.62 
  -1  -4 -13    8.32    0.50 
   1   4  13    8.64    0.54 
  -1   4 -13    9.00    0.67 
  -1   4 -13    9.44    0.45 
   1   4  13    9.70    0.54 
   2  -4  13    0.96    0.16 
  -2  -4 -13    1.19    0.14 
   2  -4  13    1.07    0.13 
  -2   4 -13    1.56    0.17 
   2   4  13    1.44    0.19 
  -2   4 -13    1.56    0.13 
   2   4  13    1.65    0.19 
   3  -4  13    3.51    0.22 
  -3  -4 -13    3.55    0.24 
   3   4  13    3.75    0.25 
  -3   4 -13    3.21    0.24 
  -3   4 -13    3.21    0.20 
   3   4  13    3.52    0.27 
  -4  -4 -13    2.06    0.15 
   4  -4  13    2.12    0.14 
   4   4  13    2.00    0.17 
   4   5 -13   -0.06    0.49 
   3  -5 -13    0.33    0.11 
  -3  -5  13    0.36    0.07 
   3   5 -13    0.31    0.75 
  -3   5  13    0.37    0.09 
   3   5 -13    0.36    0.06 
  -2  -5  13    2.07    0.22 
  -2  -5  13    2.23    0.16 
   2  -5 -13    1.89    0.26 
  -2   5  13    2.27    0.20 
   2   5 -13    2.22    0.16 
   2   5 -13    0.72    0.90 
  -1  -5  13    0.31    0.07 
  -1  -5  13    0.16    0.08 
   1   5 -13    0.16    0.06 
   1   5 -13    0.13    0.07 
  -1   5  13    0.24    0.09 
   0  -5  13    3.81    0.34 
   0  -5 -13    3.94    0.27 
   0  -5  13    3.84    0.24 
   0   5  13    4.29    0.30 
   0   5 -13    4.29    0.24 
   1  -5  13    0.85    0.12 
  -1  -5 -13    0.80    0.12 
   1  -5  13    0.94    0.15 
  -1   5 -13    0.87    0.10 
   1   5  13    1.01    0.16 
   1   5  13    1.01    0.15 
  -2  -5 -13    3.63    0.24 
   2  -5  13    3.79    0.23 
  -2   5 -13    3.45    0.21 
   2   5  13    3.46    0.27 
   2   5  13    3.37    0.24 
  -3  -5 -13    0.74    0.09 
   3  -5  13    0.66    0.08 
  -3   5 -13    0.47    0.07 
   3   5  13    0.64    0.11 
  -3  -6  13    1.01    0.08 
   3   6 -13    0.26    0.62 
   3   6 -13    0.98    0.08 
  -2  -6  13    0.12    0.05 
   2   6 -13    0.08    0.65 
   2   6 -13    0.06    0.05 
  -2   6  13    0.08    0.06 
  -1  -6  13    0.90    0.10 
   1  -6 -13    0.83    0.10 
   1   6 -13    0.98    0.10 
  -1   6  13    1.08    0.15 
   1   6 -13    0.38    0.77 
   0  -6 -13    3.25    0.23 
   0   6  13    3.62    0.26 
   0   6 -13    3.22    0.20 
   1  -6  13    1.12    0.12 
  -1  -6 -13    1.22    0.12 
   1   6  13    1.06    0.13 
  -1   6 -13    1.29    0.11 
  -2  -6 -13    1.63    0.13 
   2  -6  13    1.42    0.12 
  -2   6 -13    1.35    0.11 
   2   6  13    1.28    0.12 
  -3  -6 -13    0.48    0.07 
   3  -6  13    0.39    0.06 
   2   7 -13    0.05    0.49 
   1  -7 -13    0.28    0.06 
   1   7 -13   -0.10    0.50 
  -1   7  13    0.25    0.07 
   0  -7 -13    0.34    0.07 
   0   7  13    0.49    0.08 
   1  -7  13    0.56    0.07 
  -1  -7 -13    0.63    0.08 
   1   7  13    0.63    0.08 
  -1   7 -13    0.60    0.07 
  -2  -7 -13    0.07    0.04 
   5   0 -14    0.43    0.07 
   5   0 -14    0.85    0.70 
   4   0 -14    0.01    0.58 
  -4   0  14    0.08    0.06 
   4   0 -14    0.04    0.06 
   4   0 -14    0.00    0.06 
   3   0 -14   -0.06    0.07 
   3   0 -14    0.06    0.08 
  -3   0  14    0.05    0.06 
   3   0 -14    0.02    0.07 
   2   0 -14   12.40    0.93 
   2   0 -14   11.93    0.62 
   2   0 -14   12.23    0.69 
   2   0 -14   12.69    0.80 
  -2   0  14   12.48    0.67 
   1   0 -14    0.00    0.08 
  -1   0  14    0.00    0.06 
   1   0 -14    0.01    0.07 
   1   0 -14   -0.01    0.07 
   0   0 -14    1.60    0.22 
   0   0  14    1.75    0.18 
   0   0 -14    1.85    0.22 
  -1   0 -14    7.38    0.50 
   1   0  14    7.18    0.43 
   2   0  14    2.07    0.22 
  -2   0 -14    2.00    0.22 
   2   0  14    1.97    0.21 
   3   0  14    0.19    0.09 
   3   0  14    0.06    0.06 
  -3   0 -14    0.05    0.06 
   4   0  14    0.21    0.08 
   4   0  14    0.23    0.07 
   5  -1 -14    0.05    0.47 
   5  -1 -14    0.01    0.04 
   5   1 -14    0.03    0.47 
   4  -1 -14    0.46    0.10 
   4  -1 -14    0.40    0.10 
   4  -1 -14    1.66    1.10 
   4   1 -14    1.14    0.90 
  -4   1  14    0.44    0.08 
   4   1 -14    0.43    0.09 
   4   1 -14    0.45    0.10 
   3  -1 -14    2.00    0.19 
   3  -1 -14    2.00    0.25 
   3  -1 -14    1.71    0.25 
   3  -1 -14    2.00    0.18 
  -3   1  14    1.55    0.16 
   3   1 -14    1.40    0.16 
   3   1 -14    1.73    0.17 
   3   1 -14    1.44    0.23 
   3   1 -14    1.52    1.06 
   2  -1 -14    2.42    0.30 
   2  -1 -14    2.34    0.22 
  -2  -1  14    2.39    0.17 
   2  -1 -14    2.29    0.21 
   2  -1 -14    2.56    0.33 
   2   1 -14    2.41    0.20 
   2   1 -14    2.52    0.30 
   2   1 -14    2.47    0.21 
  -2   1  14    2.39    0.20 
  -1  -1  14   10.06    0.52 
   1  -1 -14   10.24    0.68 
   1  -1 -14   10.09    0.78 
   1  -1 -14    9.63    0.59 
  -1   1  14   10.11    0.57 
   1   1 -14   10.18    0.66 
   1   1 -14   10.23    0.77 
   1   1 -14   10.27    0.52 
   0  -1 -14    2.51    0.29 
   0  -1  14    2.38    0.19 
   0  -1 -14    2.29    0.26 
   0   1 -14    1.87    0.24 
   0   1 -14    2.00    0.26 
   0   1 -14    1.82    0.17 
   0   1  14    1.93    0.20 
   1  -1  14   11.87    0.86 
   1  -1  14   12.79    0.67 
  -1  -1 -14   12.25    0.83 
  -1  -1 -14   12.88    0.80 
   1   1  14   14.52    0.69 
  -1   1 -14   14.09    0.93 
  -2  -1 -14    0.85    0.13 
   2  -1  14    0.68    0.13 
   2  -1  14    0.71    0.14 
   2   1  14    0.87    0.15 
  -2   1 -14    0.59    0.11 
   3  -1  14    2.47    0.24 
  -3  -1 -14    2.32    0.21 
   3  -1  14    2.40    0.21 
   3   1  14    2.50    0.22 
   3   1  14    2.10    0.22 
  -3   1 -14    2.48    0.20 
   3   1  14    2.17    0.23 
   4  -1  14    2.20    0.16 
   4   1  14    2.67    0.19 
   4   1  14    2.64    0.21 
   5  -2 -14    0.29    0.53 
   5   2 -14    0.29    0.51 
   4  -2 -14    0.02    0.06 
   4  -2 -14    0.08    0.08 
   4  -2 -14    0.06    0.58 
   4  -2 -14    0.07    0.07 
   4   2 -14    0.09    0.07 
   4   2 -14    0.00    0.53 
  -4   2  14    0.04    0.05 
   4   2 -14    0.09    0.06 
   3  -2 -14    0.93    0.13 
   3  -2 -14    0.90    0.15 
  -3  -2  14    0.72    0.09 
   3  -2 -14    1.01    0.18 
   3   2 -14    0.81    0.13 
   3   2 -14    0.86    0.12 
   3   2 -14    0.66    0.09 
  -3   2  14    0.88    0.13 
   3   2 -14    1.02    1.00 
   2  -2 -14    2.51    0.30 
   2  -2 -14    2.23    0.21 
   2  -2 -14    2.31    0.22 
  -2  -2  14    2.59    0.18 
   2  -2 -14    2.03    0.28 
  -2   2  14    2.30    0.20 
   2   2 -14    2.25    0.28 
   2   2 -14    2.56    0.18 
   2   2 -14    2.26    0.19 
   1  -2 -14    5.04    0.35 
   1  -2 -14    4.67    0.45 
  -1  -2  14    4.88    0.29 
   1  -2 -14    5.23    0.43 
   1   2 -14    5.28    0.31 
  -1   2  14    5.07    0.33 
   1   2 -14    4.95    0.44 
   0  -2  14    6.86    0.52 
   0  -2 -14    7.45    0.52 
   0  -2  14    7.10    0.39 
   0  -2 -14    7.12    0.52 
   0   2 -14    7.10    0.38 
   0   2  14    7.43    0.44 
   0   2 -14    7.05    0.49 
   0   2 -14    6.93    0.56 
   1  -2  14    6.18    0.35 
   1  -2  14    4.98    0.43 
  -1  -2 -14    5.75    0.43 
  -1   2 -14    5.52    0.47 
  -1   2 -14    6.14    0.42 
   1   2  14    5.98    0.37 
  -1   2 -14    6.11    0.32 
  -2  -2 -14    1.22    0.16 
   2  -2  14    1.20    0.17 
   2  -2  14    1.35    0.16 
  -2   2 -14    1.34    0.17 
  -2   2 -14    1.12    0.17 
   2   2  14    1.35    0.18 
   3  -2  14    0.31    0.07 
  -3   2 -14    0.24    0.07 
   3   2  14    0.41    0.11 
   3   2  14    0.51    0.11 
   4  -2  14    1.28    0.11 
  -4  -2 -14    1.26    0.11 
   4   2  14    1.47    0.13 
   4   2  14    1.27    0.14 
  -4  -3  14    0.14    0.04 
   4  -3 -14    0.26    0.07 
   4  -3 -14    0.62    0.73 
   4  -3 -14    0.19    0.08 
   4  -3 -14    0.21    0.06 
   4   3 -14    0.16    0.59 
   4   3 -14    0.11    0.06 
  -4   3  14    0.20    0.06 
  -3  -3  14    0.69    0.09 
   3  -3 -14    0.80    0.16 
   3  -3 -14    0.65    0.11 
   3  -3 -14    0.68    0.13 
  -3   3  14    0.72    0.12 
   3   3 -14    0.63    0.10 
   3   3 -14    0.61    0.11 
   3   3 -14    0.52    0.85 
   3   3 -14    0.73    0.09 
   2  -3 -14    1.70    0.23 
  -2  -3  14    1.63    0.14 
   2  -3 -14    1.36    0.17 
  -2   3  14    1.21    0.15 
   2   3 -14    1.41    0.15 
   2   3 -14    1.25    0.20 
   2   3 -14    1.35    0.14 
  -1  -3  14    1.72    0.20 
   1  -3 -14    1.80    0.20 
   1  -3 -14    2.07    0.26 
  -1  -3  14    1.84    0.16 
   1   3 -14    1.72    0.16 
  -1   3  14    1.97    0.19 
   1   3 -14    1.86    0.23 
   0  -3 -14   17.28    1.03 
   0  -3  14   18.55    0.82 
   0  -3  14   16.09    1.08 
   0   3  14   16.98    0.91 
   0   3 -14   15.55    1.16 
   0   3 -14   16.78    0.80 
   1  -3  14    6.72    0.35 
  -1  -3 -14    6.88    0.46 
   1  -3  14    6.25    0.46 
  -1   3 -14    5.84    0.41 
  -1   3 -14    5.84    0.33 
  -1   3 -14    5.13    0.47 
  -2  -3 -14    4.78    0.30 
   2  -3  14    4.90    0.39 
   2   3  14    4.18    0.33 
   2   3  14    4.97    0.33 
  -2   3 -14    4.81    0.34 
  -2   3 -14    4.97    0.27 
  -3  -3 -14    1.39    0.13 
   3  -3  14    1.49    0.13 
  -3   3 -14    1.62    0.15 
   3   3  14    1.77    0.17 
   3   3  14    1.78    0.17 
   4  -3  14    0.37    0.06 
  -4  -3 -14    0.28    0.06 
   4   3  14    0.48    0.09 
   4  -4 -14    0.16    0.05 
   4   4 -14    0.06    0.54 
  -3  -4  14    0.34    0.06 
   3  -4 -14    0.30    0.11 
   3   4 -14    0.41    0.08 
   3   4 -14    0.40    0.07 
   3   4 -14    0.17    0.70 
  -3   4  14    0.34    0.08 
   2  -4 -14    0.26    0.12 
  -2  -4  14    0.34    0.07 
   2   4 -14    0.30    0.07 
   2   4 -14    0.27    0.07 
   2   4 -14    0.26    0.79 
  -2   4  14    0.22    0.08 
  -1  -4  14    5.42    0.44 
   1  -4 -14    5.71    0.46 
  -1  -4  14    5.96    0.32 
   1   4 -14    5.98    0.33 
  -1   4  14    5.80    0.38 
   0  -4 -14    0.67    0.15 
   0  -4  14    0.57    0.12 
   0  -4  14    0.46    0.08 
   0   4  14    0.58    0.12 
   0   4 -14    0.57    0.13 
   0   4 -14    0.64    0.10 
  -1  -4 -14    0.26    0.08 
   1  -4  14    0.14    0.07 
   1  -4  14    0.17    0.08 
  -1   4 -14    0.13    0.06 
   1   4  14    0.15    0.09 
   1   4  14    0.22    0.08 
   2  -4  14    0.41    0.08 
  -2  -4 -14    0.32    0.08 
   2   4  14    0.64    0.12 
  -2   4 -14    0.71    0.10 
  -2   4 -14    0.63    0.08 
  -3  -4 -14    1.34    0.12 
   3  -4  14    1.16    0.11 
   3   4  14    1.32    0.14 
   3   4  14    1.43    0.14 
  -3   4 -14    1.24    0.10 
  -3  -5  14    0.46    0.06 
  -3   5  14    0.46    0.08 
   3   5 -14    0.44    0.06 
   3   5 -14    0.09    0.60 
   2  -5 -14    2.12    0.24 
  -2  -5  14    2.44    0.15 
  -2   5  14    2.23    0.18 
   2   5 -14    2.00    0.15 
   2   5 -14    2.15    0.15 
  -1  -5  14    0.57    0.08 
  -1   5  14    1.04    0.14 
   1   5 -14    0.74    0.10 
   0  -5  14    1.88    0.21 
   0  -5  14    1.88    0.15 
   0   5  14    2.45    0.20 
   0   5 -14    2.38    0.16 
  -1  -5 -14    0.00    0.05 
  -1   5 -14    0.02    0.05 
   1   5  14    0.01    0.06 
   2  -5  14    2.43    0.17 
  -2  -5 -14    2.45    0.18 
   2   5  14    2.73    0.21 
  -2   5 -14    2.75    0.16 
  -3  -5 -14    1.77    0.13 
   3  -5  14    1.74    0.12 
  -3   5 -14    1.77    0.11 
   3   5  14    1.82    0.15 
   3   6 -14    0.09    0.44 
  -2  -6  14    0.70    0.07 
   2   6 -14    0.21    0.59 
  -2   6  14    0.65    0.09 
  -1  -6  14    2.04    0.14 
   1   6 -14    2.06    0.14 
  -1   6  14    2.01    0.17 
   0  -6 -14    0.51    0.08 
   0   6 -14    0.43    0.07 
   0   6  14    0.65    0.10 
  -1  -6 -14    1.16    0.11 
   1   6  14    1.17    0.12 
  -1   6 -14    1.23    0.10 
  -2  -6 -14    1.29    0.10 
   2  -6  14    1.25    0.10 
  -2   6 -14    1.12    0.09 
   0  -7 -14    0.71    0.07 
  -1  -7 -14    1.34    0.10 
  -4   0  15    0.61    0.09 
   4   0 -15    1.35    0.88 
   4   0 -15    0.62    0.10 
   4   0 -15    0.52    0.10 
   3   0 -15    0.09    0.07 
  -3   0  15    0.18    0.07 
   3   0 -15    0.07    0.08 
   2   0 -15    0.01    0.09 
   2   0 -15   -0.04    0.06 
   2   0 -15    0.04    0.07 
  -2   0  15    0.04    0.06 
   2   0 -15    0.05    0.08 
   1   0 -15    1.83    0.25 
  -1   0  15    1.78    0.16 
   1   0 -15    2.16    0.27 
   1   0 -15    1.96    0.18 
   0   0 -15   29.98    2.08 
   0   0  15   31.74    1.49 
   0   0 -15   33.52    1.80 
  -1   0 -15    0.62    0.12 
   1   0  15    0.34    0.10 
  -2   0 -15    3.93    0.30 
   2   0  15    4.45    0.29 
   2   0  15    3.70    0.32 
  -3   0 -15    0.85    0.12 
   3   0  15    1.23    0.15 
  -4  -1  15    0.25    0.06 
   4  -1 -15    0.24    0.08 
   4  -1 -15    1.02    0.80 
   4  -1 -15    0.20    0.07 
   4   1 -15    0.26    0.07 
  -4   1  15    0.25    0.06 
   4   1 -15    0.44    0.65 
   4   1 -15    0.23    0.07 
   3  -1 -15    0.60    0.11 
   3  -1 -15    0.48    0.13 
  -3  -1  15    0.50    0.09 
   3  -1 -15    0.50    0.11 
   3   1 -15    0.39    0.09 
  -3   1  15    0.40    0.09 
   3   1 -15    0.37    0.09 
  -2  -1  15    3.20    0.21 
   2  -1 -15    3.10    0.34 
   2  -1 -15    3.83    0.34 
   2  -1 -15    3.25    0.26 
   2  -1 -15    3.49    0.23 
  -2   1  15    3.14    0.24 
   2   1 -15    2.91    0.24 
   2   1 -15    3.19    0.23 
   2   1 -15    2.97    0.33 
   1  -1 -15    7.15    0.51 
   1  -1 -15    6.64    0.56 
   1  -1 -15    7.33    0.43 
  -1  -1  15    7.20    0.37 
   1   1 -15    6.26    0.55 
   1   1 -15    6.68    0.38 
  -1   1  15    6.44    0.41 
   1   1 -15    6.46    0.48 
   0  -1  15   18.90    0.85 
   0  -1 -15   19.64    1.04 
   0   1 -15   17.17    1.02 
   0   1  15   15.80    0.84 
   0   1 -15   15.56    1.18 
   0   1 -15   16.30    0.81 
   1  -1  15   14.73    0.76 
  -1  -1 -15   14.29    0.90 
   1   1  15   15.64    0.77 
  -1   1 -15   14.46    1.05 
  -1   1 -15   16.93    0.91 
  -2  -1 -15    1.02    0.15 
   2  -1  15    0.99    0.15 
   2  -1  15    1.07    0.15 
   2   1  15    1.52    0.17 
  -2   1 -15    1.33    0.15 
   3  -1  15    0.44    0.10 
  -3  -1 -15    0.42    0.09 
   3   1  15    0.62    0.11 
  -3   1 -15    0.32    0.08 
   4  -2 -15    0.09    0.05 
  -4  -2  15    0.05    0.05 
   4  -2 -15    0.06    0.06 
   4   2 -15    0.09    0.05 
   4   2 -15    0.11    0.49 
  -4   2  15    0.09    0.05 
   4   2 -15    0.14    0.06 
   3  -2 -15    1.31    0.19 
  -3  -2  15    1.35    0.12 
   3  -2 -15    1.24    0.15 
   3  -2 -15    1.33    0.15 
  -3   2  15    1.36    0.14 
   3   2 -15    1.19    0.86 
   3   2 -15    1.21    0.14 
   3   2 -15    1.51    0.14 
   2  -2 -15    0.38    0.13 
   2  -2 -15    0.44    0.12 
  -2  -2  15    0.42    0.07 
  -2   2  15    0.42    0.10 
   2   2 -15    0.37    0.09 
  -1  -2  15    1.54    0.15 
   1  -2 -15    1.58    0.22 
   1  -2 -15    1.43    0.17 
   1   2 -15    1.46    0.21 
   1   2 -15    1.50    0.16 
  -1   2  15    1.57    0.16 
   0  -2 -15    7.49    0.52 
   0  -2  15    7.82    0.41 
   0   2 -15    6.78    0.58 
   0   2 -15    7.65    0.40 
   0   2 -15    7.71    0.51 
   1  -2  15    2.04    0.19 
   1  -2  15    1.90    0.21 
  -1  -2 -15    1.91    0.23 
   1   2  15    1.87    0.20 
  -1   2 -15    2.02    0.16 
  -1   2 -15    2.02    0.23 
  -2  -2 -15    1.12    0.15 
   2  -2  15    0.96    0.13 
   2  -2  15    0.99    0.14 
  -2   2 -15    0.72    0.12 
   2   2  15    1.10    0.16 
  -3  -2 -15    0.11    0.05 
   3   2  15    0.18    0.08 
  -3   2 -15    0.08    0.06 
   3   2  15    0.18    0.08 
   4  -3 -15    0.87    0.09 
   4   3 -15    1.80    0.80 
  -3  -3  15    1.15    0.10 
   3  -3 -15    1.09    0.16 
   3  -3 -15    1.13    0.13 
   3   3 -15    0.89    0.85 
  -3   3  15    0.98    0.12 
   3   3 -15    1.01    0.11 
   2  -3 -15    2.75    0.28 
  -2  -3  15    3.21    0.20 
   2  -3 -15    2.60    0.23 
   2   3 -15    3.46    0.22 
  -2   3  15    3.27    0.23 
   1  -3 -15    1.35    0.20 
  -1  -3  15    1.33    0.14 
   1   3 -15    1.43    0.15 
  -1   3  15    1.48    0.15 
   0  -3 -15    6.60    0.48 
   0  -3  15    5.79    0.48 
   0  -3  15    6.42    0.37 
   0   3  15    7.44    0.42 
   0   3 -15    7.60    0.37 
   1  -3  15    1.72    0.16 
  -1  -3 -15    1.61    0.22 
   1  -3  15    1.49    0.18 
  -1   3 -15    1.41    0.19 
  -1   3 -15    1.61    0.14 
   2   3  15    7.32    0.46 
  -2   3 -15    8.31    0.40 
  -2   3 -15    7.73    0.49 
   2   3  15    8.32    0.44 
  -3  -3 -15    1.66    0.14 
   3   3  15    1.89    0.16 
   3   3  15    2.22    0.16 
   4   4 -15    0.49    0.42 
  -3  -4  15    0.73    0.08 
  -3   4  15    0.77    0.10 
   3   4 -15    0.36    0.66 
   3   4 -15    0.77    0.09 
  -2  -4  15    0.14    0.05 
   2  -4 -15    0.16    0.10 
  -2   4  15    0.19    0.07 
   2   4 -15    0.07    0.06 
  -1  -4  15    3.73    0.22 
   1  -4 -15    3.95    0.33 
   1   4 -15    3.48    0.23 
  -1   4  15    3.57    0.26 
   0  -4  15    0.22    0.07 
   0  -4  15    0.23    0.08 
   0   4  15    0.34    0.09 
   0   4 -15    0.22    0.07 
   1  -4  15    2.03    0.17 
  -1   4 -15    2.26    0.16 
  -2  -4 -15    1.07    0.11 
   2   4  15    1.24    0.14 
  -2   4 -15    1.19    0.10 
   3  -4  15    0.62    0.07 
  -3  -4 -15    0.60    0.07 
   3   4  15    0.75    0.09 
   3   5 -15    0.53    0.56 
  -2  -5  15    0.07    0.04 
  -2   5  15    0.12    0.06 
   2   5 -15    0.06    0.05 
  -1  -5  15    3.96    0.22 
  -1   5  15    4.02    0.26 
   1   5 -15    3.82    0.22 
   0   5  15    2.83    0.21 
   0   5 -15    3.13    0.19 
  -1  -5 -15    2.66    0.18 
   1   5  15    2.80    0.20 
  -1   5 -15    2.87    0.17 
  -2  -5 -15    0.40    0.06 
  -2   5 -15    0.32    0.05 
  -1   6  15    2.07    0.15 
   1   6 -15    2.15    0.13 
   0   6  15    0.19    0.06 
   0   6 -15    0.12    0.04 
  -1  -6 -15    0.93    0.08 
  -1   6 -15    1.01    0.08 
   4   0 -16    1.00    0.11 
  -4   0  16    0.91    0.09 
   4   0 -16    1.02    0.10 
   3   0 -16    2.02    0.16 
   3   0 -16    1.88    0.17 
  -3   0  16    1.91    0.16 
   2   0 -16    1.04    0.14 
   2   0 -16    1.02    0.13 
  -2   0  16    0.96    0.12 
   2   0 -16    1.17    0.18 
   1   0 -16    0.52    0.13 
   1   0 -16    0.48    0.09 
  -1   0  16    0.40    0.08 
   0   0 -16   -0.02    0.07 
   0   0  16   -0.03    0.06 
  -1   0 -16    0.59    0.11 
   1   0  16    0.36    0.10 
  -2   0 -16    0.19    0.07 
   2   0  16    0.14    0.08 
   3   0  16    0.32    0.08 
   4  -1 -16    0.13    0.05 
   4   1 -16    0.14    0.05 
   4   1 -16    0.61    0.58 
  -3  -1  16    2.90    0.20 
   3  -1 -16    3.07    0.27 
   3  -1 -16    2.98    0.23 
   3  -1 -16    3.01    0.20 
   3   1 -16    2.93    0.22 
  -3   1  16    3.00    0.21 
   3   1 -16    3.20    0.21 
  -2  -1  16    3.73    0.24 
   2  -1 -16    4.25    0.26 
   2  -1 -16    3.62    0.28 
   2  -1 -16    4.08    0.34 
   2   1 -16    4.40    0.26 
  -2   1  16    4.23    0.27 
   1  -1 -16    0.32    0.10 
  -1  -1  16    0.23    0.07 
   1  -1 -16    0.35    0.12 
   1   1 -16    0.14    0.07 
   1   1 -16    0.19    0.09 
   0  -1 -16    7.86    0.53 
   0  -1  16    7.77    0.43 
   0   1 -16    8.58    0.53 
   0   1 -16    8.10    0.42 
   0   1  16    7.76    0.44 
  -1  -1 -16    0.44    0.11 
   1  -1  16    0.47    0.11 
   1   1  16    0.79    0.12 
  -1   1 -16    0.78    0.12 
   2  -1  16    0.66    0.11 
  -2  -1 -16    0.72    0.11 
  -2   1 -16    0.34    0.09 
   2   1  16    0.40    0.10 
   3  -1  16    1.35    0.13 
   3   1  16    1.49    0.14 
   4   2 -16    0.16    0.42 
   3  -2 -16    1.22    0.12 
   3  -2 -16    1.12    0.13 
   3  -2 -16    1.16    0.16 
   3   2 -16    1.31    0.12 
  -3   2  16    1.28    0.12 
   2  -2 -16    0.21    0.09 
  -2  -2  16    0.27    0.06 
   2  -2 -16    0.38    0.11 
  -2   2  16    0.20    0.07 
   2   2 -16    0.20    0.07 
   1  -2 -16    6.53    0.46 
  -1  -2  16    6.67    0.36 
   1   2 -16    6.72    0.36 
  -1   2  16    6.16    0.39 
   0  -2  16    2.10    0.17 
   0  -2 -16    2.10    0.22 
   0   2 -16    1.82    0.16 
   0   2 -16    1.86    0.22 
  -1  -2 -16    0.56    0.11 
   1  -2  16    0.45    0.10 
   1   2  16    0.67    0.11 
  -1   2 -16    0.53    0.08 
  -1   2 -16    0.46    0.10 
   2  -2  16    1.22    0.14 
  -2  -2 -16    1.59    0.17 
  -2   2 -16    1.25    0.14 
   2   2  16    1.62    0.15 
   3   2  16    1.37    0.12 
  -3  -3  16    0.19    0.05 
  -3   3  16    0.24    0.06 
   3   3 -16    0.22    0.06 
   2  -3 -16    3.47    0.29 
  -2  -3  16    3.95    0.22 
  -2   3  16    3.75    0.25 
   2   3 -16    3.57    0.23 
   1  -3 -16    2.09    0.22 
  -1  -3  16    2.30    0.16 
  -1   3  16    1.93    0.18 
   1   3 -16    2.11    0.17 
   0  -3  16    0.13    0.07 
   0  -3 -16    0.24    0.10 
   0   3 -16    0.03    0.05 
   0   3  16    0.14    0.07 
   1  -3  16    7.81    0.42 
  -1  -3 -16    8.17    0.52 
  -1   3 -16    8.21    0.40 
   2   3  16    3.62    0.23 
  -2  -4  16    1.56    0.11 
   2   4 -16    1.51    0.12 
  -2   4  16    1.44    0.13 
  -1  -4  16    1.22    0.11 
   1  -4 -16    1.15    0.16 
  -1   4  16    0.95    0.12 
   1   4 -16    1.21    0.12 
   0  -4  16    1.15    0.12 
   0   4 -16    1.29    0.12 
   0   4  16    0.99    0.12 
   1  -4  16    1.36    0.13 
  -1   4 -16    1.47    0.12 
  -2   4 -16    0.29    0.05 
  -1  -5  16    0.12    0.05 
   1   5 -16    0.33    0.06 
  -1   5  16    0.30    0.07 
   0   5 -16    2.54    0.15 
   0   5  16    2.26    0.17 
  -1   5 -16    1.41    0.10 
   3   0 -17   -0.01    0.04 
  -3   0  17    0.01    0.04 
   3   0 -17    0.01    0.05 
   2   0 -17    0.75    0.11 
   2   0 -17    0.77    0.14 
   2   0 -17    0.66    0.09 
  -1   0  17    2.11    0.17 
   1   0 -17    2.18    0.16 
   1   0 -17    2.38    0.23 
   0   0  17    0.23    0.08 
   0   0 -17    0.22    0.09 
  -1   0 -17    1.16    0.14 
   1   0  17    1.34    0.14 
   2   0  17    0.98    0.12 
   3  -1 -17    0.84    0.10 
   3  -1 -17    1.10    0.10 
   3   1 -17    0.83    0.10 
  -3   1  17    0.93    0.10 
  -2  -1  17    0.05    0.05 
   2  -1 -17    0.10    0.07 
   2  -1 -17    0.00    0.07 
   2  -1 -17    0.09    0.06 
  -2   1  17    0.11    0.06 
   2   1 -17    0.10    0.06 
  -1  -1  17    1.91    0.15 
   1  -1 -17    2.06    0.20 
   1   1 -17    1.73    0.22 
   1   1 -17    1.85    0.15 
   0  -1 -17    1.20    0.15 
   0  -1  17    1.03    0.13 
   0   1  17    1.10    0.13 
   0   1 -17    1.12    0.16 
   1  -1  17    0.82    0.11 
  -1  -1 -17    0.63    0.11 
  -1   1 -17    0.91    0.12 
   1   1  17    0.93    0.12 
   2  -1  17    1.18    0.12 
   2   1  17    1.09    0.12 
   3   2 -17    1.48    0.12 
   2  -2 -17    0.86    0.13 
  -2  -2  17    0.91    0.10 
  -2   2  17    0.80    0.10 
   2   2 -17    0.97    0.11 
   1  -2 -17    1.20    0.16 
  -1  -2  17    1.37    0.13 
  -1   2  17    1.32    0.13 
   1   2 -17    1.36    0.13 
   0  -2 -17    0.11    0.08 
   0  -2  17    0.00    0.06 
   0   2 -17    0.10    0.06 
  -1  -2 -17    0.89    0.13 
   1  -2  17    1.05    0.12 
   1   2  17    1.09    0.12 
  -1   2 -17    0.78    0.12 
   2  -2  17    0.82    0.10 
   2   2  17    0.83    0.10 
  -2  -3  17    1.53    0.11 
   2   3 -17    1.41    0.12 
  -2   3  17    1.49    0.13 
  -1  -3  17    1.75    0.14 
   1  -3 -17    2.03    0.19 
   1   3 -17    2.21    0.15 
  -1   3  17    2.10    0.16 
   0  -3  17    0.19    0.07 
   0   3 -17    0.25    0.06 
   1  -3  17    0.28    0.07 
  -1   3 -17    0.34    0.06 
  -1  -4  17    1.50    0.11 
   1   4 -17    1.47    0.11 
   0  -4  17    0.34    0.06 
   0   4 -17    0.29    0.06 
  -1   4 -17    1.08    0.09 
   2   0 -18    0.03    0.04 
   0   0  18    0.77    0.10 
   1   0  18    0.44    0.08 
   2   1 -18    1.14    0.10 
  -1  -1  18    0.16    0.06 
   1   1 -18    0.20    0.05 
   0  -1  18   -0.02    0.05 
   1  -1  18    1.88    0.14 
   1   1  18    1.74    0.14 
   2   2 -18    0.08    0.04 
  -1  -2  18    2.71    0.17 
   1   2 -18    2.75    0.17 
   0  -2  18    0.42    0.07 
   0   2 -18    0.54    0.07 
   1   3 -18   -0.04    0.03 
   0   3 -18    1.35    0.10 
   0   0   0    0.00    0.00 
;
_shelx_hkl_checksum              80874
loop_
_space_group_symop_operation_xyz
'x, y, z'
'-x, y+1/2, -z'
loop_
_atom_site_label
_atom_site_type_symbol
_atom_site_fract_x
_atom_site_fract_y
_atom_site_fract_z
_atom_site_U_iso_or_equiv
_atom_site_adp_type
_atom_site_occupancy
_atom_site_site_symmetry_order
_atom_site_calc_flag
_atom_site_refinement_flags_posn
_atom_site_refinement_flags_adp
C1 C -0.3969(8) 0.7927(5) 0.5988(2) 0.0789(11) Uani 1 1 d . .
C2 C -0.1955(8) 0.7196(6) 0.5896(2) 0.0856(12) Uani 1 1 d . .
H2 H -0.1230 0.7303 0.5393 0.103 Uiso 1 1 calc R U
C3 C -0.1015(6) 0.6311(5) 0.65434(18) 0.0680(9) Uani 1 1 d . .
H3 H 0.0330 0.5798 0.6471 0.082 Uiso 1 1 calc R U
C4 C -0.2044(5) 0.6167(3) 0.73098(17) 0.0495(7) Uani 1 1 d . .
C5 C -0.4058(6) 0.6937(5) 0.7392(2) 0.0690(9) Uani 1 1 d . .
H5 H -0.4772 0.6872 0.7899 0.083 Uiso 1 1 calc R U
C6 C -0.5021(6) 0.7805(5) 0.6720(3) 0.0784(11) Uani 1 1 d . .
H6 H -0.6387 0.8301 0.6776 0.094 Uiso 1 1 calc R U
C7 C -0.0873(5) 0.5323(3) 0.80475(16) 0.0471(6) Uani 1 1 d . .
H7 H 0.0164 0.4569 0.7819 0.057 Uiso 1 1 calc R U
C8 C 0.0493(4) 0.6475(4) 0.85950(17) 0.0488(6) Uani 1 1 d . .
H8A H -0.0530 0.7161 0.8870 0.059 Uiso 1 1 calc R U
H8B H 0.1369 0.7110 0.8228 0.059 Uiso 1 1 calc R U
C9 C 0.2079(5) 0.5737(4) 0.92767(17) 0.0503(6) Uani 1 1 d . .
H9A H 0.1246 0.5045 0.9628 0.060 Uiso 1 1 calc R U
H9B H 0.3212 0.5130 0.9010 0.060 Uiso 1 1 calc R U
C10 C 0.3194(6) 0.7003(4) 0.9824(2) 0.0622(9) Uani 1 1 d . .
H10A H 0.3675 0.7828 0.9456 0.075 Uiso 1 1 calc R U
H10B H 0.2093 0.7439 1.0184 0.075 Uiso 1 1 calc R U
C11 C 0.5186(5) 0.6463(4) 1.03771(18) 0.0501(6) Uani 1 1 d . .
C12 C 0.6818(5) 0.6616(3) 1.18693(17) 0.0479(6) Uani 1 1 d . .
C13 C 0.8794(5) 0.5820(4) 1.1778(2) 0.0587(7) Uani 1 1 d . .
H13 H 0.9096 0.5390 1.1255 0.070 Uiso 1 1 calc R U
C14 C 1.0319(6) 0.5663(5) 1.2462(2) 0.0738(10) Uani 1 1 d . .
H14 H 1.1649 0.5125 1.2400 0.089 Uiso 1 1 calc R U
C15 C 0.9884(7) 0.6304(5) 1.3243(2) 0.0792(11) Uani 1 1 d . .
H15 H 1.0918 0.6194 1.3704 0.095 Uiso 1 1 calc R U
C16 C 0.7915(8) 0.7103(6) 1.3334(2) 0.0786(11) Uani 1 1 d . .
H16 H 0.7620 0.7550 1.3853 0.094 Uiso 1 1 calc R U
C17 C 0.6368(6) 0.7237(4) 1.26414(19) 0.0621(8) Uani 1 1 d . .
H17 H 0.5018 0.7753 1.2704 0.075 Uiso 1 1 calc R U
Cl1 Cl -0.5164(3) 0.9061(2) 0.51685(7) 0.1352(7) Uani 1 1 d . .
N2 N 0.5151(4) 0.6842(3) 1.12035(15) 0.0492(6) Uani 1 1 d . .
H2A H 0.3941 0.7285 1.1349 0.059 Uiso 1 1 calc R U
O1 O -0.2408(4) 0.4496(3) 0.85297(12) 0.0583(6) Uani 1 1 d . .
H1 H -0.2595 0.4968 0.8972 0.087 Uiso 1 1 calc R U
O2 O 0.6738(4) 0.5748(3) 1.00823(13) 0.0658(6) Uani 1 1 d . .
loop_
_atom_site_aniso_label
_atom_site_aniso_U_11
_atom_site_aniso_U_22
_atom_site_aniso_U_33
_atom_site_aniso_U_23
_atom_site_aniso_U_13
_atom_site_aniso_U_12
C1 0.101(3) 0.080(2) 0.0534(18) 0.0026(17) -0.0167(17) 0.015(2)
C2 0.111(3) 0.106(3) 0.0399(16) 0.0005(17) 0.0055(16) 0.027(2)
C3 0.072(2) 0.087(3) 0.0450(15) -0.0061(15) 0.0033(12) 0.0172(17)
C4 0.0471(15) 0.0519(18) 0.0490(14) -0.0068(11) -0.0014(10) -0.0060(11)
C5 0.0543(19) 0.081(3) 0.072(2) 0.0131(17) 0.0099(14) 0.0053(14)
C6 0.057(2) 0.085(3) 0.092(3) 0.005(2) -0.0077(18) 0.0109(16)
C7 0.0504(16) 0.0466(16) 0.0448(13) -0.0020(11) 0.0061(10) -0.0013(10)
C8 0.0471(15) 0.0491(15) 0.0498(14) 0.0028(11) -0.0002(10) -0.0033(11)
C9 0.0488(15) 0.0492(16) 0.0523(14) 0.0002(12) -0.0017(11) -0.0005(11)
C10 0.074(2) 0.0538(19) 0.0561(17) -0.0106(14) -0.0173(14) 0.0141(14)
C11 0.0546(16) 0.0470(16) 0.0481(13) -0.0038(12) -0.0022(11) 0.0032(12)
C12 0.0531(15) 0.0443(16) 0.0461(13) 0.0046(11) 0.0004(10) -0.0009(11)
C13 0.0566(18) 0.0584(18) 0.0603(16) -0.0018(14) -0.0028(12) 0.0084(14)
C14 0.064(2) 0.073(2) 0.083(2) 0.0062(18) -0.0150(16) 0.0106(16)
C15 0.086(3) 0.086(3) 0.063(2) 0.0089(18) -0.0224(17) 0.004(2)
C16 0.103(3) 0.088(3) 0.0431(15) 0.0003(16) -0.0047(16) 0.005(2)
C17 0.067(2) 0.071(2) 0.0482(15) 0.0011(14) 0.0016(13) 0.0052(15)
Cl1 0.1851(15) 0.1464(13) 0.0706(6) 0.0144(7) -0.0229(7) 0.0764(11)
N2 0.0481(13) 0.0509(15) 0.0482(12) -0.0048(9) 0.0002(9) 0.0093(9)
O1 0.0679(14) 0.0557(13) 0.0522(10) -0.0058(9) 0.0101(9) -0.0194(10)
O2 0.0660(14) 0.0808(17) 0.0502(11) -0.0138(10) -0.0002(9) 0.0185(12)
loop_
_atom_type_symbol
_atom_type_description
_atom_type_scat_dispersion_real
_atom_type_scat_dispersion_imag
_atom_type_scat_source
C C 0.0181 0.0091 'International Tables Vol C Tables 4.2.6.8 and 6.1.1.4'
H H 0.0000 0.0000 'International Tables Vol C Tables 4.2.6.8 and 6.1.1.4'
N N 0.0311 0.0180 'International Tables Vol C Tables 4.2.6.8 and 6.1.1.4'
O O 0.0492 0.0322 'International Tables Vol C Tables 4.2.6.8 and 6.1.1.4'
Cl Cl 0.3639 0.7018 'International Tables Vol C Tables 4.2.6.8 and 6.1.1.4'
loop_
_geom_angle_atom_site_label_1
_geom_angle_atom_site_label_2
_geom_angle_atom_site_label_3
_geom_angle
C6 C1 C2 120.6(3)
C6 C1 Cl1 119.2(3)
C2 C1 Cl1 120.2(3)
C3 C2 C1 120.0(3)
C3 C2 H2 120.0
C1 C2 H2 120.0
C2 C3 C4 121.0(3)
C2 C3 H3 119.5
C4 C3 H3 119.5
C5 C4 C3 117.9(3)
C5 C4 C7 121.6(3)
C3 C4 C7 120.2(3)
C4 C5 C6 120.5(3)
C4 C5 H5 119.7
C6 C5 H5 119.7
C1 C6 C5 120.0(4)
C1 C6 H6 120.0
C5 C6 H6 120.0
O1 C7 C4 111.7(2)
O1 C7 C8 111.4(2)
C4 C7 C8 109.5(2)
O1 C7 H7 108.0
C4 C7 H7 108.0
C8 C7 H7 108.0
C7 C8 C9 114.8(3)
C7 C8 H8A 108.6
C9 C8 H8A 108.6
C7 C8 H8B 108.6
C9 C8 H8B 108.6
H8A C8 H8B 107.5
C10 C9 C8 109.7(3)
C10 C9 H9A 109.7
C8 C9 H9A 109.7
C10 C9 H9B 109.7
C8 C9 H9B 109.7
H9A C9 H9B 108.2
C11 C10 C9 114.5(3)
C11 C10 H10A 108.6
C9 C10 H10A 108.6
C11 C10 H10B 108.6
C9 C10 H10B 108.6
H10A C10 H10B 107.6
O2 C11 N2 122.9(3)
O2 C11 C10 121.6(3)
N2 C11 C10 115.5(3)
C17 C12 C13 120.0(3)
C17 C12 N2 116.0(3)
C13 C12 N2 124.0(2)
C14 C13 C12 119.8(3)
C14 C13 H13 120.1
C12 C13 H13 120.1
C13 C14 C15 120.5(3)
C13 C14 H14 119.8
C15 C14 H14 119.8
C16 C15 C14 119.7(3)
C16 C15 H15 120.2
C14 C15 H15 120.2
C15 C16 C17 119.5(3)
C15 C16 H16 120.3
C17 C16 H16 120.3
C12 C17 C16 120.5(3)
C12 C17 H17 119.7
C16 C17 H17 119.7
C11 N2 C12 129.4(2)
C11 N2 H2A 115.3
C12 N2 H2A 115.3
C7 O1 H1 109.5
loop_
_geom_bond_atom_site_label_1
_geom_bond_atom_site_label_2
_geom_bond_distance
C1 C6 1.351(6)
C1 C2 1.372(6)
C1 Cl1 1.738(4)
C2 C3 1.367(5)
C2 H2 0.9300
C3 C4 1.393(4)
C3 H3 0.9300
C4 C5 1.386(5)
C4 C7 1.508(4)
C5 C6 1.392(5)
C5 H5 0.9300
C6 H6 0.9300
C7 O1 1.416(3)
C7 C8 1.520(4)
C7 H7 0.9800
C8 C9 1.529(3)
C8 H8A 0.9700
C8 H8B 0.9700
C9 C10 1.518(4)
C9 H9A 0.9700
C9 H9B 0.9700
C10 C11 1.507(4)
C10 H10A 0.9700
C10 H10B 0.9700
C11 O2 1.227(4)
C11 N2 1.345(4)
C12 C17 1.370(4)
C12 C13 1.380(4)
C12 N2 1.418(3)
C13 C14 1.378(4)
C13 H13 0.9300
C14 C15 1.388(6)
C14 H14 0.9300
C15 C16 1.377(6)
C15 H15 0.9300
C16 C17 1.394(5)
C16 H16 0.9300
C17 H17 0.9300
N2 H2A 0.8600
O1 H1 0.8200
loop_
_geom_hbond_atom_site_label_D
_geom_hbond_atom_site_label_H
_geom_hbond_atom_site_label_A
_geom_hbond_distance_DH
_geom_hbond_distance_HA
_geom_hbond_distance_DA
_geom_hbond_angle_DHA
_geom_hbond_site_symmetry_A
C10 H10A O2 0.97 2.63 3.222(4) 119.8 2_657
C13 H13 O2 0.93 2.28 2.877(4) 121.5 .
N2 H2A O1 0.86 2.12 2.854(3) 142.6 2_557
O1 H1 O2 0.82 1.94 2.749(3) 170.0 1_455
loop_
_geom_torsion_atom_site_label_1
_geom_torsion_atom_site_label_2
_geom_torsion_atom_site_label_3
_geom_torsion_atom_site_label_4
_geom_torsion
C6 C1 C2 C3 1.2(7)
Cl1 C1 C2 C3 179.7(4)
C1 C2 C3 C4 -1.6(7)
C2 C3 C4 C5 0.6(5)
C2 C3 C4 C7 -173.8(4)
C3 C4 C5 C6 0.9(5)
C7 C4 C5 C6 175.1(3)
C2 C1 C6 C5 0.2(7)
Cl1 C1 C6 C5 -178.3(3)
C4 C5 C6 C1 -1.3(6)
C5 C4 C7 O1 41.0(4)
C3 C4 C7 O1 -144.9(3)
C5 C4 C7 C8 -83.0(3)
C3 C4 C7 C8 91.2(3)
O1 C7 C8 C9 65.9(3)
C4 C7 C8 C9 -170.0(2)
C7 C8 C9 C10 -175.3(3)
C8 C9 C10 C11 -166.0(3)
C9 C10 C11 O2 52.2(5)
C9 C10 C11 N2 -128.8(3)
C17 C12 C13 C14 -0.6(5)
N2 C12 C13 C14 179.8(3)
C12 C13 C14 C15 -0.1(6)
C13 C14 C15 C16 -0.1(7)
C14 C15 C16 C17 1.0(7)
C13 C12 C17 C16 1.5(6)
N2 C12 C17 C16 -178.9(4)
C15 C16 C17 C12 -1.7(7)
O2 C11 N2 C12 4.2(5)
C10 C11 N2 C12 -174.7(3)
C17 C12 N2 C11 175.1(3)
C13 C12 N2 C11 -5.3(5)
