#------------------------------------------------------------------------------
#$Date: 2019-11-24 14:23:16 +0200 (Sun, 24 Nov 2019) $
#$Revision: 238142 $
#$URL: file:///home/coder/svn-repositories/cod/cif/1/55/48/1554825.cif $
#------------------------------------------------------------------------------
#
# This file is available in the Crystallography Open Database (COD),
# http://www.crystallography.net/
#
# All data on this site have been placed in the public domain by the
# contributors.
#
data_1554825
loop_
_publ_author_name
'Farinone, Marco'
'Cybi\'nska, Joanna'
'Pawlicki, Mi\/losz'
_publ_section_title
;
 A controlled blue-shift in meso-nitrogen aryl fused DIPY and BODIPY
 skeletons
;
_journal_issue                   16
_journal_name_full               'Organic Chemistry Frontiers'
_journal_page_first              2825
_journal_paper_doi               10.1039/C9QO00294D
_journal_volume                  6
_journal_year                    2019
_chemical_formula_moiety         'C15 H13 N3'
_chemical_formula_sum            'C15 H13 N3'
_chemical_formula_weight         235.28
_space_group_crystal_system      triclinic
_space_group_IT_number           2
_space_group_name_Hall           '-P 1'
_space_group_name_H-M_alt        'P -1'
_atom_sites_solution_hydrogens   geom
_atom_sites_solution_primary     dual
_audit_creation_date             2019-01-19
_audit_creation_method
;
Olex2 1.2-beta
(compiled 2017.08.10 svn.r3458 for OlexSys, GUI svn.r5381)
;
_audit_update_record
;
2019-02-12 deposited with the CCDC.	2019-04-25 downloaded from the CCDC.
;
_cell_angle_alpha                62.292(14)
_cell_angle_beta                 80.059(11)
_cell_angle_gamma                76.727(11)
_cell_formula_units_Z            2
_cell_length_a                   5.4882(7)
_cell_length_b                   11.1825(15)
_cell_length_c                   11.6413(16)
_cell_measurement_reflns_used    833
_cell_measurement_temperature    293(2)
_cell_measurement_theta_max      77.1420
_cell_measurement_theta_min      4.3023
_cell_volume                     613.82(16)
_computing_cell_refinement
;
CrysAlisPro, Agilent Technologies,
Version 1.171.36.28 (release 01-02-2013 CrysAlis171 .NET)
(compiled Feb  1 2013,16:14:44)
;
_computing_data_collection
;
CrysAlisPro, Agilent Technologies,
Version 1.171.36.28 (release 01-02-2013 CrysAlis171 .NET)
(compiled Feb  1 2013,16:14:44)
;
_computing_data_reduction
;
CrysAlisPro, Agilent Technologies,
Version 1.171.36.28 (release 01-02-2013 CrysAlis171 .NET)
(compiled Feb  1 2013,16:14:44)
;
_computing_molecular_graphics    'Olex2 (Dolomanov et al., 2009)'
_computing_publication_material  'Olex2 (Dolomanov et al., 2009)'
_computing_structure_refinement  'ShelXL (Sheldrick, 2015)'
_computing_structure_solution    'ShelXT (Sheldrick, 2015)'
_diffrn_ambient_temperature      293(2)
_diffrn_detector_area_resol_mean 8.1956
_diffrn_measured_fraction_theta_full 0.965
_diffrn_measured_fraction_theta_max 0.936
_diffrn_measurement_details
;
#__ type_ start__ end____ width___ exp.time_
  1 omega -105.00  -21.00   1.0000   60.0000
omega____ theta____ kappa____ phi______ frames
    -      -42.7393  -37.0000 -180.0000 84

#__ type_ start__ end____ width___ exp.time_
  2 omega  -71.00   27.00   1.0000   60.0000
omega____ theta____ kappa____ phi______ frames
    -      -42.7393   37.0000    0.0000 98

#__ type_ start__ end____ width___ exp.time_
  3 omega    5.00   97.00   1.0000   60.0000
omega____ theta____ kappa____ phi______ frames
    -       42.7393 -125.0000 -180.0000 92

#__ type_ start__ end____ width___ exp.time_
  4 omega   87.00  119.00   1.0000   60.0000
omega____ theta____ kappa____ phi______ frames
    -       42.7393  125.0000 -180.0000 32

#__ type_ start__ end____ width___ exp.time_
  5 omega -109.00  -83.00   1.0000  180.0000
omega____ theta____ kappa____ phi______ frames
    -      -93.0000  125.0000 -120.0000 26

#__ type_ start__ end____ width___ exp.time_
  6 omega   96.00  171.00   1.0000  180.0000
omega____ theta____ kappa____ phi______ frames
    -      111.1513   45.0000   90.0000 75

#__ type_ start__ end____ width___ exp.time_
  7 omega   44.00   77.00   1.0000  180.0000
omega____ theta____ kappa____ phi______ frames
    -      111.1513  -45.0000  150.0000 33

#__ type_ start__ end____ width___ exp.time_
  8 omega   64.00  148.00   1.0000  180.0000
omega____ theta____ kappa____ phi______ frames
    -      111.1513   15.0000   30.0000 84

#__ type_ start__ end____ width___ exp.time_
  9 omega   43.00   70.00   1.0000  180.0000
omega____ theta____ kappa____ phi______ frames
    -      111.1513  -45.0000  -30.0000 27

#__ type_ start__ end____ width___ exp.time_
 10 omega   35.00  143.00   1.0000  180.0000
omega____ theta____ kappa____ phi______ frames
    -      111.1513  -77.0000  -60.0000 108

#__ type_ start__ end____ width___ exp.time_
 11 omega   37.00   75.00   1.0000  180.0000
omega____ theta____ kappa____ phi______ frames
    -      111.1513  -45.0000  120.0000 38

#__ type_ start__ end____ width___ exp.time_
 12 omega   76.00  138.00   1.0000  180.0000
omega____ theta____ kappa____ phi______ frames
    -      111.1513  125.0000    0.0000 62

#__ type_ start__ end____ width___ exp.time_
 13 omega  147.00  176.00   1.0000  180.0000
omega____ theta____ kappa____ phi______ frames
    -      111.1513  125.0000    0.0000 29

#__ type_ start__ end____ width___ exp.time_
 14 omega   42.00   68.00   1.0000  180.0000
omega____ theta____ kappa____ phi______ frames
    -      111.1513 -137.0000 -165.0000 26

#__ type_ start__ end____ width___ exp.time_
 15 omega   45.00   70.00   1.0000  180.0000
omega____ theta____ kappa____ phi______ frames
    -      111.1513  -45.0000  -60.0000 25

#__ type_ start__ end____ width___ exp.time_
 16 omega   38.00   77.00   1.0000  180.0000
omega____ theta____ kappa____ phi______ frames
    -      111.1513  -45.0000   60.0000 39

#__ type_ start__ end____ width___ exp.time_
 17 omega   90.00  116.00   1.0000  180.0000
omega____ theta____ kappa____ phi______ frames
    -      111.1513  125.0000 -150.0000 26

#__ type_ start__ end____ width___ exp.time_
 18 omega  148.00  177.00   1.0000  180.0000
omega____ theta____ kappa____ phi______ frames
    -      111.1513  125.0000 -150.0000 29

#__ type_ start__ end____ width___ exp.time_
 19 omega   37.00   62.00   1.0000  180.0000
omega____ theta____ kappa____ phi______ frames
    -      111.1513  -45.0000 -150.0000 25
;
_diffrn_measurement_device_type  'Xcalibur, Onyx'
_diffrn_measurement_method       '\w scans'
_diffrn_orient_matrix_UB_11      0.0782583000
_diffrn_orient_matrix_UB_12      -0.1475274000
_diffrn_orient_matrix_UB_13      0.1043833000
_diffrn_orient_matrix_UB_21      0.1124481000
_diffrn_orient_matrix_UB_22      -0.0447315000
_diffrn_orient_matrix_UB_23      -0.1075767000
_diffrn_orient_matrix_UB_31      0.2547556000
_diffrn_orient_matrix_UB_32      0.0343570000
_diffrn_orient_matrix_UB_33      0.0024017000
_diffrn_radiation_monochromator  graphite
_diffrn_radiation_type           CuK\a
_diffrn_radiation_wavelength     1.54184
_diffrn_reflns_av_R_equivalents  0.0552
_diffrn_reflns_av_unetI/netI     0.0906
_diffrn_reflns_Laue_measured_fraction_full 0.965
_diffrn_reflns_Laue_measured_fraction_max 0.936
_diffrn_reflns_limit_h_max       6
_diffrn_reflns_limit_h_min       -5
_diffrn_reflns_limit_k_max       13
_diffrn_reflns_limit_k_min       -12
_diffrn_reflns_limit_l_max       14
_diffrn_reflns_limit_l_min       -14
_diffrn_reflns_number            3681
_diffrn_reflns_point_group_measured_fraction_full 0.965
_diffrn_reflns_point_group_measured_fraction_max 0.936
_diffrn_reflns_theta_full        67.684
_diffrn_reflns_theta_max         74.939
_diffrn_reflns_theta_min         4.302
_diffrn_source                   'Enhance (Cu) X-ray Source'
_exptl_absorpt_coefficient_mu    0.611
_exptl_absorpt_correction_T_max  0.960
_exptl_absorpt_correction_T_min  0.902
_exptl_absorpt_correction_type   analytical
_exptl_absorpt_process_details
;
CrysAlisPro, Agilent Technologies,
Version 1.171.36.28 (release 01-02-2013 CrysAlis171 .NET)
(compiled Feb  1 2013,16:14:44)
Analytical numeric absorption correction using a multifaceted crystal
			model based on expressions derived by R.C. Clark & J.S. Reid.
(Clark, R. C. & Reid, J. S. (1995). Acta Cryst. A51, 887-897)
;
_exptl_crystal_colour            'clear light yellow'
_exptl_crystal_colour_lustre     clear
_exptl_crystal_colour_modifier   light
_exptl_crystal_colour_primary    yellow
_exptl_crystal_density_diffrn    1.273
_exptl_crystal_description       irregular
_exptl_crystal_F_000             248
_exptl_crystal_size_max          0.2778
_exptl_crystal_size_mid          0.1528
_exptl_crystal_size_min          0.0855
_refine_diff_density_max         0.487
_refine_diff_density_min         -0.475
_refine_diff_density_rms         0.111
_refine_ls_extinction_method     none
_refine_ls_goodness_of_fit_ref   1.009
_refine_ls_hydrogen_treatment    constr
_refine_ls_matrix_type           full
_refine_ls_number_parameters     163
_refine_ls_number_reflns         2349
_refine_ls_number_restraints     0
_refine_ls_restrained_S_all      1.009
_refine_ls_R_factor_all          0.1177
_refine_ls_R_factor_gt           0.0956
_refine_ls_shift/su_max          0.000
_refine_ls_shift/su_mean         0.000
_refine_ls_structure_factor_coef Fsqd
_refine_ls_weighting_details
'w=1/[\s^2^(Fo^2^)+(0.1636P)^2^] where P=(Fo^2^+2Fc^2^)/3'
_refine_ls_weighting_scheme      calc
_refine_ls_wR_factor_gt          0.2368
_refine_ls_wR_factor_ref         0.2677
_reflns_Friedel_coverage         0.000
_reflns_number_gt                1644
_reflns_number_total             2349
_reflns_threshold_expression     'I > 2\s(I)'
_cod_data_source_file            c9qo00294d17.cif
_cod_data_source_block           mjp_1
_cod_database_code               1554825
_shelx_shelxl_version_number     2018/1
_chemical_oxdiff_formula         'C15 H12 N3'
_shelx_space_group_comment
;
The symmetry employed for this shelxl refinement is uniquely defined
by the following loop, which should always be used as a source of
symmetry information in preference to the above space-group names.
They are only intended as comments.
;
_reflns_odcompleteness_completeness 96.14
_reflns_odcompleteness_iscentric 1
_reflns_odcompleteness_theta     68.13
_olex2_refinement_description
;
1. Others
 Fixed Uiso: H001(0.039) H003(0.045) H007(0.042) H008(0.039) H009(0.04)
 H00A(0.04) H00B(0.042) H00C(0.045) H00D(0.047) H00E(0.045) H00G(0.046)
 H00H(0.043) H00I(0.048)
 Fixed X: H001(1.032603) H003(0.428675) H007(0.818204) H008(0.776617)
 H009(1.145227) H00A(0.431004) H00B(1.196104) H00C(0.469315) H00D(0.335039)
 H00E(0.640448) H00G(0.247112) H00H(1.046224) H00I(1.065088)
 Fixed Y: H001(0.353793) H003(0.219224) H007(0.076273) H008(0.442068)
 H009(0.597311) H00A(0.648091) H00B(0.13653) H00C(0.338076) H00D(0.842314)
 H00E(0.91631) H00G(0.20364) H00H(0.79046) H00I(-0.041705)
 Fixed Z: H001(0.586699) H003(0.452648) H007(0.528152) H008(0.122538)
 H009(0.144797) H00A(0.291756) H00B(0.758197) H00C(0.076382) H00D(0.102509)
 H00E(-0.068395) H00G(0.284979) H00H(-0.0458) H00I(0.724903)
;
_shelx_res_file
;
TITL mjp_1_a.res in P-1
    mjp_1.res
    created by SHELXL-2018/1 at 13:37:05 on 22-Oct-2018
REM Old TITL mjp_1 in P-1
REM SHELXT solution in P-1
REM R1 0.171, Rweak 0.004, Alpha 0.041, Orientation as input
REM Formula found by SHELXT: C15 N3
CELL 1.54184 5.4882 11.1825 11.6413 62.292 80.059 76.727
ZERR 2 0.0007 0.0015 0.0016 0.014 0.011 0.011
LATT 1
SFAC C H N
UNIT 30 26 6

L.S. 90
PLAN  2
BOND $H
list 4
fmap 2
acta
OMIT 0 150
REM <olex2.extras>
REM <HklSrc "%.\\mjp_1.hkl">
REM </olex2.extras>

WGHT    0.163600
FVAR       1.13549
N001  3    1.011830    0.275859    0.595761    11.00000    0.03559    0.03930 =
         0.03027   -0.02011   -0.00226   -0.00835
AFIX  43
H001  2    1.032603    0.353793    0.586699    11.00000   -1.20000
AFIX   0
N002  3    0.868142    0.487239    0.357278    11.00000    0.03399    0.03756 =
         0.02847   -0.01776   -0.00193   -0.00730
N003  3    0.472630    0.259998    0.370892    11.00000    0.03493    0.05173 =
         0.03212   -0.02239   -0.00026   -0.01132
AFIX  43
H003  2    0.428675    0.219224    0.452648    11.00000   -1.20000
AFIX   0
C004  1    0.797593    0.371602    0.394034    11.00000    0.02684    0.03963 =
         0.02716   -0.02030    0.00209   -0.00411
C005  1    0.796975    0.602042    0.238220    11.00000    0.03444    0.03740 =
         0.02992   -0.02064   -0.00269   -0.00617
C006  1    0.882134    0.257695    0.515177    11.00000    0.03170    0.04140 =
         0.02358   -0.01759   -0.00096   -0.01125
C007  1    0.890746    0.118568    0.562843    11.00000    0.04201    0.04239 =
         0.02674   -0.01860   -0.00280   -0.00935
AFIX  43
H007  2    0.818204    0.076273    0.528152    11.00000   -1.20000
AFIX   0
C008  1    0.669184    0.385331    0.183839    11.00000    0.03533    0.03802 =
         0.02830   -0.01786    0.00037   -0.00846
AFIX  43
H008  2    0.776617    0.442068    0.122538    11.00000   -1.20000
AFIX   0
C009  1    0.982222    0.646234    0.135953    11.00000    0.02891    0.03739 =
         0.03599   -0.01979   -0.00151   -0.00374
AFIX  43
H009  2    1.145227    0.597311    0.144797    11.00000   -1.20000
AFIX   0
C00A  1    0.554907    0.676753    0.224180    11.00000    0.02879    0.04081 =
         0.03721   -0.02294   -0.00118   -0.00483
AFIX  43
H00A  2    0.431004    0.648091    0.291756    11.00000   -1.20000
AFIX   0
C00B  1    1.102168    0.151560    0.691996    11.00000    0.04071    0.04004 =
         0.02503   -0.01412   -0.00433   -0.00741
AFIX  43
H00B  2    1.196104    0.136530    0.758197    11.00000   -1.20000
AFIX   0
C00C  1    0.495821    0.327142    0.157743    11.00000    0.03861    0.04849 =
         0.03524   -0.02653   -0.00724   -0.00236
AFIX  43
H00C  2    0.469315    0.338076    0.076382    11.00000   -1.20000
AFIX   0
C00D  1    0.497671    0.792914    0.110792    11.00000    0.03386    0.04201 =
         0.05050   -0.02947   -0.01023    0.00005
AFIX  43
H00D  2    0.335039    0.842314    0.102509    11.00000   -1.20000
AFIX   0
C00E  1    0.679960    0.837636    0.008129    11.00000    0.04533    0.03667 =
         0.03415   -0.01901   -0.00707   -0.00338
AFIX  43
H00E  2    0.640448    0.916310   -0.068395    11.00000   -1.20000
AFIX   0
C00F  1    0.651272    0.343053    0.317031    11.00000    0.02864    0.03854 =
         0.02772   -0.01891    0.00032   -0.00669
C00G  1    0.373830    0.251805    0.273557    11.00000    0.03366    0.04736 =
         0.04438   -0.02746   -0.00693   -0.00804
AFIX  43
H00G  2    0.247112    0.203640    0.284979    11.00000   -1.20000
AFIX   0
C00H  1    0.923019    0.762183    0.022238    11.00000    0.03940    0.03915 =
         0.03063   -0.01750   -0.00012   -0.00614
AFIX  43
H00H  2    1.046224    0.790460   -0.045800    11.00000   -1.20000
AFIX   0
C00I  1    1.029175    0.052423    0.673409    11.00000    0.05299    0.04028 =
         0.02908   -0.01554   -0.00713   -0.00673
AFIX  43
H00I  2    1.065088   -0.041705    0.724903    11.00000   -1.20000
AFIX   0
HKLF 4




REM  mjp_1_a.res in P-1
REM R1 =  0.0956 for    1644 Fo > 4sig(Fo)  and  0.1177 for all    2349 data
REM    163 parameters refined using      0 restraints

END

WGHT      0.1636      0.0000

REM Highest difference peak  0.487,  deepest hole -0.475,  1-sigma level  0.111
Q1    1   0.4171  0.3712  0.3368  11.00000  0.05    0.44
Q2    1   0.5805  0.5686  0.2655  11.00000  0.05    0.42
;
_shelx_res_checksum              82129
_shelx_hkl_file
;
   0   0   1  665.43   27.97
   0   0   2  553.76   29.65
   0   0   3  696.49   38.91
   0   0   4  221.27   22.38
   0   0   5  106.70   16.74
   0   0   6  177.47   25.23
   0   0   7   43.45   13.77
   0   0   8   62.71   21.20
   0   0   8   77.71   12.15
   0   0   9   12.65    9.90
   0   0   9   13.26    5.66
   0   0  10   32.40    8.88
   0   0  11   28.41    7.52
   0   0 -12    4.03    2.89
   0   1 -12    8.95    3.12
   0   1 -11   10.79    4.53
   0  -1  10  136.21   16.67
   0  -1   9   18.06    6.73
   0  -1   8   26.93   13.01
   0  -1   8   34.53    8.86
   0  -1   7  101.70   25.76
   0  -1   6   64.61   17.73
   0  -1   5 1749.67  102.86
   0  -1   4  748.49   55.49
   0  -1   3    0.12    2.72
   0  -1   2  227.64   19.55
   0  -1   1   34.54    6.32
   0   1   0  811.27   29.37
   0  -1   0  819.82   31.03
   0   1   1   70.37    6.60
   0   1   2 3453.50  124.90
   0   1   3 2000.27   85.04
   0   1   4  215.39   22.68
   0   1   5   58.44   12.34
   0   1   6   84.36   16.51
   0   1   7   69.36   16.60
   0   1   8  204.11   18.99
   0   1   8  232.40   35.95
   0   1   9  113.17   27.95
   0   1   9  124.21   16.45
   0   1  10  623.78   42.63
   0   1  11   47.61   11.04
   0   1  12    5.01    2.67
   0  -1 -13    3.18    2.01
   0   2 -11    0.87    1.31
   0   2 -10   33.54    8.19
   0   2  -9  183.09   19.71
   0  -2   9  153.11   15.03
   0  -2   8  126.68   15.20
   0  -2   7  510.62   33.02
   0  -2   7  479.37   57.98
   0  -2   6   43.68   18.19
   0  -2   5   82.58   22.41
   0  -2   4  332.59   41.41
   0  -2   3  303.24   30.66
   0  -2   2   22.12    6.36
   0  -2   1 1056.05   49.92
   0  -2   0 4108.47  131.96
   0   2   0 3582.90  126.97
   0  -2  -1  560.46   27.44
   0   2   2 2294.75   88.06
   0   2   3 1172.95   59.07
   0   2   4    5.81    4.44
   0   2   5  934.12   63.65
   0   2   6    9.04    6.76
   0   2   7  125.82   23.94
   0   2   8   51.78   16.58
   0   2   9   13.10    3.44
   0   2   9   17.90    9.39
   0   2  10  167.15   18.53
   0   2  11   34.40    8.22
   0   2  12   35.74    7.77
   0   2  13    7.18    2.72
   0   3 -11   -0.34    1.12
   0   3 -10    3.24    1.99
   0   3  -9   48.48    9.47
   0   3  -8    0.78    2.80
   0  -3   8   -0.26    1.28
   0   3  -7   -2.70    2.74
   0   3  -7    0.41    3.44
   0  -3   7   -2.53    1.37
   0  -3   6   22.10   13.00
   0   3  -6   23.24   11.93
   0  -3   5   14.20    8.73
   0  -3   4  237.55   35.63
   0  -3   3    9.28    6.51
   0  -3   2  167.21   20.64
   0   3  -1  309.73   22.08
   0  -3   1  350.26   26.64
   0  -3   0  314.19   21.05
   0   3   0  266.89   16.42
   0   3   1   62.48    6.59
   0  -3  -1   48.19    7.66
   0   3   2 2470.14   96.73
   0   3   3 3117.63  121.69
   0   3   4   -0.85    2.22
   0   3   5  161.70   24.10
   0   3   6  349.35   40.39
   0   3   7   19.18    9.12
   0   3   8   84.40   21.29
   0   3   9   25.41   12.14
   0   3   9   24.26    6.42
   0   3  10   -0.89    2.21
   0   3  10    4.11    2.12
   0   3  11  607.39   37.04
   0   3  12   19.97    5.73
   0   3  13   20.48    4.46
   0  -3 -14    1.01    0.77
   0   3  14   -0.62    0.85
   0   4 -10    2.25    1.39
   0   4 -10    0.60    1.27
   0   4  -9    5.31    3.11
   0   4  -8  121.20   15.56
   0   4  -7   42.14    9.65
   0   4  -6    7.73    5.01
   0  -4   6    5.87    7.37
   0   4  -5    9.96    4.13
   0   4  -5   13.45    8.57
   0  -4   5    3.74    6.86
   0   4  -4   24.76    9.62
   0  -4   4   17.91    9.95
   0  -4   3  177.89   25.71
   0   4  -3  143.04   21.17
   0  -4   2  658.36   46.68
   0   4  -2  538.92   38.77
   0  -4   1  116.39   16.58
   0   4  -1   94.82   11.44
   0   4   0   32.41    5.50
   0  -4   0   31.73    7.60
   0  -4  -1  294.73   22.40
   0   4   1  256.29   15.12
   0  -4  -2   19.12    6.22
   0   4   3  495.87   34.40
   0   4   4  274.86   25.29
   0   4   5   14.28    6.65
   0   4   6  119.25   20.95
   0   4   7  429.56   45.73
   0   4   8  195.49   30.99
   0   4   9   70.79    9.15
   0   4   9   95.37   11.64
   0   4  10   -4.28    3.69
   0   4  10   -0.13    2.14
   0   4  11   39.00    7.80
   0   4  12   21.03    5.67
   0   4  13  139.47   12.93
   0   4  14    6.23    2.02
   0   5  -9    7.09    2.56
   0   5  -8    3.26    2.49
   0   5  -8    2.91    2.84
   0   5  -7   22.17    6.87
   0   5  -6    3.61    3.89
   0   5  -5    1.40    2.62
   0  -5   5    9.08    9.49
   0   5  -4   47.23    8.94
   0  -5   4   39.86   15.63
   0  -5   3   90.29   19.52
   0  -5   2    2.07    4.73
   0  -5   1  665.39   49.14
   0  -5   0    8.33    5.29
   0  -5  -1  242.74   23.25
   0  -5  -2   15.73    6.10
   0  -5  -3   32.33   10.16
   0  -5  -4   30.30    9.96
   0   5   5   57.61   13.54
   0   5   6   13.45    6.33
   0   5   7  395.73   41.70
   0   5   8   58.41   16.55
   0   5   9   40.15   13.42
   0   5   9   34.42    6.81
   0   5   9   32.10    6.36
   0   5  10   47.39   14.70
   0   5  10   55.60    9.29
   0   5  11    4.17    3.01
   0   5  12   58.02    8.94
   0   5  13  285.35   19.95
   0   5  14   92.56    8.29
   0   6  -8    1.52    1.50
   0   6  -7    9.42    3.22
   0   6  -7   14.16    4.57
   0   6  -6   66.67   12.13
   0   6  -6   51.06    9.34
   0   6  -5   10.70    5.33
   0   6  -5   19.88    6.50
   0  -6   4  126.11   29.20
   0   6  -4  213.33   21.77
   0   6  -3   19.84    6.00
   0  -6   3   22.75   10.55
   0  -6   2  239.76   34.05
   0  -6   1   92.28   19.08
   0  -6   0    2.28    4.02
   0  -6  -1  103.20   17.73
   0  -6  -2   11.97    5.97
   0  -6  -3    1.38    4.40
   0  -6  -4   39.96   13.71
   0  -6  -5  375.51   41.24
   0   6   6   65.99   16.05
   0   6   7    5.83    5.61
   0   6   8  238.00   34.14
   0   6   8  201.30   16.98
   0   6   9  624.81   36.62
   0   6   9  654.77   60.14
   0   6   9  679.36   37.51
   0   6  10    9.08    4.29
   0   6  10   11.11    3.90
   0   6  11   56.07    9.80
   0  -6 -12   12.44    3.70
   0   6  12   10.87    3.92
   0   6  13   21.43    4.67
   0   6  14   17.88    3.63
   0   7  -7    3.38    1.71
   0   7  -6   44.34    8.08
   0   7  -5   39.94    7.83
   0   7  -5   47.84   10.30
   0   7  -4   15.41    6.17
   0   7  -4   20.55    6.65
   0   7  -3   13.30    4.75
   0   7  -3   10.88    4.90
   0   7  -2   13.67    4.35
   0   7  -2   12.20    4.31
   0  -7   2   14.32    9.89
   0  -7   1   88.18   21.10
   0   7  -1   66.55   10.44
   0   7  -1   59.75    9.43
   0  -7   0   81.73   19.64
   0  -7  -1    4.82    5.18
   0  -7  -2   22.18    8.97
   0  -7  -3   63.48   16.66
   0  -7  -4  405.27   44.78
   0  -7  -5    1.30    2.42
   0  -7  -6    4.28    6.14
   0  -7  -7    7.82    5.38
   0  -7  -8   17.51   10.75
   0   7   8    4.01    2.77
   0  -7  -9  118.25   29.41
   0   7   9   81.57   11.62
   0   7   9   83.27   11.50
   0   7  10   -1.46    2.04
   0   7  10    0.58    1.01
   0   7  11   69.84   10.53
   0   7  11   41.25    6.78
   0   7  12   31.28    6.73
   0  -7 -13    2.07    1.91
   0   7  13    3.29    2.42
   0   7  14   -0.31    0.98
   0   8  -6    1.12    1.11
   0   8  -5   23.81    5.53
   0   8  -4   15.15    4.20
   0   8  -4   32.44    7.80
   0   8  -3    7.89    4.32
   0   8  -3   12.98    4.32
   0   8  -2  137.84   15.79
   0   8  -2  135.66   16.28
   0   8  -1  194.47   18.75
   0  -8   1  216.12   37.35
   0   8  -1  209.55   20.02
   0  -8   0  210.39   35.64
   0   8   0  174.53   18.07
   0   8   0  162.92   16.49
   0   8   1   19.03    5.97
   0   8   1    8.67    3.08
   0   8   1   12.52    4.66
   0  -8  -1    5.04    9.11
   0   8   2   59.31    8.31
   0   8   2   76.08   12.12
   0   8   2   73.21   11.26
   0  -8  -2   95.85   23.41
   0   8   3    2.80    1.85
   0   8   3   -1.04    1.49
   0  -8  -3   -1.06    2.56
   0   8   4   14.84    4.15
   0  -8  -4   20.73   10.43
   0   8   4   15.03    5.10
   0   8   5   43.81    8.68
   0  -8  -5   55.25   16.18
   0   8   5   44.36    8.57
   0   8   5   45.50    8.02
   0   8   6   -2.09    3.17
   0   8   6    5.02    3.58
   0  -8  -6   -3.19    2.30
   0  -8  -7   23.84   10.58
   0   8   7   28.97    7.01
   0  -8  -8   58.79   19.74
   0   8   8   40.68    7.44
   0   8   8   35.78    6.77
   0   8   9  184.31   17.56
   0   8   9  142.46   14.02
   0   8  10    7.57    3.18
   0   8  10    7.47    3.14
   0   8  11   11.30    5.09
   0   8  11    7.10    3.20
   0   8  12  187.66   15.63
   0  -8 -13    6.55    2.32
   0   8  13   15.57    4.03
   0   8  14    3.85    1.78
   0   9  -4    1.45    1.80
   0   9  -3   37.92    6.49
   0   9  -3   56.70   10.10
   0   9  -2   10.39    4.22
   0   9  -2    6.91    3.74
   0   9  -1   92.03   12.31
   0   9  -1  109.04   14.04
   0   9   0   51.71    9.54
   0   9   0   35.24    7.69
   0  -9  -1    3.57    7.61
   0   9   1    1.51    1.72
   0   9   1    2.37    2.39
   0  -9  -2   59.42   21.56
   0   9   2   37.73    7.28
   0   9   2   48.66    9.70
   0   9   3   46.07    9.98
   0   9   3   38.96    8.77
   0  -9  -3   39.48   17.29
   0   9   3   34.25    7.38
   0   9   4    0.36    1.29
   0   9   4    1.27    1.41
   0   9   4    2.70    3.74
   0  -9  -4   -3.84    4.30
   0  -9  -5   35.02   14.76
   0   9   5   35.88    9.07
   0   9   5   31.63    8.08
   0   9   5   26.05    6.78
   0   9   6  121.90   16.94
   0   9   6  107.34   14.40
   0  -9  -6  106.29   24.28
   0   9   7  382.72   28.47
   0  -9  -7  303.03   41.83
   0   9   8    2.13    2.65
   0   9   9   20.04    5.15
   0   9  10    1.82    1.32
   0   9  10   -0.67    2.09
   0   9  11   10.16    3.66
   0   9  11    5.00    1.98
   0   9  12   46.86    7.01
   0   9  13    1.26    1.24
   0  -9 -13    3.03    1.87
   0  10  -3   28.83    5.46
   0  10  -2   -0.82    1.88
   0  10  -1    2.69    2.25
   0  10   0   62.25   10.12
   0  10   1   24.93    6.24
   0  10   2    9.02    3.94
   0  10   2    7.17    4.00
   0  10   2    4.43    3.04
   0  10   3   68.53   12.21
   0  10   3   85.43   11.83
   0  10   3   67.24   11.24
   0  10   4   19.56    5.89
   0  10   4   19.56    6.89
   0  10   4   15.07    4.98
   0  10   5   74.74   13.05
   0  10   5   65.27   12.59
   0  10   5   58.00   10.57
   0  10   6    4.74    3.41
   0  10   6   10.33    4.95
   0  10   7  130.97   16.12
   0  10   8   35.93    8.05
   0  10   9   21.10    5.87
   0  10  10   25.81    5.33
   0  10  10   26.11    5.79
   0  10  11   33.49    5.71
   0 -10 -12   64.51    7.53
   0 -10 -13   70.57    7.02
   0  11  -1    6.89    3.33
   0  11  -1    6.83    2.87
   0  11   0    3.59    2.68
   0  11   0    3.37    1.85
   0  11   1    5.63    2.72
   0  11   1    6.07    3.01
   0  11   2   25.83    6.10
   0  11   2   20.03    5.47
   0  11   2   25.55    5.34
   0  11   3   -2.28    3.13
   0  11   3    1.28    1.92
   0  11   3   -0.67    1.64
   0  11   4   34.50    8.00
   0  11   4   22.98    6.01
   0  11   4   30.01    7.42
   0  11   5   21.91    6.35
   0  11   5   14.74    4.31
   0  11   6  100.76   14.80
   0  11   6  103.39   14.22
   0  11   7   28.07    7.41
   0  11   8   18.18    5.91
   0  11   9  127.67   13.71
   0  11  10   62.25    9.36
   0  11  10   51.19    7.18
   0  11  11   21.56    4.41
   0 -11 -12    0.40    1.03
   0  12   1    1.39    1.42
   0  12   2    0.36    1.23
   0  12   3   67.00    8.70
   0  12   3   98.87    9.81
   0  12   4   -1.78    2.08
   0  12   4    0.67    1.65
   0  12   5   16.61    4.79
   0  12   5   31.94    7.78
   0  12   6   25.38    6.57
   0  12   7    5.16    3.57
   0  12   8   73.47    9.91
   0  12   9   -0.08    1.59
   0 -12  -9   -0.06    1.28
   0  12  10   59.99    8.05
   0  12  10   56.56    6.70
   0 -12 -10   49.35    6.29
   0  12  11    1.26    0.58
   0 -12 -11    0.61    0.75
   0  13   5  135.81   11.47
   0  13   6   47.66    6.91
   0  13   7   -2.84    1.58
   0  13   8    2.95    1.65
   0  13   9   -0.83    0.95
   0  13   9    0.06    1.08
  -1  13   7   -0.11    0.57
  -1  13   6   18.44    2.95
  -1  12   9    0.55    0.82
  -1  12   8    3.34    2.13
  -1  12   7  104.87   10.33
  -1  12   6    2.42    1.82
  -1  12   5   15.25    4.12
  -1  12   4   80.86    8.75
  -1  12   3   -0.50    0.70
   1 -11 -11  237.38   13.79
   1 -11 -10    7.32    2.44
  -1  11  10    2.59    1.62
  -1  11   9    8.04    3.18
   1 -11  -9   10.50    3.13
  -1  11   9    8.35    3.55
   1 -11  -8    1.23    1.12
  -1  11   8    3.96    2.84
  -1  11   7    2.43    2.91
  -1  11   6   -0.92    2.93
  -1  11   5   19.39    6.25
  -1  11   4   41.82    8.46
  -1  11   4   33.53    7.61
  -1  11   3  253.08   21.63
  -1  11   3  297.91   21.78
  -1  11   2    4.06    2.65
  -1  11   2   -2.99    1.55
  -1  11   1   15.04    4.44
  -1  11   0   12.78    3.85
  -1  11  -1    1.82    1.69
   1 -10 -12    1.86    1.42
   1 -10 -11   18.44    3.95
  -1  10  11   12.55    3.38
  -1  10  10   10.41    3.51
  -1  10  10    6.24    2.43
   1 -10 -10   10.26    3.42
   1 -10  -9   93.40   10.63
  -1  10   9   82.91   11.03
  -1  10   9   80.79    9.97
  -1  10   9   71.49    8.77
   1 -10  -8   63.11    8.79
  -1  10   8   76.55   11.22
  -1  10   7   13.70    4.68
   1 -10  -7    8.26    3.06
  -1  10   6   83.10   13.33
  -1  10   5   32.42    8.32
  -1  10   4   20.36    6.42
  -1  10   4   36.04   10.27
  -1  10   3   45.78   10.61
  -1  10   3   56.57   10.95
  -1  10   2   18.40    5.39
  -1  10   2   17.21    6.17
  -1  10   1   70.79   11.00
  -1  10   0    3.50    2.57
  -1  10  -1   -1.89    3.07
  -1  10  -2    0.00    2.22
  -1  10  -3    1.95    1.33
   1  -9 -13   14.73    2.58
  -1   9  12    7.81    2.20
   1  -9 -12   10.49    3.45
   1  -9 -11  223.85   16.74
  -1   9  11  220.60   16.90
   1  -9 -10   -1.49    1.46
  -1   9  10   -3.43    2.61
  -1   9   9    0.62    2.05
  -1   9   9    3.39    3.09
  -1   9   8    2.48    2.80
  -1   9   8    4.89    3.63
  -1   9   7   68.53   11.97
  -1   9   6    2.66    3.93
  -1   9   5    9.03    4.98
  -1   9   5   14.29    6.83
  -1   9   4   35.20    9.42
  -1   9   4   30.98    8.56
  -1   9   3   17.08    6.00
  -1   9   3   20.39    7.80
  -1   9   2   33.81    8.50
  -1   9   2   42.08   10.20
  -1   9   1  454.78   30.32
  -1   9   1  416.55   32.12
  -1   9   0  110.58   14.42
  -1   9  -1    7.71    3.32
  -1   9  -2   33.56    8.01
  -1   9  -3    0.78    1.78
  -1   9  -4   26.98    5.94
  -1   9  -5    1.38    0.69
   1  -8 -13   19.22    3.45
  -1   8  13   22.11    3.96
   1  -8 -12    4.67    2.85
  -1   8  12    4.32    2.94
   1  -8 -11   23.18    5.91
  -1   8  11   26.97    5.68
  -1   8  10    3.60    2.40
  -1   8   9   30.91    7.03
  -1   8   8    4.71    2.66
  -1   8   7    2.56    2.20
   1  -8  -6    4.51    5.37
  -1   8   6   11.19    5.32
  -1   8   5   95.94   14.27
   1  -8  -5   57.39   15.11
  -1   8   5   91.16   13.76
  -1   8   4    6.28    3.69
   1  -8  -4   11.34    6.84
  -1   8   4   16.00    7.22
  -1   8   3    5.05    4.84
  -1   8   3   -4.00    4.48
   1  -8  -3    6.85    7.33
   1  -8  -2   17.46    9.41
  -1   8   2   28.30    9.02
  -1   8   2   21.09    7.08
   1  -8  -1    9.82    8.60
  -1   8   1   13.98    7.14
  -1   8   1    4.95    2.65
   1  -8   0  195.97   32.08
  -1   8   0  253.84   23.42
  -1   8  -1    4.25    3.67
  -1   8  -2   68.84   12.39
  -1   8  -3    9.64    3.57
  -1   8  -4   -1.40    1.85
  -1   8  -5    4.88    3.21
  -1   8  -6    4.51    2.06
  -1   7  13    5.79    2.21
  -1   7  12   11.86    4.44
   1  -7 -12    6.85    3.74
  -1   7  11   58.32    8.80
   1  -7 -11   66.90   10.66
  -1   7  10  199.91   18.09
  -1   7   9   42.32    8.35
  -1   7   8   53.79    8.34
  -1   7   7  102.72   12.66
   1  -7  -7   74.81   16.36
   1  -7  -6   23.25    9.18
   1  -7  -6   24.05    4.81
   1  -7  -5  177.23   26.05
  -1   7   5  190.95   18.09
   1  -7  -4   23.98    9.55
   1  -7  -3   84.18   17.25
   1  -7  -2   19.47    8.47
  -1   7   1   47.96   10.24
   1  -7  -1   44.02   13.95
  -1   7   0   12.95    5.11
   1  -7   0   12.66    7.48
  -1   7  -1    6.13    3.76
   1  -7   1    4.35    5.87
  -1   7  -2   36.72    8.84
   1  -7   2   29.52   13.23
  -1   7  -3   84.98   14.28
  -1   7  -4    6.76    3.32
  -1   7  -5  113.12   16.29
  -1   7  -6    3.12    2.49
  -1   7  -7   -0.06    1.10
  -1   6  13   12.01    3.16
   1  -6 -12   28.72    5.95
  -1   6  12   40.65    6.89
   1  -6 -11    2.72    2.73
  -1   6  11    6.00    3.48
  -1   6  10   42.34    7.83
  -1   6   9   34.78    6.67
  -1   6   8    2.41    2.23
   1  -6  -8   -2.42    3.19
   1  -6  -7    2.14    3.14
   1  -6  -6    5.04    2.85
   1  -6  -5  122.46   20.56
   1  -6  -4   91.46   16.74
   1  -6  -3   46.83   10.89
   1  -6  -2  117.23   18.02
   1  -6  -1  130.18   20.01
   1  -6   0   71.31   16.21
   1  -6   1    7.10    5.84
   1  -6   2  178.28   29.54
  -1   6  -2  167.27   18.03
  -1   6  -3  130.82   17.04
  -1   6  -4   11.82    6.48
  -1   6  -5   18.24    7.85
  -1   6  -6   75.66   14.06
  -1   6  -7   15.15    5.13
  -1   6  -8    5.71    2.33
  -1   5  13   37.06    5.64
  -1   5  12   -2.36    2.91
   1  -5 -11    8.37    3.44
  -1   5  11    7.42    3.90
   1  -5 -10   52.25   10.24
  -1   5  10   47.36    8.78
  -1   5   9    0.61    2.50
  -1   5   8   77.56    9.89
  -1   5   8   74.82   15.69
   1  -5  -7    3.57    3.87
   1  -5  -6   91.30   16.92
   1  -5  -5   43.79   11.30
   1  -5  -4  207.20   24.34
   1  -5  -3   25.84    8.04
   1  -5  -2  923.62   51.12
   1  -5  -1   -0.92    1.47
   1  -5   0    5.49    4.62
   1  -5   1   58.51   13.61
   1  -5   2   13.85    7.59
  -1   5  -3    2.26    2.45
   1  -5   3    0.78    5.66
  -1   5  -4   41.72    9.57
   1  -5   4   33.42   14.19
  -1   5  -5    0.62    3.64
   1  -5   5    3.24    5.36
  -1   5  -6   68.13   14.04
  -1   5  -7   12.05    6.08
  -1   5  -8   -3.44    3.56
  -1   5  -9   11.94    3.70
  -1   4  13   18.81    3.92
  -1   4  12   12.95    4.67
  -1   4  11   10.30    5.15
   1  -4 -10    3.38    2.45
  -1   4  10    4.08    3.95
  -1   4   9   35.82    7.09
   1  -4  -9   16.56    9.20
  -1   4   8    5.60    2.85
   1  -4  -8    9.38    5.73
  -1   4   8    6.40    5.82
  -1   4   7  157.62   21.18
  -1   4   6    3.85    3.64
   1  -4  -5    3.34    2.86
  -1   4   5    7.47    5.02
   1  -4  -4    4.48    4.00
   1  -4  -4    2.33    1.70
   1  -4  -3   17.24    5.85
   1  -4  -2   31.77    6.80
   1  -4  -1 1052.96   52.93
   1  -4   0   25.86    7.50
   1  -4   1  634.11   46.82
   1  -4   2   58.59   14.51
   1  -4   3   91.08   19.90
   1  -4   4    5.71    4.89
  -1   4  -5  216.78   23.63
   1  -4   5  142.97   31.17
   1  -4   6   59.33   20.80
  -1   4  -6  103.00   16.94
  -1   4  -7   55.33   12.55
  -1   4  -8   11.90    5.66
  -1   4  -9    1.42    2.60
  -1   4 -10   -0.60    0.84
  -1   3  13   16.38    3.74
  -1   3  12   55.14    8.80
  -1   3  11  219.98   19.76
  -1   3  10   99.67   13.07
   1  -3 -10   81.97   10.45
   1  -3  -9    3.82    1.42
  -1   3   9   13.06    5.06
   1  -3  -9   11.73    9.08
   1  -3  -8   10.80    8.17
  -1   3   8   10.16    3.96
  -1   3   7   61.44   12.70
   1  -3  -6  336.56   30.57
  -1   3   6  357.62   30.22
  -1   3   5  419.99   31.31
  -1   3   4  251.53   23.22
   1  -3  -3  328.53   20.87
   1  -3  -2 1412.20   58.21
   1  -3  -2 1310.15   49.31
   1  -3  -1   13.36    4.67
   1  -3   0  783.73   43.50
   1  -3   1  247.90   24.44
   1  -3   2    2.04    1.84
   1  -3   3    7.40    5.62
   1  -3   4   34.61   14.04
   1  -3   5   10.62    8.84
   1  -3   6    2.30    5.81
  -1   3  -6    5.78    5.19
  -1   3  -7   50.22   12.27
  -1   3  -8  229.63   25.46
  -1   3  -9   11.92    5.14
  -1   3 -10    2.70    2.71
  -1   3 -11    0.21    0.76
  -1   2  13    3.59    1.48
  -1   2  12    6.04    3.55
  -1   2  11  106.61   14.36
  -1   2  10  185.00   19.04
   1  -2 -10  120.60   12.01
   1  -2  -9   71.52    9.79
  -1   2   9   89.00   12.58
   1  -2  -9   53.61   19.80
   1  -2  -8   12.22   10.25
  -1   2   8    3.78    2.10
  -1   2   7   11.08    7.02
  -1   2   6  733.04   49.59
  -1   2   5  199.58   20.04
   1  -2  -5  169.04   19.02
   1  -2  -4  298.15   24.90
  -1   2   4  324.59   24.59
  -1   2   3  536.13   32.23
   1  -2  -3  533.10   31.26
   1  -2  -2 2852.26  102.06
   1  -2  -2 2817.45  103.08
   1  -2  -1  357.41   17.16
   1  -2  -1  314.22   18.32
   1  -2   0 2339.63   89.95
   1  -2   1  451.69   30.52
   1  -2   2  136.06   17.42
   1  -2   2  106.40   12.51
   1  -2   3  510.51   26.16
   1  -2   4  677.59   60.67
   1  -2   5  330.16   45.14
   1  -2   6  169.28   35.24
   1  -2   7   35.03   13.59
   1  -2   7   57.82   10.14
  -1   2  -8    5.63    5.57
   1  -2   8    0.59    2.09
  -1   2  -9   67.47   12.76
  -1   2 -10   22.33    7.54
  -1   2 -11   13.86    4.86
  -1   1  12    0.48    2.27
   1  -1 -12   -4.33    2.66
  -1   1  11    9.57    6.14
   1  -1 -10    7.74    3.02
  -1   1  10    9.82    5.06
  -1   1   9  112.84   15.15
   1  -1  -9   86.10   27.57
   1  -1  -9   78.91    9.77
  -1   1   8    3.50    3.80
   1  -1  -8    1.27    3.21
   1  -1  -8    3.23    2.14
  -1   1   7  198.14   28.35
  -1   1   6   32.61   10.23
  -1   1   5  119.55   17.34
  -1   1   4  234.61   20.21
   1  -1  -4  186.87   17.66
  -1   1   3 2614.73   99.93
   1  -1  -3 2627.62  104.83
   1  -1  -2 4553.48  160.29
   1  -1  -2 4458.89  160.27
  -1   1   2 4494.15  155.48
   1  -1  -1 6804.97  217.25
   1  -1  -1 6919.12  222.21
   1  -1   0  319.54   17.19
   1  -1   0  308.25   18.19
   1  -1   0  322.01   20.22
   1  -1   1 3076.67  113.83
   1  -1   1 3004.04  112.21
   1  -1   2  160.18   17.30
   1  -1   2  112.19   10.46
   1  -1   3    0.95    3.47
   1  -1   4 2156.37  114.24
   1  -1   5   54.64   17.34
   1  -1   6    8.32    9.23
   1  -1   7   17.57   13.15
   1  -1   7    0.75    1.55
   1  -1   8  192.21   20.64
   1  -1   8  192.43   37.98
   1  -1   9    6.02    4.43
  -1   1 -10    3.59    3.98
   1  -1  10    5.31    4.07
  -1   1 -11   -2.47    1.87
  -1   1 -12   12.23    3.91
   1   0 -12   18.43    4.98
   1   0 -12    1.01    1.03
  -1   0  11  100.59   11.54
   1   0 -10   12.03    3.50
  -1   0  10   24.54    7.18
   1   0  -9    2.79    1.19
  -1   0   9    9.73    4.33
   1   0  -8    1.84    6.52
   1   0  -8    2.58    1.76
  -1   0   8    8.70    2.07
   1   0  -7   21.75   12.97
  -1   0   6  200.92   25.91
  -1   0   5   90.23   15.31
  -1   0   4   41.52    8.80
  -1   0   3  492.58   28.19
  -1   0   2 1390.19   53.23
   1   0  -2 1412.84   62.30
   1   0  -2 1389.91   58.58
   1   0  -1 6546.91  222.81
   1   0  -1 6448.77  222.07
   1   0   0  284.10   17.91
   1   0   0  305.89   17.20
   1   0   1   11.28    2.58
   1   0   1   14.73    4.48
   1   0   2  474.48   29.89
   1   0   3   71.13   12.55
   1   0   4   22.02    8.14
   1   0   5  134.57   22.35
   1   0   6  485.05   49.31
   1   0   7   71.87   21.09
   1   0   8    8.35    6.78
   1   0   8    0.85    2.66
   1   0   9    2.79    4.18
   1   0   9    8.45    8.69
   1   0  10   47.50   10.84
  -1   0 -11   50.20   11.53
   1   0  11   50.47    9.05
  -1   0 -12   -0.98    1.77
  -1   0 -13    4.13    1.78
   1   1 -12   13.02    3.15
   1   1 -11   13.94    4.10
   1   1 -10    5.51    2.45
  -1  -1  10    3.62    2.77
  -1  -1   9    5.44    3.82
   1   1  -9    5.35    2.56
   1   1  -8  670.54   37.02
   1   1  -8  793.45   78.84
  -1  -1   8  710.70   38.77
   1   1  -7  149.45   28.70
   1   1  -7  120.91   12.26
   1   1  -6  226.33   32.77
  -1  -1   6  224.58   28.43
  -1  -1   5    4.95    2.70
   1   1  -5    2.44    4.71
  -1  -1   4   92.36   14.11
   1   1  -3  498.82   35.12
  -1  -1   3  537.09   34.36
  -1  -1   2  144.82   13.48
   1   1  -2  144.36   16.36
   1   1  -1 2221.94   89.23
  -1  -1   1 2195.00   80.55
   1   1   0   38.25    5.63
  -1  -1   0   31.37    2.98
   1   1   1  412.03   19.87
   1   1   1  401.06   22.34
   1   1   2  844.88   40.61
   1   1   3   51.61    8.73
   1   1   4    7.57    3.37
   1   1   5  299.53   28.78
   1   1   6    3.69    3.13
   1   1   7  137.53   24.70
   1   1   8   23.78   12.16
   1   1   8   12.50    3.94
   1   1   9    1.58    7.16
   1   1   9   -3.84    3.84
   1   1  10   -1.36    4.70
   1   1  11   -0.24    3.34
   1   1  12    4.21    2.80
  -1  -1 -13    4.46    2.47
   1   2 -11   13.44    4.14
   1   2 -10   62.52    9.21
   1   2  -9   52.91   10.03
   1   2  -8  142.16   15.47
   1   2  -7   53.07    8.51
   1   2  -7   51.11   17.67
   1   2  -6   67.89   17.17
   1   2  -5  142.58   22.05
  -1  -2   5  143.92   24.25
  -1  -2   4  120.15   20.47
   1   2  -4   91.12   16.06
  -1  -2   3   12.29    5.13
   1   2  -3   11.05    5.00
   1   2  -2   56.69   11.55
  -1  -2   2  101.53   15.98
  -1  -2   1  132.94   14.33
   1   2  -1  104.15   14.17
   1   2   0   10.71    4.22
  -1  -2   0    7.42    2.20
   1   2   1    2.00    2.40
   1   2   1    0.72    0.94
   1   2   2 9719.70  332.82
   1   2   2 9999.00  337.11
   1   2   3 1173.82   58.82
   1   2   4    1.81    3.12
   1   2   5   -1.02    1.82
   1   2   6  297.14   31.51
   1   2   7  216.78   30.74
   1   2   8   36.05   14.15
   1   2   9  156.93   33.94
   1   2   9  136.16   17.06
   1   2  10  711.04   45.39
   1   2  11   28.92    7.85
   1   2  12    2.79    2.21
   1   2  13   11.33    3.13
  -1  -2 -13   16.34    5.54
   1   3 -10    8.78    4.22
   1   3  -9   23.97    6.15
   1   3  -8   60.64   11.30
   1   3  -7   26.71    8.13
   1   3  -7   25.57    6.57
   1   3  -7   22.96   11.72
   1   3  -6    6.96    3.35
   1   3  -6    6.84    7.66
   1   3  -5   18.28    8.94
  -1  -3   5   22.65   12.08
  -1  -3   4   23.57   10.56
   1   3  -4   13.69    5.81
  -1  -3   3   96.98   19.28
   1   3  -3   53.94   12.29
  -1  -3   2   14.94    5.77
   1   3  -2    9.87    6.03
  -1  -3   1   25.78    6.85
   1   3  -1   21.84    7.12
  -1  -3   0    9.66    3.37
   1   3   0    9.65    3.88
  -1  -3  -1  287.66   20.29
   1   3   1  271.48   19.76
   1   3   2 2504.03   97.45
   1   3   2 2476.57   98.47
   1   3   3  178.12   18.41
   1   3   4 1768.65   89.33
   1   3   5   68.45   16.64
   1   3   6 1313.82   85.27
   1   3   7  799.62   64.30
   1   3   8   10.46    6.23
   1   3   9  487.11   57.66
   1   3   9  427.47   30.75
   1   3  10  465.03   60.79
   1   3  10  456.95   33.24
   1   3  11   26.16    7.57
   1   3  12   56.89    9.36
   1   3  13   23.25    4.41
   1   3  13   29.89    5.37
  -1  -3 -14    2.51    1.80
   1   4 -10    1.04    0.98
   1   4 -10    0.62    0.60
   1   4  -9    3.18    1.94
   1   4  -8   -0.85    2.24
   1   4  -7    5.14    3.68
   1   4  -6  132.80   17.45
   1   4  -6  132.58   30.43
   1   4  -5  231.84   21.04
   1   4  -5  189.11   31.11
  -1  -4   4   84.06   21.40
   1   4  -4   81.94   18.47
   1   4  -3  232.20   29.87
  -1  -4   3  259.81   32.72
  -1  -4   2  113.50   18.35
   1   4  -2  109.85   18.61
   1   4  -1   50.32   11.68
  -1  -4   1   53.21   10.96
   1   4   0  120.15   16.00
  -1  -4   0  132.53   15.03
  -1  -4  -1   15.20    4.95
   1   4   1   10.46    3.83
  -1  -4  -2  296.92   26.01
   1   4   2  225.60   20.55
   1   4   3 4048.25  154.51
   1   4   4 1380.32   71.07
   1   4   5  371.13   37.29
   1   4   6  259.66   36.07
   1   4   7    3.99    5.31
   1   4   8    8.54    8.64
   1   4   9   27.94    7.17
   1   4   9   48.49   17.07
   1   4   9   25.84    6.08
   1   4  10  204.92   36.14
   1   4  10  179.30   18.83
   1   4  11  168.66   18.13
   1   4  12  369.57   26.41
   1   4  13    0.53    1.88
   1   4  14   14.93    2.87
   1   5  -9    3.37    1.67
   1   5  -9    1.88    1.61
   1   5  -8   16.67    5.52
   1   5  -7    0.32    2.17
   1   5  -6   22.84    7.75
   1   5  -5  135.20   17.31
  -1  -5   4  181.20   32.62
   1   5  -4  189.86   32.65
   1   5  -3   23.55   10.14
  -1  -5   3   24.91    9.88
  -1  -5   2   44.84   11.86
   1   5  -2   45.58   12.84
  -1  -5   1   24.56    8.52
   1   5  -1   20.22    7.71
  -1  -5   0  106.55   16.34
   1   5   0  101.40   15.41
   1   5   1  555.63   37.06
  -1  -5  -1  549.89   37.89
   1   5   2  352.44   28.72
  -1  -5  -2  359.01   31.72
  -1  -5  -3   18.76    6.88
   1   5   4  129.45   18.26
   1   5   5  584.94   44.79
   1   5   6 1420.80   86.52
   1   5   7  283.57   38.87
   1   5   8  183.70   32.69
   1   5   9   40.54   15.49
   1   5   9   27.24    6.54
   1   5   9   28.16    6.51
   1   5  10   66.76   18.89
   1   5  10   64.35   10.67
   1   5  11   12.26    4.64
   1   5  12   -0.80    3.52
   1   5  13  393.72   25.19
   1   5  14   14.89    3.42
   1   6  -8    0.87    1.20
   1   6  -7   50.45    8.43
   1   6  -7   47.20    8.21
   1   6  -6    0.65    2.99
   1   6  -6    0.83    2.16
   1   6  -5   18.45    5.96
   1   6  -4  322.15   27.28
  -1  -6   3  121.75   24.87
  -1  -6   2   18.57    9.39
  -1  -6   1  133.24   22.59
  -1  -6   0   33.72   11.09
  -1  -6  -1   29.19    8.77
  -1  -6  -2  397.87   36.53
   1   6   2  368.95   30.59
  -1  -6  -3    4.26    5.10
  -1  -6  -4   37.45   11.37
   1   6   5  106.40   18.83
  -1  -6  -5  115.78   19.02
   1   6   6    5.66    5.08
   1   6   7  256.66   35.26
   1   6   8   63.95   18.58
   1   6   9   30.96    6.68
   1   6   9   28.32   12.14
   1   6   9   31.32    7.31
   1   6  10   34.58    7.53
   1   6  10   23.30    6.01
   1   6  10   26.20   10.97
   1   6  11   85.67   12.42
   1   6  12  148.45   15.93
   1   6  13   13.15    4.89
   1   6  14    6.71    2.40
   1   7  -7    2.62    1.95
   1   7  -6   -0.19    1.79
   1   7  -5    2.24    3.83
   1   7  -4    8.03    4.18
   1   7  -4    7.04    4.46
   1   7  -3   40.03    9.16
   1   7  -3   45.16    9.56
   1   7  -2  178.83   18.64
  -1  -7   2  196.47   32.82
  -1  -7   1   69.90   18.95
   1   7  -1   60.71    9.99
  -1  -7   0   -3.67    5.21
  -1  -7  -1  319.47   37.84
  -1  -7  -2    4.14    2.64
  -1  -7  -3   83.21   18.51
  -1  -7  -4   94.39   18.82
  -1  -7  -5  349.82   37.15
  -1  -7  -6  869.20   62.50
   1   7   7   98.36   22.58
   1   7   8    3.70    5.93
   1   7   9   47.45   16.94
   1   7   9   46.03    7.53
   1   7   9   58.26    9.70
   1   7  10   20.02    5.83
   1   7  10   21.79    6.00
   1   7  11  131.60   14.94
   1   7  11  116.62   13.60
   1   7  12   51.60    9.23
   1   7  13   10.58    4.20
   1   7  14    8.09    2.73
   1   8  -6   27.55    4.58
   1   8  -5   23.84    5.90
   1   8  -4    2.21    3.40
   1   8  -3  179.97   20.47
   1   8  -2  176.89   18.24
   1   8  -2  211.91   21.16
  -1  -8   1    8.57    7.77
   1   8  -1   18.02    5.93
  -1  -8   0   10.48    8.94
   1   8   0    3.09    3.29
  -1  -8  -1  260.24   39.66
   1   8   1  205.84   20.29
   1   8   2    0.45    2.43
  -1  -8  -2   -3.51    7.30
  -1  -8  -3  264.14   36.19
  -1  -8  -4    9.65    6.62
  -1  -8  -5    2.14    3.99
   1   8   6  143.67   15.21
  -1  -8  -6  137.76   23.75
   1   8   6  122.90   13.19
   1   8   7   55.38    9.94
   1   8   7   48.36    8.52
  -1  -8  -7   53.07   15.37
  -1  -8  -8   -1.90    6.63
   1   8   8    1.86    2.32
   1   8   9   36.48    6.77
  -1  -8  -9   51.56   16.61
   1   8  10    9.92    4.35
   1   8  11    4.77    2.88
   1   8  11    4.11    1.45
   1   8  12    9.91    4.29
   1   8  13    4.45    3.11
   1   9  -5    5.93    1.86
   1   9  -4    7.64    2.60
   1   9  -3   17.28    5.87
   1   9  -2   14.91    5.33
   1   9  -1    6.20    4.64
   1   9   0   18.69    5.73
   1   9   0   24.62    6.37
  -1  -9  -1   14.51    8.71
   1   9   1    3.92    2.88
   1   9   1    8.60    4.68
   1   9   2   76.96   11.54
   1   9   2   78.11   10.29
   1   9   2  109.43   15.02
  -1  -9  -2  128.25   30.06
   1   9   3    3.77    2.95
  -1  -9  -3   -4.35    5.43
   1   9   3    0.94    3.93
   1   9   3    0.20    2.38
  -1  -9  -4   66.46   18.58
   1   9   4   86.95   13.69
   1   9   4   64.42    9.23
   1   9   4   58.15   10.04
   1   9   5   64.62   11.24
   1   9   5   48.74    8.14
  -1  -9  -5   54.12   15.16
  -1  -9  -6   85.01   18.95
   1   9   6  113.14   14.85
   1   9   6   91.72   11.71
  -1  -9  -7   -1.97    5.21
   1   9   7    4.73    3.44
   1   9   7    2.51    2.63
   1   9   8    2.17    2.47
  -1  -9  -8    4.14    6.01
   1   9   9    4.53    2.30
   1   9  10    3.69    1.35
   1   9  10    6.08    2.73
   1   9  11  209.63   17.56
   1  10  -3   16.91    4.08
   1  10  -2    4.29    2.58
   1  10  -1    3.38    2.92
   1  10   0   28.18    6.96
   1  10   1    6.95    2.72
   1  10   1    4.53    1.90
   1  10   2    4.22    2.91
   1  10   2    0.75    1.90
   1  10   2    3.55    4.42
   1  10   3   15.22    5.84
   1  10   3   20.13    5.70
   1  10   3   25.57    7.91
   1  10   4    2.93    2.39
   1  10   4    0.08    3.72
   1  10   4    3.95    3.08
   1  10   5   16.79    6.43
   1  10   5   13.27    4.59
   1  10   6   23.20    7.73
   1  10   6   27.01    6.71
   1  10   7   33.89    8.93
   1  10   7   24.22    6.48
   1  10   8    5.04    4.35
   1  10   9   88.11   12.24
   1  10  10  127.47   13.38
   1  10  10  162.39   16.29
   1  10  11    1.93    2.06
   1  10  12   44.50    6.32
   1  11  -2   -1.42    1.73
   1  11  -1   59.09    8.94
   1  11   0   34.14    6.95
   1  11   1   31.94    7.14
   1  11   2    0.61    2.70
   1  11   2    5.04    3.14
   1  11   3   23.20    5.96
   1  11   3   22.45    6.23
   1  11   3   21.84    5.48
   1  11   4  176.79   19.45
   1  11   4  157.13   15.50
   1  11   5  219.28   23.25
   1  11   5  175.60   16.63
   1  11   6    2.70    3.03
   1  11   6    3.63    4.13
   1  11   7   45.95   11.13
   1  11   7   22.50    6.96
   1  11   8   46.22    9.23
   1  11   9  206.75   19.06
   1  11  10   11.78    4.41
   1  11  10   12.67    4.19
   1  11  11   -0.92    1.06
   1  11  11    1.35    1.03
   1  11  12    0.98    0.90
  -1 -11 -13    1.55    1.34
   1  12   0    1.91    1.48
   1  12   1    5.19    2.94
   1  12   2    1.34    2.32
   1  12   3    3.91    1.65
   1  12   3    7.82    2.70
   1  12   4   17.33    4.78
   1  12   4   14.25    4.45
   1  12   5   27.60    6.34
   1  12   5   28.20    7.25
   1  12   6    2.91    3.00
   1  12   6    0.69    2.36
   1  12   7   16.86    5.49
   1  12   8    9.00    4.19
   1  12   9   68.89    9.73
   1  12  10  110.51   12.04
   1  12  10  102.75   10.20
   1  12  11   25.83    4.86
   1  13   2    2.62    1.79
   1  13   3    8.52    3.05
   1  13   4    8.76    3.14
   1  13   5    6.62    2.98
   1  13   5    9.07    3.67
   1  13   6   17.66    4.80
   1  13   7   12.27    4.14
   1  13   8    7.11    2.88
   1  13   9    5.53    2.62
   1  13   9    3.43    1.60
   1  13  10   18.61    3.15
   1  13  10   22.11    4.14
   1  13  11   17.08    2.89
   1  14   7   -0.34    0.46
   1  14   8    1.20    0.89
  -2  12   7   21.02    2.98
  -2  12   6    4.62    1.61
  -2  12   5    9.30    2.22
  -2  11   9    8.98    2.31
  -2  11   8   39.89    5.25
  -2  11   7    0.37    1.18
  -2  11   6    8.24    3.07
  -2  11   5   -1.77    1.86
  -2  11   4   23.87    5.13
  -2  11   3    7.26    2.81
  -2  11   1    5.42    2.87
  -2  11   0    0.65    1.17
   2 -10 -10   68.34    7.20
  -2  10  10   57.88    6.33
   2 -10  -9   -1.27    1.94
  -2  10   9   -0.64    1.24
  -2  10   9   -0.19    1.92
  -2  10   8   10.04    3.11
  -2  10   8   10.08    3.21
   2 -10  -8    5.33    2.00
  -2  10   7   -0.30    1.95
  -2  10   6    2.73    1.39
  -2  10   5    7.24    3.80
  -2  10   4   13.99    4.45
  -2  10   3    5.86    2.94
  -2  10   3    7.16    2.30
  -2  10   2   76.61    9.26
  -2  10   2   69.94   10.59
  -2  10   1    1.08    1.47
  -2  10   0    0.89    2.18
  -2  10  -1   -0.93    2.09
  -2  10  -2    9.52    3.30
   2  -9 -11   52.30    6.42
  -2   9  11   52.03    7.09
   2  -9 -10   31.33    5.64
  -2   9  10   38.95    6.69
   2  -9  -9   25.91    5.36
  -2   9   9   20.15    4.76
  -2   9   9   31.97    6.56
  -2   9   8   -1.86    2.47
   2  -9  -8    1.42    1.67
  -2   9   8    3.48    2.54
   2  -9  -7   14.02    3.97
  -2   9   7   13.47    5.60
  -2   9   6   -0.05    2.20
   2  -9  -6    1.19    1.55
  -2   9   5   -1.03    2.27
  -2   9   4   24.80    7.79
  -2   9   4   23.93    7.44
  -2   9   3   46.41   10.21
  -2   9   3   36.67    9.36
  -2   9   2  119.68   16.09
  -2   9   2  135.44   16.01
  -2   9   1  417.35   30.80
  -2   9   1  417.62   26.65
  -2   9   0    6.83    4.39
  -2   9  -1   12.04    5.09
  -2   9  -2   25.08    6.09
  -2   9  -3   10.26    3.65
  -2   9  -4    2.16    1.70
  -2   8  12   24.87    4.49
   2  -8 -11   -0.07    1.72
  -2   8  11    7.55    3.03
   2  -8 -10   78.04    9.90
  -2   8  10   76.11    9.91
   2  -8  -9  168.49   15.98
  -2   8   9  149.46   15.16
  -2   8   8   -1.85    2.87
   2  -8  -8    3.85    2.54
  -2   8   7   90.22   13.12
   2  -8  -7   71.50   10.13
   2  -8  -6   63.74   10.30
  -2   8   6   73.51   11.88
   2  -8  -6   55.95    8.76
   2  -8  -5    1.31    2.23
   2  -8  -5   -0.85    2.91
   2  -8  -4  101.85   14.22
  -2   8   4  123.58   18.32
   2  -8  -3   21.60    6.31
  -2   8   3   18.04    7.44
   2  -8  -2    2.73    3.15
  -2   8   2    4.27    3.81
   2  -8  -1  121.61   15.35
  -2   8   1  135.49   17.39
  -2   8   1  154.07   17.81
   2  -8   0    5.92    3.86
  -2   8   0    5.69    2.80
  -2   8   0    9.48    4.60
  -2   8  -1   10.03    5.37
  -2   8  -2    4.96    2.92
  -2   8  -3    6.79    4.97
  -2   8  -4   28.61    7.15
  -2   8  -5    3.15    2.33
   2  -7 -12    0.96    0.69
  -2   7  12    2.56    1.90
   2  -7 -11   13.71    4.81
  -2   7  11    8.12    3.19
   2  -7 -10   84.63   11.59
  -2   7  10   67.27    9.35
   2  -7  -9    8.84    4.12
  -2   7   9    5.22    3.59
   2  -7  -8  311.18   23.06
  -2   7   8  229.25   18.84
  -2   7   7   30.62    7.42
   2  -7  -7   28.23    6.90
   2  -7  -7   20.07    5.41
   2  -7  -6    5.64    6.60
   2  -7  -6    3.69    1.91
   2  -7  -6    2.33    2.55
   2  -7  -5   13.03   10.15
   2  -7  -5    8.07    3.18
   2  -7  -5    6.55    3.15
   2  -7  -4   -0.08    2.77
   2  -7  -4    1.44    3.91
   2  -7  -4    3.47    3.86
  -2   7   4    0.85    1.64
   2  -7  -3   33.88    7.78
   2  -7  -3   23.20   10.50
  -2   7   3   40.29    9.20
   2  -7  -2    7.60    3.95
   2  -7  -2   12.53    7.83
  -2   7   2    9.31    2.49
   2  -7  -1  304.98   40.54
   2  -7  -1  338.28   25.80
  -2   7   1  370.77   30.29
  -2   7   0    7.35    5.64
  -2   7  -1  425.54   32.20
   2  -7   1  393.08   27.33
  -2   7  -2   18.36    5.75
   2  -7   2   17.93    5.76
  -2   7  -3    3.13    3.32
   2  -7   3    5.88    3.52
   2  -7   4    9.62    3.69
  -2   7  -4   19.89    7.34
  -2   7  -5   18.92    6.10
  -2   7  -6   35.77    6.64
  -2   6  13    1.28    0.76
  -2   6  12   12.09    2.94
   2  -6 -12    9.34    2.12
   2  -6 -11   -8.31    4.16
  -2   6  11    5.81    2.72
   2  -6 -10   19.64    5.97
  -2   6  10   16.74    5.30
   2  -6  -9   53.85    9.13
  -2   6   9   43.38    7.88
   2  -6  -8    2.42    2.48
   2  -6  -7    4.58    3.04
   2  -6  -7    1.92    3.21
   2  -6  -7    1.32    2.43
   2  -6  -6   12.36    8.90
   2  -6  -6    8.27    3.33
   2  -6  -6    3.23    2.74
   2  -6  -5   14.21    9.30
   2  -6  -5   16.24    5.38
   2  -6  -4  119.18   14.72
   2  -6  -4  153.81   28.48
  -2   6   4  145.05   16.22
   2  -6  -4  115.32   13.11
   2  -6  -3  378.04   44.65
   2  -6  -2   16.29    9.23
  -2   6   1  216.60   21.68
   2  -6  -1  181.13   29.51
   2  -6  -1  162.20   25.27
  -2   6   0   92.23   13.66
   2  -6   0   53.60   14.94
   2  -6   0   70.79   18.00
   2  -6   0   87.49   11.45
  -2   6  -1    9.10    4.93
   2  -6   1   15.05    9.35
   2  -6   1   10.90    3.92
  -2   6  -2  155.64   18.64
   2  -6   2  148.54   16.21
   2  -6   3  144.21   16.13
  -2   6  -3  143.95   18.73
   2  -6   4   13.26    5.11
  -2   6  -4    8.78    4.71
   2  -6   5    2.52    1.87
  -2   6  -5    4.13    2.46
  -2   6  -6    1.49    2.80
   2  -6   6    1.83    1.83
  -2   6  -7   -0.88    1.82
  -2   6  -8    5.36    2.06
  -2   5  13    2.38    1.17
   2  -5 -12   20.73    3.39
  -2   5  12   24.75    4.53
   2  -5 -11    0.98    1.41
   2  -5 -11    2.34    2.26
  -2   5  11    0.89    1.97
   2  -5 -10   32.00    8.08
  -2   5  10   19.85    5.20
   2  -5  -9   91.61   13.22
  -2   5   9   79.76   10.68
   2  -5  -8   12.74    5.42
   2  -5  -7   80.30   19.73
   2  -5  -7  116.99   13.94
   2  -5  -7  109.30   13.11
   2  -5  -6   -1.05    7.75
   2  -5  -6   -1.66    1.62
   2  -5  -6   -0.88    1.74
   2  -5  -5   28.08   11.98
   2  -5  -4   31.86   13.04
   2  -5  -3   18.78    9.51
   2  -5  -2  468.22   45.00
   2  -5  -2  372.66   33.24
   2  -5  -1  126.87   22.21
   2  -5  -1  120.60   19.18
   2  -5   0  362.62   38.21
   2  -5   0  368.98   37.84
   2  -5   1  197.24   26.65
   2  -5   1  236.48   32.46
  -2   5  -2  122.06   15.52
   2  -5   2  114.64   13.25
  -2   5  -3   -1.50    3.24
   2  -5   3    4.16    2.58
   2  -5   3   -2.91    3.00
   2  -5   4   -2.45    7.32
   2  -5   4   12.61    4.41
  -2   5  -4   12.90    5.48
  -2   5  -5   54.43   11.69
   2  -5   5   60.65   11.54
   2  -5   6   12.06    5.29
  -2   5  -6   20.51    7.59
  -2   5  -7    9.89    5.44
   2  -5   7    4.58    2.33
   2  -5   8    2.91    1.81
  -2   5  -8   -1.44    1.23
  -2   5  -9    7.34    2.33
  -2   4  12  167.42   12.42
   2  -4 -12  125.75    9.38
   2  -4 -11   26.66    5.39
  -2   4  11   18.64    5.06
   2  -4 -10  158.35   17.86
  -2   4  10  160.53   16.02
   2  -4  -9   17.62    5.77
  -2   4   9   17.00    5.83
   2  -4  -8    0.85    3.14
  -2   4   8   -0.15    1.42
   2  -4  -7   67.50    9.92
   2  -4  -7   69.64   10.23
   2  -4  -6   -0.96    3.42
   2  -4  -5  391.79   41.74
   2  -4  -4  100.26   19.99
   2  -4  -3  136.83   22.45
   2  -4  -2    7.12    4.43
   2  -4  -2    6.26    3.54
   2  -4  -1  116.25   16.58
   2  -4  -1  128.74   20.28
   2  -4   0  214.43   26.28
   2  -4   0  235.48   26.71
   2  -4   1    3.38    3.93
   2  -4   1    2.29    1.73
   2  -4   2   52.09   11.72
   2  -4   4   18.25   12.78
  -2   4  -4   13.77    5.68
   2  -4   5    1.50    3.71
  -2   4  -5    6.79    4.61
  -2   4  -6    2.88    3.46
  -2   4  -7    3.14    2.49
  -2   4  -8   39.35    9.19
  -2   4  -9    1.45    1.80
   2  -4   9    4.10    2.03
  -2   3  12    3.34    1.82
   2  -3 -11    0.80    1.12
  -2   3  11    5.39    2.68
  -2   3  10   60.35   10.17
   2  -3 -10   59.44    9.67
   2  -3  -9   31.35    7.54
  -2   3   9   35.26    7.68
   2  -3  -8   10.10    4.76
  -2   3   8    7.95    3.20
   2  -3  -7  107.15   11.93
   2  -3  -7   91.45   19.41
   2  -3  -7  114.70   13.44
   2  -3  -6  130.47   21.05
   2  -3  -6  157.36   23.15
   2  -3  -5  656.03   48.19
   2  -3  -5  689.64   51.04
   2  -3  -4  315.45   30.62
   2  -3  -4  312.72   28.19
   2  -3  -3  202.78   23.27
   2  -3  -2  704.99   36.99
   2  -3  -2  797.80   49.23
   2  -3  -1  227.02   19.88
   2  -3  -1  229.56   24.24
   2  -3   0  405.59   33.98
   2  -3   0  410.12   31.64
   2  -3   1  194.61   22.75
   2  -3   1  220.16   24.91
   2  -3   2   12.57    5.34
   2  -3   4    9.09    6.52
  -2   3  -5  145.78   17.41
   2  -3   5  149.11   33.64
   2  -3   6   12.19    9.47
  -2   3  -6   27.86    8.09
  -2   3  -7  102.30   15.77
  -2   3  -8   53.45   11.50
  -2   3  -9   -1.16    2.24
   2  -3  10    1.58    1.86
  -2   3 -10    3.03    1.92
  -2   2  12   11.71    3.10
   2  -2 -11   27.19    5.13
  -2   2  11   27.97    5.99
   2  -2 -11   17.49    4.28
   2  -2 -10    2.49    1.65
   2  -2 -10    2.44    1.80
  -2   2  10    5.64    3.55
  -2   2   9    5.72    2.12
   2  -2  -8   13.06    6.34
  -2   2   8   16.61    5.42
   2  -2  -8   10.07    3.63
   2  -2  -7    7.36    3.38
   2  -2  -7   12.20    7.64
  -2   2   7   15.49    4.66
   2  -2  -6    8.66    7.22
   2  -2  -5   43.04   11.09
   2  -2  -5   45.76   11.61
   2  -2  -4  232.22   25.35
   2  -2  -4  257.02   28.22
   2  -2  -3   16.00    5.66
   2  -2  -3    6.91    3.39
   2  -2  -2   -1.35    1.56
   2  -2  -2    0.48    1.46
   2  -2  -1   53.28   10.00
   2  -2  -1   45.13    6.37
   2  -2  -1   70.55   10.35
   2  -2   0 1376.49   65.34
   2  -2   0 1283.71   58.06
   2  -2   0 1221.43   57.14
   2  -2   1   -0.06    2.45
   2  -2   1   -3.44    2.36
   2  -2   2  208.51   21.95
   2  -2   3  291.23   38.44
   2  -2   4   -0.65    3.72
   2  -2   5  287.96   44.95
  -2   2  -6   62.76   11.64
   2  -2   6   73.83   22.31
   2  -2   7    3.29    8.12
  -2   2  -7   16.11    6.42
  -2   2  -8   66.01   12.45
  -2   2  -9    5.45    4.01
  -2   2 -10   -1.87    2.06
  -2   2 -11    1.71    1.83
   2  -1 -12    3.55    2.08
   2  -1 -11    1.83    1.95
   2  -1 -11    4.81    2.45
  -2   1  11    0.94    1.58
   2  -1 -10   89.76   12.17
  -2   1  10   75.76   10.40
   2  -1 -10   87.06   11.01
   2  -1  -9   26.63    6.54
  -2   1   9   25.22    6.78
  -2   1   8   95.57   13.05
   2  -1  -8   59.86   19.70
   2  -1  -7   87.97   11.87
   2  -1  -7  115.31   25.53
  -2   1   7  128.49   14.16
   2  -1  -6   33.41   13.26
   2  -1  -5    0.96    3.83
   2  -1  -4  239.78   28.14
   2  -1  -3 1951.58   92.48
   2  -1  -3 1817.56   90.83
   2  -1  -2 1220.73   62.19
   2  -1  -2 1171.86   59.76
   2  -1  -1  262.89   24.33
   2  -1  -1  272.64   21.16
   2  -1   0    1.72    3.00
   2  -1   0    0.30    2.02
   2  -1   1   74.59   12.74
   2  -1   1   77.99   12.93
   2  -1   2   62.18   11.55
   2  -1   2   77.40   16.83
   2  -1   3   39.10   12.95
   2  -1   4    6.97    5.12
   2  -1   5   49.45   16.93
   2  -1   6   15.97    9.38
   2  -1   7   47.07    8.23
   2  -1   7   59.41   19.43
   2  -1   7   58.14    9.08
  -2   1  -8  155.97   19.70
  -2   1  -9   11.95    4.63
  -2   1 -10    7.50    4.19
  -2   1 -11   38.96    8.21
  -2   1 -12    0.47    0.97
   2   0 -11   32.60    7.43
   2   0 -10    1.60    1.79
   2   0 -10    1.82    3.58
   2   0  -9   17.46    5.19
  -2   0   9    7.10    2.69
   2   0  -8   13.51    4.09
  -2   0   8    9.45    3.63
   2   0  -7  143.91   14.07
  -2   0   7  118.09   12.83
   2   0  -7  124.66   28.09
   2   0  -6   10.33    8.37
   2   0  -5    6.97    6.47
   2   0  -4 1633.49   90.49
   2   0  -3    9.37    6.14
   2   0  -2  310.77   28.81
   2   0  -1  344.83   26.35
   2   0   0 1093.88   46.75
   2   0   0 1191.40   54.76
   2   0   1  425.85   32.13
   2   0   1  476.74   30.90
   2   0   2  284.05   27.94
   2   0   3    5.22    4.95
   2   0   4    3.68    5.28
   2   0   5  122.51   24.54
   2   0   6   69.97   19.97
   2   0   7   33.76    6.86
   2   0   7   32.07   14.38
   2   0   8   36.05    8.30
   2   0   8   57.47   20.64
   2   0   8   44.12    8.77
   2   0   9   25.65    6.63
   2   0   9   45.45    9.27
  -2   0 -10   12.26    5.74
  -2   0 -11   10.95    4.71
  -2   0 -12    2.04    2.34
   2   1 -11   13.46    4.92
   2   1 -10   40.88    7.35
   2   1 -10   62.41   11.39
   2   1  -9  103.77   12.50
   2   1  -8    5.11    2.13
   2   1  -7   98.72   25.52
   2   1  -7   74.35   10.14
   2   1  -6    1.38    1.84
   2   1  -6    9.46    8.07
   2   1  -5    7.76    7.33
   2   1  -4    8.30    7.30
   2   1  -3    7.00    5.71
   2   1  -2   35.02   10.28
   2   1  -1 1889.17   89.08
   2   1   0  343.85   26.31
   2   1   1   69.70    7.30
   2   1   1   60.42    9.85
   2   1   2  387.81   31.97
   2   1   2  444.72   29.87
   2   1   3   24.91    7.63
   2   1   4  214.50   25.47
   2   1   5    4.47    4.82
   2   1   6  477.91   47.49
   2   1   7   18.48   10.57
   2   1   8  109.65   27.07
   2   1   8  111.43   14.50
   2   1   9  341.27   52.43
   2   1   9  350.93   28.72
   2   1  10  109.57   15.07
   2   1  10   82.77   13.16
  -2  -1 -11  179.95   20.97
   2   1  11  184.98   17.14
   2   1  11  129.32   13.88
  -2  -1 -12   22.12    5.63
  -2  -1 -13    8.96    2.44
   2   2 -11   37.97    5.83
   2   2 -10   14.00    5.15
   2   2  -9    1.28    2.22
   2   2  -9    8.06    5.25
   2   2  -8    6.87    2.98
   2   2  -7   -0.42    1.77
   2   2  -7    3.32    4.47
   2   2  -6   44.83    7.92
   2   2  -6   37.02   14.50
   2   2  -5   -4.68    5.08
   2   2  -4   69.78   16.90
   2   2  -3   16.85    8.44
   2   2  -2   12.35    6.20
   2   2  -1   21.42    8.61
   2   2   0  512.75   35.95
  -2  -2   0  413.44   21.73
   2   2   1    0.95    1.75
   2   2   1    1.22    1.00
  -2  -2  -1   -0.62    1.13
   2   2   2   11.02    3.72
   2   2   2    7.48    4.02
   2   2   3   36.94    9.11
   2   2   3   39.88    9.72
   2   2   4 1734.81   92.00
   2   2   5  290.64   32.53
   2   2   6   63.87   15.19
   2   2   7  277.67   37.32
   2   2   8 1413.67  101.34
   2   2   8 1289.81   63.26
   2   2   9  197.86   39.08
   2   2   9  202.22   21.62
   2   2  10   17.54    6.52
   2   2  11    7.68    3.65
   2   2  11    5.66    3.54
   2   2  12    6.64    2.86
  -2  -2 -13    1.07    1.36
   2   3 -10   -0.80    1.98
   2   3  -9   13.11    4.94
   2   3  -8    0.42    3.43
   2   3  -8   -0.94    2.14
   2   3  -7   52.94    9.10
   2   3  -6    2.05    2.91
   2   3  -6   -1.27    6.53
   2   3  -5  192.84   17.41
   2   3  -5  151.78   26.65
   2   3  -4    3.53    2.02
   2   3  -3   42.57   13.40
   2   3  -2  269.63   33.17
   2   3  -1  551.53   46.08
  -2  -3   1  502.46   35.17
  -2  -3   0    8.87    3.55
   2   3   0    9.58    5.59
  -2  -3  -1    0.59    1.22
   2   3   1    1.47    2.31
   2   3   2  122.05   13.19
   2   3   2  156.08   17.82
  -2  -3  -2  156.20   15.28
   2   3   3  441.40   31.53
   2   3   3  424.16   34.07
   2   3   4 1034.58   65.44
   2   3   5  356.98   40.33
   2   3   6    2.37    5.74
   2   3   7  241.55   35.45
   2   3   8  149.07   29.73
   2   3   9   61.60   19.89
   2   3   9   71.92   12.84
   2   3  10  233.27   24.37
   2   3  11   41.50    9.30
   2   3  12    4.38    3.86
   2   3  12   14.40    4.82
   2   3  13   -1.95    0.81
  -2  -3 -13    2.20    2.55
   2   4  -9    8.99    4.27
   2   4  -8   12.60    4.48
   2   4  -7   60.50   11.58
   2   4  -6  158.26   17.68
   2   4  -5   56.07   10.29
   2   4  -5   33.86   12.50
   2   4  -4    0.03    5.03
   2   4  -4    4.70    2.92
   2   4  -3   14.66    7.24
   2   4  -2  208.29   31.18
  -2  -4   2  222.17   28.61
  -2  -4   1  675.61   48.63
   2   4  -1  709.20   57.18
  -2  -4   0  638.33   40.66
   2   4   0  633.80   48.31
   2   4   1  161.63   20.41
  -2  -4  -1  147.45   15.31
  -2  -4  -2  584.78   35.93
   2   4   2  538.39   39.10
   2   4   3    2.15    4.76
   2   4   3    1.61    1.74
   2   4   4   33.00    8.76
   2   4   5 1009.58   69.22
   2   4   6    7.88    4.82
   2   4   7   33.93   14.13
   2   4   8  126.45   27.62
   2   4   8   83.90   11.47
   2   4   9   21.86   10.94
   2   4   9   15.01    5.93
   2   4  10  421.21   32.60
   2   4  11   31.23    8.46
   2   4  12   91.22   12.50
   2   4  13   -0.95    1.13
   2   4  13   -1.18    1.62
  -2  -4 -14   14.75    3.38
   2   5  -9    0.12    0.92
   2   5  -8   15.70    5.09
   2   5  -7   13.60    5.19
   2   5  -6  108.84   14.34
   2   5  -5  791.17   42.08
   2   5  -4    2.18    2.48
   2   5  -4   -0.31    1.57
   2   5  -4   -0.60    6.01
   2   5  -3    1.73    3.25
   2   5  -3   -1.19    3.21
   2   5  -3    3.02    6.47
  -2  -5   2   50.96   14.97
   2   5  -2   50.31   15.26
   2   5  -1    0.77    5.38
  -2  -5   1    4.13    4.54
   2   5   0    7.94    5.70
  -2  -5   0    9.56    4.96
  -2  -5  -1   93.64   14.17
   2   5   1  103.30   17.26
   2   5   2   14.79    6.07
  -2  -5  -2   12.16    5.86
   2   5   3    2.23    4.92
  -2  -5  -3    0.23    1.50
   2   5   4    7.86    4.58
   2   5   5  561.55   43.90
   2   5   6    7.98    5.16
   2   5   7    2.65    7.07
   2   5   8    3.31    2.89
   2   5   8    3.53    3.73
   2   5   9   32.87    7.16
   2   5   9   25.34    6.11
   2   5   9   37.66   15.43
   2   5  10  208.82   20.48
   2   5  11    5.98    3.42
   2   5  12  113.48   13.65
   2   5  13    4.83    3.04
   2   5  14    0.07    0.68
   2   6  -8    4.62    1.88
   2   6  -7   11.55    4.30
   2   6  -7    1.97    1.67
   2   6  -6   -1.06    3.04
   2   6  -5   43.80    9.12
   2   6  -4    0.22    2.90
   2   6  -3  320.36   23.90
   2   6  -3  267.26   39.68
   2   6  -2   68.60   10.05
   2   6  -2   79.74   20.51
  -2  -6   2   98.76   22.48
  -2  -6   1   17.06    9.69
   2   6  -1   13.92    7.63
  -2  -6   0  191.57   26.73
   2   6   0  170.11   25.28
  -2  -6  -1  139.89   20.51
   2   6   1  153.37   22.76
  -2  -6  -2   64.43   13.24
   2   6   2   87.16   17.31
  -2  -6  -3    6.98    4.51
   2   6   3   11.12    6.36
  -2  -6  -4   -0.67    3.30
  -2  -6  -5 1171.60   67.89
   2   6   5 1064.94   66.07
   2   6   6  250.49   31.04
   2   6   7  100.40   21.19
   2   6   8   44.81    8.23
   2   6   8   55.26   17.33
   2   6   9   21.22    5.80
   2   6   9   25.40   11.88
   2   6  10   91.21   12.08
   2   6  10   86.85   11.89
   2   6  11   29.91    7.26
   2   6  12   -2.06    2.56
   2   6  13   16.23    4.71
   2   6  14   12.99    3.21
   2   7  -7    4.47    2.04
   2   7  -6   -0.96    3.01
   2   7  -5  183.89   18.45
   2   7  -5  195.39   21.99
   2   7  -4   44.64    9.77
   2   7  -4   52.68   12.20
   2   7  -3  233.02   24.72
   2   7  -2    1.51    1.71
  -2  -7   1   33.72   13.52
   2   7  -1   25.74    6.73
  -2  -7   0   19.01    9.26
   2   7   0   19.13    6.05
  -2  -7  -1   35.35   11.48
  -2  -7  -2   20.12    8.04
   2   7   2   18.11    7.52
  -2  -7  -3  109.74   18.76
   2   7   3  171.01   27.68
  -2  -7  -4  103.79   18.09
  -2  -7  -5  574.34   46.48
  -2  -7  -6   51.06   13.64
   2   7   6   59.41   15.54
   2   7   7  182.22   16.25
   2   7   7  183.14   29.19
   2   7   8  218.19   34.40
   2   7   8  168.07   15.83
   2   7   8  204.31   18.71
   2   7   9   92.39   23.82
   2   7   9   94.61   12.49
   2   7  10   92.83   11.86
   2   7  12   46.34    7.61
   2   7  13    1.47    2.07
   2   7  14    1.48    1.64
   2   8  -6    0.63    1.24
   2   8  -5    1.31    1.79
   2   8  -4    0.92    1.99
   2   8  -3   32.70    9.46
   2   8  -2  357.60   30.30
   2   8  -1    3.62    2.88
   2   8   0   34.08    8.58
  -2  -8   0   14.10    8.58
  -2  -8  -1   17.25    8.57
   2   8   1   17.43    6.14
   2   8   2   14.91    5.45
   2   8   2   13.96    4.20
  -2  -8  -2    9.56    6.24
   2   8   3   30.69    6.56
  -2  -8  -3   29.78   10.52
   2   8   3   32.17    7.72
  -2  -8  -4   60.77   14.50
   2   8   4   56.07    9.20
   2   8   4   65.05    9.90
   2   8   4   67.36   10.49
  -2  -8  -5   12.98    7.30
   2   8   5   11.52    4.02
   2   8   5   13.38    4.32
  -2  -8  -6  157.60   24.72
   2   8   6  181.74   17.39
   2   8   6  206.32   18.02
   2   8   7   43.10    8.67
  -2  -8  -7   35.39   12.14
   2   8   7   40.53    7.78
  -2  -8  -8  260.52   38.91
   2   8   8  293.13   22.39
   2   8   9   16.15    5.17
   2   8   9   14.46    4.11
   2   8  10    4.98    2.64
   2   8  11    6.54    3.39
   2   8  14   10.64    3.00
   2   9  -5    4.44    1.84
   2   9  -4   33.63    6.53
   2   9  -3   49.96    9.63
   2   9  -2   54.94   10.37
   2   9  -1   47.97    9.71
   2   9   0   61.92   11.27
   2   9   1    3.84    3.99
  -2  -9  -2  101.77   22.30
   2   9   2  127.89   14.35
   2   9   2  146.82   17.68
   2   9   3   74.70   11.01
   2   9   3   81.64   13.44
  -2  -9  -3   48.63   15.51
   2   9   4   -2.02    3.52
   2   9   4   -1.56    2.01
  -2  -9  -4    0.78    1.91
   2   9   4   -0.41    2.14
  -2  -9  -5   20.26    8.94
   2   9   5   22.10    6.41
   2   9   5   28.10    6.74
  -2  -9  -6    4.12    4.87
   2   9   6    8.45    3.17
   2   9   6   11.55    4.37
  -2  -9  -7   18.00    7.11
   2   9   7   38.36    8.73
   2   9   7   40.96    8.37
   2   9   8  642.92   38.24
   2   9   9   -0.09    1.95
   2   9   9   -0.38    1.46
   2   9  10   72.77   11.04
   2   9  10   47.73    7.45
   2   9  11  129.15   13.87
   2   9  14    1.78    1.50
   2  10  -4    0.96    0.62
   2  10  -3    8.95    2.93
   2  10  -2    1.80    3.16
   2  10  -1   26.35    6.63
   2  10   0   47.76    9.35
   2  10   1    3.44    2.41
   2  10   2    1.98    3.10
   2  10   2    0.41    1.28
   2  10   3  152.20   18.72
   2  10   3  121.21   13.97
   2  10   3  150.17   18.28
   2  10   4   34.78    8.73
   2  10   4   29.50    6.74
   2  10   5   12.14    4.90
   2  10   5    9.10    2.82
   2  10   6   36.34    8.67
   2  10   6   29.59    7.26
   2  10   7   17.27    6.25
   2  10   7   16.46    5.42
   2  10   8  627.21   37.49
   2  10   9  198.17   20.89
   2  10   9  152.73   16.26
   2  10  10   73.48   11.46
   2  10  10   56.70    8.31
   2  10  11    7.39    3.48
   2  11  -2   -0.42    0.87
   2  11  -1    7.55    3.38
   2  11  -1    7.03    2.53
   2  11   0    1.75    2.78
   2  11   0   -1.05    2.21
   2  11   1   29.65    7.19
   2  11   1   26.70    6.22
   2  11   2    6.39    4.08
   2  11   3  123.55   15.86
   2  11   3  104.37   11.75
   2  11   4  269.41   24.47
   2  11   4  231.17   18.84
   2  11   5   10.92    5.06
   2  11   5   10.37    4.09
   2  11   6    6.71    4.59
   2  11   6    6.04    3.22
   2  11   7   36.47    9.22
   2  11   7   25.66    6.68
   2  11   8    0.34    1.76
   2  11   9    2.39    2.14
   2  11   9    1.02    2.71
   2  11  10   78.84   11.04
   2  11  10   67.98    9.17
   2  11  11    6.79    3.01
   2  12   0    3.06    2.26
   2  12   1    3.85    2.87
   2  12   2    0.56    1.90
   2  12   3    1.09    2.13
   2  12   4    3.52    1.87
   2  12   4   -0.49    2.68
   2  12   5   39.02    8.22
   2  12   5   26.93    5.59
   2  12   6    9.46    4.99
   2  12   6   10.59    3.58
   2  12   7   28.10    5.87
   2  12   8   33.99    6.59
   2  12   9   58.06    9.76
   2  12   9   55.32    8.22
   2  12  10    0.73    2.08
   2  12  11   17.97    3.63
   2  13   2    3.05    1.83
   2  13   3    1.67    1.57
   2  13   4   25.72    6.00
   2  13   5    3.85    2.61
   2  13   7    6.28    2.67
   2  13   8    4.30    2.93
   2  13   9    8.89    3.11
   2  13  10    1.40    1.22
   2  13  11    8.63    2.01
  -3  10   8   -0.53    0.50
  -3  10   8    0.44    0.77
  -3  10   7    2.55    1.44
  -3  10   7    0.44    0.79
  -3  10   6    2.51    1.94
  -3  10   5    7.35    2.37
  -3  10   4   21.70    4.34
  -3  10   3   57.65    7.15
  -3  10   2   38.63    4.80
  -3   9  10    0.16    0.96
  -3   9   9    4.50    2.12
  -3   9   8    4.65    2.37
  -3   9   8    9.28    3.53
  -3   9   7   21.47    4.72
  -3   9   6   -2.28    1.73
  -3   9   5   79.22   10.03
  -3   9   4    1.90    1.90
  -3   9   3  242.39   19.72
  -3   9   2   25.15    5.98
  -3   9   2   29.68    6.01
   3  -9  -1    2.92    2.39
  -3   9   1   -0.95    1.94
  -3   9   1   -2.26    1.56
  -3   9   0   -1.62    1.02
   3  -9   0   -1.70    1.87
   3  -9   1    4.33    2.22
  -3   9  -1    4.81    2.24
  -3   9  -2    1.06    1.06
  -3   8  10    8.48    2.61
  -3   8   9   67.47    8.77
  -3   8   8   93.07   10.79
  -3   8   8  100.72   12.10
  -3   8   7    7.45    4.38
  -3   8   6    1.38    2.45
   3  -8  -6   -2.22    2.60
   3  -8  -5   -3.89    2.01
   3  -8  -4    4.27    2.91
   3  -8  -3   -1.33    2.32
  -3   8   3    3.85    3.73
   3  -8  -2  184.32   18.04
  -3   8   2  174.63   18.51
   3  -8  -1   45.59    8.44
  -3   8   1   45.03    8.59
  -3   8   1   46.53    8.35
   3  -8   0   -3.29    2.78
  -3   8   0   -0.21    2.00
  -3   8   0    0.53    1.36
   3  -8   1   -2.92    2.20
  -3   8  -1   -0.24    2.16
   3  -8   2    0.91    1.57
  -3   8  -2    5.73    2.70
   3  -8   3    7.47    3.15
  -3   8  -3   12.10    3.33
  -3   8  -4    0.59    0.44
   3  -7 -11   46.81    5.08
  -3   7  11   53.03    6.39
  -3   7  10    0.50    2.59
  -3   7   9  130.18   13.91
   3  -7  -8    5.50    3.32
  -3   7   8    2.12    1.36
   3  -7  -7   27.01    6.67
  -3   7   7   25.09    7.36
   3  -7  -7   20.04    7.08
   3  -7  -6   80.71   11.36
   3  -7  -6   96.90   14.63
   3  -7  -5   11.31    4.94
   3  -7  -5   19.62    6.35
   3  -7  -4    7.65    4.29
   3  -7  -3   74.73   12.33
  -3   7   3   73.89   13.10
   3  -7  -3   63.72   10.38
   3  -7  -2   74.78   12.07
  -3   7   2   75.52   12.99
   3  -7  -2   57.19    8.86
   3  -7  -1    6.99    4.06
  -3   7   1    0.40    2.97
   3  -7   0    3.41    2.94
  -3   7   0    5.57    2.97
   3  -7   1   50.88    9.29
  -3   7  -1   49.92    9.37
  -3   7  -2    4.04    3.26
  -3   7  -3    4.28    2.66
  -3   7  -4    4.30    2.72
   3  -7   5    2.15    1.17
  -3   7  -5    1.70    1.48
   3  -6 -11    2.93    1.71
  -3   6  11    4.84    2.18
  -3   6  10   17.86    4.77
  -3   6   9   19.21    5.27
   3  -6  -8  136.61   14.97
   3  -6  -7   26.67    6.88
   3  -6  -7   24.60    6.63
   3  -6  -6   10.12    4.08
   3  -6  -6   16.62    6.60
   3  -6  -5   -3.94    4.71
   3  -6  -5    1.83    3.06
   3  -6  -4   -2.80    4.91
   3  -6  -4    2.89    2.21
   3  -6  -4    5.60    4.30
   3  -6  -3   23.72    6.87
  -3   6   3   28.64    7.82
   3  -6  -3   21.96   12.28
   3  -6  -3   27.76    7.79
   3  -6  -2  155.30   17.70
  -3   6   2  141.64   18.55
   3  -6  -2   91.26   21.34
   3  -6  -2  128.48   15.53
   3  -6  -1  202.54   19.85
  -3   6   1  192.93   21.15
   3  -6  -1  180.15   17.48
   3  -6   0    6.01    4.35
  -3   6   0    9.70    4.71
  -3   6  -1   91.70   13.03
   3  -6   1  105.50   13.82
  -3   6  -2   63.56   11.00
   3  -6   2   68.77   10.76
  -3   6  -3    2.98    2.71
   3  -6   3    1.82    1.91
  -3   6  -4   -1.62    2.45
   3  -6   4   -1.09    2.43
  -3   6  -5   -1.31    1.65
   3  -6   5    4.12    2.63
  -3   6  -6    7.28    2.92
   3  -5 -11   84.97    8.13
  -3   5  11   73.21    7.96
  -3   5  10   12.17    4.51
  -3   5   9   20.06    5.19
   3  -5  -8  188.65   19.20
  -3   5   8  152.95   15.42
   3  -5  -7    2.22    3.11
   3  -5  -7   -0.68    2.58
   3  -5  -6  500.64   34.37
   3  -5  -6  522.64   37.34
   3  -5  -5   -5.74    7.53
   3  -5  -5    1.26    2.11
   3  -5  -5    9.02    5.34
   3  -5  -4   30.49    6.70
   3  -5  -4   31.03   13.00
   3  -5  -4   43.89    9.80
   3  -5  -3   -5.46    3.88
   3  -5  -3   -2.56    5.19
   3  -5  -3   -2.51    2.00
   3  -5  -3   -1.89    5.15
   3  -5  -2  150.19   17.28
   3  -5  -2  125.96   23.86
   3  -5  -2  176.15   18.81
   3  -5  -1  141.87   16.32
   3  -5  -1   96.50   20.96
  -3   5   1  141.07   17.72
   3  -5  -1  146.29   15.96
  -3   5   0    2.16    2.74
   3  -5   0    7.50    3.35
   3  -5   0    0.71    1.41
   3  -5   1   12.12    6.71
  -3   5  -1   18.81    5.98
   3  -5   1   16.66    5.56
   3  -5   1   13.20    4.67
  -3   5  -2  132.44   16.46
   3  -5   2  167.31   17.58
   3  -5   3   68.79   11.02
  -3   5  -3   55.80   10.25
  -3   5  -4    0.90    1.60
   3  -5   4   -2.42    3.47
  -3   5  -5   54.32    9.57
   3  -5   5   66.24   10.63
   3  -5   6    5.04    3.20
  -3   5  -6    2.10    1.83
  -3   5  -7    2.04    1.82
   3  -5   7    4.34    4.91
   3  -4 -11   19.20    3.65
  -3   4  11   18.51    3.73
  -3   4  10   27.04    5.70
   3  -4 -10   41.10    6.93
  -3   4   9    1.17    1.65
   3  -4  -8    4.20    3.41
  -3   4   8    4.43    2.72
   3  -4  -7    1.88    2.41
   3  -4  -7   -1.78    3.43
   3  -4  -6  795.28   45.45
   3  -4  -6  780.38   46.10
   3  -4  -5   -0.75    7.03
   3  -4  -5    0.66    2.73
   3  -4  -5    1.36    2.86
   3  -4  -4   15.18    8.30
   3  -4  -4   24.85    6.11
   3  -4  -4   31.87    8.34
   3  -4  -3    0.43    2.91
   3  -4  -3    2.28    1.85
   3  -4  -3    7.89    5.12
   3  -4  -2    2.79    3.23
   3  -4  -2    1.57    3.75
   3  -4  -2    0.82    1.93
   3  -4  -1   15.92    5.14
   3  -4  -1    8.18    6.82
   3  -4  -1   10.76    4.15
   3  -4   0   -2.87    3.57
   3  -4   0   -1.63    2.49
   3  -4   0   -1.08    1.76
   3  -4   1   77.27   17.42
   3  -4   1  108.10   12.84
   3  -4   1   97.96   12.15
  -3   4  -2  105.11   13.86
   3  -4   2   93.07   22.27
   3  -4   2  117.42   13.67
   3  -4   2  105.08   12.64
  -3   4  -3   -2.65    3.99
   3  -4   3   -0.08    2.17
   3  -4   3    4.71    5.76
  -3   4  -4   15.08    4.93
   3  -4   4   18.65    6.30
  -3   4  -5  121.35   15.62
   3  -4   5  148.52   17.06
  -3   4  -6   13.19    4.87
   3  -4   6    9.37    4.80
  -3   4  -7    3.79    2.34
   3  -4   7    2.08    1.96
  -3   4  -8    4.22    2.08
   3  -4   8    1.89    2.06
   3  -3 -11    0.77    1.03
  -3   3  11    0.35    1.21
   3  -3 -10   -1.79    1.19
  -3   3  10    1.44    1.35
  -3   3   9   17.31    4.60
  -3   3   8   46.60    8.43
   3  -3  -7    3.40    2.39
   3  -3  -7    7.02    2.98
   3  -3  -6    1.75    2.72
   3  -3  -6    5.02    3.49
   3  -3  -5  390.02   27.79
   3  -3  -5  451.10   30.85
   3  -3  -4    6.22    6.26
   3  -3  -4   -2.24    3.11
   3  -3  -4   -0.10    2.17
   3  -3  -3   -4.72    4.10
   3  -3  -2   18.87    6.87
   3  -3  -1   79.08   16.76
   3  -3   0    1.74    1.91
   3  -3   1   22.55    9.36
   3  -3   2    3.71    4.17
   3  -3   2    0.44    2.06
   3  -3   3    7.92    3.63
   3  -3   3    6.56    6.86
  -3   3  -3    6.71    3.51
   3  -3   3    5.39    2.61
  -3   3  -4  468.40   33.27
   3  -3   4  499.19   31.36
   3  -3   4  434.14   55.99
  -3   3  -5   80.23   12.43
  -3   3  -6   84.21   13.05
  -3   3  -7   10.33    4.91
  -3   3  -8   22.85    5.95
   3  -3   8   20.55    5.13
  -3   3  -9    2.84    1.73
   3  -3   9    2.64    1.85
   3  -2 -11   -0.19    1.01
   3  -2 -10   79.93    9.27
  -3   2  10   66.54    7.67
   3  -2  -9   27.35    6.25
  -3   2   9   16.04    4.60
  -3   2   8   17.68    5.20
  -3   2   7   -2.12    3.19
   3  -2  -6  260.53   21.59
   3  -2  -6  265.17   23.02
   3  -2  -5   12.84    3.77
   3  -2  -5   15.47    4.49
   3  -2  -3  328.04   33.04
   3  -2  -2    8.15    5.21
   3  -2  -1    0.79    4.15
   3  -2   0   15.37    7.54
   3  -2   2  118.12   20.86
   3  -2   3  142.67   27.24
   3  -2   4    4.62    6.93
   3  -2   4    3.14    2.27
  -3   2  -5  335.23   26.44
   3  -2   5  387.84   25.76
   3  -2   5  347.93   47.55
  -3   2  -6    2.90    2.86
   3  -2   6   -0.91    1.57
  -3   2  -7  120.24   15.22
   3  -2   7  104.79   11.84
  -3   2  -8   -1.71    1.60
  -3   2  -9   19.19    5.42
  -3   2 -10   20.76    5.56
   3  -2  10   36.82    5.99
   3  -1 -11    3.26    1.74
   3  -1 -10   -1.19    1.72
   3  -1 -10    0.34    1.42
   3  -1  -9   15.77    4.42
   3  -1  -9   16.21    4.91
   3  -1  -8  219.86   19.00
   3  -1  -8  199.19   18.15
  -3   1   8  151.11   13.95
  -3   1   7   53.89    8.44
   3  -1  -7   61.27    9.26
   3  -1  -6   66.03    9.68
   3  -1  -6   54.08   17.55
   3  -1  -6   53.31    9.33
  -3   1   6   47.82    7.46
   3  -1  -5    0.36    2.90
   3  -1  -5    1.65    1.35
   3  -1  -4  168.64   28.26
   3  -1  -3 1554.05   90.87
   3  -1  -2  187.87   23.32
   3  -1  -1    1.99    1.54
   3  -1   0  445.14   39.32
   3  -1   2    1.23    3.51
   3  -1   3    5.88    5.11
   3  -1   4   35.08   13.93
   3  -1   5  272.51   20.98
   3  -1   5  302.59   41.36
   3  -1   6   81.96   22.64
  -3   1  -6   53.87    9.24
   3  -1   6   58.64    9.15
  -3   1  -7    0.70    1.56
   3  -1   7    3.26    2.98
  -3   1  -8   -0.41    1.76
   3  -1   8    0.65    1.39
  -3   1  -9   35.26    8.19
  -3   1 -10   -1.53    2.13
  -3   1 -11   -0.57    1.21
   3  -1  11    0.40    0.83
   3   0 -10    3.36    2.08
   3   0 -10    1.29    1.88
   3   0  -9    7.55    3.41
   3   0  -9    7.80    3.23
   3   0  -8   65.53    9.86
   3   0  -8   68.61   10.80
   3   0  -7   16.56    5.29
   3   0  -7   21.77    5.96
   3   0  -6    7.96    2.48
   3   0  -6   -3.23    4.46
   3   0  -5   29.88    5.84
   3   0  -5   25.72   11.68
   3   0  -4   16.46    8.51
   3   0  -3  135.58   24.91
   3   0  -2    9.91    5.53
   3   0  -1   36.26    7.18
   3   0  -1   31.65    8.34
   3   0   0   21.57    6.79
   3   0   1  205.28   26.25
   3   0   3   21.42    7.13
   3   0   4  296.42   33.39
   3   0   5   55.18   15.76
   3   0   6   87.60   21.47
   3   0   6   69.86   10.17
  -3   0  -7  282.23   23.15
   3   0   7  300.39   22.54
   3   0   7  334.83   46.32
  -3   0  -8   72.64   11.76
   3   0   8   77.89   10.49
  -3   0  -9    8.94    4.80
   3   0   9    2.75    3.05
  -3   0 -10  176.34   19.71
   3   0  10  132.84   12.50
  -3   0 -11   -2.38    1.74
   3   0  12    0.97    0.80
   3   1 -10    5.38    2.50
   3   1  -9    2.85    3.59
   3   1  -9   -0.24    1.53
   3   1  -8   35.82    8.27
   3   1  -8   32.76    6.81
   3   1  -7    0.08    2.17
   3   1  -7    0.31    2.43
   3   1  -6   26.81    6.73
   3   1  -6   27.40    6.11
   3   1  -6   23.90   13.77
   3   1  -5   63.21   10.65
   3   1  -5   57.44    9.84
   3   1  -5   46.66   17.10
   3   1  -4    8.94    5.41
   3   1  -3  159.15   28.07
   3   1  -2  195.51   29.33
   3   1  -1   23.68    5.63
   3   1  -1   30.88    9.69
   3   1   0   35.18    6.15
   3   1   0   27.77    7.93
   3   1   1   51.74   11.67
   3   1   2    8.19    6.17
   3   1   3  212.31   23.32
   3   1   4   10.35    6.67
   3   1   5  192.18   28.02
   3   1   6  118.68   13.82
   3   1   6  124.74   25.56
   3   1   7  190.44   35.36
   3   1   7  158.59   16.91
   3   1   8  337.34   50.47
  -3  -1  -8  305.01   25.75
   3   1   8  330.30   25.27
   3   1   9   21.11    5.96
  -3  -1  -9   24.27    7.23
  -3  -1 -10   48.50   10.50
   3   1  10   29.25    6.29
  -3  -1 -11    7.09    4.43
   3   1  11    4.20    2.24
  -3  -1 -12    1.54    1.08
   3   2  -9    4.47    2.44
   3   2  -9    0.43    2.91
   3   2  -8  117.06   12.98
   3   2  -8  151.47   17.64
   3   2  -7   79.05   11.45
   3   2  -7  107.55   15.09
   3   2  -6    8.25    4.09
   3   2  -6    9.63    5.15
   3   2  -5   15.97    5.10
   3   2  -5   19.49    5.34
   3   2  -5   11.99    9.55
   3   2  -4  124.13   13.95
   3   2  -4  108.37   13.84
   3   2  -4   90.95   22.49
   3   2  -3    6.00    5.47
   3   2  -2  281.47   37.77
   3   2  -1   17.51    5.54
   3   2  -1   15.82    8.89
   3   2   0   10.80    3.67
   3   2   0   13.57    6.58
   3   2   1   41.58   11.10
   3   2   1   39.16    5.94
   3   2   2   14.52    6.57
   3   2   3 1964.53  104.96
   3   2   4    0.01    2.05
   3   2   5   14.34    6.62
   3   2   6    3.22    5.03
   3   2   7   14.29    4.85
   3   2   7    9.91    3.44
   3   2   7   16.04    7.88
   3   2   8   89.74   11.93
   3   2   8  108.84   28.62
   3   2   8  119.52   15.89
   3   2   9    2.86    3.54
   3   2  10   44.41    9.10
  -3  -2 -10   70.38   14.25
   3   2  11   -0.21    1.61
  -3  -2 -11    3.22    3.23
  -3  -2 -12    1.41    1.90
   3   2  12    1.64    1.57
   3   3  -9   12.08    4.64
   3   3  -8   -0.53    1.97
   3   3  -8   -0.07    2.69
   3   3  -7   10.40    4.42
   3   3  -7   11.75    5.10
   3   3  -6   41.47    8.80
   3   3  -6   41.51    8.99
   3   3  -5   15.56    5.08
   3   3  -5   12.35    4.15
   3   3  -5    9.02   10.20
   3   3  -4   51.72    9.17
   3   3  -4   53.30    9.64
   3   3  -4   42.04   15.17
   3   3  -3   93.41   11.57
   3   3  -3   84.46   11.53
   3   3  -3   91.66   22.30
   3   3  -2  315.83   42.19
   3   3  -1   -0.84    1.90
   3   3  -1   -1.14    7.42
   3   3   0  393.07   41.37
   3   3   0  338.73   23.66
   3   3   1  158.22   23.46
   3   3   1  135.03   12.80
   3   3   2    3.31    3.22
   3   3   3   94.34   18.14
   3   3   4   66.51   15.28
   3   3   5    3.27    5.69
   3   3   6  757.06   71.43
   3   3   7   21.39   10.75
   3   3   8   68.28    9.70
   3   3   8  117.52   29.59
   3   3   9   89.42   12.20
   3   3   9  115.49   17.21
   3   3  10    5.47    4.50
   3   3  11    7.93    4.54
   3   3  12   13.01    3.86
  -3  -3 -12   11.58    4.22
   3   3  13   20.37    2.92
   3   4  -9    4.85    1.96
   3   4  -8   78.67   10.97
   3   4  -7  137.58   16.15
   3   4  -6  183.37   18.64
   3   4  -6  172.65   18.77
   3   4  -5    5.23    3.59
   3   4  -5    0.36    3.15
   3   4  -4  127.61   15.98
   3   4  -4  107.07   13.72
   3   4  -3   87.24   11.76
   3   4  -3   75.62   11.16
   3   4  -3   75.93   21.28
   3   4  -2    0.91    3.73
   3   4  -2    4.15    5.84
   3   4  -1  193.86   33.54
   3   4  -1  203.08   19.19
   3   4   0  156.91   27.58
   3   4   0  141.10   14.71
   3   4   1    6.00    6.54
   3   4   1    2.99    1.42
   3   4   2   24.52    9.10
   3   4   3  387.97   38.91
   3   4   4    1.18    2.80
   3   4   4   -1.73    1.78
   3   4   5   51.27   14.39
   3   4   6  168.38   31.41
   3   4   7   87.50   24.50
   3   4   8   10.22   10.04
   3   4   9   28.70    6.52
   3   4   9   34.73   17.06
   3   4  10   67.52    9.86
   3   4  11  146.86   18.55
   3   4  12   18.66    5.29
  -3  -4 -12   17.76    5.42
   3   4  13   20.04    3.74
   3   5  -8    1.90    1.66
   3   5  -7  129.87   14.41
   3   5  -6   44.72    8.31
   3   5  -5    2.56    3.88
   3   5  -4   16.84    6.30
   3   5  -4    9.99    4.71
   3   5  -3  107.22   14.28
   3   5  -3   78.90   11.81
   3   5  -2   71.76   10.50
   3   5  -2   74.27   11.58
   3   5  -2   67.38   20.75
   3   5  -1    7.64    3.92
   3   5  -1   10.79    9.15
   3   5   0    0.01    2.34
   3   5   0    6.26    7.10
   3   5   1    6.12    2.93
   3   5   1   12.64    8.01
   3   5   2  382.36   41.24
   3   5   3  106.92   20.76
   3   5   4   47.81   14.50
   3   5   5    0.78    4.03
   3   5   6  472.30   47.76
   3   5   7   -1.61    2.56
   3   5   7    0.96    5.39
   3   5   8   76.41   22.07
   3   5   9  271.19   43.00
   3   5  10    3.22    2.66
   3   5  11   -4.34    2.23
   3   5  12   14.11    5.20
   3   5  13    3.51    1.64
   3   6  -7    2.60    1.84
   3   6  -6   30.19    7.01
   3   6  -6   29.92    7.71
   3   6  -5   16.15    4.64
   3   6  -4   10.46    3.50
   3   6  -3   19.43    6.15
   3   6  -2   41.90    8.89
   3   6  -2   33.66   13.46
   3   6  -1    8.02    4.83
   3   6  -1    3.65    4.98
   3   6  -1    4.16    3.42
   3   6   0   12.90    5.56
   3   6   0    9.12    6.70
   3   6   0    5.47    3.50
   3   6   1  134.48   25.00
   3   6   1  122.49   14.25
   3   6   2  118.99   23.66
   3   6   2  110.97   12.64
   3   6   3   24.28   11.12
   3   6   4  134.66   26.19
  -3  -6  -5   10.14    6.30
  -3  -6  -6   33.91   12.13
   3   6   6   25.63   10.55
   3   6   7    2.62    2.49
   3   6   7    4.18    7.10
   3   6   8    3.23    2.69
   3   6   8    0.00    1.61
   3   6   8   -1.63    2.65
   3   6  12  140.13   16.34
   3   6  13    0.94    1.90
   3   6  14   -0.97    0.75
   3   7  -6    2.07    2.30
   3   7  -5   61.21   10.98
   3   7  -4    5.81    3.12
   3   7  -3  210.64   23.88
   3   7  -2    7.49    4.46
   3   7  -1    3.27    3.03
   3   7   0   -3.20    6.82
   3   7   0    1.66    3.07
   3   7   1   38.10    8.06
   3   7   1   35.14   14.09
   3   7   1   30.91    7.41
   3   7   2  241.76   34.65
   3   7   2  173.94   16.83
   3   7   2  208.08   18.07
   3   7   3   34.35   11.01
   3   7   3   32.14    6.51
   3   7   4  185.26   33.20
   3   7   4  158.95   15.46
  -3  -7  -5  124.50   21.20
   3   7   5  160.07   15.98
  -3  -7  -6  109.14   20.84
   3   7   6  114.00   13.76
   3   7   6   90.12   11.31
   3   7   7  120.18   14.07
  -3  -7  -7   92.92   19.81
   3   7   7   97.40   22.61
  -3  -7  -8  231.15   35.28
   3   7   8  257.87   21.80
   3   7   8  212.72   35.99
   3   7   9  146.44   15.45
   3   7   9  110.06   11.97
   3   7  12   -2.93    2.02
   3   7  13   -0.59    1.36
   3   7  14    1.80    0.86
   3   8  -5    9.65    3.67
   3   8  -4    2.91    2.91
   3   8  -3  269.64   25.85
   3   8  -2   -1.53    4.38
   3   8  -1  365.33   31.42
   3   8   0    6.55    4.40
   3   8   1   71.07   12.17
   3   8   2   10.55    4.59
   3   8   3   71.96   10.79
   3   8   3   67.97   10.34
   3   8   3   60.05    9.15
   3   8   4  291.18   23.38
   3   8   4  354.45   25.19
   3   8   5    0.49    1.06
   3   8   5   -0.11    2.94
  -3  -8  -6    2.39    4.67
   3   8   6    4.25    2.70
   3   8   6    3.41    1.78
   3   8   7   73.62   11.30
  -3  -8  -7   51.80   14.57
   3   8   8   28.31    7.08
   3   8   9   46.22    8.77
   3   8  10   39.25    7.55
   3   8  12   23.17    5.99
   3   8  13    1.32    1.58
   3   8  14    1.95    0.91
   3   9  -4    6.99    2.98
   3   9  -3    9.10    4.08
   3   9  -2    8.06    4.10
   3   9  -1  102.62   14.94
   3   9   0   61.07   11.51
   3   9   1    7.60    4.06
   3   9   2   23.07    6.89
   3   9   2   22.08    6.93
   3   9   3    4.66    3.48
   3   9   3    8.19    4.22
   3   9   4    1.22    1.45
   3   9   4   -1.16    1.95
   3   9   5   64.36   10.87
   3   9   5   61.24   10.30
   3   9   5   46.26    8.32
   3   9   6  148.10   17.24
   3   9   6  146.40   15.88
   3   9   7  637.72   39.29
   3   9   7  675.61   38.15
   3   9   8   -0.76    1.72
   3   9   9  169.06   17.35
   3   9  10   11.41    4.52
   3   9  10    4.75    2.61
   3   9  11    9.02    3.92
   3   9  12   26.65    5.79
   3   9  13    0.17    1.17
   3  10  -3    0.60    0.83
   3  10  -2    3.68    2.22
   3  10  -2    6.21    2.39
   3  10  -1    4.20    1.67
   3  10   0   68.93   11.50
   3  10   1  153.73   17.65
   3  10   1  159.31   17.77
   3  10   2  111.97   15.35
   3  10   2   72.23   10.79
   3  10   2  126.43   15.61
   3  10   3   78.29   12.79
   3  10   3   80.59   12.70
   3  10   4   62.41   11.18
   3  10   5   13.49    5.43
   3  10   6   34.07    8.21
   3  10   6   34.21    7.34
   3  10   7   11.89    4.75
   3  10   8   69.94   11.17
   3  10   9   77.32   11.47
   3  10  10  129.72   13.89
   3  10  10  119.04   12.29
   3  11  -1   10.06    3.30
   3  11   0   67.95    9.80
   3  11   0  105.10   11.94
   3  11   1    7.02    3.27
   3  11   2  101.01   13.01
   3  11   3    8.96    3.62
   3  11   3    4.48    2.67
   3  11   4   -0.72    3.12
   3  11   5   41.44    8.88
   3  11   6   73.15   12.34
   3  11   7   20.23    5.50
   3  11   8    0.09    2.06
   3  11   9   -1.58    2.65
   3  11  10   74.67    9.47
   3  11  10   62.86    8.27
   3  11  11    5.17    1.39
   3  12   1    9.87    3.18
   3  12   2   11.65    4.25
   3  12   3   23.44    6.17
   3  12   4   -0.54    2.13
   3  12   4    2.82    1.85
   3  12   5    3.51    3.27
   3  12   6    6.03    2.48
   3  12   6   12.23    4.83
   3  12   7    5.33    2.45
   3  12   8    3.57    2.45
   3  12   9   11.00    3.52
   3  12  10  111.36   10.36
   3  12  10  126.08   10.91
   3  12  11   -1.19    1.37
   3  13   3    0.99    1.39
   3  13   4    0.03    0.88
   3  13   5    0.51    0.80
   3  13   6    8.13    2.48
   3  13   7   -0.99    1.29
   3  13   8    0.34    0.55
   3  13   8    2.94    1.69
   3  13   9    1.30    0.99
   3  13   9    4.07    1.82
   3  13  10    1.06    0.71
  -4   9   5    3.54    1.45
  -4   9   4   -0.26    0.92
  -4   9   3   22.64    3.55
  -4   8   8    4.91    1.65
  -4   8   7    2.69    1.25
  -4   8   7    0.27    1.09
  -4   8   6    0.28    1.16
  -4   8   5   26.58    5.11
  -4   8   4   34.32    5.92
  -4   8   3   49.19    7.59
  -4   8   2    7.45    3.01
  -4   8   1    7.30    2.55
   4  -7  -9    0.01    0.62
  -4   7   9    2.24    1.41
  -4   7   8   66.71    7.99
  -4   7   7   -2.64    2.39
  -4   7   7    2.56    2.29
  -4   7   6    1.35    1.79
   4  -7  -5   14.56    4.24
   4  -7  -4    7.69    3.83
   4  -7  -3   48.81    7.80
   4  -7  -2    9.96    3.89
   4  -7  -1    9.33    3.88
   4  -7   0   -4.63    2.93
   4  -7   1   18.60    4.85
   4  -7   2   -1.54    1.63
   4  -7   3    1.42    1.22
  -4   6   9    4.73    2.37
  -4   6   8    3.35    2.88
  -4   6   7   44.92    6.97
   4  -6  -6    2.43    2.32
   4  -6  -5   10.29    4.91
   4  -6  -4    1.83    3.39
   4  -6  -3   52.18    9.68
   4  -6  -2   72.01   11.62
   4  -6  -2   82.85   11.70
   4  -6  -1   50.15    9.56
   4  -6  -1   49.08    8.53
   4  -6   0    6.61    3.52
   4  -6   0    6.18    3.72
   4  -6   1    3.41    2.63
   4  -6   2    2.10    1.73
   4  -6   3   55.40    8.91
   4  -6   4    2.65    1.75
   4  -6   5    0.69    1.06
   4  -5 -10    9.41    2.00
   4  -5  -9   20.28    4.63
  -4   5   9   21.54    4.98
  -4   5   8   10.44    3.38
   4  -5  -7  115.56   13.49
   4  -5  -6    9.85    4.31
   4  -5  -5   19.02    6.53
   4  -5  -4   22.57    7.36
   4  -5  -3    3.83    3.70
   4  -5  -2  103.44   14.83
   4  -5  -2  105.00   14.25
   4  -5  -1    5.08    3.48
   4  -5  -1    6.38    4.13
   4  -5   0   17.31    6.18
   4  -5   0   19.57    6.11
   4  -5   1   10.07    4.16
   4  -5   1   12.59    4.21
   4  -5   2   21.05    6.15
   4  -5   2   17.12    4.36
   4  -5   3    2.73    2.79
   4  -5   4    3.43    2.81
   4  -5   5   15.66    4.37
   4  -5   6    0.33    0.84
   4  -4 -10   17.77    3.30
   4  -4  -9   50.51    7.42
  -4   4   9   48.03    7.42
  -4   4   8   80.42   10.46
  -4   4   7  125.96   14.09
   4  -4  -7  111.97   13.40
   4  -4  -6  131.15   15.83
   4  -4  -5   11.04    3.57
   4  -4  -4    8.52    4.34
   4  -4  -3   31.92    7.27
   4  -4  -2   -1.20    2.03
   4  -4  -2   -1.75    3.35
   4  -4  -1   12.54    5.88
   4  -4  -1   16.54    6.05
   4  -4   0   17.13    5.73
   4  -4   0   15.07    5.50
   4  -4   1   12.74    5.82
   4  -4   1   13.42    5.03
   4  -4   2    1.93    2.27
   4  -4   2   -0.37    2.65
   4  -4   3   23.50    6.41
   4  -4   3   22.45    5.91
   4  -4   4  111.46   13.54
   4  -4   4   92.61   11.23
   4  -4   5   12.94    4.31
   4  -4   6    1.33    1.34
   4  -4   7   26.41    4.49
   4  -3 -10    6.76    1.77
   4  -3  -9   22.84    4.81
  -4   3   8    2.48    2.56
  -4   3   7    1.83    2.18
   4  -3  -6  115.55   14.62
   4  -3  -5   10.71    4.64
   4  -3  -4  172.23   19.63
   4  -3  -3   -6.04    4.86
   4  -3  -2    0.16    2.76
   4  -3  -2    1.62    4.42
   4  -3  -1  104.26   15.69
   4  -3  -1   91.32   13.21
   4  -3   0   96.09   14.42
   4  -3   0  100.66   13.41
   4  -3   1   51.95   10.55
   4  -3   1   46.75    9.15
   4  -3   1   48.67    8.95
   4  -3   2   -0.99    2.40
   4  -3   2    0.22    1.91
   4  -3   3   52.68    9.77
   4  -3   3   53.82    9.61
   4  -3   4  116.79   14.86
   4  -3   4  117.74   14.30
   4  -3   5    1.33    1.67
   4  -3   5   -5.95    3.84
   4  -3   6   11.43    3.23
   4  -3   6    4.63    1.27
   4  -3   7    2.11    1.39
   4  -3   8   25.40    4.46
   4  -2 -10   -1.02    1.07
   4  -2  -9   99.41   10.35
   4  -2  -8   12.20    4.28
  -4   2   7    6.98    3.51
  -4   2   6  140.14   13.92
   4  -2  -6  143.87   15.62
   4  -2  -5   99.06   13.89
   4  -2  -4  766.01   45.14
   4  -2  -3   69.04   11.21
   4  -2  -2   36.05    9.65
   4  -2  -2   43.49    8.99
   4  -2  -1    3.95    3.81
   4  -2  -1    2.77    2.57
   4  -2   0    8.18    3.72
   4  -2   0    9.43    3.46
   4  -2   1   55.04   10.43
   4  -2   1   51.72    8.77
   4  -2   1   53.79    9.38
   4  -2   2   73.66   11.05
   4  -2   2   76.59   11.24
   4  -2   3    6.01    1.81
   4  -2   3   12.43    5.25
   4  -2   4  458.84   30.92
   4  -2   4  420.48   30.28
   4  -2   5   13.66    4.88
   4  -2   5   12.40    4.19
   4  -2   6    9.28    3.84
   4  -2   6    9.53    3.94
   4  -2   7    2.87    1.81
   4  -2   7    4.25    2.06
   4  -2   8   52.79    7.77
   4  -2   9    0.22    1.18
   4  -1 -10   14.83    3.01
   4  -1  -9   29.75    5.22
   4  -1  -8   18.29    5.01
   4  -1  -7    4.73    3.45
   4  -1  -6    0.00    2.57
   4  -1  -5    7.51    3.83
   4  -1  -4    6.75    3.49
   4  -1  -3  118.33   14.37
   4  -1  -2  198.18   19.05
   4  -1  -1   13.82    4.53
   4  -1  -1   12.92    3.73
   4  -1   0    3.85    2.98
   4  -1   0    1.23    3.82
   4  -1   1   -2.16    1.60
   4  -1   1   -2.65    2.02
   4  -1   1    1.30    2.64
   4  -1   2    3.70    2.78
   4  -1   2   -0.36    1.59
   4  -1   3  160.97   15.77
   4  -1   3  164.25   17.21
   4  -1   4   11.09    3.11
   4  -1   4   10.14    4.03
   4  -1   5    0.48    2.22
   4  -1   5    0.78    2.21
   4  -1   6  176.41   17.89
   4  -1   6  143.23   15.18
   4  -1   7   27.26    6.49
   4  -1   7   19.79    4.94
   4  -1   8    1.92    2.50
   4  -1   8    3.67    2.28
   4  -1   9   35.63    6.43
   4  -1   9   18.81    3.79
   4  -1  10    3.60    1.58
   4   0  -9   -0.05    1.37
   4   0  -8    5.11    1.83
   4   0  -7   63.69   10.55
   4   0  -6   17.07    5.17
   4   0  -4  319.38   41.95
   4   0  -4  347.30   25.00
   4   0  -3   59.38   17.44
   4   0  -3   77.05   10.84
   4   0  -2   -8.41    7.17
   4   0  -2    0.06    1.50
   4   0  -1   24.57    9.10
   4   0  -1    9.09    2.95
   4   0   0   -0.92    3.62
   4   0   0   -4.13    3.95
   4   0   1  118.33   22.68
   4   0   1  112.48   12.97
   4   0   1   95.59   11.48
   4   0   2   -1.31    2.43
   4   0   3    5.81    2.12
   4   0   3    6.60    3.21
   4   0   4   46.13    7.80
   4   0   4   57.71    9.57
   4   0   5    1.70    2.43
   4   0   5    0.32    2.47
   4   0   6   65.07   10.16
   4   0   7  149.53   15.22
   4   0   8  115.72   12.50
   4   0   9    4.26    2.63
   4   0   9    3.72    2.14
   4   0  10   -1.34    2.00
   4   0  10   -0.40    0.84
   4   1  -9    6.94    2.48
   4   1  -8    7.56    3.62
   4   1  -7    6.81    2.67
   4   1  -7   17.89    5.29
   4   1  -6    6.52    2.70
   4   1  -5   40.74    8.28
   4   1  -4   35.41    7.45
   4   1  -4   28.54   14.49
   4   1  -3   18.86    5.30
   4   1  -3   -1.51    6.58
   4   1  -2  117.06   24.93
   4   1  -2   84.50   10.90
   4   1  -1  194.86   30.93
   4   1  -1  155.45   15.23
   4   1   0    1.73    3.22
   4   1   0   -4.57    4.38
   4   1   1    6.84    3.15
   4   1   1    4.40    4.95
   4   1   2  241.98   34.05
   4   1   2  201.16   17.91
   4   1   2  208.98   17.37
   4   1   3   32.07    6.47
   4   1   3   28.79    5.66
   4   1   4   18.47    4.22
   4   1   4   21.09    5.54
   4   1   5    0.19    1.45
   4   1   6   10.01    4.88
   4   1   7  769.30   42.85
   4   1   8   14.02    4.42
   4   1   9    1.32    2.84
   4   1  10    7.87    3.19
   4   1  11    6.62    2.19
   4   1  11    7.05    1.93
   4   2  -8    3.27    2.06
   4   2  -7   40.13    7.53
   4   2  -6    7.19    4.05
   4   2  -6    7.50    5.09
   4   2  -5   48.98    9.53
   4   2  -5   57.40   10.38
   4   2  -4   77.94   11.05
   4   2  -4   78.73   12.61
   4   2  -3    2.42    2.21
   4   2  -3    0.62    5.68
   4   2  -2    3.21    2.66
   4   2  -2   -2.34    3.50
   4   2  -1   26.26   11.87
   4   2   0  208.89   32.80
   4   2   0  223.11   21.79
   4   2   1  226.52   20.91
   4   2   1  218.99   31.84
   4   2   1  228.77   20.88
   4   2   2  266.40   35.57
   4   2   2  254.94   20.88
   4   2   3   33.72    6.82
   4   2   4   22.03    5.84
   4   2   4   30.37    6.77
   4   2   5  177.37   17.42
   4   2   6   13.56    5.05
   4   2   7    9.39    4.28
   4   2   8   49.29    9.18
   4   2   9   57.98    9.72
   4   2  10   23.62    5.99
   4   2  11   11.07    3.20
   4   3  -7   17.93    5.16
   4   3  -6    0.21    2.33
   4   3  -5  306.66   26.04
   4   3  -5  285.30   25.03
   4   3  -4   15.52    5.65
   4   3  -4    6.02    3.75
   4   3  -4    2.02    4.04
   4   3  -3   -1.85    3.57
   4   3  -3    4.16    2.78
   4   3  -2    4.92    4.16
   4   3  -2    5.39    3.15
   4   3  -2    8.43    7.58
   4   3  -1    3.90    3.70
   4   3  -1   -0.19    3.58
   4   3   0  204.41   20.87
   4   3   0  202.19   33.60
   4   3   0  221.44   23.01
   4   3   1   10.39    4.79
   4   3   1   10.90    3.70
   4   3   1    9.41    3.89
   4   3   1    2.66    3.57
   4   3   2    3.36    2.59
   4   3   2    5.04    3.14
   4   3   2   10.56    8.61
   4   3   2    0.82    2.51
   4   3   3    4.00    3.74
   4   3   3    2.71    2.63
   4   3   3    5.21    4.37
   4   3   4   12.66    4.72
   4   3   4   14.83    4.46
   4   3   4   13.09    4.33
   4   3   5    9.28    4.43
   4   3   5    5.46    2.94
   4   3   6    3.15    2.63
   4   3   7  321.56   26.02
   4   3   8   42.34    9.07
   4   3   9   27.95    7.01
   4   3  10  120.42   14.22
   4   3  11   13.01    3.84
   4   3  12   -0.82    1.07
   4   3  12    4.44    1.64
   4   4  -7   18.64    3.89
   4   4  -5   -0.67    2.74
   4   4  -4   10.92    5.32
   4   4  -3   20.94    6.45
   4   4  -3   10.89    4.81
   4   4  -2  155.08   18.06
   4   4  -2  121.40   14.05
   4   4  -2   88.32   23.95
   4   4  -1   10.85    5.23
   4   4  -1   12.01    8.99
   4   4   0    8.32    6.52
   4   4   0    5.44    3.76
   4   4   0    6.11    4.68
   4   4   0    2.26    5.45
   4   4   1   27.55    7.94
   4   4   1   26.07    7.05
   4   4   1   25.02    6.32
   4   4   1   45.37   18.18
   4   4   2  174.42   18.74
   4   4   2  172.28   32.73
   4   4   2  165.42   16.46
   4   4   2  193.98   20.66
   4   4   3  116.53   15.40
   4   4   3  113.10   13.44
   4   4   3  111.52   24.67
   4   4   4    5.03    3.54
   4   4   4    2.10    2.10
   4   4   4   -1.30    1.69
   4   4   5  231.99   18.65
   4   4   5  172.90   16.97
   4   4   6   35.37    7.87
   4   4   6   38.53    7.51
   4   4   7    5.15    3.91
   4   4   7    3.15    3.05
   4   4   8   49.34    9.59
   4   4   9   75.59   12.42
   4   4  10  327.29   25.56
   4   4  11    7.76    3.93
   4   4  12   44.47    6.35
   4   5  -6    2.78    1.68
   4   5  -5   10.50    3.27
   4   5  -4    8.03    2.54
   4   5  -3   12.97    5.41
   4   5  -3    7.36    2.83
   4   5  -2   21.27    5.52
   4   5  -2   21.52    5.91
   4   5  -1   90.32   13.62
   4   5  -1   66.85   10.04
   4   5  -1   64.36   20.72
   4   5   0   25.70    9.56
   4   5   0   17.82    6.35
   4   5   0   12.32    4.41
   4   5   0   10.72    6.21
   4   5   1    0.88    2.41
   4   5   1    2.44    3.13
   4   5   1    2.98    2.31
   4   5   1    4.62    7.74
   4   5   2   25.11    7.86
   4   5   2   26.57    7.36
   4   5   2   22.41    6.15
   4   5   2   14.60    9.22
   4   5   3    8.48    5.40
   4   5   3    9.60    7.60
   4   5   3   10.14    3.53
   4   5   3   -0.87    3.45
   4   5   4   28.51    6.20
   4   5   5   14.72    5.36
   4   5   5   13.90    4.11
   4   5   6   23.57    5.69
   4   5   6   17.92    5.49
   4   5   7   28.15    7.37
   4   5   7   31.46    7.11
   4   5   8  232.72   19.31
   4   5   8  241.57   22.53
   4   5   9   27.01    6.91
   4   5  10    0.87    1.57
   4   5  11    3.21    2.71
   4   5  12    9.60    3.11
   4   5  13   -0.01    0.59
   4   6  -5    0.70    1.49
   4   6  -4   13.51    3.76
   4   6  -3   59.96    8.51
   4   6  -2   11.51    4.05
   4   6  -1    9.53    3.88
   4   6   0    5.97    4.42
   4   6   0   -2.50    3.06
   4   6   0   -5.41   11.46
   4   6   1  186.43   20.41
   4   6   1  192.50   37.26
   4   6   1  172.98   17.36
   4   6   1  198.02   21.97
   4   6   2   39.37   10.01
   4   6   2   29.82    8.36
   4   6   2   27.34    6.41
   4   6   2   23.18   12.37
   4   6   3  396.88   53.16
   4   6   3  404.27   27.76
   4   6   3  451.03   35.10
   4   6   4  259.41   41.71
   4   6   4  274.84   22.35
   4   6   5   45.46    8.99
   4   6   6  332.39   25.44
   4   6   7  164.30   16.88
   4   6   7  107.27   13.92
   4   6   8   15.11    5.12
   4   6   8   19.03    5.16
   4   6   9   59.77   10.71
   4   6  10   21.69    6.03
   4   6  11    1.45    2.06
   4   6  12    1.01    1.70
   4   6  13    7.73    2.01
   4   7  -5    6.12    2.03
   4   7  -4   -0.42    1.51
   4   7  -3   -0.33    1.68
   4   7  -2   57.50    8.38
   4   7  -1    1.21    1.62
   4   7   0   14.38    4.80
   4   7   1   18.61    5.39
   4   7   2  104.95   13.12
   4   7   2   78.48   22.93
   4   7   2  110.45   15.25
   4   7   3  288.64   44.04
   4   7   3  319.35   24.48
   4   7   3  350.38   29.06
   4   7   4    2.54    3.27
   4   7   4   -3.16    4.26
   4   7   5   32.25    7.26
   4   7   6   -0.13    2.99
   4   7   7   85.94   12.31
   4   7   8   39.09    7.63
   4   7   8   65.23   10.21
   4   7   9    6.68    3.16
   4   7   9    4.10    2.44
   4   7  10    4.43    3.17
   4   7  11    8.62    3.25
   4   7  12    3.53    2.02
   4   7  13    1.22    1.19
   4   8  -4    0.39    0.66
   4   8  -3   -1.82    1.03
   4   8  -2    7.46    3.09
   4   8  -1   10.64    3.63
   4   8   0   55.46    9.01
   4   8   1    4.86    2.99
   4   8   1    3.06    1.76
   4   8   2   11.75    4.16
   4   8   2   18.44    5.32
   4   8   3   36.20    8.22
   4   8   3   33.40    7.63
   4   8   4  186.16   19.06
   4   8   4  205.02   20.99
   4   8   5  181.15   19.23
   4   8   5  178.90   19.91
   4   8   6    1.25    1.85
   4   8   7   24.57    6.19
   4   8   8  200.22   18.96
   4   8   9   43.49    7.49
   4   8  10    7.48    2.97
   4   8  11    6.50    2.94
   4   8  12   -0.01    1.50
   4   9  -2    1.79    1.62
   4   9  -1    4.79    2.25
   4   9   0   12.49    3.95
   4   9   1    5.22    1.99
   4   9   2    1.54    2.38
   4   9   2    1.82    1.42
   4   9   3  113.61   13.70
   4   9   3   78.35   10.97
   4   9   4   -0.88    2.94
   4   9   4    0.10    2.58
   4   9   5  107.22   13.86
   4   9   5   97.94   14.01
   4   9   6   21.29    6.37
   4   9   6   16.96    6.13
   4   9   7   45.87    8.11
   4   9   8   49.69    8.70
   4   9   9    0.47    1.75
   4   9  10    8.67    3.13
   4  10   2    1.18    1.88
   4  10   3    0.51    1.71
   4  10   3   -0.10    1.74
   4  10   4   37.98    7.48
   4  10   4   60.98    9.06
   4  10   5    9.59    4.27
   4  10   5   20.40    5.87
   4  10   6   37.32    8.05
   4  10   6   36.73    7.43
   4  10   7   -2.70    2.31
   4  10   7    7.82    3.46
   4  10   8    7.10    2.87
   4  10   8    5.12    3.16
   4  10   9   -0.05    1.87
   4  10  10    5.66    2.62
   4  11   2    1.97    1.51
   4  11   3    5.42    2.54
   4  11   3    3.40    2.11
   4  11   4    6.43    2.49
   4  11   4   15.88    4.44
   4  11   5   16.09    4.26
   4  11   6   19.72    4.73
   4  11   7    2.12    2.12
   4  11   8   30.48    5.63
   4  11   9   47.11    6.78
   4  11  10    1.98    1.26
   4  12   5    0.29    1.00
   4  12   6   -0.11    0.94
   4  12   7    3.35    2.02
   4  12   8   24.93    4.49
   4  12   9    4.15    1.89
   4  12  10    3.06    1.81
   4  13   8   -1.30    1.12
  -5   7   4   -0.06    0.61
  -5   7   3    3.73    1.63
  -5   7   2    6.24    1.78
  -5   6   5    2.16    1.47
   5  -6  -4   11.10    2.75
   5  -6  -3   42.86    5.73
   5  -6  -2    0.93    1.15
   5  -6  -1    7.17    2.40
   5  -6   0   -0.12    0.87
   5  -5  -7    4.98    1.66
   5  -5  -6   10.25    2.15
  -5   5   6   26.23    4.30
   5  -5  -5   29.09    4.79
   5  -5  -4    0.97    1.03
   5  -5  -4    6.58    2.82
   5  -5  -3   18.29    4.64
   5  -5  -2    5.30    2.93
   5  -5  -1   14.76    4.37
   5  -5   0    3.18    1.90
   5  -5   1   27.59    5.85
   5  -5   1   25.23    4.73
   5  -5   2   64.25    8.20
   5  -5   2   47.26    5.40
   5  -5   3    2.72    1.29
   5  -5   4    0.61    0.64
   5  -4  -7   -1.76    1.12
   5  -4  -6    1.88    1.82
  -5   4   6    4.29    1.78
   5  -4  -5   51.78    7.49
   5  -4  -4    3.56    2.28
   5  -4  -3   70.62    9.74
   5  -4  -2   13.44    4.86
   5  -4  -1    6.12    2.67
   5  -4   0    3.97    2.47
   5  -4   0    9.28    3.95
   5  -4   1   12.08    3.63
   5  -4   1   13.87    4.83
   5  -4   2   19.92    5.20
   5  -4   2   15.89    4.90
   5  -4   3   10.00    3.67
   5  -4   3   15.37    3.59
   5  -4   4    3.96    2.49
   5  -4   4   -1.24    1.17
   5  -4   5   15.25    3.17
   5  -3  -7  100.17    8.01
   5  -3  -6   54.09    6.65
   5  -3  -5   -0.29    1.50
   5  -3  -4    2.35    2.65
   5  -3  -3    3.17    1.72
   5  -3  -2    8.54    3.35
   5  -3  -1    2.93    2.29
   5  -3  -1    1.66    2.88
   5  -3   0   92.14   12.66
   5  -3   0   95.96   12.69
   5  -3   1   -1.01    1.42
   5  -3   1    1.38    2.50
   5  -3   2   84.34   11.51
   5  -3   2   96.29   11.97
   5  -3   3   76.36   10.31
   5  -3   3   80.71   10.21
   5  -3   4   26.08    5.37
   5  -3   4   30.73    5.54
   5  -3   5    9.89    3.31
   5  -3   5    8.46    2.29
   5  -3   6    4.75    1.87
   5  -2  -7   11.45    2.73
   5  -2  -6   56.19    6.77
   5  -2  -5    4.14    2.60
   5  -2  -5    0.06    1.43
   5  -2  -4    6.86    3.83
   5  -2  -3   -1.48    2.92
   5  -2  -2    5.24    2.96
   5  -2  -1   17.47    5.61
   5  -2  -1   30.23    7.05
   5  -2   0   12.84    5.25
   5  -2   0    3.65    2.62
   5  -2   0   13.72    4.48
   5  -2   1   48.79    9.37
   5  -2   1   46.21    8.71
   5  -2   2  106.35   13.62
   5  -2   2  126.47   14.69
   5  -2   3   -3.46    2.50
   5  -2   3   -0.37    2.69
   5  -2   4    6.15    2.78
   5  -2   4    0.15    1.78
   5  -2   5   36.14    6.47
   5  -2   5   41.59    6.65
   5  -2   6    3.26    1.69
   5  -2   6    4.96    2.01
   5  -2   7    1.39    1.08
   5  -1  -7  136.04   10.28
   5  -1  -7   55.80    9.62
   5  -1  -6  121.74   10.82
   5  -1  -5    0.84    1.01
   5  -1  -5   -3.34    2.62
   5  -1  -4   96.94    9.13
   5  -1  -4  105.26   13.00
   5  -1  -3    5.97    3.21
   5  -1  -2   13.96    5.19
   5  -1  -1   23.78    6.83
   5  -1   0   26.50    6.36
   5  -1   0   32.05    7.56
   5  -1   1    1.34    1.92
   5  -1   1   -2.90    2.77
   5  -1   1    3.98    2.92
   5  -1   2   56.64    9.64
   5  -1   2   76.70   11.43
   5  -1   3    2.84    2.18
   5  -1   3   -4.72    5.02
   5  -1   4    7.45    3.62
   5  -1   4   11.83    4.02
   5  -1   4   21.83    5.33
   5  -1   5    7.25    3.31
   5  -1   5    9.22    3.75
   5  -1   5    6.71    3.83
   5  -1   6   10.47    3.31
   5  -1   6   13.98    3.83
   5  -1   6   13.48    3.89
   5  -1   7    3.27    1.69
   5  -1   7    2.31    1.94
   5  -1   7    0.47    0.98
   5  -1   8   14.71    2.74
   5   0  -7    5.41    2.58
   5   0  -7    8.49    2.65
   5   0  -6   30.38    7.16
   5   0  -6   46.77    6.16
   5   0  -5   21.59    4.21
   5   0  -4    0.59    0.78
   5   0  -4    3.20    2.23
   5   0  -3    6.02    3.50
   5   0  -2   97.46   13.42
   5   0  -1   13.28    4.89
   5   0   0   29.26    6.70
   5   0   0   37.89    8.51
   5   0   1   14.93    4.14
   5   0   1   15.82    4.52
   5   0   2    9.40    3.69
   5   0   2    9.37    3.97
   5   0   3    2.06    3.26
   5   0   4    2.60    1.59
   5   0   4    8.97    4.27
   5   0   5   75.79    9.89
   5   0   5  119.55   14.21
   5   0   6  158.08   14.50
   5   0   6  202.62   17.58
   5   0   7    5.73    2.90
   5   0   7    6.23    2.96
   5   0   8    8.72    3.04
   5   0   8    7.60    2.14
   5   0   9   -0.26    1.06
   5   1  -7    1.43    1.06
   5   1  -6    0.30    1.68
   5   1  -6    5.63    1.76
   5   1  -5   17.09    5.21
   5   1  -5   19.71    3.89
   5   1  -4    5.65    3.09
   5   1  -4    3.37    1.52
   5   1  -2    2.29    3.34
   5   1  -2    5.58    3.01
   5   1  -1    5.30    2.85
   5   1  -1    8.99    4.47
   5   1   0  267.95   24.50
   5   1   0  270.25   24.23
   5   1   1   86.55   13.11
   5   1   1   86.62   12.81
   5   1   2   12.30    5.62
   5   1   2    4.03    1.97
   5   1   3    3.05    2.80
   5   1   3   -1.46    1.94
   5   1   3    1.63    2.81
   5   1   4    5.11    4.10
   5   1   5  222.95   20.78
   5   1   6   45.66    7.41
   5   1   6   79.24   11.35
   5   1   7    1.72    2.84
   5   1   7    1.23    1.45
   5   1   8    2.22    1.65
   5   1   8    6.34    1.98
   5   1   9    6.49    2.24
   5   1   9   12.51    3.36
   5   2  -6   16.92    3.61
   5   2  -5    4.21    2.47
   5   2  -5    3.48    1.73
   5   2  -4   -0.97    2.27
   5   2  -4    0.14    1.13
   5   2  -3   10.20    3.67
   5   2  -2   20.52    5.78
   5   2  -1  284.74   24.84
   5   2   0  192.13   20.57
   5   2   0  156.41   16.67
   5   2   1   23.51    7.59
   5   2   1   20.04    5.77
   5   2   2   37.94    8.53
   5   2   2   43.29    9.53
   5   2   2   45.52    9.06
   5   2   3    4.91    3.85
   5   2   3    6.91    4.59
   5   2   3    0.40    2.29
   5   2   4   40.67    8.20
   5   2   4   51.38    9.35
   5   2   5   10.00    3.86
   5   2   5   20.06    6.12
   5   2   6  164.94   16.91
   5   2   7   10.13    4.49
   5   2   8   -1.94    1.65
   5   2   9    0.27    1.46
   5   2  10    0.80    1.34
   5   3  -5    0.99    1.12
   5   3  -5    0.67    1.04
   5   3  -4   18.22    5.27
   5   3  -4   10.25    2.93
   5   3  -3  134.71   14.48
   5   3  -2    0.07    1.88
   5   3  -1   83.69   12.66
   5   3   0  149.13   18.14
   5   3   1    6.73    5.06
   5   3   2  321.93   28.83
   5   3   2  245.35   22.25
   5   3   2  292.50   26.87
   5   3   3    6.20    4.96
   5   3   3    0.01    4.27
   5   3   3    1.81    2.56
   5   3   4    2.32    3.47
   5   3   4   -0.40    2.36
   5   3   5   39.43    8.09
   5   3   5   44.51    8.81
   5   3   6   16.10    4.70
   5   3   6   10.68    3.96
   5   3   7    1.33    1.84
   5   3   7   -1.20    2.00
   5   3   8    0.43    1.61
   5   3   9  251.17   18.96
   5   3  10   64.91    8.03
   5   3  11    5.21    1.72
   5   4  -4    1.55    1.14
   5   4  -3   -0.95    2.51
   5   4  -2   13.91    5.21
   5   4  -1   22.72    7.13
   5   4   0  131.40   17.39
   5   4   1   52.53   11.10
   5   4   2   27.81   10.03
   5   4   2   28.66    8.53
   5   4   3    2.33    2.91
   5   4   3    2.84    3.72
   5   4   4   32.08    8.35
   5   4   4   31.45    7.49
   5   4   5    3.54    3.89
   5   4   5   -4.13    3.30
   5   4   6   71.88   10.62
   5   4   6   76.14   11.44
   5   4   7  239.00   20.12
   5   4   7  211.55   19.08
   5   4   8   10.25    3.70
   5   4   8   15.31    4.57
   5   4   9   97.55   11.00
   5   4   9   44.92    7.37
   5   4  10   12.22    3.57
   5   4  11  112.73    9.26
   5   5  -2   29.79    7.10
   5   5  -1    8.94    4.25
   5   5   0    5.14    3.54
   5   5   1   11.86    5.64
   5   5   2  949.98   57.82
   5   5   2  959.26   60.84
   5   5   3   -1.18    3.20
   5   5   4   86.81   14.29
   5   5   5   48.02    8.88
   5   5   5   69.58   12.31
   5   5   6   -1.53    1.72
   5   5   6    2.70    2.42
   5   5   7   -0.90    2.89
   5   5   8   14.05    3.90
   5   5   9   11.23    3.58
   5   5  10   44.29    6.64
   5   5  10   23.62    4.66
   5   5  11    3.66    1.72
   5   6   2  313.40   31.97
   5   6   3  194.70   20.48
   5   6   3  200.51   25.33
   5   6   4  130.26   16.51
   5   6   4  116.83   18.12
   5   6   5   16.06    6.83
   5   6   5   30.31    8.35
   5   6   6   39.44    9.31
   5   6   6   22.91    7.31
   5   6   7   11.02    5.19
   5   6   7   15.85    4.45
   5   6   8    0.28    1.16
   5   6   9    2.80    2.28
   5   6  10    3.49    2.02
   5   6  11   20.07    3.68
   5   7   3    7.33    5.15
   5   7   3    0.50    3.40
   5   7   4    4.54    3.38
   5   7   4    8.66    4.04
   5   7   5   39.09    9.99
   5   7   5   61.70   11.18
   5   7   6   30.64    8.19
   5   7   6   57.06   10.21
   5   7   7   17.74    6.40
   5   7   7    3.42    1.79
   5   7   8   16.83    5.28
   5   7   9    5.14    2.17
   5   7  10   -0.50    0.98
   5   7  10    1.06    1.42
   5   7  11    5.57    1.77
   5   8   3   31.23    8.14
   5   8   4   13.83    6.49
   5   8   4   11.78    5.22
   5   8   5   78.34   13.49
   5   8   5  110.92   14.50
   5   8   6   22.36    6.36
   5   8   6   35.41    7.61
   5   8   7   -0.66    2.27
   5   8   7   -1.53    2.02
   5   8   8  123.52   13.48
   5   8   8   65.20    9.82
   5   8   9    0.02    1.67
   5   8  10    2.26    2.07
   5   9   3    4.39    3.29
   5   9   4   16.44    5.34
   5   9   5   63.13   10.97
   5   9   5   89.62   12.12
   5   9   6  100.34   12.34
   5   9   6   65.20   10.89
   5   9   7   12.94    4.56
   5   9   7   27.03    6.14
   5   9   8   15.82    4.50
   5   9   8   37.17    6.55
   5   9   9    7.63    3.02
   5  10   4    8.84    3.54
   5  10   5    3.27    1.66
   5  10   6    7.73    3.32
   5  10   6   10.50    3.99
   5  10   7   16.14    4.24
   5  10   7   26.77    5.56
   5  10   8    4.09    2.47
   5  10   8   10.30    3.00
   5  11   6    0.73    0.92
   5  11   7   29.59    4.66
   5  11   8    1.63    1.46
   6  -4  -2    0.96    0.87
   6  -4  -1    4.49    1.43
   6  -3  -3    9.01    2.14
   6  -3  -2    1.05    0.79
   6  -3  -1   29.53    4.76
   6  -3   0   13.80    3.29
   6  -3   1   11.03    2.90
   6  -3   2   55.13    5.45
   6  -2  -4    2.35    1.52
   6  -2  -3   24.47    4.78
   6  -2  -3   31.33    4.29
   6  -2  -2    0.42    0.93
   6  -2  -2    2.74    1.75
   6  -2  -1    0.84    1.76
   6  -2   0    1.69    1.63
   6  -2   1   28.32    5.28
   6  -2   2   -1.42    1.77
   6  -2   3    5.95    2.17
   6  -2   4    6.25    1.71
   6  -1  -4    9.36    3.18
   6  -1  -3    0.20    1.01
   6  -1  -3    0.74    0.85
   6  -1  -2   39.76    6.63
   6  -1  -2   35.07    5.76
   6  -1  -1    1.96    1.71
   6  -1  -1    5.47    2.67
   6  -1   0    6.01    2.86
   6  -1   0    7.26    2.63
   6  -1   1   10.07    3.10
   6  -1   2   -1.53    1.74
   6  -1   3   21.70    4.72
   6  -1   4   33.88    5.21
   6  -1   5   20.51    3.49
   6   0  -4   14.87    3.76
   6   0  -3   49.89    7.37
   6   0  -2    0.26    1.96
   6   0  -2    0.21    0.99
   6   0  -1    3.16    2.21
   6   0  -1    2.59    2.30
   6   0   0   82.47   10.22
   6   0   0   85.17    9.89
   6   0   1   12.44    3.88
   6   0   1   18.67    5.24
   6   0   2   27.83    5.47
   6   0   3   16.52    4.09
   6   0   4  130.58   12.20
   6   0   5   -1.26    1.91
   6   0   6    4.32    1.77
   6   1  -4    0.72    1.69
   6   1  -3    1.97    2.22
   6   1  -2   -2.28    2.19
   6   1  -1   21.32    5.40
   6   1  -1   19.33    4.61
   6   1   0   29.69    6.14
   6   1   0   29.05    5.71
   6   1   1    0.56    2.36
   6   1   1    3.22    3.09
   6   1   2    0.06    1.71
   6   1   3   95.60   10.83
   6   1   4   -4.01    2.39
   6   1   5    4.35    2.17
   6   1   6    0.02    1.74
   6   1   7   53.08    6.05
   6   2  -4   23.84    4.21
   6   2  -3   43.89    6.80
   6   2  -2   25.50    5.36
   6   2  -1    2.23    2.23
   6   2   0   13.93    4.85
   6   2   1   46.45    8.52
   6   2   1   35.39    6.62
   6   2   2   21.55    5.87
   6   2   2   24.02    5.59
   6   2   3   64.23    8.62
   6   2   4   73.83    9.11
   6   2   5    0.53    1.60
   6   2   6    3.54    1.29
   6   2   7   -0.23    1.35
   6   2   8    2.09    1.24
   6   3  -3    5.55    2.29
   6   3  -2    9.12    2.67
   6   3  -1   29.76    6.08
   6   3   0   26.81    6.23
   6   3   1    4.75    2.67
   6   3   3    2.42    2.44
   6   3   4   20.78    5.03
   6   3   5   67.95    8.80
   6   3   6   17.22    4.40
   6   3   7   62.91    7.73
   6   3   8    0.41    1.46
   6   4  -1    3.26    2.71
   6   4   0    5.81    3.21
   6   4   4    3.34    1.76
   6   4   5    0.67    1.72
   6   4   6   16.12    4.46
   6   4   6   22.55    4.58
   6   4   7    1.59    1.50
   6   4   8   -0.25    1.32
   6   5   5    0.41    1.99
   6   5   6    0.05    1.55
   6   5   6    1.97    1.29
   6   5   7    7.00    3.00
   6   5   7   -2.12    1.60
   6   5   8    1.92    0.96
   6   6   5    2.64    2.51
   6   6   6   47.49    8.10
   6   6   7   11.03    3.90
   6   7   6    4.30    3.06
   6   7   7   -1.00    1.13
   0   0   0    0.00    0.00

TITL mjp_1 in P-1
REM P-1 (#2 in standard setting)
CELL 1.54184   5.488178  11.182451  11.641327  62.2924  80.0585  76.7272
ZERR    2.00   0.000717   0.001452   0.001614   0.0136   0.0113   0.0111
LATT  1
SFAC C H N
UNIT 30.00 24.00 6.00
TREF
HKLF 4
END
_computing_structure_solution     'SHELXT 2014/5 (Sheldrick, 2014)'
;
_shelx_hkl_checksum              3987
_olex2_submission_special_instructions 'No special instructions were received'
loop_
_space_group_symop_operation_xyz
'x, y, z'
'-x, -y, -z'
loop_
_atom_site_label
_atom_site_type_symbol
_atom_site_fract_x
_atom_site_fract_y
_atom_site_fract_z
_atom_site_U_iso_or_equiv
_atom_site_adp_type
_atom_site_occupancy
_atom_site_site_symmetry_order
_atom_site_calc_flag
_atom_site_refinement_flags_posn
N001 N 1.0118(5) 0.2759(3) 0.5958(3) 0.0329(6) Uani 1 1 d .
H001 H 1.032603 0.353793 0.586699 0.039 Uiso 1 1 calc R
N002 N 0.8681(5) 0.4872(3) 0.3573(2) 0.0319(6) Uani 1 1 d .
N003 N 0.4726(5) 0.2600(3) 0.3709(3) 0.0377(7) Uani 1 1 d .
H003 H 0.428675 0.219224 0.452648 0.045 Uiso 1 1 calc R
C004 C 0.7976(5) 0.3716(3) 0.3940(3) 0.0298(7) Uani 1 1 d .
C005 C 0.7970(6) 0.6020(3) 0.2382(3) 0.0316(7) Uani 1 1 d .
C006 C 0.8821(6) 0.2577(3) 0.5152(3) 0.0302(7) Uani 1 1 d .
C007 C 0.8907(6) 0.1186(3) 0.5628(3) 0.0353(7) Uani 1 1 d .
H007 H 0.818204 0.076273 0.528152 0.042 Uiso 1 1 calc R
C008 C 0.6692(6) 0.3853(3) 0.1838(3) 0.0326(7) Uani 1 1 d .
H008 H 0.776617 0.442068 0.122538 0.039 Uiso 1 1 calc R
C009 C 0.9822(6) 0.6462(3) 0.1360(3) 0.0332(7) Uani 1 1 d .
H009 H 1.145227 0.597311 0.144797 0.040 Uiso 1 1 calc R
C00A C 0.5549(6) 0.6768(3) 0.2242(3) 0.0337(7) Uani 1 1 d .
H00A H 0.431004 0.648091 0.291756 0.040 Uiso 1 1 calc R
C00B C 1.1022(6) 0.1516(3) 0.6920(3) 0.0351(7) Uani 1 1 d .
H00B H 1.196104 0.136530 0.758197 0.042 Uiso 1 1 calc R
C00C C 0.4958(6) 0.3271(4) 0.1577(3) 0.0379(8) Uani 1 1 d .
H00C H 0.469315 0.338076 0.076382 0.045 Uiso 1 1 calc R
C00D C 0.4977(6) 0.7929(3) 0.1108(4) 0.0388(8) Uani 1 1 d .
H00D H 0.335039 0.842314 0.102509 0.047 Uiso 1 1 calc R
C00E C 0.6800(7) 0.8376(3) 0.0081(3) 0.0375(8) Uani 1 1 d .
H00E H 0.640448 0.916310 -0.068395 0.045 Uiso 1 1 calc R
C00F C 0.6513(6) 0.3431(3) 0.3170(3) 0.0301(7) Uani 1 1 d .
C00G C 0.3738(6) 0.2518(4) 0.2736(4) 0.0382(8) Uani 1 1 d .
H00G H 0.247112 0.203640 0.284979 0.046 Uiso 1 1 calc R
C00H C 0.9230(6) 0.7622(3) 0.0222(3) 0.0360(7) Uani 1 1 d .
H00H H 1.046224 0.790460 -0.045800 0.043 Uiso 1 1 calc R
C00I C 1.0292(7) 0.0524(4) 0.6734(3) 0.0404(8) Uani 1 1 d .
H00I H 1.065088 -0.041705 0.724903 0.048 Uiso 1 1 calc R
loop_
_atom_site_aniso_label
_atom_site_aniso_U_11
_atom_site_aniso_U_22
_atom_site_aniso_U_33
_atom_site_aniso_U_23
_atom_site_aniso_U_13
_atom_site_aniso_U_12
N001 0.0356(14) 0.0393(14) 0.0303(13) -0.0201(11) -0.0023(10) -0.0084(11)
N002 0.0340(13) 0.0376(14) 0.0285(13) -0.0178(11) -0.0019(10) -0.0073(10)
N003 0.0349(14) 0.0517(16) 0.0321(14) -0.0224(13) -0.0003(10) -0.0113(12)
C004 0.0268(14) 0.0396(16) 0.0272(14) -0.0203(13) 0.0021(10) -0.0041(11)
C005 0.0344(16) 0.0374(16) 0.0299(15) -0.0206(13) -0.0027(11) -0.0062(12)
C006 0.0317(15) 0.0414(16) 0.0236(13) -0.0176(13) -0.0010(11) -0.0113(12)
C007 0.0420(17) 0.0424(17) 0.0267(15) -0.0186(13) -0.0028(12) -0.0093(13)
C008 0.0353(16) 0.0380(16) 0.0283(15) -0.0179(13) 0.0004(11) -0.0085(12)
C009 0.0289(15) 0.0374(16) 0.0360(16) -0.0198(14) -0.0015(12) -0.0037(12)
C00A 0.0288(15) 0.0408(17) 0.0372(16) -0.0229(14) -0.0012(12) -0.0048(12)
C00B 0.0407(16) 0.0400(16) 0.0250(14) -0.0141(13) -0.0043(12) -0.0074(13)
C00C 0.0386(17) 0.0485(18) 0.0352(17) -0.0265(15) -0.0072(13) -0.0024(14)
C00D 0.0339(17) 0.0420(17) 0.0505(19) -0.0295(16) -0.0102(13) 0.0001(13)
C00E 0.0453(18) 0.0367(17) 0.0341(16) -0.0190(14) -0.0071(13) -0.0034(13)
C00F 0.0286(14) 0.0385(16) 0.0277(14) -0.0189(12) 0.0003(10) -0.0067(11)
C00G 0.0337(16) 0.0474(19) 0.0444(18) -0.0275(16) -0.0069(13) -0.0080(13)
C00H 0.0394(17) 0.0391(17) 0.0306(15) -0.0175(13) -0.0001(12) -0.0061(13)
C00I 0.053(2) 0.0403(17) 0.0291(15) -0.0155(13) -0.0071(14) -0.0067(15)
loop_
_atom_type_symbol
_atom_type_description
_atom_type_scat_dispersion_real
_atom_type_scat_dispersion_imag
_atom_type_scat_source
C C 0.0181 0.0091 'International Tables Vol C Tables 4.2.6.8 and 6.1.1.4'
H H 0.0000 0.0000 'International Tables Vol C Tables 4.2.6.8 and 6.1.1.4'
N N 0.0311 0.0180 'International Tables Vol C Tables 4.2.6.8 and 6.1.1.4'
loop_
_exptl_crystal_face_index_h
_exptl_crystal_face_index_k
_exptl_crystal_face_index_l
_exptl_crystal_face_perp_dist
_exptl_oxdiff_crystal_face_indexfrac_h
_exptl_oxdiff_crystal_face_indexfrac_k
_exptl_oxdiff_crystal_face_indexfrac_l
_exptl_oxdiff_crystal_face_x
_exptl_oxdiff_crystal_face_y
_exptl_oxdiff_crystal_face_z
3 0 -3 0.1045 2.8574 0.1310 -3.3347 -0.1438 0.6742 0.7244
0 3 7 0.0747 -0.4860 3.3600 7.1728 0.2150 -0.9766 0.0089
0 -3 5 0.0583 0.0214 -2.7341 4.8718 0.9136 -0.3994 -0.0768
1 5 -2 0.0420 0.5543 5.0222 -2.3868 -0.9467 0.0944 0.3080
-1 -5 2 0.0558 -0.8123 -5.1510 2.1511 0.9209 -0.0923 -0.3787
1 6 0 0.0379 0.6581 6.3636 -0.1353 -0.9014 -0.1961 0.3860
0 -6 1 0.0420 0.2066 -5.9317 0.7146 0.9658 0.2117 -0.1495
0 -6 0 0.0452 -0.2863 -6.2231 0.3887 0.9362 0.2044 -0.2858
0 7 2 0.0420 0.2496 6.9867 1.8185 -0.8214 -0.4801 0.3080
0 -7 -2 0.0488 -0.2114 -6.9725 -1.8004 0.8242 0.4818 -0.2977
0 7 4 0.0536 0.4190 7.1927 3.9122 -0.6200 -0.6955 0.3633
0 5 7 0.0677 -0.0588 5.4164 6.7730 -0.0967 -0.9775 0.1874
0 -6 -7 0.0766 -0.3301 -5.6523 -6.8339 0.0947 0.9509 -0.2947
1 2 7 0.0714 0.7571 2.4098 7.4605 0.4825 -0.8252 0.2936
0 -2 -7 0.0740 -0.2475 -1.9611 -7.3754 -0.4999 0.8533 -0.1481
3 2 4 0.1314 3.1659 1.8260 4.3617 0.4337 -0.1949 0.8797
0 3 -5 0.0598 -0.2557 2.5156 -5.0324 -0.9164 0.4001 0.0092
-1 -4 3 0.0705 -1.3123 -3.7684 3.4843 0.8169 -0.3538 -0.4554
1 -4 3 0.0498 0.5034 -4.2239 3.1871 0.9952 -0.0973 -0.0092
0 5 -3 0.0440 0.1569 4.7850 -2.7020 -0.9757 0.0943 0.1979
0 6 0 0.0411 0.1592 6.1700 -0.4516 -0.9449 -0.2095 0.2515
-3 -3 -2 0.1179 -3.4517 -3.3530 -2.2495 -0.0103 0.0038 -0.9999
1 -6 1 0.0465 0.5752 -5.6378 0.9469 0.9756 0.2150 -0.0449
0 -7 -2 0.0453 0.3077 -6.7028 -1.5472 0.8514 0.5009 -0.1556
2 -5 -2 0.0833 2.1697 -4.5722 -2.2172 0.6129 0.6870 0.3903
0 7 4 0.0557 -0.2310 6.9206 3.7168 -0.6511 -0.7354 0.1878
2 -4 -3 0.0929 2.3834 -3.6131 -3.4936 0.3549 0.8055 0.4747
-1 5 6 0.0764 -0.6861 4.8940 6.4990 -0.0973 -0.9952 0.0090
loop_
_geom_angle_atom_site_label_1
_geom_angle_atom_site_label_2
_geom_angle_atom_site_label_3
_geom_angle
C006 N001 H001 125.1
C00B N001 H001 125.1
C00B N001 C006 109.7(3)
C004 N002 C005 121.1(3)
C00F N003 H003 125.2
C00F N003 C00G 109.6(3)
C00G N003 H003 125.2
N002 C004 C006 118.2(3)
N002 C004 C00F 124.6(3)
C006 C004 C00F 117.0(3)
C009 C005 N002 118.5(3)
C00A C005 N002 121.9(3)
C00A C005 C009 119.4(3)
N001 C006 C004 121.1(3)
N001 C006 C007 107.3(3)
C007 C006 C004 131.0(3)
C006 C007 H007 126.3
C006 C007 C00I 107.5(3)
C00I C007 H007 126.3
C00C C008 H008 126.0
C00F C008 H008 126.0
C00F C008 C00C 108.0(3)
C005 C009 H009 120.0
C00H C009 C005 120.0(3)
C00H C009 H009 120.0
C005 C00A H00A 119.9
C00D C00A C005 120.3(3)
C00D C00A H00A 119.9
N001 C00B H00B 126.2
N001 C00B C00I 107.6(3)
C00I C00B H00B 126.2
C008 C00C H00C 126.2
C00G C00C C008 107.7(3)
C00G C00C H00C 126.2
C00A C00D H00D 119.6
C00A C00D C00E 120.9(3)
C00E C00D H00D 119.6
C00D C00E H00E 120.6
C00D C00E C00H 118.8(3)
C00H C00E H00E 120.6
N003 C00F C004 123.7(3)
N003 C00F C008 106.9(3)
C008 C00F C004 129.3(3)
N003 C00G H00G 126.1
C00C C00G N003 107.8(3)
C00C C00G H00G 126.1
C009 C00H C00E 120.7(3)
C009 C00H H00H 119.7
C00E C00H H00H 119.7
C007 C00I H00I 126.0
C00B C00I C007 107.9(3)
C00B C00I H00I 126.0
loop_
_geom_bond_atom_site_label_1
_geom_bond_atom_site_label_2
_geom_bond_distance
N001 H001 0.8600
N001 C006 1.379(4)
N001 C00B 1.364(4)
N002 C004 1.290(4)
N002 C005 1.423(4)
N003 H003 0.8600
N003 C00F 1.372(4)
N003 C00G 1.385(4)
C004 C006 1.453(4)
C004 C00F 1.477(4)
C005 C009 1.400(4)
C005 C00A 1.389(4)
C006 C007 1.380(5)
C007 H007 0.9300
C007 C00I 1.405(4)
C008 H008 0.9300
C008 C00C 1.410(5)
C008 C00F 1.387(4)
C009 H009 0.9300
C009 C00H 1.378(5)
C00A H00A 0.9300
C00A C00D 1.375(5)
C00B H00B 0.9300
C00B C00I 1.376(5)
C00C H00C 0.9300
C00C C00G 1.366(5)
C00D H00D 0.9300
C00D C00E 1.393(5)
C00E H00E 0.9300
C00E C00H 1.396(5)
C00G H00G 0.9300
C00H H00H 0.9300
C00I H00I 0.9300
