#------------------------------------------------------------------------------
#$Date: 2019-11-24 03:22:18 +0200 (Sun, 24 Nov 2019) $
#$Revision: 236469 $
#$URL: file:///home/coder/svn-repositories/cod/cif/1/55/40/1554034.cif $
#------------------------------------------------------------------------------
#
# This file is available in the Crystallography Open Database (COD),
# http://www.crystallography.net/
#
# All data on this site have been placed in the public domain by the
# contributors.
#
data_1554034
loop_
_publ_author_name
'Pavan, Mysore S.'
'Jana, Ajay Kumar'
'Natarajan, S.'
'Guru Row, Tayur N.'
_publ_section_title
;
 Halogen Bonding and Chalcogen Bonding in
 4,7-Dibromo-5,6-dinitro-2,1,3-benzothiadiazole.
;
_journal_issue                   34
_journal_name_full               'The journal of physical chemistry. B'
_journal_page_first              11382
_journal_page_last               11390
_journal_paper_doi               10.1021/acs.jpcb.5b03533
_journal_volume                  119
_journal_year                    2015
_chemical_formula_sum            'C6 Br2 N4 O4 S'
_chemical_formula_weight         383.98
_space_group_crystal_system      orthorhombic
_space_group_IT_number           19
_space_group_name_Hall           'P 2ac 2ab'
_space_group_name_H-M_alt        'P 21 21 21'
_audit_creation_method           SHELXL-2014/7
_cell_angle_alpha                90
_cell_angle_beta                 90
_cell_angle_gamma                90
_cell_formula_units_Z            4
_cell_length_a                   6.57487(8)
_cell_length_b                   10.21418(12)
_cell_length_c                   15.22634(17)
_cell_measurement_reflns_used    21062
_cell_measurement_temperature    100(2)
_cell_measurement_theta_max      42.5550
_cell_measurement_theta_min      3.3260
_cell_volume                     1022.55(2)
_computing_cell_refinement
;
CrysAlisPro, Agilent Technologies,
Version 1.171.37.31 (release 14-01-2014 CrysAlis171 .NET)
(compiled Jan 14 2014,18:38:05)
;
_computing_data_collection
;
CrysAlisPro, Agilent Technologies,
Version 1.171.37.31 (release 14-01-2014 CrysAlis171 .NET)
(compiled Jan 14 2014,18:38:05)
;
_computing_data_reduction
;
CrysAlisPro, Agilent Technologies,
Version 1.171.37.31 (release 14-01-2014 CrysAlis171 .NET)
(compiled Jan 14 2014,18:38:05)
;
_computing_structure_refinement  'SHELXL-2014/7 (Sheldrick, 2014)'
_computing_structure_solution    'SHELXS-2014/7 (Sheldrick, 2014)'
_diffrn_ambient_environment      N~2~
_diffrn_ambient_temperature      100(2)
_diffrn_detector                 'CCD plate'
_diffrn_detector_area_resol_mean 8.0419
_diffrn_detector_type            Eos
_diffrn_measured_fraction_theta_full 1.000
_diffrn_measured_fraction_theta_max 1.000
_diffrn_measurement_device       'four-circle diffractometer'
_diffrn_measurement_device_type  'Xcalibur, Eos, Nova'
_diffrn_radiation_monochromator  mirror
_diffrn_radiation_probe          x-ray
_diffrn_radiation_type           'Mo K\a'
_diffrn_radiation_wavelength     0.71073
_diffrn_reflns_av_unetI/netI     0.0629
_diffrn_reflns_Laue_measured_fraction_full 1.000
_diffrn_reflns_Laue_measured_fraction_max 1.000
_diffrn_reflns_number            114524
_diffrn_reflns_point_group_measured_fraction_full 1.000
_diffrn_reflns_point_group_measured_fraction_max 0.999
_diffrn_reflns_theta_full        25.242
_diffrn_reflns_theta_max         53.009
_diffrn_reflns_theta_min         2.401
_diffrn_source                   'Mova (Mo) X-ray Source'
_exptl_absorpt_coefficient_mu    8.140
_exptl_absorpt_correction_T_max  0.788
_exptl_absorpt_correction_T_min  0.440
_exptl_absorpt_correction_type   analytical
_exptl_absorpt_process_details
;
CrysAlisPro, Agilent Technologies,
Version 1.171.37.31 (release 14-01-2014 CrysAlis171 .NET)
(compiled Jan 14 2014,18:38:05)
Analytical numeric absorption correction using a multifaceted crystal
			model based on expressions derived by R.C. Clark & J.S. Reid.
(Clark, R. C. & Reid, J. S. (1995). Acta Cryst. A51, 887-897)
Empirical absorption correction using spherical harmonics,
 implemented in SCALE3 ABSPACK scaling algorithm.
;
_exptl_crystal_colour            colourless
_exptl_crystal_density_diffrn    2.494
_exptl_crystal_description       plate
_exptl_crystal_F_000             728
_exptl_crystal_size_max          0.151
_exptl_crystal_size_mid          0.110
_exptl_crystal_size_min          0.041
_refine_diff_density_max         1.103
_refine_diff_density_min         -0.885
_refine_diff_density_rms         0.180
_refine_ls_abs_structure_details
;
 Flack x determined using 3288 quotients [(I+)-(I-)]/[(I+)+(I-)]
 (Parsons, Flack and Wagner, Acta Cryst. B69 (2013) 249-259).
;
_refine_ls_abs_structure_Flack   0.004(4)
_refine_ls_extinction_method     none
_refine_ls_goodness_of_fit_ref   0.947
_refine_ls_hydrogen_treatment    undef
_refine_ls_matrix_type           full
_refine_ls_number_parameters     154
_refine_ls_number_reflns         12155
_refine_ls_number_restraints     0
_refine_ls_restrained_S_all      0.947
_refine_ls_R_factor_all          0.0620
_refine_ls_R_factor_gt           0.0356
_refine_ls_shift/su_max          0.001
_refine_ls_shift/su_mean         0.000
_refine_ls_structure_factor_coef Fsqd
_refine_ls_weighting_details     'w=1/[\s^2^(Fo^2^)] where P=(Fo^2^+2Fc^2^)/3'
_refine_ls_weighting_scheme      calc
_refine_ls_wR_factor_gt          0.0553
_refine_ls_wR_factor_ref         0.0600
_reflns_Friedel_coverage         0.813
_reflns_Friedel_fraction_full    1.000
_reflns_Friedel_fraction_max     0.997
_reflns_number_gt                9242
_reflns_number_total             12155
_reflns_threshold_expression     'I > 2\s(I)'
_cod_data_source_file            jp5b03533_si_003.cif
_cod_data_source_block           shelx
_cod_database_code               1554034
_shelx_shelxl_version_number     2014/7
_shelx_space_group_comment
;
The symmetry employed for this shelxl refinement is uniquely defined
by the following loop, which should always be used as a source of
symmetry information in preference to the above space-group names.
They are only intended as comments.
;
_shelx_estimated_absorpt_t_min   0.373
_shelx_estimated_absorpt_t_max   0.734
_shelx_res_file
;

    shelx.res created by SHELXL-2014/7

TITL face in P2(1)2(1)2(1)
CELL 0.71073 6.574873 10.214178 15.226344 90 90 90
ZERR 4 0.000076 0.000124 0.000169 0 0 0
LATT -1
SYMM 0.5-X,-Y,0.5+Z
SYMM -X,0.5+Y,0.5-Z
SYMM 0.5+X,0.5-Y,-Z

SFAC C N O S Br
UNIT 24 16 16 4 8
SIZE 0.1508 0.1099 0.0405
TEMP -173
L.S. 10
PLAN  10
list 3
BOND
fmap 2
acta
MERG 2
WGHT    0.000000
FVAR       3.23065
C1    1    0.326556    0.306482    0.179223    11.00000    0.01045    0.00901 =
         0.00962   -0.00131    0.00121    0.00006
C2    1    0.403573    0.295581    0.262596    11.00000    0.00963    0.00858 =
         0.01070   -0.00034    0.00042    0.00103
C3    1    0.312100    0.357867    0.336311    11.00000    0.00973    0.01075 =
         0.00908   -0.00028   -0.00002   -0.00009
C4    1    0.142035    0.434994    0.328805    11.00000    0.00945    0.01132 =
         0.00958   -0.00185    0.00062    0.00008
C5    1    0.055734    0.447139    0.243644    11.00000    0.00905    0.01005 =
         0.00987   -0.00159   -0.00021    0.00030
C6    1    0.146452    0.382650    0.169614    11.00000    0.00973    0.00991 =
         0.00898   -0.00088   -0.00040    0.00013
N1    2    0.418892    0.349714    0.421353    11.00000    0.01355    0.01194 =
         0.01009    0.00011   -0.00169   -0.00008
N2    2    0.580527    0.211257    0.279905    11.00000    0.01142    0.00968 =
         0.01239   -0.00068   -0.00076    0.00142
N3    2    0.047254    0.405934    0.093841    11.00000    0.01164    0.01351 =
         0.01036   -0.00101   -0.00128    0.00201
N4    2   -0.110085    0.518223    0.222986    11.00000    0.01042    0.01418 =
         0.01217   -0.00188   -0.00044    0.00130
O1    3    0.327159    0.305543    0.484094    11.00000    0.02148    0.02959 =
         0.01177    0.00550    0.00184   -0.00220
O2    3    0.594158    0.391392    0.421227    11.00000    0.01265    0.02018 =
         0.01819    0.00067   -0.00508   -0.00376
O3    3    0.556161    0.125105    0.335614    11.00000    0.01930    0.01265 =
         0.01872    0.00547    0.00015    0.00270
O4    3    0.736549    0.230340    0.238331    11.00000    0.01070    0.01824 =
         0.01985    0.00070    0.00300    0.00225
S1    4   -0.141127    0.500899    0.118403    11.00000    0.01213    0.01668 =
         0.01082   -0.00070   -0.00148    0.00411
BR1   5    0.439931    0.224346    0.081179    11.00000    0.01185    0.01005 =
         0.00971   -0.00172    0.00242    0.00105
BR2   5    0.039902    0.533383    0.421713    11.00000    0.01216    0.01732 =
         0.01057   -0.00490    0.00211    0.00149
HKLF 4

REM  face in P2(1)2(1)2(1)
REM R1 =  0.0356 for    9242 Fo > 4sig(Fo)  and  0.0620 for all   12155 data
REM    154 parameters refined using      0 restraints

END

WGHT      0.0000      0.0000

REM Highest difference peak  1.103,  deepest hole -0.885,  1-sigma level  0.180
Q1    1   0.5006  0.2824  0.0812  11.00000  0.05    1.10
Q2    1   0.4742  0.1614  0.0798  11.00000  0.05    0.98
Q3    1   0.3381  0.1861  0.0796  11.00000  0.05    0.93
Q4    1   0.0936  0.5968  0.4200  11.00000  0.05    0.91
Q5    1  -0.0551  0.5748  0.4183  11.00000  0.05    0.87
Q6    1   0.0307  0.4768  0.4263  11.00000  0.05    0.85
Q7    1   0.3930  0.3381  0.2938  11.00000  0.05    0.81
Q8    1   0.5303  0.2184  0.0857  11.00000  0.05    0.79
Q9    1   0.2108  0.2647  0.4184  11.00000  0.05    0.77
Q10   1  -0.0465  0.5042  0.4195  11.00000  0.05    0.70
;
_shelx_res_checksum              93393
_shelx_hkl_file
;
   0   0   213110.90 420.687   1
   0   0   4140172.0 3744.14   1
   0   0   6651073.014615.30   1
   0   0   899238.30 2513.77   1
   0   0  1027649.80 884.817   1
   0   0  12381953.010447.50   1
   0   0  1459582.10 1837.67   1
   0   0  16 2916.97 199.398   1
   0   0  1845781.60 1406.38   1
   0   0  20113995.0 3396.78   1
   0   0  22 1326.85 388.672   1
   0   0  2450166.30 1790.99   1
   0   0  2621463.30  939.53   1
   0   0  28 449.971 371.871   1
   0   0  3011018.20 787.964   1
   0   0  32 9253.11 1006.52   1
   0   0  34 243.001 766.168   1
   0   1   160033.60 1821.32   1
   0   1   238321.70 947.657   1
   0   1   3  56.375 38.7526   1
   0   1   4284132.0 7054.52   1
   0   1   5180228.0 4499.15   1
   0   1   633312.20 927.723   1
   0   1   7121489.0 2947.98   1
   0   1   830445.80 814.895   1
   0   1   9 2520.78 131.477   1
   0   1  10209725.0 5218.23   1
   0   1  1155224.40 1398.62   1
   0   1  1216966.60 496.305   1
   0   1  1331539.50 892.727   1
   0   1  1438685.50 988.237   1
   0   1  15 2491.83 130.548   1
   0   1  1689106.90 2234.12   1
   0   1  1715134.20  457.03   1
   0   1  18 4125.17 217.254   1
   0   1  1931307.60 864.733   1
   0   1  2010344.10 366.385   1
   0   1  21 181.719 159.411   1
   0   1  2212145.40 474.688   1
   0   1  23 7080.09 343.276   1
   0   1  24 4036.35 284.791   1
   0   1  25 7900.12 401.949   1
   0   1  26 250.038 206.168   1
   0   1  27 1210.31 236.255   1
   0   1  28 3138.17 304.075   1
   0   1  29 430.225 427.871   1
   0   1  30 4551.71 472.029   1
   0   1  31 3532.74 394.901   1
   0   1  32 -58.503 1040.52   1
   0   1  33 157.676 468.353   1
   0   1  34 1773.95 322.758   1
   0   2   0 641.351 131.501   1
   0   2   1 9019.10 322.401   1
   0   2   2 2525.88 145.994   1
   0   2   3 5726.69 230.656   1
   0   2   467218.50 1731.60   1
   0   2   5 7929.80  354.43   1
   0   2   6 830.137 80.3924   1
   0   2   7 9565.38 307.805   1
   0   2   8 1165.38 108.168   1
   0   2   913903.50  409.58   1
   0   2  10 129.798 68.2608   1
   0   2  11 3263.01 154.134   1
   0   2  1213766.40 426.047   1
   0   2  13 4656.13 227.511   1
   0   2  14 471.926 83.5628   1
   0   2  1512876.80 403.487   1
   0   2  16 8779.41 290.595   1
   0   2  17 2723.51  153.00   1
   0   2  18 5439.82 210.801   1
   0   2  19 651.406 137.197   1
   0   2  20 1463.79 167.888   1
   0   2  21 3544.48 238.958   1
   0   2  22 6121.85 316.569   1
   0   2  23 2160.37 230.618   1
   0   2  24-55.0602 1077.70   1
   0   2  25 993.709 266.932   1
   0   2  26 1223.17 229.262   1
   0   2  27 1540.39 265.201   1
   0   2  28 1186.21 254.267   1
   0   2  29 1716.49 451.374   1
   0   2  30  111.65 288.449   1
   0   2  31 13.6599  343.67   1
   0   2  32 57.1136 293.858   1
   0   2  33-236.693 756.207   1
   0   2  34 232.589 302.208   1
   0   3   120533.50 680.643   1
   0   3   2 4903.46 203.098   1
   0   3   314274.90 449.447   1
   0   3   4 3897.85 306.403   1
   0   3   5 8030.09 293.661   1
   0   3   611177.60 380.356   1
   0   3   7 7480.27 343.061   1
   0   3   8 4932.68  220.76   1
   0   3   910955.00 368.587   1
   0   3  1060543.80 1573.34   1
   0   3  11 9505.62 321.308   1
   0   3  12 3286.55 167.363   1
   0   3  13 7520.85 260.118   1
   0   3  14 356.645 74.8018   1
   0   3  15 162.322 82.5377   1
   0   3  16 4104.77 169.623   1
   0   3  17 903.685 97.2982   1
   0   3  18 549.105 114.765   1
   0   3  19 2666.78 169.285   1
   0   3  20 274.217 136.632   1
   0   3  21 1107.05  214.21   1
   0   3  22 849.396 271.094   1
   0   3  23 2641.66 276.756   1
   0   3  24  504.69 203.186   1
   0   3  25 1834.63 276.719   1
   0   3  26 3001.63  305.20   1
   0   3  27 440.253 218.618   1
   0   3  28 55.5185 243.855   1
   0   3  29 440.241 313.764   1
   0   3  30 973.284 327.973   1
   0   3  31 289.224 343.451   1
   0   3  32 1034.82 456.213   1
   0   3  33 460.052 340.443   1
   0   4   0280887.0 8351.37   1
   0   4   1 1795.99 172.407   1
   0   4   216500.60 581.604   1
   0   4   3 5204.51  234.22   1
   0   4   4 1920.65 156.741   1
   0   4   5 392.861 85.3998   1
   0   4   6301454.0 7640.70   1
   0   4   7 8246.28 408.775   1
   0   4   8 837.925 110.255   1
   0   4   9 181.639 111.415   1
   0   4  1015239.90 512.433   1
   0   4  11  84.896 82.8464   1
   0   4  1214405.80 481.765   1
   0   4  13  316.67 97.1964   1
   0   4  1430563.00 822.933   1
   0   4  15 587.217 94.4803   1
   0   4  16 2701.54 155.493   1
   0   4  17 3767.64 174.881   1
   0   4  1823736.30 684.995   1
   0   4  19 3006.95 183.433   1
   0   4  2031087.60 1128.39   1
   0   4  21-100.814 569.267   1
   0   4  22 208.546 292.646   1
   0   4  23 305.724 224.382   1
   0   4  24 6279.13 331.017   1
   0   4  25 1490.90 220.682   1
   0   4  2616502.70 642.735   1
   0   4  27  652.22 256.994   1
   0   4  28 106.552 261.935   1
   0   4  29 681.919 328.866   1
   0   4  30 8307.84 799.093   1
   0   4  31 113.562 303.508   1
   0   4  32 2163.70 340.324   1
   0   4  33 279.785 318.578   1
   0   5   1255526.0 6598.41   1
   0   5   240914.30 1116.20   1
   0   5   3 1385.06 112.993   1
   0   5   4112246.0 2974.49   1
   0   5   5163279.0 4280.15   1
   0   5   611439.20 513.072   1
   0   5   7152445.0 3984.71   1
   0   5   818382.30 637.479   1
   0   5   9 9038.43 420.738   1
   0   5  10102204.0 2811.30   1
   0   5  1164426.20 1733.17   1
   0   5  12 5246.14 199.755   1
   0   5  13121409.0 2979.52   1
   0   5  1460411.40 1548.70   1
   0   5  15 6644.65 240.936   1
   0   5  1645496.30 1161.69   1
   0   5  1723984.50 705.947   1
   0   5  18 948.576 173.696   1
   0   5  1946147.70 1284.91   1
   0   5  2013846.20 488.954   1
   0   5  21 4221.32 273.079   1
   0   5  22 2297.52 219.822   1
   0   5  23 2392.32 277.712   1
   0   5  24 1816.16 252.086   1
   0   5  2527918.70 907.241   1
   0   5  26 4415.87 335.366   1
   0   5  27 1788.19 290.085   1
   0   5  28 205.959  285.79   1
   0   5  29 1201.35 286.891   1
   0   5  30 1973.45 381.516   1
   0   5  31 6133.32 541.256   1
   0   5  32 45.6945 345.819   1
   0   5  33 860.686 257.366   1
   0   6   0 242.646  468.49   1
   0   6   175592.80 2074.96   1
   0   6   2 187.235 89.3259   1
   0   6   3282887.0 7090.69   1
   0   6   4 1372.72 128.374   1
   0   6   597674.80 2805.49   1
   0   6   611874.50 441.004   1
   0   6   750056.80 1439.72   1
   0   6   8 9310.44 347.715   1
   0   6   9217195.0 5775.22   1
   0   6  10 60.2523 99.9714   1
   0   6  1161041.80 1541.75   1
   0   6  1222493.50 585.542   1
   0   6  13 802.808 85.1033   1
   0   6  14 278.286 102.732   1
   0   6  15105802.0 2783.19   1
   0   6  16 6397.13 243.252   1
   0   6  1722285.90 632.438   1
   0   6  18 9096.44 367.178   1
   0   6  19 331.951  152.18   1
   0   6  20 1097.79 186.482   1
   0   6  2136988.40 1375.52   1
   0   6  22 3416.59 254.388   1
   0   6  2320730.50 772.061   1
   0   6  24 1229.87 221.597   1
   0   6  25-22.6643 731.841   1
   0   6  26  683.81 253.305   1
   0   6  2710056.20 593.503   1
   0   6  28-218.597 802.677   1
   0   6  29 7902.83 522.646   1
   0   6  30-141.028 905.088   1
   0   6  31-142.475  746.44   1
   0   6  32-66.0864 682.044   1
   0   6  33 1016.15 594.827   1
   0   7   1 8921.61 361.676   1
   0   7   267573.50 1826.52   1
   0   7   3 70.6127 98.5692   1
   0   7   417905.90 572.979   1
   0   7   514134.90 545.661   1
   0   7   6 4337.57 246.833   1
   0   7   711147.00 417.347   1
   0   7   817046.40 526.584   1
   0   7   911114.10 408.992   1
   0   7  10 1854.60 163.404   1
   0   7  11 5228.68 211.291   1
   0   7  12 773.404 103.641   1
   0   7  13 5194.98  207.68   1
   0   7  14 8765.78  306.13   1
   0   7  15 4902.10 235.357   1
   0   7  16 1775.77 193.348   1
   0   7  17 680.116  176.21   1
   0   7  18 4115.81 305.175   1
   0   7  19 4865.60 322.711   1
   0   7  20 2315.21 201.301   1
   0   7  21 1555.27 186.452   1
   0   7  22 6520.13 336.433   1
   0   7  23-11.5476 885.203   1
   0   7  24 1242.50 277.836   1
   0   7  25 2151.75 243.257   1
   0   7  26 5416.81 351.492   1
   0   7  27 1800.40  297.47   1
   0   7  28 2719.32 381.959   1
   0   7  29 332.837 292.105   1
   0   7  30 132.932  334.69   1
   0   7  31 494.804 337.537   1
   0   7  32 1904.74 444.043   1
   0   8   022550.40 1108.10   1
   0   8   1 323.391 135.065   1
   0   8   2 898.881 143.988   1
   0   8   3 1580.97 157.686   1
   0   8   425440.10 860.296   1
   0   8   5  42.535 103.381   1
   0   8   6 4184.55 206.854   1
   0   8   7 1127.17 100.928   1
   0   8   8 38.3054 68.3343   1
   0   8   9  56.786 71.1042   1
   0   8  10-53.6941 308.469   1
   0   8  11 72.9121 81.1528   1
   0   8  12 415.344 92.9249   1
   0   8  13 633.785 128.457   1
   0   8  14 1007.54 127.659   1
   0   8  15 322.028 113.407   1
   0   8  16 100.864 139.816   1
   0   8  17 117.599 127.441   1
   0   8  18 1794.13 169.344   1
   0   8  19 1152.78 195.256   1
   0   8  20 3105.97  248.52   1
   0   8  21 567.292 175.524   1
   0   8  22 3155.05 245.119   1
   0   8  23 87.0015 214.653   1
   0   8  24 1131.23 204.476   1
   0   8  25 1062.09 241.224   1
   0   8  26 2588.01 322.507   1
   0   8  27 1021.75 558.641   1
   0   8  28-440.703 802.902   1
   0   8  29-500.938 1517.00   1
   0   8  30 385.483 376.622   1
   0   8  31 746.127 521.945   1
   0   8  32 602.332 984.323   1
   0   9   126065.30 1101.64   1
   0   9   2 527.759 246.784   1
   0   9   3 7686.22 331.643   1
   0   9   432305.10 932.328   1
   0   9   512963.80 415.883   1
   0   9   6 6573.28 255.099   1
   0   9   728653.30 732.569   1
   0   9   811600.30 337.875   1
   0   9   9  330.68 78.6355   1
   0   9  1017308.60 513.967   1
   0   9  11 3155.97 152.546   1
   0   9  12 4893.19 189.326   1
   0   9  1320517.00 618.964   1
   0   9  14 8562.73 311.401   1
   0   9  15 5771.13 286.743   1
   0   9  1616095.30 494.825   1
   0   9  17 1051.53 149.835   1
   0   9  18 303.176 138.651   1
   0   9  1913163.30 478.255   1
   0   9  2011071.20 422.655   1
   0   9  21 2655.12 235.582   1
   0   9  22 328.479 205.218   1
   0   9  23 297.313  226.07   1
   0   9  24 1893.12 268.667   1
   0   9  25 3846.61 472.849   1
   0   9  26 1097.37 457.993   1
   0   9  27 1428.53 500.298   1
   0   9  28 227.894 297.494   1
   0   9  29 675.332 491.684   1
   0   9  30 1192.16 422.086   1
   0   9  31 2756.78 380.571   1
   0  10   0 1949.98 209.471   1
   0  10   154012.90 1324.97   1
   0  10   2 1138.62  86.011   1
   0  10   383469.40 2099.57   1
   0  10   4 197.153  79.692   1
   0  10   544027.30 1121.37   1
   0  10   6 2774.48 167.201   1
   0  10   713579.10 387.483   1
   0  10   8 9622.33  306.67   1
   0  10   970269.40 1909.58   1
   0  10  10 1942.22 130.738   1
   0  10  1132854.10 918.445   1
   0  10  1213067.50 396.372   1
   0  10  13 3559.77 179.983   1
   0  10  14 3857.99 198.507   1
   0  10  1543704.60 1190.81   1
   0  10  16 495.501 139.602   1
   0  10  1717173.50 550.729   1
   0  10  18 5586.81 291.593   1
   0  10  19 17.8513 176.404   1
   0  10  20  393.50 212.508   1
   0  10  2116518.90 653.653   1
   0  10  22-153.886 677.643   1
   0  10  23 8714.89  526.60   1
   0  10  24 1268.68 258.934   1
   0  10  25  209.23 256.115   1
   0  10  26 463.743 291.144   1
   0  10  27 3670.56 445.355   1
   0  10  28 530.084  316.52   1
   0  10  29 4710.74 465.613   1
   0  10  30  692.94 421.113   1
   0  11   115644.00 428.651   1
   0  11   298925.30 2394.08   1
   0  11   3 304.671 83.4778   1
   0  11   459986.10 1477.89   1
   0  11   516270.10 533.377   1
   0  11   6 1258.81 114.252   1
   0  11   7 7897.94 283.462   1
   0  11   852841.70 1360.03   1
   0  11   912018.10  370.41   1
   0  11  1035024.30 931.696   1
   0  11  1118618.40 617.336   1
   0  11  12 57.7231 140.792   1
   0  11  13 5117.36 267.394   1
   0  11  1413488.50 494.736   1
   0  11  15 2002.28 200.365   1
   0  11  1615644.10  560.41   1
   0  11  17 1029.18 182.478   1
   0  11  18 4118.58 270.866   1
   0  11  19 3803.60 274.577   1
   0  11  20 7520.72 376.148   1
   0  11  21 1943.10 235.198   1
   0  11  2216895.50 639.428   1
   0  11  23 1113.65 301.493   1
   0  11  24 1931.78  289.29   1
   0  11  25 1464.48 374.737   1
   0  11  26 2628.92 329.088   1
   0  11  27 1128.68 319.596   1
   0  11  28 6617.00 521.601   1
   0  11  29-241.806 645.712   1
   0  11  30    3.39 602.171   1
   0  12   031998.60 926.521   1
   0  12   1 1240.07 102.392   1
   0  12   2 730.363 89.0255   1
   0  12   3 6685.11 296.325   1
   0  12   4 264.131 90.2941   1
   0  12   5 1831.13 138.213   1
   0  12   613933.70 424.812   1
   0  12   7 2188.35 148.676   1
   0  12   815660.00 477.425   1
   0  12   9 4844.52 227.986   1
   0  12  10 44.7896 129.879   1
   0  12  11 308.539 134.037   1
   0  12  1232986.80 941.041   1
   0  12  13 3020.17 232.195   1
   0  12  14 6243.69 316.586   1
   0  12  15 2775.19 310.541   1
   0  12  16 3023.10 289.801   1
   0  12  17 1034.96 303.219   1
   0  12  18 7341.38 427.723   1
   0  12  19 1652.89 367.783   1
   0  12  20 3481.58 342.963   1
   0  12  21 2190.78 343.975   1
   0  12  22 292.119 271.524   1
   0  12  23-238.132 714.136   1
   0  12  24 2373.10 415.031   1
   0  12  25 35.3654 337.702   1
   0  12  26 104.116 303.855   1
   0  12  27 1078.41 397.246   1
   0  12  28 169.818 336.117   1
   0  12  29 172.726 575.715   1
   0  13   1 51.4109 110.063   1
   0  13   2 385.142 107.868   1
   0  13   3  535.42 112.789   1
   0  13   4 2008.04 138.207   1
   0  13   5 1487.67  136.04   1
   0  13   6 2137.07 204.761   1
   0  13   7 490.029 171.431   1
   0  13   8 807.137 168.413   1
   0  13   9 1467.80  144.90   1
   0  13  10 8994.78 461.414   1
   0  13  11 357.606 170.948   1
   0  13  12 265.358 147.407   1
   0  13  13-82.9128 703.043   1
   0  13  14 3666.53 308.518   1
   0  13  15 186.707 318.284   1
   0  13  16 251.725 238.535   1
   0  13  17 1063.69 303.279   1
   0  13  18 289.692 284.771   1
   0  13  19 361.527 262.656   1
   0  13  20 637.881 268.515   1
   0  13  21 1444.88 301.795   1
   0  13  22 726.323 328.769   1
   0  13  23 539.852 312.114   1
   0  13  24 538.781 337.943   1
   0  13  25-437.969 719.632   1
   0  13  26-117.454  868.49   1
   0  13  27 404.161 274.362   1
   0  13  28-38.1866 2000.56   1
   0  14   0 2864.51 198.891   1
   0  14   110515.70  339.66   1
   0  14   2 1508.33 164.632   1
   0  14   3 3611.10 195.898   1
   0  14   4 739.034 217.495   1
   0  14   5 9326.50 340.513   1
   0  14   6 419.873 145.268   1
   0  14   7 783.349 194.857   1
   0  14   8 2942.19 204.367   1
   0  14   9 3945.42 246.831   1
   0  14  10-166.429 665.825   1
   0  14  11 7007.20 318.744   1
   0  14  12 828.049 177.492   1
   0  14  13 937.629 204.928   1
   0  14  14 1219.59 245.105   1
   0  14  15 1737.39 272.452   1
   0  14  16-201.682 704.419   1
   0  14  17 5765.65 378.183   1
   0  14  18 887.965 254.076   1
   0  14  19 383.265  254.95   1
   0  14  20  218.12  291.81   1
   0  14  21 2226.05 311.757   1
   0  14  22 480.174  280.69   1
   0  14  23 2178.46 364.731   1
   0  14  24 586.992 364.629   1
   0  14  25 73.3108 272.111   1
   0  14  26 62.8288  263.52   1
   0  14  27-273.178 658.954   1
   0  15   1 3679.34 226.046   1
   0  15   225431.60 735.715   1
   0  15   3 1874.34 190.881   1
   0  15   418176.80 604.627   1
   0  15   5 7228.34  376.55   1
   0  15   6 167.696 223.363   1
   0  15   7 2544.40 217.723   1
   0  15   814212.70 517.171   1
   0  15   9 553.713 169.239   1
   0  15  1010452.70 421.673   1
   0  15  11 4546.21 375.874   1
   0  15  12 925.374 217.538   1
   0  15  13 1405.68 244.771   1
   0  15  14 1318.35 336.337   1
   0  15  15 1583.91  316.23   1
   0  15  16 9439.55 694.877   1
   0  15  17 1946.87 302.634   1
   0  15  18 3837.90 460.457   1
   0  15  19 1310.22 302.019   1
   0  15  20 1050.84  307.92   1
   0  15  21 616.691 311.575   1
   0  15  22 6912.87 506.908   1
   0  15  23-130.671  712.60   1
   0  15  24 2287.54 476.654   1
   0  15  25-236.943 639.182   1
   0  16   012761.90 630.571   1
   0  16   1 947.824 192.702   1
   0  16   2 8565.13 373.539   1
   0  16   3 4901.57 355.599   1
   0  16   4 1195.09 208.539   1
   0  16   5 642.337 191.618   1
   0  16   636865.90 1147.11   1
   0  16   7 769.783 233.357   1
   0  16   810644.60  438.62   1
   0  16   9 3040.35  259.31   1
   0  16  10 2535.09 269.304   1
   0  16  11 2470.55 285.302   1
   0  16  1212560.50 534.445   1
   0  16  13 1293.41 273.693   1
   0  16  1414728.70 620.334   1
   0  16  15 1293.10 313.552   1
   0  16  16 3049.56 362.594   1
   0  16  17 1702.35 460.564   1
   0  16  1811399.80 588.607   1
   0  16  19 192.542 280.205   1
   0  16  20 2780.42 376.489   1
   0  16  21 1161.84 309.157   1
   0  16  22 415.225 281.969   1
   0  16  23 298.238 260.628   1
   0  16  24 1544.15 295.305   1
   0  17   1 9316.13 400.598   1
   0  17   2 2115.33 271.637   1
   0  17   3-128.963 751.632   1
   0  17   4 272.603 210.596   1
   0  17   5 6454.44 402.401   1
   0  17   6 480.581 208.516   1
   0  17   7 5494.17 361.968   1
   0  17   8 47.3537 217.139   1
   0  17   9 286.471 347.414   1
   0  17  10 419.692 250.525   1
   0  17  11 4568.60 339.186   1
   0  17  12 176.005 240.516   1
   0  17  13 7927.12 464.306   1
   0  17  14  413.96 277.516   1
   0  17  15 1197.13 326.966   1
   0  17  16-104.124 779.556   1
   0  17  17 2415.30 385.238   1
   0  17  18 1457.27 328.753   1
   0  17  19 2008.79 342.983   1
   0  17  20 300.702  340.10   1
   0  17  21-87.4321 897.972   1
   0  17  22-5.02198 619.213   1
   0  17  23 1370.80 775.559   1
   0  18   0 2581.15 370.332   1
   0  18   1 309.008  302.39   1
   0  18   2-316.047 608.131   1
   0  18   3 69.6706 216.448   1
   0  18   4 1028.65 223.432   1
   0  18   5 954.726 266.609   1
   0  18   6 3258.27 281.033   1
   0  18   7 127.419  226.12   1
   0  18   8-323.804 746.726   1
   0  18   9 377.241 342.894   1
   0  18  10  294.64 260.024   1
   0  18  11 183.668 248.381   1
   0  18  12-46.7276 1052.80   1
   0  18  13-235.251 819.045   1
   0  18  14-55.1225 944.539   1
   0  18  15 387.654 300.116   1
   0  18  16 649.791 304.967   1
   0  18  17  256.98 291.427   1
   0  18  18 616.697  301.87   1
   0  18  19-235.128 905.936   1
   0  18  20 163.228 265.272   1
   0  18  21 398.293 395.159   1
   0  19   1 1141.11 278.068   1
   0  19   2 1356.73 383.392   1
   0  19   3 167.773 223.674   1
   0  19   4 946.774 274.385   1
   0  19   5 829.447 321.475   1
   0  19   6 168.561  269.19   1
   0  19   7 783.161  293.79   1
   0  19   8 645.326  276.41   1
   0  19   9 27.3672 333.668   1
   0  19  10 311.577 286.397   1
   0  19  11 398.988  258.87   1
   0  19  12  127.57 458.243   1
   0  19  13 1716.36 317.903   1
   0  19  14 426.845 343.203   1
   0  19  15 -404.87 731.002   1
   0  19  16-351.116 746.229   1
   0  19  17 -25.593 899.299   1
   0  19  18 462.377 357.566   1
   0  19  19 -207.43  663.05   1
   0  20   0 2381.01 479.797   1
   0  20   1 138.509 331.045   1
   0  20   2 450.713 303.036   1
   0  20   3 738.264 276.409   1
   0  20   4 584.849 270.555   1
   0  20   5 100.296 458.379   1
   0  20   6 2121.82 312.347   1
   0  20   7 152.593 323.302   1
   0  20   8 3819.63 347.262   1
   0  20   9-265.096 728.482   1
   0  20  10 552.624 355.698   1
   0  20  11 1391.61 313.778   1
   0  20  12 2838.35 373.128   1
   0  20  13-124.583 1028.16   1
   0  20  14 2176.22 377.814   1
   0  20  15 1152.45 480.222   1
   0  20  16 840.994 358.102   1
   0  21   1 5498.28 516.878   1
   0  21   2-239.733 757.687   1
   0  21   3 104.788 364.558   1
   0  21   4 969.627  341.12   1
   0  21   5 3811.48 433.392   1
   0  21   6 81.9175 311.464   1
   0  21   7 7584.12 564.051   1
   0  21   8 480.577 391.772   1
   0  21   9-251.445 675.476   1
   0  21  10-26.3237 752.938   1
   0  21  11 1673.52 344.636   1
   0  21  12 432.674 386.592   1
   0  21  13 4961.50 806.434   1
   0  22   0 2426.48 681.703   1
   0  22   1 2356.01 472.613   1
   0  22   2 308.018 326.519   1
   0  22   3 2378.61 659.323   1
   0  22   4 1411.06 639.218   1
   0  22   5 1542.81 407.203   1
   0  22   6 1837.40 438.997   1
   0  22   7-4.31225 683.083   1
   0  22   8 89.6374 270.324   1
   0  22   9 1647.52 543.136   1
   1   0   1 204.195  33.329   1
   1   0   2 6272.34 197.183   1
   1   0   3 529.301 97.3468   1
   1   0   4  460.14 70.4445   1
   1   0   5 2175.90 123.244   1
   1   0   6 1195.88  92.404   1
   1   0   711153.60 336.903   1
   1   0   8 333.849  72.666   1
   1   0   9 2919.20 170.909   1
   1   0  1038469.10 1003.79   1
   1   0  11 3860.33 180.036   1
   1   0  12 110.186 85.9045   1
   1   0  13 2842.98  168.35   1
   1   0  14 615.203 85.9815   1
   1   0  1512367.60 372.273   1
   1   0  16 3027.18  148.28   1
   1   0  17 127.221 97.9121   1
   1   0  18 4716.11 234.169   1
   1   0  19 2694.41 236.546   1
   1   0  20 3810.85 216.694   1
   1   0  21 921.653 200.715   1
   1   0  22 49.6431 155.021   1
   1   0  23 567.007 183.134   1
   1   0  24 2040.32 231.175   1
   1   0  25 318.599 212.158   1
   1   0  26 404.158 224.087   1
   1   0  27 896.918 309.983   1
   1   0  28-47.0137 881.926   1
   1   0  29 -335.01 816.819   1
   1   0  30 329.595 357.702   1
   1   0  31 106.964 488.909   1
   1   0  32  211.36 532.747   1
   1   0  33 660.208 300.634   1
   1   0  34-77.9131  912.24   1
   1   1 -34 866.188 362.906   1
   1   1 -33 1287.23 360.176   1
   1   1 -32 880.467 390.025   1
   1   1 -31 460.661 335.615   1
   1   1 -30 1070.29 497.411   1
   1   1 -29 320.138 307.096   1
   1   1 -28 2569.28 350.482   1
   1   1 -27 2577.07 285.557   1
   1   1 -26 1125.58 243.673   1
   1   1 -25 2675.63 276.011   1
   1   1 -24 345.932 226.656   1
   1   1 -23 1529.11 186.844   1
   1   1 -22 4664.11 278.164   1
   1   1 -21 4518.54 274.009   1
   1   1 -20 5760.77 371.328   1
   1   1 -19 7190.84 294.803   1
   1   1 -18 1255.91 149.593   1
   1   1 -17 9612.28  400.98   1
   1   1 -1614271.70  420.27   1
   1   1 -1510615.10 344.552   1
   1   1 -14 2052.89 146.022   1
   1   1 -1340921.30 1124.09   1
   1   1 -1228769.30 871.564   1
   1   1 -1119135.80 634.585   1
   1   1 -1031763.70 833.174   1
   1   1  -953695.10 1350.96   1
   1   1  -841073.70 1030.33   1
   1   1  -726975.10 801.763   1
   1   1  -6 9249.24 286.509   1
   1   1  -5 5901.97 214.725   1
   1   1  -450076.70 1246.31   1
   1   1  -346455.10 1185.14   1
   1   1  -2 1018.33 116.773   1
   1   1  -124834.40 855.404   1
   1   1   018950.30  509.84   1
   1   1   115155.70 526.556   1
   1   1   2 3787.00 184.098   1
   1   1   347028.10 1260.94   1
   1   1   444629.50 1371.36   1
   1   1   5 2100.52 131.367   1
   1   1   6 9314.32 321.874   1
   1   1   738519.50 1006.20   1
   1   1   833400.80 1025.61   1
   1   1   958293.70 1507.56   1
   1   1  1027258.70 754.475   1
   1   1  1119526.40 587.603   1
   1   1  1230050.30  839.75   1
   1   1  1336267.00 1009.76   1
   1   1  14 1570.98 109.461   1
   1   1  1510957.00 330.009   1
   1   1  1616392.70 499.112   1
   1   1  17 9372.02 315.866   1
   1   1  18 1385.92 130.884   1
   1   1  19 9117.37 318.438   1
   1   1  20 6424.73  264.72   1
   1   1  21 3843.57 240.646   1
   1   1  22 5363.39 274.143   1
   1   1  23 1371.67 240.711   1
   1   1  24 238.449  259.38   1
   1   1  25 1014.66 218.773   1
   1   1  26 2096.38  331.08   1
   1   1  27 2735.38 336.655   1
   1   1  28 2922.66 328.284   1
   1   1  29 729.745 352.636   1
   1   1  30 291.972 290.772   1
   1   1  31 746.969 369.141   1
   1   1  32 1324.66 323.633   1
   1   1  33 2712.41 466.139   1
   1   1  34 822.318  427.24   1
   1   2 -33 2534.45 354.028   1
   1   2 -32 341.943 467.888   1
   1   2 -31-154.582 1324.91   1
   1   2 -30 267.003  265.98   1
   1   2 -2911621.50 538.673   1
   1   2 -28 4966.89 344.242   1
   1   2 -2714269.70 580.759   1
   1   2 -26 1646.66 261.501   1
   1   2 -25-69.1436 768.216   1
   1   2 -24  541.42 244.324   1
   1   2 -2328594.60 844.242   1
   1   2 -2215895.70  545.25   1
   1   2 -2137995.20 1202.18   1
   1   2 -20 1410.92 176.957   1
   1   2 -19 1738.61  238.38   1
   1   2 -18 5404.08  228.32   1
   1   2 -1747411.70 1219.66   1
   1   2 -16 3920.14 195.276   1
   1   2 -1581234.00 2019.67   1
   1   2 -14 4513.94 188.305   1
   1   2 -1310870.50 390.867   1
   1   2 -12 258.963 114.153   1
   1   2 -1166091.50 1717.15   1
   1   2 -1013477.10 409.586   1
   1   2  -9179148.0 4444.83   1
   1   2  -826986.60  749.49   1
   1   2  -799619.40 2522.94   1
   1   2  -621868.70 592.588   1
   1   2  -5176497.0 4549.17   1
   1   2  -410840.00 363.003   1
   1   2  -3354529.0 8624.52   1
   1   2  -2128799.0 3371.51   1
   1   2  -1453015.010711.10   1
   1   2   0 60.4598 55.9875   1
   1   2   1454740.012390.70   1
   1   2   2141107.0 3588.82   1
   1   2   3354062.0 8651.69   1
   1   2   413887.00 515.488   1
   1   2   5185849.0 5723.48   1
   1   2   620044.80 569.294   1
   1   2   794119.50 2370.20   1
   1   2   827136.10  731.42   1
   1   2   9185203.0 4733.74   1
   1   2  1013322.10 447.145   1
   1   2  1166396.40 1781.83   1
   1   2  12 175.355 117.432   1
   1   2  1312067.60 425.412   1
   1   2  14 7630.24 249.159   1
   1   2  1578190.20 1966.91   1
   1   2  16 5472.71 219.646   1
   1   2  1746419.00 1216.16   1
   1   2  18 3989.02  184.70   1
   1   2  19 1740.92 152.404   1
   1   2  20 2661.71  181.80   1
   1   2  2140147.60 1185.90   1
   1   2  2215274.20 530.097   1
   1   2  2328038.30 889.841   1
   1   2  24 283.842  278.99   1
   1   2  25 225.487 297.774   1
   1   2  26 3005.52  359.34   1
   1   2  2712897.50 639.173   1
   1   2  28 4911.56 476.147   1
   1   2  2910033.90 763.359   1
   1   2  30-84.2649 853.919   1
   1   2  31-685.486 841.876   1
   1   2  32 701.604 333.476   1
   1   2  33 3899.39 424.044   1
   1   3 -33 2582.79 411.879   1
   1   3 -32 700.984 369.346   1
   1   3 -31 3038.13 429.988   1
   1   3 -30 1894.15 260.573   1
   1   3 -29 2082.80 314.539   1
   1   3 -28 5748.85 362.223   1
   1   3 -27 2288.03 277.314   1
   1   3 -26 6487.97 375.064   1
   1   3 -2511141.20 487.236   1
   1   3 -24 3763.01 290.497   1
   1   3 -23 3051.47 326.716   1
   1   3 -2225779.70 780.082   1
   1   3 -21 3872.96 214.094   1
   1   3 -2019052.90 550.342   1
   1   3 -1934731.80 953.338   1
   1   3 -1816553.80 649.211   1
   1   3 -1735145.90 929.376   1
   1   3 -1658633.10 1516.16   1
   1   3 -1517751.50 502.842   1
   1   3 -1458619.60 1509.98   1
   1   3 -1399408.50 2563.47   1
   1   3 -1210719.90 364.392   1
   1   3 -1172146.50 1976.14   1
   1   3 -10184717.0 5346.24   1
   1   3  -945069.80 1179.90   1
   1   3  -8116019.0 2874.71   1
   1   3  -7140597.0 3571.86   1
   1   3  -624060.20 730.066   1
   1   3  -5122734.0 3274.72   1
   1   3  -4241098.0 6022.43   1
   1   3  -3110404.0 2800.94   1
   1   3  -2343743.0 8513.82   1
   1   3  -1176693.0 4355.92   1
   1   3   077023.50 1995.34   1
   1   3   1157273.0 3995.32   1
   1   3   2351432.0 8553.80   1
   1   3   3104230.0 2780.69   1
   1   3   4251954.0 6531.60   1
   1   3   5125006.0 3207.48   1
   1   3   621138.90 605.454   1
   1   3   7133706.0 3753.39   1
   1   3   8125127.0 3421.80   1
   1   3   942581.70 1455.73   1
   1   3  10187752.0 4975.73   1
   1   3  1180031.60 2067.95   1
   1   3  1210279.10 391.066   1
   1   3  1395238.50 2381.38   1
   1   3  1460053.60 1472.77   1
   1   3  1517096.20 499.835   1
   1   3  1656765.20 1427.16   1
   1   3  1733691.20 968.896   1
   1   3  1813647.70 495.795   1
   1   3  1935457.20 969.888   1
   1   3  2014401.60 551.323   1
   1   3  21 4187.21 314.445   1
   1   3  2222594.00 723.484   1
   1   3  23 3180.08 286.174   1
   1   3  24 4374.83 319.205   1
   1   3  2510107.60 503.071   1
   1   3  26 5522.06 384.098   1
   1   3  27 2946.21 318.045   1
   1   3  28 7823.50 440.665   1
   1   3  29 1185.67 349.095   1
   1   3  30 2048.77  313.30   1
   1   3  31 4149.17 543.226   1
   1   3  32 431.672 322.035   1
   1   3  33 2449.28 402.131   1
   1   4 -33 316.476  336.64   1
   1   4 -32 2348.29 414.982   1
   1   4 -31 714.672 282.832   1
   1   4 -30 3432.72 308.084   1
   1   4 -29 918.511 387.265   1
   1   4 -28-41.3842 808.455   1
   1   4 -27-0.67034 1039.54   1
   1   4 -2611040.50 568.763   1
   1   4 -25 4051.93 350.363   1
   1   4 -24 8338.75 444.937   1
   1   4 -23 3542.21 261.199   1
   1   4 -22 294.768 175.042   1
   1   4 -21 1310.94 150.214   1
   1   4 -2017948.10 532.047   1
   1   4 -1910529.30 378.131   1
   1   4 -1822247.00  619.34   1
   1   4 -17 4721.68 232.594   1
   1   4 -16 9725.83 315.815   1
   1   4 -15 3312.27 161.331   1
   1   4 -1451515.00 1304.20   1
   1   4 -1318006.70 505.762   1
   1   4 -1235057.70 964.731   1
   1   4 -11 3109.03 222.745   1
   1   4 -1025295.10 782.549   1
   1   4  -9 3649.79 151.385   1
   1   4  -855817.00 1462.54   1
   1   4  -714263.40 452.729   1
   1   4  -6141077.0 3640.42   1
   1   4  -511163.90 357.323   1
   1   4  -433582.70 929.581   1
   1   4  -313371.90 494.342   1
   1   4  -269419.10 1691.10   1
   1   4  -146344.40 1145.95   1
   1   4   080652.80 2047.35   1
   1   4   152407.90 1563.47   1
   1   4   258705.60 1601.95   1
   1   4   314090.30  548.06   1
   1   4   433859.40 967.088   1
   1   4   512864.60 428.781   1
   1   4   6135615.0 3644.16   1
   1   4   715324.60 472.389   1
   1   4   849764.90 1381.08   1
   1   4   9 2663.03 180.917   1
   1   4  1024225.20 797.424   1
   1   4  11 2231.90 256.453   1
   1   4  1234542.60 1365.20   1
   1   4  1317996.40 494.655   1
   1   4  1452123.60 1322.52   1
   1   4  15 3533.58 171.137   1
   1   4  16 9041.58 353.589   1
   1   4  17 4312.99 229.856   1
   1   4  1827303.10 774.689   1
   1   4  19 9061.87 350.801   1
   1   4  2018191.40 609.815   1
   1   4  21 1388.41 175.063   1
   1   4  22 83.9079 185.173   1
   1   4  23 3206.28 333.357   1
   1   4  24 8337.89 443.757   1
   1   4  25 3572.25 327.677   1
   1   4  26 9243.45 468.126   1
   1   4  27 543.452 347.135   1
   1   4  28-60.2947 788.867   1
   1   4  29 509.412 301.231   1
   1   4  30 3254.54 360.413   1
   1   4  31 804.568 420.107   1
   1   4  32 1096.80 464.732   1
   1   4  33  81.242 254.891   1
   1   5 -33-1575.45 756.749   1
   1   5 -32 396.826 307.432   1
   1   5 -31 549.071 430.971   1
   1   5 -30 276.316 258.466   1
   1   5 -29 2037.88 339.952   1
   1   5 -28 307.451 227.728   1
   1   5 -27 147.017 279.584   1
   1   5 -26 756.245 267.501   1
   1   5 -25 3019.78 292.054   1
   1   5 -24 3247.91 433.252   1
   1   5 -23 435.994 214.285   1
   1   5 -22 1230.21 224.166   1
   1   5 -21 425.651 182.847   1
   1   5 -20 855.192 209.911   1
   1   5 -19 559.149 158.275   1
   1   5 -18 2297.15 171.198   1
   1   5 -17 181.661 110.381   1
   1   5 -16 569.904 97.1474   1
   1   5 -15 1195.97 114.124   1
   1   5 -14 1406.52 125.114   1
   1   5 -13 335.821 89.7186   1
   1   5 -12 1538.98  133.82   1
   1   5 -11 79.6921  122.44   1
   1   5 -10 1285.90 126.794   1
   1   5  -9 6794.34 270.593   1
   1   5  -8 2492.11 190.015   1
   1   5  -7 3277.93 203.938   1
   1   5  -6 695.781 88.2979   1
   1   5  -5 1083.90 92.2689   1
   1   5  -446003.90 1742.12   1
   1   5  -3 2183.03 135.516   1
   1   5  -2 4734.67 186.631   1
   1   5  -1 5121.53 193.339   1
   1   5   0 2862.38 164.777   1
   1   5   1 4439.93 195.223   1
   1   5   2 4384.51 219.566   1
   1   5   3 2242.95 150.946   1
   1   5   447212.20 1235.79   1
   1   5   5 1298.98  91.511   1
   1   5   6 478.336 91.0743   1
   1   5   7 3627.92 179.115   1
   1   5   8 3124.82  191.31   1
   1   5   9 6631.61 301.297   1
   1   5  10 2341.46 230.224   1
   1   5  11  817.58 152.265   1
   1   5  12 916.903 108.627   1
   1   5  13 210.463 90.4954   1
   1   5  14 1179.28 124.686   1
   1   5  15 1073.52 103.353   1
   1   5  16 736.201 115.422   1
   1   5  17 159.805 109.699   1
   1   5  18 1370.36 155.293   1
   1   5  19 889.841 161.175   1
   1   5  20 1269.26 168.665   1
   1   5  21 225.286 174.757   1
   1   5  22 597.371 197.615   1
   1   5  23 171.149 200.796   1
   1   5  24 3532.58 280.096   1
   1   5  25 2097.46  275.96   1
   1   5  26 715.816 242.961   1
   1   5  27 422.873 261.846   1
   1   5  28 229.737 286.362   1
   1   5  29 2110.53 331.476   1
   1   5  30 557.872 306.648   1
   1   5  31 948.696  454.35   1
   1   5  32 164.038 265.176   1
   1   5  33-46.9554 693.603   1
   1   6 -32 524.989  274.62   1
   1   6 -31 608.357 277.198   1
   1   6 -30 462.594 392.054   1
   1   6 -29 2669.76 310.695   1
   1   6 -28 1673.73 351.225   1
   1   6 -27 2794.60  314.82   1
   1   6 -26 800.849 215.655   1
   1   6 -25 1170.16 216.719   1
   1   6 -24 1430.78  205.55   1
   1   6 -23 7371.20 360.585   1
   1   6 -22 3200.31 288.232   1
   1   6 -21 4675.86 266.129   1
   1   6 -20 1001.61 155.298   1
   1   6 -19 2261.47 184.719   1
   1   6 -18 1690.33 182.817   1
   1   6 -17 9636.42 348.563   1
   1   6 -16 2509.17 148.833   1
   1   6 -15 6643.48 239.995   1
   1   6 -14 178.075 84.4648   1
   1   6 -13 1660.10 108.311   1
   1   6 -12 530.518 87.5966   1
   1   6 -11 5697.09 247.202   1
   1   6 -10 274.763  151.18   1
   1   6  -921557.30 875.552   1
   1   6  -8 8830.58 366.505   1
   1   6  -713547.50 454.108   1
   1   6  -6 7699.91 306.095   1
   1   6  -514307.90 482.909   1
   1   6  -415530.70 553.934   1
   1   6  -349751.60 1664.21   1
   1   6  -232496.60 1091.16   1
   1   6  -113918.60 470.764   1
   1   6   0 2701.58 174.461   1
   1   6   115800.30 488.664   1
   1   6   231378.40 886.365   1
   1   6   355833.30 1460.35   1
   1   6   414545.30 463.292   1
   1   6   513589.30 452.998   1
   1   6   6 6677.62 231.027   1
   1   6   712210.70 398.456   1
   1   6   8 7614.44 303.074   1
   1   6   918795.10 577.806   1
   1   6  10 1076.30  154.58   1
   1   6  11 4201.90 184.042   1
   1   6  12 290.513 80.5686   1
   1   6  13 2144.50 125.114   1
   1   6  14-74.7138 352.787   1
   1   6  15 7096.18 246.582   1
   1   6  16 2096.66 152.713   1
   1   6  17 9278.38 333.352   1
   1   6  18 2102.78  152.98   1
   1   6  19 2052.40 166.047   1
   1   6  20 1750.23 169.531   1
   1   6  21 5368.93 294.431   1
   1   6  22 2499.68 261.544   1
   1   6  23 7202.90 455.828   1
   1   6  24 1430.20 264.399   1
   1   6  25 2028.42 333.774   1
   1   6  26 547.393 492.422   1
   1   6  27 2439.04 342.215   1
   1   6  28 1635.59 367.241   1
   1   6  29 1467.16 357.284   1
   1   6  30 291.945 409.631   1
   1   6  31-102.115 828.478   1
   1   6  32 19.3037 252.861   1
   1   7 -32 369.934 269.901   1
   1   7 -31 1054.71  337.95   1
   1   7 -30 2139.78 378.965   1
   1   7 -29-93.5407 739.554   1
   1   7 -28 5803.47 396.259   1
   1   7 -27 259.085 354.702   1
   1   7 -26 1429.24 234.062   1
   1   7 -25 3168.78 261.257   1
   1   7 -24 7565.45 357.481   1
   1   7 -23 2348.52  289.69   1
   1   7 -22 8480.91 374.638   1
   1   7 -21 312.071  167.62   1
   1   7 -20 7454.04 330.253   1
   1   7 -1911190.20 408.644   1
   1   7 -1812307.90  526.56   1
   1   7 -1710973.50 376.281   1
   1   7 -1643449.30 1133.44   1
   1   7 -15 2881.64 162.889   1
   1   7 -1417184.40  480.67   1
   1   7 -1334337.60 885.311   1
   1   7 -1220331.80 553.744   1
   1   7 -1119915.90 569.667   1
   1   7 -1037534.10 964.577   1
   1   7  -914492.30 438.524   1
   1   7  -858026.60 1697.30   1
   1   7  -731382.00 949.277   1
   1   7  -6 3163.78 233.828   1
   1   7  -522554.80 728.582   1
   1   7  -4101417.0 3368.65   1
   1   7  -323086.90 696.015   1
   1   7  -242997.70 1414.16   1
   1   7  -128801.60 852.432   1
   1   7   0 4073.88 222.111   1
   1   7   123074.60 725.726   1
   1   7   251517.20 1458.46   1
   1   7   320142.00 696.182   1
   1   7   495145.60 2684.05   1
   1   7   525124.70 796.267   1
   1   7   6 4516.24 189.376   1
   1   7   730609.00 866.085   1
   1   7   865218.90 1878.77   1
   1   7   912567.00 354.443   1
   1   7  1039546.70 990.105   1
   1   7  1120376.20 531.888   1
   1   7  1219173.80 586.412   1
   1   7  1331593.20 811.383   1
   1   7  1420566.40 550.588   1
   1   7  15 3513.80 165.171   1
   1   7  1640139.60 1048.57   1
   1   7  1712972.50 410.345   1
   1   7  1811851.90 400.422   1
   1   7  1911996.20 413.051   1
   1   7  20 5442.92 268.986   1
   1   7  21 2127.11 206.279   1
   1   7  22 8637.94 406.673   1
   1   7  23 1022.94 251.947   1
   1   7  24 7593.11 476.987   1
   1   7  25 3332.60 355.792   1
   1   7  26 1644.00 331.837   1
   1   7  27 746.038 320.485   1
   1   7  28 4714.21 562.104   1
   1   7  29 251.151 461.947   1
   1   7  30 3023.61 402.778   1
   1   7  31 505.434 354.087   1
   1   7  32 702.242 310.716   1
   1   8 -31 200.767 306.225   1
   1   8 -30 5117.46 487.345   1
   1   8 -29 473.089 376.432   1
   1   8 -28 23.8065 458.473   1
   1   8 -27 858.311 258.143   1
   1   8 -26 8914.88 547.833   1
   1   8 -25 1243.91 194.452   1
   1   8 -2413906.30 512.054   1
   1   8 -23 1738.78 217.766   1
   1   8 -22 102.857 179.185   1
   1   8 -21 1615.89 233.395   1
   1   8 -2025788.80  833.10   1
   1   8 -19 7551.54 319.528   1
   1   8 -1826593.00 1072.53   1
   1   8 -17 2768.28 177.671   1
   1   8 -16 9226.65  339.87   1
   1   8 -15 8362.43 316.853   1
   1   8 -1447957.50 1401.89   1
   1   8 -13 9197.05 350.574   1
   1   8 -1280411.80 1993.10   1
   1   8 -1114424.10 455.644   1
   1   8 -1025276.10 660.002   1
   1   8  -910201.60 298.615   1
   1   8  -865154.80 1668.37   1
   1   8  -711259.70  368.81   1
   1   8  -6165558.0 4482.41   1
   1   8  -5 7984.33 522.695   1
   1   8  -438239.30 1451.34   1
   1   8  -3 6162.22  339.51   1
   1   8  -248064.60 1355.62   1
   1   8  -1 9746.08 690.782   1
   1   8   0231520.0 6505.32   1
   1   8   110483.30 461.476   1
   1   8   242742.30 1215.27   1
   1   8   3 6384.36 307.995   1
   1   8   437855.40 1730.18   1
   1   8   5 7514.55 378.685   1
   1   8   6154721.0 4178.87   1
   1   8   713120.20 411.229   1
   1   8   858196.00 1465.26   1
   1   8   9 8023.56 242.557   1
   1   8  1022562.40 573.566   1
   1   8  1117876.00 494.115   1
   1   8  1278962.00 2132.57   1
   1   8  13 8008.13 258.655   1
   1   8  1454447.70 1372.29   1
   1   8  15 8076.16 336.864   1
   1   8  16 8614.37 365.758   1
   1   8  17 2899.99 191.944   1
   1   8  1828531.50 831.388   1
   1   8  19 5705.93 285.036   1
   1   8  2025250.90 1053.39   1
   1   8  21 1440.91 289.736   1
   1   8  22 601.276 349.785   1
   1   8  23 1759.94 284.505   1
   1   8  2414346.00  723.43   1
   1   8  25 954.273 306.386   1
   1   8  26 8922.43 517.787   1
   1   8  27 1233.63 338.888   1
   1   8  28 750.958 389.088   1
   1   8  29 398.989 456.991   1
   1   8  30 3670.89 543.374   1
   1   8  31 28.6567 290.996   1
   1   9 -31 2617.57 460.877   1
   1   9 -30 2112.92 391.786   1
   1   9 -29 2979.48 411.406   1
   1   9 -28  466.88 326.532   1
   1   9 -27 199.024 303.808   1
   1   9 -26 1620.11 274.486   1
   1   9 -25 7429.53 389.842   1
   1   9 -24 4274.37 309.408   1
   1   9 -23 5855.90 318.708   1
   1   9 -22 5757.27 338.933   1
   1   9 -21 1602.66 270.032   1
   1   9 -20 3024.02 269.397   1
   1   9 -1915186.10 531.695   1
   1   9 -18 3626.06 240.482   1
   1   9 -17 6857.53 312.765   1
   1   9 -16 8616.21 340.065   1
   1   9 -15-99.9316 465.039   1
   1   9 -14 3207.47 187.664   1
   1   9 -1320003.80 582.907   1
   1   9 -12 2787.03 188.207   1
   1   9 -1129319.40 768.956   1
   1   9 -1037609.00 959.158   1
   1   9  -9 450.051 88.2529   1
   1   9  -8 1862.90 126.655   1
   1   9  -736224.90 1041.24   1
   1   9  -6 9712.87 307.216   1
   1   9  -566885.90 1651.97   1
   1   9  -424235.50 656.793   1
   1   9  -3 1352.23 157.534   1
   1   9  -228442.80 987.401   1
   1   9  -176685.80 2264.76   1
   1   9   021246.70 770.038   1
   1   9   175664.50 2444.06   1
   1   9   227317.20 894.302   1
   1   9   3  887.00 113.264   1
   1   9   429407.60  854.96   1
   1   9   565820.40 1684.61   1
   1   9   610225.60 335.126   1
   1   9   737755.80 970.601   1
   1   9   8 1572.64 117.305   1
   1   9   9 115.432 78.9831   1
   1   9  1038314.90 1147.19   1
   1   9  1127434.90  790.65   1
   1   9  12 2522.34 160.273   1
   1   9  1316805.70  508.47   1
   1   9  14 3366.22 176.204   1
   1   9  15 470.418 137.101   1
   1   9  16 6490.73 289.043   1
   1   9  1710048.20  535.53   1
   1   9  18 2976.74 217.509   1
   1   9  1915020.20 537.282   1
   1   9  20 2960.47 344.439   1
   1   9  21 1405.96 230.668   1
   1   9  22 5068.92 358.833   1
   1   9  23 4815.07 403.483   1
   1   9  24 3736.61 347.015   1
   1   9  25 7004.59  629.01   1
   1   9  26 1848.76 410.869   1
   1   9  27 191.126 357.309   1
   1   9  28 646.032 488.866   1
   1   9  29 2209.77  398.49   1
   1   9  30 3016.47 427.617   1
   1   9  31 2840.03 438.808   1
   1  10 -30 64.9558 298.854   1
   1  10 -29 660.507  317.44   1
   1  10 -28-63.4521 693.829   1
   1  10 -27-51.1477 737.318   1
   1  10 -26 133.456 257.046   1
   1  10 -25 102.749 289.746   1
   1  10 -24 1586.50 374.013   1
   1  10 -23 49.8644 255.148   1
   1  10 -22 1450.02 211.944   1
   1  10 -21 1871.91 260.075   1
   1  10 -20 109.081  179.04   1
   1  10 -19 969.948 188.686   1
   1  10 -18 1071.22 195.344   1
   1  10 -17 3449.36 224.547   1
   1  10 -16 2366.96 229.589   1
   1  10 -15 3865.23 228.234   1
   1  10 -14 3245.49 232.173   1
   1  10 -13 2002.06 142.539   1
   1  10 -12 1751.31  139.08   1
   1  10 -11 6596.14 244.444   1
   1  10 -1014266.80 417.588   1
   1  10  -9 3814.86 170.537   1
   1  10  -8 185.025 84.4754   1
   1  10  -7 479.048  81.283   1
   1  10  -6 1676.51 120.644   1
   1  10  -511314.00 435.062   1
   1  10  -4 1545.24 115.165   1
   1  10  -3 194.857 89.0229   1
   1  10  -2 902.115 88.2619   1
   1  10  -1 2250.70 127.691   1
   1  10   0 1413.94 120.994   1
   1  10   1 2853.09 134.391   1
   1  10   2 522.719 93.3728   1
   1  10   3 47.2368 74.9909   1
   1  10   4 1085.28 108.081   1
   1  10   510598.90 328.242   1
   1  10   6 2754.24 134.649   1
   1  10   7 335.203 86.8607   1
   1  10   8 214.292 97.1704   1
   1  10   9 3404.98 156.151   1
   1  10  1015838.80 517.846   1
   1  10  11 6313.10 250.471   1
   1  10  12 2366.61 227.582   1
   1  10  13 2399.31 175.122   1
   1  10  14 2890.77 234.762   1
   1  10  15 3666.62 240.278   1
   1  10  16 2193.21 207.081   1
   1  10  17 3420.24  248.43   1
   1  10  18 625.393 176.316   1
   1  10  19 1408.63 286.828   1
   1  10  20 350.191 204.053   1
   1  10  21 1441.77 231.563   1
   1  10  22 2596.81 283.012   1
   1  10  23 132.018 254.344   1
   1  10  24 807.064 395.096   1
   1  10  25 502.537 291.908   1
   1  10  26-70.3788 799.347   1
   1  10  27 427.742  406.10   1
   1  10  28 489.554 312.115   1
   1  10  29 779.277 480.909   1
   1  10  30 374.274 483.345   1
   1  11 -29 168.471  462.57   1
   1  11 -28 699.462 440.147   1
   1  11 -27-369.987 763.536   1
   1  11 -26 200.149 263.629   1
   1  11 -25 306.118 252.009   1
   1  11 -24  675.24 287.464   1
   1  11 -23 1177.79 338.341   1
   1  11 -22 2068.76 288.768   1
   1  11 -21  14.818 202.195   1
   1  11 -20  41.973 184.921   1
   1  11 -19 1995.80 229.755   1
   1  11 -18 4886.83  266.58   1
   1  11 -17 1083.69 209.507   1
   1  11 -16 1642.58 200.002   1
   1  11 -15  486.33 157.578   1
   1  11 -14 3124.00 194.894   1
   1  11 -13 3941.00 204.987   1
   1  11 -12 3133.50 196.996   1
   1  11 -11 2898.89 192.058   1
   1  11 -10 6977.72  258.64   1
   1  11  -9 3334.61 165.225   1
   1  11  -8 4113.58 214.624   1
   1  11  -7 3869.91  222.36   1
   1  11  -6 1141.89 103.857   1
   1  11  -5 279.803 86.5654   1
   1  11  -4 2279.61 127.331   1
   1  11  -3 2167.28 122.383   1
   1  11  -2 9505.44 278.603   1
   1  11  -1  318.23 73.5356   1
   1  11   0 2646.94 128.499   1
   1  11   1 56.2509 73.7844   1
   1  11   210466.90 300.383   1
   1  11   3 2270.92 123.794   1
   1  11   4 3135.68 145.481   1
   1  11   5 379.816 102.538   1
   1  11   6 1752.95 124.612   1
   1  11   7 4496.40 197.157   1
   1  11   8 4980.63  205.18   1
   1  11   9 2776.90 174.285   1
   1  11  10 5892.82 261.884   1
   1  11  11 2512.17  174.17   1
   1  11  12 3342.35 207.122   1
   1  11  13 3863.88 256.443   1
   1  11  14 2503.24 238.421   1
   1  11  15 381.533 195.007   1
   1  11  16 1231.31 197.523   1
   1  11  17 1064.27 301.582   1
   1  11  18 4328.43 312.575   1
   1  11  19 2638.43 262.553   1
   1  11  20 397.919 338.594   1
   1  11  21 318.578 216.294   1
   1  11  22 1723.23 247.225   1
   1  11  23 507.738 344.775   1
   1  11  24 1482.64 309.977   1
   1  11  25  302.13 297.045   1
   1  11  26 165.959 328.809   1
   1  11  27 379.491 362.232   1
   1  11  28  252.71 412.741   1
   1  11  29-191.528 845.174   1
   1  12 -29 588.481 676.845   1
   1  12 -28 126.509 411.516   1
   1  12 -27 418.558 323.663   1
   1  12 -26 2836.12 392.844   1
   1  12 -25 467.495 290.432   1
   1  12 -24 2487.44 356.673   1
   1  12 -23 1885.34 401.475   1
   1  12 -22 402.932 302.581   1
   1  12 -21 1746.61 448.565   1
   1  12 -20 8694.09 433.448   1
   1  12 -19 1603.13 290.665   1
   1  12 -18 7320.93 360.716   1
   1  12 -17 2881.18 272.531   1
   1  12 -16 1035.07 193.342   1
   1  12 -15 1724.59 196.978   1
   1  12 -1411012.00 414.089   1
   1  12 -13 3422.74 227.851   1
   1  12 -1222271.60 647.976   1
   1  12 -11 8736.39 334.166   1
   1  12 -10 1390.85 147.734   1
   1  12  -9 4494.79 219.884   1
   1  12  -812140.80 414.569   1
   1  12  -7 4449.32 226.471   1
   1  12  -640538.90 1241.84   1
   1  12  -5 4530.61 241.355   1
   1  12  -4 3146.34 181.954   1
   1  12  -3 3761.51 180.717   1
   1  12  -211701.40 349.553   1
   1  12  -1 8842.33 283.613   1
   1  12   056369.70 1413.95   1
   1  12   111367.30 358.333   1
   1  12   2 8027.43 274.556   1
   1  12   3 2530.12 161.484   1
   1  12   4 2129.23 137.438   1
   1  12   5 4700.03 213.159   1
   1  12   637560.30 985.844   1
   1  12   7 5405.75 231.337   1
   1  12   810941.70 362.081   1
   1  12   9 6046.53 301.205   1
   1  12  10 1086.44 148.701   1
   1  12  11 8174.06 372.575   1
   1  12  1220977.30  662.88   1
   1  12  13 3635.79  234.51   1
   1  12  1412742.60 533.151   1
   1  12  15 927.975 236.284   1
   1  12  16 841.772 224.462   1
   1  12  17 2903.44 282.609   1
   1  12  18 8428.89 437.513   1
   1  12  19 1052.41 245.164   1
   1  12  2010040.10 748.986   1
   1  12  21 2543.76  302.94   1
   1  12  22 910.818 285.267   1
   1  12  23 1458.34 267.666   1
   1  12  24 2988.94 308.831   1
   1  12  25  417.45 298.136   1
   1  12  26 3129.20 488.042   1
   1  12  27 231.767 327.488   1
   1  12  28 1367.88 468.965   1
   1  12  29 540.538 492.599   1
   1  13 -28 307.891  455.66   1
   1  13 -27 1879.87 451.258   1
   1  13 -26 346.156 292.452   1
   1  13 -25 6691.65 498.832   1
   1  13 -24 715.227 351.374   1
   1  13 -23 2805.45 340.164   1
   1  13 -22 1983.17 325.161   1
   1  13 -21 2962.60 322.069   1
   1  13 -20 3159.25 361.557   1
   1  13 -1911972.30 545.734   1
   1  13 -18 570.169 238.578   1
   1  13 -17 5731.63 403.576   1
   1  13 -16 7484.10 373.602   1
   1  13 -15 1959.89 307.464   1
   1  13 -14  543.23 259.563   1
   1  13 -1318173.60 765.856   1
   1  13 -12 345.297 159.845   1
   1  13 -1117689.70  584.40   1
   1  13 -1015488.50 637.765   1
   1  13  -9 1051.47 193.726   1
   1  13  -8 3283.50 303.067   1
   1  13  -727705.50 812.739   1
   1  13  -6 1137.67 133.079   1
   1  13  -538149.40 1064.89   1
   1  13  -419707.60 589.987   1
   1  13  -3 2001.92 145.131   1
   1  13  -2 8222.69 295.773   1
   1  13  -143640.40 1116.13   1
   1  13   011618.60 395.885   1
   1  13   142793.40 1173.82   1
   1  13   2 7879.98 288.716   1
   1  13   3 1546.56 156.283   1
   1  13   420808.40 603.899   1
   1  13   536521.70 997.244   1
   1  13   6 1945.66 162.696   1
   1  13   729076.90 802.717   1
   1  13   8 4261.16 218.542   1
   1  13   9 1061.81 146.266   1
   1  13  1015647.90 504.065   1
   1  13  1119611.90 667.733   1
   1  13  12 1100.97 181.337   1
   1  13  1315260.40 627.215   1
   1  13  14 519.023 203.291   1
   1  13  15 3084.21 332.145   1
   1  13  16 6132.28 405.897   1
   1  13  17 6404.25 505.069   1
   1  13  18 909.116 231.408   1
   1  13  1911242.20 569.238   1
   1  13  20 3282.26 414.596   1
   1  13  21 2855.64 362.228   1
   1  13  22 1626.95 389.566   1
   1  13  23 3709.77 400.447   1
   1  13  24 835.021 520.347   1
   1  13  25 6366.66 478.636   1
   1  13  26 498.892 319.077   1
   1  13  27 1943.72 400.996   1
   1  13  28 1858.57 587.698   1
   1  14 -27  534.25 609.503   1
   1  14 -26 441.826 271.939   1
   1  14 -25-124.962 706.524   1
   1  14 -24 1104.28 315.923   1
   1  14 -23 1875.20 350.968   1
   1  14 -22 1339.59 306.988   1
   1  14 -21 5476.61 425.795   1
   1  14 -20 860.314 322.632   1
   1  14 -19 1263.78 367.526   1
   1  14 -18 5159.06 398.824   1
   1  14 -17 3751.04 352.452   1
   1  14 -16 4082.34 396.953   1
   1  14 -1519528.40 718.901   1
   1  14 -14  846.32 208.203   1
   1  14 -13  917.15 210.862   1
   1  14 -12 2904.93 248.023   1
   1  14 -1112328.30 462.874   1
   1  14 -10 4359.73 390.536   1
   1  14  -923052.20 732.657   1
   1  14  -8 2170.21 220.715   1
   1  14  -7 3096.38 281.832   1
   1  14  -6 6128.96 292.306   1
   1  14  -514149.20 526.264   1
   1  14  -4 4183.91 231.581   1
   1  14  -317166.00 536.128   1
   1  14  -2 2860.31 183.976   1
   1  14  -1 7172.05 282.219   1
   1  14   0 1887.35 132.555   1
   1  14   1 8143.44 287.967   1
   1  14   2 5568.23 269.382   1
   1  14   317148.80 601.758   1
   1  14   4 4820.80 245.544   1
   1  14   514637.90  489.95   1
   1  14   6 7351.15 321.881   1
   1  14   7 3236.06 216.697   1
   1  14   8 2159.53 198.314   1
   1  14   919510.00 595.785   1
   1  14  10 3528.32 232.999   1
   1  14  1113657.60 496.337   1
   1  14  12 3447.38 267.429   1
   1  14  13 2027.25 325.059   1
   1  14  14 1252.76 257.696   1
   1  14  1518933.20 738.896   1
   1  14  16 4522.38 370.086   1
   1  14  17 3965.50 538.395   1
   1  14  18 3787.63 348.519   1
   1  14  19 1337.46 296.107   1
   1  14  20 169.129 363.648   1
   1  14  21 4930.15 404.518   1
   1  14  22 701.094 416.502   1
   1  14  23 2628.61 342.144   1
   1  14  24 831.794 296.404   1
   1  14  25 122.435 337.971   1
   1  14  26 493.857 346.479   1
   1  14  27 2150.97 586.867   1
   1  15 -25 103.839  308.58   1
   1  15 -24 145.266 292.695   1
   1  15 -23-17.2576 971.846   1
   1  15 -22 732.966 302.356   1
   1  15 -21 862.325 325.288   1
   1  15 -20 1762.39 349.452   1
   1  15 -19 628.719  466.94   1
   1  15 -18-253.506 790.694   1
   1  15 -17 967.362 346.776   1
   1  15 -16 1866.71 275.887   1
   1  15 -15 2020.02 272.618   1
   1  15 -14 3043.46 270.039   1
   1  15 -13 41.2594 215.852   1
   1  15 -12 1550.37 389.538   1
   1  15 -11 736.127 207.868   1
   1  15 -10 3348.89 265.511   1
   1  15  -9 1400.41 239.497   1
   1  15  -8 5020.29 369.948   1
   1  15  -7 473.326 180.484   1
   1  15  -6 820.153 221.929   1
   1  15  -5 855.262  173.23   1
   1  15  -4 3450.55 217.477   1
   1  15  -3 2559.52 191.321   1
   1  15  -2 4615.97 252.072   1
   1  15  -1 295.292 131.932   1
   1  15   0 137.368 131.281   1
   1  15   1 278.404 129.242   1
   1  15   2 5103.29 289.586   1
   1  15   3 2565.75 207.828   1
   1  15   4 2628.92 217.405   1
   1  15   5 832.786 199.775   1
   1  15   6 1060.28  178.11   1
   1  15   7 982.358 167.964   1
   1  15   8 3161.16 238.799   1
   1  15   9 1615.50 249.066   1
   1  15  10 2520.47 237.206   1
   1  15  11 632.446 192.023   1
   1  15  12 1791.23 237.646   1
   1  15  13 230.571 231.079   1
   1  15  14 3234.51 325.622   1
   1  15  15 1554.10 361.576   1
   1  15  16 2348.67 317.516   1
   1  15  17 623.989 306.988   1
   1  15  18-201.801 744.785   1
   1  15  19-134.512 733.168   1
   1  15  20 1288.20 456.484   1
   1  15  21  963.81 302.713   1
   1  15  22 1243.29 315.717   1
   1  15  23 344.765 269.735   1
   1  15  24-1.54846 666.091   1
   1  15  25 916.933 309.777   1
   1  16 -24-26.3409 657.197   1
   1  16 -23 207.638 275.794   1
   1  16 -22 329.121 422.512   1
   1  16 -21 193.529 288.923   1
   1  16 -20  759.05 317.071   1
   1  16 -19-267.101 753.352   1
   1  16 -18 634.629 342.356   1
   1  16 -17 45.5267  296.76   1
   1  16 -16 686.542 270.786   1
   1  16 -15 671.247 356.673   1
   1  16 -14 92.8181  217.14   1
   1  16 -13 112.026 215.812   1
   1  16 -12 1618.68  271.11   1
   1  16 -11 157.977 216.692   1
   1  16 -10 454.649 211.151   1
   1  16  -9-82.2519 653.105   1
   1  16  -8  976.21 209.462   1
   1  16  -7 1719.37 366.994   1
   1  16  -6 1919.67 323.652   1
   1  16  -5 112.846 179.365   1
   1  16  -4 730.731 182.048   1
   1  16  -3  468.44 169.135   1
   1  16  -2 1085.01 163.616   1
   1  16  -1 570.846 188.238   1
   1  16   0 4027.04 239.614   1
   1  16   1 1051.47 171.429   1
   1  16   2 218.074  218.66   1
   1  16   3 168.368  154.34   1
   1  16   4 1015.01 181.981   1
   1  16   5 195.337 193.775   1
   1  16   6 2082.29 231.825   1
   1  16   7 1695.69 327.701   1
   1  16   8 893.669 217.859   1
   1  16   9 170.668 186.679   1
   1  16  10 838.017 229.014   1
   1  16  11 4.31134 275.758   1
   1  16  12 1354.92 272.085   1
   1  16  13 438.423  230.11   1
   1  16  14 426.303 297.528   1
   1  16  15 606.362 269.594   1
   1  16  16 327.682 257.272   1
   1  16  17-174.654 737.805   1
   1  16  18 880.196 414.602   1
   1  16  19 16.6087 293.421   1
   1  16  20 459.792 369.521   1
   1  16  21 383.144 360.266   1
   1  16  22 196.628 395.216   1
   1  16  23  21.394 410.148   1
   1  16  24 247.123 336.618   1
   1  17 -22 436.286 270.745   1
   1  17 -21 876.073 265.546   1
   1  17 -20 315.599  263.72   1
   1  17 -19 3234.61 440.176   1
   1  17 -18 431.766 357.082   1
   1  17 -17 87.7439 362.546   1
   1  17 -16 1086.67 649.607   1
   1  17 -15 2268.38 378.804   1
   1  17 -14 705.036 332.186   1
   1  17 -13 2069.29 345.581   1
   1  17 -12-76.6796 745.605   1
   1  17 -11 1010.72 241.115   1
   1  17 -10 1796.12 385.655   1
   1  17  -9 169.003 224.935   1
   1  17  -8-28.6866 872.443   1
   1  17  -7 4718.87 415.873   1
   1  17  -6 1191.39 255.626   1
   1  17  -5 3605.19 302.208   1
   1  17  -4 2808.56  234.71   1
   1  17  -3 989.377 195.325   1
   1  17  -2 1495.84 200.447   1
   1  17  -1 4674.03 294.925   1
   1  17   0 2351.18 308.259   1
   1  17   1 5602.51 322.325   1
   1  17   2 830.526 206.078   1
   1  17   3 1239.46 200.032   1
   1  17   4 3002.88 250.217   1
   1  17   5 4202.14 282.059   1
   1  17   6 1518.81 235.095   1
   1  17   7 4114.20 396.375   1
   1  17   8 510.228 212.731   1
   1  17   9 50.2212 221.527   1
   1  17  10 1924.91 327.197   1
   1  17  11 665.958 256.024   1
   1  17  12-82.5204 772.397   1
   1  17  13 2569.66 383.125   1
   1  17  14-54.1658 809.271   1
   1  17  15 2104.33 329.957   1
   1  17  16 1032.89 308.331   1
   1  17  17 768.843 330.172   1
   1  17  18 459.275 287.126   1
   1  17  19 1752.18 318.652   1
   1  17  20  198.17 273.729   1
   1  17  21 1025.44 296.037   1
   1  17  22-17.7515 1122.73   1
   1  18 -21 2772.00 432.405   1
   1  18 -20 847.833  320.56   1
   1  18 -19 59.0058 303.387   1
   1  18 -18 1141.43 433.374   1
   1  18 -17 2498.24 419.746   1
   1  18 -16 1334.46  470.90   1
   1  18 -15 8505.44 585.509   1
   1  18 -14 1831.50 456.341   1
   1  18 -13-49.7795 958.974   1
   1  18 -12 3739.69 731.013   1
   1  18 -11 3146.16 342.074   1
   1  18 -10 1228.41 287.824   1
   1  18  -911894.60 692.405   1
   1  18  -8 1937.84 310.461   1
   1  18  -7 749.701 294.125   1
   1  18  -6 781.616 304.764   1
   1  18  -5 5210.20 381.638   1
   1  18  -4 2017.01 312.257   1
   1  18  -311432.60 696.613   1
   1  18  -2 1119.56 278.389   1
   1  18  -1 953.625 250.383   1
   1  18   0 3199.20 316.642   1
   1  18   1 1003.90 302.071   1
   1  18   2 1345.58 224.743   1
   1  18   310648.50  509.02   1
   1  18   4 1623.50 282.923   1
   1  18   5 5729.76 340.253   1
   1  18   6 1452.32 397.821   1
   1  18   7 1161.67 238.701   1
   1  18   8 1482.20 409.822   1
   1  18   911522.10 548.604   1
   1  18  10 2096.44 407.198   1
   1  18  11 4042.62 446.808   1
   1  18  12 4220.27  389.92   1
   1  18  13-202.674 749.636   1
   1  18  14 1672.11 424.254   1
   1  18  15 9167.10 668.876   1
   1  18  16 1066.26 419.191   1
   1  18  17 2681.83 377.278   1
   1  18  18 968.761 388.937   1
   1  18  19 222.569 292.758   1
   1  18  20 634.825 453.814   1
   1  18  21 548.808 642.539   1
   1  19 -19-685.156 673.203   1
   1  19 -18-55.5996 686.545   1
   1  19 -17 462.786 368.146   1
   1  19 -16 4101.17 529.404   1
   1  19 -15 189.078 661.523   1
   1  19 -14 3677.73 448.404   1
   1  19 -13-135.636 834.232   1
   1  19 -12-126.189 1050.94   1
   1  19 -11 809.596  364.97   1
   1  19 -10 3941.14 488.654   1
   1  19  -9 977.374 294.347   1
   1  19  -8 7583.95  563.78   1
   1  19  -7 321.371 297.266   1
   1  19  -6 108.104 249.449   1
   1  19  -5 1106.87 287.795   1
   1  19  -4 9570.93  564.50   1
   1  19  -3 771.939 347.014   1
   1  19  -2 7365.60  612.20   1
   1  19  -1 1301.73 496.609   1
   1  19   0 268.507 273.352   1
   1  19   1 1630.41 355.463   1
   1  19   2 7551.21 534.336   1
   1  19   3 923.961 273.535   1
   1  19   4 7964.92 461.521   1
   1  19   5 1545.12 283.735   1
   1  19   6 -276.42 756.054   1
   1  19   7 223.594 246.671   1
   1  19   8 7429.57 434.076   1
   1  19   9 691.637  250.24   1
   1  19  10 4130.22 388.937   1
   1  19  11 286.883 433.032   1
   1  19  12  343.18  392.25   1
   1  19  13  946.32 354.743   1
   1  19  14 3749.05 445.415   1
   1  19  15 114.155 374.436   1
   1  19  16 4307.04 424.623   1
   1  19  17-371.756 684.086   1
   1  19  18 345.288 294.797   1
   1  19  19 0.63115 612.519   1
   1  20 -16 324.208 412.122   1
   1  20 -15 814.699 340.463   1
   1  20 -14 236.578 302.951   1
   1  20 -13 1215.10 496.013   1
   1  20 -12 1165.28 318.335   1
   1  20 -11 440.607 299.274   1
   1  20 -10 24.9369 305.773   1
   1  20  -9 1114.57 299.634   1
   1  20  -8 600.333 302.134   1
   1  20  -7  958.54 271.854   1
   1  20  -6 -28.739 1132.27   1
   1  20  -5 565.447 275.599   1
   1  20  -4 551.551 296.433   1
   1  20  -3 2322.25 405.543   1
   1  20  -2 633.555 458.668   1
   1  20  -1 655.341 488.331   1
   1  20   0 1344.36 616.145   1
   1  20   1 916.954  437.09   1
   1  20   2 1516.53 459.275   1
   1  20   3 2007.60 318.705   1
   1  20   4 433.231 286.528   1
   1  20   5-193.626  811.13   1
   1  20   6 646.611 275.479   1
   1  20   7 1230.19 415.803   1
   1  20   8 312.837 238.291   1
   1  20   9  578.75 238.639   1
   1  20  10 566.255  262.58   1
   1  20  11 510.507 300.025   1
   1  20  12 667.002 257.839   1
   1  20  13 864.062 290.525   1
   1  20  14-317.757 845.765   1
   1  20  15 59.6312 316.797   1
   1  20  16-206.953 644.663   1
   1  21 -13 -16.288 632.868   1
   1  21 -12-111.695 646.301   1
   1  21 -11 438.547 332.411   1
   1  21 -10-17.6527 672.031   1
   1  21  -9 442.595 269.917   1
   1  21  -8 1402.42 314.819   1
   1  21  -7 431.542 332.388   1
   1  21  -6  264.58 278.799   1
   1  21  -5 104.996 282.867   1
   1  21  -4  123.79 288.126   1
   1  21  -3 818.408 427.326   1
   1  21  -2-39.1254 1299.97   1
   1  21  -1  184.02 773.418   1
   1  21   0-33.1272 897.989   1
   1  21   1 188.398 320.489   1
   1  21   2 391.475 279.675   1
   1  21   3 647.678 394.997   1
   1  21   4 1428.05 406.565   1
   1  21   5 193.045 294.655   1
   1  21   6-214.289 691.569   1
   1  21   7 2.51064 268.382   1
   1  21   8 522.146 284.707   1
   1  21   9-219.438 1105.30   1
   1  21  10 279.625 302.816   1
   1  21  11-77.2492 648.531   1
   1  21  12 295.792 270.099   1
   1  21  13 112.792 473.727   1
   1  22  -9  277.65 455.129   1
   1  22  -8 19.6731 250.231   1
   1  22  -7 168.619 272.628   1
   1  22  -6 596.842  355.29   1
   1  22  -5 -134.59 969.137   1
   1  22  -4-124.458 734.326   1
   1  22  -3 658.438 473.476   1
   1  22  -2-13.0689 997.685   1
   1  22  -1-59.4156 741.152   1
   1  22   0-305.791 772.463   1
   1  22   1-350.288 1192.61   1
   1  22   2 161.517 275.416   1
   1  22   3 1266.07 344.128   1
   1  22   4  328.45 311.602   1
   1  22   5 280.899 259.667   1
   1  22   6 47.2332 301.278   1
   1  22   7 55.2971 244.139   1
   1  22   8-148.574 595.558   1
   1  22   9 742.121 803.069   1
   2   0   0413081.0 9905.49   1
   2   0   1214236.0 5627.79   1
   2   0   2109082.0 2844.55   1
   2   0   341991.10 1239.10   1
   2   0   481216.40 2015.21   1
   2   0   5133587.0 3407.38   1
   2   0   6399516.0 9881.00   1
   2   0   7120635.0 3284.15   1
   2   0   8117341.0 3056.82   1
   2   0   9 129.541  97.194   1
   2   0  1019904.80 659.164   1
   2   0  1122100.90 794.766   1
   2   0  12139640.0 3577.49   1
   2   0  1323465.70 652.531   1
   2   0  1476380.30 1879.73   1
   2   0  15 8743.68 280.605   1
   2   0  16 7415.94 300.283   1
   2   0  17 2423.84 136.872   1
   2   0  1859445.60 1590.19   1
   2   0  1920676.90 627.703   1
   2   0  2022543.60 676.849   1
   2   0  2119110.60 632.844   1
   2   0  22 571.741 170.339   1
   2   0  23 9034.75 418.879   1
   2   0  2417149.70  658.12   1
   2   0  25 8433.44 443.402   1
   2   0  2612877.40 561.043   1
   2   0  2710940.20  538.63   1
   2   0  28 347.982 266.228   1
   2   0  29 2878.28  386.15   1
   2   0  30 4959.82 420.911   1
   2   0  31 3563.41  491.50   1
   2   0  32 2888.24  415.59   1
   2   0  33 151.494 294.031   1
   2   1 -33 606.242  479.44   1
   2   1 -32 2478.95 452.672   1
   2   1 -31 1929.26 501.056   1
   2   1 -30 3568.77 359.128   1
   2   1 -29 2166.11 438.734   1
   2   1 -28 5114.06 381.438   1
   2   1 -27 533.827 259.593   1
   2   1 -26 4357.10 325.388   1
   2   1 -25 6227.31 429.642   1
   2   1 -24 8293.01 408.722   1
   2   1 -23 4443.65 308.412   1
   2   1 -2215385.80 589.905   1
   2   1 -21 4264.09 244.896   1
   2   1 -20 9005.88 344.169   1
   2   1 -1916964.70 508.837   1
   2   1 -1827468.20 821.037   1
   2   1 -1725841.70 711.641   1
   2   1 -1635364.90 900.757   1
   2   1 -1520136.60 548.082   1
   2   1 -1413686.00 401.331   1
   2   1 -1328073.60 767.943   1
   2   1 -1236127.50 1054.10   1
   2   1 -1185536.00 2170.27   1
   2   1 -1062060.90 1575.73   1
   2   1  -951941.40 1371.76   1
   2   1  -856994.30 1450.73   1
   2   1  -724169.30 651.463   1
   2   1  -641344.80 1267.60   1
   2   1  -5107353.0 3185.49   1
   2   1  -4142021.0 3503.12   1
   2   1  -342682.30 1336.46   1
   2   1  -2127799.0 3246.73   1
   2   1  -175016.80 1888.16   1
   2   1   070747.70 1786.33   1
   2   1   186055.50 2172.07   1
   2   1   2117421.0 2923.87   1
   2   1   352408.20 1518.15   1
   2   1   4133119.0 3508.34   1
   2   1   5112136.0 3106.09   1
   2   1   642881.00 1288.75   1
   2   1   727393.60  855.83   1
   2   1   858970.70 1861.64   1
   2   1   948839.00 1396.23   1
   2   1  1063469.70 2032.04   1
   2   1  1191665.40 2411.30   1
   2   1  1237588.80 1067.04   1
   2   1  1322026.70 614.712   1
   2   1  1411482.50 361.001   1
   2   1  1521203.60 562.664   1
   2   1  1633040.60 872.965   1
   2   1  1725506.90 740.577   1
   2   1  1827259.80 777.076   1
   2   1  1911115.00  397.64   1
   2   1  20 8961.27 340.951   1
   2   1  21 4078.86 245.903   1
   2   1  2213915.50 488.105   1
   2   1  23 3711.15 290.096   1
   2   1  24 7020.68 460.799   1
   2   1  25 4332.02 337.798   1
   2   1  26 3808.11 362.644   1
   2   1  27 807.702 361.498   1
   2   1  28 6273.09 427.283   1
   2   1  29 2063.76 401.473   1
   2   1  30 4505.25 388.028   1
   2   1  31 2978.87 538.559   1
   2   1  32 1679.93 354.697   1
   2   1  33 47.8185 339.275   1
   2   2 -33-611.128 943.196   1
   2   2 -32 55.6665  289.90   1
   2   2 -31 126.106 285.427   1
   2   2 -30 271.571 266.492   1
   2   2 -29 350.217 306.281   1
   2   2 -28 1421.18 270.517   1
   2   2 -27 1528.11 273.461   1
   2   2 -26 1885.52 283.906   1
   2   2 -25 52.0431 227.413   1
   2   2 -24 1348.45 210.963   1
   2   2 -23 4950.99 329.136   1
   2   2 -22 3137.67 277.548   1
   2   2 -21 5977.22 329.635   1
   2   2 -20 345.094 134.848   1
   2   2 -19 2062.04  159.15   1
   2   2 -18 807.073 134.313   1
   2   2 -1712699.70 380.272   1
   2   2 -16 4781.24 183.293   1
   2   2 -15 9710.79 299.043   1
   2   2 -1413377.80 379.818   1
   2   2 -13 7972.47 285.413   1
   2   2 -12 5407.73 219.505   1
   2   2 -1116413.30 511.722   1
   2   2 -10 9543.39 338.901   1
   2   2  -926691.00 717.344   1
   2   2  -8 5023.58 203.501   1
   2   2  -721268.40 736.484   1
   2   2  -6 4645.50 215.093   1
   2   2  -5 1773.63 122.493   1
   2   2  -417179.30 565.914   1
   2   2  -323750.20 704.713   1
   2   2  -248646.80 1321.28   1
   2   2  -125892.00 728.033   1
   2   2   022668.50 707.657   1
   2   2   132837.80 973.494   1
   2   2   253097.60 1406.35   1
   2   2   320810.60 947.429   1
   2   2   413338.30 479.298   1
   2   2   5 2842.00 470.215   1
   2   2   6 4672.42 318.919   1
   2   2   715240.20 993.611   1
   2   2   8 5726.98 286.925   1
   2   2   919219.00 805.663   1
   2   2  10 7228.12 290.272   1
   2   2  1116967.50 571.596   1
   2   2  12 5877.53  280.31   1
   2   2  13 7916.33 257.922   1
   2   2  1415798.40 435.676   1
   2   2  15 9461.10 291.883   1
   2   2  16 4038.05  205.07   1
   2   2  1716736.60 488.342   1
   2   2  18 959.833 141.778   1
   2   2  19 1051.44 141.349   1
   2   2  20 143.014 149.533   1
   2   2  21 8545.77 359.479   1
   2   2  22 3025.38 243.218   1
   2   2  23 5031.98 332.914   1
   2   2  24 648.031 248.948   1
   2   2  25 194.125  303.57   1
   2   2  26 1881.81 314.046   1
   2   2  27 1508.88 293.333   1
   2   2  28 859.754 294.962   1
   2   2  29 168.012 295.459   1
   2   2  30 511.454 325.059   1
   2   2  31-392.792 1058.59   1
   2   2  32 23.5408 317.929   1
   2   2  33 65.2707 379.592   1
   2   3 -33-4.30191 872.924   1
   2   3 -32 637.799 285.131   1
   2   3 -31 1285.06 318.149   1
   2   3 -30 500.465 310.781   1
   2   3 -29 861.752 398.555   1
   2   3 -28 744.621 251.037   1
   2   3 -27  645.78  246.84   1
   2   3 -26 219.217 253.872   1
   2   3 -25-48.5283 787.799   1
   2   3 -24 3808.05 395.848   1
   2   3 -23 645.395 185.217   1
   2   3 -22 1768.42 187.643   1
   2   3 -21  786.10 162.529   1
   2   3 -20 3377.67 222.831   1
   2   3 -19 280.201 128.713   1
   2   3 -18 3672.63 187.534   1
   2   3 -17 4128.62 185.846   1
   2   3 -16 3527.82 156.744   1
   2   3 -15 5677.67 217.083   1
   2   3 -14 1265.98 109.432   1
   2   3 -13 2394.66 188.406   1
   2   3 -1228284.30 856.154   1
   2   3 -1122206.80 690.424   1
   2   3 -10 3659.74 248.672   1
   2   3  -9 3266.19  176.93   1
   2   3  -8 4518.10 235.985   1
   2   3  -723819.70 700.533   1
   2   3  -6 6461.11 266.038   1
   2   3  -510019.60 367.821   1
   2   3  -412757.10 467.641   1
   2   3  -310128.60 398.502   1
   2   3  -221941.00 646.394   1
   2   3  -1 2610.36 155.397   1
   2   3   0122603.0 3047.09   1
   2   3   1 3124.37 181.181   1
   2   3   220298.60 728.616   1
   2   3   310415.10 411.034   1
   2   3   410940.90 492.838   1
   2   3   5 9183.42 521.623   1
   2   3   6 5343.13 280.879   1
   2   3   720243.40 636.435   1
   2   3   8 6350.17 308.406   1
   2   3   9 2582.83  133.76   1
   2   3  10 2733.23  183.96   1
   2   3  1119870.00 624.648   1
   2   3  1224503.50 1124.98   1
   2   3  13 2883.53 141.295   1
   2   3  14 885.597 98.0505   1
   2   3  15 5040.47 211.198   1
   2   3  16 3605.02 196.176   1
   2   3  17 3729.46 188.785   1
   2   3  18 3728.05 292.636   1
   2   3  19 273.625 141.016   1
   2   3  20 3885.96 237.021   1
   2   3  21  677.89  182.98   1
   2   3  22 1495.34 223.818   1
   2   3  23 1226.23 285.569   1
   2   3  24 3586.17 340.147   1
   2   3  25 1122.60  265.52   1
   2   3  26 643.867 361.676   1
   2   3  27 995.374 276.592   1
   2   3  28 89.2426  235.76   1
   2   3  29 880.176 296.381   1
   2   3  30-118.596 803.298   1
   2   3  31 1628.98 413.031   1
   2   3  32 789.473 496.552   1
   2   3  33-27.3216  708.01   1
   2   4 -33 767.888 369.874   1
   2   4 -32 1629.65  304.63   1
   2   4 -31 2193.01 473.426   1
   2   4 -30 1563.59 291.038   1
   2   4 -29 2001.58 476.245   1
   2   4 -28 38.8479 279.808   1
   2   4 -27 2738.09 294.574   1
   2   4 -26 5539.38 371.772   1
   2   4 -25 6963.90 352.255   1
   2   4 -24 5648.70 306.206   1
   2   4 -23 5282.31 307.733   1
   2   4 -22 17.7878  165.41   1
   2   4 -2112065.00 509.265   1
   2   4 -2011794.40 427.125   1
   2   4 -19 8565.25 324.071   1
   2   4 -1815230.60 478.906   1
   2   4 -17 860.188 120.952   1
   2   4 -16 1682.84 127.533   1
   2   4 -15 1821.69 117.705   1
   2   4 -1433689.10 879.969   1
   2   4 -1310615.80 375.105   1
   2   4 -1239391.10 1090.04   1
   2   4 -1112839.30 472.465   1
   2   4 -10 4550.55 242.359   1
   2   4  -9 5829.83 299.024   1
   2   4  -845190.30 1234.29   1
   2   4  -739563.40 1086.09   1
   2   4  -662061.00 1633.69   1
   2   4  -562629.20 1737.78   1
   2   4  -411565.70 444.813   1
   2   4  -314786.80 729.224   1
   2   4  -237180.20 985.637   1
   2   4  -1108467.0 2661.24   1
   2   4   057635.10 1574.03   1
   2   4   1113823.0 2877.39   1
   2   4   234997.70 980.041   1
   2   4   312302.50 406.359   1
   2   4   412736.20 533.524   1
   2   4   561466.50 1693.47   1
   2   4   668934.60 2054.06   1
   2   4   738189.40 1327.03   1
   2   4   843939.00 1270.36   1
   2   4   9 3771.23 211.409   1
   2   4  10 3805.80 209.593   1
   2   4  1114009.30 648.891   1
   2   4  1240410.10 1049.65   1
   2   4  1313002.10 377.778   1
   2   4  1430566.30  793.02   1
   2   4  15 2176.41 176.288   1
   2   4  16 2152.02 138.415   1
   2   4  17 2186.69 143.659   1
   2   4  1816448.60 502.957   1
   2   4  19 8603.59 335.309   1
   2   4  2012936.50 462.249   1
   2   4  2112433.40 486.584   1
   2   4  22 383.665  242.35   1
   2   4  23 4543.46  430.51   1
   2   4  24 6600.51 415.758   1
   2   4  25 8140.25 445.796   1
   2   4  26 4829.64 405.091   1
   2   4  27 2759.69 311.181   1
   2   4  28 203.561 257.404   1
   2   4  29 1502.91 399.494   1
   2   4  30 1541.30 380.892   1
   2   4  31 2868.44 463.648   1
   2   4  32 1743.11 508.907   1
   2   4  33 410.616 296.701   1
   2   5 -33 181.943 715.705   1
   2   5 -32 1228.90 346.864   1
   2   5 -31 3798.50 355.502   1
   2   5 -30  803.65 279.019   1
   2   5 -29 1805.64 297.457   1
   2   5 -28 1301.63 266.074   1
   2   5 -27 1980.08 278.993   1
   2   5 -26 4408.19 318.463   1
   2   5 -2510099.00 474.858   1
   2   5 -24 5027.28 296.521   1
   2   5 -23 5925.41 306.246   1
   2   5 -22 8748.19 427.917   1
   2   5 -21 4364.01 241.113   1
   2   5 -20 7905.34 383.582   1
   2   5 -1939250.90 1188.09   1
   2   5 -1813851.60 467.108   1
   2   5 -1720389.00  609.41   1
   2   5 -1612367.00  400.03   1
   2   5 -1523537.20 735.837   1
   2   5 -1421454.80 601.031   1
   2   5 -1348406.80 1244.47   1
   2   5 -1219323.10 560.886   1
   2   5 -1176188.00 1947.41   1
   2   5 -1060524.60 1683.47   1
   2   5  -937467.20 1236.21   1
   2   5  -845788.60 1272.62   1
   2   5  -780885.90 2090.50   1
   2   5  -633444.40 929.432   1
   2   5  -598789.50 2722.85   1
   2   5  -462253.20 1673.05   1
   2   5  -321675.50 622.776   1
   2   5  -2114532.0 2878.53   1
   2   5  -1121981.0 3028.15   1
   2   5   021015.10 602.905   1
   2   5   1157428.0 4035.89   1
   2   5   2116233.0 3024.89   1
   2   5   322402.60 797.541   1
   2   5   466994.90 1965.30   1
   2   5   595192.40 2617.77   1
   2   5   638026.70 1232.54   1
   2   5   791631.80 3161.68   1
   2   5   842778.90 1391.21   1
   2   5   939457.80 1381.44   1
   2   5  1057403.90 1697.57   1
   2   5  1177094.50 1959.14   1
   2   5  1221052.10 549.583   1
   2   5  1351430.00 1268.32   1
   2   5  1421575.30 570.811   1
   2   5  1523878.10 632.673   1
   2   5  1612567.70 368.319   1
   2   5  1719896.20 582.433   1
   2   5  1815376.80 491.269   1
   2   5  1930801.60 886.146   1
   2   5  20 9351.84 394.679   1
   2   5  21 5857.89 324.618   1
   2   5  22 8579.19 427.232   1
   2   5  23 5335.39 360.993   1
   2   5  24 3418.98 372.148   1
   2   5  2510280.70 530.985   1
   2   5  26 4884.63 478.133   1
   2   5  27 2854.03 493.002   1
   2   5  28 2007.60 529.064   1
   2   5  29 1156.42 382.104   1
   2   5  30 785.333  380.65   1
   2   5  31 4320.72 574.346   1
   2   5  32 1488.72 466.283   1
   2   5  33 448.941 471.041   1
   2   6 -32 124.033 298.945   1
   2   6 -31 445.357 292.496   1
   2   6 -30 895.926 297.906   1
   2   6 -29 6521.32 400.903   1
   2   6 -28 6239.63 392.401   1
   2   6 -27 4386.33 439.808   1
   2   6 -26 1128.23  240.75   1
   2   6 -25  139.65 203.547   1
   2   6 -24 3261.38  265.65   1
   2   6 -23 7040.44 321.777   1
   2   6 -22 4645.87 257.714   1
   2   6 -2122166.60 710.797   1
   2   6 -20 6441.53 311.915   1
   2   6 -19 2072.40 216.102   1
   2   6 -18 4228.30  303.09   1
   2   6 -1729657.60 940.526   1
   2   6 -1631258.10 845.612   1
   2   6 -1554706.30 1435.52   1
   2   6 -1414747.30  436.44   1
   2   6 -1318155.20 505.906   1
   2   6 -12 8685.60 275.082   1
   2   6 -1121929.30 639.175   1
   2   6 -1013426.80 423.389   1
   2   6  -9140216.0 3653.30   1
   2   6  -872689.00 1922.31   1
   2   6  -719770.40 987.164   1
   2   6  -6 6892.32 289.852   1
   2   6  -550848.40 1419.23   1
   2   6  -496082.50 2532.67   1
   2   6  -3192564.0 5760.15   1
   2   6  -230352.00 816.686   1
   2   6  -118165.30 536.664   1
   2   6   0 6762.29  267.51   1
   2   6   118872.50 605.467   1
   2   6   234100.20 983.845   1
   2   6   3182376.0 4732.56   1
   2   6   494218.80 2540.01   1
   2   6   547689.10 1578.38   1
   2   6   6 8545.14 367.346   1
   2   6   718660.50 687.555   1
   2   6   870172.40 2232.81   1
   2   6   9124040.0 3362.27   1
   2   6  10 7889.15  260.71   1
   2   6  1127369.60 704.619   1
   2   6  12 9413.24 300.135   1
   2   6  1314658.90 428.207   1
   2   6  1413378.50  394.61   1
   2   6  1555640.00 1418.09   1
   2   6  1632433.80 852.072   1
   2   6  1733929.10  984.61   1
   2   6  18 4899.65 241.439   1
   2   6  19 1500.87 189.339   1
   2   6  20 5999.78 381.137   1
   2   6  2122533.70 886.963   1
   2   6  22 3660.61 354.258   1
   2   6  23 7545.30 445.632   1
   2   6  24 3522.86 537.496   1
   2   6  25 500.185 318.073   1
   2   6  26 1192.54 438.645   1
   2   6  27 3771.75  519.23   1
   2   6  28 6163.89 474.604   1
   2   6  29 5768.68 426.922   1
   2   6  30 1556.56 332.459   1
   2   6  31 332.823 289.412   1
   2   6  32 499.292 277.141   1
   2   7 -32 632.608 382.178   1
   2   7 -31 1015.04 323.608   1
   2   7 -30 327.731 248.066   1
   2   7 -29 1248.76 275.622   1
   2   7 -28 650.368 297.458   1
   2   7 -27 3467.89 334.699   1
   2   7 -26 1602.70 349.737   1
   2   7 -25 2968.19  288.33   1
   2   7 -24 526.271 215.943   1
   2   7 -23 8449.29 397.821   1
   2   7 -22 3000.73 254.262   1
   2   7 -21 5583.49 296.093   1
   2   7 -20 3151.05 246.229   1
   2   7 -19 4599.59 244.174   1
   2   7 -18  712.77 177.657   1
   2   7 -17 1652.83  167.88   1
   2   7 -16 4147.01 223.029   1
   2   7 -15 3391.42 173.529   1
   2   7 -14 7133.27 288.131   1
   2   7 -1313059.50 393.725   1
   2   7 -12 6932.98 242.171   1
   2   7 -11 3685.70 163.971   1
   2   7 -1018912.80 539.226   1
   2   7  -915572.30 456.653   1
   2   7  -8 5769.44 245.642   1
   2   7  -719897.50 932.932   1
   2   7  -6 398.355 110.937   1
   2   7  -5 2310.91 161.264   1
   2   7  -4 7674.98 302.915   1
   2   7  -363490.60 1992.44   1
   2   7  -212608.80 430.854   1
   2   7  -136025.40 982.591   1
   2   7   018335.90 576.365   1
   2   7   139241.30 1120.06   1
   2   7   214819.40 570.821   1
   2   7   363590.00 1998.38   1
   2   7   4 6108.68 315.397   1
   2   7   5 4426.84 244.514   1
   2   7   6 394.197 107.309   1
   2   7   722747.70 770.301   1
   2   7   8 8652.43 342.857   1
   2   7   914622.00  409.58   1
   2   7  1018207.00 490.266   1
   2   7  11 3568.32 151.323   1
   2   7  12 7312.81 298.088   1
   2   7  1312567.10 373.033   1
   2   7  14 6461.61 240.779   1
   2   7  15 2937.14 164.321   1
   2   7  16 4123.59 232.288   1
   2   7  17 1048.88 161.553   1
   2   7  18 429.311 154.613   1
   2   7  19 3257.53 258.247   1
   2   7  20 4006.24 374.122   1
   2   7  21 4675.09 500.117   1
   2   7  22 2886.94 377.478   1
   2   7  23 7755.49 458.063   1
   2   7  24 738.531 433.099   1
   2   7  25 2206.12 434.936   1
   2   7  26 1561.16 478.069   1
   2   7  27 5410.58 491.673   1
   2   7  28 528.952 280.763   1
   2   7  29 518.591 293.467   1
   2   7  30-49.4614 765.154   1
   2   7  31 977.516 394.743   1
   2   7  32  992.52 415.774   1
   2   8 -31 159.365 604.961   1
   2   8 -30 237.963 285.308   1
   2   8 -29 531.941 304.977   1
   2   8 -28  201.54 208.544   1
   2   8 -27 776.037 213.002   1
   2   8 -26 297.427 188.898   1
   2   8 -25 2385.90 306.811   1
   2   8 -24 65.3646 238.512   1
   2   8 -23 1582.05 235.808   1
   2   8 -22 96.6518 202.219   1
   2   8 -21 685.395 203.089   1
   2   8 -20 1866.05 200.427   1
   2   8 -19 1065.42  166.58   1
   2   8 -18 156.262 139.581   1
   2   8 -17 512.376  139.97   1
   2   8 -16  255.24 142.719   1
   2   8 -15 1308.40 128.123   1
   2   8 -14 2532.40  150.35   1
   2   8 -13 169.382 87.1512   1
   2   8 -12 1471.08 106.393   1
   2   8 -11 3800.49 150.365   1
   2   8 -10 416.974  111.55   1
   2   8  -911746.00 347.669   1
   2   8  -8 6256.37 220.475   1
   2   8  -7 297.781 85.3248   1
   2   8  -6 965.043  89.533   1
   2   8  -510312.70  683.40   1
   2   8  -4 1109.76 173.285   1
   2   8  -3 777.928 137.247   1
   2   8  -2 3387.13 242.595   1
   2   8  -110656.20 598.356   1
   2   8   0 495.729 176.945   1
   2   8   1 9697.19 531.023   1
   2   8   2 4248.61 259.358   1
   2   8   3 874.387 154.596   1
   2   8   4 708.679 148.815   1
   2   8   5 8739.04 341.403   1
   2   8   6 903.945 126.186   1
   2   8   7 111.284 91.9749   1
   2   8   8 7541.49 246.696   1
   2   8   910891.50 324.286   1
   2   8  10 100.816  76.166   1
   2   8  11 4872.15 210.716   1
   2   8  12 1423.91 103.551   1
   2   8  13 180.017 95.2475   1
   2   8  14 3414.64 165.336   1
   2   8  15 1440.25  130.23   1
   2   8  16 316.589 191.682   1
   2   8  17 1228.83 213.304   1
   2   8  18 579.818 210.117   1
   2   8  19 873.975 176.293   1
   2   8  20 2299.88  226.60   1
   2   8  21 465.335 215.786   1
   2   8  22-432.866 1117.78   1
   2   8  23 2203.64 289.426   1
   2   8  24 1004.79 259.543   1
   2   8  25 1886.96 300.014   1
   2   8  26-128.155 1010.68   1
   2   8  27 609.183 412.838   1
   2   8  28 401.622 276.125   1
   2   8  29  869.17 336.102   1
   2   8  30 9.58124  431.65   1
   2   8  31 983.471 393.166   1
   2   9 -31 1060.10  740.90   1
   2   9 -30 215.377 283.286   1
   2   9 -29-278.573 887.021   1
   2   9 -28 456.693 303.436   1
   2   9 -27 1811.54 285.941   1
   2   9 -26 1290.98  233.38   1
   2   9 -25 2908.53 271.172   1
   2   9 -24 2432.03 268.654   1
   2   9 -23 964.655 316.008   1
   2   9 -22 1998.57 253.589   1
   2   9 -21 5056.47 361.928   1
   2   9 -20 1739.16 226.886   1
   2   9 -1911858.20  470.54   1
   2   9 -18 2963.95 227.897   1
   2   9 -17 3676.62 236.306   1
   2   9 -16 2374.07 207.761   1
   2   9 -1518712.80 544.767   1
   2   9 -14 7463.48 280.448   1
   2   9 -1314327.20 420.563   1
   2   9 -12 5020.77 205.585   1
   2   9 -1116027.80 448.492   1
   2   9 -10 5059.39 186.727   1
   2   9  -928874.70 749.117   1
   2   9  -811910.40  380.85   1
   2   9  -720094.40 582.309   1
   2   9  -611915.00  355.64   1
   2   9  -516849.80 480.978   1
   2   9  -413670.60 434.523   1
   2   9  -320299.50 583.594   1
   2   9  -214204.60  451.43   1
   2   9  -113686.80 424.473   1
   2   9   0 4550.41 258.739   1
   2   9   119941.20 577.254   1
   2   9   212539.40 387.655   1
   2   9   318214.40 530.255   1
   2   9   415542.00 479.794   1
   2   9   518321.60 551.864   1
   2   9   612692.60 376.602   1
   2   9   724994.30 662.257   1
   2   9   810495.50 316.556   1
   2   9   928331.60 738.736   1
   2   9  10 5574.89 260.414   1
   2   9  1119250.90 544.474   1
   2   9  12 4933.52 211.728   1
   2   9  1312859.70 415.595   1
   2   9  14 6196.16 273.346   1
   2   9  1517595.00  538.67   1
   2   9  16 2926.02 253.046   1
   2   9  17 4868.63 247.124   1
   2   9  18 3088.85 271.744   1
   2   9  19 8283.12 456.537   1
   2   9  20 1998.28 295.445   1
   2   9  21 4479.10 301.042   1
   2   9  22 1514.08 355.502   1
   2   9  23 642.813 283.928   1
   2   9  24 1842.11 305.698   1
   2   9  25 3229.26 345.078   1
   2   9  26 1626.59 322.844   1
   2   9  27 2464.54 363.548   1
   2   9  28 914.514  447.20   1
   2   9  29 178.857 427.305   1
   2   9  30-185.239 1295.21   1
   2   9  31 428.332 488.696   1
   2  10 -30 1039.82 380.482   1
   2  10 -29 3081.82 383.992   1
   2  10 -28 1319.81  344.00   1
   2  10 -27 2772.63  404.27   1
   2  10 -26 724.631 321.625   1
   2  10 -25 222.271 241.909   1
   2  10 -24 1429.83 235.249   1
   2  10 -23 9433.23 453.452   1
   2  10 -2210272.90 532.821   1
   2  10 -21 8229.67 401.377   1
   2  10 -20 1083.15 237.625   1
   2  10 -19 309.884 247.256   1
   2  10 -18 4909.97 299.131   1
   2  10 -17 9120.82 381.074   1
   2  10 -16 3815.22 231.667   1
   2  10 -1525143.20 744.995   1
   2  10 -1412986.40 483.226   1
   2  10 -13 4657.30 216.737   1
   2  10 -12 4280.32  199.60   1
   2  10 -1120447.20 596.747   1
   2  10 -1023973.60 658.245   1
   2  10  -952249.30 1346.61   1
   2  10  -812072.30 415.328   1
   2  10  -7 3882.23 169.349   1
   2  10  -6 4212.36 172.586   1
   2  10  -516549.40 518.733   1
   2  10  -410439.70 378.562   1
   2  10  -378787.10 2029.09   1
   2  10  -245169.60 1132.28   1
   2  10  -117222.80 467.957   1
   2  10   0 4307.61 183.926   1
   2  10   120543.60 561.502   1
   2  10   245507.70 1159.58   1
   2  10   370028.90 1730.78   1
   2  10   4 9252.64  339.39   1
   2  10   513334.50 401.336   1
   2  10   6 5197.18 207.385   1
   2  10   7 4440.67 182.134   1
   2  10   811653.50 369.434   1
   2  10   947379.70 1353.97   1
   2  10  1025160.00 698.901   1
   2  10  1123469.50 723.654   1
   2  10  12 4949.42 247.426   1
   2  10  13 3977.60  208.21   1
   2  10  1412421.50  433.66   1
   2  10  1527724.50 898.995   1
   2  10  16 6508.46 313.191   1
   2  10  1711203.40  461.47   1
   2  10  18 4746.90 307.221   1
   2  10  19 -30.299 626.483   1
   2  10  20 2096.90 242.288   1
   2  10  2111478.30 532.589   1
   2  10  2210867.30 469.607   1
   2  10  23 7847.74 675.536   1
   2  10  24 1055.48 310.799   1
   2  10  25 452.965 323.482   1
   2  10  26 982.105 339.715   1
   2  10  27 4396.70  754.36   1
   2  10  28 1264.17 780.935   1
   2  10  29 2691.25 920.459   1
   2  10  30 1378.71 442.305   1
   2  11 -29 949.951 308.117   1
   2  11 -28 3115.64 423.257   1
   2  11 -27 1508.67 297.871   1
   2  11 -26 1037.87 548.176   1
   2  11 -25 817.042 251.006   1
   2  11 -24-101.955 688.137   1
   2  11 -23 3580.68 283.619   1
   2  11 -22 6092.90 348.189   1
   2  11 -21 4305.65  337.96   1
   2  11 -20 6296.22 354.775   1
   2  11 -19 4041.62 339.235   1
   2  11 -18 2892.22 269.685   1
   2  11 -1710632.30  447.63   1
   2  11 -1622510.00 726.861   1
   2  11 -15 5545.36 282.978   1
   2  11 -1411387.80 418.972   1
   2  11 -13 6060.31 285.423   1
   2  11 -12 3058.58 214.968   1
   2  11 -11 3373.83 183.343   1
   2  11 -1025555.20 716.228   1
   2  11  -910070.00 338.078   1
   2  11  -825818.40 804.902   1
   2  11  -716908.50 530.843   1
   2  11  -6 2160.01 127.192   1
   2  11  -514886.70  471.17   1
   2  11  -445388.10 1258.07   1
   2  11  -334101.10 893.097   1
   2  11  -223416.40 745.864   1
   2  11  -119621.90 543.073   1
   2  11   0 1495.18 118.116   1
   2  11   120558.20 547.267   1
   2  11   223030.20 765.099   1
   2  11   329648.20 887.608   1
   2  11   447765.30 1263.70   1
   2  11   517211.70 497.897   1
   2  11   6 2287.49 152.262   1
   2  11   719311.90 549.448   1
   2  11   823620.20 646.736   1
   2  11   910220.60 332.892   1
   2  11  1028045.20 821.033   1
   2  11  11 5708.58 245.533   1
   2  11  12 2600.69 190.516   1
   2  11  13 5867.20 289.835   1
   2  11  14 8686.18 380.741   1
   2  11  15 2960.66 228.917   1
   2  11  1626003.30  955.51   1
   2  11  1710696.70 518.984   1
   2  11  18 2441.78 259.466   1
   2  11  19 3251.34 296.641   1
   2  11  20 4376.25 347.333   1
   2  11  21 4189.20 328.897   1
   2  11  22 6423.02 559.247   1
   2  11  23 3299.10 322.173   1
   2  11  24 531.294 362.819   1
   2  11  25 1307.38 722.735   1
   2  11  26 922.989 359.865   1
   2  11  27 2680.81 552.482   1
   2  11  28 3803.36 590.016   1
   2  11  29 1903.17 471.817   1
   2  12 -28 740.609 469.859   1
   2  12 -27 636.343 291.688   1
   2  12 -26 1785.43 355.095   1
   2  12 -25 516.722 326.011   1
   2  12 -24 3073.52 357.515   1
   2  12 -23 1693.26 284.523   1
   2  12 -22 1804.70  269.64   1
   2  12 -21 681.377 254.612   1
   2  12 -20 3888.63 311.087   1
   2  12 -19 2377.69 268.661   1
   2  12 -18 2767.86 289.637   1
   2  12 -17 8648.00 415.215   1
   2  12 -16 4253.93 257.375   1
   2  12 -15 2932.30 204.243   1
   2  12 -14 4520.43 237.591   1
   2  12 -13 8538.08 326.735   1
   2  12 -12 8278.01  314.94   1
   2  12 -11 5972.89 306.089   1
   2  12 -10 7642.58 306.348   1
   2  12  -9 4515.90 259.651   1
   2  12  -8 4181.17 218.262   1
   2  12  -711679.30 381.652   1
   2  12  -615012.10 529.816   1
   2  12  -5 2368.93 152.018   1
   2  12  -4 8684.37 334.425   1
   2  12  -3 4982.98 210.853   1
   2  12  -2 4408.81 222.541   1
   2  12  -1 2239.54 159.181   1
   2  12   021751.70 627.483   1
   2  12   1 2743.49 159.058   1
   2  12   2 5793.34 292.374   1
   2  12   3 5255.31  210.91   1
   2  12   4 7453.50 284.778   1
   2  12   5 1723.42 137.389   1
   2  12   615968.80 493.682   1
   2  12   713227.90 399.827   1
   2  12   8 5033.27 232.756   1
   2  12   9 5623.75  243.61   1
   2  12  10 6063.71 260.912   1
   2  12  11 6264.71 291.681   1
   2  12  12 7582.54 341.035   1
   2  12  13 9396.86 397.175   1
   2  12  14 4320.23  333.76   1
   2  12  15 2925.70 310.079   1
   2  12  16 3316.38 288.868   1
   2  12  17 8084.42 445.183   1
   2  12  18 2806.05 314.143   1
   2  12  19 2149.33 298.612   1
   2  12  20 4361.63 361.839   1
   2  12  21  608.27 248.675   1
   2  12  22 1049.88 256.868   1
   2  12  23 1890.33 342.901   1
   2  12  24 2869.85  419.83   1
   2  12  25  706.63 396.917   1
   2  12  26 2203.42 551.345   1
   2  12  27 956.048 444.181   1
   2  12  28 313.598 410.907   1
   2  13 -27 385.336 261.357   1
   2  13 -26-642.383  931.35   1
   2  13 -25  78.554 278.917   1
   2  13 -24 93.6272 289.064   1
   2  13 -23 613.285 336.773   1
   2  13 -22 470.158 257.564   1
   2  13 -21  356.48 356.597   1
   2  13 -20 103.297 239.639   1
   2  13 -19 869.651 233.564   1
   2  13 -18 717.358 242.671   1
   2  13 -17 433.301 198.714   1
   2  13 -16 1157.78 228.639   1
   2  13 -15 1842.96  191.89   1
   2  13 -14  189.75 165.342   1
   2  13 -13 724.185  162.47   1
   2  13 -12 1050.14  160.84   1
   2  13 -11 1090.10  249.30   1
   2  13 -10 990.852 171.979   1
   2  13  -9 759.174 225.902   1
   2  13  -8 71.4293 148.768   1
   2  13  -7 1622.73 188.407   1
   2  13  -6 3746.49 197.237   1
   2  13  -5 933.378 125.013   1
   2  13  -4 556.649 149.092   1
   2  13  -3 347.274 119.121   1
   2  13  -2 701.697 117.716   1
   2  13  -1 224.978 111.045   1
   2  13   0 1854.53 144.986   1
   2  13   1 418.693  118.49   1
   2  13   2 606.596 119.895   1
   2  13   3 652.967 154.573   1
   2  13   4 630.333 137.605   1
   2  13   5 904.627  137.20   1
   2  13   6 3289.82 236.675   1
   2  13   7 1439.38 201.979   1
   2  13   8-195.043 599.952   1
   2  13   9 610.566 140.089   1
   2  13  10 1134.84 162.205   1
   2  13  11 911.314 155.846   1
   2  13  12 709.383 197.607   1
   2  13  13 565.909 193.635   1
   2  13  14 296.627 238.543   1
   2  13  15 935.603 273.346   1
   2  13  16 677.822 243.077   1
   2  13  17 342.463  255.44   1
   2  13  18 853.903 259.582   1
   2  13  19 214.222 290.964   1
   2  13  20-141.741 778.811   1
   2  13  21 341.966 257.191   1
   2  13  22 341.621 304.342   1
   2  13  23 1171.93 335.369   1
   2  13  24 210.315 300.139   1
   2  13  25 811.184 395.819   1
   2  13  26 203.941 429.187   1
   2  13  27 1327.29 696.357   1
   2  14 -26 229.918 411.851   1
   2  14 -25-50.5066 691.108   1
   2  14 -24-161.384 690.274   1
   2  14 -23 2336.42 391.306   1
   2  14 -22 1758.11 334.966   1
   2  14 -21 511.741 290.665   1
   2  14 -20 626.468 258.459   1
   2  14 -19 78.2007 277.568   1
   2  14 -18  422.13 252.828   1
   2  14 -17 2379.21 317.013   1
   2  14 -16 2571.31 324.938   1
   2  14 -15 1746.66 238.804   1
   2  14 -14 369.166 229.124   1
   2  14 -13 1397.25 296.728   1
   2  14 -12 283.194 190.883   1
   2  14 -11 1954.47 230.583   1
   2  14 -10 4693.57 371.868   1
   2  14  -9 5740.65 390.623   1
   2  14  -8 4532.01 274.273   1
   2  14  -7 2113.15 211.634   1
   2  14  -6  695.07 196.858   1
   2  14  -5 4384.68 222.906   1
   2  14  -4 6332.76 305.219   1
   2  14  -3 7160.57 336.811   1
   2  14  -2 5046.92 271.373   1
   2  14  -1 790.201 185.675   1
   2  14   0 1048.34 156.433   1
   2  14   1 1232.46 147.658   1
   2  14   2 5500.66 275.132   1
   2  14   3 5669.42 328.424   1
   2  14   4 5608.20 278.001   1
   2  14   5 4786.01 261.836   1
   2  14   6 412.305 186.039   1
   2  14   7 1625.47 166.288   1
   2  14   8 4731.52  247.24   1
   2  14   9 3655.21  224.65   1
   2  14  10 4699.56  299.73   1
   2  14  11 2698.24 338.779   1
   2  14  12 425.348 211.738   1
   2  14  13 1627.44 321.558   1
   2  14  14  364.05 259.203   1
   2  14  15 1751.93 297.766   1
   2  14  16 2472.55 321.742   1
   2  14  17 3915.63 448.639   1
   2  14  18 617.156 286.391   1
   2  14  19  338.38 293.804   1
   2  14  20 879.612 442.009   1
   2  14  21 764.769 302.871   1
   2  14  22 2159.41 348.114   1
   2  14  23 1423.74 319.907   1
   2  14  24-15.3919 756.119   1
   2  14  25 401.094 391.501   1
   2  14  26 241.273 321.246   1
   2  15 -25 262.391 283.889   1
   2  15 -24 2484.02 343.041   1
   2  15 -23 1925.25 373.221   1
   2  15 -22 4357.08 586.727   1
   2  15 -21 2226.46 400.294   1
   2  15 -20  915.47 460.354   1
   2  15 -19 1102.24 453.132   1
   2  15 -18 2438.52 526.135   1
   2  15 -17 2599.29 402.608   1
   2  15 -16 7574.58  484.88   1
   2  15 -15 1603.59 285.565   1
   2  15 -14 4320.37 353.218   1
   2  15 -13 1169.18 257.228   1
   2  15 -12 7789.81 538.264   1
   2  15 -11 2799.46 276.607   1
   2  15 -1012108.10 497.428   1
   2  15  -9 6310.60 380.906   1
   2  15  -8 4726.09 311.214   1
   2  15  -7 3502.55  266.36   1
   2  15  -6 2411.13  207.91   1
   2  15  -5 3202.55 234.888   1
   2  15  -412421.40 585.711   1
   2  15  -311402.60 462.969   1
   2  15  -210413.80  454.46   1
   2  15  -1 8996.12 370.943   1
   2  15   0 4988.61 282.142   1
   2  15   110725.00 440.778   1
   2  15   210550.00 419.833   1
   2  15   313170.00 476.326   1
   2  15   411194.20 427.412   1
   2  15   5 4428.46 306.174   1
   2  15   6 2703.34 261.538   1
   2  15   7 4953.67 320.334   1
   2  15   8 6720.39  314.10   1
   2  15   9 4380.02 261.909   1
   2  15  1014123.60  502.48   1
   2  15  11 4154.60 318.228   1
   2  15  12 6993.53 377.731   1
   2  15  13 1331.28 281.725   1
   2  15  14 3695.36 338.454   1
   2  15  15 3079.90 357.156   1
   2  15  16 8209.42 511.401   1
   2  15  17 2802.34 349.751   1
   2  15  18 1221.20 484.399   1
   2  15  19 40.6083 381.723   1
   2  15  20 915.977 436.305   1
   2  15  21 1490.76  316.86   1
   2  15  22 4529.18 434.124   1
   2  15  23 2182.68 336.489   1
   2  15  24 1462.57 355.129   1
   2  15  25 188.505 310.255   1
   2  16 -24 1447.97 433.791   1
   2  16 -23 913.998  313.58   1
   2  16 -22 665.691 395.543   1
   2  16 -21 1221.77 433.828   1
   2  16 -20 3715.73 447.737   1
   2  16 -19 2438.02 469.036   1
   2  16 -18 3834.29 574.069   1
   2  16 -17 3553.14 389.565   1
   2  16 -16 1178.01 324.186   1
   2  16 -15 1843.33 326.631   1
   2  16 -14 4183.62 482.045   1
   2  16 -13 5868.46 384.556   1
   2  16 -12 5983.88 391.584   1
   2  16 -11 1971.81 339.774   1
   2  16 -10 6218.68 396.779   1
   2  16  -9 3123.42 309.621   1
   2  16  -8 5675.78 415.087   1
   2  16  -7 7937.82 477.601   1
   2  16  -612714.90 527.254   1
   2  16  -5 1687.75  248.22   1
   2  16  -4 4219.13 384.016   1
   2  16  -3 5062.52  378.80   1
   2  16  -2 6050.94 325.667   1
   2  16  -1 1183.38 289.914   1
   2  16   018633.00 724.646   1
   2  16   1 2298.99 252.976   1
   2  16   2 5187.29 307.857   1
   2  16   3 5970.20  310.71   1
   2  16   4 4416.15 277.593   1
   2  16   5 1534.15 233.594   1
   2  16   614327.70 526.904   1
   2  16   7 8030.86 374.178   1
   2  16   8 3976.40 276.074   1
   2  16   9 3113.66 275.649   1
   2  16  10 5381.36  291.47   1
   2  16  11 1768.05 318.576   1
   2  16  12 7927.20 492.181   1
   2  16  13 6654.91 427.724   1
   2  16  14 3893.40 436.868   1
   2  16  15 2688.77 375.152   1
   2  16  16 965.412 426.507   1
   2  16  17 3718.80 376.047   1
   2  16  18 4285.14 396.399   1
   2  16  19 2031.53 412.387   1
   2  16  20 3622.84 470.953   1
   2  16  21 1392.79 568.302   1
   2  16  22 1066.68 333.608   1
   2  16  23 204.898 240.979   1
   2  16  24 578.289 456.072   1
   2  17 -22-186.761 785.885   1
   2  17 -21 45.0466 353.477   1
   2  17 -20 809.544 357.187   1
   2  17 -19 1820.40 388.596   1
   2  17 -18 1689.95 524.604   1
   2  17 -17 832.605 371.918   1
   2  17 -16 706.603 465.571   1
   2  17 -15 574.524 292.503   1
   2  17 -14 971.956 270.955   1
   2  17 -13 2225.06 308.712   1
   2  17 -12 2446.18 316.291   1
   2  17 -11 6116.83 409.651   1
   2  17 -10 1034.16 370.584   1
   2  17  -9-388.113 872.201   1
   2  17  -8 1360.94 302.902   1
   2  17  -7 5085.33 426.939   1
   2  17  -6 3892.90 391.425   1
   2  17  -5 4986.90 376.334   1
   2  17  -4 1704.65 258.102   1
   2  17  -3 795.491 215.556   1
   2  17  -2 1609.20 250.076   1
   2  17  -1 4746.06 525.444   1
   2  17   0 3502.30 331.453   1
   2  17   1 5757.75 350.074   1
   2  17   2 1108.91 242.315   1
   2  17   3 1194.97 253.618   1
   2  17   4 2096.31 265.173   1
   2  17   5 3670.18 330.337   1
   2  17   6 3882.41  378.29   1
   2  17   7 3265.96  318.09   1
   2  17   8 748.643 230.706   1
   2  17   9  232.46 210.934   1
   2  17  10 885.685 286.538   1
   2  17  11 4159.04 416.429   1
   2  17  12 1693.82 286.076   1
   2  17  13 3912.84 355.064   1
   2  17  14 1749.95 313.691   1
   2  17  15-70.0584 1009.80   1
   2  17  16 540.217 285.466   1
   2  17  17 1609.67 299.189   1
   2  17  18 1144.32 431.482   1
   2  17  19 1887.71 425.296   1
   2  17  20 1000.57 271.577   1
   2  17  21-185.348  676.43   1
   2  17  22-345.473 1193.38   1
   2  18 -20-293.943 665.773   1
   2  18 -19 298.795 320.545   1
   2  18 -18 158.376  340.56   1
   2  18 -17 130.947 352.938   1
   2  18 -16 139.121 294.243   1
   2  18 -15 675.633 286.194   1
   2  18 -14 331.191 255.633   1
   2  18 -13-123.939 1371.40   1
   2  18 -12  834.40 314.981   1
   2  18 -11 384.554 299.056   1
   2  18 -10  393.11 412.785   1
   2  18  -9 296.874 346.111   1
   2  18  -8 1036.58 379.465   1
   2  18  -7 412.008 299.451   1
   2  18  -6-505.054 769.738   1
   2  18  -5 2434.10 284.946   1
   2  18  -4 5.57669 256.854   1
   2  18  -3 287.231 242.667   1
   2  18  -2 434.921 288.103   1
   2  18  -1 3189.44  375.09   1
   2  18   0 653.226 271.052   1
   2  18   1 2065.08 311.273   1
   2  18   2  213.89 236.162   1
   2  18   3 231.217 233.565   1
   2  18   4-115.455 680.637   1
   2  18   5 2925.90  280.58   1
   2  18   6 410.432 219.661   1
   2  18   7 510.867 219.223   1
   2  18   8  409.75 221.499   1
   2  18   9 383.066 366.531   1
   2  18  10 375.144 261.382   1
   2  18  11 538.894 296.038   1
   2  18  12 280.856 353.254   1
   2  18  13  648.78  315.09   1
   2  18  14 251.561 365.885   1
   2  18  15-135.053 801.053   1
   2  18  16 331.851 365.844   1
   2  18  17 123.404 259.924   1
   2  18  18 274.358 251.034   1
   2  18  19 686.394 484.422   1
   2  18  20 213.396  225.35   1
   2  19 -18 1341.22 383.019   1
   2  19 -17 249.653 583.738   1
   2  19 -16  988.04 364.502   1
   2  19 -15 137.573 312.115   1
   2  19 -14 1144.35 374.432   1
   2  19 -13 929.196 286.747   1
   2  19 -12 13.1506 284.086   1
   2  19 -11 451.342 293.543   1
   2  19 -10 1185.34 461.405   1
   2  19  -9 -176.08 753.467   1
   2  19  -8  493.02 414.613   1
   2  19  -7 498.269 262.062   1
   2  19  -6 2000.94 294.309   1
   2  19  -5 553.393 276.165   1
   2  19  -4 340.273 416.986   1
   2  19  -3 1426.16 886.667   1
   2  19  -2 1654.67 308.073   1
   2  19  -1 156.737 399.128   1
   2  19   0 768.657 308.604   1
   2  19   1 1030.78 499.995   1
   2  19   2 1847.85 500.221   1
   2  19   3  377.77 380.462   1
   2  19   4 345.378 240.088   1
   2  19   5 236.247 245.277   1
   2  19   6 1578.34  281.34   1
   2  19   7  636.74 269.857   1
   2  19   8 304.253 228.812   1
   2  19   9 228.899 299.671   1
   2  19  10 602.781 384.616   1
   2  19  11 86.6153 285.973   1
   2  19  12 234.589 266.789   1
   2  19  13-302.417 803.702   1
   2  19  14 393.798 359.852   1
   2  19  15-224.315 1466.94   1
   2  19  16 153.281 304.884   1
   2  19  17 229.981 259.005   1
   2  19  18 1210.02  281.44   1
   2  20 -16 242.659 466.963   1
   2  20 -15-404.813 707.915   1
   2  20 -14 982.815 349.616   1
   2  20 -13 3876.25 437.364   1
   2  20 -12 1529.66 341.479   1
   2  20 -11 450.278 375.351   1
   2  20 -10 905.817 268.896   1
   2  20  -9 829.655 334.444   1
   2  20  -8 1808.78 327.219   1
   2  20  -7 2589.60 303.925   1
   2  20  -6 391.658 382.324   1
   2  20  -5 605.708 359.508   1
   2  20  -4 1225.41 598.839   1
   2  20  -3 405.979  426.32   1
   2  20  -2 1336.23 426.746   1
   2  20  -1 1968.80 498.479   1
   2  20   0 2763.36 382.418   1
   2  20   1 933.795 352.979   1
   2  20   2 1062.64 383.824   1
   2  20   3  471.68  302.89   1
   2  20   4 1274.81 422.212   1
   2  20   5 141.485  278.09   1
   2  20   6 554.751 277.258   1
   2  20   7 2162.28 531.316   1
   2  20   8 953.731 464.174   1
   2  20   9 399.729 281.157   1
   2  20  10 703.474 287.712   1
   2  20  11 927.994 269.118   1
   2  20  12 1526.72 324.796   1
   2  20  13 3576.03 363.699   1
   2  20  14 1206.54 276.467   1
   2  20  15 438.562 254.731   1
   2  20  16 831.907 593.668   1
   2  21 -12 1256.01 280.298   1
   2  21 -11 1086.77 248.724   1
   2  21 -10 207.033 234.937   1
   2  21  -9 196.996 312.706   1
   2  21  -8 588.652 268.352   1
   2  21  -7 2563.96 388.155   1
   2  21  -6 1175.01 348.999   1
   2  21  -5 3083.60  533.85   1
   2  21  -4 574.636 407.256   1
   2  21  -3 1523.27 580.941   1
   2  21  -2 467.938  403.62   1
   2  21  -1 3094.07 484.473   1
   2  21   0 1338.30 355.327   1
   2  21   1 2563.00 338.522   1
   2  21   2  347.49 462.548   1
   2  21   3 1009.60 305.095   1
   2  21   4 1134.02 333.976   1
   2  21   5 2086.25 358.402   1
   2  21   6 1564.00  319.39   1
   2  21   7 3723.20 452.327   1
   2  21   8 870.746 265.135   1
   2  21   9-210.661 691.331   1
   2  21  10 812.726 455.784   1
   2  21  11 1020.38 346.463   1
   2  21  12 1354.90  326.62   1
   2  21  13 1791.22 771.117   1
   2  22  -8-94.8799 651.636   1
   2  22  -7 547.981 323.165   1
   2  22  -6 461.693 287.494   1
   2  22  -5 1486.46 339.397   1
   2  22  -4  250.09 301.664   1
   2  22  -3 953.412 328.723   1
   2  22  -2 892.878 300.195   1
   2  22  -1  942.51  329.00   1
   2  22   0 790.613 340.943   1
   2  22   1 685.281  378.32   1
   2  22   2 534.922 531.502   1
   2  22   3 987.966 278.878   1
   2  22   4 398.536 326.317   1
   2  22   5 1283.35 289.887   1
   2  22   6 795.111 337.165   1
   2  22   7 571.753 261.451   1
   2  22   8-77.6958 603.008   1
   3   0   1 154.847 67.5697   1
   3   0   213999.70  501.59   1
   3   0   3 1977.69 133.688   1
   3   0   4 855.072 107.925   1
   3   0   540147.80 1161.98   1
   3   0   6 1391.69 176.747   1
   3   0   7 1427.83 135.969   1
   3   0   8 2705.75 167.343   1
   3   0   9 6171.46 280.538   1
   3   0  10 9647.74 371.704   1
   3   0  1113262.20 466.576   1
   3   0  12 205.005  120.39   1
   3   0  13 2151.88 122.641   1
   3   0  1418101.60 494.235   1
   3   0  1511033.20 328.221   1
   3   0  16 1522.52 147.049   1
   3   0  17 8004.78 281.024   1
   3   0  18 3070.98 181.985   1
   3   0  19 1963.02  250.84   1
   3   0  20 3288.66 226.736   1
   3   0  21-32.2295 720.373   1
   3   0  22 0.55283 177.357   1
   3   0  23 85.9595 198.514   1
   3   0  24 1218.54 227.929   1
   3   0  25 639.375  244.35   1
   3   0  26 2485.97 313.256   1
   3   0  27 334.863 292.885   1
   3   0  28-141.071 1257.93   1
   3   0  29 123.923  363.70   1
   3   0  30 161.747  386.63   1
   3   0  31 656.548 650.048   1
   3   0  32 796.305 359.196   1
   3   0  33 607.645 319.315   1
   3   1 -33 2256.16 585.433   1
   3   1 -32 1189.76 407.634   1
   3   1 -31 512.425 389.956   1
   3   1 -30 276.199 414.672   1
   3   1 -29 2690.18 433.372   1
   3   1 -28 840.433 487.537   1
   3   1 -27 4673.44 354.349   1
   3   1 -26  609.00  273.71   1
   3   1 -25 6991.09 455.798   1
   3   1 -24 1647.65 252.993   1
   3   1 -23 2567.80 229.152   1
   3   1 -22 634.755 172.203   1
   3   1 -2117075.50 585.403   1
   3   1 -20 1627.41 179.184   1
   3   1 -19 8792.83 342.294   1
   3   1 -18 7001.57 284.219   1
   3   1 -1710521.00 431.305   1
   3   1 -16 3830.55 172.033   1
   3   1 -1512050.70 369.714   1
   3   1 -14 8375.83 260.595   1
   3   1 -1316276.60 451.596   1
   3   1 -1229108.20 831.365   1
   3   1 -1118858.70 614.565   1
   3   1 -10 1595.54 137.837   1
   3   1  -925825.60 723.649   1
   3   1  -821701.70 673.971   1
   3   1  -749093.40 1287.48   1
   3   1  -613499.80 438.443   1
   3   1  -575736.90 2000.68   1
   3   1  -412851.30 432.791   1
   3   1  -340694.40 1114.35   1
   3   1  -2 6018.76 315.258   1
   3   1  -1110579.0 2733.82   1
   3   1   032428.50 828.428   1
   3   1   1112527.0 2785.98   1
   3   1   2 6769.29  246.02   1
   3   1   334225.60 967.021   1
   3   1   411929.60 414.977   1
   3   1   581654.70 2110.51   1
   3   1   613574.80 450.779   1
   3   1   740271.70 1317.88   1
   3   1   817843.30 546.466   1
   3   1   921482.50 896.841   1
   3   1  10 902.273 151.372   1
   3   1  1122470.90 757.433   1
   3   1  1229957.60 812.962   1
   3   1  1312884.50 379.277   1
   3   1  14 9734.31 314.711   1
   3   1  1513655.60 392.782   1
   3   1  16 4472.98 193.656   1
   3   1  1713350.30 419.039   1
   3   1  18 6790.01 354.582   1
   3   1  19 7365.03 335.702   1
   3   1  20  668.08 248.196   1
   3   1  2119394.20 788.886   1
   3   1  22 731.159 190.033   1
   3   1  23 2764.56 253.608   1
   3   1  24 1450.13 243.429   1
   3   1  25 7108.00 445.791   1
   3   1  26 1764.55 282.257   1
   3   1  27 5041.10 411.057   1
   3   1  28  583.82 331.578   1
   3   1  29 740.424 320.819   1
   3   1  30-242.755 816.377   1
   3   1  31 1635.79 565.383   1
   3   1  32 1371.84 608.259   1
   3   1  33 1986.73 490.588   1
   3   2 -33-181.449 741.004   1
   3   2 -32 663.049 307.905   1
   3   2 -31 305.559 387.734   1
   3   2 -30 595.769 373.982   1
   3   2 -29 2734.39 431.187   1
   3   2 -2812863.80 691.781   1
   3   2 -27 1567.06  290.39   1
   3   2 -26 1042.00 258.682   1
   3   2 -25-60.6941 1067.14   1
   3   2 -24 4346.32  387.62   1
   3   2 -23 3919.85 270.233   1
   3   2 -2230723.50  919.65   1
   3   2 -21 7965.78  331.99   1
   3   2 -20 3292.67 222.612   1
   3   2 -1910171.50 363.819   1
   3   2 -18 8343.30 384.703   1
   3   2 -1713055.90 440.915   1
   3   2 -1637864.50 980.735   1
   3   2 -1549124.70 1317.46   1
   3   2 -1425110.70 740.357   1
   3   2 -13 1182.05 98.0485   1
   3   2 -12 8442.78 312.368   1
   3   2 -1155333.90 1516.35   1
   3   2 -1052009.30 1414.28   1
   3   2  -990009.40 2671.93   1
   3   2  -8107784.0 2783.35   1
   3   2  -7 8091.88 335.993   1
   3   2  -6 7391.30 394.444   1
   3   2  -558075.60 1524.36   1
   3   2  -4102056.0 2627.39   1
   3   2  -380389.10 2060.86   1
   3   2  -2195655.0 5179.44   1
   3   2  -1 1500.68 148.252   1
   3   2   0 5715.10 313.952   1
   3   2   1 59.5339 67.0035   1
   3   2   2197067.0 5056.58   1
   3   2   375593.20 2033.76   1
   3   2   4101316.0 2886.45   1
   3   2   563029.70 1893.71   1
   3   2   6 7567.58 345.233   1
   3   2   7 7262.08 279.297   1
   3   2   8104640.0 3149.83   1
   3   2   990558.60 3106.48   1
   3   2  1052339.10 1511.87   1
   3   2  1156638.00 1649.21   1
   3   2  12 9689.96 315.463   1
   3   2  13 1453.80  115.60   1
   3   2  1426800.00  724.93   1
   3   2  1549270.00 1277.46   1
   3   2  1640626.20 1116.36   1
   3   2  1714733.80 469.597   1
   3   2  18 9433.98 358.916   1
   3   2  1910129.40 393.724   1
   3   2  20 4154.99 420.618   1
   3   2  21 9151.75 389.095   1
   3   2  2229978.50 959.654   1
   3   2  23 4270.26 361.765   1
   3   2  24 3349.97 285.999   1
   3   2  25-337.293 784.655   1
   3   2  26 1241.01 273.094   1
   3   2  27 2252.06  307.57   1
   3   2  2812477.70 750.816   1
   3   2  29 1655.73 343.902   1
   3   2  30 1600.36  343.93   1
   3   2  31 911.628 333.208   1
   3   2  32 1056.11 348.015   1
   3   2  33-182.111 684.312   1
   3   3 -33 1420.73 385.857   1
   3   3 -32 1660.04 334.789   1
   3   3 -31 1509.93 517.744   1
   3   3 -30 274.724 412.555   1
   3   3 -29 3442.59 440.681   1
   3   3 -28 2095.93 497.956   1
   3   3 -2712043.80 601.457   1
   3   3 -26 3591.95 317.257   1
   3   3 -25 5088.59 339.075   1
   3   3 -24 4380.16 310.948   1
   3   3 -2312630.90 520.238   1
   3   3 -22 3784.72 245.153   1
   3   3 -2116059.40 540.922   1
   3   3 -20 8027.02 310.695   1
   3   3 -1912177.20 381.296   1
   3   3 -1824585.80 756.862   1
   3   3 -1725372.60 688.678   1
   3   3 -1615036.30 433.253   1
   3   3 -1540178.80 1080.85   1
   3   3 -1430014.90 789.321   1
   3   3 -13 5304.77 209.333   1
   3   3 -1248363.00 1298.97   1
   3   3 -1159308.10 1722.01   1
   3   3 -1022054.30 812.895   1
   3   3  -961680.10 1771.11   1
   3   3  -860432.80 1842.48   1
   3   3  -756181.80 1567.19   1
   3   3  -647011.60 1455.38   1
   3   3  -5122123.0 3211.69   1
   3   3  -456066.90 1611.91   1
   3   3  -3114924.0 3056.69   1
   3   3  -288205.30 2286.64   1
   3   3  -175592.80 1918.97   1
   3   3   021105.80 610.717   1
   3   3   178426.10 2175.17   1
   3   3   291040.10 2386.66   1
   3   3   3125630.0 3556.93   1
   3   3   459910.60 1823.14   1
   3   3   5132223.0 3701.05   1
   3   3   647438.70 1550.13   1
   3   3   752419.30 1511.27   1
   3   3   858124.40 1786.97   1
   3   3   969840.30 1925.20   1
   3   3  1023083.20 962.041   1
   3   3  1149612.00 1340.88   1
   3   3  1245219.30 1154.06   1
   3   3  13 8256.55 283.747   1
   3   3  1428219.40 759.927   1
   3   3  1536963.80 1008.64   1
   3   3  1615330.80 465.271   1
   3   3  1722686.60 679.998   1
   3   3  1823933.90 710.341   1
   3   3  1910977.40 468.589   1
   3   3  20 6228.49  362.30   1
   3   3  2114705.00 582.721   1
   3   3  22 4770.32 300.525   1
   3   3  2312485.00 533.153   1
   3   3  24 3233.36 276.857   1
   3   3  25 3194.84 405.447   1
   3   3  26 2320.38 271.286   1
   3   3  2710541.10 549.359   1
   3   3  28 2175.51 390.788   1
   3   3  29 4892.54 516.432   1
   3   3  30 1812.02 389.797   1
   3   3  31 1548.94 344.097   1
   3   3  32 1520.02 430.268   1
   3   3  33 2504.31 428.732   1
   3   4 -32 2037.19 345.483   1
   3   4 -31 5196.73 543.886   1
   3   4 -30 1324.61 366.195   1
   3   4 -29 551.451 311.808   1
   3   4 -28-64.5552 741.792   1
   3   4 -27 2814.89  320.62   1
   3   4 -26 1398.90 330.569   1
   3   4 -25 8136.79 430.164   1
   3   4 -24 3070.15 306.988   1
   3   4 -23 1664.55 235.448   1
   3   4 -22-165.361 631.093   1
   3   4 -21 1066.70  167.01   1
   3   4 -2015157.80 492.364   1
   3   4 -1922721.40 653.219   1
   3   4 -18 5433.33 228.085   1
   3   4 -17 8372.91 287.261   1
   3   4 -16 5524.66  199.88   1
   3   4 -15 2253.04 133.455   1
   3   4 -14 7740.61 255.718   1
   3   4 -1354984.80 1577.41   1
   3   4 -1231188.30 976.804   1
   3   4 -1133086.70 1081.33   1
   3   4 -10 5255.97 313.944   1
   3   4  -9 1443.48 273.229   1
   3   4  -825932.20 991.777   1
   3   4  -7130124.0 3553.57   1
   3   4  -610516.60 485.004   1
   3   4  -555387.90 1515.62   1
   3   4  -413098.50 451.207   1
   3   4  -3 4256.11 219.692   1
   3   4  -222187.40 663.447   1
   3   4  -1105869.0 2783.03   1
   3   4   090057.70 2388.91   1
   3   4   1101987.0 2646.74   1
   3   4   216028.40 539.148   1
   3   4   3 3904.72 220.456   1
   3   4   412442.90 607.737   1
   3   4   554463.10 1679.13   1
   3   4   6 6530.48 350.916   1
   3   4   7121974.0 3406.25   1
   3   4   825951.90 1130.67   1
   3   4   9 1963.67 218.778   1
   3   4  10 5199.47 322.047   1
   3   4  1125620.90 697.399   1
   3   4  1228513.70 757.754   1
   3   4  1360792.90 1567.45   1
   3   4  14 8457.96 287.582   1
   3   4  15 3126.21 162.151   1
   3   4  16 5468.12 225.141   1
   3   4  17 7799.74 283.792   1
   3   4  18 5671.49 245.873   1
   3   4  1925897.70 743.466   1
   3   4  2015656.50 649.175   1
   3   4  21 1153.82 184.093   1
   3   4  22 139.724 233.232   1
   3   4  23 2362.49 253.829   1
   3   4  24 3199.70 288.851   1
   3   4  25 8685.32 447.503   1
   3   4  26 988.458 250.951   1
   3   4  27 1636.31 402.409   1
   3   4  28 809.104  288.16   1
   3   4  29 442.279 422.368   1
   3   4  30 1546.71 354.976   1
   3   4  31 3579.08 455.629   1
   3   4  32 2422.88 395.309   1
   3   5 -32 113.812 257.619   1
   3   5 -31 444.906 303.176   1
   3   5 -30 816.627 336.171   1
   3   5 -29-120.839 709.605   1
   3   5 -28 1181.74 305.001   1
   3   5 -27 641.899 316.589   1
   3   5 -26 337.946 213.733   1
   3   5 -25 785.416 220.992   1
   3   5 -24 2459.67 381.638   1
   3   5 -23 1590.89 235.471   1
   3   5 -22 2331.88 260.689   1
   3   5 -21 1548.71 180.938   1
   3   5 -20 378.847 161.146   1
   3   5 -19 590.509 151.018   1
   3   5 -18 2353.27 218.235   1
   3   5 -17 1865.49  156.91   1
   3   5 -16 935.888 136.453   1
   3   5 -15 1499.22 135.846   1
   3   5 -14 3716.93  172.59   1
   3   5 -13 4183.62 177.371   1
   3   5 -12 4520.44 195.897   1
   3   5 -11 4198.60 220.553   1
   3   5 -10 9734.36 403.495   1
   3   5  -914797.00 607.554   1
   3   5  -8 870.802 190.034   1
   3   5  -7 1425.79 178.545   1
   3   5  -6 3667.59 221.227   1
   3   5  -5 5498.23 247.682   1
   3   5  -412631.80 437.296   1
   3   5  -3 4101.31 205.549   1
   3   5  -212601.10 478.897   1
   3   5  -122035.70 691.572   1
   3   5   024834.30 749.472   1
   3   5   122269.40 738.827   1
   3   5   214445.60 596.791   1
   3   5   3 4785.50 321.045   1
   3   5   415344.50 820.612   1
   3   5   5 5286.92 287.941   1
   3   5   6 2646.59 231.212   1
   3   5   7 709.742 138.632   1
   3   5   8 1864.57 188.667   1
   3   5   913581.50 652.245   1
   3   5  10 9131.95 284.237   1
   3   5  11 3673.53 163.101   1
   3   5  12 4238.04 178.053   1
   3   5  13 3924.69  204.06   1
   3   5  14 4903.79 206.375   1
   3   5  15 2267.17 156.204   1
   3   5  16 1451.79 168.655   1
   3   5  17 2349.19  213.03   1
   3   5  18 1535.54 153.177   1
   3   5  19 337.105 160.149   1
   3   5  20 520.725 167.364   1
   3   5  21 2071.13 211.614   1
   3   5  22 2072.09  246.32   1
   3   5  23 1427.11 369.851   1
   3   5  24 1980.35 291.329   1
   3   5  25 1256.26 388.111   1
   3   5  26-24.6045 855.906   1
   3   5  27 342.442 279.664   1
   3   5  28 1176.14 336.901   1
   3   5  29 344.966 321.528   1
   3   5  30 1132.94 305.627   1
   3   5  31-157.533 734.953   1
   3   5  32-365.102  716.78   1
   3   6 -32 1005.39  368.65   1
   3   6 -31 501.584 311.061   1
   3   6 -30  620.35 256.579   1
   3   6 -29 848.031  289.90   1
   3   6 -28 3349.38 392.875   1
   3   6 -27 715.052 299.715   1
   3   6 -26 1922.53 284.935   1
   3   6 -25 401.846 278.831   1
   3   6 -24 2613.04 259.118   1
   3   6 -23 1903.09 242.607   1
   3   6 -22 5641.67  300.48   1
   3   6 -21 2561.48 223.734   1
   3   6 -20 2703.97 215.403   1
   3   6 -19 616.911  170.95   1
   3   6 -18 5001.56 250.279   1
   3   6 -17 2297.75 220.191   1
   3   6 -16 7528.08 291.397   1
   3   6 -1511339.60 409.143   1
   3   6 -14 9754.64 354.211   1
   3   6 -13 4030.67 197.457   1
   3   6 -12 5358.17 208.328   1
   3   6 -1117913.30 569.665   1
   3   6 -10 9957.20 319.083   1
   3   6  -914977.10 448.429   1
   3   6  -843199.60 1162.61   1
   3   6  -713431.50 477.405   1
   3   6  -6 6506.41 294.418   1
   3   6  -5 4557.68 241.113   1
   3   6  -443983.80 1194.65   1
   3   6  -3 4009.95 217.397   1
   3   6  -262625.70 1728.36   1
   3   6  -1 1710.79 150.996   1
   3   6   0 2258.89 178.165   1
   3   6   1 2276.59 237.475   1
   3   6   261426.60 2118.93   1
   3   6   3 2818.89 198.787   1
   3   6   442333.80 1474.86   1
   3   6   5 4615.71 248.648   1
   3   6   6 5592.11 313.275   1
   3   6   715434.30  543.80   1
   3   6   841400.90 1160.72   1
   3   6   914197.70 423.914   1
   3   6  1010915.80 315.375   1
   3   6  1119375.60 529.343   1
   3   6  12 5471.34 196.342   1
   3   6  13 3701.63 171.428   1
   3   6  1410409.90 401.952   1
   3   6  1511310.20  357.36   1
   3   6  16 6729.12 289.257   1
   3   6  17 2799.74 189.569   1
   3   6  18 5714.55 258.133   1
   3   6  19 705.771 144.936   1
   3   6  20 1873.37 217.658   1
   3   6  21 1684.46 224.889   1
   3   6  22 6117.13 369.985   1
   3   6  23 1296.96 287.112   1
   3   6  24 2962.40 319.042   1
   3   6  25 461.194 306.416   1
   3   6  26 1612.25 296.513   1
   3   6  27  584.63 347.251   1
   3   6  28 2411.51 434.166   1
   3   6  29 344.972 364.932   1
   3   6  30 1333.90 340.202   1
   3   6  31 741.392 292.135   1
   3   6  32  279.32 345.914   1
   3   7 -31 184.503 319.921   1
   3   7 -30 1196.46 377.862   1
   3   7 -29 1322.79 332.569   1
   3   7 -28 1867.58 291.321   1
   3   7 -27 1602.07 279.808   1
   3   7 -26 1665.22 293.793   1
   3   7 -25 2303.75 264.149   1
   3   7 -24 4243.39 311.576   1
   3   7 -23 3496.44 260.521   1
   3   7 -22 9250.11 430.357   1
   3   7 -21 9954.43 602.225   1
   3   7 -20 5710.01 291.906   1
   3   7 -19 1087.54 188.126   1
   3   7 -1818465.60 595.394   1
   3   7 -1711916.50 424.937   1
   3   7 -16 7540.04 334.782   1
   3   7 -1512687.50 412.104   1
   3   7 -1416984.30 524.504   1
   3   7 -13 1425.14 122.557   1
   3   7 -1232888.40 943.536   1
   3   7 -1114045.60 494.156   1
   3   7 -1031427.40 834.586   1
   3   7  -931542.40 831.435   1
   3   7  -839467.50 1078.39   1
   3   7  -7 5367.05 212.381   1
   3   7  -623765.50 785.174   1
   3   7  -525649.80 838.981   1
   3   7  -426931.50 817.251   1
   3   7  -352169.30 1625.24   1
   3   7  -255898.80 1647.08   1
   3   7  -135832.00 1008.82   1
   3   7   016825.20 585.064   1
   3   7   131515.20 989.132   1
   3   7   258098.60 1689.14   1
   3   7   367847.20 1969.09   1
   3   7   425060.30  927.65   1
   3   7   530040.00 1130.21   1
   3   7   624366.60 723.796   1
   3   7   7 6385.22 233.182   1
   3   7   843167.10 1104.23   1
   3   7   931242.70 793.124   1
   3   7  1033292.20  832.20   1
   3   7  1115882.80  434.23   1
   3   7  1233357.00 855.541   1
   3   7  13 2100.18 136.546   1
   3   7  1418740.70 549.063   1
   3   7  1516226.70 495.988   1
   3   7  16 7385.80 286.082   1
   3   7  17 8242.02  387.04   1
   3   7  1819245.30 601.548   1
   3   7  19 1462.46 174.789   1
   3   7  20 5365.50 305.494   1
   3   7  21 7026.08 377.891   1
   3   7  22 9349.22 500.078   1
   3   7  23 5374.73 332.459   1
   3   7  24 3970.17 367.543   1
   3   7  25 2525.70 363.493   1
   3   7  26 2199.11 324.944   1
   3   7  27 1474.00 487.699   1
   3   7  28 2063.87 372.267   1
   3   7  29 1707.27 338.743   1
   3   7  30 1606.31  360.76   1
   3   7  31  411.02 306.144   1
   3   8 -31 3494.82 673.479   1
   3   8 -30 1747.60 312.454   1
   3   8 -29 474.205 265.279   1
   3   8 -28-342.657 954.668   1
   3   8 -27 3039.46 300.041   1
   3   8 -26 2907.20  338.97   1
   3   8 -25 7761.64 421.312   1
   3   8 -24 3210.78 280.862   1
   3   8 -23 1628.50 233.895   1
   3   8 -22 1110.28 230.571   1
   3   8 -21 3321.80  240.28   1
   3   8 -20 6622.20 310.347   1
   3   8 -1917788.20 718.741   1
   3   8 -1816361.20 564.938   1
   3   8 -17 3584.55  234.80   1
   3   8 -16 1115.97 176.354   1
   3   8 -15 607.853 137.946   1
   3   8 -1415448.90  543.27   1
   3   8 -1348449.80 1437.74   1
   3   8 -1223746.80 708.659   1
   3   8 -1113294.70 428.001   1
   3   8 -1021154.80 587.744   1
   3   8  -9-34.0055 341.202   1
   3   8  -816840.20 489.229   1
   3   8  -773593.70 1949.62   1
   3   8  -649614.20 1261.47   1
   3   8  -525102.20 648.028   1
   3   8  -4 9599.15 344.893   1
   3   8  -3 5921.66 336.762   1
   3   8  -226847.40 770.239   1
   3   8  -170621.50 1833.27   1
   3   8   046511.20 1229.61   1
   3   8   160638.40 1600.33   1
   3   8   226672.50 791.481   1
   3   8   3 5028.75 242.875   1
   3   8   410902.00 348.045   1
   3   8   522532.40 639.498   1
   3   8   646530.60 1235.95   1
   3   8   770374.80 1787.99   1
   3   8   814090.20  419.60   1
   3   8   9 248.173 85.4289   1
   3   8  1020866.80 558.459   1
   3   8  11 8610.73 311.225   1
   3   8  1222296.80  602.13   1
   3   8  1348617.30 1240.87   1
   3   8  1418407.60 525.073   1
   3   8  15 2124.57 221.331   1
   3   8  16 1496.82 171.426   1
   3   8  17 5410.75 258.544   1
   3   8  1816992.60 685.356   1
   3   8  1924135.00 881.721   1
   3   8  20 7074.56 381.727   1
   3   8  21 3815.04 290.924   1
   3   8  22 1522.29 269.016   1
   3   8  23 2542.79 332.509   1
   3   8  24 2430.49 319.983   1
   3   8  25 8115.56 646.139   1
   3   8  26 3576.45 461.664   1
   3   8  27 3151.39 455.699   1
   3   8  28-785.722 986.891   1
   3   8  29 1156.51 815.831   1
   3   8  30 1519.04 560.462   1
   3   8  31 2944.22 484.503   1
   3   9 -30 3039.04 387.877   1
   3   9 -29 632.347 319.841   1
   3   9 -28 1314.64  403.31   1
   3   9 -27  68.049 215.383   1
   3   9 -26 4983.89 368.431   1
   3   9 -25 813.347 253.299   1
   3   9 -24 8159.29 411.623   1
   3   9 -23 1938.41 266.594   1
   3   9 -22 459.836 209.817   1
   3   9 -21 1862.91 221.858   1
   3   9 -20 7831.46 348.666   1
   3   9 -19 2325.66 227.794   1
   3   9 -1817885.90 607.244   1
   3   9 -1716321.20 528.844   1
   3   9 -16 9377.54 348.151   1
   3   9 -15 1303.16 161.642   1
   3   9 -14 8172.63 319.804   1
   3   9 -1311593.70 390.787   1
   3   9 -1228084.20 901.461   1
   3   9 -1112820.60  453.18   1
   3   9 -10 3622.90 190.849   1
   3   9  -9 4084.25 191.372   1
   3   9  -811704.40 353.544   1
   3   9  -713498.40 396.972   1
   3   9  -666710.40 1655.00   1
   3   9  -5 7220.15 248.221   1
   3   9  -427160.30 725.379   1
   3   9  -313559.80 443.684   1
   3   9  -217206.00 493.664   1
   3   9  -1 3015.92 141.579   1
   3   9   070483.30 1746.71   1
   3   9   1 2002.78 174.053   1
   3   9   214943.40 453.163   1
   3   9   316563.60  459.40   1
   3   9   425927.10 685.227   1
   3   9   5 5623.79 258.254   1
   3   9   665892.30 1658.25   1
   3   9   715058.00 525.209   1
   3   9   813336.80 389.164   1
   3   9   9 4676.97 188.272   1
   3   9  10 6022.35 233.189   1
   3   9  1113554.60 415.507   1
   3   9  1227208.80 736.307   1
   3   9  1310050.30 341.747   1
   3   9  14 8476.76 303.548   1
   3   9  15 2402.80 201.737   1
   3   9  16 6707.62  288.01   1
   3   9  1713004.60 659.022   1
   3   9  1818448.60 588.208   1
   3   9  19 1715.29 190.772   1
   3   9  20 7238.27 355.431   1
   3   9  21 1210.82 223.382   1
   3   9  22 416.603 322.156   1
   3   9  23 2292.07 333.313   1
   3   9  24 9203.68 697.861   1
   3   9  25  313.22 370.784   1
   3   9  26 4466.80 552.647   1
   3   9  27 1265.40 644.105   1
   3   9  28 683.234  596.16   1
   3   9  29-11.1988 712.113   1
   3   9  30 4073.33 609.935   1
   3  10 -29 370.308 435.631   1
   3  10 -28 895.011 256.962   1
   3  10 -27 1663.63  267.87   1
   3  10 -26 27.2689 298.406   1
   3  10 -25 1243.97 277.601   1
   3  10 -24 519.724 258.113   1
   3  10 -23 3909.14 393.961   1
   3  10 -22 2590.27 284.495   1
   3  10 -21 610.551 258.019   1
   3  10 -20 929.272 229.809   1
   3  10 -19 1559.48 226.105   1
   3  10 -18 599.867 313.539   1
   3  10 -17 1869.13 199.511   1
   3  10 -16 8285.12 357.865   1
   3  10 -15  519.74 159.109   1
   3  10 -14 2904.34 209.325   1
   3  10 -13 3756.51 266.102   1
   3  10 -12 102.588 119.964   1
   3  10 -11 1894.08 155.622   1
   3  10 -1011119.80 374.562   1
   3  10  -9 322.748 103.212   1
   3  10  -8 4092.24 178.429   1
   3  10  -7 7750.16 268.621   1
   3  10  -6 1550.58 139.976   1
   3  10  -5 2067.88 150.578   1
   3  10  -4 8066.27 306.732   1
   3  10  -3 5480.03 224.996   1
   3  10  -2 4817.01 234.109   1
   3  10  -1 5962.10 255.825   1
   3  10   0 184.508 79.5148   1
   3  10   1 6926.62 241.014   1
   3  10   2 4593.42 186.388   1
   3  10   3 5640.06 219.404   1
   3  10   4 7634.20 284.155   1
   3  10   5 2895.12 149.958   1
   3  10   6 1211.46 123.746   1
   3  10   7 9464.18  321.06   1
   3  10   8 4842.74 220.972   1
   3  10   9 944.089 131.399   1
   3  10  1012175.20 418.268   1
   3  10  11 1961.07  182.98   1
   3  10  12 196.766 131.892   1
   3  10  13 3113.76 210.335   1
   3  10  14 3623.92 201.708   1
   3  10  15 1166.40 155.972   1
   3  10  16 8596.01 339.133   1
   3  10  17 2179.85 201.031   1
   3  10  18 829.805 219.115   1
   3  10  19 1137.18 219.535   1
   3  10  20 1141.75  269.56   1
   3  10  21  413.12 270.196   1
   3  10  22 3139.32 355.135   1
   3  10  23 2564.79 405.244   1
   3  10  24 527.257 425.937   1
   3  10  25-380.685 749.956   1
   3  10  26 1222.30 1270.97   1
   3  10  27 2318.96 744.635   1
   3  10  28 546.947 761.302   1
   3  10  29 1124.42 647.424   1
   3  10  30 1008.43 816.612   1
   3  11 -29 223.889 553.803   1
   3  11 -28 780.555 423.896   1
   3  11 -27 157.667  267.19   1
   3  11 -26  282.15 262.519   1
   3  11 -25 329.194 345.038   1
   3  11 -24-109.302 767.662   1
   3  11 -23 1434.24 296.435   1
   3  11 -22 2003.39 309.137   1
   3  11 -21-37.5306  923.68   1
   3  11 -20 -64.182 727.808   1
   3  11 -19 591.672 268.071   1
   3  11 -18 3651.86 379.844   1
   3  11 -17 3353.25  295.01   1
   3  11 -16 2919.86 257.186   1
   3  11 -15 1557.21 217.435   1
   3  11 -14 832.307 173.153   1
   3  11 -13 1758.72 250.234   1
   3  11 -12 5258.35 257.015   1
   3  11 -11 4401.21 226.725   1
   3  11 -10 2793.33  173.40   1
   3  11  -9 6547.24 345.312   1
   3  11  -8 5294.10 248.047   1
   3  11  -7 377.867 122.116   1
   3  11  -6 5310.05 282.409   1
   3  11  -5 2808.97  192.18   1
   3  11  -4 2804.18 170.311   1
   3  11  -3 3527.39 180.703   1
   3  11  -2 4039.41 182.844   1
   3  11  -1 1594.55 153.656   1
   3  11   0 846.761 109.671   1
   3  11   1 1410.97 118.779   1
   3  11   2 4447.05 196.427   1
   3  11   3 3272.43 190.008   1
   3  11   4 3235.66 171.401   1
   3  11   5 2997.07 160.976   1
   3  11   6 4968.24 216.581   1
   3  11   7 592.297  109.91   1
   3  11   8 4685.94 214.026   1
   3  11   9 7576.13 311.877   1
   3  11  10 3027.52 185.442   1
   3  11  11 3689.07 224.064   1
   3  11  12 5281.04  283.21   1
   3  11  13 1072.50 161.123   1
   3  11  14 1202.69 224.597   1
   3  11  15 1488.01 296.968   1
   3  11  16 2428.04 254.457   1
   3  11  17 1663.19 252.053   1
   3  11  18 2942.93 300.092   1
   3  11  19 378.723  285.42   1
   3  11  20 226.162 279.332   1
   3  11  21 259.783 264.709   1
   3  11  22 1079.28 424.463   1
   3  11  23 1212.91 322.547   1
   3  11  24 886.928 412.742   1
   3  11  25 1370.28 450.057   1
   3  11  26 611.467 684.101   1
   3  11  27 1052.29 488.229   1
   3  11  28 401.153 531.083   1
   3  11  29 1232.86 459.959   1
   3  12 -28 566.837 358.599   1
   3  12 -27 2512.97  474.34   1
   3  12 -26 1957.94 340.437   1
   3  12 -25 3168.63 355.398   1
   3  12 -24 1218.71 515.716   1
   3  12 -23 2872.91 528.234   1
   3  12 -22 1726.11 377.657   1
   3  12 -21 2551.63 380.751   1
   3  12 -20  859.80 274.202   1
   3  12 -19 8336.61 524.056   1
   3  12 -18 2377.78 259.252   1
   3  12 -17 5209.30 324.249   1
   3  12 -16 920.571 259.402   1
   3  12 -15 1006.01 269.718   1
   3  12 -14 3685.39 263.594   1
   3  12 -1319501.70 741.172   1
   3  12 -12 5409.26 287.757   1
   3  12 -11 9759.43 392.867   1
   3  12 -10 993.189 175.693   1
   3  12  -9 855.766 183.637   1
   3  12  -8 3106.63  197.21   1
   3  12  -735505.80 1051.96   1
   3  12  -610248.70 533.741   1
   3  12  -519993.20 575.905   1
   3  12  -4 4181.76 199.168   1
   3  12  -3 5106.14 229.458   1
   3  12  -2 4796.11  227.11   1
   3  12  -137477.80 1142.31   1
   3  12   0 6432.77 265.841   1
   3  12   135238.10 942.223   1
   3  12   2 3416.81 186.449   1
   3  12   3 4501.52 216.493   1
   3  12   4 3493.98 199.369   1
   3  12   520076.50 662.112   1
   3  12   610368.90 354.119   1
   3  12   733274.00 896.439   1
   3  12   8 3460.99 210.284   1
   3  12   9 681.779 134.953   1
   3  12  10 453.438 164.757   1
   3  12  11 7639.71 337.228   1
   3  12  12 5575.38 289.935   1
   3  12  1320715.50 730.564   1
   3  12  14 4325.61 280.961   1
   3  12  15 1974.76 240.516   1
   3  12  16 830.436 218.764   1
   3  12  17 5803.87  634.65   1
   3  12  18 3683.25 399.121   1
   3  12  19 9979.75 709.789   1
   3  12  20 2027.21 436.757   1
   3  12  21 3689.49 496.858   1
   3  12  22 707.871 338.784   1
   3  12  23 2302.28 415.284   1
   3  12  24 1450.81  426.80   1
   3  12  25 3063.09 788.761   1
   3  12  26 1987.53 532.719   1
   3  12  27 1910.73 677.707   1
   3  12  28 1125.08 507.162   1
   3  13 -27 427.962  607.50   1
   3  13 -26 2172.14 379.094   1
   3  13 -25 1053.47 293.681   1
   3  13 -24 2977.91 395.564   1
   3  13 -23 2644.88 312.519   1
   3  13 -22 1061.45 319.086   1
   3  13 -21  873.17 285.506   1
   3  13 -20 4442.31 401.299   1
   3  13 -19 4029.79 342.752   1
   3  13 -18 3948.30 310.834   1
   3  13 -1711157.50 554.522   1
   3  13 -16 1213.71 228.984   1
   3  13 -15 742.338 213.435   1
   3  13 -14 3495.44 282.522   1
   3  13 -1314448.30 646.596   1
   3  13 -1213425.50 502.746   1
   3  13 -1112464.60 728.084   1
   3  13 -10 2390.30 207.515   1
   3  13  -9 4795.61 278.845   1
   3  13  -8 3662.54 236.901   1
   3  13  -711408.20 402.812   1
   3  13  -620677.40  668.78   1
   3  13  -5 6848.42 275.852   1
   3  13  -4 7347.53 315.687   1
   3  13  -3 6504.65 283.855   1
   3  13  -2 4327.95 237.043   1
   3  13  -1 7968.62 402.719   1
   3  13   039205.70 1110.95   1
   3  13   1 8402.92 326.185   1
   3  13   2 6103.84  280.31   1
   3  13   3 7459.71 335.103   1
   3  13   4 6787.53 308.318   1
   3  13   5 8965.02 348.833   1
   3  13   621428.20 620.589   1
   3  13   711461.10 394.616   1
   3  13   8 5680.86 327.178   1
   3  13   9 6320.38  273.33   1
   3  13  10 1632.74 204.754   1
   3  13  1113885.30 513.605   1
   3  13  1213312.50 500.495   1
   3  13  1314524.80 547.369   1
   3  13  14 4163.47 317.548   1
   3  13  15 808.802 251.997   1
   3  13  16 1010.64 290.411   1
   3  13  1711376.30 560.987   1
   3  13  18 4181.87 370.539   1
   3  13  19 3149.32 498.766   1
   3  13  20 4496.48 394.905   1
   3  13  21 858.514 439.776   1
   3  13  22 735.359 357.116   1
   3  13  23 2870.93 413.924   1
   3  13  24 2907.91 398.575   1
   3  13  25 1092.93 404.621   1
   3  13  26 2648.97 524.666   1
   3  13  27 184.658 655.373   1
   3  14 -26 33.8277 648.296   1
   3  14 -25 1590.68 403.114   1
   3  14 -24   29.27 243.859   1
   3  14 -23 1510.96 285.254   1
   3  14 -22 2945.01 342.203   1
   3  14 -21 1706.62 341.975   1
   3  14 -20 1201.68 392.259   1
   3  14 -19 2891.27 448.956   1
   3  14 -18 264.871 269.005   1
   3  14 -17 4328.82 424.686   1
   3  14 -16 7934.63 422.179   1
   3  14 -15 2021.99  258.05   1
   3  14 -14 4018.72 331.132   1
   3  14 -13 2423.11 272.606   1
   3  14 -12 1150.96 234.905   1
   3  14 -11 2366.88 258.847   1
   3  14 -10 8325.66 418.267   1
   3  14  -9 5693.13 321.865   1
   3  14  -8 6001.84 397.909   1
   3  14  -7 6844.97 301.373   1
   3  14  -6 1988.31 180.758   1
   3  14  -5 5594.13 255.958   1
   3  14  -4 8516.73 382.904   1
   3  14  -315364.60  521.37   1
   3  14  -2 5315.76 275.731   1
   3  14  -1 5514.00  343.89   1
   3  14   0 349.027 237.378   1
   3  14   1 6885.69 302.458   1
   3  14   2 6116.04 339.062   1
   3  14   314675.20 506.039   1
   3  14   4 6972.26 336.098   1
   3  14   5 6129.30 320.368   1
   3  14   6 2176.69 179.329   1
   3  14   7 8280.53 326.956   1
   3  14   8 6130.57  280.10   1
   3  14   9 5419.61 305.795   1
   3  14  10 7870.25  445.55   1
   3  14  11 4084.38  267.39   1
   3  14  12 1569.92  213.04   1
   3  14  13 2100.35 249.725   1
   3  14  14 4090.52 324.858   1
   3  14  15 1335.68 314.667   1
   3  14  16 6801.52 447.295   1
   3  14  17 3313.89 351.076   1
   3  14  18 410.947 361.646   1
   3  14  19 1847.84 532.671   1
   3  14  20 1575.96 327.817   1
   3  14  21 2070.31 383.593   1
   3  14  22 3018.06 438.737   1
   3  14  23 1425.53 339.639   1
   3  14  24 9.92873 490.207   1
   3  14  25 1416.99 470.434   1
   3  14  26 -279.83 689.358   1
   3  15 -24 170.039 233.605   1
   3  15 -23 756.377 265.577   1
   3  15 -22 269.473 270.983   1
   3  15 -21 3009.11 353.111   1
   3  15 -20 1023.24 386.268   1
   3  15 -19 671.234 303.366   1
   3  15 -18-364.673 1050.33   1
   3  15 -17 881.456 273.968   1
   3  15 -16 433.639 259.832   1
   3  15 -15 5041.43 461.908   1
   3  15 -14 402.322 255.777   1
   3  15 -13 2569.46 323.789   1
   3  15 -12 1062.63 251.716   1
   3  15 -11 1813.35 260.498   1
   3  15 -10 1069.95  230.47   1
   3  15  -9 9338.03 465.843   1
   3  15  -8 230.994 196.963   1
   3  15  -7 3597.65 247.912   1
   3  15  -6  236.38 182.184   1
   3  15  -5 2059.69 201.224   1
   3  15  -4 1356.73 197.951   1
   3  15  -3 9976.32 436.384   1
   3  15  -2 1449.12 232.902   1
   3  15  -1 1377.52 249.882   1
   3  15   0 884.836 176.117   1
   3  15   1 2660.54 266.428   1
   3  15   2 1850.74 216.346   1
   3  15   310306.60 418.886   1
   3  15   4 713.162 212.861   1
   3  15   5 1612.22 212.711   1
   3  15   6 451.847 246.643   1
   3  15   7 3351.75 231.171   1
   3  15   8 358.585 266.783   1
   3  15   9 7912.69 370.559   1
   3  15  10 990.553 232.352   1
   3  15  11 1581.14 217.216   1
   3  15  12 604.367 297.682   1
   3  15  13 1546.08 295.138   1
   3  15  14 754.513 258.565   1
   3  15  15 4430.04 347.025   1
   3  15  16 57.8525 243.115   1
   3  15  17 1022.38 275.421   1
   3  15  18-421.006 764.322   1
   3  15  19 816.105 500.737   1
   3  15  20  932.55  518.88   1
   3  15  21 2412.96 315.469   1
   3  15  22 700.333 272.162   1
   3  15  23  666.43 253.818   1
   3  15  24  716.06 302.118   1
   3  16 -23 763.311 298.422   1
   3  16 -22 418.968  268.50   1
   3  16 -21  255.51 278.241   1
   3  16 -20 876.396 313.912   1
   3  16 -19 765.735 355.498   1
   3  16 -18 359.721 296.484   1
   3  16 -17 144.998 590.771   1
   3  16 -16 173.158 443.646   1
   3  16 -15 312.873 266.866   1
   3  16 -14 591.628 270.849   1
   3  16 -13-75.7656 739.714   1
   3  16 -12 330.078 275.806   1
   3  16 -11 197.429 268.325   1
   3  16 -10-607.471 732.561   1
   3  16  -9 173.525  252.11   1
   3  16  -8 2068.83 409.432   1
   3  16  -7  203.65 243.406   1
   3  16  -6 1443.71 270.688   1
   3  16  -5 853.931 304.635   1
   3  16  -4 192.368 209.593   1
   3  16  -3 1580.64 271.246   1
   3  16  -2 1395.43 258.587   1
   3  16  -1 1867.47  271.50   1
   3  16   0 382.622 259.458   1
   3  16   1 1443.36 249.471   1
   3  16   2 1965.45 365.964   1
   3  16   3 1784.44 251.724   1
   3  16   4  460.74 215.685   1
   3  16   5 291.494  197.65   1
   3  16   6 1326.32 204.149   1
   3  16   7 533.917 237.287   1
   3  16   8 1401.17 233.141   1
   3  16   9 198.702 195.944   1
   3  16  10-279.702 673.318   1
   3  16  11 384.621 211.263   1
   3  16  12  314.54 234.386   1
   3  16  13 386.846 256.091   1
   3  16  14 548.551 386.606   1
   3  16  15-52.6253 1007.69   1
   3  16  16 405.719 469.587   1
   3  16  17 88.3034 270.917   1
   3  16  18  339.02 382.729   1
   3  16  19 365.088 380.168   1
   3  16  20-118.249 832.649   1
   3  16  21 137.508 305.077   1
   3  16  22-168.589 1063.62   1
   3  16  23 548.325 380.293   1
   3  17 -21 818.611  350.97   1
   3  17 -20 2211.45 320.632   1
   3  17 -19 1409.51 308.286   1
   3  17 -18 1044.37 316.602   1
   3  17 -17 1471.10 299.106   1
   3  17 -16-78.4412 774.214   1
   3  17 -15 590.315  310.49   1
   3  17 -14 3326.87  375.84   1
   3  17 -13 4383.33 369.929   1
   3  17 -12 931.595 278.923   1
   3  17 -11 1623.22 315.957   1
   3  17 -10 360.453 358.684   1
   3  17  -9 1630.12 336.107   1
   3  17  -8 469.643 283.749   1
   3  17  -7 3622.20 335.734   1
   3  17  -6 9037.28 463.771   1
   3  17  -5 804.934 382.512   1
   3  17  -4 186.233 312.992   1
   3  17  -3 2617.28 300.002   1
   3  17  -2 1726.67 266.664   1
   3  17  -1 1907.05 553.324   1
   3  17   0 7191.83  471.96   1
   3  17   1 919.802 248.827   1
   3  17   2 1848.73 279.344   1
   3  17   3 2860.57 294.721   1
   3  17   4 648.837 289.387   1
   3  17   5 582.644 268.268   1
   3  17   6 8856.19 418.473   1
   3  17   7 2997.66 269.638   1
   3  17   8 253.765 213.078   1
   3  17   9 2248.07 313.352   1
   3  17  10 952.716 239.643   1
   3  17  11 2061.10 254.843   1
   3  17  12 950.037 290.814   1
   3  17  13 3285.51 500.563   1
   3  17  14 2776.21 334.962   1
   3  17  15 672.076 268.633   1
   3  17  16 32.2643 268.468   1
   3  17  17 1248.44 304.117   1
   3  17  18 1413.60 288.117   1
   3  17  19 974.056  306.53   1
   3  17  20 1480.95 270.485   1
   3  17  21 57.9119 219.943   1
   3  18 -20 530.767  751.59   1
   3  18 -19 1467.28 311.045   1
   3  18 -18 1388.03 425.445   1
   3  18 -17 1266.26 272.446   1
   3  18 -16 2933.57 340.646   1
   3  18 -15 766.474 350.177   1
   3  18 -14 3600.78 547.551   1
   3  18 -13 395.006 310.567   1
   3  18 -12 1599.94 310.019   1
   3  18 -11 2028.21 457.763   1
   3  18 -10 5065.29 459.868   1
   3  18  -9 3660.88  429.75   1
   3  18  -8 5417.49 451.966   1
   3  18  -7-23.0253 743.671   1
   3  18  -6 1640.19 557.387   1
   3  18  -5 837.549 258.652   1
   3  18  -4 4954.96 823.393   1
   3  18  -3 4737.86  473.79   1
   3  18  -2 5483.92 380.849   1
   3  18  -1 2989.08 335.953   1
   3  18   0 58.1121 283.038   1
   3  18   1 4086.07 372.488   1
   3  18   2 5294.15 379.763   1
   3  18   3 4881.41  346.87   1
   3  18   4 4777.89 377.698   1
   3  18   5 1902.08 267.859   1
   3  18   6 2100.80 275.826   1
   3  18   7-2.59341 723.932   1
   3  18   8 5430.45 346.975   1
   3  18   9 2637.41 294.378   1
   3  18  10 5257.30 418.459   1
   3  18  11 2370.38 367.466   1
   3  18  12 1899.21  320.55   1
   3  18  13 1206.90 317.047   1
   3  18  14 3568.08 468.426   1
   3  18  15 967.891 267.993   1
   3  18  16 2985.82 328.543   1
   3  18  17 678.211 344.119   1
   3  18  18 1314.51 261.668   1
   3  18  19 314.204 273.996   1
   3  19 -17 1230.59 295.023   1
   3  19 -16 1047.28  281.70   1
   3  19 -15 2466.93 391.538   1
   3  19 -14 629.521 296.874   1
   3  19 -13 1123.43 420.837   1
   3  19 -12 314.214 275.706   1
   3  19 -11 1504.38 321.388   1
   3  19 -10 2219.27 391.432   1
   3  19  -9 3538.57 401.238   1
   3  19  -8 2415.63 423.955   1
   3  19  -7 734.926  288.27   1
   3  19  -6 266.513 571.006   1
   3  19  -5 1367.03  378.25   1
   3  19  -4 3670.78 366.987   1
   3  19  -3 4633.71  392.03   1
   3  19  -2 1411.89 331.112   1
   3  19  -1 1255.48 261.209   1
   3  19   0 235.522 277.145   1
   3  19   1 2012.66 307.817   1
   3  19   2 3165.55 436.715   1
   3  19   3 3716.47 365.304   1
   3  19   4 2689.73 294.151   1
   3  19   5 801.956 279.432   1
   3  19   6 -77.323 799.692   1
   3  19   7 569.474  269.05   1
   3  19   8 2319.71 432.397   1
   3  19   9 3980.60 437.071   1
   3  19  10 1530.06 309.549   1
   3  19  11 1748.80 348.917   1
   3  19  12 169.042 532.595   1
   3  19  13 996.449 311.533   1
   3  19  14  473.13 284.341   1
   3  19  15 1607.77 316.338   1
   3  19  16 731.993 248.185   1
   3  19  17 641.231 308.603   1
   3  20 -15 764.895 318.423   1
   3  20 -14 1433.68 304.364   1
   3  20 -13 1272.78 324.942   1
   3  20 -12 720.221 337.009   1
   3  20 -11  269.12 233.716   1
   3  20 -10 1079.96 325.795   1
   3  20  -9-378.018 701.616   1
   3  20  -8 502.519 248.514   1
   3  20  -7 98.2388 293.644   1
   3  20  -6 1830.81 456.991   1
   3  20  -5 257.691 376.507   1
   3  20  -4 897.719 478.645   1
   3  20  -3  268.12 373.541   1
   3  20  -2 1944.80 473.689   1
   3  20  -1 1183.03 324.295   1
   3  20   0 25.7826 394.399   1
   3  20   1 1239.93 300.301   1
   3  20   2 1876.05 292.923   1
   3  20   3 455.879 373.164   1
   3  20   4 727.653 344.975   1
   3  20   5-248.774 788.414   1
   3  20   6 1341.95 324.455   1
   3  20   7 1199.89 340.258   1
   3  20   8 1397.26 475.831   1
   3  20   9-526.753 711.111   1
   3  20  10 1577.16 330.483   1
   3  20  11 990.517 546.181   1
   3  20  12  55.278 274.405   1
   3  20  13  866.05 284.957   1
   3  20  14 1197.80 309.816   1
   3  20  15 159.922 392.603   1
   3  21 -11 474.841 243.582   1
   3  21 -10 318.988 416.689   1
   3  21  -9 1283.03 324.464   1
   3  21  -8-210.422 638.613   1
   3  21  -7-11.3706 758.808   1
   3  21  -6 285.778 389.864   1
   3  21  -5 714.117 327.159   1
   3  21  -4 198.707 324.177   1
   3  21  -3 838.616 395.977   1
   3  21  -2-68.5735 750.403   1
   3  21  -1  155.77 338.804   1
   3  21   0 228.988 315.659   1
   3  21   1-126.626 715.693   1
   3  21   2 261.216 300.114   1
   3  21   3 456.282 251.767   1
   3  21   4 103.197 258.429   1
   3  21   5 147.582 386.247   1
   3  21   6 444.059 377.341   1
   3  21   7-115.548 665.314   1
   3  21   8 68.3389  268.64   1
   3  21   9 1230.53 294.363   1
   3  21  10 345.787 252.272   1
   3  21  11-392.352 953.763   1
   3  22  -6-104.945 847.216   1
   3  22  -5 314.226 544.162   1
   3  22  -4 1051.61 452.753   1
   3  22  -3 859.305 315.264   1
   3  22  -2 1182.35 316.068   1
   3  22  -1-57.3365 655.941   1
   3  22   0 624.371 273.692   1
   3  22   1-334.522 621.864   1
   3  22   2 832.807 270.941   1
   3  22   3 212.659  243.23   1
   3  22   4 675.913  280.64   1
   3  22   5 289.737 240.071   1
   3  22   6 -4.8825  744.19   1
   4   0   0 6157.42 321.058   1
   4   0   1222146.0 5664.57   1
   4   0   2 9148.73 326.648   1
   4   0   3 1487.26 151.973   1
   4   0   4 797.207 122.994   1
   4   0   562230.10 1843.58   1
   4   0   624207.60 810.911   1
   4   0   7149206.0 4363.29   1
   4   0   811594.00 429.373   1
   4   0   915412.80 542.818   1
   4   0  10-73.8273 408.694   1
   4   0  1160433.50 1505.65   1
   4   0  1221115.50 599.536   1
   4   0  13146656.0 3625.58   1
   4   0  14 7302.11 240.026   1
   4   0  15 7498.30 252.619   1
   4   0  16 2223.11 160.943   1
   4   0  1734411.80 916.516   1
   4   0  1818292.50  558.88   1
   4   0  1930151.00 878.687   1
   4   0  20 1440.19 188.787   1
   4   0  2117403.00 617.758   1
   4   0  22 536.258 200.874   1
   4   0  23 7143.49 434.031   1
   4   0  24 435.613 265.105   1
   4   0  2513352.20 610.452   1
   4   0  26 714.188 287.505   1
   4   0  27 4242.69 876.871   1
   4   0  28 3.19697 323.026   1
   4   0  29 2809.25 399.381   1
   4   0  30 531.914  345.65   1
   4   0  31 3456.14 621.517   1
   4   0  32 1036.14 392.436   1
   4   1 -32 2233.47 372.739   1
   4   1 -31 678.449 381.507   1
   4   1 -30 1969.97 448.563   1
   4   1 -29 2058.68 419.823   1
   4   1 -28 3859.20 566.116   1
   4   1 -27 2490.53 436.908   1
   4   1 -26 6794.09 519.308   1
   4   1 -25 753.033 266.351   1
   4   1 -2410688.90 497.289   1
   4   1 -23 7212.00 368.749   1
   4   1 -22 5697.66 424.936   1
   4   1 -21 4537.25  272.52   1
   4   1 -20 8966.18 365.403   1
   4   1 -19 2059.11 176.607   1
   4   1 -1832106.40 925.003   1
   4   1 -1720382.40 578.889   1
   4   1 -16 1367.89 127.853   1
   4   1 -1512755.10 381.697   1
   4   1 -1420845.50 584.925   1
   4   1 -13 7023.09 244.303   1
   4   1 -1238825.00 984.769   1
   4   1 -1113665.50 418.938   1
   4   1 -10 3131.06  228.66   1
   4   1  -942048.10 1222.66   1
   4   1  -835451.40 1079.52   1
   4   1  -729531.20 909.938   1
   4   1  -6126297.0 3667.18   1
   4   1  -532133.00 960.352   1
   4   1  -424153.80  710.89   1
   4   1  -3104788.0 2866.27   1
   4   1  -259764.60 1728.08   1
   4   1  -133488.30 1018.52   1
   4   1   038543.80 1021.70   1
   4   1   135958.50 1001.83   1
   4   1   263801.10 1630.90   1
   4   1   3108876.0 2790.34   1
   4   1   426373.90 859.942   1
   4   1   534579.90 1179.85   1
   4   1   6135129.0 3729.81   1
   4   1   729887.50 1026.93   1
   4   1   837579.40 1069.40   1
   4   1   936299.50 1350.99   1
   4   1  10 6236.70 319.806   1
   4   1  1114239.90 409.261   1
   4   1  1240296.50 1047.34   1
   4   1  13 7196.27 274.352   1
   4   1  1416876.10 474.942   1
   4   1  1511708.90 410.284   1
   4   1  16 1434.45 116.633   1
   4   1  1721209.90 615.479   1
   4   1  1830583.80 862.945   1
   4   1  19 1818.47 174.559   1
   4   1  20 6831.21 324.165   1
   4   1  21 3898.70 290.331   1
   4   1  22 5864.17 340.623   1
   4   1  23 7263.74 433.919   1
   4   1  24 9410.57 580.687   1
   4   1  25 474.706 254.817   1
   4   1  26 7156.29  435.88   1
   4   1  27 1558.16 344.178   1
   4   1  28 2607.69 395.657   1
   4   1  29 2800.36 392.711   1
   4   1  30 1829.95 435.154   1
   4   1  31 430.766 522.533   1
   4   1  32 4621.00 785.903   1
   4   2 -32 615.058 256.353   1
   4   2 -31 319.172 339.865   1
   4   2 -30 629.349 422.092   1
   4   2 -29 1930.52  531.23   1
   4   2 -28 1724.26 414.354   1
   4   2 -27 1280.42 333.002   1
   4   2 -26 123.504 348.361   1
   4   2 -25 767.485 313.123   1
   4   2 -24 439.515 221.025   1
   4   2 -23 2571.66 233.744   1
   4   2 -22 3242.99 249.962   1
   4   2 -21 1829.05 195.208   1
   4   2 -20 4608.59  258.59   1
   4   2 -19 510.556 156.131   1
   4   2 -18 9080.04 332.995   1
   4   2 -17 2834.23 168.635   1
   4   2 -16 5130.93 215.811   1
   4   2 -15 2394.70 146.165   1
   4   2 -1418660.10 565.108   1
   4   2 -13 2620.97 152.187   1
   4   2 -1217201.90 490.622   1
   4   2 -11 7469.85 281.991   1
   4   2 -1020662.20 641.895   1
   4   2  -912288.00 521.748   1
   4   2  -850542.80 1508.49   1
   4   2  -7 166.706  106.36   1
   4   2  -6 5234.08 295.994   1
   4   2  -5 3501.58 183.492   1
   4   2  -418493.60 573.346   1
   4   2  -3 6638.01 319.583   1
   4   2  -255125.70 1413.10   1
   4   2  -119481.60 565.827   1
   4   2   0 286.122 97.0813   1
   4   2   120007.30 610.149   1
   4   2   254841.60 1567.43   1
   4   2   3 7369.61 295.365   1
   4   2   414860.30 793.479   1
   4   2   5 3576.76 192.757   1
   4   2   6 4969.22 296.761   1
   4   2   7  270.18 120.728   1
   4   2   848623.50 1396.73   1
   4   2   913108.40 534.054   1
   4   2  1018451.70 615.982   1
   4   2  11 5509.27 208.288   1
   4   2  1217505.70 473.668   1
   4   2  13 3169.92 144.119   1
   4   2  1418738.30 531.138   1
   4   2  15 2709.40 156.013   1
   4   2  16 6611.75 253.186   1
   4   2  17 2555.40 168.293   1
   4   2  18 9995.52 370.866   1
   4   2  19 83.4967 176.103   1
   4   2  20 7045.04 326.659   1
   4   2  21 910.921 238.134   1
   4   2  22 4578.89 291.345   1
   4   2  23 2109.60 277.647   1
   4   2  24 163.788 267.504   1
   4   2  25 1215.28 318.504   1
   4   2  26 298.301  326.44   1
   4   2  27 795.705 335.266   1
   4   2  28 1286.08 479.332   1
   4   2  29 1822.97 433.532   1
   4   2  30 -119.95 781.461   1
   4   2  31 562.838 408.185   1
   4   2  32 602.821 353.264   1
   4   3 -32 73.1584  260.89   1
   4   3 -31 467.092 300.905   1
   4   3 -30 165.032 398.226   1
   4   3 -29 894.137 373.206   1
   4   3 -28 3212.93  449.31   1
   4   3 -27  261.69 292.488   1
   4   3 -26 720.235 307.235   1
   4   3 -25 1393.56 342.337   1
   4   3 -24 4925.56 386.006   1
   4   3 -23 4467.00 317.859   1
   4   3 -22 2826.35 315.692   1
   4   3 -21 897.836 171.081   1
   4   3 -20 10.7602 143.467   1
   4   3 -19 1802.73 172.758   1
   4   3 -18 8898.85 328.408   1
   4   3 -17 2928.42 164.467   1
   4   3 -16 3893.31 185.962   1
   4   3 -15  726.25 104.108   1
   4   3 -14 285.733 90.9247   1
   4   3 -13 3305.91 161.609   1
   4   3 -1214762.80 510.901   1
   4   3 -11 8245.38 330.822   1
   4   3 -10 803.069 138.364   1
   4   3  -9 1355.75 301.505   1
   4   3  -817082.20 580.912   1
   4   3  -710666.00 539.305   1
   4   3  -630358.20 1142.48   1
   4   3  -512109.00 529.793   1
   4   3  -427888.70 1153.52   1
   4   3  -3 3492.39 199.533   1
   4   3  -241624.70 1221.07   1
   4   3  -112762.30 448.229   1
   4   3   029378.30 845.147   1
   4   3   111825.40 427.004   1
   4   3   236743.40 1054.36   1
   4   3   3 3513.31 204.761   1
   4   3   428350.40  902.53   1
   4   3   510440.90 370.276   1
   4   3   629048.60 867.088   1
   4   3   7 9087.79  391.19   1
   4   3   815428.50 665.378   1
   4   3   9 2271.41 280.241   1
   4   3  10 205.635 108.427   1
   4   3  11 6989.44 240.925   1
   4   3  1213960.10 394.798   1
   4   3  13 4361.98 177.589   1
   4   3  14 653.909 101.857   1
   4   3  15 1477.26 128.554   1
   4   3  16 4013.55 204.948   1
   4   3  17 2924.69 247.753   1
   4   3  1810087.70 382.407   1
   4   3  19 1827.70 206.775   1
   4   3  20 287.847 152.502   1
   4   3  21 954.985 228.318   1
   4   3  22 3311.11  273.59   1
   4   3  23 3829.49 282.923   1
   4   3  24 5231.09 327.883   1
   4   3  25 1469.16  428.54   1
   4   3  26  827.27 289.023   1
   4   3  27 930.324 311.575   1
   4   3  28 3499.97 725.835   1
   4   3  29 400.649 355.755   1
   4   3  30-234.747 784.471   1
   4   3  31 425.392 328.828   1
   4   3  32 267.896 403.524   1
   4   4 -32 875.376 278.606   1
   4   4 -31 2516.60 357.816   1
   4   4 -30 83.4097 322.754   1
   4   4 -29 1259.82 369.032   1
   4   4 -28 479.188 354.795   1
   4   4 -27 2886.28 417.284   1
   4   4 -26-57.6442 1404.57   1
   4   4 -25 3617.90 329.173   1
   4   4 -24 1229.16 242.117   1
   4   4 -23 4483.71 387.035   1
   4   4 -22 456.938 315.366   1
   4   4 -21 2586.70 241.119   1
   4   4 -20 1545.79  218.73   1
   4   4 -1924695.60 741.388   1
   4   4 -18 7969.35 306.197   1
   4   4 -1722027.10 649.555   1
   4   4 -16 974.192  130.19   1
   4   4 -15 9928.98 338.801   1
   4   4 -14 3800.05 194.929   1
   4   4 -1350752.80 1292.71   1
   4   4 -1225840.70 705.646   1
   4   4 -1128433.60 821.631   1
   4   4 -10 530.516 102.408   1
   4   4  -911079.90 383.476   1
   4   4  -823315.80 738.465   1
   4   4  -7120187.0 3348.66   1
   4   4  -6 8250.41 372.018   1
   4   4  -565569.10 1778.18   1
   4   4  -4 1685.53 170.832   1
   4   4  -321679.30 924.119   1
   4   4  -2 3592.32 235.205   1
   4   4  -163495.80 1716.47   1
   4   4   0 2742.26  238.73   1
   4   4   168078.70 1797.58   1
   4   4   2 4044.19 345.071   1
   4   4   323970.30 762.804   1
   4   4   4 1167.54 135.881   1
   4   4   559558.10 1636.64   1
   4   4   6 9227.94 372.235   1
   4   4   7125496.0 3637.88   1
   4   4   821799.40  877.41   1
   4   4   9 8020.94 285.585   1
   4   4  10 611.747 94.2817   1
   4   4  1129351.80 755.953   1
   4   4  1228268.90 758.333   1
   4   4  1352999.30 1339.27   1
   4   4  14 4816.67 196.704   1
   4   4  1510126.40 339.442   1
   4   4  16 740.745 115.313   1
   4   4  1720296.50 597.156   1
   4   4  18 8934.93 337.354   1
   4   4  1926070.20 756.935   1
   4   4  20 1221.29 166.939   1
   4   4  21 1381.60 228.626   1
   4   4  22 596.107 190.348   1
   4   4  23 4766.43 351.768   1
   4   4  24 1736.51 276.903   1
   4   4  25 3533.80 368.335   1
   4   4  26 100.918 274.785   1
   4   4  27 4530.29 524.086   1
   4   4  28 440.181 501.537   1
   4   4  29 636.493  332.26   1
   4   4  30-355.946 760.511   1
   4   4  31 3041.35 556.935   1
   4   4  32 1793.47 356.396   1
   4   5 -32 2431.95 630.014   1
   4   5 -31 199.667 287.291   1
   4   5 -30 571.362 403.655   1
   4   5 -29 2772.13 374.962   1
   4   5 -28 1167.01 337.526   1
   4   5 -27 2336.97 465.236   1
   4   5 -26 6123.88 406.069   1
   4   5 -25 1483.76 244.801   1
   4   5 -24 9336.60 583.188   1
   4   5 -23 9381.65 468.445   1
   4   5 -22 3848.60 305.231   1
   4   5 -21 6452.16  417.22   1
   4   5 -2014468.50 526.699   1
   4   5 -19 2776.32 235.958   1
   4   5 -1816015.30  510.04   1
   4   5 -1715326.60  475.21   1
   4   5 -16 1510.22 146.538   1
   4   5 -1511372.00 391.061   1
   4   5 -1421947.40 645.112   1
   4   5 -1312516.50 397.608   1
   4   5 -1256991.20 1546.11   1
   4   5 -1115204.30 440.875   1
   4   5 -10 2825.37  161.10   1
   4   5  -928978.90 797.899   1
   4   5  -851926.70 1391.76   1
   4   5  -7 8118.33 339.104   1
   4   5  -643643.90 1296.57   1
   4   5  -5 6171.86 347.096   1
   4   5  -432507.90 1080.29   1
   4   5  -379969.00 2289.56   1
   4   5  -255664.40 1841.66   1
   4   5  -129117.30 996.888   1
   4   5   0113526.0 3131.04   1
   4   5   129720.60 1115.39   1
   4   5   265640.80 1941.32   1
   4   5   378316.30 2284.97   1
   4   5   431812.80 1016.71   1
   4   5   5 5906.60 308.754   1
   4   5   650421.80 1459.90   1
   4   5   711137.70 389.504   1
   4   5   857997.80 1547.79   1
   4   5   927602.70 762.514   1
   4   5  10 4274.15 181.575   1
   4   5  1115109.60 442.883   1
   4   5  1258056.10 1465.44   1
   4   5  1311006.80 350.476   1
   4   5  1420566.40 608.421   1
   4   5  15 8150.90 322.592   1
   4   5  16 2454.88 170.291   1
   4   5  1718388.60 558.506   1
   4   5  1813893.30 473.385   1
   4   5  19 4833.54 256.657   1
   4   5  2013609.10 492.985   1
   4   5  21 7041.66 440.213   1
   4   5  22 3657.77  304.72   1
   4   5  23 7764.80  632.95   1
   4   5  24 8853.44 481.868   1
   4   5  25 1026.16 349.224   1
   4   5  26 5581.73 459.953   1
   4   5  27 1556.55 349.852   1
   4   5  28 2185.93 423.816   1
   4   5  29 2527.81 446.776   1
   4   5  30 2188.53 475.221   1
   4   5  31 350.499 386.037   1
   4   5  32 1839.28  603.52   1
   4   6 -31 1623.59  448.38   1
   4   6 -30 3172.82  370.13   1
   4   6 -29 783.019 444.204   1
   4   6 -28 5576.33 429.356   1
   4   6 -27 1425.74 280.279   1
   4   6 -26 1451.57 260.538   1
   4   6 -25 1954.30 311.014   1
   4   6 -24 3604.93 315.935   1
   4   6 -23 1505.56 268.728   1
   4   6 -2218807.00 733.429   1
   4   6 -21 1439.62  224.23   1
   4   6 -20 9190.76 462.289   1
   4   6 -19 4491.89 302.221   1
   4   6 -18 8740.15 336.398   1
   4   6 -17 4918.25  249.45   1
   4   6 -1620675.50 590.822   1
   4   6 -15 2936.94 177.763   1
   4   6 -1430110.40 848.009   1
   4   6 -13 2351.39 140.265   1
   4   6 -1213612.60 402.757   1
   4   6 -11 5026.00 228.673   1
   4   6 -1067699.60 1739.61   1
   4   6  -9 4000.19 193.579   1
   4   6  -887871.20 2295.53   1
   4   6  -7 7283.34 267.392   1
   4   6  -6 8138.88 280.033   1
   4   6  -515110.40 463.444   1
   4   6  -464205.10 1773.09   1
   4   6  -3 6628.38 412.128   1
   4   6  -2103160.0 2882.06   1
   4   6  -1 9190.36 440.032   1
   4   6   0 7165.33 532.478   1
   4   6   1 8352.76 545.454   1
   4   6   2104135.0 3137.50   1
   4   6   3 7421.53 392.317   1
   4   6   459909.00 1811.95   1
   4   6   515466.20 548.374   1
   4   6   6 6026.31 276.298   1
   4   6   7 7007.46 260.724   1
   4   6   877449.20 1932.99   1
   4   6   9 4462.76  177.48   1
   4   6  1063750.10 1592.13   1
   4   6  11 5209.51 234.583   1
   4   6  1214920.70 513.253   1
   4   6  13 3320.72 165.953   1
   4   6  1429420.60 831.008   1
   4   6  15 1815.77 183.426   1
   4   6  1624875.90 794.025   1
   4   6  17 3118.22 216.061   1
   4   6  18 9065.63 360.357   1
   4   6  19 4894.13 317.029   1
   4   6  2011053.80  451.06   1
   4   6  21 1129.88  224.12   1
   4   6  2219966.10 765.041   1
   4   6  23 1380.35 289.278   1
   4   6  24 4170.38  398.27   1
   4   6  25 2211.97 390.057   1
   4   6  26 2741.74 385.829   1
   4   6  27 1097.61  558.81   1
   4   6  28 5022.21 478.624   1
   4   6  29 604.132 317.559   1
   4   6  30 2439.07 435.083   1
   4   6  31 1621.26 512.713   1
   4   7 -31 456.075 494.101   1
   4   7 -30 545.036  421.40   1
   4   7 -29 1320.79 534.396   1
   4   7 -28 88.5675 337.531   1
   4   7 -27 2485.06 506.493   1
   4   7 -26 944.746 456.177   1
   4   7 -25 1313.72 406.887   1
   4   7 -24 1366.16 271.109   1
   4   7 -23 1175.70 240.012   1
   4   7 -22 401.063 209.946   1
   4   7 -21 9388.38 462.072   1
   4   7 -20 3123.16 285.086   1
   4   7 -19 4874.96 282.515   1
   4   7 -18 3630.52 301.721   1
   4   7 -17 8294.69 326.934   1
   4   7 -16 1881.71 170.606   1
   4   7 -1517568.90 545.727   1
   4   7 -14 5142.43  232.63   1
   4   7 -1313200.40 420.515   1
   4   7 -12 3269.62  181.59   1
   4   7 -1112429.20 415.456   1
   4   7 -10 1788.14 169.803   1
   4   7  -928704.30 772.253   1
   4   7  -8 6089.96 211.712   1
   4   7  -7 7018.74 270.982   1
   4   7  -611056.60 322.658   1
   4   7  -515934.40 433.698   1
   4   7  -4 5684.52 212.151   1
   4   7  -330121.70 788.767   1
   4   7  -210521.80 345.161   1
   4   7  -113715.30 597.582   1
   4   7   0 5229.88 255.359   1
   4   7   114092.40 474.977   1
   4   7   212074.40 417.242   1
   4   7   332465.40 899.265   1
   4   7   4 5832.88 237.522   1
   4   7   513223.70 400.164   1
   4   7   612923.50 382.745   1
   4   7   7 7080.47  238.66   1
   4   7   8 6276.06  224.35   1
   4   7   928141.80 745.566   1
   4   7  10 1852.54 123.184   1
   4   7  1111057.00 386.491   1
   4   7  12 4403.37  195.29   1
   4   7  1314596.80 508.294   1
   4   7  14 4744.35  232.19   1
   4   7  1517945.60 570.287   1
   4   7  16 1748.49 182.061   1
   4   7  17 7246.75 325.297   1
   4   7  18 3276.23 228.986   1
   4   7  19 6671.93 336.628   1
   4   7  20 2346.72 301.654   1
   4   7  21 7948.99 476.548   1
   4   7  22 811.298 304.163   1
   4   7  23 1148.05 305.998   1
   4   7  24 982.625 444.529   1
   4   7  25 1510.55  334.35   1
   4   7  26 1086.85 368.101   1
   4   7  27 1896.83 757.315   1
   4   7  28 -46.932 734.844   1
   4   7  29 2073.84 462.319   1
   4   7  30-257.034 694.214   1
   4   7  31 635.591 353.181   1
   4   8 -30 725.379 368.625   1
   4   8 -29 1087.08 393.485   1
   4   8 -28 564.631 476.594   1
   4   8 -27  492.77  624.95   1
   4   8 -26 1413.19 362.359   1
   4   8 -25 616.393 356.526   1
   4   8 -24 1835.53 270.139   1
   4   8 -23 687.358 252.247   1
   4   8 -22 704.682  254.40   1
   4   8 -21 502.109 209.107   1
   4   8 -20 2304.61 277.992   1
   4   8 -19 668.446 277.011   1
   4   8 -18 2153.13 228.604   1
   4   8 -17 2604.48 248.573   1
   4   8 -16 633.582 158.175   1
   4   8 -15 5680.55 263.375   1
   4   8 -14 3234.23 207.692   1
   4   8 -13 4333.27  228.64   1
   4   8 -12 2540.53 189.512   1
   4   8 -11 2608.92 177.737   1
   4   8 -10 961.697 144.646   1
   4   8  -915326.80 455.043   1
   4   8  -8 3886.44 167.457   1
   4   8  -7 1728.05 118.294   1
   4   8  -6 1017.80 91.7883   1
   4   8  -5 1037.14 101.547   1
   4   8  -4 6414.79 217.633   1
   4   8  -317111.50 479.887   1
   4   8  -2 2442.86  141.72   1
   4   8  -1 627.954 88.4801   1
   4   8   0 2114.98 132.555   1
   4   8   1 1425.05 112.594   1
   4   8   2 1963.51 140.734   1
   4   8   314786.70 433.161   1
   4   8   4 7710.50 322.655   1
   4   8   5 2200.85 140.346   1
   4   8   6 838.212 109.797   1
   4   8   7 1862.50 112.701   1
   4   8   8 4679.62 188.568   1
   4   8   917605.90  514.16   1
   4   8  10 1484.73 123.358   1
   4   8  11 2041.20 143.866   1
   4   8  12 3482.94 195.922   1
   4   8  13 4885.79 218.103   1
   4   8  14 3235.70 212.645   1
   4   8  15 3656.26 244.181   1
   4   8  16 458.274 154.738   1
   4   8  17 2651.95 254.882   1
   4   8  18 1880.13  229.10   1
   4   8  19 367.786 257.267   1
   4   8  20 1315.48 286.191   1
   4   8  21 958.671 287.981   1
   4   8  22-56.9941 1277.27   1
   4   8  23 1151.89 367.389   1
   4   8  24 1375.95 380.948   1
   4   8  25 779.031 792.744   1
   4   8  26 942.488 421.961   1
   4   8  27 602.761 473.026   1
   4   8  28 885.889 484.696   1
   4   8  29 2662.16 532.143   1
   4   8  30 606.766 383.346   1
   4   9 -30 1351.06  970.95   1
   4   9 -29 952.233 310.991   1
   4   9 -28 612.878 359.638   1
   4   9 -27 3078.02 475.933   1
   4   9 -26 1560.15 456.341   1
   4   9 -25 986.374 596.564   1
   4   9 -24 414.487 272.639   1
   4   9 -23 1805.68 386.152   1
   4   9 -22 289.062 331.424   1
   4   9 -21 4432.31 311.492   1
   4   9 -20 8518.81  419.00   1
   4   9 -19 2601.04 274.635   1
   4   9 -18 9362.88 420.103   1
   4   9 -17 5658.92 348.165   1
   4   9 -16 3598.41 291.108   1
   4   9 -15 6476.43 325.094   1
   4   9 -14 9811.21 429.196   1
   4   9 -13 3201.74 217.337   1
   4   9 -1210319.70 407.425   1
   4   9 -11 2697.28 199.959   1
   4   9 -10 7041.33 257.993   1
   4   9  -918722.80 519.149   1
   4   9  -812383.20 367.666   1
   4   9  -713889.30 398.105   1
   4   9  -623628.10 651.266   1
   4   9  -5 8776.72 317.611   1
   4   9  -4 3418.30 153.753   1
   4   9  -342866.00 1212.02   1
   4   9  -216277.00 594.798   1
   4   9  -1 7072.51 293.724   1
   4   9   026766.00 711.114   1
   4   9   1 7500.02 253.033   1
   4   9   219141.10  616.53   1
   4   9   342456.10 1121.96   1
   4   9   4 4415.36 189.421   1
   4   9   5 8734.50 288.431   1
   4   9   625368.90  760.35   1
   4   9   713123.20  400.15   1
   4   9   813129.60 411.188   1
   4   9   917489.30 562.589   1
   4   9  10 7391.24 281.128   1
   4   9  11 2429.87 168.461   1
   4   9  1210453.00 359.357   1
   4   9  13 3760.24 219.988   1
   4   9  14 9196.26 485.011   1
   4   9  15 7220.77 342.309   1
   4   9  16 3237.81 244.107   1
   4   9  17 5816.30 314.742   1
   4   9  18 8183.09 368.872   1
   4   9  19 2244.41 311.172   1
   4   9  20 6955.03 402.184   1
   4   9  21 3754.75 367.762   1
   4   9  22 529.572 304.857   1
   4   9  23 2114.51 442.789   1
   4   9  24-221.094 1546.05   1
   4   9  25 819.617 570.633   1
   4   9  26 1958.33 547.063   1
   4   9  27 2847.66 563.124   1
   4   9  28 1272.13 467.029   1
   4   9  29-1.95028 702.964   1
   4   9  30 1131.26 719.628   1
   4  10 -29 565.987 324.293   1
   4  10 -28 5850.63 707.109   1
   4  10 -27-126.672  766.43   1
   4  10 -26 1427.34  508.37   1
   4  10 -25 799.363 472.532   1
   4  10 -24 3440.90 509.145   1
   4  10 -23 470.149 342.437   1
   4  10 -22 9348.68  504.40   1
   4  10 -21 103.562 236.121   1
   4  10 -20 3417.81 428.359   1
   4  10 -19 930.419 215.865   1
   4  10 -18 3468.39 284.667   1
   4  10 -17 2389.79 258.513   1
   4  10 -1623630.00 768.194   1
   4  10 -15 1296.77 182.734   1
   4  10 -1414426.50  614.94   1
   4  10 -13 803.826 183.035   1
   4  10 -12 4981.19 303.233   1
   4  10 -11 6007.21 280.828   1
   4  10 -1028107.90  817.44   1
   4  10  -9 3177.47 244.352   1
   4  10  -838474.30 1038.30   1
   4  10  -7 1050.62 135.328   1
   4  10  -6 5717.88 232.217   1
   4  10  -5 6376.04  308.26   1
   4  10  -448947.00 1298.98   1
   4  10  -3 6455.92 260.172   1
   4  10  -246779.50 1223.92   1
   4  10  -1 3934.84 246.747   1
   4  10   015474.70 452.561   1
   4  10   1 4278.82 177.139   1
   4  10   243028.60 1172.96   1
   4  10   3 7976.38 301.893   1
   4  10   446380.40 1474.25   1
   4  10   5 6520.79 273.457   1
   4  10   6 5605.86 221.962   1
   4  10   7 1643.25 140.037   1
   4  10   832124.40 870.816   1
   4  10   9 3077.28 202.048   1
   4  10  1027139.90  756.72   1
   4  10  11 5465.63 245.138   1
   4  10  12 6444.24 284.899   1
   4  10  13 1408.08 206.252   1
   4  10  1412556.40 457.276   1
   4  10  15 1944.63 250.425   1
   4  10  1627029.40 957.739   1
   4  10  17 2064.59  271.37   1
   4  10  18 4498.58  301.00   1
   4  10  19 1454.36 247.479   1
   4  10  20 4899.73  674.71   1
   4  10  21 1149.47 532.443   1
   4  10  2211838.80 970.128   1
   4  10  23 767.643 486.741   1
   4  10  24 3601.33 714.776   1
   4  10  25 1200.93  975.96   1
   4  10  26 2202.34 926.291   1
   4  10  27 1020.31 470.393   1
   4  10  28 5671.12 709.711   1
   4  10  29 62.5929 602.888   1
   4  11 -28-166.071 638.328   1
   4  11 -27 3792.24 391.181   1
   4  11 -26 790.546 333.096   1
   4  11 -25-271.579 714.327   1
   4  11 -24 1025.69 303.211   1
   4  11 -23 6447.24 492.893   1
   4  11 -22 217.391 265.289   1
   4  11 -21 6233.46 402.638   1
   4  11 -20 2521.59 290.128   1
   4  11 -19 2525.79 288.549   1
   4  11 -18 3152.26 303.818   1
   4  11 -17 8198.29 497.032   1
   4  11 -16 2149.22 246.702   1
   4  11 -1518079.80 829.452   1
   4  11 -14 6889.67  317.16   1
   4  11 -13 4434.08 293.052   1
   4  11 -12 4724.21 254.549   1
   4  11 -1120606.50 646.502   1
   4  11 -10 3214.04 203.109   1
   4  11  -921792.50 699.774   1
   4  11  -8 2818.39 206.751   1
   4  11  -711255.40 393.698   1
   4  11  -610751.90  403.02   1
   4  11  -520326.70 616.627   1
   4  11  -4 2340.85 151.154   1
   4  11  -327171.80 749.295   1
   4  11  -2 1592.44 137.542   1
   4  11  -1 8775.90 322.253   1
   4  11   0 3203.23 170.542   1
   4  11   1 7830.24 293.239   1
   4  11   2 2799.68  171.45   1
   4  11   323873.20 663.644   1
   4  11   4 2481.08 167.653   1
   4  11   519786.50  582.73   1
   4  11   612545.30 427.047   1
   4  11   7 9734.72 338.323   1
   4  11   8 2040.77 141.884   1
   4  11   928553.30 797.329   1
   4  11  10 4150.96 252.429   1
   4  11  1117131.60 548.307   1
   4  11  12 6152.60 290.421   1
   4  11  13 3596.41 262.339   1
   4  11  14 5248.37  283.16   1
   4  11  1517177.30 572.884   1
   4  11  16 1896.03 236.513   1
   4  11  17 9446.35 682.828   1
   4  11  18 2496.54 261.824   1
   4  11  19 2808.85 429.492   1
   4  11  20 1862.25 366.884   1
   4  11  21 6860.51 741.966   1
   4  11  22 641.851 402.513   1
   4  11  23 5047.92 854.355   1
   4  11  24 576.156 530.648   1
   4  11  25 695.106 549.531   1
   4  11  26 1232.73 786.538   1
   4  11  27 3594.82 472.378   1
   4  11  28-231.492  720.11   1
   4  12 -27-400.025 800.255   1
   4  12 -26 2410.29 317.471   1
   4  12 -25 1565.01 537.448   1
   4  12 -24 1338.40 446.678   1
   4  12 -23 2410.21 376.041   1
   4  12 -22 1537.90  278.85   1
   4  12 -21 3112.87 310.744   1
   4  12 -20 2775.78 344.142   1
   4  12 -19 2338.10 270.047   1
   4  12 -18 358.037 242.279   1
   4  12 -17 4295.99 338.077   1
   4  12 -16 5035.14  340.69   1
   4  12 -15 419.745 212.468   1
   4  12 -14 3739.98 309.895   1
   4  12 -13 7886.68 405.485   1
   4  12 -12 684.162 180.837   1
   4  12 -11 7811.03 364.387   1
   4  12 -10 3154.98 272.524   1
   4  12  -9 489.629 152.763   1
   4  12  -8 4185.68 235.659   1
   4  12  -7 9317.05 386.632   1
   4  12  -6 2338.51 192.557   1
   4  12  -512019.30 436.709   1
   4  12  -411021.70 442.721   1
   4  12  -3 1909.02 160.551   1
   4  12  -2 4610.55 273.626   1
   4  12  -122678.30 694.701   1
   4  12   0 3263.07 190.468   1
   4  12   120807.90 598.412   1
   4  12   2 4321.18 231.814   1
   4  12   3 2498.47 174.398   1
   4  12   412570.10 500.337   1
   4  12   512359.50 413.562   1
   4  12   6 1701.17 178.233   1
   4  12   7 7948.39 309.112   1
   4  12   8 5760.45  266.10   1
   4  12   9 687.427 160.401   1
   4  12  10 3531.38 220.967   1
   4  12  11 7757.49 327.384   1
   4  12  12 268.378 166.482   1
   4  12  13 7965.62 368.892   1
   4  12  14 4412.08 315.838   1
   4  12  15 379.671 193.228   1
   4  12  16 3973.53 307.945   1
   4  12  17 4619.79 359.729   1
   4  12  18 135.728 241.548   1
   4  12  19 1822.56 406.374   1
   4  12  20 2353.08 409.392   1
   4  12  21 2767.32  721.36   1
   4  12  22 839.635 318.585   1
   4  12  23 2545.98 392.996   1
   4  12  24 849.037 754.394   1
   4  12  25 1946.53 619.292   1
   4  12  26 1643.68 409.921   1
   4  12  27 500.698 367.825   1
   4  13 -26-110.483 695.054   1
   4  13 -25 207.478 260.973   1
   4  13 -24 212.323 263.325   1
   4  13 -23  101.79 332.956   1
   4  13 -22 2120.14 320.225   1
   4  13 -21 245.234 243.865   1
   4  13 -20-273.884 750.553   1
   4  13 -19-105.353 729.823   1
   4  13 -18 1608.66 245.012   1
   4  13 -17 407.543 241.228   1
   4  13 -16 2301.39 283.949   1
   4  13 -15  105.89 283.874   1
   4  13 -14 630.162 251.712   1
   4  13 -13 162.829 235.403   1
   4  13 -12 800.089 312.956   1
   4  13 -11 159.766  192.20   1
   4  13 -10 9815.25 516.331   1
   4  13  -9-137.452 596.477   1
   4  13  -8 302.376 152.756   1
   4  13  -7 1211.39 250.717   1
   4  13  -6 3905.63 227.113   1
   4  13  -5 1069.93 194.545   1
   4  13  -4 1079.97 174.543   1
   4  13  -3 587.137 156.995   1
   4  13  -2 1660.11 261.187   1
   4  13  -1 1483.55 210.365   1
   4  13   0 480.153 132.374   1
   4  13   1 1268.06 147.639   1
   4  13   2 1159.86 146.648   1
   4  13   3 691.736 144.909   1
   4  13   4 1451.52 210.986   1
   4  13   5 980.169 151.235   1
   4  13   6 4037.19 300.343   1
   4  13   7 1120.39 155.625   1
   4  13   8  122.57 150.799   1
   4  13   9 285.011 148.009   1
   4  13  10 9492.86 382.354   1
   4  13  11  115.95 166.354   1
   4  13  12 1011.30 293.961   1
   4  13  13 496.899 257.695   1
   4  13  14 994.556 207.997   1
   4  13  15 649.761 317.249   1
   4  13  16 1985.70 259.321   1
   4  13  17 851.441 308.427   1
   4  13  18 1153.61 292.724   1
   4  13  19 1094.73 312.871   1
   4  13  20-438.302 705.539   1
   4  13  21 905.514 341.925   1
   4  13  22 2418.53 678.303   1
   4  13  23 182.584 376.298   1
   4  13  24 876.039 381.352   1
   4  13  25 116.755 431.078   1
   4  13  26  93.479 399.171   1
   4  14 -25 -30.069 576.829   1
   4  14 -24 1083.55 312.709   1
   4  14 -23 703.622  260.86   1
   4  14 -22 2273.98 326.597   1
   4  14 -21 639.106 378.829   1
   4  14 -20 1780.25 295.161   1
   4  14 -19 790.218 255.481   1
   4  14 -18 699.436 281.619   1
   4  14 -17 1178.56  298.80   1
   4  14 -16 6869.88 431.547   1
   4  14 -15 690.855 253.533   1
   4  14 -14 2048.04 287.319   1
   4  14 -13 154.014 342.884   1
   4  14 -12 318.241 224.057   1
   4  14 -11 196.647 307.445   1
   4  14 -10 5544.11 369.861   1
   4  14  -9 182.476 180.613   1
   4  14  -8 6527.71 377.221   1
   4  14  -7 205.837  166.31   1
   4  14  -6 2473.41 200.054   1
   4  14  -5 907.193 173.958   1
   4  14  -415033.90 501.023   1
   4  14  -3  344.69 211.199   1
   4  14  -2 6226.57 339.075   1
   4  14  -1 547.915 169.453   1
   4  14   0 7043.17 409.366   1
   4  14   1 722.687 192.344   1
   4  14   2 5733.27 320.433   1
   4  14   3 548.017  168.82   1
   4  14   415338.20 580.275   1
   4  14   5 1362.81 234.441   1
   4  14   6 2358.14 193.233   1
   4  14   7  444.36 169.521   1
   4  14   8 4839.68 333.592   1
   4  14   9 31.9865  178.92   1
   4  14  10 4411.37  323.30   1
   4  14  11 353.533 237.757   1
   4  14  12 630.326 277.583   1
   4  14  13 621.441 226.814   1
   4  14  14 1401.00 227.913   1
   4  14  15 530.875 278.852   1
   4  14  16 6932.23 385.164   1
   4  14  17 932.411 265.225   1
   4  14  18 687.004 289.939   1
   4  14  19 736.894 336.699   1
   4  14  20 1145.42 331.659   1
   4  14  21 801.847 344.625   1
   4  14  22 2131.18 405.333   1
   4  14  23 1023.13 380.912   1
   4  14  24 917.519 429.756   1
   4  14  25 651.549  409.69   1
   4  15 -24 754.257 373.051   1
   4  15 -23 1792.89 287.737   1
   4  15 -22 458.961 329.857   1
   4  15 -21 3237.73 348.971   1
   4  15 -20 1660.13 393.647   1
   4  15 -19 188.206 258.926   1
   4  15 -18 3303.76 336.869   1
   4  15 -17 3403.53 441.995   1
   4  15 -16 796.691 281.857   1
   4  15 -15 8239.52 507.559   1
   4  15 -14 3859.96 368.812   1
   4  15 -13 244.659 364.729   1
   4  15 -12 5949.15  374.54   1
   4  15 -11 7966.09 444.934   1
   4  15 -10 1823.89 238.174   1
   4  15  -911704.80 512.376   1
   4  15  -8 1675.37 270.028   1
   4  15  -7 2601.08  254.22   1
   4  15  -6 6144.95 316.857   1
   4  15  -5 8407.70 383.672   1
   4  15  -4 639.046 187.596   1
   4  15  -311644.40 468.077   1
   4  15  -2 1372.43 216.911   1
   4  15  -1 4060.86 276.268   1
   4  15   0 5757.35 438.293   1
   4  15   1 3846.04  266.03   1
   4  15   2 1892.47  266.31   1
   4  15   314223.70 535.902   1
   4  15   4 608.568 204.937   1
   4  15   5 7767.95 364.462   1
   4  15   6 7625.59  332.45   1
   4  15   7 2306.17 281.908   1
   4  15   8 1894.11 217.481   1
   4  15   912040.00 565.505   1
   4  15  10 2653.43 266.106   1
   4  15  11 7455.53 387.774   1
   4  15  12 5849.32 337.407   1
   4  15  13 763.634 219.388   1
   4  15  14 2576.32 365.967   1
   4  15  15 9780.55 481.871   1
   4  15  16 1128.81 310.085   1
   4  15  17 2348.98 387.347   1
   4  15  18 2934.88 425.937   1
   4  15  19  682.32 375.979   1
   4  15  20 1348.50 414.685   1
   4  15  21 2810.50 411.301   1
   4  15  22  407.55 385.781   1
   4  15  23 2026.74 486.583   1
   4  15  24 -1.1871 1753.35   1
   4  16 -22 687.765 259.039   1
   4  16 -21 1570.06 304.424   1
   4  16 -20 1108.23 296.896   1
   4  16 -19 4778.71 431.129   1
   4  16 -18 -208.21 712.724   1
   4  16 -17 1508.51  290.15   1
   4  16 -16 1778.98 303.314   1
   4  16 -15 1295.09 298.418   1
   4  16 -14  716.04 290.478   1
   4  16 -13 5001.70 427.606   1
   4  16 -12  574.56 259.077   1
   4  16 -11 3066.31 365.325   1
   4  16 -10 2448.94 282.076   1
   4  16  -9 276.409 224.109   1
   4  16  -8 798.391  234.41   1
   4  16  -710957.10  445.56   1
   4  16  -6 236.112 241.037   1
   4  16  -5 6376.68 352.008   1
   4  16  -4 4038.29 294.309   1
   4  16  -3  155.69 204.119   1
   4  16  -2 1703.78 237.082   1
   4  16  -110927.20 477.405   1
   4  16   0 4421.15 364.865   1
   4  16   110017.50 466.073   1
   4  16   2 1483.80 343.629   1
   4  16   3 143.992 224.378   1
   4  16   4 5029.67 318.625   1
   4  16   5 6464.23 331.228   1
   4  16   6 634.096 199.622   1
   4  16   710201.60 407.174   1
   4  16   8 686.303  202.52   1
   4  16   9 120.958 194.941   1
   4  16  10 2334.48 251.109   1
   4  16  11 2820.57 277.773   1
   4  16  12 748.132 281.419   1
   4  16  13 4752.56 401.562   1
   4  16  14 1532.63 264.291   1
   4  16  15 1216.29 282.407   1
   4  16  16 1526.47 544.487   1
   4  16  17 438.562 540.912   1
   4  16  18 720.789 334.464   1
   4  16  19 5934.88 506.841   1
   4  16  20  642.33 460.208   1
   4  16  21 896.044 296.961   1
   4  16  22-141.149 641.383   1
   4  17 -21 822.834 1640.84   1
   4  17 -20 1773.43 284.104   1
   4  17 -19 463.599 279.188   1
   4  17 -18 1971.25  345.61   1
   4  17 -17 480.205 263.448   1
   4  17 -16 1488.29 294.829   1
   4  17 -15 768.396 428.465   1
   4  17 -14 1540.23 291.513   1
   4  17 -13 648.471 275.296   1
   4  17 -12 5905.30 434.523   1
   4  17 -11 404.936 290.364   1
   4  17 -10 2511.90 336.641   1
   4  17  -9 272.048 266.342   1
   4  17  -8 2933.89 317.108   1
   4  17  -7 1676.68 374.578   1
   4  17  -6 4816.05 523.788   1
   4  17  -5 1040.85 247.055   1
   4  17  -4 2195.35 344.143   1
   4  17  -3 490.008 229.956   1
   4  17  -2 1866.50 269.035   1
   4  17  -1 66.3196 283.565   1
   4  17   010066.10 531.694   1
   4  17   1 657.316 284.528   1
   4  17   2 1525.27 274.389   1
   4  17   3 637.195 237.726   1
   4  17   4 2806.77 292.402   1
   4  17   5 1077.77 242.542   1
   4  17   6 3164.63 299.173   1
   4  17   7 1361.92 276.714   1
   4  17   8 2629.86 286.137   1
   4  17   9 165.114 245.912   1
   4  17  10 1440.57 273.927   1
   4  17  11 760.348 325.041   1
   4  17  12 6086.30 405.325   1
   4  17  13  212.22 291.375   1
   4  17  14 1576.87 294.788   1
   4  17  15  170.23 366.687   1
   4  17  16 1671.36 627.644   1
   4  17  17 114.611 294.544   1
   4  17  18 3208.72 405.799   1
   4  17  19 332.218 362.807   1
   4  17  20 1586.53 433.849   1
   4  17  21 513.437 611.085   1
   4  18 -19 100.116  556.42   1
   4  18 -18 160.333 264.569   1
   4  18 -17 849.443 318.465   1
   4  18 -16 124.518 247.373   1
   4  18 -15 153.574 261.861   1
   4  18 -14 252.009  367.98   1
   4  18 -13 992.632 439.958   1
   4  18 -12 254.005 285.303   1
   4  18 -11 1102.92 300.062   1
   4  18 -10 40.9937 298.395   1
   4  18  -9 83.0091 351.544   1
   4  18  -8 1426.34  314.65   1
   4  18  -7 2208.97  347.75   1
   4  18  -6 134.508  244.14   1
   4  18  -5 1626.37 331.672   1
   4  18  -4 1272.04 284.185   1
   4  18  -3 53.8431 267.623   1
   4  18  -2 649.822  275.79   1
   4  18  -1 950.347 272.659   1
   4  18   0 917.764 263.172   1
   4  18   1 752.288 277.282   1
   4  18   2 343.768 271.467   1
   4  18   3  37.741 336.678   1
   4  18   4 1167.03 266.268   1
   4  18   5  313.75 245.066   1
   4  18   6 196.699 296.249   1
   4  18   7 2252.83 281.663   1
   4  18   8 1657.73 292.895   1
   4  18   9-14.5708 741.923   1
   4  18  10  367.68  269.42   1
   4  18  11 1663.01 310.392   1
   4  18  12-5.04524 968.441   1
   4  18  13 642.479  308.51   1
   4  18  14 141.262 276.542   1
   4  18  15-155.003 760.425   1
   4  18  16-218.936 767.378   1
   4  18  17 242.306 286.831   1
   4  18  18 164.027 274.798   1
   4  18  19 182.562  426.63   1
   4  19 -16 122.223 234.988   1
   4  19 -15 417.626 298.823   1
   4  19 -14  782.40 275.274   1
   4  19 -13 121.838 378.336   1
   4  19 -12  788.86 280.207   1
   4  19 -11 396.458 283.306   1
   4  19 -10  814.16 280.903   1
   4  19  -9  664.16 301.175   1
   4  19  -8 493.993 297.137   1
   4  19  -7 17.0586 328.163   1
   4  19  -6  74.348 285.083   1
   4  19  -5 1070.45 342.095   1
   4  19  -4 1751.69 310.138   1
   4  19  -3  12.866 294.224   1
   4  19  -2 146.024 269.477   1
   4  19  -1 45.3263 261.704   1
   4  19   0 2345.41 336.155   1
   4  19   1 188.597 270.341   1
   4  19   2-79.4569 743.696   1
   4  19   3 282.057 313.047   1
   4  19   4 680.792 282.286   1
   4  19   5 670.148 284.444   1
   4  19   6 1043.66 251.986   1
   4  19   7-12.1891 721.454   1
   4  19   8  503.02 260.872   1
   4  19   9 475.563 445.547   1
   4  19  10 745.889 529.269   1
   4  19  11 38.0944 439.898   1
   4  19  12 1811.36 407.606   1
   4  19  13 215.262 430.204   1
   4  19  14 663.885 354.699   1
   4  19  15 609.026 346.948   1
   4  19  16 293.922  326.92   1
   4  20 -13 1408.86 263.132   1
   4  20 -12 200.618 230.395   1
   4  20 -11 1507.59 281.274   1
   4  20 -10 842.224 293.507   1
   4  20  -9 92.7265 308.978   1
   4  20  -8 221.113 299.978   1
   4  20  -7 3742.16 494.027   1
   4  20  -6-17.7761 914.548   1
   4  20  -5 2367.71 394.918   1
   4  20  -4 1107.22 388.374   1
   4  20  -3 397.484  300.73   1
   4  20  -2 146.288 297.746   1
   4  20  -1 3861.61 383.341   1
   4  20   0 1145.82 291.639   1
   4  20   1 3984.43 453.687   1
   4  20   2 129.346 241.282   1
   4  20   3-166.455 718.927   1
   4  20   4 1061.80 326.398   1
   4  20   5 2892.16 296.518   1
   4  20   6-274.387 776.783   1
   4  20   7 3837.24 411.577   1
   4  20   8 1.46454 448.662   1
   4  20   9-129.177 648.697   1
   4  20  10 915.734 704.811   1
   4  20  11 1621.51 445.085   1
   4  20  12 617.625  554.73   1
   4  20  13 2778.71 545.617   1
   4  20  14-208.582 604.972   1
   4  21 -10 214.037 512.469   1
   4  21  -9 413.303 330.279   1
   4  21  -8 796.333 420.454   1
   4  21  -7 36.1716 273.435   1
   4  21  -6 4639.87 414.597   1
   4  21  -5 295.817  314.78   1
   4  21  -4 788.384 341.214   1
   4  21  -3  699.39 298.671   1
   4  21  -2 605.673 263.397   1
   4  21  -1 507.993 300.749   1
   4  21   0 3691.62 446.617   1
   4  21   1 666.721 258.577   1
   4  21   2 696.924 493.763   1
   4  21   3 280.462 238.078   1
   4  21   4 549.375 282.746   1
   4  21   5 556.673 233.959   1
   4  21   6 2459.19 369.795   1
   4  21   7 29.2325 230.492   1
   4  21   8 307.498 285.918   1
   4  21   9 18.9176 315.972   1
   4  21  10 1031.97 413.005   1
   4  22  -3-578.651 682.592   1
   4  22  -2 1188.09 347.807   1
   4  22  -1  871.22 456.123   1
   4  22   0-400.824 698.191   1
   4  22   1 826.808 500.422   1
   4  22   2 663.412 804.513   1
   5   0   1 1853.12 175.532   1
   5   0   220177.40 657.599   1
   5   0   333758.00 994.738   1
   5   0   4 77.7308 123.915   1
   5   0   521473.00 676.432   1
   5   0   6 9477.67 386.449   1
   5   0   7 6641.74 437.287   1
   5   0   8 1513.99 130.264   1
   5   0   928369.50 760.227   1
   5   0  10 7141.03 246.657   1
   5   0  1114650.70 441.615   1
   5   0  12 5473.13 218.222   1
   5   0  13 70.9631 108.231   1
   5   0  14 733.742 122.239   1
   5   0  1515260.20 472.984   1
   5   0  16 1054.35 148.744   1
   5   0  17 7623.41 325.599   1
   5   0  18 298.581 205.914   1
   5   0  19 2249.15 238.342   1
   5   0  20 536.449 195.395   1
   5   0  21 4822.29 514.545   1
   5   0  22 476.597 283.705   1
   5   0  23 2855.94 326.368   1
   5   0  24  569.74 411.327   1
   5   0  25-12.4461 850.125   1
   5   0  26 3043.19 344.273   1
   5   0  27 1671.63 511.061   1
   5   0  28 105.218 431.027   1
   5   0  29 1663.09 601.338   1
   5   0  30 1472.66 316.829   1
   5   0  31 25.5268 280.831   1
   5   0  32 878.234 616.858   1
   5   1 -32-457.385 813.734   1
   5   1 -31 1213.11 597.456   1
   5   1 -30 1572.12 337.637   1
   5   1 -29 1036.76 317.586   1
   5   1 -28 1.80332 508.597   1
   5   1 -27 2024.21 556.781   1
   5   1 -26 6399.96 576.638   1
   5   1 -25  872.21 378.713   1
   5   1 -24 2784.98 316.385   1
   5   1 -23 2099.59 363.983   1
   5   1 -22 2143.88 309.176   1
   5   1 -21 4597.89 340.464   1
   5   1 -20 4705.25 339.018   1
   5   1 -19 9903.47 456.589   1
   5   1 -18 5208.96 276.435   1
   5   1 -17 5446.72 271.944   1
   5   1 -16 4691.41 231.226   1
   5   1 -1513442.90 451.445   1
   5   1 -14 6543.74  278.61   1
   5   1 -13 3730.29 317.939   1
   5   1 -12 5635.31 238.893   1
   5   1 -11 4966.67 222.953   1
   5   1 -10 5983.49 224.646   1
   5   1  -930943.50 825.009   1
   5   1  -8 145.648 118.979   1
   5   1  -730921.00 991.813   1
   5   1  -667516.80 2218.92   1
   5   1  -522971.40 705.453   1
   5   1  -424091.10  730.10   1
   5   1  -352785.50 1455.32   1
   5   1  -2 8893.04 325.491   1
   5   1  -111976.80  429.62   1
   5   1   092397.80 2406.48   1
   5   1   116257.50 497.995   1
   5   1   2 9906.58 356.578   1
   5   1   353184.30 1508.29   1
   5   1   421696.20 727.673   1
   5   1   521621.80  874.37   1
   5   1   666985.10 2119.43   1
   5   1   730494.40 1074.25   1
   5   1   8 966.876 117.896   1
   5   1   928309.50 755.254   1
   5   1  10 4916.24  198.66   1
   5   1  11 4781.32 193.697   1
   5   1  12 3454.04 174.037   1
   5   1  13 5192.92 212.294   1
   5   1  14 6903.15 261.536   1
   5   1  1513727.10 485.364   1
   5   1  16 5288.44 235.553   1
   5   1  17 6109.17 285.808   1
   5   1  18 3533.43 310.943   1
   5   1  19 9933.83 462.043   1
   5   1  20 7198.04 374.617   1
   5   1  21 5324.34 393.788   1
   5   1  22 2339.27 264.367   1
   5   1  23 1966.49 272.451   1
   5   1  24 2253.57 295.831   1
   5   1  25 1011.98 264.502   1
   5   1  26 5798.39 488.111   1
   5   1  27 3692.44 417.152   1
   5   1  28 331.412 345.765   1
   5   1  29 1392.50 333.431   1
   5   1  30 1121.86 344.506   1
   5   1  31 833.276  346.21   1
   5   1  32 50.6875 424.958   1
   5   2 -32-318.315 719.722   1
   5   2 -31-55.1922 667.294   1
   5   2 -30 1765.12 322.539   1
   5   2 -29-47.6348 758.758   1
   5   2 -28 7283.56 501.277   1
   5   2 -27 478.208 883.174   1
   5   2 -26 1478.57 395.103   1
   5   2 -25 129.485 333.363   1
   5   2 -24 1517.71  294.47   1
   5   2 -23 737.389 257.554   1
   5   2 -2216960.30 804.523   1
   5   2 -21 332.578 314.399   1
   5   2 -20 9298.34 478.104   1
   5   2 -19  847.20 203.775   1
   5   2 -18 767.767 192.889   1
   5   2 -17 554.749 146.864   1
   5   2 -1686103.20 2373.34   1
   5   2 -15 183.323 158.073   1
   5   2 -1441590.50 1139.43   1
   5   2 -13 969.086 145.851   1
   5   2 -12 9679.02 331.764   1
   5   2 -11 128.197 93.7618   1
   5   2 -10119626.0 2994.11   1
   5   2  -9 931.698  102.87   1
   5   2  -848012.60 1266.00   1
   5   2  -7 3706.82 180.562   1
   5   2  -614909.30 489.309   1
   5   2  -5 1661.64  156.78   1
   5   2  -4135437.0 3585.80   1
   5   2  -3 4232.62 208.783   1
   5   2  -254292.70 1464.59   1
   5   2  -1 4667.04 248.453   1
   5   2   0 1614.71 156.609   1
   5   2   1 3911.71 227.199   1
   5   2   250358.60 1394.63   1
   5   2   3 3761.27 222.745   1
   5   2   4136551.0 3942.47   1
   5   2   5 1979.16 175.594   1
   5   2   619415.30 637.854   1
   5   2   7 3025.29 170.357   1
   5   2   847207.00 1209.78   1
   5   2   9  776.17 90.8822   1
   5   2  10121074.0 3029.30   1
   5   2  11 36.1844 102.206   1
   5   2  1210417.90 326.993   1
   5   2  13 1597.12 122.039   1
   5   2  1438316.60 1037.68   1
   5   2  15 232.059 128.569   1
   5   2  1685548.20 2201.69   1
   5   2  17 464.573 154.357   1
   5   2  18 1608.23  180.86   1
   5   2  19 754.642  163.96   1
   5   2  20 9032.14 405.701   1
   5   2  21 467.329 208.574   1
   5   2  2216856.10 892.888   1
   5   2  23 189.885 226.496   1
   5   2  24 1425.83 269.772   1
   5   2  25 350.341 258.467   1
   5   2  26 192.169 291.211   1
   5   2  27 -211.42 811.108   1
   5   2  28 6329.36 649.776   1
   5   2  29 -558.87 1055.22   1
   5   2  30 2041.25  372.34   1
   5   2  31 125.099  349.83   1
   5   2  32 650.525 601.829   1
   5   3 -31  516.54 327.716   1
   5   3 -30 3384.04 407.789   1
   5   3 -29 3556.79 420.572   1
   5   3 -28 472.633 443.211   1
   5   3 -27 3935.21 423.626   1
   5   3 -26 6033.31 675.794   1
   5   3 -25 142.247 379.841   1
   5   3 -24 6014.08 431.862   1
   5   3 -2313269.80 572.691   1
   5   3 -22 1195.48 247.562   1
   5   3 -2117518.60 713.539   1
   5   3 -2015394.80  643.30   1
   5   3 -19 622.434 209.702   1
   5   3 -18 7348.37 348.486   1
   5   3 -17 9437.14 398.398   1
   5   3 -16 5523.36 275.136   1
   5   3 -1530342.50 839.017   1
   5   3 -14 8052.54 295.102   1
   5   3 -13 3042.59 177.196   1
   5   3 -1216361.30 470.985   1
   5   3 -1134802.00 935.309   1
   5   3 -1010363.30 320.629   1
   5   3  -972454.30 1922.44   1
   5   3  -8 6109.50 253.531   1
   5   3  -7 171.724 126.211   1
   5   3  -650464.50 1383.43   1
   5   3  -5 8465.38  532.96   1
   5   3  -435584.40 1453.77   1
   5   3  -3111351.0 3136.17   1
   5   3  -225577.60 938.109   1
   5   3  -118922.60 607.318   1
   5   3   0131053.0 3481.50   1
   5   3   118051.00 609.637   1
   5   3   226125.20 828.692   1
   5   3   3119036.0 3327.06   1
   5   3   431682.40 942.466   1
   5   3   5 5677.65 283.956   1
   5   3   652991.10 1402.39   1
   5   3   7 1133.24  94.081   1
   5   3   8 5892.29 217.165   1
   5   3   978006.10 1936.07   1
   5   3  10 9462.99 299.999   1
   5   3  1131324.20  813.99   1
   5   3  1218044.30 506.007   1
   5   3  13 2979.42 156.949   1
   5   3  14 7671.80  281.68   1
   5   3  1532552.60 878.922   1
   5   3  16 4989.30 243.446   1
   5   3  17 9387.35 356.011   1
   5   3  18 7312.45  308.15   1
   5   3  19 1003.44 212.288   1
   5   3  2015458.30 557.463   1
   5   3  2115081.00 569.249   1
   5   3  22 923.329 226.898   1
   5   3  2312792.30 768.577   1
   5   3  24 5877.32 475.901   1
   5   3  25 127.581 284.521   1
   5   3  26 5032.22 516.894   1
   5   3  27 4679.87  598.64   1
   5   3  28 416.106 341.862   1
   5   3  29 3508.80 498.316   1
   5   3  30 2573.11  603.61   1
   5   3  31 474.003 469.341   1
   5   4 -31 2530.49 436.834   1
   5   4 -30 403.883 481.317   1
   5   4 -29 206.216 494.114   1
   5   4 -28  956.49 283.045   1
   5   4 -27 1122.94 320.932   1
   5   4 -26 864.047 457.954   1
   5   4 -25 6037.91 530.715   1
   5   4 -24-399.623 748.637   1
   5   4 -23 5416.77 377.215   1
   5   4 -22 2630.37 304.878   1
   5   4 -21 2368.17 266.542   1
   5   4 -20 158.043 184.487   1
   5   4 -1918387.40 780.587   1
   5   4 -18 857.082 288.544   1
   5   4 -17 7879.08 326.138   1
   5   4 -16 451.877 141.088   1
   5   4 -15 3085.76 182.463   1
   5   4 -14 471.157 115.262   1
   5   4 -1336690.90 973.158   1
   5   4 -12 3091.25 157.873   1
   5   4 -1134551.50 1003.66   1
   5   4 -10 2792.14 149.831   1
   5   4  -9 6976.57 302.638   1
   5   4  -8 3886.13 207.295   1
   5   4  -771092.10 1825.22   1
   5   4  -6 7134.00  269.59   1
   5   4  -547000.00 1228.35   1
   5   4  -4 1546.20 199.404   1
   5   4  -3 2811.27 304.531   1
   5   4  -2 6809.12 414.217   1
   5   4  -169316.10 2020.35   1
   5   4   0  858.01 142.835   1
   5   4   163397.90 1979.76   1
   5   4   2 7787.30 498.877   1
   5   4   3 4972.34 286.622   1
   5   4   4 1415.69 171.089   1
   5   4   550861.60 1337.08   1
   5   4   6 6810.15 239.454   1
   5   4   764250.70 1592.23   1
   5   4   8 4505.56 185.323   1
   5   4   9 5627.98 217.505   1
   5   4  10 3015.02 154.555   1
   5   4  1134178.00 999.357   1
   5   4  12 3037.27 168.991   1
   5   4  1336555.60  986.48   1
   5   4  14 623.827 124.232   1
   5   4  15 3651.46 217.496   1
   5   4  16  414.29 140.098   1
   5   4  17 8641.37 361.144   1
   5   4  18  795.86 242.005   1
   5   4  1920236.00 684.635   1
   5   4  20 556.757 188.301   1
   5   4  21 1336.94 280.355   1
   5   4  22 1910.43 258.851   1
   5   4  23 5879.12 429.853   1
   5   4  24 298.906 255.035   1
   5   4  25 6407.75  445.22   1
   5   4  26  145.91 342.609   1
   5   4  27 387.032 342.139   1
   5   4  28 1699.47 570.002   1
   5   4  29 383.869 325.918   1
   5   4  30 248.018 319.041   1
   5   4  31 2872.58 352.572   1
   5   5 -31 198.648 373.504   1
   5   5 -30 1299.20 390.994   1
   5   5 -29-215.091 945.932   1
   5   5 -28 1343.23 356.756   1
   5   5 -27-237.552 775.592   1
   5   5 -26 406.799 266.237   1
   5   5 -25 1507.75 313.523   1
   5   5 -24 394.665 357.172   1
   5   5 -23 388.633 365.892   1
   5   5 -22 6706.93 381.363   1
   5   5 -21 106.865 201.415   1
   5   5 -20 2410.05  228.34   1
   5   5 -19 2278.95 188.695   1
   5   5 -18 7751.86 320.927   1
   5   5 -17 1551.69  165.09   1
   5   5 -1610600.00 384.708   1
   5   5 -15 45.4779 172.627   1
   5   5 -14 1460.26 165.934   1
   5   5 -13 2626.81 165.303   1
   5   5 -1210472.80 350.235   1
   5   5 -11 1292.70  134.59   1
   5   5 -10 9504.78 332.138   1
   5   5  -9 1221.45 116.286   1
   5   5  -812732.90  394.06   1
   5   5  -7 3051.39 160.538   1
   5   5  -6 395.842 93.8758   1
   5   5  -5 6333.71 244.538   1
   5   5  -412936.70 392.137   1
   5   5  -3 2061.24  123.21   1
   5   5  -214610.70 467.603   1
   5   5  -1 4750.04 313.162   1
   5   5   0 652.168 151.107   1
   5   5   1 4009.31 261.991   1
   5   5   213059.70 446.043   1
   5   5   3 2786.35 158.288   1
   5   5   410265.30 401.063   1
   5   5   5 5522.33 215.222   1
   5   5   6 275.131 86.5554   1
   5   5   7 3537.54 146.844   1
   5   5   811024.60 327.391   1
   5   5   9 1509.48 112.082   1
   5   5  1010277.60 375.951   1
   5   5  11 1113.09 126.759   1
   5   5  1211614.20 379.258   1
   5   5  13 2054.18 153.801   1
   5   5  14 1440.50 185.124   1
   5   5  15 521.176 153.861   1
   5   5  1611287.00 456.436   1
   5   5  17  827.38 194.945   1
   5   5  18 7881.10 347.284   1
   5   5  19 2238.07 271.276   1
   5   5  20 3331.00 251.498   1
   5   5  21 901.466 249.186   1
   5   5  22 6928.96 396.069   1
   5   5  23-0.90712 673.285   1
   5   5  24  986.92 360.193   1
   5   5  25 2098.96 523.795   1
   5   5  26 647.624 300.701   1
   5   5  27 76.1182 507.515   1
   5   5  28 1623.79 809.161   1
   5   5  29-252.364  941.06   1
   5   5  30 594.578 430.906   1
   5   5  31 1083.90 690.158   1
   5   6 -30 3201.41 543.367   1
   5   6 -29 939.758 475.174   1
   5   6 -28 793.822 462.324   1
   5   6 -27 857.926 392.755   1
   5   6 -26-208.555 1006.65   1
   5   6 -25 1194.92 325.558   1
   5   6 -24 1955.89 331.912   1
   5   6 -23 762.732 268.206   1
   5   6 -22 3339.88  367.75   1
   5   6 -21 1015.76 217.624   1
   5   6 -20 8074.23  429.40   1
   5   6 -19 1029.47 176.683   1
   5   6 -18 6592.14  283.97   1
   5   6 -17 2062.02 190.663   1
   5   6 -1614176.30 476.974   1
   5   6 -15-4.71571 538.935   1
   5   6 -1416537.80 514.946   1
   5   6 -13 1372.73 152.367   1
   5   6 -12 8662.18 328.626   1
   5   6 -11 109.539 113.298   1
   5   6 -1050607.40 1324.61   1
   5   6  -9 3109.05 172.296   1
   5   6  -816305.00 494.768   1
   5   6  -7 293.073 80.7739   1
   5   6  -615501.20 453.384   1
   5   6  -5 772.453  102.04   1
   5   6  -425061.50 710.194   1
   5   6  -3  698.01 96.0522   1
   5   6  -216793.70 480.308   1
   5   6  -1 2578.41 132.172   1
   5   6   013729.80 408.502   1
   5   6   1 2497.29 147.102   1
   5   6   220211.40 577.552   1
   5   6   3 586.877 93.6861   1
   5   6   424426.30 658.948   1
   5   6   5  640.87  85.564   1
   5   6   618113.90 503.865   1
   5   6   7 260.117 83.4761   1
   5   6   818334.40 535.648   1
   5   6   9 3632.98 198.955   1
   5   6  1049868.00 1266.21   1
   5   6  11 318.688 107.681   1
   5   6  12 8401.38 296.996   1
   5   6  13 2106.55 174.493   1
   5   6  1416306.70 517.258   1
   5   6  15-9.63382 513.578   1
   5   6  1614264.00 631.309   1
   5   6  17 2062.18 208.872   1
   5   6  18 4784.06 317.714   1
   5   6  19 1579.02 209.152   1
   5   6  20 7342.54 367.006   1
   5   6  21 1236.71 311.205   1
   5   6  22 2961.51 334.635   1
   5   6  23 1011.04 300.772   1
   5   6  24 455.421 293.141   1
   5   6  25-219.709 907.262   1
   5   6  26  149.27 301.007   1
   5   6  27 144.986 392.658   1
   5   6  28 878.464 366.822   1
   5   6  29 1165.94 334.038   1
   5   6  30 1627.50 466.958   1
   5   7 -30 2288.97  607.50   1
   5   7 -29 3649.17  710.65   1
   5   7 -28 377.833 566.807   1
   5   7 -27 2569.59 549.943   1
   5   7 -26 3482.87 773.546   1
   5   7 -25 471.268 716.148   1
   5   7 -24 3363.12 427.625   1
   5   7 -23 2058.78 339.209   1
   5   7 -22 959.701 288.684   1
   5   7 -21 8953.97 488.199   1
   5   7 -2010328.50 500.885   1
   5   7 -19 532.123 179.789   1
   5   7 -18 2476.39 240.835   1
   5   7 -1711736.30  432.58   1
   5   7 -16 919.307 197.504   1
   5   7 -1524047.70 719.695   1
   5   7 -14 5707.80 284.659   1
   5   7 -13 1323.09 140.632   1
   5   7 -12 7325.55 352.257   1
   5   7 -1110351.20 388.042   1
   5   7 -10 6169.53 269.805   1
   5   7  -947840.00 1490.01   1
   5   7  -8 7062.02 254.261   1
   5   7  -7 4854.43 182.513   1
   5   7  -613550.00 403.031   1
   5   7  -517476.10 469.681   1
   5   7  -427528.10 721.596   1
   5   7  -366597.70 1689.23   1
   5   7  -218520.60 548.088   1
   5   7  -1 8080.73 258.953   1
   5   7   055818.30 1408.51   1
   5   7   1 7152.19 294.641   1
   5   7   218011.10 496.761   1
   5   7   365329.20 1647.07   1
   5   7   426413.40 737.378   1
   5   7   518418.20 539.796   1
   5   7   614431.70 424.092   1
   5   7   7 3776.23  175.76   1
   5   7   8 6655.27 284.572   1
   5   7   952888.60 1364.71   1
   5   7  10 5517.66 258.914   1
   5   7  11 8944.04 334.397   1
   5   7  12 7075.77 275.923   1
   5   7  13 1350.25 148.885   1
   5   7  14 4497.92 296.984   1
   5   7  1523032.10  737.31   1
   5   7  16 1776.34 212.964   1
   5   7  1713076.10 630.157   1
   5   7  18 3518.62 268.679   1
   5   7  19 417.632 240.694   1
   5   7  2011124.20 519.472   1
   5   7  21 7382.56 440.506   1
   5   7  22 995.115  276.51   1
   5   7  23 3199.99 427.483   1
   5   7  24 4044.31 456.473   1
   5   7  25  788.62  362.84   1
   5   7  26 3368.88 494.836   1
   5   7  27 1846.95 419.652   1
   5   7  28 276.021 325.916   1
   5   7  29 3684.15 755.132   1
   5   7  30 1851.44 485.507   1
   5   8 -29 760.422 480.452   1
   5   8 -28 3522.46 648.119   1
   5   8 -27 2373.98 558.944   1
   5   8 -26 -308.30 822.886   1
   5   8 -25 8815.20 1158.28   1
   5   8 -24 556.838  342.04   1
   5   8 -23 3735.79 532.987   1
   5   8 -22 2387.31 324.992   1
   5   8 -21 4160.08  410.50   1
   5   8 -20 208.254 247.284   1
   5   8 -1918636.30 698.051   1
   5   8 -18 138.917 214.349   1
   5   8 -1710501.80  534.78   1
   5   8 -16  711.61 177.489   1
   5   8 -15 4068.19 242.721   1
   5   8 -14 851.977 159.866   1
   5   8 -1336866.30 1079.41   1
   5   8 -12 1155.98 158.288   1
   5   8 -1125456.30 745.588   1
   5   8 -10 1219.56 139.776   1
   5   8  -9 5151.71 249.107   1
   5   8  -8 3707.19  194.03   1
   5   8  -758273.80 1534.40   1
   5   8  -6 4410.13 169.932   1
   5   8  -538476.60 1098.86   1
   5   8  -4 3737.89 157.792   1
   5   8  -3 1224.65 116.614   1
   5   8  -212161.90 391.083   1
   5   8  -159173.30 1498.60   1
   5   8   0 195.479 117.378   1
   5   8   154815.80 1466.92   1
   5   8   211864.40 371.483   1
   5   8   3 1879.43 114.573   1
   5   8   4 3798.26  200.03   1
   5   8   538336.30 1020.91   1
   5   8   6 4182.67 179.949   1
   5   8   754063.20 1391.17   1
   5   8   8 4042.79 193.091   1
   5   8   9 6304.23 253.217   1
   5   8  10 554.345 121.222   1
   5   8  1123744.80 665.009   1
   5   8  12 1432.33 145.862   1
   5   8  1338710.60 1060.29   1
   5   8  14 1418.68 161.688   1
   5   8  15 4295.21 272.068   1
   5   8  16 710.421 210.334   1
   5   8  17 8678.02 575.303   1
   5   8  18 203.589 210.951   1
   5   8  1921430.50 800.101   1
   5   8  20 1277.50 230.992   1
   5   8  21 5069.83 355.659   1
   5   8  22 2261.42  354.96   1
   5   8  23 4409.93 464.103   1
   5   8  24 603.523 415.684   1
   5   8  25 9069.49 880.784   1
   5   8  26-726.888 1034.88   1
   5   8  27 2800.97 730.823   1
   5   8  28 1507.01 402.177   1
   5   8  29 933.657 499.732   1
   5   9 -29 -404.05 652.188   1
   5   9 -28 287.189 505.736   1
   5   9 -27 70.4043 426.537   1
   5   9 -26 1482.39 496.442   1
   5   9 -25 1487.26 440.423   1
   5   9 -24 3596.21 587.904   1
   5   9 -23 2422.44 319.224   1
   5   9 -22 2137.72 320.604   1
   5   9 -21 1013.61 433.528   1
   5   9 -20 1826.15  220.47   1
   5   9 -19 397.243 256.712   1
   5   9 -1822335.30 796.028   1
   5   9 -17 1336.55 242.706   1
   5   9 -16 1940.44 339.987   1
   5   9 -15 3565.63 235.249   1
   5   9 -1410721.80  509.49   1
   5   9 -13 881.279 153.114   1
   5   9 -1235160.00 978.531   1
   5   9 -11 6557.60 268.529   1
   5   9 -10 1926.07 148.982   1
   5   9  -9 6332.32  251.08   1
   5   9  -821481.40 680.322   1
   5   9  -7 2508.74 148.584   1
   5   9  -631876.90 841.724   1
   5   9  -5 4834.37 209.538   1
   5   9  -4 844.664  110.46   1
   5   9  -310331.50 323.462   1
   5   9  -215046.50 445.517   1
   5   9  -1 6957.56 260.722   1
   5   9   013110.30 424.107   1
   5   9   1 6381.16 239.199   1
   5   9   215084.20 439.267   1
   5   9   311225.40 358.595   1
   5   9   4 1618.87 117.685   1
   5   9   5 5591.03 251.374   1
   5   9   629645.60 881.345   1
   5   9   7 3059.38 180.581   1
   5   9   820600.50 639.049   1
   5   9   9 6327.02 279.797   1
   5   9  10 2157.24 168.824   1
   5   9  11 6854.85 318.281   1
   5   9  1233495.70 999.364   1
   5   9  13 1059.20 258.899   1
   5   9  1410777.80 426.462   1
   5   9  15 3560.93 263.181   1
   5   9  16 3501.92 261.491   1
   5   9  17 728.477 434.515   1
   5   9  1822285.20 1113.53   1
   5   9  19 1269.82 362.866   1
   5   9  20 1757.76 360.925   1
   5   9  21 611.497 312.639   1
   5   9  22 1234.70 358.137   1
   5   9  23 2283.05 454.333   1
   5   9  24 4364.82 545.826   1
   5   9  25 632.654 397.207   1
   5   9  26 1632.07 454.841   1
   5   9  27 562.449 488.555   1
   5   9  28 575.448 356.975   1
   5   9  29 33.3138 484.241   1
   5  10 -28 1575.79 331.966   1
   5  10 -27 590.075 335.265   1
   5  10 -26 793.972 445.643   1
   5  10 -25-4.56864 1536.43   1
   5  10 -24 718.221 451.294   1
   5  10 -23 2531.51 413.848   1
   5  10 -22 1846.86 304.571   1
   5  10 -21 424.897 287.134   1
   5  10 -20 986.558 221.028   1
   5  10 -19 588.191 297.817   1
   5  10 -18 1506.86 218.112   1
   5  10 -17 1932.46 217.284   1
   5  10 -16 2719.26 204.254   1
   5  10 -15 1610.53 206.095   1
   5  10 -14 2709.30 242.738   1
   5  10 -13 1127.98 197.084   1
   5  10 -12 3164.70 215.439   1
   5  10 -11 4069.09 290.228   1
   5  10 -10 36.6745 203.469   1
   5  10  -9 567.495 134.083   1
   5  10  -813299.10 483.035   1
   5  10  -7 279.243 114.863   1
   5  10  -6 3619.71 191.736   1
   5  10  -5 589.276 119.242   1
   5  10  -413325.00  411.81   1
   5  10  -3 3141.45 155.822   1
   5  10  -212893.80 403.648   1
   5  10  -1 3364.72 175.139   1
   5  10   0 2810.99 167.962   1
   5  10   1 2636.43 170.196   1
   5  10   214383.20 450.875   1
   5  10   3 3479.03 175.962   1
   5  10   413201.20 455.857   1
   5  10   5 712.927 114.747   1
   5  10   6 5356.13 255.669   1
   5  10   7 437.445 159.612   1
   5  10   814752.80 588.292   1
   5  10   9 79.9434  147.33   1
   5  10  10 503.345 146.257   1
   5  10  11 4550.38 239.645   1
   5  10  12 3701.85  220.40   1
   5  10  13 745.977 164.162   1
   5  10  14 2311.59 261.497   1
   5  10  15 2160.81 212.083   1
   5  10  16 3467.17 394.308   1
   5  10  17 1298.04 257.587   1
   5  10  18 1530.85 259.248   1
   5  10  19 10.3834 285.523   1
   5  10  20 898.891  301.92   1
   5  10  21 552.182 331.866   1
   5  10  22 1925.51 355.833   1
   5  10  23 2692.50 457.324   1
   5  10  24 1321.11 685.129   1
   5  10  25  323.13 385.956   1
   5  10  26 1370.61 432.153   1
   5  10  27  351.67 561.117   1
   5  10  28 2127.38 409.687   1
   5  11 -27 114.333 649.672   1
   5  11 -26 449.808 322.032   1
   5  11 -25 1191.74 387.559   1
   5  11 -24 563.162 376.088   1
   5  11 -23 809.179 313.984   1
   5  11 -22 439.365 263.734   1
   5  11 -21-50.5664 716.834   1
   5  11 -20 581.215 227.407   1
   5  11 -19 2759.85 282.995   1
   5  11 -18-73.4671 688.042   1
   5  11 -17 3565.75  356.50   1
   5  11 -16 2139.86 260.036   1
   5  11 -15 1716.27 188.781   1
   5  11 -14 252.376 190.242   1
   5  11 -13 1460.81 174.129   1
   5  11 -12 51.9118 162.704   1
   5  11 -11 4965.50 369.907   1
   5  11 -10 4067.76 250.238   1
   5  11  -9 2087.58 172.131   1
   5  11  -8 1373.96 156.897   1
   5  11  -7 2429.70  176.01   1
   5  11  -6 2419.10 188.258   1
   5  11  -5 4891.86 236.643   1
   5  11  -413547.50 434.287   1
   5  11  -3 2926.41 201.385   1
   5  11  -2 2902.70  180.71   1
   5  11  -1 4618.13 207.367   1
   5  11   0 4542.17 216.345   1
   5  11   1 3712.26 210.861   1
   5  11   2 3966.34 206.001   1
   5  11   3 4061.72 259.351   1
   5  11   411612.20  445.23   1
   5  11   5 4865.55 235.208   1
   5  11   6 2428.82 209.282   1
   5  11   7 3076.19 213.884   1
   5  11   8 847.551  204.72   1
   5  11   9 2037.59 238.448   1
   5  11  10 2713.18 329.492   1
   5  11  11 4565.16 281.078   1
   5  11  12 20.9975 164.162   1
   5  11  13 1462.92 227.536   1
   5  11  14   50.15 179.448   1
   5  11  15 1981.47  218.20   1
   5  11  16 1558.56 239.013   1
   5  11  17 3261.73 368.639   1
   5  11  18-488.272 861.571   1
   5  11  19 3598.29  379.75   1
   5  11  20 372.842 297.033   1
   5  11  21  646.70 450.316   1
   5  11  22 729.826 465.049   1
   5  11  23 1113.80 473.086   1
   5  11  24 586.621 467.936   1
   5  11  25 1255.61 409.551   1
   5  11  26-198.368 679.107   1
   5  11  27-170.512 962.362   1
   5  12 -26 493.723 303.277   1
   5  12 -25 2385.98 380.006   1
   5  12 -24 758.808 310.297   1
   5  12 -23 447.976 273.927   1
   5  12 -22 1484.98 280.759   1
   5  12 -21 2022.51 304.028   1
   5  12 -20 542.825 348.337   1
   5  12 -19 5398.90 347.943   1
   5  12 -18 693.304 229.513   1
   5  12 -17 7842.98  481.42   1
   5  12 -16 780.097 239.657   1
   5  12 -15 5233.61 316.274   1
   5  12 -14 170.292 211.455   1
   5  12 -1311935.30 474.356   1
   5  12 -12 485.698 229.831   1
   5  12 -11 8726.49 501.742   1
   5  12 -10 418.839 190.841   1
   5  12  -9 759.011 264.722   1
   5  12  -8 1196.33 170.882   1
   5  12  -723265.50 710.246   1
   5  12  -6 1781.61 223.658   1
   5  12  -524712.70 786.459   1
   5  12  -4 2310.52 193.213   1
   5  12  -3 3293.10 196.741   1
   5  12  -2 6291.51  294.06   1
   5  12  -123362.20 743.392   1
   5  12   0 1513.99  158.55   1
   5  12   121318.30 644.479   1
   5  12   2 5024.09 267.927   1
   5  12   3 4112.98 225.318   1
   5  12   4 1961.13  180.58   1
   5  12   525384.50 943.605   1
   5  12   6 1752.52 175.421   1
   5  12   720625.10 742.536   1
   5  12   8 1067.29 178.603   1
   5  12   9 846.037 250.613   1
   5  12  10 455.583 276.583   1
   5  12  11 8268.05 434.905   1
   5  12  12 239.475 193.629   1
   5  12  1314192.40 543.306   1
   5  12  14 362.783 249.963   1
   5  12  15 6517.90 397.114   1
   5  12  16-66.0565 887.255   1
   5  12  17 6801.81 605.051   1
   5  12  18 1547.16 294.806   1
   5  12  19 5906.01 484.993   1
   5  12  20 42.9395  389.74   1
   5  12  21 1507.60 427.664   1
   5  12  22 825.998 333.685   1
   5  12  23 808.866 322.551   1
   5  12  24  1.6565 535.567   1
   5  12  25 1966.61 655.615   1
   5  12  26-13.2772 611.534   1
   5  13 -25 546.413 273.296   1
   5  13 -24 3324.18 376.418   1
   5  13 -23 1167.87 417.292   1
   5  13 -22 188.414 294.134   1
   5  13 -21 1098.24 298.829   1
   5  13 -20 2635.33 298.895   1
   5  13 -19 96.6124  236.43   1
   5  13 -18 9752.98 482.209   1
   5  13 -17 3390.39 356.927   1
   5  13 -16 2039.88 269.963   1
   5  13 -15 2103.46 386.351   1
   5  13 -14 9288.66 460.767   1
   5  13 -13 178.004 240.253   1
   5  13 -1219949.90 785.138   1
   5  13 -11 2460.08 275.081   1
   5  13 -10 1632.86 244.714   1
   5  13  -9 2200.39  203.98   1
   5  13  -812951.70  511.40   1
   5  13  -7 2132.26 189.324   1
   5  13  -621032.20 630.232   1
   5  13  -5 5668.14 272.405   1
   5  13  -4 1520.54 171.394   1
   5  13  -3 4657.83 308.908   1
   5  13  -2 6635.67  294.49   1
   5  13  -1 821.435 214.017   1
   5  13   011803.80 431.072   1
   5  13   1 476.068 171.711   1
   5  13   2 6921.21 308.304   1
   5  13   3 4070.82 249.843   1
   5  13   4 2122.39 195.846   1
   5  13   5 5821.83 283.754   1
   5  13   619136.90 652.652   1
   5  13   7 2092.07 208.236   1
   5  13   815489.50 742.952   1
   5  13   9 3326.93 288.299   1
   5  13  10 2927.39 295.324   1
   5  13  11 2504.94 281.526   1
   5  13  1218207.50  705.71   1
   5  13  13 186.527 244.949   1
   5  13  14 9894.93 488.144   1
   5  13  15 1272.46 246.609   1
   5  13  16 2405.44 426.642   1
   5  13  17 4651.29 482.182   1
   5  13  18 9237.24 571.838   1
   5  13  19 799.057 352.127   1
   5  13  20 2854.40 666.974   1
   5  13  21 1012.56 585.614   1
   5  13  22 -318.20 768.264   1
   5  13  23 391.304 357.234   1
   5  13  24 2316.83 403.487   1
   5  13  25 802.663 408.949   1
   5  14 -24 1076.40 459.519   1
   5  14 -23  543.42 246.228   1
   5  14 -22 5850.38  476.14   1
   5  14 -21 246.767 274.675   1
   5  14 -20-424.569 701.084   1
   5  14 -19 1291.72 261.977   1
   5  14 -18 1868.98 340.483   1
   5  14 -17 1751.02 294.652   1
   5  14 -16 2984.30 311.659   1
   5  14 -15 168.111 262.967   1
   5  14 -14 3458.56 422.987   1
   5  14 -13 1700.02 265.698   1
   5  14 -12 30.7728 236.112   1
   5  14 -11 1258.65 306.609   1
   5  14 -10 7038.16 374.682   1
   5  14  -9 490.493 199.283   1
   5  14  -8 6864.69 307.254   1
   5  14  -7 2285.34 262.248   1
   5  14  -6 675.693 201.281   1
   5  14  -5 3107.84  277.96   1
   5  14  -4 7717.18 361.082   1
   5  14  -3 1059.17 215.261   1
   5  14  -222744.20 729.836   1
   5  14  -1 1452.26 188.708   1
   5  14   0-55.0399 567.718   1
   5  14   1 1612.66 196.297   1
   5  14   222138.30 828.968   1
   5  14   3 1514.87 260.341   1
   5  14   4 7492.53 429.075   1
   5  14   5 3873.68  254.05   1
   5  14   6 1199.05 223.182   1
   5  14   7 2464.38 243.076   1
   5  14   8 6287.09 340.531   1
   5  14   9-55.6268 767.972   1
   5  14  10 6295.58 417.969   1
   5  14  11 1499.22 273.361   1
   5  14  12 482.261 272.144   1
   5  14  13 2033.87 313.837   1
   5  14  14 2973.79 330.424   1
   5  14  15 103.387 408.863   1
   5  14  16 3413.51 349.648   1
   5  14  17 1920.50  402.46   1
   5  14  18 2114.89 403.412   1
   5  14  19 1213.14 337.709   1
   5  14  20 620.083 542.749   1
   5  14  21  163.43 450.559   1
   5  14  22 6420.35 694.363   1
   5  14  23 1075.38 360.932   1
   5  14  24 674.202 314.792   1
   5  15 -23 852.469 495.475   1
   5  15 -22-36.1857 728.359   1
   5  15 -21 3436.13  421.26   1
   5  15 -20 74.3764 381.781   1
   5  15 -19 519.394 425.427   1
   5  15 -18 -43.099 870.224   1
   5  15 -17 1213.77 296.263   1
   5  15 -16 411.589 285.383   1
   5  15 -15 3029.34 324.915   1
   5  15 -14 -392.56 780.253   1
   5  15 -13 3752.54 367.358   1
   5  15 -12 796.253 234.283   1
   5  15 -11 1343.12 233.411   1
   5  15 -10 1098.41 235.049   1
   5  15  -9 6636.66 374.555   1
   5  15  -8 1042.06  287.67   1
   5  15  -7 1207.41 205.403   1
   5  15  -6-184.117 630.926   1
   5  15  -5 358.482 221.049   1
   5  15  -4 1025.95 213.854   1
   5  15  -3 7556.11 415.609   1
   5  15  -2 947.631  195.10   1
   5  15  -1 2863.83 245.962   1
   5  15   0 48.3277 202.184   1
   5  15   1 2622.79  272.74   1
   5  15   2 1125.02 268.181   1
   5  15   3 8008.51 401.072   1
   5  15   4 268.726  260.59   1
   5  15   5 858.995 223.136   1
   5  15   6  321.36  211.75   1
   5  15   7 774.711 227.026   1
   5  15   8 1214.52 236.177   1
   5  15   9 5862.31 397.916   1
   5  15  10 1155.01 347.002   1
   5  15  11 1585.31 266.522   1
   5  15  12 1453.26 287.311   1
   5  15  13 3779.24 500.557   1
   5  15  14-22.7562 747.066   1
   5  15  15 2887.99 399.473   1
   5  15  16 377.357  323.46   1
   5  15  17 1309.07 519.359   1
   5  15  18 61.0912 364.143   1
   5  15  19 308.997 308.463   1
   5  15  20 195.902 315.364   1
   5  15  21 2804.93 447.592   1
   5  15  22 206.034 456.214   1
   5  15  23-312.602 650.485   1
   5  16 -21  967.06 297.103   1
   5  16 -20 939.491 262.965   1
   5  16 -19-64.7796 654.956   1
   5  16 -18 1266.36 443.228   1
   5  16 -17  480.72 258.343   1
   5  16 -16 152.534 249.574   1
   5  16 -15 954.239 253.862   1
   5  16 -14 986.305 254.224   1
   5  16 -13 569.754 243.927   1
   5  16 -12-37.1961 747.287   1
   5  16 -11 1131.58 246.636   1
   5  16 -10 486.783 232.891   1
   5  16  -9 2473.50 316.485   1
   5  16  -8 402.088 298.916   1
   5  16  -7 398.231 201.282   1
   5  16  -6 1336.79 290.094   1
   5  16  -5 1206.81 306.086   1
   5  16  -4  276.10 210.552   1
   5  16  -3 2553.87 358.778   1
   5  16  -2 172.304 286.698   1
   5  16  -1 2220.33 272.452   1
   5  16   0-103.711 883.108   1
   5  16   1 1844.85 302.621   1
   5  16   2 546.815 242.484   1
   5  16   3 1701.86 260.726   1
   5  16   4-276.852 671.103   1
   5  16   5 700.029  222.66   1
   5  16   6 720.778 218.023   1
   5  16   7 186.557 295.052   1
   5  16   8 679.141 235.306   1
   5  16   9 2958.43 302.357   1
   5  16  10 374.936 250.855   1
   5  16  11 971.795 258.041   1
   5  16  12 294.658 284.069   1
   5  16  13 388.914 287.695   1
   5  16  14 444.751  433.38   1
   5  16  15 1102.27  358.86   1
   5  16  16  119.36 326.788   1
   5  16  17 1067.86  333.17   1
   5  16  18 571.274 313.469   1
   5  16  19-26.0779 1076.06   1
   5  16  20 1104.18 509.106   1
   5  16  21 1261.56 352.772   1
   5  17 -19-190.089 567.399   1
   5  17 -18 1120.45 229.957   1
   5  17 -17 71.7769 244.273   1
   5  17 -16 898.212 250.403   1
   5  17 -15 482.385 289.154   1
   5  17 -14 3209.14 319.025   1
   5  17 -13 367.389 345.797   1
   5  17 -12 4015.38 345.183   1
   5  17 -11 1021.10 372.909   1
   5  17 -10 967.592 254.945   1
   5  17  -9 1131.53  257.31   1
   5  17  -8 5172.54 362.099   1
   5  17  -7 405.935 249.413   1
   5  17  -6 3343.30 280.456   1
   5  17  -5  240.45 262.217   1
   5  17  -4 650.743 297.721   1
   5  17  -3 1334.83  258.89   1
   5  17  -2 1670.81 263.094   1
   5  17  -1 1701.53 272.622   1
   5  17   0 2531.13 280.519   1
   5  17   1 1003.33 270.526   1
   5  17   2 2096.89 239.945   1
   5  17   3 1819.90 311.881   1
   5  17   4 659.696 319.442   1
   5  17   5 450.687 237.517   1
   5  17   6 2580.50 386.517   1
   5  17   7 298.271 222.383   1
   5  17   8 6423.89  394.32   1
   5  17   9 1626.26  396.07   1
   5  17  10 1452.25 287.728   1
   5  17  11 694.334 337.592   1
   5  17  12 3935.28 372.245   1
   5  17  13 987.635 320.579   1
   5  17  14 3562.67 382.554   1
   5  17  15 548.724 350.515   1
   5  17  16  266.22 306.657   1
   5  17  17 724.054 562.314   1
   5  17  18 1029.92 323.927   1
   5  17  19 509.985 290.502   1
   5  18 -17 133.024  234.04   1
   5  18 -16 2434.69 323.165   1
   5  18 -15 203.212 254.488   1
   5  18 -14 398.586 275.651   1
   5  18 -13 1236.08 299.732   1
   5  18 -12 172.315 269.005   1
   5  18 -11 1558.89 377.126   1
   5  18 -10 3536.98 348.219   1
   5  18  -9 176.872 354.891   1
   5  18  -8 4582.70 355.177   1
   5  18  -7 843.656 254.667   1
   5  18  -6 94.4275 212.079   1
   5  18  -5 1067.58 242.837   1
   5  18  -4 5575.37 386.696   1
   5  18  -3 760.763 270.002   1
   5  18  -2 7443.42 483.211   1
   5  18  -1 1457.67 303.239   1
   5  18   0 482.723 265.409   1
   5  18   1 1253.45 260.337   1
   5  18   2 6782.98 414.444   1
   5  18   3 -280.21 1017.33   1
   5  18   4 5042.85 372.964   1
   5  18   5 1007.01 279.171   1
   5  18   6 177.913 322.009   1
   5  18   7 1724.31 424.443   1
   5  18   8 3908.01 375.423   1
   5  18   9 1221.11 387.725   1
   5  18  10 3923.31  592.02   1
   5  18  11 1022.96  400.47   1
   5  18  12 307.159 344.475   1
   5  18  13 783.138 326.483   1
   5  18  14 690.699 363.074   1
   5  18  15-329.175 869.227   1
   5  18  16 1788.48 345.294   1
   5  18  17 500.744 291.823   1
   5  19 -15 2616.43 558.365   1
   5  19 -14-214.086 601.758   1
   5  19 -13 171.962 346.882   1
   5  19 -12  386.97 382.053   1
   5  19 -11 593.139 249.038   1
   5  19 -10-167.667 860.411   1
   5  19  -9 4182.25 517.548   1
   5  19  -8 684.778 289.118   1
   5  19  -7 973.087 299.269   1
   5  19  -6 460.649 315.647   1
   5  19  -5 2078.12 325.315   1
   5  19  -4-343.887 748.889   1
   5  19  -3 5057.81 353.559   1
   5  19  -2  401.71 462.796   1
   5  19  -1 221.339 272.628   1
   5  19   0 375.131 289.858   1
   5  19   1 763.774 271.676   1
   5  19   2 199.401 252.066   1
   5  19   3 4385.19 370.727   1
   5  19   4 92.1172 242.455   1
   5  19   5 1656.13 307.353   1
   5  19   6-76.2255 741.946   1
   5  19   7  871.22 300.496   1
   5  19   8 585.312 336.692   1
   5  19   9 4221.02 455.285   1
   5  19  10 166.312 332.345   1
   5  19  11 640.532 368.008   1
   5  19  12  734.15 372.302   1
   5  19  13 327.159 513.634   1
   5  19  14 64.8385 326.714   1
   5  19  15 2753.66 427.136   1
   5  20 -12-392.849 628.935   1
   5  20 -11 367.041  333.55   1
   5  20 -10 1376.40 322.532   1
   5  20  -9 19.6582 371.553   1
   5  20  -8 604.755 382.566   1
   5  20  -7 832.237 398.612   1
   5  20  -6 373.404 267.417   1
   5  20  -5 448.859 352.676   1
   5  20  -4 619.188 346.247   1
   5  20  -3 440.488 282.281   1
   5  20  -2 168.445 277.328   1
   5  20  -1 567.375 339.225   1
   5  20   0 400.766 267.372   1
   5  20   1 389.659 266.551   1
   5  20   2 329.024  297.78   1
   5  20   3 60.5112  291.14   1
   5  20   4 415.978 275.453   1
   5  20   5 136.763 276.624   1
   5  20   6 287.264 280.983   1
   5  20   7 365.734 313.918   1
   5  20   8 391.561 287.795   1
   5  20   9 915.784 338.179   1
   5  20  10 1592.03 536.727   1
   5  20  11 339.783 314.618   1
   5  20  12-400.131 616.925   1
   5  21  -7 162.441 394.792   1
   5  21  -6 421.007 394.299   1
   5  21  -5 -171.06 748.369   1
   5  21  -4-212.094 641.503   1
   5  21  -3 487.293 303.559   1
   5  21  -2 350.705 247.052   1
   5  21  -1 242.436 270.418   1
   5  21   0 420.096 323.041   1
   5  21   1-313.321 654.849   1
   5  21   2 141.287 280.422   1
   5  21   3 444.344 380.066   1
   5  21   4 928.106 359.326   1
   5  21   5  275.99 321.465   1
   5  21   6 474.595 440.232   1
   5  21   7-150.286 853.672   1
   6   0   019798.80 671.301   1
   6   0   154841.00 1448.94   1
   6   0   2 121.918 100.605   1
   6   0   3 4175.79 211.082   1
   6   0   4 1988.12 127.168   1
   6   0   541802.80 1111.81   1
   6   0   663590.30 1683.12   1
   6   0   780875.10 2096.00   1
   6   0   8 5813.61 233.779   1
   6   0   920903.90 684.807   1
   6   0  10 205.934 95.5372   1
   6   0  1144404.80 1166.21   1
   6   0  1213704.90 448.891   1
   6   0  1365497.80 1697.48   1
   6   0  1415149.30 480.738   1
   6   0  15 8320.22 318.405   1
   6   0  16 1933.13 199.646   1
   6   0  1722106.90 737.699   1
   6   0  18 9387.55 444.398   1
   6   0  1925790.80 891.659   1
   6   0  20 1095.23 235.097   1
   6   0  21 2182.52  385.60   1
   6   0  22 25.8067 401.203   1
   6   0  23 4003.72 550.886   1
   6   0  24 963.186 303.395   1
   6   0  25 6810.24 488.738   1
   6   0  26 3139.96 496.404   1
   6   0  27 2725.66 468.032   1
   6   0  28 332.395  294.74   1
   6   0  29 394.775 405.264   1
   6   0  30 567.421 280.392   1
   6   0  31 3000.95 450.834   1
   6   1 -31 458.343 628.818   1
   6   1 -30 1245.63 312.127   1
   6   1 -29 2402.10 437.846   1
   6   1 -28 328.097 366.292   1
   6   1 -27 2044.15 426.567   1
   6   1 -26 1173.39 297.239   1
   6   1 -25 2510.52  329.57   1
   6   1 -24 5511.62 422.698   1
   6   1 -23 6925.39 459.668   1
   6   1 -22 815.236 259.504   1
   6   1 -21 3831.74 329.838   1
   6   1 -20 6700.53 343.979   1
   6   1 -19 2080.94 225.874   1
   6   1 -18 7834.06 390.457   1
   6   1 -1715481.40 531.878   1
   6   1 -16 1248.08 194.321   1
   6   1 -15 7885.04 305.212   1
   6   1 -14 7863.25 293.246   1
   6   1 -13 5690.54 235.626   1
   6   1 -1221255.40 613.139   1
   6   1 -11 5666.24 242.123   1
   6   1 -10 4558.12 210.167   1
   6   1  -919880.90 579.861   1
   6   1  -817877.20 554.067   1
   6   1  -730420.60 882.915   1
   6   1  -622180.10 615.305   1
   6   1  -533780.40 879.828   1
   6   1  -413749.40 427.115   1
   6   1  -364087.60 1612.63   1
   6   1  -219321.40 531.649   1
   6   1  -127897.80 749.119   1
   6   1   033605.10 876.329   1
   6   1   130711.90 810.465   1
   6   1   217413.70 512.131   1
   6   1   358583.20 1518.95   1
   6   1   415455.20 576.051   1
   6   1   531218.00 827.678   1
   6   1   618495.00 542.214   1
   6   1   739464.30 1025.17   1
   6   1   816411.50 512.577   1
   6   1   921348.50 612.518   1
   6   1  10 4517.20 262.397   1
   6   1  11 7978.49 373.807   1
   6   1  1219824.60 583.661   1
   6   1  13 4163.77 223.576   1
   6   1  14 9799.00 361.433   1
   6   1  15 7376.89 306.243   1
   6   1  16 1735.48 213.703   1
   6   1  1715438.30 538.341   1
   6   1  1810192.60 456.206   1
   6   1  19 2010.86 282.891   1
   6   1  20 6550.75 435.285   1
   6   1  21 4903.78 368.141   1
   6   1  22 929.193 280.878   1
   6   1  23 4257.08 467.972   1
   6   1  24 6410.75 446.262   1
   6   1  25 2202.16 340.014   1
   6   1  26 1394.37  491.63   1
   6   1  27 3465.58 433.926   1
   6   1  28  130.80 555.154   1
   6   1  29 3488.47 512.256   1
   6   1  30 1330.08 390.717   1
   6   1  31 1225.58 449.493   1
   6   2 -31-528.009 703.188   1
   6   2 -30 371.297 404.276   1
   6   2 -29 899.987  307.51   1
   6   2 -28  411.86 374.827   1
   6   2 -27 710.235 251.987   1
   6   2 -26 3762.32 336.798   1
   6   2 -25 457.688 267.733   1
   6   2 -24 3168.64  328.86   1
   6   2 -23 904.467 286.887   1
   6   2 -22 2563.17 292.962   1
   6   2 -21-197.509 660.683   1
   6   2 -20 5205.27 360.669   1
   6   2 -19 2368.20 245.871   1
   6   2 -18 2163.78 213.333   1
   6   2 -17 1548.14  179.28   1
   6   2 -16 6141.48 290.981   1
   6   2 -15 3381.49  230.02   1
   6   2 -1411078.40 366.199   1
   6   2 -13 4565.84 200.875   1
   6   2 -12 5088.00 228.567   1
   6   2 -11 114.454 104.986   1
   6   2 -1017623.80 506.284   1
   6   2  -9 9967.29 327.393   1
   6   2  -8 6106.43 219.131   1
   6   2  -7 5972.88 200.309   1
   6   2  -629137.40 745.202   1
   6   2  -5 2766.60  151.04   1
   6   2  -419919.40 579.053   1
   6   2  -3 6821.93 255.872   1
   6   2  -223199.30  663.43   1
   6   2  -1 2980.78 157.859   1
   6   2   035383.70 942.024   1
   6   2   1 3589.91 170.401   1
   6   2   226967.30 820.479   1
   6   2   3 4967.00 230.375   1
   6   2   420151.20 586.448   1
   6   2   5 2654.73 167.157   1
   6   2   629929.60 765.364   1
   6   2   7 4859.40 234.982   1
   6   2   8 8444.82 291.266   1
   6   2   9 8261.54 314.149   1
   6   2  1016492.50 490.951   1
   6   2  11 599.291 123.556   1
   6   2  12 5130.94 224.866   1
   6   2  13 5292.26 262.727   1
   6   2  1412471.80 422.994   1
   6   2  15 2890.23  203.58   1
   6   2  16 4649.62  259.62   1
   6   2  17 1607.29 181.272   1
   6   2  18 2288.53 194.531   1
   6   2  19 1661.02 259.861   1
   6   2  20 4426.52 345.981   1
   6   2  21 337.559 334.571   1
   6   2  22 2394.91 542.187   1
   6   2  23 521.379 294.946   1
   6   2  24 3849.65 384.222   1
   6   2  25 287.827 302.622   1
   6   2  26 3637.96 448.327   1
   6   2  27 1100.85 489.717   1
   6   2  28 1040.64 432.875   1
   6   2  29  715.28 414.881   1
   6   2  30  717.35 457.545   1
   6   2  31 341.279 587.385   1
   6   3 -30 796.151 332.093   1
   6   3 -29-35.4015 873.612   1
   6   3 -28 57.0248 306.896   1
   6   3 -27 871.656 317.033   1
   6   3 -26-34.4408 708.958   1
   6   3 -25 2978.74 334.622   1
   6   3 -24-43.2515 720.205   1
   6   3 -23 4492.44 346.315   1
   6   3 -22 1154.18 228.586   1
   6   3 -21 1662.03 221.797   1
   6   3 -20 7131.78 331.313   1
   6   3 -19 8878.89 370.412   1
   6   3 -18 2077.09 213.592   1
   6   3 -17 5224.82  258.15   1
   6   3 -16 1990.97 165.788   1
   6   3 -15 1059.83 148.293   1
   6   3 -14 5182.13 262.465   1
   6   3 -13 8546.05 324.038   1
   6   3 -12 1506.86 145.485   1
   6   3 -11 8509.82 313.642   1
   6   3 -1014824.30 439.372   1
   6   3  -9 1619.72 125.188   1
   6   3  -8 6457.54 230.708   1
   6   3  -711442.80  346.09   1
   6   3  -6 4084.44 200.113   1
   6   3  -513757.90 425.459   1
   6   3  -4 4425.67  200.63   1
   6   3  -313447.80 417.461   1
   6   3  -2 2458.58 145.984   1
   6   3  -134453.60 891.142   1
   6   3   0 149.402 102.476   1
   6   3   130819.80  854.62   1
   6   3   2 3200.80 166.784   1
   6   3   313845.80 405.323   1
   6   3   4 4310.01 180.927   1
   6   3   511243.50 348.775   1
   6   3   6 4627.40 183.856   1
   6   3   710324.00  324.27   1
   6   3   8 5991.27 230.874   1
   6   3   9 1881.76 137.486   1
   6   3  1014804.00 546.419   1
   6   3  11 7431.21 310.816   1
   6   3  12 1952.41 164.805   1
   6   3  13 8060.44 301.252   1
   6   3  14 4906.44 221.429   1
   6   3  15 1705.03 174.721   1
   6   3  16 2238.76 186.513   1
   6   3  17 4133.72 254.109   1
   6   3  18 1842.65 265.647   1
   6   3  1910960.50 598.621   1
   6   3  20 6151.43 372.014   1
   6   3  21 1278.45 262.721   1
   6   3  22 915.833 284.509   1
   6   3  23 5945.50 516.525   1
   6   3  24 641.386 326.476   1
   6   3  25 3324.70 386.909   1
   6   3  26-216.211 793.933   1
   6   3  27 832.654 461.354   1
   6   3  28 683.864 525.989   1
   6   3  29 1064.63 388.838   1
   6   3  30 1387.38 491.771   1
   6   4 -30 403.246 323.623   1
   6   4 -29 292.069 333.661   1
   6   4 -28 125.395 305.461   1
   6   4 -27 771.118 297.287   1
   6   4 -26 465.568 335.378   1
   6   4 -25 3946.27 549.325   1
   6   4 -24 678.506 256.237   1
   6   4 -23 2383.29 268.082   1
   6   4 -22 463.233 270.581   1
   6   4 -21 1325.84 266.366   1
   6   4 -20 1155.06 192.832   1
   6   4 -1912005.10  532.55   1
   6   4 -18 1259.48 172.468   1
   6   4 -1719268.50 604.579   1
   6   4 -16 1981.74 166.738   1
   6   4 -15 7163.37 289.849   1
   6   4 -14 2690.97 186.811   1
   6   4 -1339425.80 1068.57   1
   6   4 -12 6943.46 267.531   1
   6   4 -1129508.30 799.911   1
   6   4 -10 3921.30 191.615   1
   6   4  -910530.00 329.738   1
   6   4  -8 4229.53 190.467   1
   6   4  -750832.00 1290.43   1
   6   4  -6 3311.27 156.941   1
   6   4  -532663.50 854.009   1
   6   4  -4 3695.37 182.246   1
   6   4  -3 8810.17  291.41   1
   6   4  -2 5192.00 190.789   1
   6   4  -135100.00 906.152   1
   6   4   0 3324.01 166.206   1
   6   4   132057.70 872.203   1
   6   4   2 3170.15 160.089   1
   6   4   311513.30 361.993   1
   6   4   4 5596.53 216.658   1
   6   4   533507.80 858.814   1
   6   4   6 4249.64 178.865   1
   6   4   753317.30 1426.80   1
   6   4   8 3322.55 152.449   1
   6   4   912227.80 378.693   1
   6   4  10 4753.15 200.189   1
   6   4  1127331.10 855.857   1
   6   4  12 6428.62 296.498   1
   6   4  1337616.80 1111.34   1
   6   4  14 1848.46 166.072   1
   6   4  15 6809.94 292.864   1
   6   4  16 846.669 144.694   1
   6   4  1718797.50 637.224   1
   6   4  18 2437.90 212.826   1
   6   4  1913075.80 484.854   1
   6   4  20 322.929 187.378   1
   6   4  21 819.044 278.418   1
   6   4  22-37.5913 687.037   1
   6   4  23 2205.91 269.074   1
   6   4  24 805.843 324.706   1
   6   4  25 3470.02 449.645   1
   6   4  26 482.502 358.099   1
   6   4  27 1105.24 367.987   1
   6   4  28 257.189 335.804   1
   6   4  29 646.296 415.796   1
   6   4  30 438.151  371.80   1
   6   5 -30 953.317 424.767   1
   6   5 -29 1617.77 396.353   1
   6   5 -28 156.123  361.53   1
   6   5 -27 2428.32 556.417   1
   6   5 -26 5081.99 435.267   1
   6   5 -25 1710.56 326.513   1
   6   5 -24 3767.06  510.45   1
   6   5 -23 7981.12 440.448   1
   6   5 -22 358.909 219.332   1
   6   5 -21 5297.50 315.343   1
   6   5 -2012535.20 614.973   1
   6   5 -19 7289.71 351.463   1
   6   5 -1810749.00 420.496   1
   6   5 -17 4474.07 250.063   1
   6   5 -16 1621.33 222.191   1
   6   5 -15 5161.39 268.149   1
   6   5 -1415085.30 499.049   1
   6   5 -13 5769.90 287.662   1
   6   5 -1223008.10 676.085   1
   6   5 -11 9190.84 364.662   1
   6   5 -10 8037.67 280.464   1
   6   5  -917954.20 528.744   1
   6   5  -824232.80 704.365   1
   6   5  -712595.90 378.564   1
   6   5  -644729.60 1192.85   1
   6   5  -5 6378.35 228.158   1
   6   5  -417026.70 520.004   1
   6   5  -341146.00 1039.97   1
   6   5  -229599.60 793.169   1
   6   5  -131169.30 845.589   1
   6   5   053595.50 1374.91   1
   6   5   131615.70 852.482   1
   6   5   227866.40 874.994   1
   6   5   341146.60 1153.88   1
   6   5   415150.10 478.699   1
   6   5   5 8070.51 251.684   1
   6   5   638118.50 962.586   1
   6   5   712118.80 378.568   1
   6   5   825419.50 692.589   1
   6   5   916488.30 466.368   1
   6   5  10 7358.44  266.73   1
   6   5  1110556.00 346.032   1
   6   5  1222266.40 675.075   1
   6   5  13 4264.07 230.432   1
   6   5  1418503.30 564.987   1
   6   5  15 5310.17 253.533   1
   6   5  16 601.117 155.139   1
   6   5  17 4752.27 261.199   1
   6   5  1813191.30 595.906   1
   6   5  19 5261.60 385.999   1
   6   5  2010880.80 495.511   1
   6   5  21 5381.45 316.193   1
   6   5  22 685.175 280.379   1
   6   5  23 7152.21 419.714   1
   6   5  24 6142.52 425.825   1
   6   5  25 1204.46 292.422   1
   6   5  26 3619.41  421.75   1
   6   5  27 3057.70 441.316   1
   6   5  28 485.449 330.448   1
   6   5  29 1695.64 665.505   1
   6   5  30 3045.89 671.766   1
   6   6 -29 2543.43 518.818   1
   6   6 -28 2712.17 614.808   1
   6   6 -27 628.453 429.362   1
   6   6 -26 2820.89 560.878   1
   6   6 -25-93.6884 743.452   1
   6   6 -24 2226.73 438.915   1
   6   6 -23 875.326 266.046   1
   6   6 -2210532.90 500.984   1
   6   6 -21 2952.37 268.604   1
   6   6 -20 5800.20 323.531   1
   6   6 -19 366.828 167.135   1
   6   6 -18 4350.35 250.548   1
   6   6 -17 2389.65 207.091   1
   6   6 -1625854.20 784.507   1
   6   6 -15 5439.14 276.352   1
   6   6 -14 9543.13  379.11   1
   6   6 -13 498.194 154.936   1
   6   6 -12 2241.41 181.891   1
   6   6 -11 350.752 144.651   1
   6   6 -1039397.60 1098.20   1
   6   6  -912893.20 421.399   1
   6   6  -822516.10 648.461   1
   6   6  -7 1093.94 123.684   1
   6   6  -6 5791.04  254.66   1
   6   6  -5 8972.04 327.803   1
   6   6  -452421.10 1468.81   1
   6   6  -311121.00 374.941   1
   6   6  -236858.60 1052.28   1
   6   6  -1 5924.66 247.729   1
   6   6   015819.70 502.186   1
   6   6   1 6039.96  220.67   1
   6   6   236380.90 1116.11   1
   6   6   3 9722.77 303.433   1
   6   6   454351.80 1673.07   1
   6   6   5 8922.45 286.022   1
   6   6   6 6073.86 221.717   1
   6   6   7 895.331   99.92   1
   6   6   826913.80 719.299   1
   6   6   911548.30 371.062   1
   6   6  1040708.30 1137.11   1
   6   6  11 609.056 119.796   1
   6   6  12 2434.85 197.519   1
   6   6  13 427.043  164.66   1
   6   6  1410838.50 403.984   1
   6   6  15 6750.20 459.056   1
   6   6  1622563.00 743.963   1
   6   6  17 3844.46 247.361   1
   6   6  18 3386.77 228.838   1
   6   6  19 472.648 183.094   1
   6   6  20 5515.75 316.544   1
   6   6  21 4805.25 317.161   1
   6   6  22 9689.27 458.885   1
   6   6  23  539.04 258.449   1
   6   6  24 2073.89 304.533   1
   6   6  25 953.381 281.693   1
   6   6  26 2175.37 360.768   1
   6   6  27 1013.63 425.183   1
   6   6  28 3682.13  516.92   1
   6   6  29 2264.23 510.303   1
   6   7 -29 336.581  416.42   1
   6   7 -28 1100.82 937.069   1
   6   7 -27 886.447 435.754   1
   6   7 -26 712.314  364.28   1
   6   7 -25 800.939 367.657   1
   6   7 -24 635.297 386.529   1
   6   7 -23 99.8578 517.872   1
   6   7 -22 504.823 314.155   1
   6   7 -21 1009.32  362.26   1
   6   7 -20 4489.74 311.128   1
   6   7 -19 6285.68 319.417   1
   6   7 -18 843.159 176.213   1
   6   7 -17 1048.45 181.023   1
   6   7 -16 1709.76 185.999   1
   6   7 -1510029.80 412.855   1
   6   7 -14 7649.70 324.264   1
   6   7 -13 5815.96 337.838   1
   6   7 -12 5029.78 243.248   1
   6   7 -1110203.40 369.455   1
   6   7 -1010643.90 354.485   1
   6   7  -9 8243.63 329.887   1
   6   7  -8 6257.68 252.313   1
   6   7  -7 4350.09 205.185   1
   6   7  -6 8031.88  279.40   1
   6   7  -5 5150.09 217.231   1
   6   7  -4 4230.01  236.18   1
   6   7  -3 4497.61 203.243   1
   6   7  -2 5471.14 216.653   1
   6   7  -1 1558.37 123.758   1
   6   7   014054.70 430.112   1
   6   7   1 1842.21 131.196   1
   6   7   2 3996.30 180.686   1
   6   7   3 5118.45 212.241   1
   6   7   4 5143.26  217.86   1
   6   7   5 4451.97 178.536   1
   6   7   6 6889.05 244.357   1
   6   7   7 3460.76 179.462   1
   6   7   8 5150.18 211.904   1
   6   7   9 9867.99  337.11   1
   6   7  1011418.00 385.831   1
   6   7  11 7908.62 308.048   1
   6   7  12 4272.89 214.674   1
   6   7  13 6835.27 295.004   1
   6   7  14 8122.07 408.197   1
   6   7  1510126.00 440.244   1
   6   7  16 2179.87 262.173   1
   6   7  17 936.465 197.759   1
   6   7  18 888.545 204.594   1
   6   7  19 6817.98 366.669   1
   6   7  20 5550.70 471.296   1
   6   7  21 1697.33 383.257   1
   6   7  22-65.1117 814.013   1
   6   7  23 375.896  443.96   1
   6   7  24 557.507 455.513   1
   6   7  25 1834.05 544.444   1
   6   7  26 1698.75 384.402   1
   6   7  27 234.445 337.918   1
   6   7  28-431.583 696.486   1
   6   7  29 1211.24 429.616   1
   6   8 -28-382.316 703.225   1
   6   8 -27 1248.40 399.161   1
   6   8 -26 565.663 545.508   1
   6   8 -25-457.775 781.551   1
   6   8 -24 2053.33 697.755   1
   6   8 -23 1534.28 644.247   1
   6   8 -22 383.458 602.492   1
   6   8 -21 3030.03 337.161   1
   6   8 -20 632.677 206.648   1
   6   8 -19 209.593 227.749   1
   6   8 -18 2619.16 302.091   1
   6   8 -17 2982.83 271.328   1
   6   8 -16 403.391  188.54   1
   6   8 -15 5623.63 435.707   1
   6   8 -14 681.886 171.802   1
   6   8 -13 2621.53 191.406   1
   6   8 -12 4966.81 255.763   1
   6   8 -11 3951.79 218.057   1
   6   8 -10 1290.58  141.80   1
   6   8  -911720.60 404.185   1
   6   8  -8 3720.38  209.63   1
   6   8  -7 1352.34 156.745   1
   6   8  -6 505.471 105.957   1
   6   8  -5 5931.37 248.105   1
   6   8  -4 405.132  116.07   1
   6   8  -3 7255.30 261.414   1
   6   8  -2 580.837 115.454   1
   6   8  -1 4290.86 198.583   1
   6   8   0 278.547 104.142   1
   6   8   1 3459.90 161.673   1
   6   8   2 752.135 103.741   1
   6   8   3 7689.68 275.765   1
   6   8   4 615.898 97.7308   1
   6   8   5 7127.54 277.556   1
   6   8   6 1091.72 120.945   1
   6   8   7 1323.71 128.176   1
   6   8   8 3973.06 193.651   1
   6   8   915589.50 517.131   1
   6   8  10 1189.67 162.939   1
   6   8  11 2979.34  186.96   1
   6   8  12 4450.81 232.338   1
   6   8  13 2988.66 216.736   1
   6   8  14  825.14 175.543   1
   6   8  15 4585.12 304.952   1
   6   8  16 78.6162 194.223   1
   6   8  17 2504.91 318.214   1
   6   8  18 2594.05 345.789   1
   6   8  19 346.515  235.14   1
   6   8  20  440.71 315.056   1
   6   8  21 2690.30 301.247   1
   6   8  22  557.45 303.133   1
   6   8  23 913.868 378.693   1
   6   8  24 2728.93 494.523   1
   6   8  25-486.882 992.064   1
   6   8  26-127.518 713.442   1
   6   8  27-70.9995 767.862   1
   6   8  28-445.912 934.836   1
   6   9 -28 193.024 534.064   1
   6   9 -27 1169.13 311.028   1
   6   9 -26 3996.65 450.891   1
   6   9 -25 298.042 326.924   1
   6   9 -24 1910.08 360.441   1
   6   9 -23 485.004 318.303   1
   6   9 -22 1808.24 326.256   1
   6   9 -21 996.459 229.829   1
   6   9 -20 5029.08 357.952   1
   6   9 -19 931.741 217.441   1
   6   9 -18 4049.35  288.84   1
   6   9 -17 1000.62  242.95   1
   6   9 -16 1186.16 199.043   1
   6   9 -15 296.879 200.389   1
   6   9 -14 8470.22 371.124   1
   6   9 -13-60.2168 675.989   1
   6   9 -12 8452.78 335.914   1
   6   9 -11 881.135 159.577   1
   6   9 -10 4800.90 262.502   1
   6   9  -9 2922.40 206.968   1
   6   9  -8 8788.64 347.744   1
   6   9  -7 3675.52 231.342   1
   6   9  -622155.30  643.87   1
   6   9  -5  607.88  211.86   1
   6   9  -4 7978.14 352.493   1
   6   9  -311742.20 456.909   1
   6   9  -218141.60  546.92   1
   6   9  -1 2491.28 189.556   1
   6   9   024369.20 731.508   1
   6   9   1 2862.42 179.899   1
   6   9   215694.70 456.645   1
   6   9   312525.80 384.095   1
   6   9   4 7663.48 304.064   1
   6   9   5 353.915 99.3788   1
   6   9   620497.60 603.481   1
   6   9   7 3185.72 189.039   1
   6   9   8 8594.55 317.374   1
   6   9   9 2837.10 195.651   1
   6   9  10 4301.94 250.444   1
   6   9  11  613.44 192.992   1
   6   9  12 7752.78 348.804   1
   6   9  13 3.42258 166.288   1
   6   9  14 8330.49 345.825   1
   6   9  15 1249.69  251.56   1
   6   9  16 551.739 230.668   1
   6   9  17 378.232 346.997   1
   6   9  18 6385.48 651.372   1
   6   9  19 186.111 324.821   1
   6   9  20 4629.50 342.964   1
   6   9  21 1479.20  296.96   1
   6   9  22 1143.19 441.474   1
   6   9  23 696.732 407.478   1
   6   9  24 3005.32 411.444   1
   6   9  25-218.827 842.689   1
   6   9  26 3172.27 466.202   1
   6   9  27 325.155 501.004   1
   6   9  28 1079.77 726.987   1
   6  10 -27 794.822 335.606   1
   6  10 -26 357.159 354.236   1
   6  10 -25 1199.47 348.614   1
   6  10 -24 1781.80 553.933   1
   6  10 -23 1989.03 376.523   1
   6  10 -22 7244.32 447.998   1
   6  10 -21 1014.69 288.731   1
   6  10 -20 2409.90 259.789   1
   6  10 -19 482.375 203.879   1
   6  10 -18 1118.58 221.165   1
   6  10 -17 1424.69 272.337   1
   6  10 -1621123.10 704.648   1
   6  10 -15 2870.97 261.593   1
   6  10 -14 5914.95 307.625   1
   6  10 -13 476.639  179.19   1
   6  10 -12 1815.08 206.314   1
   6  10 -11 3112.81 220.006   1
   6  10 -1028156.10  993.24   1
   6  10  -9 4951.35 322.931   1
   6  10  -812387.60 545.052   1
   6  10  -7 3191.05 233.192   1
   6  10  -6 513.243 145.984   1
   6  10  -512808.50 455.132   1
   6  10  -430047.40 901.542   1
   6  10  -3 2413.65 206.687   1
   6  10  -223775.20 728.092   1
   6  10  -110866.80 413.744   1
   6  10   0 635.542  119.34   1
   6  10   110377.70 338.476   1
   6  10   221886.00 623.539   1
   6  10   3 2791.02 171.695   1
   6  10   433138.70 903.933   1
   6  10   511622.80  388.47   1
   6  10   6 298.987 132.606   1
   6  10   7 2630.82  220.51   1
   6  10   813123.30 486.154   1
   6  10   9 3425.31 368.877   1
   6  10  1029564.50 877.312   1
   6  10  11 3133.49 230.403   1
   6  10  12 1463.23 197.877   1
   6  10  13-39.9739 619.518   1
   6  10  14 7271.58 511.777   1
   6  10  15 3311.94 273.743   1
   6  10  1617911.80  796.44   1
   6  10  17 1001.10  274.66   1
   6  10  18 1426.26 364.168   1
   6  10  19 1231.25 277.063   1
   6  10  20 2207.52 309.401   1
   6  10  21 746.974 260.574   1
   6  10  22 6281.99 431.887   1
   6  10  23 1110.06 460.203   1
   6  10  24 1726.84 404.102   1
   6  10  25  891.04 374.242   1
   6  10  26 186.357 467.915   1
   6  10  27  804.77 441.617   1
   6  11 -26 1440.31 329.743   1
   6  11 -25 217.901 397.746   1
   6  11 -24 518.436 416.605   1
   6  11 -23 1336.22 502.971   1
   6  11 -22 519.704 274.714   1
   6  11 -21 5343.06 386.131   1
   6  11 -20 2327.42 332.446   1
   6  11 -19 1855.10 260.997   1
   6  11 -18 1558.35 262.616   1
   6  11 -17 9452.89 558.768   1
   6  11 -16 4401.38 282.204   1
   6  11 -1511578.10 439.401   1
   6  11 -14 4781.69  272.92   1
   6  11 -13 1502.54 280.112   1
   6  11 -12 2911.34 255.539   1
   6  11 -11 9077.50 394.885   1
   6  11 -10 4142.43 265.932   1
   6  11  -917017.50 634.412   1
   6  11  -8 4513.87 377.892   1
   6  11  -7 2048.10 202.449   1
   6  11  -610119.10 379.509   1
   6  11  -515356.80 500.275   1
   6  11  -4 8239.68 346.266   1
   6  11  -312423.40 448.109   1
   6  11  -2 3803.08 280.542   1
   6  11  -1 1493.71 156.324   1
   6  11   0 8691.07 407.332   1
   6  11   1 693.243 129.289   1
   6  11   2 2265.20 173.554   1
   6  11   318128.80 550.198   1
   6  11   4 7332.54  296.74   1
   6  11   513947.80 455.197   1
   6  11   6 9545.56 401.594   1
   6  11   7 1033.14 200.849   1
   6  11   8 5892.36 348.132   1
   6  11   917278.40 590.143   1
   6  11  10 4598.63 281.327   1
   6  11  11 8871.14 392.144   1
   6  11  12 2942.55 246.761   1
   6  11  13 1187.14 237.245   1
   6  11  14 4846.72 314.029   1
   6  11  1514972.80 585.091   1
   6  11  16 4294.50 381.911   1
   6  11  17 8088.03 543.434   1
   6  11  18 2595.39 340.428   1
   6  11  19 1699.68 311.323   1
   6  11  20 3188.43 360.969   1
   6  11  21 4824.65 388.476   1
   6  11  22 373.367  538.42   1
   6  11  23 1386.33 471.042   1
   6  11  24 854.669 352.255   1
   6  11  25  429.08 505.652   1
   6  11  26  729.72 330.314   1
   6  12 -25 1946.19 578.718   1
   6  12 -24 610.822  394.60   1
   6  12 -23 2529.22 386.008   1
   6  12 -22 904.356 296.198   1
   6  12 -21 1761.33 377.545   1
   6  12 -20-158.545 706.487   1
   6  12 -19 2265.85 326.509   1
   6  12 -18 20.4843 241.589   1
   6  12 -17 1408.38 336.228   1
   6  12 -16 105.212 223.259   1
   6  12 -15 2053.54 244.591   1
   6  12 -14 1430.53 330.224   1
   6  12 -13 3332.81 272.487   1
   6  12 -12-159.954 927.273   1
   6  12 -11 7325.39 434.797   1
   6  12 -10 421.611 223.329   1
   6  12  -9 2602.40 305.971   1
   6  12  -8 962.832 217.171   1
   6  12  -7 4767.01 354.688   1
   6  12  -6 2073.07 250.972   1
   6  12  -510192.20 447.319   1
   6  12  -4 165.835 245.403   1
   6  12  -3 3946.57 378.105   1
   6  12  -2 2095.07 207.919   1
   6  12  -115040.80 511.131   1
   6  12   0 3313.55 218.561   1
   6  12   115449.60 504.381   1
   6  12   2 1591.53 169.405   1
   6  12   3 5884.06 386.765   1
   6  12   4 211.115 160.532   1
   6  12   510826.50 406.526   1
   6  12   6 2535.26 212.893   1
   6  12   7 5370.06 384.949   1
   6  12   8 763.023 203.901   1
   6  12   9 3314.80 276.987   1
   6  12  10 455.835 188.808   1
   6  12  11 6795.32 471.469   1
   6  12  12 22.7076 229.049   1
   6  12  13 3664.17 309.642   1
   6  12  14 1759.58 264.284   1
   6  12  15 2754.59 293.541   1
   6  12  16 119.709  280.72   1
   6  12  17 1438.69 314.557   1
   6  12  18 319.487 259.068   1
   6  12  19 2355.06 379.104   1
   6  12  20 603.685  383.81   1
   6  12  21 735.004 429.028   1
   6  12  22 703.687 320.111   1
   6  12  23 2963.92 384.086   1
   6  12  24 810.478 356.165   1
   6  12  25 1217.87 341.576   1
   6  13 -24 1136.77 306.807   1
   6  13 -23-74.6399  640.02   1
   6  13 -22 1305.75 380.103   1
   6  13 -21 203.705 244.061   1
   6  13 -20 582.637 374.098   1
   6  13 -19 609.304 280.718   1
   6  13 -18 378.897 265.202   1
   6  13 -17 576.547 298.771   1
   6  13 -16 3212.05 345.373   1
   6  13 -15 380.838 363.275   1
   6  13 -14  231.12 245.689   1
   6  13 -13 348.115 281.072   1
   6  13 -12  519.87 268.694   1
   6  13 -11 2431.68 316.431   1
   6  13 -10 622.663 255.628   1
   6  13  -9  254.45 335.735   1
   6  13  -8 4368.64 317.829   1
   6  13  -7 419.055 288.811   1
   6  13  -6 740.991 237.954   1
   6  13  -5 2687.41 276.746   1
   6  13  -4 6055.50 387.076   1
   6  13  -3 1184.98 273.025   1
   6  13  -2 3126.80 244.438   1
   6  13  -1 2299.11 259.035   1
   6  13   0 72.6825 175.739   1
   6  13   1 1464.60 250.629   1
   6  13   2 2669.78 212.206   1
   6  13   3 905.437 206.522   1
   6  13   4 7927.21 378.221   1
   6  13   5 1900.47 241.772   1
   6  13   6 245.854 195.383   1
   6  13   7 340.199 236.876   1
   6  13   8 2935.66  256.06   1
   6  13   9  350.75 244.104   1
   6  13  10 1704.72 229.215   1
   6  13  11 1616.34 225.377   1
   6  13  12 391.652  215.71   1
   6  13  13 252.895 243.033   1
   6  13  14 725.163 277.723   1
   6  13  15 65.9884 343.388   1
   6  13  16 3405.76 349.508   1
   6  13  17 19.2331 414.379   1
   6  13  18 16.8863 584.989   1
   6  13  19 6.34173 424.191   1
   6  13  20 1116.85 583.792   1
   6  13  21-277.012 1055.42   1
   6  13  22 1466.81 380.719   1
   6  13  23 339.118 308.025   1
   6  13  24-438.371 691.028   1
   6  14 -23-109.124 1093.80   1
   6  14 -22 1825.86 483.141   1
   6  14 -21 978.753 315.141   1
   6  14 -20 452.517 395.237   1
   6  14 -19 541.321 401.119   1
   6  14 -18 1481.32 410.974   1
   6  14 -17 1302.65 291.834   1
   6  14 -16 3441.92 359.793   1
   6  14 -15 42.3807 357.815   1
   6  14 -14 831.925 304.381   1
   6  14 -13-111.053  699.09   1
   6  14 -12 1594.39 254.757   1
   6  14 -11 904.308 224.266   1
   6  14 -10 4778.17 427.819   1
   6  14  -9-394.409  895.83   1
   6  14  -8 2190.49 302.321   1
   6  14  -7 3147.92 303.514   1
   6  14  -6 2172.05 271.258   1
   6  14  -5 2788.06 393.214   1
   6  14  -4 4455.96 351.643   1
   6  14  -3 1449.91  313.38   1
   6  14  -2 2673.78 272.853   1
   6  14  -1 1884.00 224.611   1
   6  14   0 1327.23 207.976   1
   6  14   1 2125.39 277.828   1
   6  14   2 2007.68 197.441   1
   6  14   3  132.31 185.339   1
   6  14   4 6215.54 323.762   1
   6  14   5 2792.48  292.55   1
   6  14   6 2073.81  243.07   1
   6  14   7 2549.87 350.544   1
   6  14   8 2835.20 406.478   1
   6  14   9 891.039 304.902   1
   6  14  10 4896.50 408.465   1
   6  14  11 631.765 340.676   1
   6  14  12 1373.30 365.415   1
   6  14  13 229.686 243.313   1
   6  14  14 1610.39 378.927   1
   6  14  15 285.766 314.842   1
   6  14  16 3235.94 363.138   1
   6  14  17 851.446 357.607   1
   6  14  18 1462.90 398.671   1
   6  14  19 146.845 919.285   1
   6  14  20 1429.93 777.665   1
   6  14  21 2441.05 439.357   1
   6  14  22 1071.12 415.059   1
   6  14  23 262.093 463.935   1
   6  15 -21 1593.67 286.806   1
   6  15 -20 529.061  215.30   1
   6  15 -19 467.536 231.921   1
   6  15 -18 137.045 278.855   1
   6  15 -17 1684.40 273.529   1
   6  15 -16 686.663 278.364   1
   6  15 -15 7697.44 450.764   1
   6  15 -14 1546.91 340.937   1
   6  15 -13 1475.51 249.635   1
   6  15 -12 1292.20 283.137   1
   6  15 -11 7708.10 472.577   1
   6  15 -10 1850.68 378.379   1
   6  15  -910555.80 675.688   1
   6  15  -8 383.218 269.544   1
   6  15  -7 135.524 313.545   1
   6  15  -6 2312.79 403.807   1
   6  15  -5 3029.54 310.672   1
   6  15  -4  729.86 350.695   1
   6  15  -3 9260.32 475.531   1
   6  15  -2 359.861 242.087   1
   6  15  -1 2749.13 384.123   1
   6  15   0 2375.46 247.672   1
   6  15   1 3039.07 260.577   1
   6  15   2 794.427  214.51   1
   6  15   3 8867.07 410.017   1
   6  15   4 630.023 234.429   1
   6  15   5 2648.35 249.969   1
   6  15   6 2058.25 344.905   1
   6  15   7 209.351 249.822   1
   6  15   8  487.03  275.37   1
   6  15   912576.00 597.744   1
   6  15  10 918.825 271.034   1
   6  15  11 7761.46 443.196   1
   6  15  12 1043.74 328.471   1
   6  15  13 1012.33 350.692   1
   6  15  14 2226.73 314.227   1
   6  15  15 6080.79 456.192   1
   6  15  16 110.215 287.709   1
   6  15  17 1374.21 498.335   1
   6  15  18 474.786 300.749   1
   6  15  19-417.467 824.351   1
   6  15  20 200.262 568.342   1
   6  15  21 2606.88 409.825   1
   6  16 -20 1775.88 361.082   1
   6  16 -19 2500.61 283.159   1
   6  16 -18-64.2409 626.381   1
   6  16 -17 1225.59  361.12   1
   6  16 -16 577.532 268.757   1
   6  16 -15 1325.57 292.739   1
   6  16 -14 1597.84 321.896   1
   6  16 -13 2653.87 358.893   1
   6  16 -12 836.316 281.877   1
   6  16 -11 3376.41 438.793   1
   6  16 -10 1089.93 342.008   1
   6  16  -9 237.649 303.908   1
   6  16  -8 3852.04  432.31   1
   6  16  -7 4947.94 402.844   1
   6  16  -6 1205.32 353.183   1
   6  16  -5 7646.96 446.372   1
   6  16  -4 2548.09  308.41   1
   6  16  -3 167.612 422.456   1
   6  16  -2 1038.38 496.425   1
   6  16  -1 7140.69 427.572   1
   6  16   0 5977.59 424.945   1
   6  16   1 6269.29 360.968   1
   6  16   2 1268.51 250.969   1
   6  16   3 351.395 200.408   1
   6  16   4 1876.70 256.774   1
   6  16   5 6501.99 356.743   1
   6  16   6 1411.20  258.30   1
   6  16   7 5043.34 338.797   1
   6  16   8 2880.94 422.527   1
   6  16   9 61.3033 272.248   1
   6  16  10 501.081 279.858   1
   6  16  11 2096.30 307.728   1
   6  16  12 871.546 384.337   1
   6  16  13 2921.41  347.91   1
   6  16  14 1114.03 477.007   1
   6  16  15 996.191 329.026   1
   6  16  16 856.055 281.488   1
   6  16  17 691.089 329.049   1
   6  16  18 508.858  278.08   1
   6  16  19 3128.25 423.132   1
   6  16  20 2396.00 645.101   1
   6  17 -18 1993.84 421.122   1
   6  17 -17-60.9314 603.054   1
   6  17 -16 429.058 307.531   1
   6  17 -15 199.054 335.727   1
   6  17 -14 1300.67 306.763   1
   6  17 -13 583.347 349.881   1
   6  17 -12 3053.68  420.25   1
   6  17 -11 1193.60 499.753   1
   6  17 -10 95.0368 347.647   1
   6  17  -9 1602.27 417.756   1
   6  17  -8 182.089 445.118   1
   6  17  -7 1295.77 320.187   1
   6  17  -6 2582.45 345.655   1
   6  17  -5 1068.27 271.938   1
   6  17  -4 1450.60  270.84   1
   6  17  -3 214.883 249.987   1
   6  17  -2 2072.60 297.591   1
   6  17  -1 775.137 264.519   1
   6  17   0 1286.23 283.823   1
   6  17   1 686.229 268.586   1
   6  17   2 2030.49 290.649   1
   6  17   3 -114.62 715.392   1
   6  17   4 927.666 235.309   1
   6  17   5 555.489 254.164   1
   6  17   6 3467.84 306.206   1
   6  17   7 1272.40 357.096   1
   6  17   8 1162.33 452.688   1
   6  17   9 468.873 377.608   1
   6  17  10 1005.09 338.468   1
   6  17  11 591.108 347.092   1
   6  17  12 2216.93 311.283   1
   6  17  13 507.177  422.25   1
   6  17  14 1098.43  309.70   1
   6  17  15 488.646 264.035   1
   6  17  16 1053.90  319.40   1
   6  17  17 489.627 504.848   1
   6  17  18 1985.07 431.906   1
   6  18 -16-449.073 604.389   1
   6  18 -15 -142.52 1249.53   1
   6  18 -14 639.464 347.286   1
   6  18 -13 401.927 288.026   1
   6  18 -12 1521.94  367.69   1
   6  18 -11 1205.76 392.405   1
   6  18 -10 206.284 289.517   1
   6  18  -9 119.782 420.576   1
   6  18  -8 1513.66 473.419   1
   6  18  -7 218.034 295.018   1
   6  18  -6 1426.95 337.684   1
   6  18  -5 184.882  283.66   1
   6  18  -4 766.718 266.741   1
   6  18  -3 101.783 409.389   1
   6  18  -2 675.577 257.414   1
   6  18  -1 514.117 262.968   1
   6  18   0 1170.29 361.072   1
   6  18   1 544.247  274.33   1
   6  18   2 387.886 262.106   1
   6  18   3 289.632 231.835   1
   6  18   4 44.8198 285.724   1
   6  18   5 186.827 272.918   1
   6  18   6 1283.36  295.23   1
   6  18   7 175.954 261.407   1
   6  18   8 1292.02 297.342   1
   6  18   9 97.0851 265.553   1
   6  18  10-296.085 704.193   1
   6  18  11 541.911 362.839   1
   6  18  12 1823.74 299.841   1
   6  18  13 17.5694 359.306   1
   6  18  14 490.291 288.032   1
   6  18  15 386.673 275.592   1
   6  18  16 280.204 1320.24   1
   6  19 -13 361.899 313.211   1
   6  19 -12 103.164 346.827   1
   6  19 -11 961.784 582.973   1
   6  19 -10 429.194 355.442   1
   6  19  -9 1403.12 734.163   1
   6  19  -8-81.5918 1158.78   1
   6  19  -7 1511.06 365.781   1
   6  19  -6 668.789 512.352   1
   6  19  -5 1123.75 308.031   1
   6  19  -4 443.581 285.589   1
   6  19  -3 502.927 272.639   1
   6  19  -2 471.477 341.189   1
   6  19  -1 253.408 346.441   1
   6  19   0 155.378 301.519   1
   6  19   1 879.635 314.977   1
   6  19   2 599.044 305.551   1
   6  19   3 524.456  311.33   1
   6  19   4  619.27 306.511   1
   6  19   5 1506.99 372.632   1
   6  19   6 746.839 365.958   1
   6  19   7 1106.50 353.509   1
   6  19   8 -217.84 707.258   1
   6  19   9 1399.98 330.085   1
   6  19  10 17.2998 282.256   1
   6  19  11 743.457 280.178   1
   6  19  12 108.447 280.775   1
   6  19  13 1030.66 495.224   1
   6  20  -9 332.632 363.958   1
   6  20  -8 218.713 365.997   1
   6  20  -7 1110.37 312.915   1
   6  20  -6 589.442 392.347   1
   6  20  -5 1973.37 314.129   1
   6  20  -4 921.317 378.935   1
   6  20  -3 54.8382 265.576   1
   6  20  -2  392.87  278.04   1
   6  20  -1 2389.89  344.75   1
   6  20   0 694.077 270.376   1
   6  20   1 2047.38 321.575   1
   6  20   2 555.661 328.794   1
   6  20   3 229.075 270.517   1
   6  20   4 897.611 394.343   1
   6  20   5 1429.48 386.343   1
   6  20   6-26.6363 704.019   1
   6  20   7 989.909  293.85   1
   6  20   8 268.787 305.398   1
   6  20   9 457.469  302.91   1
   7   0   131838.90 844.893   1
   7   0   2 1526.67  108.41   1
   7   0   327254.30 729.457   1
   7   0   412881.60 387.741   1
   7   0   5 297.841 105.138   1
   7   0   6 206.821 104.573   1
   7   0   7 5443.50 228.643   1
   7   0   8 437.714 129.996   1
   7   0   910080.80 397.461   1
   7   0  10 7178.05 266.297   1
   7   0  11 2258.95 172.934   1
   7   0  12 781.838  145.73   1
   7   0  13 1784.15 202.943   1
   7   0  14 239.113 147.909   1
   7   0  15 3178.06 263.319   1
   7   0  1611606.10 440.647   1
   7   0  17 231.653 176.415   1
   7   0  18 847.011 240.101   1
   7   0  19 3190.91 319.181   1
   7   0  20 1374.90 256.869   1
   7   0  21 7038.41 396.658   1
   7   0  22 2375.04 333.126   1
   7   0  23 5998.82 501.402   1
   7   0  24 1626.72 494.819   1
   7   0  25 363.472 383.183   1
   7   0  26-113.602 735.894   1
   7   0  27 3349.73 556.856   1
   7   0  28 1331.68 441.521   1
   7   0  29  540.04 416.746   1
   7   0  30 218.644  494.56   1
   7   1 -30 1046.22  760.72   1
   7   1 -29 221.316 321.113   1
   7   1 -28 709.736 275.471   1
   7   1 -27 394.432 270.623   1
   7   1 -26 2009.09 454.323   1
   7   1 -25 983.329 524.191   1
   7   1 -24 1586.13 358.038   1
   7   1 -23 251.616 338.109   1
   7   1 -22 1763.50 285.224   1
   7   1 -21 3063.76 329.259   1
   7   1 -20 6821.20  438.87   1
   7   1 -19 729.851 211.824   1
   7   1 -18 3492.28  353.39   1
   7   1 -17 2672.17 313.589   1
   7   1 -16 6437.94 337.796   1
   7   1 -15 2438.34 198.897   1
   7   1 -14 8214.80 321.374   1
   7   1 -13 5996.60 263.258   1
   7   1 -1217713.00 547.879   1
   7   1 -11 1697.14 166.632   1
   7   1 -10 9542.56 358.922   1
   7   1  -9 3271.01 167.242   1
   7   1  -813837.80 424.212   1
   7   1  -7 1803.48 131.605   1
   7   1  -620608.30 602.385   1
   7   1  -5 1643.22  121.55   1
   7   1  -419479.50 527.546   1
   7   1  -3 3263.65 148.316   1
   7   1  -211061.00 339.034   1
   7   1  -1 5182.41 194.844   1
   7   1   051069.00 1269.25   1
   7   1   1 5098.57 199.524   1
   7   1   211046.80 329.251   1
   7   1   3 4586.03 190.385   1
   7   1   418515.30 524.261   1
   7   1   5 1981.07 141.636   1
   7   1   620255.60 568.911   1
   7   1   7 2521.27 142.726   1
   7   1   814918.60 476.405   1
   7   1   9 4287.24 195.451   1
   7   1  10 8756.42 291.732   1
   7   1  11 1405.28 135.387   1
   7   1  1216014.30  516.39   1
   7   1  13 7280.92 317.643   1
   7   1  14 8905.25 385.317   1
   7   1  15 1964.53  212.12   1
   7   1  16 5902.49 318.323   1
   7   1  17 2005.15 226.325   1
   7   1  18 3036.72 265.218   1
   7   1  19 721.272 329.105   1
   7   1  20 7153.17 491.086   1
   7   1  21 1741.38 307.766   1
   7   1  22 1908.55 364.644   1
   7   1  23 286.385 418.683   1
   7   1  24 1698.92 530.467   1
   7   1  25 278.142 412.058   1
   7   1  26 2479.18 843.289   1
   7   1  27 892.361 398.288   1
   7   1  28 1279.58 480.564   1
   7   1  29 731.432 450.782   1
   7   1  30 37.0247  462.39   1
   7   2 -29 872.229 429.094   1
   7   2 -28 1717.91 330.116   1
   7   2 -27 357.748 483.787   1
   7   2 -26 1384.06 483.351   1
   7   2 -25 134.587 397.059   1
   7   2 -24 2393.13 562.047   1
   7   2 -23 971.476 304.108   1
   7   2 -22 7492.28  437.86   1
   7   2 -21 4461.75 541.696   1
   7   2 -20 8733.54 463.759   1
   7   2 -19 4153.82 307.946   1
   7   2 -18 4101.45 273.699   1
   7   2 -17 5086.25 310.135   1
   7   2 -1614743.80 549.828   1
   7   2 -1521426.70 710.544   1
   7   2 -14 7980.90 330.909   1
   7   2 -13 1490.82 169.804   1
   7   2 -12 1852.98 174.449   1
   7   2 -1122354.60  733.05   1
   7   2 -1041408.80 1129.51   1
   7   2  -922165.20 648.211   1
   7   2  -822026.30 614.255   1
   7   2  -7 4641.60 188.392   1
   7   2  -6 2402.16 141.013   1
   7   2  -530659.30 856.476   1
   7   2  -435738.60 1052.56   1
   7   2  -3 6884.55 263.281   1
   7   2  -234604.40 911.933   1
   7   2  -1 5011.23 208.731   1
   7   2   0 326.071 89.3802   1
   7   2   1 4372.66 172.331   1
   7   2   231483.60 861.788   1
   7   2   3 6881.85 235.571   1
   7   2   437746.30 955.305   1
   7   2   531119.20 848.505   1
   7   2   6 2116.63 140.182   1
   7   2   7 5986.66 240.248   1
   7   2   819412.30  570.40   1
   7   2   920195.60 713.965   1
   7   2  1041035.50 1087.32   1
   7   2  1122889.40 675.884   1
   7   2  12 3074.80 209.707   1
   7   2  13 772.469 150.283   1
   7   2  14 8770.57 388.068   1
   7   2  1520789.30 708.384   1
   7   2  1614264.30 525.968   1
   7   2  17 5467.08 347.959   1
   7   2  18 3859.30 294.166   1
   7   2  19 3292.78 400.387   1
   7   2  20 6633.88 504.166   1
   7   2  21 3936.63 391.447   1
   7   2  22 6966.48  529.18   1
   7   2  23 1312.15 419.891   1
   7   2  24 3943.43 658.138   1
   7   2  25 1173.35 432.619   1
   7   2  26 1888.21 511.745   1
   7   2  27 760.686 393.372   1
   7   2  28 2414.18 553.225   1
   7   2  29 2379.07 628.414   1
   7   3 -29 1982.21 307.807   1
   7   3 -28 1472.92 369.931   1
   7   3 -27 1993.10 362.815   1
   7   3 -26 4521.02 706.987   1
   7   3 -25 3125.95 373.858   1
   7   3 -24 2828.80 366.774   1
   7   3 -23 1928.63 309.247   1
   7   3 -22 2730.08 351.108   1
   7   3 -21 6023.60 369.767   1
   7   3 -20 5929.06 343.257   1
   7   3 -19 3590.12 324.944   1
   7   3 -18 7570.29 356.742   1
   7   3 -17 3157.29 233.716   1
   7   3 -16 7431.13 345.988   1
   7   3 -1510199.30 400.207   1
   7   3 -1416482.90 528.378   1
   7   3 -13 1430.81 179.274   1
   7   3 -12 8926.35 349.315   1
   7   3 -11 5081.35 248.395   1
   7   3 -1019962.80 623.986   1
   7   3  -917806.60 555.379   1
   7   3  -812484.80 431.498   1
   7   3  -7 5881.21 307.756   1
   7   3  -647080.60 1219.24   1
   7   3  -530042.10 851.489   1
   7   3  -422142.10 662.045   1
   7   3  -317687.10 552.175   1
   7   3  -223945.20 669.915   1
   7   3  -123322.20 651.712   1
   7   3   025430.60 681.933   1
   7   3   125029.40 722.867   1
   7   3   226954.40 704.848   1
   7   3   315584.90 435.284   1
   7   3   418698.70 518.188   1
   7   3   525031.70 670.959   1
   7   3   648104.00 1238.42   1
   7   3   7 6427.00  262.59   1
   7   3   814359.50 443.761   1
   7   3   913730.70 493.841   1
   7   3  1018568.50 554.239   1
   7   3  11 5362.64 247.601   1
   7   3  12 8378.79 333.863   1
   7   3  13 1326.72 172.598   1
   7   3  1417623.70 592.136   1
   7   3  1511793.70  471.59   1
   7   3  16 7197.87 348.692   1
   7   3  17 4686.96 304.993   1
   7   3  18 6886.80 374.225   1
   7   3  19 4370.46 357.678   1
   7   3  20 6178.24 418.331   1
   7   3  21 6513.20  493.40   1
   7   3  22 3274.28 402.446   1
   7   3  23 1108.65 599.189   1
   7   3  24 2278.75 479.513   1
   7   3  25 3761.50 839.301   1
   7   3  26 4787.76 872.828   1
   7   3  27 2151.15 939.491   1
   7   3  28 1958.84 538.074   1
   7   3  29 1511.46 479.671   1
   7   4 -29 667.671 325.407   1
   7   4 -28 400.374 301.888   1
   7   4 -27  236.18 525.015   1
   7   4 -26 892.595 423.427   1
   7   4 -25 2694.12 572.042   1
   7   4 -24 740.219 299.308   1
   7   4 -23 1624.49 289.238   1
   7   4 -22-253.184 706.681   1
   7   4 -21 1832.10 246.889   1
   7   4 -20 4201.21 301.868   1
   7   4 -19 4030.86 287.156   1
   7   4 -18 811.142 204.805   1
   7   4 -17 6447.76 342.985   1
   7   4 -16 2461.41 214.741   1
   7   4 -15 1350.54 186.567   1
   7   4 -14 4013.36 250.436   1
   7   4 -1313112.50 467.361   1
   7   4 -12 4550.97  259.98   1
   7   4 -11 8870.89 340.264   1
   7   4 -10 3758.50 201.782   1
   7   4  -9 2450.90 168.095   1
   7   4  -8 7263.81 279.608   1
   7   4  -723025.00 685.998   1
   7   4  -6 3368.20 170.054   1
   7   4  -518164.60 540.863   1
   7   4  -4 4667.41 212.937   1
   7   4  -313585.00 418.016   1
   7   4  -2 2722.20 144.768   1
   7   4  -123831.60  642.27   1
   7   4   014908.70 492.209   1
   7   4   125755.10 746.748   1
   7   4   2 2383.65 141.429   1
   7   4   312089.80 373.321   1
   7   4   4 4672.43 199.202   1
   7   4   518322.50 535.679   1
   7   4   6 3912.65 174.097   1
   7   4   729436.60 814.658   1
   7   4   8 6280.75 239.477   1
   7   4   9 2154.69 193.933   1
   7   4  10 4049.46 213.322   1
   7   4  1113885.60 484.261   1
   7   4  12 5536.85 271.092   1
   7   4  1310689.70 403.703   1
   7   4  14 3824.16 246.785   1
   7   4  15 567.615 309.322   1
   7   4  16 2391.01 241.244   1
   7   4  17 7791.72 523.527   1
   7   4  18 474.228 252.152   1
   7   4  19 3394.45 287.229   1
   7   4  20 4475.22 400.748   1
   7   4  21 2683.98 305.902   1
   7   4  22 600.314 458.381   1
   7   4  23  464.03 383.431   1
   7   4  24 1708.72 468.507   1
   7   4  25 3071.13 694.094   1
   7   4  26 1025.87 507.482   1
   7   4  27 2574.36 543.823   1
   7   4  28 165.607 490.026   1
   7   4  29 392.177 418.091   1
   7   5 -29-64.4586 1194.82   1
   7   5 -28 2175.60 517.667   1
   7   5 -27 884.842 339.182   1
   7   5 -26 892.338 395.737   1
   7   5 -25 1023.07 307.995   1
   7   5 -24 366.152 405.334   1
   7   5 -23 2148.33 429.952   1
   7   5 -22 1394.44 244.013   1
   7   5 -21 1114.49 310.638   1
   7   5 -20 2340.07 265.344   1
   7   5 -19 3922.54 288.553   1
   7   5 -18  417.76 215.397   1
   7   5 -17 3410.02 274.057   1
   7   5 -16 4832.56 457.378   1
   7   5 -15 2032.89 238.777   1
   7   5 -14 2217.05  239.55   1
   7   5 -13 8862.34 392.499   1
   7   5 -12  627.12 160.231   1
   7   5 -11 5922.95 264.554   1
   7   5 -10 3604.35 199.893   1
   7   5  -910524.90 382.031   1
   7   5  -8 3925.28  260.69   1
   7   5  -7 6104.69 268.139   1
   7   5  -6 1061.37 140.499   1
   7   5  -5 676.164 116.719   1
   7   5  -4 5749.02 283.077   1
   7   5  -3 8055.70 283.452   1
   7   5  -2 4258.98  248.38   1
   7   5  -1 968.792 127.958   1
   7   5   0-27.2401 430.408   1
   7   5   1 1957.17  146.33   1
   7   5   2 4432.48 219.276   1
   7   5   3 7210.65 264.497   1
   7   5   4 6227.24 233.165   1
   7   5   5 488.329 100.083   1
   7   5   6 1212.56 137.515   1
   7   5   7 5088.74 212.154   1
   7   5   8 4093.68 198.411   1
   7   5   9 8413.20 311.869   1
   7   5  10 2910.27 187.519   1
   7   5  11 7208.64 309.689   1
   7   5  12 541.248 206.656   1
   7   5  13 9060.68 385.638   1
   7   5  14 2334.28 270.912   1
   7   5  15 2725.03 217.576   1
   7   5  16 4973.31 374.327   1
   7   5  17 4511.17 406.111   1
   7   5  18 383.702 426.731   1
   7   5  19 2947.14 283.488   1
   7   5  20 2095.12 284.043   1
   7   5  21 1686.67 295.805   1
   7   5  22 2159.78 361.968   1
   7   5  23 1743.12 354.741   1
   7   5  24 68.5363 512.549   1
   7   5  25 591.201 746.878   1
   7   5  26 -155.76 1035.28   1
   7   5  27 158.601 759.537   1
   7   5  28 1497.13 740.648   1
   7   5  29  501.36 388.194   1
   7   6 -28 124.563 300.448   1
   7   6 -27 312.066 351.118   1
   7   6 -26 1048.46 353.784   1
   7   6 -25 1258.33 404.542   1
   7   6 -24 2389.48 346.185   1
   7   6 -23 423.071 260.334   1
   7   6 -22 472.376 245.383   1
   7   6 -21 1765.86 394.375   1
   7   6 -20 1743.19 245.421   1
   7   6 -19 2107.21 254.688   1
   7   6 -18 3497.20 276.157   1
   7   6 -17 718.853 194.293   1
   7   6 -16 2488.83 266.341   1
   7   6 -15 5493.27 409.913   1
   7   6 -14 3921.60 271.091   1
   7   6 -13 5784.84 285.929   1
   7   6 -12 5827.60 289.377   1
   7   6 -11 8974.81 346.755   1
   7   6 -10 5353.24 262.366   1
   7   6  -9 8784.00 350.019   1
   7   6  -8 2581.00 186.214   1
   7   6  -7 5823.66 269.191   1
   7   6  -6 9782.91 375.549   1
   7   6  -5 4178.38 314.342   1
   7   6  -4 5222.00  255.24   1
   7   6  -3 1513.69 143.404   1
   7   6  -2 5323.18 224.994   1
   7   6  -1 4280.94 212.438   1
   7   6   015033.70 487.376   1
   7   6   1 5169.77 246.516   1
   7   6   2 5011.13  236.45   1
   7   6   3 347.206 107.854   1
   7   6   4 6439.55 258.374   1
   7   6   5 5317.27 222.863   1
   7   6   6 9658.41 336.176   1
   7   6   7 8649.00 302.396   1
   7   6   8 2665.26 171.516   1
   7   6   910187.10 392.888   1
   7   6  10 5180.32 249.363   1
   7   6  11 8788.00 379.804   1
   7   6  12 5270.43 291.457   1
   7   6  13 5567.83 294.911   1
   7   6  14 3689.76 278.228   1
   7   6  15 4361.01 263.914   1
   7   6  16 2658.63 290.152   1
   7   6  17 839.911 230.835   1
   7   6  18 2508.44 266.598   1
   7   6  19 2603.69 307.601   1
   7   6  20 2179.00 309.453   1
   7   6  21 1844.98 372.841   1
   7   6  22 208.899  292.19   1
   7   6  23 208.445  493.12   1
   7   6  24 2705.10  501.82   1
   7   6  25 778.608  377.50   1
   7   6  26 1901.23 856.575   1
   7   6  27 616.395  673.01   1
   7   6  28-21.4871 745.435   1
   7   7 -28 23.6222 351.497   1
   7   7 -27 2103.86 384.879   1
   7   7 -26 80.8492 332.234   1
   7   7 -25 3832.91 579.318   1
   7   7 -24 1593.82 522.443   1
   7   7 -23 3838.71 543.787   1
   7   7 -22 780.437 340.248   1
   7   7 -21 6005.86  411.59   1
   7   7 -20 983.684 253.556   1
   7   7 -19 3733.46 282.999   1
   7   7 -18 2074.55 261.257   1
   7   7 -17 2983.88 258.818   1
   7   7 -16 479.898 178.235   1
   7   7 -1513167.80 493.013   1
   7   7 -14 2290.15 199.866   1
   7   7 -13 1724.06 182.433   1
   7   7 -12 3647.00 223.018   1
   7   7 -1111659.10 426.484   1
   7   7 -10 3174.11 220.267   1
   7   7  -920490.90 630.795   1
   7   7  -8 2083.71 247.253   1
   7   7  -713446.30 454.069   1
   7   7  -6 5981.36 281.163   1
   7   7  -525449.30 731.776   1
   7   7  -4 2072.36 224.346   1
   7   7  -332938.80 955.112   1
   7   7  -2 3151.05 182.904   1
   7   7  -126196.80 749.316   1
   7   7   010451.50 463.754   1
   7   7   127521.40  785.92   1
   7   7   2 5413.26 242.643   1
   7   7   327907.50 790.989   1
   7   7   4 1777.66 143.936   1
   7   7   525618.10 762.465   1
   7   7   6 5566.80 308.678   1
   7   7   7 9308.41 333.958   1
   7   7   8 2555.40 168.764   1
   7   7   919144.70 570.319   1
   7   7  10 2539.79 181.513   1
   7   7  1111515.90 423.922   1
   7   7  12 3297.67 253.968   1
   7   7  13 1704.44 208.516   1
   7   7  14 2500.98  296.71   1
   7   7  1511274.50 462.648   1
   7   7  16 2056.58  239.12   1
   7   7  17 6160.77 351.617   1
   7   7  18 1474.63 242.756   1
   7   7  19 3130.48 285.741   1
   7   7  20 1217.48 290.992   1
   7   7  21 5763.84  441.43   1
   7   7  22 688.363 269.152   1
   7   7  23 3701.24 356.743   1
   7   7  24 601.925  436.91   1
   7   7  25 3640.09 686.542   1
   7   7  26 1259.85 381.773   1
   7   7  27 1284.98 864.664   1
   7   7  28 710.168 614.096   1
   7   8 -27 1717.34 357.467   1
   7   8 -26 1417.01 305.838   1
   7   8 -25 4738.97 492.811   1
   7   8 -24 1756.92 499.951   1
   7   8 -23 3932.00 417.276   1
   7   8 -22 659.033 344.437   1
   7   8 -21  961.93 257.486   1
   7   8 -20 2975.90 286.391   1
   7   8 -1912036.20 496.703   1
   7   8 -18 4683.82 312.028   1
   7   8 -17 6235.78 347.887   1
   7   8 -16 1319.86 218.842   1
   7   8 -15 3809.93 278.576   1
   7   8 -14 7099.30 342.194   1
   7   8 -1313834.80 494.716   1
   7   8 -12 8490.63  366.47   1
   7   8 -1110211.90 432.828   1
   7   8 -10 2488.90 192.984   1
   7   8  -9 2369.10 185.385   1
   7   8  -8 7241.32 308.458   1
   7   8  -721209.70 658.724   1
   7   8  -617798.80 591.168   1
   7   8  -519203.40 574.626   1
   7   8  -4 3203.14 190.153   1
   7   8  -3 7753.37 297.864   1
   7   8  -2 5408.81 242.051   1
   7   8  -122561.20 682.711   1
   7   8   022276.60 676.534   1
   7   8   128068.90 828.069   1
   7   8   2 5571.61 300.317   1
   7   8   3 7382.72 296.119   1
   7   8   4 3546.77 191.958   1
   7   8   521680.10 719.596   1
   7   8   618071.40 696.214   1
   7   8   723981.40 707.834   1
   7   8   8 7108.52 288.927   1
   7   8   9 1886.47 174.704   1
   7   8  10 1503.66 165.738   1
   7   8  1110778.00 445.396   1
   7   8  12 8203.60 352.076   1
   7   8  1314441.20 652.436   1
   7   8  14 7476.44 387.793   1
   7   8  15 2869.70 263.663   1
   7   8  16 1336.34 263.067   1
   7   8  17 5877.57 553.773   1
   7   8  18 4369.19 382.814   1
   7   8  1911193.40 554.817   1
   7   8  20 4319.77 352.059   1
   7   8  21 587.146 267.651   1
   7   8  22 -210.22 718.172   1
   7   8  23 1866.92 388.358   1
   7   8  24 2232.76 577.976   1
   7   8  25 4480.79 458.319   1
   7   8  26 1548.07 330.549   1
   7   8  27 1296.42 355.856   1
   7   9 -26 241.492 302.919   1
   7   9 -25 1318.71 448.403   1
   7   9 -24 1340.25 338.102   1
   7   9 -23 953.544 304.393   1
   7   9 -22 373.029 266.414   1
   7   9 -21 1573.17 301.213   1
   7   9 -20 235.794 210.307   1
   7   9 -19 5420.77 342.655   1
   7   9 -18 3803.14 302.119   1
   7   9 -17 8639.54 415.107   1
   7   9 -16 30.0896 204.251   1
   7   9 -15 5319.37  493.47   1
   7   9 -14 630.798 207.939   1
   7   9 -1310808.70 468.066   1
   7   9 -12 4265.56 376.423   1
   7   9 -11 5335.18 299.073   1
   7   9 -10 203.656 211.206   1
   7   9  -9 9119.00 392.615   1
   7   9  -8 233.414 166.458   1
   7   9  -715495.60 549.521   1
   7   9  -6 7754.64 333.377   1
   7   9  -5 9434.80 375.571   1
   7   9  -4 230.122 150.084   1
   7   9  -318585.10 618.391   1
   7   9  -2 308.159 149.438   1
   7   9  -1 4992.38 248.617   1
   7   9   0 7041.70 304.165   1
   7   9   1 7305.29 374.047   1
   7   9   2 299.633 178.657   1
   7   9   314660.70 456.668   1
   7   9   4 871.999 134.405   1
   7   9   5 8806.41  348.70   1
   7   9   6 6648.84  302.20   1
   7   9   714441.40 481.423   1
   7   9   8 422.625 184.671   1
   7   9   910186.00 397.694   1
   7   9  10  426.81 158.843   1
   7   9  11 6776.58 305.887   1
   7   9  12 4810.58  276.62   1
   7   9  1310738.30 441.301   1
   7   9  14 1023.54  327.65   1
   7   9  15 5230.67 474.434   1
   7   9  16 358.008 233.169   1
   7   9  1710419.30 930.479   1
   7   9  18 3459.24 355.921   1
   7   9  19 4432.81 329.517   1
   7   9  20 487.773 313.221   1
   7   9  21 2893.87 352.159   1
   7   9  22 175.748 273.349   1
   7   9  23 804.262 420.913   1
   7   9  24 1861.43 357.364   1
   7   9  25 616.891 449.828   1
   7   9  26-456.003 592.083   1
   7  10 -26 651.906 425.514   1
   7  10 -25-27.4201 652.421   1
   7  10 -24 816.398 375.542   1
   7  10 -23 463.009 300.436   1
   7  10 -22 720.431 291.033   1
   7  10 -21-273.845  906.76   1
   7  10 -20 2231.33 316.839   1
   7  10 -19 729.225 229.457   1
   7  10 -18 1267.38 323.954   1
   7  10 -17 105.205 251.495   1
   7  10 -16 747.757 279.653   1
   7  10 -15 2890.52  378.75   1
   7  10 -14 2939.99 336.023   1
   7  10 -13 576.856 405.281   1
   7  10 -12 3591.47 295.191   1
   7  10 -11 296.602 189.347   1
   7  10 -10 2904.30 255.479   1
   7  10  -9 996.778 227.283   1
   7  10  -8 2517.05  240.36   1
   7  10  -7 2691.25 260.068   1
   7  10  -6 5884.86 321.697   1
   7  10  -5 525.782 158.243   1
   7  10  -4 696.535 182.189   1
   7  10  -3 2090.67 208.009   1
   7  10  -2 3514.11 247.767   1
   7  10  -1 2029.33 199.753   1
   7  10   0 9634.44 367.128   1
   7  10   1 3124.26 250.566   1
   7  10   2 4399.42 264.639   1
   7  10   3 1498.68 190.907   1
   7  10   4 1575.29 173.984   1
   7  10   5 1006.21  158.96   1
   7  10   6 6785.70 308.873   1
   7  10   7 4708.29 258.317   1
   7  10   8 2249.25 215.746   1
   7  10   9 612.459 218.911   1
   7  10  10 2627.80 225.939   1
   7  10  11 380.884 180.293   1
   7  10  12 4039.24 280.031   1
   7  10  13 410.342 196.264   1
   7  10  14 2947.48 267.115   1
   7  10  15 1632.11 364.108   1
   7  10  16 1356.12  372.71   1
   7  10  17-206.948 1006.97   1
   7  10  18 1460.63 319.887   1
   7  10  19 263.234 429.439   1
   7  10  20 1775.30 512.771   1
   7  10  21 1404.52 386.359   1
   7  10  22 858.247 278.524   1
   7  10  23 832.024 537.684   1
   7  10  24 1849.60 345.537   1
   7  10  25-30.4314 728.637   1
   7  11 -25 2940.70 775.786   1
   7  11 -24-17.2575 840.838   1
   7  11 -23 1446.38 557.825   1
   7  11 -22 933.287 341.118   1
   7  11 -21 409.267 306.799   1
   7  11 -20-514.849 717.828   1
   7  11 -19 3024.56 293.088   1
   7  11 -18-86.8782 686.544   1
   7  11 -17 289.199 362.175   1
   7  11 -16 253.004  228.16   1
   7  11 -15 835.931 241.294   1
   7  11 -14 734.237 242.837   1
   7  11 -13 573.992 298.189   1
   7  11 -12 220.163  258.72   1
   7  11 -11 2745.00 263.387   1
   7  11 -10 2043.66 263.826   1
   7  11  -9 1452.84 372.606   1
   7  11  -8 369.843 262.668   1
   7  11  -7 3839.21 476.366   1
   7  11  -6 385.825 190.508   1
   7  11  -5 9029.60 408.145   1
   7  11  -4 -8.0498 622.313   1
   7  11  -3 1148.76 204.238   1
   7  11  -2 696.641 172.969   1
   7  11  -1 9840.05 406.026   1
   7  11   0-11.0444 600.613   1
   7  11   1 8841.40 361.339   1
   7  11   2  985.28 170.568   1
   7  11   3 721.795 161.973   1
   7  11   4 168.626 154.751   1
   7  11   5 8524.61 357.444   1
   7  11   6 572.137  236.62   1
   7  11   7 2521.09  227.26   1
   7  11   8-70.2867 759.326   1
   7  11   9 226.099 191.536   1
   7  11  10 1812.92 292.572   1
   7  11  11 3867.69 270.686   1
   7  11  12 57.1791 222.067   1
   7  11  13 1086.28 217.015   1
   7  11  14  358.91 204.599   1
   7  11  15 613.596 250.212   1
   7  11  16 283.366  414.98   1
   7  11  17 1612.47 401.883   1
   7  11  18 250.405 310.078   1
   7  11  19 2840.81  492.58   1
   7  11  20 254.067 258.744   1
   7  11  21 302.157 299.763   1
   7  11  22 742.927 321.366   1
   7  11  23 851.177 384.129   1
   7  11  24 180.493 381.048   1
   7  11  25 1348.55 729.693   1
   7  12 -24 357.364 781.964   1
   7  12 -23 224.581 500.319   1
   7  12 -22 802.035 358.313   1
   7  12 -21 498.391 342.763   1
   7  12 -20 1135.25  303.28   1
   7  12 -19 2361.00  324.54   1
   7  12 -18 2323.66 512.107   1
   7  12 -17 1423.32 483.655   1
   7  12 -16 2100.12 341.519   1
   7  12 -15 2004.82 305.794   1
   7  12 -14 2128.11 277.784   1
   7  12 -13 4107.96 336.137   1
   7  12 -12 2957.82 326.565   1
   7  12 -11 4286.88 500.855   1
   7  12 -10 1197.25 263.111   1
   7  12  -9 2596.02 284.673   1
   7  12  -8 3443.37 319.287   1
   7  12  -7 3003.84 297.546   1
   7  12  -6 7733.65 504.376   1
   7  12  -5 3412.72 276.878   1
   7  12  -4 3328.44 298.085   1
   7  12  -3  147.65 196.705   1
   7  12  -2 3639.22 280.176   1
   7  12  -1 5194.91 325.264   1
   7  12   0 5825.54 314.116   1
   7  12   1 4800.97 320.025   1
   7  12   2 2664.10  252.76   1
   7  12   3 372.853 180.054   1
   7  12   4 4263.07 330.306   1
   7  12   5 3722.72 245.303   1
   7  12   6 7624.17 434.071   1
   7  12   7 5585.18 333.998   1
   7  12   8 2372.60 253.536   1
   7  12   9 2635.35 365.759   1
   7  12  10 1873.70 234.182   1
   7  12  11 5258.83 325.422   1
   7  12  12 2698.15 371.443   1
   7  12  13 4127.20 384.965   1
   7  12  14 2528.83 326.441   1
   7  12  15 941.317 237.544   1
   7  12  16 2909.40 372.323   1
   7  12  17 829.195 380.288   1
   7  12  18 1168.61 351.566   1
   7  12  19 1347.54 511.877   1
   7  12  20 902.704 291.517   1
   7  12  21 387.599 316.624   1
   7  12  22  894.68  407.14   1
   7  12  23 601.503 306.372   1
   7  12  24-155.407 613.388   1
   7  13 -23-22.9544 661.119   1
   7  13 -22 370.704 573.087   1
   7  13 -21 145.397 296.742   1
   7  13 -20 2573.48 370.722   1
   7  13 -19 2157.39 382.692   1
   7  13 -18 4714.93 473.112   1
   7  13 -17 1201.15 396.458   1
   7  13 -16 1563.85  418.33   1
   7  13 -15 448.924 263.926   1
   7  13 -14 2244.64 432.247   1
   7  13 -13 7945.68 603.098   1
   7  13 -12 8390.32 535.414   1
   7  13 -11 4043.45 569.601   1
   7  13 -10 2299.71 327.019   1
   7  13  -9 4553.94 503.309   1
   7  13  -8 4324.17 699.935   1
   7  13  -7 5347.32 426.916   1
   7  13  -6 8770.43 489.157   1
   7  13  -5 1825.74 287.207   1
   7  13  -4 3883.55 341.276   1
   7  13  -3 596.042 223.815   1
   7  13  -2 2840.01  358.88   1
   7  13  -1 4975.33 386.192   1
   7  13   015525.30 606.935   1
   7  13   1 5043.71 316.049   1
   7  13   2 3221.64  249.25   1
   7  13   3 901.165 243.951   1
   7  13   4 5035.80 282.314   1
   7  13   5 1725.81 355.539   1
   7  13   6 6865.61 383.707   1
   7  13   7 5325.40 338.167   1
   7  13   8 4438.34 304.247   1
   7  13   9 3205.74 276.955   1
   7  13  10 2337.13 246.094   1
   7  13  11 4835.66  315.83   1
   7  13  12 7737.25  461.30   1
   7  13  13 7491.21 430.766   1
   7  13  14 1935.44 269.638   1
   7  13  15 1025.18 364.545   1
   7  13  16 1523.63 361.198   1
   7  13  17 1685.90 594.478   1
   7  13  18 3536.01 547.032   1
   7  13  19 2352.10 729.879   1
   7  13  20 2515.77 374.919   1
   7  13  21-67.6072 1347.36   1
   7  13  22-340.693 585.969   1
   7  13  23 1212.38 794.289   1
   7  14 -21 857.098  455.33   1
   7  14 -20 1520.51 295.316   1
   7  14 -19 1177.16 360.517   1
   7  14 -18 1678.36 335.696   1
   7  14 -17  284.74 349.295   1
   7  14 -16 3331.68 412.944   1
   7  14 -15 1420.70 481.112   1
   7  14 -14 2032.53 397.488   1
   7  14 -13 230.611  391.88   1
   7  14 -12 2371.03 365.749   1
   7  14 -11 376.378 384.311   1
   7  14 -10 2905.84 430.216   1
   7  14  -9 3019.23 347.741   1
   7  14  -8 4755.21 383.743   1
   7  14  -7 2197.07 390.263   1
   7  14  -6 2652.48 395.233   1
   7  14  -5  719.79 262.893   1
   7  14  -4 7788.44 483.763   1
   7  14  -3 5061.32 362.829   1
   7  14  -2 4283.73 370.881   1
   7  14  -1 4382.31 362.903   1
   7  14   0 2550.03 362.292   1
   7  14   1 3837.82 302.485   1
   7  14   2 4331.26 328.574   1
   7  14   3 4110.68 297.722   1
   7  14   4 7920.06 416.377   1
   7  14   5 1112.63 238.764   1
   7  14   6 2080.41 261.121   1
   7  14   7 2293.33 460.381   1
   7  14   8 5769.86  444.27   1
   7  14   9 1822.56 275.077   1
   7  14  10 3399.73 290.838   1
   7  14  11 314.984 249.394   1
   7  14  12 1586.70 318.878   1
   7  14  13 425.078 306.447   1
   7  14  14 2187.67 471.245   1
   7  14  15 285.935 294.707   1
   7  14  16 3779.72 555.292   1
   7  14  17 823.982 452.286   1
   7  14  18 900.992 432.593   1
   7  14  19 1128.61 636.284   1
   7  14  20 1959.13  822.77   1
   7  14  21 977.893 444.441   1
   7  15 -20 868.532 620.044   1
   7  15 -19 528.874  303.77   1
   7  15 -18 331.178 264.802   1
   7  15 -17 241.529  288.32   1
   7  15 -16 1577.10 324.067   1
   7  15 -15 645.324  337.00   1
   7  15 -14 955.417 307.476   1
   7  15 -13 814.425 400.475   1
   7  15 -12 379.681 408.759   1
   7  15 -11 631.576 324.894   1
   7  15 -10 1373.63 549.676   1
   7  15  -9 1189.10 338.405   1
   7  15  -8 1283.04 331.358   1
   7  15  -7 1410.98  507.13   1
   7  15  -6 2254.09 335.869   1
   7  15  -5 1529.40  381.85   1
   7  15  -4 2099.01 338.294   1
   7  15  -3  708.26  275.60   1
   7  15  -2 1624.77 429.975   1
   7  15  -1 2889.10 398.483   1
   7  15   0  213.34 231.085   1
   7  15   1 1889.74  325.22   1
   7  15   2 1260.25 244.339   1
   7  15   3 515.081 234.512   1
   7  15   4 2104.20 294.366   1
   7  15   5 2519.09 348.013   1
   7  15   6 2334.06 379.633   1
   7  15   7 278.336 291.513   1
   7  15   8 1473.94 262.307   1
   7  15   9 1344.67 309.661   1
   7  15  10 1147.39 397.078   1
   7  15  11 257.216 381.474   1
   7  15  12 24.8117 257.548   1
   7  15  13 224.924 256.735   1
   7  15  14 353.215 309.803   1
   7  15  15 815.386 328.628   1
   7  15  16 1085.15 371.306   1
   7  15  17 117.664 330.748   1
   7  15  18 470.463 582.908   1
   7  15  19 492.698 383.375   1
   7  15  20 948.563 1340.68   1
   7  16 -18 1200.42 386.379   1
   7  16 -17 888.988 357.035   1
   7  16 -16  447.56 307.925   1
   7  16 -15 2319.50 476.606   1
   7  16 -14 863.607  402.98   1
   7  16 -13 350.701 348.506   1
   7  16 -12 801.939 366.439   1
   7  16 -11 1196.69 380.446   1
   7  16 -10-373.687  820.92   1
   7  16  -9 1828.07 397.579   1
   7  16  -8-177.658 772.309   1
   7  16  -7 733.083 294.739   1
   7  16  -6 935.274 523.266   1
   7  16  -5 2914.07 448.387   1
   7  16  -4 103.926 316.432   1
   7  16  -3-427.779 825.251   1
   7  16  -2-368.438 769.367   1
   7  16  -1-89.5856 889.917   1
   7  16   0  548.46 291.429   1
   7  16   1 109.085 351.614   1
   7  16   2 312.113 250.679   1
   7  16   3 694.271 258.406   1
   7  16   4 141.267 298.856   1
   7  16   5 2489.35 299.034   1
   7  16   6 1538.19  294.51   1
   7  16   7 686.671 344.637   1
   7  16   8-271.455 731.921   1
   7  16   9 1833.17  316.58   1
   7  16  10 720.084 320.673   1
   7  16  11 1095.63 429.247   1
   7  16  12 1062.20 283.465   1
   7  16  13 180.534 253.555   1
   7  16  14 85.0016 376.222   1
   7  16  15 1940.27 344.609   1
   7  16  16 823.564 374.273   1
   7  16  17 680.092 428.142   1
   7  16  18 458.051 823.706   1
   7  17 -16 82.6475 430.719   1
   7  17 -15 284.465 301.432   1
   7  17 -14 1450.80 330.241   1
   7  17 -13 907.091 304.335   1
   7  17 -12 1014.47 339.149   1
   7  17 -11  157.38 370.121   1
   7  17 -10 1827.20 404.224   1
   7  17  -9 320.159 307.349   1
   7  17  -8 1739.62 353.088   1
   7  17  -7 1217.80 345.038   1
   7  17  -6 1155.16 393.526   1
   7  17  -5 202.294 306.999   1
   7  17  -4 2200.54 318.391   1
   7  17  -3 201.741 264.649   1
   7  17  -2 1938.88 283.727   1
   7  17  -1-12.6747 771.003   1
   7  17   0 1833.85 459.469   1
   7  17   1 785.855 339.028   1
   7  17   2 2218.17 309.174   1
   7  17   3 363.893 278.297   1
   7  17   4 746.365 343.266   1
   7  17   5 250.548 311.848   1
   7  17   6 1464.89 273.344   1
   7  17   7 1322.92 281.503   1
   7  17   8 1975.25 383.228   1
   7  17   9-222.465 907.635   1
   7  17  10 1489.17 351.777   1
   7  17  11 533.455  245.74   1
   7  17  12 886.649 244.423   1
   7  17  13 385.995 341.516   1
   7  17  14 1370.10 282.937   1
   7  17  15 176.933 310.028   1
   7  17  16 143.168 537.322   1
   7  18 -13 567.298 354.966   1
   7  18 -12 590.622 326.694   1
   7  18 -11 362.358 366.736   1
   7  18 -10 1253.20 309.332   1
   7  18  -9 2210.19 353.658   1
   7  18  -8 467.958 298.802   1
   7  18  -7 1537.28 293.445   1
   7  18  -6 621.923 364.259   1
   7  18  -5 471.674 276.856   1
   7  18  -4 1777.09 379.323   1
   7  18  -3 3238.52 331.519   1
   7  18  -2 1431.66 310.621   1
   7  18  -1 2206.07 397.004   1
   7  18   0 231.408 319.039   1
   7  18   1 2243.73 388.328   1
   7  18   2 1511.60 326.881   1
   7  18   3 2451.07  364.04   1
   7  18   4 1271.33 358.327   1
   7  18   5 743.352 306.267   1
   7  18   6 751.339 288.484   1
   7  18   7 1910.16 318.638   1
   7  18   8 147.686 240.966   1
   7  18   9 1453.59 269.159   1
   7  18  10 771.865 241.502   1
   7  18  11 364.122 264.913   1
   7  18  12 737.707 233.891   1
   7  18  13 578.856 250.499   1
   7  19 -10 1595.78 428.493   1
   7  19  -9 923.886 283.441   1
   7  19  -8 1579.59 304.015   1
   7  19  -7 981.335 282.385   1
   7  19  -6-284.871 637.354   1
   7  19  -5 1461.40 282.275   1
   7  19  -4 1545.61 306.683   1
   7  19  -3 1131.04 338.599   1
   7  19  -2 2017.97 312.614   1
   7  19  -1 -15.184 700.764   1
   7  19   0 564.915 357.313   1
   7  19   1-339.039  685.77   1
   7  19   2 1988.32 330.749   1
   7  19   3 1482.47 502.862   1
   7  19   4 2174.16  649.41   1
   7  19   5 582.029 277.406   1
   7  19   6 369.061 415.283   1
   7  19   7 574.118 373.619   1
   7  19   8 831.443 377.821   1
   7  19   9 1664.73 307.155   1
   7  19  10 1748.61 365.865   1
   7  20  -4-399.491 616.328   1
   7  20  -3-2.44169 792.092   1
   7  20  -2 553.203 321.202   1
   7  20  -1 387.202 332.722   1
   7  20   0 50.9248  252.53   1
   7  20   1 330.637 293.009   1
   7  20   2 53.4948 289.503   1
   7  20   3  260.42 285.891   1
   7  20   4 294.079 382.863   1
   8   0   043700.20 1220.13   1
   8   0   119398.40 556.962   1
   8   0   213637.70 420.052   1
   8   0   3 1022.37 129.005   1
   8   0   4 3795.44 203.606   1
   8   0   519198.70 567.362   1
   8   0   626374.80 748.614   1
   8   0   7 8314.50 311.102   1
   8   0   825294.60 715.495   1
   8   0   9 180.898 135.326   1
   8   0  10 1359.58 180.227   1
   8   0  11 4445.60 241.681   1
   8   0  1239590.10 1115.87   1
   8   0  13 3961.44 252.684   1
   8   0  1413059.00 484.371   1
   8   0  15 1201.98 203.818   1
   8   0  16 2148.51 238.505   1
   8   0  17 221.425 204.608   1
   8   0  1814059.70 683.474   1
   8   0  19 8923.81 521.681   1
   8   0  20 4822.16 390.451   1
   8   0  21 746.468 272.656   1
   8   0  22-261.063 744.771   1
   8   0  23  193.90  560.05   1
   8   0  24 3222.82 493.524   1
   8   0  25 4714.27 542.869   1
   8   0  26 1060.57 352.924   1
   8   0  27 830.934  326.07   1
   8   0  28 65.1194 252.822   1
   8   1 -28 1105.97 467.552   1
   8   1 -27 1161.22  377.74   1
   8   1 -26-523.735 695.049   1
   8   1 -25 1255.74 558.539   1
   8   1 -24 1377.50 431.127   1
   8   1 -23 2155.99 377.897   1
   8   1 -22 2245.79 350.833   1
   8   1 -21 1998.22 343.203   1
   8   1 -20 416.551 244.346   1
   8   1 -19 7383.17 431.839   1
   8   1 -18 1914.07 276.912   1
   8   1 -17 4261.48 320.195   1
   8   1 -16 2696.13 279.262   1
   8   1 -1511026.00 421.993   1
   8   1 -14 639.716 155.974   1
   8   1 -13 6116.17 279.141   1
   8   1 -12 597.545 186.905   1
   8   1 -1124365.10 712.372   1
   8   1 -10 2499.35 245.711   1
   8   1  -913838.90 455.322   1
   8   1  -8 3775.28 215.924   1
   8   1  -718646.10 576.273   1
   8   1  -6 1888.68 156.791   1
   8   1  -531032.20 872.586   1
   8   1  -4 6424.18 260.174   1
   8   1  -3 6400.89 235.707   1
   8   1  -210165.00 330.228   1
   8   1  -117617.10 548.951   1
   8   1   0 2598.54 163.352   1
   8   1   118764.40 622.375   1
   8   1   2 9020.47 320.674   1
   8   1   3 5559.31  286.29   1
   8   1   4 7406.88 347.616   1
   8   1   528989.10 791.821   1
   8   1   6 1165.16 123.248   1
   8   1   716968.40 507.469   1
   8   1   8 3499.38 193.434   1
   8   1   914763.50 479.721   1
   8   1  10 1350.98 146.822   1
   8   1  1121879.00 665.767   1
   8   1  12 811.677 188.288   1
   8   1  13 9060.33 390.637   1
   8   1  14 1169.66 222.379   1
   8   1  1510754.30  449.87   1
   8   1  16 2471.40 252.158   1
   8   1  17 5534.64 382.125   1
   8   1  18 2061.35 270.756   1
   8   1  19 7709.00 519.344   1
   8   1  20 720.869 309.987   1
   8   1  21 4462.15 789.612   1
   8   1  22 2858.15 351.242   1
   8   1  23 2363.35 459.717   1
   8   1  24 1605.15 432.736   1
   8   1  25 2434.09 460.132   1
   8   1  26 300.553 508.094   1
   8   1  27 32.7029 304.928   1
   8   1  28 1597.58 366.552   1
   8   2 -28-94.3652 751.292   1
   8   2 -27 1114.43 455.753   1
   8   2 -26 948.811 308.381   1
   8   2 -25 1394.56 573.335   1
   8   2 -24 1424.18 347.793   1
   8   2 -23 372.019 286.324   1
   8   2 -22 157.698 267.804   1
   8   2 -21 6670.50 480.468   1
   8   2 -20 3659.99 370.594   1
   8   2 -19 1607.43 261.941   1
   8   2 -18-122.638 661.197   1
   8   2 -17 2.78114 198.505   1
   8   2 -16 2414.97 264.613   1
   8   2 -15 5451.28 350.771   1
   8   2 -14 2153.63 229.916   1
   8   2 -13 1225.84  178.66   1
   8   2 -12 929.852 176.849   1
   8   2 -11 2740.38 201.711   1
   8   2 -10 7588.54 331.762   1
   8   2  -9 3330.56 236.393   1
   8   2  -8 1826.58 216.023   1
   8   2  -7 2370.57 213.784   1
   8   2  -6 1922.76 223.161   1
   8   2  -5 8655.04 320.916   1
   8   2  -411435.00 365.823   1
   8   2  -3 3281.61 180.883   1
   8   2  -2 5852.79 266.816   1
   8   2  -113701.40 426.996   1
   8   2   018037.40 589.842   1
   8   2   112123.10 396.309   1
   8   2   2 5685.28 241.335   1
   8   2   3 3511.94 186.293   1
   8   2   412040.40 397.521   1
   8   2   510180.80 347.877   1
   8   2   6 2350.83 168.959   1
   8   2   7 1647.24 189.908   1
   8   2   8 1790.90 188.238   1
   8   2   9 3816.69 255.629   1
   8   2  10 8618.84 330.307   1
   8   2  11 2975.18 201.133   1
   8   2  12 1314.96 171.111   1
   8   2  13 811.795 179.773   1
   8   2  14 2206.08 205.031   1
   8   2  15 5015.45 311.282   1
   8   2  16 2727.27  278.18   1
   8   2  17 272.955 255.966   1
   8   2  18 330.249 223.042   1
   8   2  19 1061.53 306.128   1
   8   2  20 3799.71  413.91   1
   8   2  21 6356.16 856.507   1
   8   2  22  356.59 322.303   1
   8   2  23 1222.12 440.672   1
   8   2  24 859.919 417.139   1
   8   2  25 1807.99 565.666   1
   8   2  26 695.883 399.418   1
   8   2  27 1359.02 412.067   1
   8   2  28 904.152  353.11   1
   8   3 -28 109.516 333.048   1
   8   3 -27 4.63398  270.25   1
   8   3 -26 2499.18  353.63   1
   8   3 -25 1504.31 469.284   1
   8   3 -24 389.538 415.391   1
   8   3 -23 1765.06 273.419   1
   8   3 -22 305.807 264.344   1
   8   3 -21 973.012 289.625   1
   8   3 -20 1151.55 265.779   1
   8   3 -19 1393.67  245.26   1
   8   3 -18 2175.84 352.398   1
   8   3 -17 4317.05 295.541   1
   8   3 -16 1667.74 224.128   1
   8   3 -15 5734.00 288.813   1
   8   3 -14 5561.36 332.859   1
   8   3 -13 2924.65  219.17   1
   8   3 -12 409.416 182.165   1
   8   3 -1111167.00 413.225   1
   8   3 -10 3004.80 212.618   1
   8   3  -9 9465.00 372.237   1
   8   3  -8 1744.16 195.365   1
   8   3  -7 2305.95 222.394   1
   8   3  -6 6008.21 270.642   1
   8   3  -5 8989.85  317.71   1
   8   3  -4 939.413 158.319   1
   8   3  -3 4462.34 278.179   1
   8   3  -2 3608.93 223.877   1
   8   3  -1 4436.39 206.089   1
   8   3   0 479.423 142.389   1
   8   3   1 5207.19 220.006   1
   8   3   2 2990.26 160.712   1
   8   3   3 4000.36 186.679   1
   8   3   4 1125.61 124.481   1
   8   3   5 9257.93  333.68   1
   8   3   6 5445.41 278.724   1
   8   3   7 4038.01 216.055   1
   8   3   8 761.607 141.896   1
   8   3   911570.70 400.129   1
   8   3  10 3008.93 188.475   1
   8   3  1110988.30 400.659   1
   8   3  12  411.75 177.184   1
   8   3  13 2459.29 202.796   1
   8   3  14 6416.38 317.375   1
   8   3  15 6241.71 320.585   1
   8   3  16 1911.08  267.17   1
   8   3  17 4737.15 333.592   1
   8   3  18 1748.81  345.43   1
   8   3  19 566.484 278.221   1
   8   3  20 1424.60 308.157   1
   8   3  21 1735.61 359.522   1
   8   3  22 750.324 403.072   1
   8   3  23 576.758 393.757   1
   8   3  24-129.281 1078.81   1
   8   3  25 1836.93 440.959   1
   8   3  26 2659.95 662.381   1
   8   3  27-146.805 1066.48   1
   8   3  28-570.681 645.651   1
   8   4 -28 501.144 393.071   1
   8   4 -27 233.583 257.581   1
   8   4 -26 342.702 279.465   1
   8   4 -25 1942.80 335.694   1
   8   4 -24 1526.71 309.432   1
   8   4 -23 202.732 256.671   1
   8   4 -22 1813.56 351.078   1
   8   4 -21 903.114 261.295   1
   8   4 -20 3949.34 334.205   1
   8   4 -19 4340.00 388.835   1
   8   4 -18 8919.87 431.888   1
   8   4 -17-291.786 831.008   1
   8   4 -16 2685.82 258.814   1
   8   4 -15 1480.02  213.24   1
   8   4 -14 8934.32 386.529   1
   8   4 -13 1601.58  195.77   1
   8   4 -1210322.50 510.704   1
   8   4 -11 3284.32 240.809   1
   8   4 -10 6094.32 301.428   1
   8   4  -9 940.501 157.681   1
   8   4  -818698.20 641.598   1
   8   4  -7 9899.51 360.845   1
   8   4  -612202.00  424.16   1
   8   4  -514094.60  491.85   1
   8   4  -4 5076.81 218.544   1
   8   4  -3 1627.99 134.977   1
   8   4  -214130.00 456.653   1
   8   4  -115038.30 464.198   1
   8   4   0 4002.00  202.04   1
   8   4   115704.60 468.046   1
   8   4   214163.80  454.97   1
   8   4   3 754.412 151.265   1
   8   4   4 6595.96 272.021   1
   8   4   515571.00 470.883   1
   8   4   613691.80 429.618   1
   8   4   7 7099.62 295.519   1
   8   4   818294.90 602.182   1
   8   4   9 235.762 154.356   1
   8   4  10 6740.45 296.274   1
   8   4  11 3253.91 225.419   1
   8   4  1211574.20 482.607   1
   8   4  13 2122.10 204.243   1
   8   4  14 8986.35 557.999   1
   8   4  15 1055.28 217.033   1
   8   4  16 2124.46 241.053   1
   8   4  17 3.97931 285.797   1
   8   4  18 8540.80 501.841   1
   8   4  19 3850.48  322.95   1
   8   4  20 2457.93 561.926   1
   8   4  21 757.458 294.063   1
   8   4  22 627.829 357.261   1
   8   4  23-52.6827 824.811   1
   8   4  24 1570.69 428.438   1
   8   4  25 1757.01  437.63   1
   8   4  26 462.283 443.836   1
   8   4  27 58.9889 342.165   1
   8   4  28 1715.01 576.872   1
   8   5 -27 21.6187 280.685   1
   8   5 -26 1466.11  394.60   1
   8   5 -25 4461.10 424.644   1
   8   5 -24 2043.76 359.731   1
   8   5 -23 1125.25 380.486   1
   8   5 -22 2272.57 292.332   1
   8   5 -21 3466.96 356.203   1
   8   5 -20 2794.70 298.761   1
   8   5 -19 3940.94  319.11   1
   8   5 -18 3438.51 382.796   1
   8   5 -17 2322.11 322.275   1
   8   5 -16 4994.99 344.255   1
   8   5 -15 5954.26 431.726   1
   8   5 -14 5964.92 379.923   1
   8   5 -1314266.50 541.095   1
   8   5 -12 5804.63 308.636   1
   8   5 -1113431.70  501.34   1
   8   5 -10 4548.76 278.686   1
   8   5  -9 5924.70 309.134   1
   8   5  -811560.10 450.736   1
   8   5  -710149.50 480.937   1
   8   5  -614797.20 530.544   1
   8   5  -520598.20 622.674   1
   8   5  -416685.00 530.671   1
   8   5  -3 348.435 132.058   1
   8   5  -221691.10 698.743   1
   8   5  -122093.60  655.36   1
   8   5   014852.70 485.358   1
   8   5   121834.80 739.999   1
   8   5   219445.20 594.858   1
   8   5   3 1149.30 145.268   1
   8   5   417697.00 579.603   1
   8   5   517297.90  528.24   1
   8   5   612407.80 409.414   1
   8   5   712494.50 425.924   1
   8   5   811838.50 412.273   1
   8   5   9 4842.62 257.678   1
   8   5  10 3826.17 344.885   1
   8   5  1112225.70 603.956   1
   8   5  12 5049.75 314.525   1
   8   5  1312466.30 535.334   1
   8   5  14 6675.31 341.707   1
   8   5  15 7272.65 386.985   1
   8   5  16 5066.70 410.285   1
   8   5  17 2027.08 261.672   1
   8   5  18 3589.84 297.336   1
   8   5  19 5329.45 469.764   1
   8   5  20 3286.12 296.846   1
   8   5  21 3128.28 325.833   1
   8   5  22 2554.12 402.429   1
   8   5  23 1143.50 447.453   1
   8   5  24 2130.36  440.50   1
   8   5  25 3993.47 605.741   1
   8   5  26 1506.75  440.10   1
   8   5  27 1135.48 434.283   1
   8   6 -27 1556.02 338.572   1
   8   6 -26 1644.38 463.937   1
   8   6 -25-206.837 711.581   1
   8   6 -24 1423.66 289.737   1
   8   6 -23 2940.49 565.172   1
   8   6 -22 362.124 254.805   1
   8   6 -21 5663.10 413.183   1
   8   6 -20 2526.51 289.703   1
   8   6 -19 291.615 230.834   1
   8   6 -18 703.495 223.855   1
   8   6 -17 3262.04  267.71   1
   8   6 -16 8972.54  445.93   1
   8   6 -1512714.10 534.329   1
   8   6 -14 2065.62 399.094   1
   8   6 -13-112.789 599.532   1
   8   6 -12  527.33 213.702   1
   8   6 -11 5522.42 315.435   1
   8   6 -10 6026.07 350.895   1
   8   6  -919520.30 686.054   1
   8   6  -8 3269.44 349.877   1
   8   6  -7 3386.68 293.967   1
   8   6  -6 7737.37 361.733   1
   8   6  -5 8081.74 359.828   1
   8   6  -418001.30 637.333   1
   8   6  -325357.80 783.536   1
   8   6  -2 4669.13 263.499   1
   8   6  -1 7517.74 323.807   1
   8   6   0 5315.29 263.563   1
   8   6   1 5328.44 257.268   1
   8   6   2 3367.55 201.619   1
   8   6   327052.00 918.925   1
   8   6   419417.40 608.395   1
   8   6   512608.00 446.527   1
   8   6   6 8854.13  347.23   1
   8   6   7 2422.55 179.597   1
   8   6   8 5145.61 290.664   1
   8   6   920863.40 735.449   1
   8   6  10 7950.67 367.543   1
   8   6  11 6623.66  326.83   1
   8   6  12 143.524 199.001   1
   8   6  13-386.999 648.733   1
   8   6  14 1882.71 260.682   1
   8   6  1512685.80 545.764   1
   8   6  16 7654.15 439.537   1
   8   6  17 3563.80 391.082   1
   8   6  18 1122.83 423.236   1
   8   6  19 973.007 257.069   1
   8   6  20 1444.90 321.474   1
   8   6  21 5076.02 411.502   1
   8   6  22 952.826 297.881   1
   8   6  23 2743.50 487.663   1
   8   6  24 607.875 691.612   1
   8   6  25 1231.21 440.772   1
   8   6  26 1370.88 496.835   1
   8   6  27 1318.97 540.006   1
   8   7 -26 965.086 339.606   1
   8   7 -25 189.726 312.864   1
   8   7 -24 443.553 307.518   1
   8   7 -23 49.3475  268.02   1
   8   7 -22 692.353 278.424   1
   8   7 -21 22.0831 336.534   1
   8   7 -20 4278.99 340.744   1
   8   7 -19 -94.161 915.242   1
   8   7 -18 157.338  212.83   1
   8   7 -17 2152.52 266.903   1
   8   7 -16 9982.27 483.923   1
   8   7 -15 762.561 233.597   1
   8   7 -14 4125.55 316.924   1
   8   7 -13 108.335  188.40   1
   8   7 -12 2962.07 255.798   1
   8   7 -11 1145.02  211.82   1
   8   7 -10 9139.37 463.564   1
   8   7  -9 900.426 198.752   1
   8   7  -8 6694.56 344.768   1
   8   7  -7 3020.55 283.738   1
   8   7  -6 2840.48 243.276   1
   8   7  -5 727.883 199.132   1
   8   7  -413220.10  500.38   1
   8   7  -3 903.798 180.258   1
   8   7  -2 3515.69 223.934   1
   8   7  -1 2137.42 182.573   1
   8   7   0 9823.21 386.266   1
   8   7   1 2499.24 221.862   1
   8   7   2 1868.57 221.697   1
   8   7   3 1097.02 165.829   1
   8   7   414078.90 492.736   1
   8   7   5 664.375  163.35   1
   8   7   6 2412.71 228.103   1
   8   7   7 3009.53 207.739   1
   8   7   8 5182.39 289.739   1
   8   7   9 1300.73 174.877   1
   8   7  1010050.00 424.644   1
   8   7  11 1122.95  196.34   1
   8   7  12 2994.89 253.678   1
   8   7  13 296.756 229.733   1
   8   7  14 4085.34  326.87   1
   8   7  15  601.82 244.674   1
   8   7  1610664.10 570.957   1
   8   7  17 1732.99 307.867   1
   8   7  18 1007.86 298.692   1
   8   7  19-71.6073 847.071   1
   8   7  20 4371.57 516.694   1
   8   7  21 900.654 324.864   1
   8   7  22 1495.38 324.597   1
   8   7  23 1.50807 298.837   1
   8   7  24 427.719 364.805   1
   8   7  25 394.122 393.519   1
   8   7  26 1224.22 423.527   1
   8   8 -26 133.192 412.665   1
   8   8 -25 407.785 445.985   1
   8   8 -24 930.773 341.875   1
   8   8 -23 1588.26 319.517   1
   8   8 -22 844.779  326.22   1
   8   8 -21 1985.04 335.774   1
   8   8 -20-59.4578 734.952   1
   8   8 -19 399.604 274.449   1
   8   8 -18 872.058 333.997   1
   8   8 -17 91.3768 232.723   1
   8   8 -16 2899.25 503.641   1
   8   8 -15 3440.67 304.969   1
   8   8 -14 948.257 243.488   1
   8   8 -13 1519.00 266.232   1
   8   8 -12 2626.97  262.30   1
   8   8 -11 1322.83 242.195   1
   8   8 -10 2106.97 227.154   1
   8   8  -9 5533.77 320.194   1
   8   8  -8 3115.35 267.734   1
   8   8  -7 1785.18 243.327   1
   8   8  -6 618.088 215.904   1
   8   8  -5 1210.52 173.308   1
   8   8  -4 2819.75  224.72   1
   8   8  -3 2776.57 245.424   1
   8   8  -2 1408.96 199.969   1
   8   8  -1 3180.86 237.627   1
   8   8   0 1036.65 172.967   1
   8   8   1 3275.63 245.807   1
   8   8   2 2381.54 242.318   1
   8   8   3 2933.34 219.632   1
   8   8   4 2062.56 269.218   1
   8   8   5 1325.54 189.171   1
   8   8   6 1043.26 176.278   1
   8   8   7 1181.50 218.402   1
   8   8   8 5175.26 306.937   1
   8   8   9 3304.79 250.961   1
   8   8  10 2598.15 286.907   1
   8   8  11 2104.26 343.625   1
   8   8  12 2264.75 238.438   1
   8   8  13 442.556 321.022   1
   8   8  14 909.516 243.345   1
   8   8  15 4395.84 350.149   1
   8   8  16 1957.34 315.686   1
   8   8  17 853.658 272.623   1
   8   8  18 956.125  310.68   1
   8   8  19 102.818 465.289   1
   8   8  20-156.974 739.825   1
   8   8  21 2999.50 422.541   1
   8   8  22 147.895 311.924   1
   8   8  23 382.599 343.366   1
   8   8  24  822.83 466.878   1
   8   8  25 190.566 289.275   1
   8   8  26-207.296 616.209   1
   8   9 -25 92.0383 428.126   1
   8   9 -24 783.882 321.778   1
   8   9 -23 1217.43 372.009   1
   8   9 -22 1347.28  287.02   1
   8   9 -21 208.238 324.566   1
   8   9 -20 1158.24 422.175   1
   8   9 -19 51.9843 280.763   1
   8   9 -18 2404.13 477.496   1
   8   9 -17 1143.21 290.001   1
   8   9 -16 1198.47 268.492   1
   8   9 -15 1987.20 415.044   1
   8   9 -14 1934.86 272.675   1
   8   9 -13 803.285 240.541   1
   8   9 -12 3513.92 449.127   1
   8   9 -11-27.6589 587.019   1
   8   9 -10 2113.73 230.542   1
   8   9  -9 686.876 211.066   1
   8   9  -8 4452.15 266.266   1
   8   9  -7 3062.77 243.243   1
   8   9  -611032.70 471.625   1
   8   9  -5 1557.99  224.70   1
   8   9  -4 5062.26 314.464   1
   8   9  -3 5102.29 373.569   1
   8   9  -2 9473.07 375.641   1
   8   9  -1 925.415  187.24   1
   8   9   0 7348.48 371.702   1
   8   9   1 1134.19 201.168   1
   8   9   2 8314.00 352.342   1
   8   9   3 5373.93 343.816   1
   8   9   4 5481.81 274.514   1
   8   9   5 845.153 177.738   1
   8   9   6 9353.10 385.078   1
   8   9   7 2620.25 222.693   1
   8   9   8 4165.46 262.545   1
   8   9   9 508.306 173.527   1
   8   9  10 2179.47  205.14   1
   8   9  11 137.564 209.549   1
   8   9  12 3043.23 252.978   1
   8   9  13 1009.70 330.219   1
   8   9  14 3008.67  384.44   1
   8   9  15 1688.26 290.271   1
   8   9  16 894.723  296.84   1
   8   9  17 1212.12 290.247   1
   8   9  18 2588.17 369.647   1
   8   9  19-19.1879 728.851   1
   8   9  20 728.412 326.453   1
   8   9  21  445.49 333.139   1
   8   9  22 1442.15 340.724   1
   8   9  23 795.726 473.527   1
   8   9  24 713.606 412.233   1
   8   9  25 497.816 425.871   1
   8  10 -24 1064.49 341.573   1
   8  10 -23 2932.55 405.257   1
   8  10 -22 2059.35 387.066   1
   8  10 -21 2105.83 477.752   1
   8  10 -20 651.066 226.801   1
   8  10 -19 157.694 366.422   1
   8  10 -18 635.289 276.972   1
   8  10 -17 7870.31 719.931   1
   8  10 -16 2045.71 291.161   1
   8  10 -15 7036.74 447.305   1
   8  10 -14 1472.18 392.255   1
   8  10 -13 4053.08  402.71   1
   8  10 -12-59.2216 668.259   1
   8  10 -11 9599.21 511.299   1
   8  10 -10 8868.57  455.54   1
   8  10  -912142.40 515.271   1
   8  10  -8 436.711 234.019   1
   8  10  -7 3404.96 262.413   1
   8  10  -6 1371.01 228.007   1
   8  10  -5 4590.04 312.918   1
   8  10  -4 3516.40 278.787   1
   8  10  -315400.10 568.897   1
   8  10  -2 5795.02 394.896   1
   8  10  -1 4299.27 306.578   1
   8  10   0 1696.89 201.278   1
   8  10   1 4607.69 280.866   1
   8  10   2 6198.78 306.135   1
   8  10   317329.30 596.439   1
   8  10   4 4549.96 272.065   1
   8  10   5 4778.33 278.514   1
   8  10   6 1456.36 240.725   1
   8  10   7 4386.35  275.30   1
   8  10   8 1548.70 204.389   1
   8  10   913694.70 525.671   1
   8  10  10 8196.45 408.353   1
   8  10  11 6858.09 460.239   1
   8  10  12 617.318 272.935   1
   8  10  13 5046.17 339.197   1
   8  10  14 2047.41 387.301   1
   8  10  15 6936.88 464.026   1
   8  10  16 1142.16  300.33   1
   8  10  17 5334.07 483.117   1
   8  10  18 1427.84 391.233   1
   8  10  19 546.886 593.071   1
   8  10  20 516.467 367.305   1
   8  10  21 2545.51 384.766   1
   8  10  22 2934.48 516.948   1
   8  10  23 1883.80 653.401   1
   8  10  24-197.125 1566.98   1
   8  11 -23 207.597 817.607   1
   8  11 -22 2473.53 422.915   1
   8  11 -21 974.989 267.544   1
   8  11 -20 3431.95 323.139   1
   8  11 -19 505.017 229.412   1
   8  11 -18-268.726 686.384   1
   8  11 -17 602.942 245.191   1
   8  11 -16 6993.92 437.337   1
   8  11 -15  602.26  327.48   1
   8  11 -14 6422.04 431.006   1
   8  11 -13 1395.69 375.933   1
   8  11 -12 550.064 260.414   1
   8  11 -11 411.952 242.032   1
   8  11 -1015437.00 667.801   1
   8  11  -9 2089.25 295.889   1
   8  11  -8 5993.88 450.329   1
   8  11  -7 2899.15 397.707   1
   8  11  -6 2503.49 309.211   1
   8  11  -5 2718.10 344.083   1
   8  11  -4 9406.71  489.02   1
   8  11  -3 3890.41 278.457   1
   8  11  -2 7698.75 374.171   1
   8  11  -1 5779.28 324.171   1
   8  11   0 5643.06 373.732   1
   8  11   1 4535.49 288.821   1
   8  11   2 7560.12 359.167   1
   8  11   3 3420.37 329.597   1
   8  11   4 9522.69 410.251   1
   8  11   5 2008.56 235.357   1
   8  11   6 2750.93  325.55   1
   8  11   7 3242.13 278.968   1
   8  11   8 5610.69 347.459   1
   8  11   9 1252.26 214.792   1
   8  11  1016430.10 596.907   1
   8  11  11 654.105 252.339   1
   8  11  12 1036.63 230.053   1
   8  11  13 824.783 239.426   1
   8  11  14 5030.00 465.616   1
   8  11  15 1198.47 429.944   1
   8  11  16 6901.41 637.527   1
   8  11  17 471.225 318.514   1
   8  11  18 843.906  358.47   1
   8  11  19 1160.75 451.243   1
   8  11  20 2915.63 411.968   1
   8  11  21 1182.18 363.776   1
   8  11  22 2182.62 622.349   1
   8  11  23 282.095 416.606   1
   8  12 -22 1484.16  791.93   1
   8  12 -21 1220.92 328.664   1
   8  12 -20 870.335 336.842   1
   8  12 -19 1421.47 463.162   1
   8  12 -18-210.003 697.441   1
   8  12 -17 1045.07 299.746   1
   8  12 -16 752.698 275.677   1
   8  12 -15 1558.15  327.06   1
   8  12 -14 619.193 289.449   1
   8  12 -13 2353.61 305.002   1
   8  12 -12 738.555 250.523   1
   8  12 -11 813.393 239.749   1
   8  12 -10 3033.64 308.197   1
   8  12  -9 4289.51 341.592   1
   8  12  -8-10.4183 707.701   1
   8  12  -7 3015.43 307.372   1
   8  12  -6 1745.32  262.35   1
   8  12  -5 1074.44 225.003   1
   8  12  -4 2501.44 331.896   1
   8  12  -3 4930.80 317.589   1
   8  12  -2 546.351 229.517   1
   8  12  -1 1212.36 242.493   1
   8  12   0 8235.18 422.817   1
   8  12   1 1545.28 223.602   1
   8  12   2 2131.21 306.385   1
   8  12   3 5226.61 313.613   1
   8  12   4 1995.52 268.257   1
   8  12   5 1134.84 212.424   1
   8  12   6 2557.66 243.202   1
   8  12   7 2307.20 374.775   1
   8  12   8  50.437 226.341   1
   8  12   9 4110.51 321.483   1
   8  12  10 2950.75 293.836   1
   8  12  11 1553.68  254.88   1
   8  12  12 691.919 282.561   1
   8  12  13 1652.99 299.156   1
   8  12  14 501.227 290.166   1
   8  12  15 2292.86 534.672   1
   8  12  16 1166.20 328.622   1
   8  12  17 2517.32 448.138   1
   8  12  18 45.1047 392.991   1
   8  12  19 1395.89 336.269   1
   8  12  20 775.461 414.593   1
   8  12  21 2826.47 597.039   1
   8  12  22 248.443 422.999   1
   8  13 -21 173.437 671.214   1
   8  13 -20 938.318 322.153   1
   8  13 -19 975.404 400.421   1
   8  13 -18 128.522 345.804   1
   8  13 -17 1157.39 405.834   1
   8  13 -16-217.854 729.666   1
   8  13 -15-223.453 1135.48   1
   8  13 -14 649.799 310.474   1
   8  13 -13 86.6666 307.458   1
   8  13 -12 263.695 330.717   1
   8  13 -11 496.366 397.295   1
   8  13 -10 1284.16 331.607   1
   8  13  -9 279.842 321.668   1
   8  13  -8 1153.54 332.118   1
   8  13  -7 1186.16 356.421   1
   8  13  -6 933.601 272.924   1
   8  13  -5 776.864 336.318   1
   8  13  -4 1218.36 278.122   1
   8  13  -3 1968.65 294.984   1
   8  13  -2 3672.08 378.898   1
   8  13  -1 216.539 270.866   1
   8  13   0 1201.66  296.81   1
   8  13   1 530.103 243.617   1
   8  13   2 3169.81  297.22   1
   8  13   3 1172.72 246.542   1
   8  13   4 853.795 245.866   1
   8  13   5 863.257 230.792   1
   8  13   6 664.989 245.022   1
   8  13   7 1529.45 246.318   1
   8  13   8 1052.20 255.274   1
   8  13   9-216.898 910.448   1
   8  13  10 918.037 233.406   1
   8  13  11 1306.41 421.965   1
   8  13  12 940.864 263.587   1
   8  13  13 351.468 310.885   1
   8  13  14 1048.90 277.554   1
   8  13  15 343.043  369.73   1
   8  13  16 965.213 399.353   1
   8  13  17 407.454 296.581   1
   8  13  18-646.729 682.057   1
   8  13  19 1084.11 288.563   1
   8  13  20 819.391 493.742   1
   8  13  21 644.268 712.296   1
   8  14 -19 76.9766 535.778   1
   8  14 -18 567.704 300.708   1
   8  14 -17 2589.41 394.745   1
   8  14 -16 906.794 306.954   1
   8  14 -15 965.876 339.733   1
   8  14 -14 505.753 324.665   1
   8  14 -13 1371.26 469.465   1
   8  14 -12 928.271 336.481   1
   8  14 -11 861.322 332.517   1
   8  14 -10 133.816 302.168   1
   8  14  -9 1294.36  366.27   1
   8  14  -8 892.504 321.751   1
   8  14  -7 1328.71 361.799   1
   8  14  -6 66.1639 318.722   1
   8  14  -5 1071.02 298.929   1
   8  14  -4 565.467 310.771   1
   8  14  -3 1758.42  303.79   1
   8  14  -2 442.796  314.02   1
   8  14  -1  518.50 344.035   1
   8  14   0 152.577 271.426   1
   8  14   1 642.888 361.211   1
   8  14   2  661.89 254.098   1
   8  14   3 2340.18 309.136   1
   8  14   4 45.0365 247.313   1
   8  14   5 1707.27 278.046   1
   8  14   6 432.584 365.618   1
   8  14   7 1394.98 227.774   1
   8  14   8 488.847 252.551   1
   8  14   9 1426.10 262.068   1
   8  14  10 824.956 325.881   1
   8  14  11 1566.81 273.771   1
   8  14  12 566.916 290.911   1
   8  14  13 1638.60 278.039   1
   8  14  14 85.2391  242.87   1
   8  14  15 877.468 306.929   1
   8  14  16 761.206 404.105   1
   8  14  17 2615.78 408.463   1
   8  14  18 90.0076 410.638   1
   8  14  19 380.866 353.485   1
   8  15 -18 500.658 1386.29   1
   8  15 -17 579.878 355.265   1
   8  15 -16 1358.45 336.523   1
   8  15 -15 1449.39 343.959   1
   8  15 -14 622.007 263.588   1
   8  15 -13 449.114 269.053   1
   8  15 -12 578.091 287.838   1
   8  15 -11 1275.61 334.795   1
   8  15 -10 3784.86 606.084   1
   8  15  -9 1438.79 301.593   1
   8  15  -8  159.13 282.259   1
   8  15  -7 1451.04 315.634   1
   8  15  -6 624.044 347.354   1
   8  15  -5 2154.45 509.183   1
   8  15  -4 1359.70 283.606   1
   8  15  -3 3575.23  351.61   1
   8  15  -2 1160.78 271.035   1
   8  15  -1 1990.52 288.055   1
   8  15   0 200.327 242.575   1
   8  15   1 2045.67 309.668   1
   8  15   2 2708.35 382.451   1
   8  15   3 3623.79 379.851   1
   8  15   4 938.839 271.779   1
   8  15   5 1051.48 485.012   1
   8  15   6 600.054 261.764   1
   8  15   7 1622.12 276.256   1
   8  15   8 959.199 254.527   1
   8  15   9 1242.27 257.575   1
   8  15  10 4341.20 573.662   1
   8  15  11 266.176 266.371   1
   8  15  12 643.236 402.612   1
   8  15  13 613.515 271.244   1
   8  15  14 1067.12 331.971   1
   8  15  15 493.767 325.486   1
   8  15  16 1586.11  536.61   1
   8  15  17 452.409 351.165   1
   8  15  18 -38.365 1354.91   1
   8  16 -16-334.659 644.432   1
   8  16 -15 580.289 384.932   1
   8  16 -14 2183.15 368.672   1
   8  16 -13 1364.39 449.855   1
   8  16 -12 1006.84 341.477   1
   8  16 -11 361.204 268.527   1
   8  16 -10 1323.76 310.476   1
   8  16  -9 1858.39  429.70   1
   8  16  -8 1869.94 312.337   1
   8  16  -7 1629.21 321.251   1
   8  16  -6 3894.06 419.693   1
   8  16  -5 943.152 320.075   1
   8  16  -4 2241.10 469.467   1
   8  16  -3 3392.57  378.39   1
   8  16  -2 2592.96 299.499   1
   8  16  -1 640.204 280.243   1
   8  16   0 4471.84 418.343   1
   8  16   1 938.324 275.886   1
   8  16   2 2759.59 356.559   1
   8  16   3 2690.28 355.109   1
   8  16   4 1783.81 318.595   1
   8  16   5 607.519 290.272   1
   8  16   6 4621.65 407.614   1
   8  16   7 295.871 288.048   1
   8  16   8 1618.93 299.003   1
   8  16   9 1906.00 287.121   1
   8  16  10 332.266 415.528   1
   8  16  11 833.469 283.492   1
   8  16  12 2496.34 334.436   1
   8  16  13 1806.38 298.088   1
   8  16  14 1780.12 441.893   1
   8  16  15 178.759 263.885   1
   8  16  16 665.097 495.569   1
   8  17 -13 1791.72 362.025   1
   8  17 -12 351.757 289.231   1
   8  17 -11 1035.71 277.566   1
   8  17 -10 352.387 274.734   1
   8  17  -9 322.792 322.405   1
   8  17  -8 779.045 455.159   1
   8  17  -7 1500.01 312.978   1
   8  17  -6 577.568 351.162   1
   8  17  -5 3870.46 471.721   1
   8  17  -4 116.735 420.684   1
   8  17  -3 958.403 292.049   1
   8  17  -2-41.0113 886.211   1
   8  17  -1 1922.42 425.504   1
   8  17   0 166.509 280.182   1
   8  17   1 2631.83 448.651   1
   8  17   2 93.1486 274.613   1
   8  17   3 911.535  319.69   1
   8  17   4 288.589 328.942   1
   8  17   5 2142.70 331.388   1
   8  17   6 10.3541 272.232   1
   8  17   7 2312.90 317.581   1
   8  17   8 -69.349 739.567   1
   8  17   9 573.617 265.485   1
   8  17  10-137.434 662.231   1
   8  17  11 1023.41 341.353   1
   8  17  12 468.606 241.708   1
   8  17  13 1257.66 379.476   1
   8  18 -10-117.428 1899.24   1
   8  18  -9 256.097  376.05   1
   8  18  -8 206.069 445.045   1
   8  18  -7 709.414 269.965   1
   8  18  -6 1306.36 323.152   1
   8  18  -5 7.11675 269.192   1
   8  18  -4 276.281 318.421   1
   8  18  -3 155.886 412.247   1
   8  18  -2  375.39 262.625   1
   8  18  -1 325.558 376.545   1
   8  18   0 234.234  270.11   1
   8  18   1-44.9514 776.429   1
   8  18   2 518.194  288.51   1
   8  18   3 403.761 322.843   1
   8  18   4-178.231  670.23   1
   8  18   5 -254.68 886.448   1
   8  18   6 2087.79 335.084   1
   8  18   7 852.516 320.898   1
   8  18   8 433.068 241.575   1
   8  18   9 364.861 273.861   1
   8  18  10 904.186 693.639   1
   8  19  -4-641.036  654.65   1
   8  19  -3 1011.85 306.379   1
   8  19  -2 128.366 251.728   1
   8  19  -1 685.679 237.532   1
   8  19   0 211.721 222.788   1
   8  19   1 935.739 276.945   1
   8  19   2 349.991 258.263   1
   8  19   3 527.032 293.485   1
   8  19   4-167.144 640.554   1
   8  19   5 945.781  518.29   1
   9   0   1 414.662 143.832   1
   9   0   219091.60 600.543   1
   9   0   3 1547.31 235.982   1
   9   0   410665.90  408.16   1
   9   0   5 481.186 176.767   1
   9   0   6 77.7964 145.122   1
   9   0   7 1005.15 160.145   1
   9   0   810798.10 391.201   1
   9   0   9 2370.73 245.824   1
   9   0  10 2627.84 219.728   1
   9   0  11 146.866 230.751   1
   9   0  12 728.154  233.18   1
   9   0  13 538.783 219.737   1
   9   0  14 98.0249  214.49   1
   9   0  15 3229.01 405.604   1
   9   0  16 3567.68 339.652   1
   9   0  17 405.301 220.652   1
   9   0  18 3672.80 352.536   1
   9   0  19 254.829 300.621   1
   9   0  20 113.021 255.768   1
   9   0  21 1263.00 322.627   1
   9   0  22 4563.77 593.139   1
   9   0  23 -654.14 980.815   1
   9   0  24 950.524 413.474   1
   9   0  25 329.188 313.848   1
   9   0  26 11.8036 289.092   1
   9   0  27 377.196 531.592   1
   9   1 -27 1318.12  713.30   1
   9   1 -26  481.20 268.435   1
   9   1 -25-102.514 893.309   1
   9   1 -24 937.168 348.409   1
   9   1 -23 264.983 289.216   1
   9   1 -22 2537.85 369.399   1
   9   1 -21 996.955 369.282   1
   9   1 -20 4212.69 371.827   1
   9   1 -19 1036.16 271.413   1
   9   1 -18 4095.94 347.364   1
   9   1 -17 1918.29 254.582   1
   9   1 -16 4562.63 333.512   1
   9   1 -15 1160.64 226.963   1
   9   1 -14 3967.36 296.373   1
   9   1 -13 2688.06 257.812   1
   9   1 -1212865.30 511.905   1
   9   1 -11 2187.45 254.559   1
   9   1 -10 6566.33 331.036   1
   9   1  -9 775.292 173.621   1
   9   1  -816374.20 560.829   1
   9   1  -7 4391.07 264.968   1
   9   1  -6 5044.01 297.947   1
   9   1  -5 1621.82 196.742   1
   9   1  -4 6169.81 323.027   1
   9   1  -3 1839.99 245.788   1
   9   1  -2 7251.25 300.824   1
   9   1  -1 2918.88 191.465   1
   9   1   0 3937.09 223.467   1
   9   1   1 1999.15 164.358   1
   9   1   2 6899.50 292.886   1
   9   1   3 1614.44 179.993   1
   9   1   4 7686.43 317.052   1
   9   1   5 2451.14 200.818   1
   9   1   6 4321.95 227.575   1
   9   1   7 4720.20 253.667   1
   9   1   817753.20 577.358   1
   9   1   9 1302.21 170.457   1
   9   1  10 8048.22 343.495   1
   9   1  11 2727.47 303.116   1
   9   1  1211883.30 475.449   1
   9   1  13 2228.59 272.035   1
   9   1  14 4686.11 322.618   1
   9   1  15 1362.79 241.649   1
   9   1  16 3727.23 305.028   1
   9   1  17 2095.14 248.741   1
   9   1  18 3689.29 308.988   1
   9   1  19 787.785 322.722   1
   9   1  20 3560.40  558.32   1
   9   1  21 1204.41 358.148   1
   9   1  22 1655.98 332.886   1
   9   1  23 711.411 615.851   1
   9   1  24-50.1599 840.188   1
   9   1  25  288.34 304.825   1
   9   1  26 292.813 265.446   1
   9   1  27 2255.26 818.277   1
   9   2 -26 608.187 281.852   1
   9   2 -25 156.284 273.955   1
   9   2 -24 1173.65 441.365   1
   9   2 -23 4446.60 526.492   1
   9   2 -22  778.44 289.672   1
   9   2 -21 4032.31 386.372   1
   9   2 -20-523.495 774.602   1
   9   2 -19 394.447  333.90   1
   9   2 -18 1322.49  289.97   1
   9   2 -17 9430.12 623.472   1
   9   2 -16 1332.61  255.06   1
   9   2 -1510194.70 423.309   1
   9   2 -14 16.3285 190.791   1
   9   2 -13 4941.62 301.732   1
   9   2 -12 967.991 193.045   1
   9   2 -11 9416.33 407.978   1
   9   2 -10 299.846 228.943   1
   9   2  -921200.40 712.805   1
   9   2  -8 1393.90  217.71   1
   9   2  -7 2835.02 220.505   1
   9   2  -6 3073.22 292.704   1
   9   2  -5 7007.81 339.936   1
   9   2  -4 3996.54 246.251   1
   9   2  -339011.50 1138.56   1
   9   2  -2 9452.52 339.456   1
   9   2  -1 9407.14 417.285   1
   9   2   0 1728.04 225.897   1
   9   2   110629.90 373.257   1
   9   2   2 8836.09 369.113   1
   9   2   336684.70 1131.09   1
   9   2   4 3803.78 230.647   1
   9   2   5 7186.07 299.063   1
   9   2   6 3079.04 220.563   1
   9   2   7 3529.33  218.15   1
   9   2   8 1330.91 214.963   1
   9   2   921720.70 670.438   1
   9   2  10 471.478 247.642   1
   9   2  11 9347.90 377.375   1
   9   2  12 803.571 246.689   1
   9   2  13 5305.82  437.06   1
   9   2  14-208.013 735.005   1
   9   2  15 9004.58 462.136   1
   9   2  16 661.384  233.33   1
   9   2  17 9369.59 461.834   1
   9   2  18 1644.04 254.923   1
   9   2  19 401.247 254.986   1
   9   2  20 962.312  306.78   1
   9   2  21 4997.83 447.933   1
   9   2  22 1166.69 442.459   1
   9   2  23 3883.37 397.112   1
   9   2  24  952.61 336.963   1
   9   2  25 383.497 321.945   1
   9   2  26 362.844 412.401   1
   9   3 -26 667.638 421.299   1
   9   3 -25 140.778 315.239   1
   9   3 -24 468.547 417.351   1
   9   3 -23-107.877 720.441   1
   9   3 -22 3252.13 462.233   1
   9   3 -21 1319.10 283.928   1
   9   3 -20 2638.25 317.311   1
   9   3 -19 1960.70 294.191   1
   9   3 -18 1443.77 308.146   1
   9   3 -17 2146.18 260.604   1
   9   3 -16 4462.22 368.022   1
   9   3 -15 1745.77 223.492   1
   9   3 -14 9641.26 450.555   1
   9   3 -13 5977.61 310.423   1
   9   3 -12 6128.60 312.015   1
   9   3 -11 4155.89 282.201   1
   9   3 -1014223.90 561.028   1
   9   3  -9 704.912 220.522   1
   9   3  -815682.90 595.885   1
   9   3  -7 8523.79 377.312   1
   9   3  -6 1593.94 182.394   1
   9   3  -5 5672.61  275.98   1
   9   3  -413249.20  428.80   1
   9   3  -3 980.987 127.373   1
   9   3  -218387.30 554.193   1
   9   3  -1 8206.05 352.144   1
   9   3   0 2286.17 208.396   1
   9   3   110045.70 372.846   1
   9   3   220826.10 657.596   1
   9   3   3 1421.90 198.792   1
   9   3   410165.30 446.151   1
   9   3   5 5645.61 317.159   1
   9   3   6 1777.07 189.898   1
   9   3   7 8353.71 346.386   1
   9   3   813811.20 478.079   1
   9   3   9 583.863 157.546   1
   9   3  1012829.40 465.033   1
   9   3  11 2939.12 219.695   1
   9   3  12 7776.31 349.569   1
   9   3  13 8091.17 379.155   1
   9   3  14 9000.77 434.065   1
   9   3  15 1876.90  309.33   1
   9   3  16 6849.58 507.965   1
   9   3  17 2051.30 305.695   1
   9   3  18 1681.87 265.067   1
   9   3  19 1725.11  342.21   1
   9   3  20 2833.98 348.594   1
   9   3  21 1216.61 334.226   1
   9   3  22 4271.72 432.861   1
   9   3  23 499.858 329.164   1
   9   3  24 263.192  322.88   1
   9   3  25 462.519 304.517   1
   9   3  26 1277.86 330.294   1
   9   4 -26 1178.96 315.043   1
   9   4 -25 448.794 275.879   1
   9   4 -24 3230.75 380.595   1
   9   4 -23 554.316 256.267   1
   9   4 -22 3137.11  334.11   1
   9   4 -21 1475.14  323.62   1
   9   4 -20 2360.16 331.063   1
   9   4 -19 1020.61 389.511   1
   9   4 -18 5558.19 374.326   1
   9   4 -17 778.545 250.624   1
   9   4 -16 201.522 242.877   1
   9   4 -15 3528.50 293.228   1
   9   4 -14 6800.51 344.949   1
   9   4 -13  202.80 208.126   1
   9   4 -12 3757.28 275.835   1
   9   4 -11 590.939 309.186   1
   9   4 -10 2457.42 308.503   1
   9   4  -9 4068.05 303.694   1
   9   4  -8 7447.15 365.264   1
   9   4  -7 710.468 182.177   1
   9   4  -610212.70 433.422   1
   9   4  -5 3046.06 193.919   1
   9   4  -4 5595.19 256.409   1
   9   4  -3 3523.52 220.674   1
   9   4  -220667.20 703.188   1
   9   4  -1 464.926 156.723   1
   9   4   0 4325.10 251.097   1
   9   4   1 840.066  171.45   1
   9   4   223595.60 754.189   1
   9   4   3 2970.15 224.564   1
   9   4   4 5965.23 286.469   1
   9   4   5 3111.29 200.391   1
   9   4   612847.90 529.544   1
   9   4   7 1500.73 212.545   1
   9   4   8 8345.51 357.225   1
   9   4   9 4082.62 238.341   1
   9   4  10 2433.67 246.783   1
   9   4  11 1348.34 284.697   1
   9   4  12 4861.45  288.35   1
   9   4  13 696.413 229.383   1
   9   4  14 6608.64 460.936   1
   9   4  15 2655.80 311.535   1
   9   4  16 591.272 327.954   1
   9   4  17 1064.62 255.575   1
   9   4  18 4726.11 383.442   1
   9   4  19 753.918 271.901   1
   9   4  20 2123.59 355.967   1
   9   4  21 1445.30 338.816   1
   9   4  22 3357.37 641.359   1
   9   4  23 216.744 392.121   1
   9   4  24 1773.32 438.577   1
   9   4  25 993.232 366.369   1
   9   4  26 2773.70 1469.95   1
   9   5 -26 10.0528 654.262   1
   9   5 -25 843.109 348.503   1
   9   5 -24 353.017 259.836   1
   9   5 -23 959.779 316.124   1
   9   5 -22 477.265 239.094   1
   9   5 -21 1673.60 299.039   1
   9   5 -20-59.0849 791.016   1
   9   5 -19 83.8103 254.637   1
   9   5 -18 3163.98 333.321   1
   9   5 -17 4165.60 342.829   1
   9   5 -16 473.647  248.11   1
   9   5 -15 2470.58 304.583   1
   9   5 -14 3518.69 332.785   1
   9   5 -13 336.117 202.166   1
   9   5 -12 3314.13  297.84   1
   9   5 -11 3655.68 333.908   1
   9   5 -10 916.887 319.367   1
   9   5  -9 3495.78 281.761   1
   9   5  -8 3771.75 302.985   1
   9   5  -7 1037.45 187.437   1
   9   5  -6 2083.35 208.557   1
   9   5  -5 7074.28 365.974   1
   9   5  -4 37.3673 206.772   1
   9   5  -3 5444.56 294.976   1
   9   5  -2 2158.60 203.279   1
   9   5  -1 2750.94 260.186   1
   9   5   0 825.433 152.482   1
   9   5   1 2394.72  213.12   1
   9   5   2 2232.71 237.493   1
   9   5   3 3436.82 327.249   1
   9   5   4 372.896 161.594   1
   9   5   5 7011.29 345.932   1
   9   5   6 1921.54 191.574   1
   9   5   7 2058.25 201.931   1
   9   5   8 4863.38 277.527   1
   9   5   9 3103.67 236.025   1
   9   5  10 1415.54 190.715   1
   9   5  11 3861.84 282.185   1
   9   5  12 3268.67 274.743   1
   9   5  13 253.874 219.443   1
   9   5  14 3719.90 291.791   1
   9   5  15 1537.18 309.252   1
   9   5  16 175.942 268.285   1
   9   5  17 5016.49 403.218   1
   9   5  18 3020.03 342.861   1
   9   5  19 461.465 315.682   1
   9   5  20-816.817 814.419   1
   9   5  21 1117.97 438.223   1
   9   5  22 -0.9466 744.577   1
   9   5  23 1314.59 582.922   1
   9   5  24 -80.458 1635.36   1
   9   5  25 999.697 1287.86   1
   9   5  26 51.8721 630.191   1
   9   6 -25 952.548 354.494   1
   9   6 -24 401.859 243.623   1
   9   6 -23 837.424 323.723   1
   9   6 -22 493.084 295.305   1
   9   6 -21 490.792 248.251   1
   9   6 -20 44.1109 304.477   1
   9   6 -19 3903.07  348.35   1
   9   6 -18  243.96 252.477   1
   9   6 -17 3426.70 324.866   1
   9   6 -16 675.697 337.708   1
   9   6 -15 1937.19 299.141   1
   9   6 -14 1081.30  281.32   1
   9   6 -13 5281.75 456.711   1
   9   6 -12 703.235 237.761   1
   9   6 -11 1065.18 257.586   1
   9   6 -10 1350.54 257.808   1
   9   6  -9 3931.80 316.945   1
   9   6  -8 1072.03 305.991   1
   9   6  -710077.90 546.253   1
   9   6  -6 4714.00 342.517   1
   9   6  -5 6190.95  364.12   1
   9   6  -4 499.989 189.249   1
   9   6  -3 6700.98 343.333   1
   9   6  -2 1089.95 186.713   1
   9   6  -1 4356.75 300.947   1
   9   6   0 210.685 163.898   1
   9   6   1 5588.96 292.295   1
   9   6   2 895.478  184.33   1
   9   6   3 7663.25 401.347   1
   9   6   4 579.557 217.114   1
   9   6   5 5158.18 272.293   1
   9   6   6 4198.25 253.011   1
   9   6   711499.20 462.174   1
   9   6   8 921.521 199.264   1
   9   6   9 2187.86 221.181   1
   9   6  10 671.728  205.98   1
   9   6  11 1626.99 228.217   1
   9   6  12  623.22 225.821   1
   9   6  13 6830.15 419.671   1
   9   6  14 1157.35 239.714   1
   9   6  15 2440.22 294.108   1
   9   6  16 162.782 257.996   1
   9   6  17 3087.62 485.248   1
   9   6  18 212.681 274.276   1
   9   6  19 3535.14 492.384   1
   9   6  20  239.30 407.264   1
   9   6  21 699.859 313.887   1
   9   6  22-608.354 1001.16   1
   9   6  23 1139.13  471.98   1
   9   6  24 155.462 478.641   1
   9   6  25 1370.40 559.438   1
   9   7 -25 226.383 588.656   1
   9   7 -24 1504.84  302.47   1
   9   7 -23 948.674 294.203   1
   9   7 -22 1635.77 319.992   1
   9   7 -21 1559.84 304.374   1
   9   7 -20 640.592 268.628   1
   9   7 -19 955.867 512.462   1
   9   7 -18 1527.18 304.019   1
   9   7 -17 3872.83 339.393   1
   9   7 -16 5649.81 382.747   1
   9   7 -15 2634.37  313.53   1
   9   7 -14 1659.98 296.397   1
   9   7 -13 5628.73 360.149   1
   9   7 -12 1363.03 235.765   1
   9   7 -11 4436.37 376.663   1
   9   7 -10 2904.65 310.497   1
   9   7  -9 4971.95 327.119   1
   9   7  -8 6724.25 345.447   1
   9   7  -7 5841.69 331.242   1
   9   7  -6 861.023  328.43   1
   9   7  -5 6912.53 392.044   1
   9   7  -416194.20 709.398   1
   9   7  -3 6054.47 325.735   1
   9   7  -2 5177.86 297.223   1
   9   7  -1 7986.63 372.968   1
   9   7   0 4302.92 268.677   1
   9   7   1 7572.64 353.339   1
   9   7   2 5800.12 323.012   1
   9   7   3 6889.88 360.047   1
   9   7   412921.10 553.815   1
   9   7   5 6490.94 332.682   1
   9   7   6 621.639 195.308   1
   9   7   7 6491.37 355.856   1
   9   7   8 5853.31 337.823   1
   9   7   9 4927.75 325.317   1
   9   7  10 2737.73 351.061   1
   9   7  11 5485.48 343.253   1
   9   7  12 1793.69 265.122   1
   9   7  13 3982.76 507.617   1
   9   7  14 1513.38 272.585   1
   9   7  15 2329.24 333.081   1
   9   7  16 6849.04 705.658   1
   9   7  17 3254.46 401.901   1
   9   7  18 1336.22 329.794   1
   9   7  19 1517.82 348.385   1
   9   7  20 921.013 307.522   1
   9   7  21 1537.26  355.65   1
   9   7  22 2713.21 388.741   1
   9   7  23 1315.89 380.331   1
   9   7  24 1908.92  570.29   1
   9   7  25 797.827 736.268   1
   9   8 -24 3478.69 567.422   1
   9   8 -23 481.931 297.389   1
   9   8 -22 187.364  256.05   1
   9   8 -21 886.525 381.789   1
   9   8 -20 2528.52 341.144   1
   9   8 -19 702.563 313.723   1
   9   8 -18 7492.45 498.254   1
   9   8 -17 695.363 295.379   1
   9   8 -16 1090.70 411.536   1
   9   8 -15 1203.67 392.292   1
   9   8 -14 7901.57 490.315   1
   9   8 -13 930.876 249.795   1
   9   8 -1213057.30 571.727   1
   9   8 -11 3442.87 298.358   1
   9   8 -10 3483.74 280.966   1
   9   8  -9 2092.50 233.539   1
   9   8  -8 7909.98 417.058   1
   9   8  -7  862.24 204.398   1
   9   8  -616405.70 632.257   1
   9   8  -5 2766.50 364.188   1
   9   8  -4 7574.37 450.609   1
   9   8  -3 423.367 244.043   1
   9   8  -2 7846.72 406.932   1
   9   8  -1 3161.22 275.022   1
   9   8   017078.20 820.064   1
   9   8   1 3052.57 247.149   1
   9   8   2 7818.46 431.207   1
   9   8   3  237.88 179.933   1
   9   8   4 6333.88 322.499   1
   9   8   5 3834.76 298.952   1
   9   8   619018.70 657.789   1
   9   8   7 1579.37 224.574   1
   9   8   810924.50 455.352   1
   9   8   9 1407.46 255.475   1
   9   8  10 4950.04 375.982   1
   9   8  11 2897.24 298.806   1
   9   8  1214260.50 647.518   1
   9   8  13 718.305  318.63   1
   9   8  14 5172.32 364.361   1
   9   8  15 530.888 277.449   1
   9   8  16-61.5166 709.597   1
   9   8  17 218.945 311.887   1
   9   8  18 6610.75 545.317   1
   9   8  19 934.822 402.813   1
   9   8  20 3028.21 449.893   1
   9   8  21-199.003 706.862   1
   9   8  22 541.679 352.915   1
   9   8  23 88.6052 294.664   1
   9   8  24 3130.99 904.443   1
   9   9 -23 2096.80 342.509   1
   9   9 -22 510.555 225.041   1
   9   9 -21 1547.82 318.213   1
   9   9 -20-259.752 710.827   1
   9   9 -19 2811.10 381.635   1
   9   9 -18 1297.67 342.686   1
   9   9 -17 2953.36  389.47   1
   9   9 -16 133.598 339.494   1
   9   9 -15 3285.48  445.19   1
   9   9 -14 831.421  455.00   1
   9   9 -13 2506.17 314.047   1
   9   9 -12 2624.14 327.552   1
   9   9 -11 8398.69 434.668   1
   9   9 -10 1406.40 261.914   1
   9   9  -9 3931.93 296.788   1
   9   9  -8 2646.46 303.358   1
   9   9  -7 4526.14 321.403   1
   9   9  -6 389.316 277.852   1
   9   9  -510373.30 505.939   1
   9   9  -4 770.821 301.907   1
   9   9  -3 3783.91 323.934   1
   9   9  -2 3152.46 502.393   1
   9   9  -1 7799.69 409.199   1
   9   9   0 7.92239 206.509   1
   9   9   1 9889.79  441.04   1
   9   9   2 2422.06 275.404   1
   9   9   3 3417.82 266.422   1
   9   9   4  10.429 203.908   1
   9   9   5 9932.91 462.284   1
   9   9   6 168.796 206.252   1
   9   9   7 4899.73 314.876   1
   9   9   8 1975.13 306.827   1
   9   9   9 3547.97 341.122   1
   9   9  10 783.068 280.005   1
   9   9  11 8088.81 421.392   1
   9   9  12 2777.96 475.246   1
   9   9  13 2880.02 417.551   1
   9   9  14 1375.00 316.146   1
   9   9  15 2897.38 434.476   1
   9   9  16 595.135 385.827   1
   9   9  17 3824.36 661.235   1
   9   9  18 1577.50 479.074   1
   9   9  19 2057.43 479.702   1
   9   9  20-39.0998 683.895   1
   9   9  21 1118.75 370.948   1
   9   9  22 216.503 327.265   1
   9   9  23 2400.75 687.968   1
   9  10 -22 610.227 357.964   1
   9  10 -21 1222.22 257.972   1
   9  10 -20 804.762 264.496   1
   9  10 -19 1199.60 557.646   1
   9  10 -18 222.524 414.559   1
   9  10 -17 645.593 338.767   1
   9  10 -16 505.271 446.008   1
   9  10 -15 357.081 341.523   1
   9  10 -14 789.157 334.947   1
   9  10 -13 3119.53 378.031   1
   9  10 -12 1586.92 293.555   1
   9  10 -11 1504.35 360.433   1
   9  10 -10 1140.74 277.827   1
   9  10  -9 1026.97 270.791   1
   9  10  -8 508.633 233.444   1
   9  10  -7 3884.85 343.978   1
   9  10  -6 1634.30  336.08   1
   9  10  -5 2074.74 361.248   1
   9  10  -4 1316.72 331.102   1
   9  10  -3 480.365 242.917   1
   9  10  -2 843.755 242.979   1
   9  10  -1 4655.81 390.971   1
   9  10   0 3992.90  329.61   1
   9  10   1 4287.05 365.121   1
   9  10   2 711.742 245.715   1
   9  10   3 835.142 220.331   1
   9  10   4 1094.36 228.564   1
   9  10   5 1421.31  238.29   1
   9  10   6 819.802 269.261   1
   9  10   7 2995.67 293.334   1
   9  10   8 301.455 219.909   1
   9  10   9 1207.54 335.414   1
   9  10  10 1442.89 322.918   1
   9  10  11 1881.95 315.889   1
   9  10  12 1748.66 286.552   1
   9  10  13 3584.76 333.799   1
   9  10  14 1128.70 647.779   1
   9  10  15 325.286 401.637   1
   9  10  16 1169.85 608.783   1
   9  10  17-160.741 743.328   1
   9  10  18 599.813 479.042   1
   9  10  19 2319.14 463.451   1
   9  10  20 721.969 629.986   1
   9  10  21 759.273 331.988   1
   9  10  22 1449.23 364.617   1
   9  11 -21-9.88372 543.236   1
   9  11 -20 1207.93 385.115   1
   9  11 -19 729.218 286.798   1
   9  11 -18  591.07 264.079   1
   9  11 -17 1522.41 403.019   1
   9  11 -16 421.127 280.153   1
   9  11 -15 314.154 478.871   1
   9  11 -14 278.484 332.762   1
   9  11 -13 668.677 354.699   1
   9  11 -12 392.603 261.685   1
   9  11 -11 1263.84  281.63   1
   9  11 -10 332.322 272.768   1
   9  11  -9 704.994 325.332   1
   9  11  -8 48.4487  267.38   1
   9  11  -7 1500.92 317.685   1
   9  11  -6 2187.97 327.975   1
   9  11  -5 970.432 293.851   1
   9  11  -4 1060.35 284.579   1
   9  11  -3 590.051 282.499   1
   9  11  -2 668.487 228.624   1
   9  11  -1 661.672 330.167   1
   9  11   0 3970.29  270.49   1
   9  11   1 793.094 290.174   1
   9  11   2 30.5102 259.849   1
   9  11   3 851.593 318.935   1
   9  11   4 901.065 248.428   1
   9  11   5 1096.26 271.562   1
   9  11   6 1730.64 318.552   1
   9  11   7 1766.65 266.868   1
   9  11   8 48.6712 275.493   1
   9  11   9 959.338 298.509   1
   9  11  10 500.275 242.946   1
   9  11  11 1818.59 292.448   1
   9  11  12 1088.02 283.427   1
   9  11  13 301.059 265.437   1
   9  11  14-36.6031 960.381   1
   9  11  15 8.54138 330.953   1
   9  11  16 387.989  431.51   1
   9  11  17 776.551 464.967   1
   9  11  18  419.32 358.012   1
   9  11  19 836.297  445.29   1
   9  11  20 2099.66 346.335   1
   9  11  21 -68.876 557.334   1
   9  12 -20 1496.72  570.00   1
   9  12 -19-1.57724  608.11   1
   9  12 -18 2145.73 338.004   1
   9  12 -17 118.354 304.412   1
   9  12 -16 2294.54 343.924   1
   9  12 -15-164.727 714.069   1
   9  12 -14 3005.01 351.912   1
   9  12 -13 371.213  304.14   1
   9  12 -12 3749.74 375.702   1
   9  12 -11 840.256 390.028   1
   9  12 -10 2631.26 493.514   1
   9  12  -9  101.77 303.426   1
   9  12  -8 4071.98 411.204   1
   9  12  -7 571.708 278.495   1
   9  12  -6 2605.01 323.037   1
   9  12  -5 1009.39 380.943   1
   9  12  -4 2126.47 314.026   1
   9  12  -3-25.3514  661.18   1
   9  12  -2 1806.97 343.208   1
   9  12  -1-59.1949  735.00   1
   9  12   0 3601.93  309.62   1
   9  12   1 11.2707 225.014   1
   9  12   2 3013.60 291.695   1
   9  12   3-150.355 739.209   1
   9  12   4 3044.78 345.345   1
   9  12   5 727.417 256.472   1
   9  12   6 4214.18 336.352   1
   9  12   7 36.8209 258.098   1
   9  12   8 3970.16 336.899   1
   9  12   9 208.205 317.529   1
   9  12  10 2623.76 339.791   1
   9  12  11 157.642 418.354   1
   9  12  12 4431.12 415.837   1
   9  12  13-118.291 936.237   1
   9  12  14 2542.24  406.48   1
   9  12  15-72.0395 1037.85   1
   9  12  16 3375.97 1187.42   1
   9  12  17 1666.95 585.392   1
   9  12  18 2561.09 509.989   1
   9  12  19 28.5583 312.388   1
   9  12  20 362.374 462.502   1
   9  13 -19 2517.94 834.407   1
   9  13 -18-171.171 1037.55   1
   9  13 -17 1370.55 344.204   1
   9  13 -16  335.30 329.815   1
   9  13 -15  327.00 501.431   1
   9  13 -14 115.974 344.269   1
   9  13 -13 3647.18 442.952   1
   9  13 -12 351.007 344.736   1
   9  13 -11 3725.63  456.16   1
   9  13 -10 836.133 441.182   1
   9  13  -9 663.586 361.217   1
   9  13  -8 1832.27 379.747   1
   9  13  -7 5621.94 510.836   1
   9  13  -6 601.244 293.508   1
   9  13  -5 4243.17 376.031   1
   9  13  -4 4296.98 377.259   1
   9  13  -3 80.3738 261.779   1
   9  13  -2 1887.63 403.291   1
   9  13  -1 6915.09 408.928   1
   9  13   0 1983.32 256.837   1
   9  13   1 6172.01 373.401   1
   9  13   2 2135.64 277.298   1
   9  13   3 7.06618  242.02   1
   9  13   4 3597.65 332.781   1
   9  13   5 4811.77 354.685   1
   9  13   6 101.474  376.65   1
   9  13   7 4931.90 399.507   1
   9  13   8 1416.84 270.013   1
   9  13   9 608.896 258.317   1
   9  13  10 1152.91 269.005   1
   9  13  11 4347.56 362.469   1
   9  13  12  763.60 300.214   1
   9  13  13 3372.60 374.923   1
   9  13  14 100.359 366.166   1
   9  13  15 217.086 347.115   1
   9  13  16  -83.45  763.56   1
   9  13  17 1603.83 433.304   1
   9  13  18 841.579 405.406   1
   9  14 -17 637.691 1021.59   1
   9  14 -16 1241.95 331.361   1
   9  14 -15 2346.67 342.648   1
   9  14 -14 1144.26 325.142   1
   9  14 -13 776.294 282.794   1
   9  14 -12 965.194  347.31   1
   9  14 -11 1008.92 310.353   1
   9  14 -10 2849.13 489.921   1
   9  14  -9 3045.93 366.774   1
   9  14  -8 1101.40 369.088   1
   9  14  -7 1250.62  328.03   1
   9  14  -6 1497.04 340.971   1
   9  14  -5 1534.83 369.467   1
   9  14  -4 1599.06 296.877   1
   9  14  -3 3535.81 357.888   1
   9  14  -2 1744.03 276.246   1
   9  14  -1 1365.09  265.37   1
   9  14   0 1525.33  266.74   1
   9  14   1 1188.94 339.537   1
   9  14   2 1165.58 292.145   1
   9  14   3 4054.03 362.171   1
   9  14   4 1638.47 283.017   1
   9  14   5 1819.29 316.372   1
   9  14   6 913.942 382.758   1
   9  14   7 1141.89  304.74   1
   9  14   8 978.056 317.093   1
   9  14   9 3215.88 373.369   1
   9  14  10 3007.04 318.268   1
   9  14  11 1423.45  354.22   1
   9  14  12 222.514 268.271   1
   9  14  13 264.746  248.51   1
   9  14  14 1595.68 475.718   1
   9  14  15 3036.54 423.963   1
   9  14  16 399.368 458.991   1
   9  14  17 784.542 493.814   1
   9  15 -15 152.695 328.724   1
   9  15 -14 1435.92 332.505   1
   9  15 -13 9.66431 269.307   1
   9  15 -12 870.897 292.926   1
   9  15 -11 1166.99 346.129   1
   9  15 -10 1636.03 359.707   1
   9  15  -9 489.709 273.531   1
   9  15  -8 155.723 335.217   1
   9  15  -7 160.103 293.488   1
   9  15  -6 2718.87 372.722   1
   9  15  -5-318.478 1133.26   1
   9  15  -4 1167.04 352.511   1
   9  15  -3 1081.63 310.639   1
   9  15  -2  413.53 304.118   1
   9  15  -1 475.488 249.395   1
   9  15   0 4707.68  355.93   1
   9  15   1 167.506 240.559   1
   9  15   2 903.318 396.277   1
   9  15   3 669.747 344.185   1
   9  15   4 1498.17 310.131   1
   9  15   5 199.688 238.857   1
   9  15   6 2079.05 290.228   1
   9  15   7 313.221 247.374   1
   9  15   8 907.812 266.606   1
   9  15   9-137.298 675.252   1
   9  15  10 1128.48  272.66   1
   9  15  11 1043.81  316.44   1
   9  15  12 306.017 414.382   1
   9  15  13-0.25679 1040.14   1
   9  15  14 1234.19 478.404   1
   9  15  15 952.452 521.614   1
   9  16 -12 774.935 410.871   1
   9  16 -11 91.5385 266.512   1
   9  16 -10 621.233 285.215   1
   9  16  -9 106.158 338.319   1
   9  16  -8 1024.78 295.491   1
   9  16  -7 208.577 282.454   1
   9  16  -6-36.3475 1084.57   1
   9  16  -5 116.103 370.941   1
   9  16  -4 1097.25 306.142   1
   9  16  -3-264.383 813.023   1
   9  16  -2 411.515 260.756   1
   9  16  -1 15.8965 242.788   1
   9  16   0 458.054 251.513   1
   9  16   1-39.6609 689.179   1
   9  16   2 492.966 352.116   1
   9  16   3  229.81 273.014   1
   9  16   4 1047.07 456.585   1
   9  16   5-217.638 727.862   1
   9  16   6 952.635 307.979   1
   9  16   7 279.076 272.617   1
   9  16   8 693.894 283.347   1
   9  16   9-130.986 673.873   1
   9  16  10 1486.12 378.129   1
   9  16  11 598.837  290.44   1
   9  16  12 866.643 273.158   1
   9  17  -9 843.383  337.08   1
   9  17  -8 705.707  408.83   1
   9  17  -7  884.52 276.494   1
   9  17  -6 974.562 348.273   1
   9  17  -5 300.073 261.463   1
   9  17  -4 722.856 281.751   1
   9  17  -3 566.023 278.813   1
   9  17  -2 1124.58 320.076   1
   9  17  -1 79.0664 237.469   1
   9  17   0 157.162 291.497   1
   9  17   1 644.808 385.152   1
   9  17   2 1560.78 287.887   1
   9  17   3 349.484 230.014   1
   9  17   4 909.729 238.946   1
   9  17   5 713.081 350.085   1
   9  17   6 562.773 265.375   1
   9  17   7 770.308  381.79   1
   9  17   8 312.737  278.64   1
   9  17   9 22.1369 389.973   1
   9  18  -3 1618.37 817.904   1
   9  18  -2-891.024 679.909   1
   9  18  -1 448.511 386.624   1
   9  18   0 631.007 413.075   1
   9  18   1-3.02225 647.549   1
   9  18   2 213.594 326.946   1
   9  18   3 2368.67 731.404   1
   9  18   4 398.909 569.006   1
  10   0   040402.10 1736.11   1
  10   0   1 773.406 240.262   1
  10   0   2 5702.86 406.098   1
  10   0   3 60.0888  192.60   1
  10   0   412184.40 501.056   1
  10   0   5  600.12  190.82   1
  10   0   616333.20 622.285   1
  10   0   7 173.682  234.12   1
  10   0   8 3804.06 272.458   1
  10   0   9 269.867 207.382   1
  10   0  10 1620.00 279.075   1
  10   0  11 573.616  283.37   1
  10   0  1213749.10 580.437   1
  10   0  13  47.123 237.079   1
  10   0  14 1144.64 258.091   1
  10   0  15 144.062 273.755   1
  10   0  16 262.028 354.119   1
  10   0  17  373.64 399.137   1
  10   0  18 4551.50 381.946   1
  10   0  19 301.222 300.621   1
  10   0  20 3208.53  416.62   1
  10   0  21-128.978 728.823   1
  10   0  22 150.765 323.095   1
  10   0  23 88.9587 268.633   1
  10   0  24 3980.00 379.497   1
  10   0  25 70.8879 476.667   1
  10   1 -25 1355.17 590.379   1
  10   1 -24 388.166 307.554   1
  10   1 -23 894.808  345.26   1
  10   1 -22 697.434 282.108   1
  10   1 -21 455.255 331.785   1
  10   1 -20 1267.86 368.505   1
  10   1 -19 4085.45 403.701   1
  10   1 -18 636.842 327.797   1
  10   1 -17 1595.08 257.653   1
  10   1 -16 4937.03 348.567   1
  10   1 -15 1258.65 275.095   1
  10   1 -14 1192.47 332.275   1
  10   1 -13 8383.45 457.318   1
  10   1 -12 5178.94  353.19   1
  10   1 -11 5435.66 356.093   1
  10   1 -10 5752.19 366.162   1
  10   1  -9 2548.04 260.474   1
  10   1  -8 2696.64 247.721   1
  10   1  -712255.00 454.594   1
  10   1  -6 4574.17 401.276   1
  10   1  -5 5960.67 336.058   1
  10   1  -4 4469.88 318.118   1
  10   1  -3 1839.59 228.001   1
  10   1  -2 1172.74 247.758   1
  10   1  -110183.60 524.211   1
  10   1   0 5605.17 357.398   1
  10   1   1 9871.66 467.778   1
  10   1   2 398.158 179.412   1
  10   1   3 2013.28 217.637   1
  10   1   4 4208.91 265.635   1
  10   1   5 6531.83 361.637   1
  10   1   6 3509.87 265.923   1
  10   1   7 9816.47  475.70   1
  10   1   8 3041.50 256.484   1
  10   1   9 3016.30 293.902   1
  10   1  10 5251.02 318.263   1
  10   1  11 4854.52 443.357   1
  10   1  12 5646.24 361.582   1
  10   1  13 8935.96 448.212   1
  10   1  14 953.075 301.688   1
  10   1  15 2165.63 287.139   1
  10   1  16 4760.10 371.444   1
  10   1  17 1501.70 287.067   1
  10   1  18 1549.85  379.24   1
  10   1  19 4215.49 417.213   1
  10   1  20 1240.57  331.81   1
  10   1  21 845.774  400.46   1
  10   1  22 931.298 337.601   1
  10   1  23 649.698 316.744   1
  10   1  24 636.197 304.771   1
  10   1  25 2914.15 612.451   1
  10   2 -24 -412.81  750.00   1
  10   2 -23 933.118  256.24   1
  10   2 -22 1426.57 318.969   1
  10   2 -21 1662.01 378.911   1
  10   2 -20 800.397 330.607   1
  10   2 -19 3634.03 385.284   1
  10   2 -18 847.978 393.348   1
  10   2 -17 1312.49 341.481   1
  10   2 -16 1828.60 422.451   1
  10   2 -15 1505.83  280.20   1
  10   2 -14 536.884 251.445   1
  10   2 -13 5466.07 361.509   1
  10   2 -12 73.8401 230.936   1
  10   2 -11 3909.08 324.885   1
  10   2 -10 620.768 343.941   1
  10   2  -9 1442.26 285.151   1
  10   2  -8 600.008 237.312   1
  10   2  -710807.70 501.682   1
  10   2  -6 75.9938 189.808   1
  10   2  -5 7034.68 343.274   1
  10   2  -4 430.973 176.521   1
  10   2  -3 4091.35 296.248   1
  10   2  -2 136.236 227.409   1
  10   2  -111631.20 442.245   1
  10   2   0 1803.26 199.661   1
  10   2   110943.60 415.675   1
  10   2   2 105.689 181.475   1
  10   2   3 5664.16 328.771   1
  10   2   4 804.594 197.731   1
  10   2   5 6048.83 310.356   1
  10   2   6 88.6263 188.271   1
  10   2   710753.30 443.964   1
  10   2   8 233.035  175.07   1
  10   2   9 2898.20 245.357   1
  10   2  10 254.822 248.813   1
  10   2  11 3560.31 268.639   1
  10   2  12 348.343 290.928   1
  10   2  13 4297.61 328.054   1
  10   2  14 1097.11  246.53   1
  10   2  15 3020.03  316.37   1
  10   2  16 1668.26  277.45   1
  10   2  17 1151.91 270.925   1
  10   2  18 746.123 310.477   1
  10   2  19 3260.14  429.29   1
  10   2  20 509.389 361.047   1
  10   2  21 1353.81 331.496   1
  10   2  22 662.177 329.928   1
  10   2  23 1886.75 479.491   1
  10   2  24 105.246 464.831   1
  10   2  25 1530.63 688.134   1
  10   3 -24 771.448 557.273   1
  10   3 -23 238.153 265.708   1
  10   3 -22 313.874 266.544   1
  10   3 -21 617.223  315.24   1
  10   3 -20 1211.09 295.888   1
  10   3 -19 1382.09 316.671   1
  10   3 -18 3076.65 480.927   1
  10   3 -17 1187.06 318.169   1
  10   3 -16 30.5306 338.609   1
  10   3 -15 2433.86  300.71   1
  10   3 -14 3296.62 317.883   1
  10   3 -13-365.599 758.316   1
  10   3 -12 5379.95 358.967   1
  10   3 -11 2605.73 402.572   1
  10   3 -10 3493.12 307.598   1
  10   3  -9 3306.63 299.773   1
  10   3  -8 1016.12 263.709   1
  10   3  -7 405.528 202.759   1
  10   3  -6 8241.88 354.175   1
  10   3  -5 2024.12 208.082   1
  10   3  -4 414.961 226.382   1
  10   3  -3 3907.15 244.514   1
  10   3  -2 2216.53 203.898   1
  10   3  -1 79.1759 147.545   1
  10   3   0 6238.81 294.671   1
  10   3   1 468.196 160.577   1
  10   3   2 2032.81 227.923   1
  10   3   3 3152.35 330.113   1
  10   3   4-65.7779 649.019   1
  10   3   5 2849.58 234.577   1
  10   3   6 9529.41 392.884   1
  10   3   7 81.0153 170.469   1
  10   3   8 1735.70 228.561   1
  10   3   9 3831.31  245.23   1
  10   3  10 4886.00 397.407   1
  10   3  11 2678.89 241.876   1
  10   3  12 6518.23 364.901   1
  10   3  13  210.60 289.913   1
  10   3  14 2664.86 331.082   1
  10   3  15 2554.95 305.389   1
  10   3  16 384.537 245.278   1
  10   3  17 2460.40 343.548   1
  10   3  18 3404.84 359.353   1
  10   3  19 461.773 277.899   1
  10   3  20 1191.78 385.035   1
  10   3  21 53.9267 514.114   1
  10   3  22-231.098 715.928   1
  10   3  23 267.574 294.067   1
  10   3  24  608.73 345.869   1
  10   4 -24 2607.64 371.736   1
  10   4 -23 332.655 277.762   1
  10   4 -22 1693.91 368.012   1
  10   4 -21-554.919 755.942   1
  10   4 -20 1974.30 325.266   1
  10   4 -19 167.789 360.685   1
  10   4 -18 4589.83  452.78   1
  10   4 -17  442.61 343.269   1
  10   4 -16 3234.58  375.15   1
  10   4 -15-125.786 759.938   1
  10   4 -14 5722.98 444.467   1
  10   4 -13 1928.86 330.281   1
  10   4 -12 3737.74 310.498   1
  10   4 -11 375.962 232.813   1
  10   4 -10 1706.17 241.796   1
  10   4  -9 538.334 246.174   1
  10   4  -8 7511.39 405.023   1
  10   4  -7 347.677 229.782   1
  10   4  -614444.90 532.565   1
  10   4  -5 129.543 224.659   1
  10   4  -4 9892.37  385.15   1
  10   4  -3 822.136  165.37   1
  10   4  -2 9577.36 376.793   1
  10   4  -1 1220.65 177.715   1
  10   4   014619.40 530.294   1
  10   4   1 1592.63 222.748   1
  10   4   2 9567.07 432.399   1
  10   4   3 1052.86 238.798   1
  10   4   410753.10 532.139   1
  10   4   5 250.943 194.165   1
  10   4   615096.10 570.679   1
  10   4   7 727.785 192.096   1
  10   4   8 4917.02 330.654   1
  10   4   9 785.003  198.71   1
  10   4  10 2059.82 241.015   1
  10   4  11 313.303  291.43   1
  10   4  12 4657.75 326.281   1
  10   4  13 2196.18 286.194   1
  10   4  14 4947.34  398.58   1
  10   4  15  314.61 261.162   1
  10   4  16 4732.35 459.661   1
  10   4  17  244.47 312.114   1
  10   4  18 4649.32 532.494   1
  10   4  19 302.451 336.257   1
  10   4  20 3465.24 510.198   1
  10   4  21-70.9684 1069.85   1
  10   4  22 1706.57 426.497   1
  10   4  23  54.651 334.464   1
  10   4  24 1631.23 465.999   1
  10   5 -24-181.427 631.913   1
  10   5 -23 2.56717 261.222   1
  10   5 -22 1469.43 288.512   1
  10   5 -21-835.413  780.07   1
  10   5 -20 351.392 281.394   1
  10   5 -19 4521.78 467.855   1
  10   5 -18 390.007 317.605   1
  10   5 -17 1171.89 316.361   1
  10   5 -16 4094.65 401.073   1
  10   5 -15 493.923 311.707   1
  10   5 -14 5328.49 381.249   1
  10   5 -13 6509.16 607.463   1
  10   5 -12 779.806 255.582   1
  10   5 -11 1911.78 291.275   1
  10   5 -1010077.30 584.792   1
  10   5  -9 32.2174 244.065   1
  10   5  -8 3396.07 330.825   1
  10   5  -712477.80 570.235   1
  10   5  -6 2154.31 307.814   1
  10   5  -5 7818.87 368.686   1
  10   5  -4 4736.19 293.563   1
  10   5  -3 1141.84 209.236   1
  10   5  -2 4641.25 308.997   1
  10   5  -1 7843.97  382.66   1
  10   5   0 14.4201 175.706   1
  10   5   1 6990.62 382.983   1
  10   5   2 5077.39 312.073   1
  10   5   3 1130.92 242.557   1
  10   5   4 5184.06 356.847   1
  10   5   5 5869.84 345.328   1
  10   5   6 1798.47 266.374   1
  10   5   711198.90 502.568   1
  10   5   8 3716.69  290.04   1
  10   5   9 364.183 251.245   1
  10   5  10 9822.69 608.103   1
  10   5  11 1834.17 346.385   1
  10   5  12 982.667 234.754   1
  10   5  13 6669.79 384.129   1
  10   5  14 5410.55 380.953   1
  10   5  15 484.035 266.918   1
  10   5  16 3798.61 408.498   1
  10   5  17 1935.95 425.212   1
  10   5  18-154.585 1040.63   1
  10   5  19 3911.56 557.121   1
  10   5  20 281.879  340.33   1
  10   5  21 198.738  340.03   1
  10   5  22 1336.81 525.596   1
  10   5  23 455.542 358.052   1
  10   5  24 402.155  676.80   1
  10   6 -23 846.808 295.484   1
  10   6 -22 486.811 313.048   1
  10   6 -21 2614.28 376.528   1
  10   6 -20 384.862 393.795   1
  10   6 -19 1172.67 293.368   1
  10   6 -18 681.504  275.29   1
  10   6 -17 3789.78  371.30   1
  10   6 -16 1502.57 298.669   1
  10   6 -15 4365.51 357.858   1
  10   6 -14-129.171 795.179   1
  10   6 -13 2297.63 310.766   1
  10   6 -12 3542.60 371.685   1
  10   6 -11 3188.41 340.526   1
  10   6 -10 633.272 302.422   1
  10   6  -9 7904.69  511.72   1
  10   6  -8 917.092 296.276   1
  10   6  -7 3720.17 351.818   1
  10   6  -6 620.503 246.237   1
  10   6  -5 6677.08 368.594   1
  10   6  -4 393.874 213.395   1
  10   6  -311432.00  482.22   1
  10   6  -2 120.785 199.916   1
  10   6  -1 6585.47 340.969   1
  10   6   0 1017.36 199.704   1
  10   6   1 4983.84 314.642   1
  10   6   2 550.041 305.172   1
  10   6   312615.30 769.778   1
  10   6   4 382.662 215.993   1
  10   6   5 7497.86 396.947   1
  10   6   6 1118.89 246.468   1
  10   6   7 4740.18  335.31   1
  10   6   8 1119.76 241.179   1
  10   6   910173.70 658.645   1
  10   6  10 572.903 252.297   1
  10   6  11 3261.31 311.026   1
  10   6  12 3841.16 365.532   1
  10   6  13 2073.12 336.432   1
  10   6  14-1.73146 732.698   1
  10   6  15 4348.95 380.087   1
  10   6  16 1185.14 325.911   1
  10   6  17 3147.18 389.068   1
  10   6  18 458.465 367.474   1
  10   6  19 978.992 307.972   1
  10   6  20-283.557 708.737   1
  10   6  21 2533.89 434.657   1
  10   6  22 439.038 382.419   1
  10   6  23 1085.11 424.685   1
  10   7 -22 2200.17 360.973   1
  10   7 -21 814.483 343.228   1
  10   7 -20 326.578 364.957   1
  10   7 -19 504.686  282.19   1
  10   7 -18 1302.60  314.57   1
  10   7 -17 1639.11 369.919   1
  10   7 -16 555.502 290.946   1
  10   7 -15 2205.68 326.411   1
  10   7 -14 1961.38 401.936   1
  10   7 -13 839.836 307.315   1
  10   7 -12 1884.59 244.429   1
  10   7 -11 5066.65 347.292   1
  10   7 -10 2243.97 298.575   1
  10   7  -9 1976.15 293.129   1
  10   7  -8 1188.54 270.555   1
  10   7  -7 401.824 308.638   1
  10   7  -6 4176.36  345.84   1
  10   7  -5 1890.55 270.045   1
  10   7  -4 1942.27 287.783   1
  10   7  -3 2492.47 278.959   1
  10   7  -2 8256.12 477.365   1
  10   7  -1 565.649  203.63   1
  10   7   0 1690.86 349.665   1
  10   7   1 303.528 219.357   1
  10   7   2 9832.98 477.101   1
  10   7   3 3301.40  308.72   1
  10   7   4 1517.29  237.07   1
  10   7   5 1460.43 266.521   1
  10   7   6 5729.82 440.039   1
  10   7   7 1006.70 270.645   1
  10   7   8 1024.69 266.353   1
  10   7   9 2250.52 298.947   1
  10   7  10 2165.47 268.222   1
  10   7  11 4312.81 318.853   1
  10   7  12 2330.90 281.617   1
  10   7  13 656.046 244.112   1
  10   7  14 1858.63 302.304   1
  10   7  15 2354.34 387.835   1
  10   7  16 388.895 368.574   1
  10   7  17 877.652 312.183   1
  10   7  18 1759.13 431.982   1
  10   7  19 669.086 305.643   1
  10   7  20 220.076 297.968   1
  10   7  21 604.117  386.69   1
  10   7  22 1992.93  391.82   1
  10   8 -22 1427.71 665.643   1
  10   8 -21 -63.771 869.535   1
  10   8 -20  753.30 401.757   1
  10   8 -19  281.69 441.693   1
  10   8 -18 41.9062 279.861   1
  10   8 -17  649.50 296.901   1
  10   8 -16 2308.77 413.483   1
  10   8 -15 65.8174 373.406   1
  10   8 -14 1246.69  299.87   1
  10   8 -13  913.83 248.475   1
  10   8 -12 858.639 312.229   1
  10   8 -11 382.001  239.02   1
  10   8 -10 1066.13  318.47   1
  10   8  -9 396.284  225.49   1
  10   8  -8 5574.89 408.376   1
  10   8  -7 973.646 256.173   1
  10   8  -6 304.393  263.26   1
  10   8  -5 612.446 258.067   1
  10   8  -4 5605.03 442.915   1
  10   8  -3 1062.59 385.525   1
  10   8  -2 4071.18 402.714   1
  10   8  -1 96.8299 213.433   1
  10   8   0 1433.70 244.232   1
  10   8   1-81.7028  675.17   1
  10   8   2 3654.63 325.725   1
  10   8   3 689.471 223.875   1
  10   8   4 4162.58 347.012   1
  10   8   5 588.344 225.325   1
  10   8   6 448.331 233.713   1
  10   8   7 545.237 353.899   1
  10   8   8 4502.74  339.77   1
  10   8   9-194.553 729.261   1
  10   8  10 1084.76 254.307   1
  10   8  11 3.83031 231.333   1
  10   8  12 1250.44 264.674   1
  10   8  13 422.495 404.605   1
  10   8  14 1219.59 468.625   1
  10   8  15 31.9253 296.534   1
  10   8  16 2374.51 376.717   1
  10   8  17 429.063 462.119   1
  10   8  18 1377.77 375.685   1
  10   8  19 133.426 307.985   1
  10   8  20 546.382 421.983   1
  10   8  21 409.372 297.471   1
  10   8  22 2027.78 558.699   1
  10   9 -21 924.856 256.029   1
  10   9 -20 1196.30 274.435   1
  10   9 -19 1112.65 288.689   1
  10   9 -18 1082.04 294.549   1
  10   9 -17 650.364 280.828   1
  10   9 -16 1481.73 356.982   1
  10   9 -15 1289.21 327.772   1
  10   9 -14 786.937 344.829   1
  10   9 -13 2072.73 315.587   1
  10   9 -12 1686.82  295.26   1
  10   9 -11 1117.16 256.736   1
  10   9 -10 724.586 252.989   1
  10   9  -9 2429.25 285.236   1
  10   9  -8 1285.69 275.347   1
  10   9  -7 3870.05  364.37   1
  10   9  -6 568.854 291.462   1
  10   9  -5 1220.49 295.287   1
  10   9  -4 1031.09 285.524   1
  10   9  -3 4508.70  480.22   1
  10   9  -2  430.28 319.828   1
  10   9  -1 4416.51 352.986   1
  10   9   0 529.191 251.745   1
  10   9   1 3418.22 353.993   1
  10   9   2 976.682 258.002   1
  10   9   3 3735.88 318.757   1
  10   9   4 1007.84 270.651   1
  10   9   5 1850.78 251.908   1
  10   9   6 1343.62  268.82   1
  10   9   7 2787.60 281.233   1
  10   9   8 1480.57 282.597   1
  10   9   9 2926.27 296.901   1
  10   9  10 614.657 257.424   1
  10   9  11 1859.95  289.44   1
  10   9  12 2026.46 365.877   1
  10   9  13 2529.47 375.733   1
  10   9  14 799.841 325.151   1
  10   9  15 2071.50 487.113   1
  10   9  16 1498.34 496.341   1
  10   9  17 1294.20 346.374   1
  10   9  18 62.8019 713.263   1
  10   9  19 642.916 593.602   1
  10   9  20 478.682 314.582   1
  10   9  21 2184.86 570.141   1
  10  10 -20 91.6909 264.334   1
  10  10 -19 337.311 220.227   1
  10  10 -18 518.406 265.139   1
  10  10 -17 2903.88 529.707   1
  10  10 -16-196.307 742.772   1
  10  10 -15 3058.95  500.72   1
  10  10 -14 1004.85 332.922   1
  10  10 -13 1327.24 436.385   1
  10  10 -12 1637.90 300.887   1
  10  10 -11 5800.22 418.308   1
  10  10 -10-74.1886 866.363   1
  10  10  -9 5850.73 418.269   1
  10  10  -8 465.142 311.543   1
  10  10  -7 1888.57 286.281   1
  10  10  -6 1800.11 346.076   1
  10  10  -5 2717.61 354.391   1
  10  10  -4 1055.39 319.297   1
  10  10  -3 9888.75 703.753   1
  10  10  -2 456.042 342.543   1
  10  10  -1 2953.16 339.763   1
  10  10   0 66.5213 223.141   1
  10  10   1 3259.85 313.391   1
  10  10   2 106.686 237.604   1
  10  10   3 8205.93  453.41   1
  10  10   4 1550.45 264.273   1
  10  10   5 2640.58 337.898   1
  10  10   6 2119.00 266.893   1
  10  10   7 1943.40 280.147   1
  10  10   8 200.008  277.84   1
  10  10   9 6770.63  413.52   1
  10  10  10 358.417 278.302   1
  10  10  11 5672.96 430.924   1
  10  10  12 1093.95 289.171   1
  10  10  13 1771.62 358.889   1
  10  10  14 872.559 323.773   1
  10  10  15 3221.31 430.606   1
  10  10  16 276.226 313.777   1
  10  10  17 1951.25 347.319   1
  10  10  18  909.74 370.265   1
  10  10  19 391.087 326.751   1
  10  10  20-302.262 596.777   1
  10  11 -19 721.989 685.317   1
  10  11 -18 378.068 218.865   1
  10  11 -17 294.341 237.787   1
  10  11 -16 1900.30 296.502   1
  10  11 -15-142.161 716.749   1
  10  11 -14 1727.89 483.814   1
  10  11 -13 1427.22 333.055   1
  10  11 -12-193.367 691.177   1
  10  11 -11 418.666  268.68   1
  10  11 -10 2354.11  517.76   1
  10  11  -9-93.5921 769.761   1
  10  11  -8 6502.00 436.435   1
  10  11  -7 1702.19 332.244   1
  10  11  -6 229.936 282.183   1
  10  11  -5 1222.91 329.619   1
  10  11  -4 6204.99 483.856   1
  10  11  -3 358.444 294.979   1
  10  11  -2 7287.13 552.774   1
  10  11  -1 1737.69 376.584   1
  10  11   0 171.521  267.53   1
  10  11   1 2040.18 284.103   1
  10  11   2 6833.51 460.927   1
  10  11   3 163.277 256.059   1
  10  11   4 7208.01 463.495   1
  10  11   5 1073.69  261.32   1
  10  11   6 513.911 272.209   1
  10  11   7 1599.93 329.083   1
  10  11   8 5908.85 413.825   1
  10  11   9 -89.118 765.923   1
  10  11  10 2212.82 299.095   1
  10  11  11 536.649 267.387   1
  10  11  12 491.734 286.186   1
  10  11  13 1015.93 381.638   1
  10  11  14 986.018 315.533   1
  10  11  15 1151.53 601.276   1
  10  11  16 2729.36 385.146   1
  10  11  17-146.252 642.787   1
  10  11  18 221.635  311.31   1
  10  11  19-238.861 583.968   1
  10  12 -17-54.9391 631.969   1
  10  12 -16  474.60 303.591   1
  10  12 -15 764.561 404.036   1
  10  12 -14 1723.53  333.13   1
  10  12 -13-346.261  895.59   1
  10  12 -12 3083.49 386.686   1
  10  12 -11-386.536 827.451   1
  10  12 -10 3189.93 340.254   1
  10  12  -9 805.482 264.653   1
  10  12  -8 3902.29 617.281   1
  10  12  -7-371.597 707.297   1
  10  12  -6 131.356 357.377   1
  10  12  -5 516.618 401.014   1
  10  12  -4 1339.18 353.339   1
  10  12  -3 710.875 269.363   1
  10  12  -2 5013.44 535.722   1
  10  12  -1  670.07  366.36   1
  10  12   0 526.245 273.181   1
  10  12   1 576.459 285.853   1
  10  12   2 5753.06 518.044   1
  10  12   3 465.886  301.66   1
  10  12   4 1314.37  331.91   1
  10  12   5  413.76 229.267   1
  10  12   6  430.12 322.807   1
  10  12   7 248.068 254.509   1
  10  12   8 3340.86 463.177   1
  10  12   9 517.077 279.004   1
  10  12  10 2000.58 320.767   1
  10  12  11-37.2506 717.182   1
  10  12  12 3065.15  414.09   1
  10  12  13 347.066 493.351   1
  10  12  14 1784.83 367.428   1
  10  12  15  902.45 420.626   1
  10  12  16 566.091 414.441   1
  10  12  17-800.181 1120.72   1
  10  13 -16-33.5237 639.726   1
  10  13 -15 -91.897 653.255   1
  10  13 -14 1508.00 347.207   1
  10  13 -13-431.544 929.721   1
  10  13 -12 1292.92 517.756   1
  10  13 -11 272.392 385.246   1
  10  13 -10 22.7192 279.332   1
  10  13  -9 426.884 434.572   1
  10  13  -8 733.602 420.335   1
  10  13  -7 268.321 326.644   1
  10  13  -6 434.763 283.875   1
  10  13  -5 435.237 259.173   1
  10  13  -4  673.67 436.085   1
  10  13  -3 2073.59 384.809   1
  10  13  -2 610.702 316.965   1
  10  13  -1 1329.35 364.118   1
  10  13   0 732.872 407.984   1
  10  13   1 1385.22 317.133   1
  10  13   2  613.30 272.023   1
  10  13   3 1534.68  297.34   1
  10  13   4 409.933 275.113   1
  10  13   5 625.279  277.36   1
  10  13   6 897.326 321.905   1
  10  13   7 459.746 357.165   1
  10  13   8 1235.10 278.853   1
  10  13   9 1225.29 277.495   1
  10  13  10 135.351 267.716   1
  10  13  11 176.981 325.746   1
  10  13  12 1361.07 283.233   1
  10  13  13  467.84 403.802   1
  10  13  14  760.36  357.97   1
  10  13  15 1127.59 371.352   1
  10  13  16-12.8704 797.912   1
  10  14 -14 203.994 393.538   1
  10  14 -13 1447.53 323.156   1
  10  14 -12-56.9421 680.011   1
  10  14 -11 735.797 423.778   1
  10  14 -10 1001.79 596.395   1
  10  14  -9 1125.32 350.216   1
  10  14  -8-184.217 892.452   1
  10  14  -7 1287.67  319.47   1
  10  14  -6-251.517 689.847   1
  10  14  -5 518.138 286.201   1
  10  14  -4 678.356 302.237   1
  10  14  -3-14.2791 763.983   1
  10  14  -2 140.053  328.66   1
  10  14  -1 1408.22 496.987   1
  10  14   0 522.379 601.749   1
  10  14   1 307.336 377.374   1
  10  14   2 647.273 460.181   1
  10  14   3 875.084 478.921   1
  10  14   4  259.80 296.704   1
  10  14   5 1254.41 613.584   1
  10  14   6  296.46 264.486   1
  10  14   7 921.766 295.303   1
  10  14   8 349.593 425.948   1
  10  14   9 786.995 251.387   1
  10  14  10  724.50 280.005   1
  10  14  11 997.076 256.488   1
  10  14  12 103.589  228.46   1
  10  14  13 805.271 269.623   1
  10  14  14-69.1932 840.899   1
  10  15 -11-266.886 636.129   1
  10  15 -10 517.869  280.26   1
  10  15  -9-24.0181  645.50   1
  10  15  -8 1335.02 390.517   1
  10  15  -7  773.17 368.616   1
  10  15  -6 255.358 356.355   1
  10  15  -5 290.998 313.953   1
  10  15  -4 1427.02 331.704   1
  10  15  -3 347.332 265.589   1
  10  15  -2 2276.88 481.956   1
  10  15  -1 446.345 304.292   1
  10  15   0 526.925 564.871   1
  10  15   1 498.261 413.626   1
  10  15   2 2720.33 423.841   1
  10  15   3 3.63335  316.56   1
  10  15   4 1793.59 572.421   1
  10  15   5 286.368 263.188   1
  10  15   6 973.309 420.981   1
  10  15   7 617.508 291.449   1
  10  15   8 908.497 245.305   1
  10  15   9-316.703  768.64   1
  10  15  10 562.772 227.867   1
  10  15  11-407.829 794.828   1
  10  16  -8 1924.00 830.137   1
  10  16  -7 592.547  494.56   1
  10  16  -6 2655.65 489.284   1
  10  16  -5-111.208  587.55   1
  10  16  -4 343.017 327.438   1
  10  16  -3 1004.50 317.906   1
  10  16  -2 1394.19 339.579   1
  10  16  -1 882.808 477.231   1
  10  16   0 625.835 422.874   1
  10  16   1-132.298 681.147   1
  10  16   2 1831.27 389.333   1
  10  16   3 1049.83 322.766   1
  10  16   4 272.232 311.973   1
  10  16   5 594.578 391.178   1
  10  16   6 3855.45 431.633   1
  10  16   7-24.9567 602.406   1
  11   0   1 7017.99  466.03   1
  11   0   2 7327.44 500.843   1
  11   0   3 4921.50 311.201   1
  11   0   4 2375.98 256.305   1
  11   0   5-39.1061 859.587   1
  11   0   6 1493.36 251.274   1
  11   0   7 178.562 223.131   1
  11   0   8 4918.41  333.46   1
  11   0   9 631.642 282.314   1
  11   0  10 6235.05 396.327   1
  11   0  11 817.487 259.454   1
  11   0  12 761.083 257.705   1
  11   0  13 466.742 348.642   1
  11   0  14 4685.81 388.927   1
  11   0  15-57.0512 763.667   1
  11   0  16 1736.41 326.535   1
  11   0  17 1012.54 257.774   1
  11   0  18 645.467 246.644   1
  11   0  19 1868.14 337.164   1
  11   0  20 1143.37 381.868   1
  11   0  21 270.332 462.683   1
  11   0  22 3136.80 402.131   1
  11   1 -22-100.735 636.381   1
  11   1 -21 1761.83 532.059   1
  11   1 -20 22.5319 507.387   1
  11   1 -19 1655.25 355.507   1
  11   1 -18 754.177 402.325   1
  11   1 -17 3681.68 376.385   1
  11   1 -16 743.196 273.112   1
  11   1 -15 3297.59 396.251   1
  11   1 -14 1546.30 323.958   1
  11   1 -13 6977.08 408.539   1
  11   1 -12 52.7265 310.933   1
  11   1 -11 2821.17 352.605   1
  11   1 -10 558.242 245.039   1
  11   1  -9 8100.42 470.547   1
  11   1  -8 2252.94 307.062   1
  11   1  -7 4467.03 322.875   1
  11   1  -6 746.318 201.495   1
  11   1  -5 891.807 211.344   1
  11   1  -4 2150.24 251.876   1
  11   1  -3 7401.45 392.147   1
  11   1  -2 2213.03 246.179   1
  11   1  -1 2099.53 293.866   1
  11   1   0 585.226 234.304   1
  11   1   1 2953.36 340.477   1
  11   1   2 2419.49 287.187   1
  11   1   3 8666.42 555.573   1
  11   1   4 1944.51 266.058   1
  11   1   5 1907.23 297.238   1
  11   1   6 1227.61 296.342   1
  11   1   7 4585.17 444.196   1
  11   1   8 1676.13 254.706   1
  11   1   9 9812.79 484.387   1
  11   1  10 325.672 255.737   1
  11   1  11 2919.31 361.259   1
  11   1  12 603.761 266.147   1
  11   1  13 7157.07 431.694   1
  11   1  14 1878.61 306.814   1
  11   1  15 2995.91 327.601   1
  11   1  16 643.672 270.201   1
  11   1  17 3017.55  349.19   1
  11   1  18 675.986 288.353   1
  11   1  19 1520.67  296.35   1
  11   1  20 475.279 299.232   1
  11   1  21 1856.05  364.36   1
  11   1  22 292.096 384.303   1
  11   2 -22 516.967 257.311   1
  11   2 -21 1395.06 462.423   1
  11   2 -20  425.30 308.246   1
  11   2 -19 333.811 386.442   1
  11   2 -18 105.457 559.511   1
  11   2 -17 4273.25 408.359   1
  11   2 -16  152.84 316.945   1
  11   2 -15 1528.59 326.513   1
  11   2 -14  548.26 274.926   1
  11   2 -13 1224.83 333.235   1
  11   2 -12 1656.42 296.827   1
  11   2 -11 2893.79 342.863   1
  11   2 -10 1358.94 315.603   1
  11   2  -9 6350.10 445.503   1
  11   2  -8 735.254 240.192   1
  11   2  -7 6010.24 325.807   1
  11   2  -6 515.227 196.159   1
  11   2  -5 3314.05 360.788   1
  11   2  -4 693.504 205.558   1
  11   2  -315972.60  626.43   1
  11   2  -2 1974.91 248.335   1
  11   2  -1 5516.36 330.807   1
  11   2   0 2792.36  283.63   1
  11   2   1 5472.31 506.038   1
  11   2   2 2301.09 397.624   1
  11   2   316373.10 687.866   1
  11   2   4  441.92 245.906   1
  11   2   5 2259.69 295.329   1
  11   2   6 63.4646 251.132   1
  11   2   7 4681.97 291.672   1
  11   2   8 230.415 193.092   1
  11   2   9 5488.50 342.665   1
  11   2  10 902.629 266.928   1
  11   2  11 2992.73 280.122   1
  11   2  12 2005.56 276.219   1
  11   2  13 1093.51  282.06   1
  11   2  14 840.952 271.182   1
  11   2  15 1502.58 303.727   1
  11   2  16  656.77 289.464   1
  11   2  17 3369.21 357.839   1
  11   2  18 76.7312 262.033   1
  11   2  19 186.393 267.065   1
  11   2  20 20.3368 283.309   1
  11   2  21 1824.60 325.938   1
  11   2  22 715.217 292.738   1
  11   3 -22 618.637 292.506   1
  11   3 -21 233.963 321.446   1
  11   3 -20 1432.04 513.188   1
  11   3 -19 1813.50  363.15   1
  11   3 -18-351.244 796.348   1
  11   3 -17 1517.86 403.937   1
  11   3 -16 1650.53 480.452   1
  11   3 -15 788.089 335.041   1
  11   3 -14 3324.31 425.007   1
  11   3 -13 4108.96 377.185   1
  11   3 -12 553.929 284.586   1
  11   3 -11 1986.22 295.471   1
  11   3 -10 203.883 287.112   1
  11   3  -9 3061.00 292.707   1
  11   3  -8 5752.52 357.794   1
  11   3  -7 5849.99 373.231   1
  11   3  -6 540.524  226.43   1
  11   3  -5 956.093 213.507   1
  11   3  -4 3063.28 386.117   1
  11   3  -3 2932.68 260.735   1
  11   3  -2 4211.72 283.809   1
  11   3  -1 1538.24  324.32   1
  11   3   0 230.499 205.553   1
  11   3   1 740.304 259.805   1
  11   3   2 3401.30 337.904   1
  11   3   3 2163.36 273.747   1
  11   3   4 4799.97 425.982   1
  11   3   5 823.141 225.508   1
  11   3   6 517.154 250.694   1
  11   3   7 5595.90 316.024   1
  11   3   8 4983.21 298.036   1
  11   3   9 2696.85 270.609   1
  11   3  10 1560.86 243.191   1
  11   3  11 2193.57 255.436   1
  11   3  12 310.117 225.062   1
  11   3  13 2688.57 309.823   1
  11   3  14 3195.31 385.182   1
  11   3  15 1188.56 295.547   1
  11   3  16 1008.91  304.36   1
  11   3  17 2030.79 330.423   1
  11   3  18 36.4605 260.602   1
  11   3  19 1270.65 316.926   1
  11   3  20 663.512 373.367   1
  11   3  21 349.224 422.484   1
  11   3  22 306.086  323.76   1
  11   4 -22 831.922 443.404   1
  11   4 -21 633.544 292.111   1
  11   4 -20 2044.95 395.749   1
  11   4 -19 1400.11 368.336   1
  11   4 -18 2291.53  503.02   1
  11   4 -17 553.405 379.202   1
  11   4 -16 3208.66 471.939   1
  11   4 -15 198.109 344.271   1
  11   4 -14 3029.22 357.999   1
  11   4 -13 1773.27 318.289   1
  11   4 -12 3808.17 447.323   1
  11   4 -11 650.988 366.364   1
  11   4 -10 2923.83 375.417   1
  11   4  -9  231.01 285.162   1
  11   4  -8 5562.82 418.778   1
  11   4  -7 478.371 424.345   1
  11   4  -6 4757.62 471.282   1
  11   4  -5 678.892 321.611   1
  11   4  -4 5690.96 364.265   1
  11   4  -3 492.721 343.979   1
  11   4  -2 3851.99 298.316   1
  11   4  -1 580.002 207.989   1
  11   4   0 4888.79 312.408   1
  11   4   1 420.319 243.268   1
  11   4   2 3105.39 293.883   1
  11   4   3 113.562 236.661   1
  11   4   4 4682.64 333.275   1
  11   4   5 188.061  289.71   1
  11   4   6 4041.79 344.106   1
  11   4   7 1066.73 328.148   1
  11   4   8 6912.63 388.093   1
  11   4   9 355.178 350.957   1
  11   4  10 3226.01 323.754   1
  11   4  11 446.129 254.646   1
  11   4  12 3505.00 317.909   1
  11   4  13 1419.11 391.911   1
  11   4  14 2209.75 445.097   1
  11   4  15 1167.39 332.371   1
  11   4  16 2898.14 374.242   1
  11   4  17 738.448 358.809   1
  11   4  18 2015.14 552.162   1
  11   4  19 613.193 272.314   1
  11   4  20 1477.38 459.884   1
  11   4  21-476.383 689.367   1
  11   4  22 978.394 811.072   1
  11   5 -21 719.751 368.524   1
  11   5 -20  74.084 452.044   1
  11   5 -19 97.4918 346.396   1
  11   5 -18 1395.58 326.795   1
  11   5 -17 1104.63 336.164   1
  11   5 -16 1890.90 381.069   1
  11   5 -15 1917.10 402.208   1
  11   5 -14-255.357 832.679   1
  11   5 -13 582.393 335.336   1
  11   5 -12 2997.01 380.345   1
  11   5 -11 1133.99 372.038   1
  11   5 -10 964.613  310.69   1
  11   5  -9 2492.14 336.302   1
  11   5  -8 1371.83 325.947   1
  11   5  -7 11.7698 333.497   1
  11   5  -6 2650.17 360.316   1
  11   5  -5 625.131 304.157   1
  11   5  -4 4270.28  331.64   1
  11   5  -3 4029.00 323.957   1
  11   5  -2 1917.10 278.125   1
  11   5  -1 1291.11  229.78   1
  11   5   0 3349.23 280.019   1
  11   5   1 576.109 197.187   1
  11   5   2 2045.73 345.914   1
  11   5   3 5507.19  475.70   1
  11   5   4 4229.47 326.894   1
  11   5   5 1036.88 270.816   1
  11   5   6 3669.19 321.948   1
  11   5   7-105.663 690.203   1
  11   5   8 1439.08 271.502   1
  11   5   9 2352.33 318.242   1
  11   5  10 1313.03 253.532   1
  11   5  11 1644.77 295.619   1
  11   5  12 3259.28  324.13   1
  11   5  13 859.564  284.86   1
  11   5  14 1247.11 330.922   1
  11   5  15 1138.31 391.875   1
  11   5  16 1313.79  321.84   1
  11   5  17 671.356 312.041   1
  11   5  18 2200.50 443.537   1
  11   5  19 467.578 490.009   1
  11   5  20 556.125  357.07   1
  11   5  21 47.1447 292.873   1
  11   6 -21 0.73134 667.349   1
  11   6 -20 940.021  284.56   1
  11   6 -19 775.637 383.466   1
  11   6 -18 -110.89 743.998   1
  11   6 -17 1042.54 413.874   1
  11   6 -16 353.615 274.293   1
  11   6 -15  350.50 258.918   1
  11   6 -14 1896.91 283.706   1
  11   6 -13 2071.04 314.418   1
  11   6 -12 662.325 283.022   1
  11   6 -11 2092.26 304.572   1
  11   6 -10 66.0814 308.252   1
  11   6  -9 323.912 286.708   1
  11   6  -8 2048.43 321.069   1
  11   6  -7 3731.33 416.322   1
  11   6  -6 610.751 289.453   1
  11   6  -5 2465.69 326.617   1
  11   6  -4 3292.35 285.067   1
  11   6  -3 2627.86 350.858   1
  11   6  -2 1270.24 217.607   1
  11   6  -1 5687.04 314.673   1
  11   6   0 769.034 255.166   1
  11   6   1 5211.50 383.025   1
  11   6   2 1579.89 277.482   1
  11   6   3 2307.97 340.325   1
  11   6   4 2615.37 322.116   1
  11   6   5 2200.86 324.735   1
  11   6   6 109.719 310.405   1
  11   6   7 4257.75 458.832   1
  11   6   8 2504.13 378.719   1
  11   6   9-302.185 737.682   1
  11   6  10-357.781 1227.39   1
  11   6  11 1361.78 279.055   1
  11   6  12 511.614 246.751   1
  11   6  13 2567.94 328.824   1
  11   6  14 2454.69 327.514   1
  11   6  15-10.3765 712.354   1
  11   6  16 310.718 304.703   1
  11   6  17 1567.30 371.936   1
  11   6  18 166.255 311.579   1
  11   6  19 2573.27 354.576   1
  11   6  20 723.203 345.384   1
  11   6  21 1104.76 760.477   1
  11   7 -20 566.529 322.845   1
  11   7 -19 241.682 363.388   1
  11   7 -18  883.49 256.816   1
  11   7 -17 1032.24 385.638   1
  11   7 -16 3709.20 464.858   1
  11   7 -15 93.0862 276.986   1
  11   7 -14 1840.63 292.402   1
  11   7 -13 2875.51 314.195   1
  11   7 -12 2564.25 302.515   1
  11   7 -11 1080.66 386.743   1
  11   7 -10 3862.30 415.132   1
  11   7  -9 196.607 322.913   1
  11   7  -8 4041.50 552.762   1
  11   7  -7 2676.55 350.736   1
  11   7  -6 3091.15 334.992   1
  11   7  -5 486.737 277.632   1
  11   7  -4 4721.63 352.307   1
  11   7  -3 191.476 208.721   1
  11   7  -2 3248.02  270.93   1
  11   7  -1  175.98 231.277   1
  11   7   0 777.662 271.446   1
  11   7   1 456.922 452.425   1
  11   7   2 3644.64 340.498   1
  11   7   3-339.549 736.299   1
  11   7   4 4734.63 406.563   1
  11   7   5 22.0223 318.037   1
  11   7   6 2497.85 393.613   1
  11   7   7 2553.05 344.254   1
  11   7   8 4608.10 374.242   1
  11   7   9 651.853 269.755   1
  11   7  10 3472.87 471.722   1
  11   7  11 1181.28 332.502   1
  11   7  12 2551.26 337.096   1
  11   7  13 3053.25 422.972   1
  11   7  14 1815.72 304.216   1
  11   7  15 245.318 403.433   1
  11   7  16 2571.30  357.98   1
  11   7  17 1629.06 325.757   1
  11   7  18 1787.40 315.071   1
  11   7  19 392.812 370.102   1
  11   7  20 1068.51 412.799   1
  11   8 -19 291.966 430.102   1
  11   8 -18 2376.51 320.957   1
  11   8 -17 146.421 236.734   1
  11   8 -16-50.0214 690.368   1
  11   8 -15 686.837 354.714   1
  11   8 -14 805.091 266.713   1
  11   8 -13 1231.78 294.384   1
  11   8 -12 4300.22 388.854   1
  11   8 -11 808.948 365.985   1
  11   8 -10 1307.41 328.255   1
  11   8  -9 455.066 467.075   1
  11   8  -8 2527.76 364.804   1
  11   8  -7 485.332 305.147   1
  11   8  -6 7927.74 515.922   1
  11   8  -5 1207.72 293.194   1
  11   8  -4 1413.72 343.611   1
  11   8  -3 361.047  286.49   1
  11   8  -2 2394.78 311.433   1
  11   8  -1 513.846 304.881   1
  11   8   0 8600.00 524.223   1
  11   8   1 848.067 279.345   1
  11   8   2 1905.51 352.272   1
  11   8   3 527.272 301.957   1
  11   8   4 1790.72 306.262   1
  11   8   5 1093.47 289.376   1
  11   8   6 7476.36 490.246   1
  11   8   7 612.117 362.281   1
  11   8   8 1229.94 313.745   1
  11   8   9-69.5983 774.712   1
  11   8  10 501.086 289.989   1
  11   8  11 858.256 312.668   1
  11   8  12 5428.68 470.888   1
  11   8  13 616.316 362.358   1
  11   8  14 1883.24 390.338   1
  11   8  15 501.412 323.572   1
  11   8  16 262.576 362.037   1
  11   8  17 991.229 439.497   1
  11   8  18 2962.70 562.659   1
  11   8  19 668.149 567.071   1
  11   9 -18 1351.21 298.966   1
  11   9 -17 774.211 260.389   1
  11   9 -16 1236.59 332.329   1
  11   9 -15-45.7236 892.924   1
  11   9 -14 479.504 384.925   1
  11   9 -13 404.773 257.093   1
  11   9 -12 1553.96 306.375   1
  11   9 -11 1824.42 316.895   1
  11   9 -10 370.238 395.276   1
  11   9  -9 771.633 323.668   1
  11   9  -8 1295.47 438.966   1
  11   9  -7 1343.43  392.30   1
  11   9  -6 3326.89 380.237   1
  11   9  -5 2981.27 389.296   1
  11   9  -4 1886.50 306.951   1
  11   9  -3 836.394 567.685   1
  11   9  -2 1630.87 388.982   1
  11   9  -1 5056.18 413.946   1
  11   9   0 1623.75 305.754   1
  11   9   1 3480.67 446.046   1
  11   9   2  958.74 400.225   1
  11   9   3 2043.62 304.139   1
  11   9   4 1788.59 296.113   1
  11   9   5 2470.53  370.78   1
  11   9   6 2932.97 362.845   1
  11   9   7 1267.06 318.299   1
  11   9   8 730.667 373.878   1
  11   9   9 1118.90 303.318   1
  11   9  10  459.49  513.94   1
  11   9  11 1985.40 371.258   1
  11   9  12 1368.64 338.874   1
  11   9  13 665.667 400.691   1
  11   9  14 1102.65 412.264   1
  11   9  15 316.751  502.08   1
  11   9  16-111.541 647.555   1
  11   9  17  727.58 566.057   1
  11   9  18 1143.86 408.079   1
  11  10 -17 1107.83 348.609   1
  11  10 -16 4.35791 245.976   1
  11  10 -15 330.062 413.435   1
  11  10 -14-39.0887 644.039   1
  11  10 -13 2188.39  354.78   1
  11  10 -12 281.438 499.537   1
  11  10 -11 2251.61 473.179   1
  11  10 -10 90.6048 460.383   1
  11  10  -9 683.457 324.943   1
  11  10  -8 -225.49 775.879   1
  11  10  -7 4928.65 433.668   1
  11  10  -6 468.293 694.121   1
  11  10  -5 2255.18 323.434   1
  11  10  -4 -107.85 1360.71   1
  11  10  -3 39.2307 368.547   1
  11  10  -2 468.186 305.806   1
  11  10  -1 4759.23 504.787   1
  11  10   0 18.3057 297.203   1
  11  10   1 3046.30 370.008   1
  11  10   2  317.06 303.571   1
  11  10   3-353.814 764.033   1
  11  10   4-283.838 822.033   1
  11  10   5 3280.61 359.731   1
  11  10   6 131.444 312.526   1
  11  10   7 3163.20  381.79   1
  11  10   8-71.9144 1066.11   1
  11  10   9 372.556 383.852   1
  11  10  10 316.643 282.586   1
  11  10  11 1757.02  370.48   1
  11  10  12-156.944 1074.37   1
  11  10  13 2427.13 432.031   1
  11  10  14 84.9131 386.232   1
  11  10  15 1242.78  431.31   1
  11  10  16 303.536 305.727   1
  11  10  17 73.9938 354.556   1
  11  11 -15  46.765  257.92   1
  11  11 -14 957.289 368.779   1
  11  11 -13-301.138 696.801   1
  11  11 -12 1890.98 329.122   1
  11  11 -11 609.209 441.615   1
  11  11 -10 2562.59 356.303   1
  11  11  -9 533.231 296.287   1
  11  11  -8 1170.55 302.124   1
  11  11  -7-65.2754  951.72   1
  11  11  -6 1277.38 347.022   1
  11  11  -5 187.083 244.742   1
  11  11  -4 755.808 280.102   1
  11  11  -3 1452.55 313.672   1
  11  11  -2 2211.25 361.202   1
  11  11  -1 802.765  256.77   1
  11  11   0 1817.65 360.731   1
  11  11   1 269.849 280.038   1
  11  11   2 2129.40 326.497   1
  11  11   3 1598.70 309.813   1
  11  11   4 327.462 301.685   1
  11  11   5 221.428 462.427   1
  11  11   6 1512.79 328.145   1
  11  11   7-139.227 749.457   1
  11  11   8 1444.36 288.046   1
  11  11   9 656.885 275.365   1
  11  11  10 3339.31 392.015   1
  11  11  11 490.382 310.047   1
  11  11  12 1385.11 309.906   1
  11  11  13 10.2576 311.869   1
  11  11  14 340.379 284.797   1
  11  11  15 709.146  394.08   1
  11  12 -14 610.415 352.876   1
  11  12 -13 429.546 359.588   1
  11  12 -12 1253.05 284.147   1
  11  12 -11 1763.21 381.729   1
  11  12 -10 304.259 335.076   1
  11  12  -9  461.71 296.494   1
  11  12  -8 496.477 271.976   1
  11  12  -7 344.907 280.204   1
  11  12  -6 1875.03 325.008   1
  11  12  -5 1409.68 281.297   1
  11  12  -4 454.878 270.537   1
  11  12  -3 322.282 335.561   1
  11  12  -2 1638.44 485.268   1
  11  12  -1 531.326 345.716   1
  11  12   0 2470.59 408.032   1
  11  12   1 720.681 307.186   1
  11  12   2 375.109 342.765   1
  11  12   3-126.327 735.767   1
  11  12   4 330.998 253.073   1
  11  12   5 1785.44 349.934   1
  11  12   6 1906.91  328.51   1
  11  12   7 756.395 277.512   1
  11  12   8 1146.50 321.119   1
  11  12   9 854.571 288.071   1
  11  12  10 656.167 325.343   1
  11  12  11 1907.46 342.459   1
  11  12  12 1552.46 626.097   1
  11  12  13 26.4715 302.674   1
  11  12  14 999.149 527.833   1
  11  13 -12  526.75 467.123   1
  11  13 -11-70.0759 1249.77   1
  11  13 -10 121.665 373.374   1
  11  13  -9 519.768 316.765   1
  11  13  -8 491.687 300.344   1
  11  13  -7 1667.89 307.124   1
  11  13  -6 949.656 273.193   1
  11  13  -5 2583.20 357.826   1
  11  13  -4 367.915 271.014   1
  11  13  -3-70.1519 1048.53   1
  11  13  -2 203.565 255.958   1
  11  13  -1 3011.44 560.238   1
  11  13   0  529.25 347.792   1
  11  13   1 2080.47 369.711   1
  11  13   2 513.661 326.567   1
  11  13   3 262.725 308.957   1
  11  13   4 99.7085 308.468   1
  11  13   5 2547.67 471.023   1
  11  13   6 476.295 280.303   1
  11  13   7 1556.54 413.435   1
  11  13   8  490.04 248.231   1
  11  13   9-162.254  698.63   1
  11  13  10 444.843 233.097   1
  11  13  11 148.242  279.28   1
  11  13  12-130.054 1955.64   1
  11  14  -9 1843.17 392.162   1
  11  14  -8 315.279 264.579   1
  11  14  -7 853.732 293.674   1
  11  14  -6 1181.06 300.267   1
  11  14  -5 1786.95 332.137   1
  11  14  -4 496.385  271.52   1
  11  14  -3 1508.16 302.621   1
  11  14  -2  867.99 365.175   1
  11  14  -1 776.589 423.277   1
  11  14   0  414.42 350.971   1
  11  14   1  447.28 566.731   1
  11  14   2 1516.89  397.23   1
  11  14   3 1161.07 370.167   1
  11  14   4 633.504 359.279   1
  11  14   5 1016.15 273.416   1
  11  14   6 734.881  297.36   1
  11  14   7 692.459 263.969   1
  11  14   8 326.599 261.218   1
  11  14   9 2160.39 556.476   1
  11  15  -4-243.348 687.351   1
  11  15  -3 1863.60 471.476   1
  11  15  -2 921.018 420.882   1
  11  15  -1 525.095 331.361   1
  11  15   0 295.629 355.304   1
  11  15   1-65.5948 901.567   1
  11  15   2 536.212 482.824   1
  11  15   3 1381.36 349.961   1
  11  15   4 241.801 352.925   1
  12   0   0 3381.77 468.061   1
  12   0   1 3539.98 316.902   1
  12   0   2 1793.61 265.987   1
  12   0   3 884.888 362.807   1
  12   0   4 3390.63 415.739   1
  12   0   5 2217.18 522.443   1
  12   0   6 4052.25 322.522   1
  12   0   7 288.569 225.739   1
  12   0   8 1111.60 292.499   1
  12   0   9 190.525 255.006   1
  12   0  10 855.129  253.07   1
  12   0  11 861.306 259.301   1
  12   0  12 2077.79 355.713   1
  12   0  13 254.099 273.167   1
  12   0  14 497.321 272.259   1
  12   0  15 588.997 270.425   1
  12   0  16 482.235 294.441   1
  12   0  17 147.947 368.006   1
  12   0  18 763.454 260.702   1
  12   0  19 156.309 337.455   1
  12   1 -19 509.846 290.964   1
  12   1 -18 1984.81 342.673   1
  12   1 -17 685.677 314.106   1
  12   1 -16 1705.44 294.339   1
  12   1 -15  249.16 258.504   1
  12   1 -14 2488.06 374.006   1
  12   1 -13 1662.51 295.133   1
  12   1 -12 1072.56 276.748   1
  12   1 -11 449.745 261.916   1
  12   1 -10 3964.36 350.656   1
  12   1  -9 363.481  255.92   1
  12   1  -8 2655.55 286.001   1
  12   1  -7 1369.69 265.545   1
  12   1  -6 4234.48 308.689   1
  12   1  -5 604.296  299.43   1
  12   1  -4 2371.29  253.10   1
  12   1  -3 1167.09 280.599   1
  12   1  -2 5558.06 395.197   1
  12   1  -1 1607.00 260.232   1
  12   1   0 547.985 392.563   1
  12   1   1 1360.05 299.707   1
  12   1   2 3992.21 464.219   1
  12   1   3 1419.38 532.127   1
  12   1   4 2912.69 415.336   1
  12   1   5 1316.17 322.119   1
  12   1   6 4636.58 361.353   1
  12   1   7 2375.94 296.916   1
  12   1   8 1675.63 296.566   1
  12   1   9 745.464 301.897   1
  12   1  10 5033.02 396.019   1
  12   1  11 1730.88 296.022   1
  12   1  12 1058.23 285.943   1
  12   1  13 1724.60 298.504   1
  12   1  14 2722.06 331.574   1
  12   1  15 390.427 288.018   1
  12   1  16 1799.59 299.661   1
  12   1  17 384.042 345.375   1
  12   1  18 1550.55 299.237   1
  12   1  19  437.80 258.517   1
  12   2 -19 1619.33  473.59   1
  12   2 -18-135.541 683.593   1
  12   2 -17 3167.97 385.216   1
  12   2 -16-38.5633 938.632   1
  12   2 -15 152.739 397.085   1
  12   2 -14 664.838 314.384   1
  12   2 -13 5807.24 420.151   1
  12   2 -12  728.93 407.885   1
  12   2 -11 2063.83 296.462   1
  12   2 -10 665.391 300.384   1
  12   2  -9 687.788 313.953   1
  12   2  -8 476.305 280.014   1
  12   2  -7 5710.79 378.794   1
  12   2  -6 2561.71 284.056   1
  12   2  -5 1325.20 270.513   1
  12   2  -4 615.877 208.501   1
  12   2  -3 1815.49 271.752   1
  12   2  -2 183.327 260.223   1
  12   2  -1 2093.80 365.285   1
  12   2   0 8294.05 547.217   1
  12   2   1 2516.79 486.311   1
  12   2   2 453.388 306.128   1
  12   2   3  975.15 448.503   1
  12   2   4-272.753 755.495   1
  12   2   5 1007.88 271.414   1
  12   2   6 2522.94 319.142   1
  12   2   7 4813.42 387.761   1
  12   2   8 1033.13 259.603   1
  12   2   9 1307.85  282.19   1
  12   2  10 782.639 319.605   1
  12   2  11 1797.98 297.291   1
  12   2  12 1093.11 280.886   1
  12   2  13 4863.94 495.378   1
  12   2  14 900.657 290.791   1
  12   2  15 809.503 354.876   1
  12   2  16 866.206  326.07   1
  12   2  17 3006.34 341.813   1
  12   2  18-109.786 619.374   1
  12   2  19 1133.68 280.792   1
  12   3 -19  435.15 291.009   1
  12   3 -18 645.492  320.40   1
  12   3 -17-16.7957 847.365   1
  12   3 -16 2211.52 364.774   1
  12   3 -15 476.226 287.917   1
  12   3 -14 739.529 299.132   1
  12   3 -13 960.094 307.541   1
  12   3 -12 3954.33 395.368   1
  12   3 -11 391.152 418.771   1
  12   3 -10 2569.90  421.23   1
  12   3  -9 1047.82 343.221   1
  12   3  -8 2571.27 549.426   1
  12   3  -7 1220.95 355.909   1
  12   3  -6 1177.66 301.486   1
  12   3  -5 771.786  239.97   1
  12   3  -4 4969.69 463.415   1
  12   3  -3 4067.33 340.319   1
  12   3  -2 1789.29 298.228   1
  12   3  -1 1900.31 379.612   1
  12   3   0 3403.23 436.679   1
  12   3   1 1712.77 371.004   1
  12   3   2 1657.51 635.114   1
  12   3   3 2282.20 409.134   1
  12   3   4 4789.15 422.065   1
  12   3   5 853.713 298.668   1
  12   3   6 1197.42  357.31   1
  12   3   7 1561.50 398.227   1
  12   3   8 2077.24 391.688   1
  12   3   9  193.67 335.933   1
  12   3  10 3488.72 403.548   1
  12   3  11  407.68  315.05   1
  12   3  12 3955.62 531.639   1
  12   3  13 685.046 314.792   1
  12   3  14 739.075 310.716   1
  12   3  15 342.169 315.334   1
  12   3  16 2181.14 343.311   1
  12   3  17 153.368 273.011   1
  12   3  18 816.758 242.608   1
  12   3  19  462.64 315.676   1
  12   4 -19 710.388 414.195   1
  12   4 -18 596.879  288.91   1
  12   4 -17 343.916 277.214   1
  12   4 -16 798.015 338.685   1
  12   4 -15 1124.69 322.497   1
  12   4 -14 1023.27 323.264   1
  12   4 -13 28.1558 280.732   1
  12   4 -12 1199.50 467.928   1
  12   4 -11 1897.01 367.484   1
  12   4 -10 800.032 330.074   1
  12   4  -9 816.452 324.331   1
  12   4  -8 1707.78 351.669   1
  12   4  -7 1083.43 310.912   1
  12   4  -6 2552.90 406.397   1
  12   4  -5 4254.35 479.228   1
  12   4  -4 2197.53 342.063   1
  12   4  -3 1227.94 280.652   1
  12   4  -2 2246.20 360.916   1
  12   4  -1 2782.90 381.037   1
  12   4   0 2872.61 371.052   1
  12   4   1 3218.06 388.219   1
  12   4   2 3208.00  384.32   1
  12   4   3 1193.05 299.844   1
  12   4   4 1443.48 382.199   1
  12   4   5 3741.59 344.164   1
  12   4   6 2236.34 388.724   1
  12   4   7 297.148 358.795   1
  12   4   8 1960.63 316.772   1
  12   4   9 1126.78 352.553   1
  12   4  10 1914.58 357.625   1
  12   4  11 1610.76 341.313   1
  12   4  12 1233.98 376.565   1
  12   4  13 535.621  332.78   1
  12   4  14 1717.90 334.557   1
  12   4  15 1704.10 483.406   1
  12   4  16 527.967 276.917   1
  12   4  17 534.263 272.201   1
  12   4  18 280.836 459.422   1
  12   4  19 2709.60  896.77   1
  12   5 -18 83.4251 271.022   1
  12   5 -17 1616.91 357.281   1
  12   5 -16 566.244 313.643   1
  12   5 -15 2042.52  322.82   1
  12   5 -14 1505.24 332.621   1
  12   5 -13 1382.76 311.493   1
  12   5 -12 602.326 516.241   1
  12   5 -11 1443.04 316.763   1
  12   5 -10 2426.82 407.545   1
  12   5  -9 1344.96 444.904   1
  12   5  -8 1148.99 294.069   1
  12   5  -7 1840.76 330.233   1
  12   5  -6 840.206 419.236   1
  12   5  -5 2306.06 451.393   1
  12   5  -4 912.631 287.391   1
  12   5  -3 660.164  258.10   1
  12   5  -2 2055.12 281.854   1
  12   5  -1 1663.61  329.76   1
  12   5   0 890.809 323.647   1
  12   5   1 1609.22 308.279   1
  12   5   2 1801.08 447.724   1
  12   5   3 384.926 280.789   1
  12   5   4 1463.38  263.78   1
  12   5   5 3112.56 399.121   1
  12   5   6 20.2399 287.295   1
  12   5   7 1822.38 314.884   1
  12   5   8 2061.63 317.593   1
  12   5   9 1507.04 405.064   1
  12   5  10 2081.38 412.033   1
  12   5  11 2196.63  376.11   1
  12   5  12 960.439  408.96   1
  12   5  13 953.956 358.796   1
  12   5  14 962.658 361.947   1
  12   5  15 1288.80  312.54   1
  12   5  16 976.807 294.738   1
  12   5  17 718.161 305.268   1
  12   5  18 55.7328 269.444   1
  12   6 -17 682.709 301.749   1
  12   6 -16 1044.15 337.854   1
  12   6 -15 570.213 263.924   1
  12   6 -14-28.5723 714.206   1
  12   6 -13 1920.04 286.361   1
  12   6 -12 203.613 263.012   1
  12   6 -11 686.948 361.842   1
  12   6 -10 1289.45 335.694   1
  12   6  -9 2474.98 342.537   1
  12   6  -8  570.79 305.117   1
  12   6  -7 1982.90 499.808   1
  12   6  -6 457.638 573.835   1
  12   6  -5 799.122 327.831   1
  12   6  -4 1600.28 342.541   1
  12   6  -3 4240.99 350.921   1
  12   6  -2  697.03 279.313   1
  12   6  -1 1051.10 318.656   1
  12   6   0-98.9815 1218.49   1
  12   6   1 776.696  280.34   1
  12   6   2  553.14 394.903   1
  12   6   3 3057.94 356.756   1
  12   6   4 1555.63 323.453   1
  12   6   5 22.4267 297.881   1
  12   6   6-260.935 951.804   1
  12   6   7 1605.36 310.607   1
  12   6   8-12.6308 743.893   1
  12   6   9 1558.76 297.926   1
  12   6  10 1135.00 288.173   1
  12   6  11 1162.91 341.875   1
  12   6  12 103.524 295.442   1
  12   6  13 1806.07 417.019   1
  12   6  14-289.292 791.556   1
  12   6  15 1196.80 300.017   1
  12   6  16 1399.51 338.319   1
  12   6  17 1362.72 319.026   1
  12   7 -17 627.082 459.659   1
  12   7 -16 172.189 290.921   1
  12   7 -15 435.408 306.183   1
  12   7 -14-96.0695 903.928   1
  12   7 -13 1710.32 312.153   1
  12   7 -12 773.661 265.863   1
  12   7 -11  148.18 417.039   1
  12   7 -10 82.9845 254.591   1
  12   7  -9 1927.21 331.156   1
  12   7  -8 264.112 267.554   1
  12   7  -7 1968.69 321.572   1
  12   7  -6 733.569 328.208   1
  12   7  -5 1289.25 332.852   1
  12   7  -4-332.401 879.896   1
  12   7  -3 5283.37 458.339   1
  12   7  -2 1108.84 261.415   1
  12   7  -1 1644.52 265.452   1
  12   7   0 896.958 287.442   1
  12   7   1 2580.28 291.936   1
  12   7   2 1005.84 274.693   1
  12   7   3 4804.05 419.488   1
  12   7   4-53.2009 758.852   1
  12   7   5 1223.24 311.392   1
  12   7   6 1673.78 320.013   1
  12   7   7 3067.92 360.115   1
  12   7   8 500.474 267.988   1
  12   7   9 1509.53 368.578   1
  12   7  10 196.347 294.398   1
  12   7  11 448.851 301.864   1
  12   7  12 413.913 326.563   1
  12   7  13 1618.76 560.137   1
  12   7  14-517.338 860.085   1
  12   7  15 710.066 484.671   1
  12   7  16-393.846 1014.40   1
  12   8 -16 1271.38 1923.54   1
  12   8 -15 1174.13 351.252   1
  12   8 -14 1286.03 263.172   1
  12   8 -13 -32.479  671.53   1
  12   8 -12 20.5901  268.24   1
  12   8 -11 63.1694 249.116   1
  12   8 -10 2235.93 384.005   1
  12   8  -9 1896.65 461.269   1
  12   8  -8 1789.41 406.976   1
  12   8  -7 312.775 294.797   1
  12   8  -6 131.607 303.691   1
  12   8  -5 2554.38 376.697   1
  12   8  -4 2363.77  367.17   1
  12   8  -3 2247.09 341.918   1
  12   8  -2 3085.35 338.788   1
  12   8  -1 993.409 274.548   1
  12   8   0-203.802 730.574   1
  12   8   1 964.204 279.141   1
  12   8   2 3137.40 377.987   1
  12   8   3 1623.06 323.319   1
  12   8   4 1691.14 433.839   1
  12   8   5 1353.64 335.749   1
  12   8   6-247.219  878.18   1
  12   8   7 279.694 313.397   1
  12   8   8 2006.67 330.719   1
  12   8   9 927.364 302.492   1
  12   8  10 2297.44 411.099   1
  12   8  11 706.239 288.661   1
  12   8  12 298.334 406.648   1
  12   8  13 589.768 326.304   1
  12   8  14 1273.37 365.209   1
  12   8  15 147.663 370.863   1
  12   8  16 1416.92 804.235   1
  12   9 -14 162.863 292.173   1
  12   9 -13 839.548 260.566   1
  12   9 -12 136.881 265.549   1
  12   9 -11 1898.25 398.227   1
  12   9 -10-131.159 660.795   1
  12   9  -9 2361.55 357.282   1
  12   9  -8  130.22 323.814   1
  12   9  -7 1568.68 337.014   1
  12   9  -6 414.189 304.294   1
  12   9  -5 1495.85 463.724   1
  12   9  -4 413.601 295.257   1
  12   9  -3 1592.41 315.665   1
  12   9  -2 69.2414 259.882   1
  12   9  -1 464.641 266.871   1
  12   9   0 291.813 235.992   1
  12   9   1 1543.76 341.689   1
  12   9   2 169.993 259.398   1
  12   9   3 1127.82 406.016   1
  12   9   4 159.054 291.829   1
  12   9   5 1857.89 348.187   1
  12   9   6 33.1414 431.317   1
  12   9   7 1081.95 312.249   1
  12   9   8-585.528 751.373   1
  12   9   9 3112.43 381.061   1
  12   9  10-15.0896  939.84   1
  12   9  11 2207.63 486.535   1
  12   9  12  185.04 327.752   1
  12   9  13 1464.09 330.482   1
  12   9  14-116.256 635.473   1
  12  10 -13 300.501 335.059   1
  12  10 -12 337.279 271.101   1
  12  10 -11 204.327 284.073   1
  12  10 -10 1483.79 389.965   1
  12  10  -9 2344.06 472.733   1
  12  10  -8  167.30 284.086   1
  12  10  -7-26.8326  773.94   1
  12  10  -6 398.349 254.451   1
  12  10  -5 822.106 317.258   1
  12  10  -4 886.293 500.629   1
  12  10  -3 2154.74 299.424   1
  12  10  -2 1406.52 338.861   1
  12  10  -1 55.5498 240.375   1
  12  10   0 979.382 474.809   1
  12  10   1  374.66 250.834   1
  12  10   2 1078.76 279.923   1
  12  10   3 1858.36 352.154   1
  12  10   4 1309.04 318.364   1
  12  10   5 1032.19 434.875   1
  12  10   6 472.817 309.549   1
  12  10   7 415.753 405.102   1
  12  10   8 190.467 282.842   1
  12  10   9 1649.73 408.186   1
  12  10  10 2552.18 402.702   1
  12  10  11 632.193 278.453   1
  12  10  12  -40.16 965.932   1
  12  10  13-12.2302 1211.63   1
  12  11 -11 349.411 438.962   1
  12  11 -10-64.1084 620.985   1
  12  11  -9 577.833 267.584   1
  12  11  -8 931.679 324.899   1
  12  11  -7 1046.80 287.379   1
  12  11  -6-569.069 666.927   1
  12  11  -5 96.2302  332.32   1
  12  11  -4 781.481 244.185   1
  12  11  -3 2454.69  282.33   1
  12  11  -2 784.015 308.328   1
  12  11  -1 1098.60 285.806   1
  12  11   0-272.945 958.503   1
  12  11   1 992.493 304.768   1
  12  11   2 1207.61 281.616   1
  12  11   3 1870.05 295.117   1
  12  11   4 934.216 276.446   1
  12  11   5 555.233 618.121   1
  12  11   6 86.7618 448.061   1
  12  11   7 377.192 298.517   1
  12  11   8 1362.41 290.676   1
  12  11   9 987.782  337.27   1
  12  11  10 702.209 263.466   1
  12  11  11 802.058 382.229   1
  12  12  -8 1107.42 288.792   1
  12  12  -7 585.865 369.799   1
  12  12  -6 544.163 247.375   1
  12  12  -5 43.6555 230.089   1
  12  12  -4 1905.96 284.207   1
  12  12  -3 309.775 314.461   1
  12  12  -2 929.093 344.026   1
  12  12  -1 590.637 275.974   1
  12  12   0 111.992 466.633   1
  12  12   1 881.652 470.475   1
  12  12   2 174.062  271.25   1
  12  12   3 45.6176 256.742   1
  12  12   4 1402.89 302.477   1
  12  12   5-241.608 719.401   1
  12  12   6 246.326 269.624   1
  12  12   7 414.279 258.956   1
  12  12   8 2476.53 491.463   1
  12  13  -4 475.003  378.75   1
  12  13  -3 1117.97 361.492   1
  12  13  -2 1184.93 306.928   1
  12  13  -1 496.245 356.603   1
  12  13   0  278.59 563.353   1
  12  13   1 312.871 315.788   1
  12  13   2 840.691 461.779   1
  12  13   3 659.196 812.432   1
  12  13   4 888.691 631.577   1
  13   0   1 1296.50 301.008   1
  13   0   2 295.058 310.556   1
  13   0   3 1503.04 280.647   1
  13   0   4  915.57 262.412   1
  13   0   5 6382.19  426.74   1
  13   0   6 288.022 302.447   1
  13   0   7 1501.95  281.90   1
  13   0   8 1533.50 286.119   1
  13   0   9 3197.29 329.215   1
  13   0  10 336.305 251.282   1
  13   0  11 1486.19 289.965   1
  13   0  12-36.3249 763.071   1
  13   0  13 506.416 263.328   1
  13   0  14 3188.64 306.438   1
  13   0  15 2896.98 300.743   1
  13   0  16-261.473 880.342   1
  13   1 -16 449.154 455.211   1
  13   1 -15 1089.07 316.256   1
  13   1 -14 81.1537 258.489   1
  13   1 -13 876.631 295.064   1
  13   1 -12 994.481 284.698   1
  13   1 -11 1642.30 324.675   1
  13   1 -10 684.967 264.692   1
  13   1  -9 2308.23 299.829   1
  13   1  -8 80.7658 255.277   1
  13   1  -7 2301.46  285.18   1
  13   1  -6  408.77 270.758   1
  13   1  -5 3497.81 368.581   1
  13   1  -4 404.747 257.259   1
  13   1  -3 2355.32 329.251   1
  13   1  -2 859.448 352.363   1
  13   1  -1 2719.06 520.609   1
  13   1   0 348.463 396.061   1
  13   1   1 2509.83 332.458   1
  13   1   2 353.866 282.732   1
  13   1   3 2364.27 372.644   1
  13   1   4 907.498 245.643   1
  13   1   5 2676.66 292.722   1
  13   1   6-22.2264 692.924   1
  13   1   7 1763.10 301.563   1
  13   1   8 221.631  463.18   1
  13   1   9 2486.65 310.833   1
  13   1  10 705.028 267.269   1
  13   1  11 1463.70 279.543   1
  13   1  12 530.973 257.092   1
  13   1  13 1008.97 255.381   1
  13   1  14 351.138  233.59   1
  13   1  15 2077.83 274.781   1
  13   1  16-388.034 965.118   1
  13   2 -15 865.255 293.331   1
  13   2 -14 23.1974 317.396   1
  13   2 -13 199.294 281.271   1
  13   2 -12  756.86 307.766   1
  13   2 -11 1486.19 414.776   1
  13   2 -10 782.094  314.01   1
  13   2  -9 1512.01 303.986   1
  13   2  -8 1424.01 390.715   1
  13   2  -7 321.944 279.697   1
  13   2  -6 603.367 257.499   1
  13   2  -5 181.831 264.418   1
  13   2  -4 2532.00 431.077   1
  13   2  -3 1145.08 355.526   1
  13   2  -2 3588.86 587.734   1
  13   2  -1-81.6834 865.556   1
  13   2   0 1465.19 341.112   1
  13   2   1 743.844 339.221   1
  13   2   2 2207.92 323.265   1
  13   2   3 1234.96 332.519   1
  13   2   4 2276.41 361.589   1
  13   2   5 433.895  280.29   1
  13   2   6-611.547 766.564   1
  13   2   7 -206.54 752.553   1
  13   2   8 1790.60 398.528   1
  13   2   9 2081.58 413.404   1
  13   2  10 642.468 425.766   1
  13   2  11 690.849  283.29   1
  13   2  12  276.93 482.917   1
  13   2  13 176.922  248.24   1
  13   2  14 248.548 324.796   1
  13   2  15 598.216 230.054   1
  13   3 -15 1515.06 341.053   1
  13   3 -14 206.889 301.327   1
  13   3 -13  601.11 333.219   1
  13   3 -12 1501.46 330.468   1
  13   3 -11 558.685 320.159   1
  13   3 -10 108.342 354.226   1
  13   3  -9 758.003  313.37   1
  13   3  -8 1224.09  345.15   1
  13   3  -7 317.522 317.694   1
  13   3  -6 189.844  314.48   1
  13   3  -5 1109.95 285.421   1
  13   3  -4 541.102 316.786   1
  13   3  -3  916.62  326.40   1
  13   3  -2 1179.07 330.088   1
  13   3  -1 1104.12 336.253   1
  13   3   0 484.777 345.516   1
  13   3   1 1235.09 432.447   1
  13   3   2 104.875 329.703   1
  13   3   3 1944.24 515.882   1
  13   3   4 1138.39 471.706   1
  13   3   5 1982.84 333.503   1
  13   3   6 446.501 327.319   1
  13   3   7 89.6027 379.916   1
  13   3   8 1091.78 394.896   1
  13   3   9 1703.13 388.979   1
  13   3  10 312.133 360.011   1
  13   3  11 433.634 554.264   1
  13   3  12 1016.02 288.852   1
  13   3  13 534.967 265.585   1
  13   3  14 556.176 282.141   1
  13   3  15 1312.33 269.722   1
  13   4 -15 1139.33 422.687   1
  13   4 -14  998.25 240.688   1
  13   4 -13 35.6007 244.376   1
  13   4 -12 201.409 297.117   1
  13   4 -11 2200.03 324.818   1
  13   4 -10  795.53 399.585   1
  13   4  -9 759.343 371.297   1
  13   4  -8 1381.52 305.948   1
  13   4  -7 971.717  286.06   1
  13   4  -6 1298.26 297.699   1
  13   4  -5 2461.08 530.224   1
  13   4  -4 1098.51  257.23   1
  13   4  -3 235.537 236.815   1
  13   4  -2 1007.81 648.828   1
  13   4  -1 1754.91 368.688   1
  13   4   0 759.675 337.357   1
  13   4   1 2253.82 374.367   1
  13   4   2-29.6577  842.17   1
  13   4   3 49.0704 310.885   1
  13   4   4 1490.09 466.851   1
  13   4   5 2108.40 363.397   1
  13   4   6 183.595 279.966   1
  13   4   7 416.526 296.989   1
  13   4   8 1695.81 389.865   1
  13   4   9 1519.38  421.52   1
  13   4  10 1323.77  436.25   1
  13   4  11 2137.72 365.718   1
  13   4  12 737.169 318.225   1
  13   4  13 46.2716 297.657   1
  13   4  14 1222.72 276.529   1
  13   4  15 52.0179 676.612   1
  13   5 -14-228.482  738.04   1
  13   5 -13 638.882 228.191   1
  13   5 -12 1351.75 267.909   1
  13   5 -11 799.455 270.629   1
  13   5 -10 2399.42 355.187   1
  13   5  -9 311.328 266.296   1
  13   5  -8 778.724 281.142   1
  13   5  -7 -137.78 746.514   1
  13   5  -6 1132.99 346.012   1
  13   5  -5 1446.44 345.281   1
  13   5  -4 2181.93  316.82   1
  13   5  -3 167.464 318.627   1
  13   5  -2 1249.85 369.913   1
  13   5  -1 2073.40  386.21   1
  13   5   0 6325.22 542.031   1
  13   5   1 2085.52 472.071   1
  13   5   2 1861.16 620.476   1
  13   5   3 299.504 345.968   1
  13   5   4 2230.97 624.432   1
  13   5   5 1577.83 412.248   1
  13   5   6 1376.47 556.882   1
  13   5   7 304.455 344.573   1
  13   5   8  661.06 414.311   1
  13   5   9 392.561 338.496   1
  13   5  10 2380.55 426.273   1
  13   5  11 843.071 310.574   1
  13   5  12 1896.86 337.792   1
  13   5  13 1690.76 415.703   1
  13   5  14 173.171 505.107   1
  13   6 -13 553.995 354.667   1
  13   6 -12 1009.08  288.98   1
  13   6 -11  936.94 298.285   1
  13   6 -10 388.579 253.501   1
  13   6  -9 647.396 289.456   1
  13   6  -8 1263.42 528.576   1
  13   6  -7 217.252 265.782   1
  13   6  -6 4791.47 628.656   1
  13   6  -5 340.976 304.794   1
  13   6  -4 944.727 588.871   1
  13   6  -3 294.105 377.522   1
  13   6  -2 2252.33 361.792   1
  13   6  -1 313.747 287.424   1
  13   6   0 4059.41 447.373   1
  13   6   1 1176.00 385.917   1
  13   6   2 1490.16 539.638   1
  13   6   3-57.0893 751.559   1
  13   6   4 872.418 357.438   1
  13   6   5 599.691 343.773   1
  13   6   6 3389.40 404.042   1
  13   6   7 846.226 433.099   1
  13   6   8 1020.82 394.253   1
  13   6   9 703.263 447.138   1
  13   6  10-490.101 978.693   1
  13   6  11 1514.81 393.472   1
  13   6  12 610.619 333.855   1
  13   6  13 473.509 312.297   1
  13   7 -12 861.096 608.704   1
  13   7 -11-233.556 653.544   1
  13   7 -10 1615.11 324.413   1
  13   7  -9 964.848 449.362   1
  13   7  -8 706.433 467.981   1
  13   7  -7-34.2859 693.535   1
  13   7  -6 1357.38 322.006   1
  13   7  -5-83.5433 747.206   1
  13   7  -4 979.415 347.732   1
  13   7  -3 1684.16 476.409   1
  13   7  -2 581.167 394.964   1
  13   7  -1 779.362 354.036   1
  13   7   0 929.443 341.534   1
  13   7   1 374.704 646.877   1
  13   7   2 788.741 343.023   1
  13   7   3 1320.31 372.694   1
  13   7   4 1288.52 358.931   1
  13   7   5 845.349 341.395   1
  13   7   6 1579.65 332.988   1
  13   7   7 100.554  282.46   1
  13   7   8 800.936 368.349   1
  13   7   9 721.174 345.131   1
  13   7  10 2588.64 407.274   1
  13   7  11-63.6103 646.656   1
  13   7  12 369.996 330.517   1
  13   8 -11 1584.47 968.445   1
  13   8 -10 2287.69 343.252   1
  13   8  -9-329.842 675.467   1
  13   8  -8 357.008 282.621   1
  13   8  -7 1112.34 299.328   1
  13   8  -6 739.689  475.98   1
  13   8  -5 1544.19 355.843   1
  13   8  -4 587.878  316.72   1
  13   8  -3 76.3794 352.935   1
  13   8  -2 609.193 419.844   1
  13   8  -1 2153.94 485.362   1
  13   8   0 870.623 293.147   1
  13   8   1 1222.09 379.483   1
  13   8   2 240.342 302.793   1
  13   8   3 573.402 334.505   1
  13   8   4 452.531 393.296   1
  13   8   5 1953.91  336.11   1
  13   8   6 148.016 282.373   1
  13   8   7 1056.18 307.215   1
  13   8   8-71.1755 753.338   1
  13   8   9 1119.42 345.483   1
  13   8  10 965.858 313.805   1
  13   8  11 812.166 1013.96   1
  13   9  -9  455.86 489.388   1
  13   9  -8 164.332 297.592   1
  13   9  -7-94.7101 598.764   1
  13   9  -6 2282.70 302.705   1
  13   9  -5 50.8476 239.908   1
  13   9  -4 666.192 304.568   1
  13   9  -3 310.845 345.429   1
  13   9  -2 756.347 313.184   1
  13   9  -1-250.522 642.409   1
  13   9   0 2934.89 348.882   1
  13   9   1 44.4291 270.826   1
  13   9   2-68.3212  692.15   1
  13   9   3 124.903 255.546   1
  13   9   4 486.601 411.556   1
  13   9   5 407.837 253.218   1
  13   9   6 2377.39 419.399   1
  13   9   7 83.8755 265.338   1
  13   9   8-345.631 710.445   1
  13   9   9 512.486 1391.23   1
  13  10  -6 1689.68  750.31   1
  13  10  -5 1291.41 705.925   1
  13  10  -4-182.389 610.432   1
  13  10  -3 517.888 279.919   1
  13  10  -2-115.901 683.983   1
  13  10  -1 791.857 291.004   1
  13  10   0 3020.73 603.068   1
  13  10   1  435.96 250.725   1
  13  10   2-24.8495 596.084   1
  13  10   3 502.821 210.663   1
  13  10   4 346.965 229.045   1
  13  10   5  726.23 316.931   1
  13  10   6 1569.21 598.664   1
  14   0   0-207.199 820.972   1
  14   0   1 964.225 290.627   1
  14   0   2 834.036 300.352   1
  14   0   3 214.919  248.84   1
  14   0   4 728.174 280.601   1
  14   0   5  969.37 280.878   1
  14   0   6 567.287 265.991   1
  14   0   7 1064.54 317.335   1
  14   0   8-145.603 746.828   1
  14   0   9 258.056 457.303   1
  14   0  10-28.3773 621.238   1
  14   1 -10 424.436 323.319   1
  14   1  -9 748.706 299.284   1
  14   1  -8 155.352 367.864   1
  14   1  -7 139.312 341.745   1
  14   1  -6 1073.59  378.76   1
  14   1  -5 672.182 271.661   1
  14   1  -4 1287.96 339.129   1
  14   1  -3-148.958 822.674   1
  14   1  -2 1331.46 345.361   1
  14   1  -1  384.09 339.472   1
  14   1   0 804.752 321.128   1
  14   1   1 275.509  281.31   1
  14   1   2 1871.19  328.17   1
  14   1   3-85.3168 640.377   1
  14   1   4 744.524 279.372   1
  14   1   5 71.6801 427.982   1
  14   1   6 1754.73 312.501   1
  14   1   7 881.388 346.025   1
  14   1   8 812.377 300.375   1
  14   1   9 345.748 351.645   1
  14   1  10  767.86 289.544   1
  14   2 -10 263.568 319.682   1
  14   2  -9 421.555 264.391   1
  14   2  -8 2309.81 441.565   1
  14   2  -7 96.5309 459.015   1
  14   2  -6 2798.70 473.297   1
  14   2  -5 665.616 266.614   1
  14   2  -4  208.04 301.537   1
  14   2  -3 67.5254 314.384   1
  14   2  -2 988.969 286.047   1
  14   2  -1 380.829 336.791   1
  14   2   0 1546.89 461.752   1
  14   2   1 280.636 327.053   1
  14   2   2 1282.17 281.331   1
  14   2   3 131.488 318.777   1
  14   2   4-264.199 820.128   1
  14   2   5 278.839 291.771   1
  14   2   6 2724.17 355.354   1
  14   2   7 42.3801 323.513   1
  14   2   8 1420.88  301.82   1
  14   2   9 451.962 374.719   1
  14   2  10 427.805 313.584   1
  14   3  -9-412.818  720.58   1
  14   3  -8 845.804 252.117   1
  14   3  -7 854.619  260.44   1
  14   3  -6 1631.06 399.126   1
  14   3  -5 1303.86 336.438   1
  14   3  -4 2026.79 364.347   1
  14   3  -3-554.033 688.185   1
  14   3  -2 1623.68 367.167   1
  14   3  -1 1233.69 296.351   1
  14   3   0 1072.41 267.526   1
  14   3   1 942.028 259.719   1
  14   3   2 1200.27 274.198   1
  14   3   3 146.351 226.119   1
  14   3   4 2753.50 321.846   1
  14   3   5 807.134 288.581   1
  14   3   6 1139.79  296.90   1
  14   3   7 864.809 242.885   1
  14   3   8 730.347 264.985   1
  14   3   9 182.034 274.194   1
  14   3  10 51.3198 544.599   1
  14   4  -9 1004.51 417.735   1
  14   4  -8 272.333 275.245   1
  14   4  -7  428.29 234.681   1
  14   4  -6-153.793 624.253   1
  14   4  -5 1228.86 733.031   1
  14   4  -4 11.1065 361.668   1
  14   4  -3 474.327 306.876   1
  14   4  -2-72.7607 643.643   1
  14   4  -1 2909.47 358.695   1
  14   4   0 -465.99 1076.53   1
  14   4   1 1756.43 390.518   1
  14   4   2 222.347 283.469   1
  14   4   3 920.344 265.316   1
  14   4   4 482.615 256.417   1
  14   4   5 688.643 273.048   1
  14   4   6 359.428 269.805   1
  14   4   7 985.843 295.294   1
  14   4   8 94.5552 398.145   1
  14   4   9 361.878 373.917   1
  14   5  -7 101.088 445.713   1
  14   5  -6 1075.63 284.931   1
  14   5  -5 187.589 275.607   1
  14   5  -4 284.702 341.901   1
  14   5  -3 242.461 357.571   1
  14   5  -2-57.1883 648.306   1
  14   5  -1 867.998  286.40   1
  14   5   0 1317.87 343.556   1
  14   5   1 1268.03 301.353   1
  14   5   2 505.634 293.823   1
  14   5   3-64.6304 793.673   1
  14   5   4 63.0874 261.662   1
  14   5   5  476.33 334.443   1
  14   5   6 1244.69 342.621   1
  14   5   7-235.093 611.992   1
  14   5   8-260.849 762.598   1
  14   6  -6 -146.06  675.16   1
  14   6  -5 330.972 353.833   1
  14   6  -4 1838.60 396.665   1
  14   6  -3-175.691 995.764   1
  14   6  -2 593.538 369.119   1
  14   6  -1-84.0175 592.988   1
  14   6   0 234.367 291.662   1
  14   6   1 317.324  284.90   1
  14   6   2 1237.15 326.872   1
  14   6   3 324.101 286.014   1
  14   6   4 949.426 284.971   1
  14   6   5 506.532 336.978   1
  14   6   6 -193.81 720.054   1
  14   7  -3 242.987 350.623   1
  14   7  -2 1450.33 384.447   1
  14   7  -1 2075.87 408.078   1
  14   7   0 217.575 381.416   1
  14   7   1 2456.83  487.89   1
  14   7   2-74.6476 599.291   1
  14   7   3 710.944 1462.22   1
   0   0   0    0.00    0.00   1
;
_shelx_hkl_checksum              51190
loop_
_space_group_symop_operation_xyz
'x, y, z'
'-x+1/2, -y, z+1/2'
'-x, y+1/2, -z+1/2'
'x+1/2, -y+1/2, -z'
loop_
_atom_site_label
_atom_site_type_symbol
_atom_site_fract_x
_atom_site_fract_y
_atom_site_fract_z
_atom_site_U_iso_or_equiv
_atom_site_adp_type
_atom_site_occupancy
_atom_site_site_symmetry_order
_atom_site_calc_flag
C1 C 0.3266(2) 0.30648(15) 0.17922(10) 0.0097(2) Uani 1 1 d
C2 C 0.4036(2) 0.29558(14) 0.26260(10) 0.0096(2) Uani 1 1 d
C3 C 0.3121(2) 0.35787(15) 0.33631(10) 0.0099(2) Uani 1 1 d
C4 C 0.1420(2) 0.43499(15) 0.32880(10) 0.0101(2) Uani 1 1 d
C5 C 0.0557(2) 0.44714(14) 0.24364(10) 0.00966(19) Uani 1 1 d
C6 C 0.1465(2) 0.38265(15) 0.16961(10) 0.0095(2) Uani 1 1 d
N1 N 0.4189(2) 0.34971(13) 0.42135(10) 0.01186(18) Uani 1 1 d
N2 N 0.5805(2) 0.21126(13) 0.27990(9) 0.0112(2) Uani 1 1 d
N3 N 0.0473(2) 0.40593(14) 0.09384(8) 0.0118(2) Uani 1 1 d
N4 N -0.1101(2) 0.51822(15) 0.22299(9) 0.0123(2) Uani 1 1 d
O1 O 0.3272(3) 0.30554(17) 0.48409(9) 0.0209(3) Uani 1 1 d
O2 O 0.59416(19) 0.39139(14) 0.42123(10) 0.0170(2) Uani 1 1 d
O3 O 0.5562(2) 0.12511(13) 0.33561(9) 0.0169(2) Uani 1 1 d
O4 O 0.7365(2) 0.23034(15) 0.23833(10) 0.0163(2) Uani 1 1 d
S1 S -0.14113(7) 0.50090(4) 0.11840(3) 0.01321(7) Uani 1 1 d
Br1 Br 0.43993(2) 0.22435(2) 0.08118(2) 0.01053(3) Uani 1 1 d
Br2 Br 0.03990(2) 0.53338(2) 0.42171(2) 0.01335(3) Uani 1 1 d
loop_
_atom_site_aniso_label
_atom_site_aniso_U_11
_atom_site_aniso_U_22
_atom_site_aniso_U_33
_atom_site_aniso_U_23
_atom_site_aniso_U_13
_atom_site_aniso_U_12
C1 0.0105(5) 0.0090(5) 0.0096(5) -0.0013(4) 0.0012(4) 0.0001(4)
C2 0.0096(5) 0.0086(5) 0.0107(5) -0.0003(4) 0.0004(4) 0.0010(4)
C3 0.0097(5) 0.0108(5) 0.0091(5) -0.0003(4) 0.0000(4) -0.0001(4)
C4 0.0095(5) 0.0113(5) 0.0096(5) -0.0018(4) 0.0006(4) 0.0001(4)
C5 0.0090(5) 0.0100(5) 0.0099(5) -0.0016(4) -0.0002(4) 0.0003(4)
C6 0.0097(5) 0.0099(5) 0.0090(5) -0.0009(4) -0.0004(4) 0.0001(4)
N1 0.0135(5) 0.0119(4) 0.0101(4) 0.0001(4) -0.0017(5) -0.0001(4)
N2 0.0114(5) 0.0097(5) 0.0124(5) -0.0007(4) -0.0008(4) 0.0014(4)
N3 0.0116(5) 0.0135(5) 0.0104(5) -0.0010(4) -0.0013(4) 0.0020(4)
N4 0.0104(5) 0.0142(5) 0.0122(5) -0.0019(4) -0.0004(4) 0.0013(4)
O1 0.0215(7) 0.0296(7) 0.0118(5) 0.0055(5) 0.0018(5) -0.0022(6)
O2 0.0127(4) 0.0202(5) 0.0182(5) 0.0007(5) -0.0051(5) -0.0038(4)
O3 0.0193(6) 0.0126(5) 0.0187(5) 0.0055(4) 0.0001(5) 0.0027(5)
O4 0.0107(4) 0.0182(5) 0.0199(6) 0.0007(5) 0.0030(4) 0.0023(4)
S1 0.01213(14) 0.01668(16) 0.01082(14) -0.00070(12) -0.00148(12) 0.00411(13)
Br1 0.01185(5) 0.01005(5) 0.00971(5) -0.00172(4) 0.00242(5) 0.00105(4)
Br2 0.01216(6) 0.01732(6) 0.01057(5) -0.00490(5) 0.00211(5) 0.00149(5)
loop_
_atom_type_symbol
_atom_type_description
_atom_type_scat_dispersion_real
_atom_type_scat_dispersion_imag
_atom_type_scat_source
C C 0.0033 0.0016 'International Tables Vol C Tables 4.2.6.8 and 6.1.1.4'
N N 0.0061 0.0033 'International Tables Vol C Tables 4.2.6.8 and 6.1.1.4'
O O 0.0106 0.0060 'International Tables Vol C Tables 4.2.6.8 and 6.1.1.4'
S S 0.1246 0.1234 'International Tables Vol C Tables 4.2.6.8 and 6.1.1.4'
Br Br -0.2901 2.4595 'International Tables Vol C Tables 4.2.6.8 and 6.1.1.4'
loop_
_geom_angle_atom_site_label_1
_geom_angle_atom_site_label_2
_geom_angle_atom_site_label_3
_geom_angle
C2 C1 C6 116.52(13)
C2 C1 Br1 123.79(12)
C6 C1 Br1 119.67(11)
C1 C2 C3 122.52(14)
C1 C2 N2 120.35(13)
C3 C2 N2 117.03(14)
C4 C3 C2 122.35(15)
C4 C3 N1 119.55(14)
C2 C3 N1 117.76(13)
C3 C4 C5 116.84(14)
C3 C4 Br2 122.73(12)
C5 C4 Br2 120.17(11)
N4 C5 C4 125.69(14)
N4 C5 C6 113.60(13)
C4 C5 C6 120.71(14)
N3 C6 C1 125.96(14)
N3 C6 C5 112.99(13)
C1 C6 C5 121.03(14)
O1 N1 O2 126.50(16)
O1 N1 C3 118.31(14)
O2 N1 C3 115.18(14)
O4 N2 O3 125.44(15)
O4 N2 C2 118.55(14)
O3 N2 C2 116.00(14)
C6 N3 S1 106.19(11)
C5 N4 S1 105.87(11)
N4 S1 N3 101.36(7)
loop_
_geom_bond_atom_site_label_1
_geom_bond_atom_site_label_2
_geom_bond_distance
C1 C2 1.371(2)
C1 C6 1.424(2)
C1 Br1 1.8677(15)
C2 C3 1.423(2)
C2 N2 1.471(2)
C3 C4 1.373(2)
C3 N1 1.475(2)
C4 C5 1.421(2)
C4 Br2 1.8607(15)
C5 N4 1.347(2)
C5 C6 1.435(2)
C6 N3 1.347(2)
N1 O1 1.217(2)
N1 O2 1.2285(18)
N2 O4 1.2211(19)
N2 O3 1.2327(19)
N3 S1 1.6170(15)
N4 S1 1.6152(15)
