#------------------------------------------------------------------------------
#$Date: 2019-11-24 03:15:50 +0200 (Sun, 24 Nov 2019) $
#$Revision: 236443 $
#$URL: file:///home/coder/svn-repositories/cod/cif/1/55/40/1554021.cif $
#------------------------------------------------------------------------------
#
# This file is available in the Crystallography Open Database (COD),
# http://www.crystallography.net/
#
# All data on this site have been placed in the public domain by the
# contributors.
#
data_1554021
loop_
_publ_author_name
'Sun, Xingxing'
'Zhang, Baicheng'
'Li, Xinyang'
'Trindle, Carl O.'
'Zhang, Guoqing'
_publ_section_title
;
 External Heavy-Atom Effect via Orbital Interactions Revealed by
 Single-Crystal X-ray Diffraction.
;
_journal_issue                   29
_journal_name_full               'The journal of physical chemistry. A'
_journal_page_first              5791
_journal_page_last               5797
_journal_paper_doi               10.1021/acs.jpca.6b03867
_journal_volume                  120
_journal_year                    2016
_chemical_formula_sum            'C11 H14 Br N O'
_chemical_formula_weight         256.14
_space_group_crystal_system      triclinic
_space_group_IT_number           2
_space_group_name_Hall           '-P 1'
_space_group_name_H-M_alt        'P -1'
_atom_sites_solution_hydrogens   mixed
_audit_creation_method           SHELXL-2013
_cell_angle_alpha                94.319(7)
_cell_angle_beta                 104.239(8)
_cell_angle_gamma                109.133(10)
_cell_formula_units_Z            2
_cell_length_a                   7.9102(9)
_cell_length_b                   8.4568(9)
_cell_length_c                   9.3598(7)
_cell_measurement_reflns_used    1107
_cell_measurement_temperature    291(2)
_cell_measurement_theta_max      28.8497
_cell_measurement_theta_min      3.0788
_cell_volume                     564.99(11)
_computing_cell_refinement       'CrysAlisPro (Agilent Technologies)'
_computing_data_collection       'CrysAlisPro (Agilent Technologies)'
_computing_data_reduction        'CrysAlisPro (Agilent Technologies)'
_computing_molecular_graphics    'Ortep-3 (L. J. Farrugia, 2001)'
_computing_publication_material  SHELXL-2013
_computing_structure_refinement  'SHELXL-2013 (Sheldrick, 2013)'
_computing_structure_solution    'SHELXS-97 (Sheldrick, 1997)'
_diffrn_ambient_temperature      291(2)
_diffrn_detector_area_resol_mean 15.9149
_diffrn_measured_fraction_theta_full 0.987
_diffrn_measured_fraction_theta_max 0.984
_diffrn_measurement_device_type  'Gemini S Ultra, Agilent Technologies'
_diffrn_measurement_method       '\w scans'
_diffrn_radiation_type           MoK\a
_diffrn_radiation_wavelength     0.71073
_diffrn_reflns_av_R_equivalents  0.0341
_diffrn_reflns_av_unetI/netI     0.0522
_diffrn_reflns_Laue_measured_fraction_full 0.987
_diffrn_reflns_Laue_measured_fraction_max 0.984
_diffrn_reflns_limit_h_max       5
_diffrn_reflns_limit_h_min       -9
_diffrn_reflns_limit_k_max       10
_diffrn_reflns_limit_k_min       -10
_diffrn_reflns_limit_l_max       11
_diffrn_reflns_limit_l_min       -10
_diffrn_reflns_number            3884
_diffrn_reflns_point_group_measured_fraction_full 0.987
_diffrn_reflns_point_group_measured_fraction_max 0.984
_diffrn_reflns_theta_full        25.242
_diffrn_reflns_theta_max         26.371
_diffrn_reflns_theta_min         3.085
_diffrn_source                   'Enhance (Mo) X-ray Source'
_exptl_absorpt_coefficient_mu    3.606
_exptl_absorpt_correction_T_max  1.00000
_exptl_absorpt_correction_T_min  0.50159
_exptl_absorpt_correction_type   multi-scan
_exptl_absorpt_process_details
;
CrysAlisPro, Agilent Technologies,
Version 1.171.36.21 (release 14-08-2012 CrysAlis171 .NET)
(compiled Sep 14 2012,17:21:16)
Empirical absorption correction using spherical harmonics,
 implemented in SCALE3 ABSPACK scaling algorithm.
;
_exptl_crystal_density_diffrn    1.506
_exptl_crystal_F_000             260
_exptl_crystal_size_max          0.390
_exptl_crystal_size_mid          0.350
_exptl_crystal_size_min          0.340
_refine_diff_density_max         0.343
_refine_diff_density_min         -0.536
_refine_diff_density_rms         0.090
_refine_ls_extinction_method     none
_refine_ls_goodness_of_fit_ref   1.030
_refine_ls_hydrogen_treatment    mixed
_refine_ls_matrix_type           full
_refine_ls_number_parameters     136
_refine_ls_number_reflns         2271
_refine_ls_number_restraints     2
_refine_ls_restrained_S_all      1.030
_refine_ls_R_factor_all          0.0611
_refine_ls_R_factor_gt           0.0408
_refine_ls_shift/su_max          0.001
_refine_ls_shift/su_mean         0.000
_refine_ls_structure_factor_coef Fsqd
_refine_ls_weighting_details
'w=1/[\s^2^(Fo^2^)+(0.0418P)^2^] where P=(Fo^2^+2Fc^2^)/3'
_refine_ls_weighting_scheme      calc
_refine_ls_wR_factor_gt          0.0848
_refine_ls_wR_factor_ref         0.0944
_reflns_Friedel_coverage         0.000
_reflns_number_gt                1748
_reflns_number_total             2271
_reflns_threshold_expression     'I > 2\s(I)'
_cod_data_source_file            jp6b03867_si_014.cif
_cod_data_source_block           shelxl
_cod_original_cell_volume        564.99(10)
_cod_database_code               1554021
_shelx_space_group_comment
;
The symmetry employed for this shelxl refinement is uniquely defined
by the following loop, which should always be used as a source of
symmetry information in preference to the above space-group names.
They are only intended as comments.
;
_shelx_estimated_absorpt_t_min   0.334
_shelx_estimated_absorpt_t_max   0.374
_shelxl_version_number           2013-4
_shelx_res_file
;
TITL lxy0609-qBr in P1
CELL  0.71073   7.9102   8.4568   9.3598   94.319  104.239  109.133
ZERR     2.00   0.0009   0.0009   0.0007    0.007    0.008    0.010
LATT   1
SFAC  C    H    N    BR   O
UNIT  22   28   2    2    2
MERG   2
HTAB O1 bR1
HTAB O1 BR1_$1
EQIV $1 1-X, -Y, 1-Z
DFIX 0.85 O1 H1A O1 H1B
SHEL 53 0.80
FMAP   2
PLAN   25
SIZE     0.34   0.35   0.39
ACTA
BOND   $H
CONF
L.S.   4
WGHT    0.041800
FVAR       8.49505
BR1   4    0.776229    0.104898    0.693995    11.00000    0.05982    0.06620 =
         0.04514    0.01155    0.01407    0.01201
N1    3    0.301115    0.262345    0.728620    11.00000    0.04505    0.03900 =
         0.03663    0.00904    0.01634    0.01650
O1    5    0.601562    0.242062    0.386768    11.00000    0.08329    0.04810 =
         0.07438    0.02343    0.02688    0.02158
C4    1    0.247735    0.239631    0.968201    11.00000    0.03862    0.04280 =
         0.03363    0.00780    0.00858    0.01194
C7    1    0.245442    0.567406    0.994747    11.00000    0.05704    0.04287 =
         0.04890    0.00422    0.01827    0.02108
AFIX  43
H7    2    0.244414    0.677302    1.004975    11.00000   -1.20000
AFIX   0
C10   1    0.324042    0.353993    0.601747    11.00000    0.06866    0.04865 =
         0.04356    0.01384    0.03383    0.01946
AFIX  23
H10A  2    0.396143    0.311875    0.549017    11.00000   -1.20000
H10B  2    0.392835    0.473963    0.639901    11.00000   -1.20000
AFIX   0
C3    1    0.250956    0.074380    0.952069    11.00000    0.06848    0.04931 =
         0.04414    0.02076    0.01835    0.02474
AFIX  43
H3    2    0.234461    0.009889    1.027177    11.00000   -1.20000
AFIX   0
C9    1    0.273086    0.335736    0.853634    11.00000    0.03180    0.03685 =
         0.03159    0.00485    0.00848    0.01116
C8    1    0.272481    0.501616    0.868585    11.00000    0.04616    0.04161 =
         0.04128    0.01054    0.01320    0.01450
AFIX  43
H8    2    0.290281    0.565804    0.793466    11.00000   -1.20000
AFIX   0
C11   1    0.140209    0.331802    0.495624    11.00000    0.08579    0.07788 =
         0.04131    0.02106    0.01686    0.02458
AFIX 137
H11A  2    0.159636    0.399304    0.419042    11.00000   -1.50000
H11B  2    0.065810    0.367443    0.548706    11.00000   -1.50000
H11C  2    0.076707    0.214357    0.450732    11.00000   -1.50000
AFIX   0
C2    1    0.278124    0.009533    0.826959    11.00000    0.08773    0.04660 =
         0.06173    0.01611    0.02779    0.03564
AFIX  43
H2    2    0.280426   -0.099865    0.815381    11.00000   -1.20000
AFIX   0
C6    1    0.219122    0.473134    1.109546    11.00000    0.05657    0.06249 =
         0.04011    0.00135    0.01921    0.02422
AFIX  43
H6    2    0.201207    0.521058    1.194750    11.00000   -1.20000
AFIX   0
C5    1    0.219601    0.313195    1.097273    11.00000    0.04978    0.06063 =
         0.03693    0.01391    0.01856    0.01686
AFIX  43
H5    2    0.201424    0.251221    1.173710    11.00000   -1.20000
AFIX   0
C1    1    0.302354    0.106137    0.716825    11.00000    0.07089    0.04919 =
         0.04539    0.00633    0.02356    0.02989
AFIX  43
H1    2    0.320267    0.059871    0.630904    11.00000   -1.20000
AFIX   0
H1A   2    0.643245    0.214219    0.467060    11.00000    0.10765
H1B   2    0.503650    0.154159    0.352989    11.00000    0.08151
HKLF    4

REM  lxy0609-qBr in P1
REM R1 =  0.0408 for    1748 Fo > 4sig(Fo)  and  0.0611 for all    2271 data
REM    136 parameters refined using      2 restraints

END

WGHT      0.0418      0.0000

REM Highest difference peak  0.343,  deepest hole -0.536,  1-sigma level  0.090
Q1    1   0.0605  0.7355  1.0611  11.00000  0.05    0.34
Q2    1   0.0409  0.3107  0.8941  11.00000  0.05    0.29
Q3    1   0.0203  0.5671  0.9771  11.00000  0.05    0.28
Q4    1   0.0533  0.6262  1.0995  11.00000  0.05    0.27
Q5    1   0.0081  0.3338  1.0549  11.00000  0.05    0.27
Q6    1   0.5000  0.5000  1.0000  10.50000  0.05    0.26
Q7    1   0.0702 -0.1413  1.0644  11.00000  0.05    0.26
Q8    1   0.4891  0.5159  0.6784  11.00000  0.05    0.26
Q9    1   0.0590  0.1875  0.8472  11.00000  0.05    0.24
Q10   1   0.0584  0.5989  1.2006  11.00000  0.05    0.24
Q11   1   0.9594  0.0979  0.7196  11.00000  0.05    0.24
Q12   1  -0.0340  0.1884  0.5303  11.00000  0.05    0.24
Q13   1   0.4809  0.0333  0.5446  11.00000  0.05    0.24
Q14   1   0.0304  0.4385  0.8657  11.00000  0.05    0.24
Q15   1   0.4478  0.3411  1.1998  11.00000  0.05    0.23
Q16   1   0.4142  0.0305  0.6254  11.00000  0.05    0.23
Q17   1   0.4486  0.2564  0.4054  11.00000  0.05    0.23
Q18   1   0.0546  0.4166  0.5917  11.00000  0.05    0.23
Q19   1   0.3958  0.0324  0.2665  11.00000  0.05    0.22
Q20   1  -0.0013  0.0534  0.4641  11.00000  0.05    0.22
Q21   1   0.4936  0.6699  0.9194  11.00000  0.05    0.22
Q22   1   0.4523 -0.0005  1.1604  11.00000  0.05    0.22
Q23   1   0.4752  0.6009  0.9607  11.00000  0.05    0.22
Q24   1   0.1524 -0.0614  0.4811  11.00000  0.05    0.22
Q25   1   0.5814  0.1125  0.6619  11.00000  0.05    0.22
;
_shelx_res_checksum              31061
_shelx_hkl_file
;
 -10   2   2 1399.71 774.802   4
 -10   2   3 216.378 568.195   4
 -10   2   4-875.757 760.461   4
 -10   2   5-444.545 703.608   1
 -10   2   5 968.204 665.616   4
 -10   2   6 103.709 491.335   1
 -10   2   7-1021.26 743.847   1
 -10   3   0-153.549 537.522   4
 -10   3   1-279.943 564.502   4
 -10   3   2 1256.30 630.440   4
 -10   3   3 60.8261 668.454   1
 -10   3   3 625.638 512.821   4
 -10   3   4 955.593 694.552   1
 -10   3   4 688.453 537.469   4
 -10   3   5 20.0778 606.920   1
 -10   3   6 83.1821 485.224   1
 -10   3   7 1152.23 649.798   1
 -10   4   0-800.863 631.384   4
 -10   4   1 799.045 663.929   4
 -10   4   2 1379.06 607.768   4
 -10   4   3-956.990 631.473   4
 -10   4   3-959.629 633.691   1
 -10   4   4-504.165 681.674   1
 -10   4   5-620.535 479.713   1
 -10   4   6-914.910 675.154   1
 -10   5  -1 354.318 500.144   4
 -10   5   0 455.101 400.801   4
 -10   5   3 288.926 468.545   1
 -10   5   4 826.162 469.468   1
 -10   5   5 1257.59 728.641   1
 -10   5   6 1121.41 654.494   1
 -10   6   4-415.509 551.540   1
 -10   6   5 260.702 543.410   1
  -9  -2   5-567.343 599.923   2
  -9  -1   3-345.289 788.888   4
  -9  -1   4-80.5892 645.256   4
  -9  -1   4 354.660 526.913   2
  -9  -1   5 1946.44 710.762   2
  -9  -1   5 1074.30 710.952   4
  -9  -1   6 418.923 506.539   2
  -9   0   1 341.291 712.267   4
  -9   0   2 2156.01 779.541   4
  -9   0   3 1188.83 602.944   4
  -9   0   4-1034.56 783.466   4
  -9   0   4 181.833 550.843   2
  -9   0   5 2238.47 799.485   4
  -9   0   5 3670.06 965.918   2
  -9   0   6 288.681 558.429   2
  -9   0   7-500.887 695.785   2
  -9   1  -1 1078.66 637.634   4
  -9   1  -1 584.288 601.949   1
  -9   1   0 2205.65 755.606   4
  -9   1   0 784.527 614.046   1
  -9   1   1 354.048 669.237   4
  -9   1   2 4160.77 949.785   4
  -9   1   3 513.947 472.993   4
  -9   1   4 791.911 469.285   4
  -9   1   5 1062.10 708.332   2
  -9   1   5 1647.22 553.363   4
  -9   1   6 958.178 698.420   2
  -9   1   7-139.528 802.210   2
  -9   1   8 324.917 492.944   5
  -9   2  -2-1098.33 678.672   1
  -9   2  -2 330.661 477.766   4
  -9   2  -1 136.883 624.242   4
  -9   2  -1 1456.48 716.796   1
  -9   2   0 661.804 529.952   1
  -9   2   0-463.532 529.090   4
  -9   2   1 2262.60 760.643   1
  -9   2   1 3498.54 908.359   4
  -9   2   2-79.3280 583.627   4
  -9   2   2 1333.24 695.518   1
  -9   2   3 323.687 541.314   4
  -9   2   3 399.445 429.607   1
  -9   2   4 2878.05 780.305   1
  -9   2   4 3352.03 782.238   4
  -9   2   5 235.197 497.615   4
  -9   2   6 2343.79 740.112   1
  -9   2   7 1907.52 856.063   2
  -9   2   7 1883.30 687.569   1
  -9   2   8-35.2092 586.243   5
  -9   3  -2 774.739 561.385   1
  -9   3  -2 941.484 611.145   4
  -9   3  -1 1507.86 651.898   1
  -9   3  -1 2463.57 769.417   4
  -9   3   0 299.464 461.959   1
  -9   3   0-876.967 749.511   4
  -9   3   1-164.809 583.294   1
  -9   3   1 1119.93 697.263   4
  -9   3   2 537.907 514.593   1
  -9   3   2-1061.40 697.197   4
  -9   3   3 2206.44 735.201   1
  -9   3   3 2854.16 748.307   4
  -9   3   4 933.337 622.359   1
  -9   3   4 1366.25 553.173   4
  -9   3   5-311.553 508.034   1
  -9   3   6 2868.12 752.928   1
  -9   3   7-189.382 459.201   1
  -9   3   8-355.160 677.970   5
  -9   4  -3 1213.74 633.771   4
  -9   4  -2 3448.67 964.643   4
  -9   4  -2 3200.64 807.129   1
  -9   4  -1 833.797 709.875   4
  -9   4  -1-136.706 522.028   1
  -9   4   0 1838.15 720.675   4
  -9   4   0 399.616 612.340   1
  -9   4   1 1616.66 641.952   4
  -9   4   1 1474.15 661.341   1
  -9   4   2-140.215 388.634   4
  -9   4   2 324.930 495.333   1
  -9   4   3 2337.09 603.133   4
  -9   4   3 3959.95 880.403   1
  -9   4   4-366.412 440.067   4
  -9   4   4-437.994 472.262   1
  -9   4   5 989.279 558.722   1
  -9   4   6 682.485 509.586   1
  -9   4   7-115.344 442.944   1
  -9   5  -3 290.750 629.512   4
  -9   5  -2 437.866 610.078   1
  -9   5  -2-299.944 574.108   4
  -9   5  -1 565.295 594.245   1
  -9   5  -1 239.323 537.243   4
  -9   5   0 1690.76 645.647   1
  -9   5   0 1476.24 610.490   4
  -9   5   1-482.326 574.169   1
  -9   5   1-530.400 627.367   4
  -9   5   2 4462.02 875.020   1
  -9   5   2 4117.52 774.607   4
  -9   5   3-825.435 520.595   1
  -9   5   4 760.051 633.474   1
  -9   5   5 1996.21 569.498   1
  -9   5   6 572.137 459.718   1
  -9   6  -3-152.205 615.093   4
  -9   6  -3 589.888 543.620   3
  -9   6  -2-694.998 649.862   4
  -9   6  -2-1295.59 670.326   3
  -9   6  -1 1416.58 576.498   4
  -9   6  -1 1655.37 713.024   1
  -9   6   0 141.765 453.970   1
  -9   6   1 995.562 462.604   1
  -9   6   2 1627.27 642.567   1
  -9   6   3 1988.67 728.727   1
  -9   6   4 597.678 546.827   1
  -9   6   5-982.517 568.747   1
  -9   6   6 529.275 468.530   1
  -9   6   7 991.940 629.565   3
  -9   7   0 281.014 658.712   3
  -9   7   1-755.983 756.674   3
  -9   7   2-603.122 719.342   3
  -9   7   3-564.904 684.229   3
  -9   7   4 442.327 605.002   3
  -8  -3   3 1780.36 806.563   4
  -8  -3   4 868.626 809.869   4
  -8  -3   4 165.836 441.029   2
  -8  -3   5 1482.83 621.519   2
  -8  -3   6 1264.88 763.168   2
  -8  -2   0 1343.36 864.405   4
  -8  -2   1 444.522 555.684   4
  -8  -2   2 1274.28 727.922   4
  -8  -2   3 2821.28 720.750   2
  -8  -2   3 3550.37 950.531   4
  -8  -2   4-1055.66 872.195   4
  -8  -2   4 1992.80 656.803   2
  -8  -2   5 2278.48 679.964   2
  -8  -2   6 343.892 602.593   2
  -8  -2   7 1093.97 713.715   2
  -8  -1  -3 1899.77 768.502   1
  -8  -1  -1 294.123 608.986   4
  -8  -1   0 3223.67 862.123   4
  -8  -1   1 1169.38 688.721   4
  -8  -1   2 5562.47 871.386   2
  -8  -1   2 5667.34 1033.90   4
  -8  -1   3-796.926 530.212   2
  -8  -1   3 996.660 733.611   4
  -8  -1   4 6262.28 1056.77   2
  -8  -1   4 8177.75 1199.05   4
  -8  -1   5 2083.95 756.485   2
  -8  -1   6 1209.13 704.457   2
  -8  -1   7 11616.2 1519.66   2
  -8  -1   8-445.439 487.342   2
  -8   0  -4 1609.55 610.526   1
  -8   0  -3-111.079 534.120   1
  -8   0  -2-633.569 575.378   4
  -8   0  -2-583.108 548.818   1
  -8   0  -1 10594.9 1433.34   4
  -8   0   0 325.724 505.076   4
  -8   0   1 6869.14 1080.48   4
  -8   0   2 1326.10 609.726   4
  -8   0   3 937.629 547.752   2
  -8   0   3 646.904 459.905   4
  -8   0   4 4863.27 867.819   2
  -8   0   4 4486.74 957.018   4
  -8   0   5 556.624 575.194   4
  -8   0   5 955.805 572.778   2
  -8   0   6 15363.2 1649.84   2
  -8   0   7 1795.19 811.316   2
  -8   0   7-174.150 533.057   5
  -8   0   8 549.710 641.935   2
  -8   1  -4 362.694 495.679   1
  -8   1  -3 131.130 487.796   4
  -8   1  -3 255.987 452.777   1
  -8   1  -2 10589.0 1345.82   1
  -8   1  -2 9778.80 1337.82   4
  -8   1  -1 703.611 613.703   4
  -8   1  -1-515.355 573.534   1
  -8   1   0 3168.98 864.995   4
  -8   1   1 6013.84 1051.67   4
  -8   1   2 796.078 593.155   4
  -8   1   3 8776.83 1156.02   4
  -8   1   4 179.964 562.048   4
  -8   1   4 289.843 478.331   2
  -8   1   5 4466.25 1016.11   2
  -8   1   5 4333.41 837.862   4
  -8   1   6 1511.25 701.923   2
  -8   1   7 180.758 528.032   2
  -8   1   8 5814.10 1290.79   2
  -8   1   8 6602.38 1089.69   5
  -8   1   9 1424.33 700.133   5
  -8   1  10 421.069 627.754   5
  -8   2  -5 2344.07 856.720   1
  -8   2  -4 81.8208 600.675   4
  -8   2  -4 945.479 618.752   1
  -8   2  -3 2314.80 697.958   1
  -8   2  -3 1859.99 687.483   4
  -8   2  -2 2508.84 837.221   4
  -8   2  -2 1799.47 687.185   1
  -8   2  -1 660.169 557.040   4
  -8   2  -1 977.206 689.644   1
  -8   2   0 6749.56 1115.89   1
  -8   2   0 5654.28 955.885   4
  -8   2   1 899.574 586.515   1
  -8   2   1 1609.84 619.885   4
  -8   2   2 9123.54 1148.63   1
  -8   2   2 9902.22 1186.56   4
  -8   2   3 8629.20 1095.19   4
  -8   2   4 195.305 357.077   4
  -8   2   5 4051.89 947.219   2
  -8   2   6 1089.61 708.624   2
  -8   2   7 929.518 528.201   2
  -8   2   8 422.945 499.058   5
  -8   2   8 960.526 492.520   1
  -8   2   8 2182.63 869.494   2
  -8   2   9 795.795 951.348   2
  -8   2   9 1134.59 658.128   5
  -8   3  -5 279.682 496.046   1
  -8   3  -4 1527.98 721.997   1
  -8   3  -4 1326.30 820.317   4
  -8   3  -3 2098.66 627.412   1
  -8   3  -3 3240.42 856.673   4
  -8   3  -2-422.584 487.583   4
  -8   3  -2 366.936 499.487   1
  -8   3  -1 2701.21 780.348   1
  -8   3  -1 1906.12 671.970   4
  -8   3   0 3521.56 809.744   4
  -8   3   0 4242.14 856.166   1
  -8   3   1 227.190 482.843   4
  -8   3   1 292.699 475.893   1
  -8   3   2 6212.56 904.599   4
  -8   3   2 6975.30 1029.24   1
  -8   3   3 128.228 457.455   1
  -8   3   3 603.630 369.732   4
  -8   3   4 2718.61 652.604   1
  -8   3   4 1626.93 533.284   4
  -8   3   5 3280.36 674.922   1
  -8   3   6-52.9552 350.744   1
  -8   3   7 318.900 425.711   1
  -8   3   8 1613.45 610.203   5
  -8   3   9-1149.16 699.548   5
  -8   4  -5 1175.39 577.173   1
  -8   4  -4 544.533 663.534   4
  -8   4  -4 1842.42 745.401   1
  -8   4  -3 1676.56 744.313   1
  -8   4  -3 254.920 680.874   4
  -8   4  -2 985.335 614.629   4
  -8   4  -2-248.598 430.104   1
  -8   4  -1 1093.22 520.680   1
  -8   4  -1 1984.50 699.154   4
  -8   4   0 494.036 479.282   4
  -8   4   0 1735.74 646.082   1
  -8   4   1 984.378 514.796   4
  -8   4   1 322.959 486.988   1
  -8   4   2 2185.85 700.551   1
  -8   4   2 1863.90 555.826   4
  -8   4   3 1179.87 522.804   1
  -8   4   3 77.8137 339.495   4
  -8   4   4 2900.47 684.796   1
  -8   4   4 3728.05 653.548   4
  -8   4   5-622.288 515.515   1
  -8   4   6 128.410 343.534   1
  -8   4   7 6254.17 805.969   1
  -8   4   8 455.530 627.079   5
  -8   5  -5-1010.51 789.776   4
  -8   5  -4 320.564 522.483   4
  -8   5  -4-621.430 500.236   1
  -8   5  -4 527.558 452.043   3
  -8   5  -3-835.874 572.402   4
  -8   5  -3-531.321 571.084   1
  -8   5  -2-739.604 635.750   4
  -8   5  -2 265.530 425.535   1
  -8   5  -1 3209.19 788.285   1
  -8   5  -1 2782.60 647.211   4
  -8   5   0-110.803 515.331   1
  -8   5   0 1928.97 695.097   4
  -8   5   1 3955.99 739.878   4
  -8   5   1 4421.29 816.003   1
  -8   5   2 191.832 510.783   1
  -8   5   2 469.667 321.544   4
  -8   5   3 1334.93 554.216   1
  -8   5   3 505.384 357.094   4
  -8   5   4 10541.7 1088.69   1
  -8   5   5 333.983 400.744   1
  -8   5   6 2793.95 597.928   1
  -8   5   8 742.708 711.754   5
  -8   6  -5-1480.48 833.905   4
  -8   6  -4 3120.88 854.854   4
  -8   6  -4 1365.58 606.526   3
  -8   6  -3-102.279 537.768   3
  -8   6  -3 45.6653 471.050   4
  -8   6  -2 1882.60 631.700   3
  -8   6  -2 2794.20 764.634   4
  -8   6  -1 871.101 480.033   3
  -8   6  -1 388.178 544.512   1
  -8   6  -1 137.149 434.769   4
  -8   6   0 1310.31 532.121   4
  -8   6   0 1814.52 618.189   1
  -8   6   1 1387.39 615.648   1
  -8   6   2 2856.52 690.104   1
  -8   6   3 12182.1 1199.54   1
  -8   6   4 672.175 455.936   1
  -8   6   5 963.222 444.706   1
  -8   6   5 1024.50 613.405   3
  -8   6   6 1109.68 613.585   3
  -8   6   7-657.041 567.140   3
  -8   6   8 733.003 531.056   3
  -8   7  -5 2636.22 822.239   4
  -8   7  -4-100.404 479.744   4
  -8   7  -4 755.945 607.284   3
  -8   7  -3 21.0370 529.053   3
  -8   7  -2 176.376 550.132   3
  -8   7  -1-281.156 506.012   3
  -8   7   0 1663.19 580.069   3
  -8   7   1 156.444 571.214   3
  -8   7   2 2226.33 668.828   3
  -8   7   3 1154.79 532.256   3
  -8   7   4 884.475 652.356   3
  -8   7   5 2866.22 644.121   3
  -8   7   6 682.680 527.342   3
  -8   7   7 1045.64 539.861   3
  -8   7   8 471.967 378.854   3
  -8   8  -3-480.265 773.308   3
  -8   8  -2-476.709 602.576   3
  -8   8  -1 1881.62 667.815   3
  -8   8   0 871.156 508.009   3
  -8   8   1 61.6809 585.523   3
  -8   8   2 779.214 625.939   3
  -8   8   3 859.075 684.031   3
  -8   8   4 1479.31 594.737   3
  -8   8   5 1111.81 622.054   3
  -8   8   6 148.732 538.140   3
  -7  -5   5 498.145 614.795   2
  -7  -5   6 328.282 663.278   2
  -7  -4   0 435.253 649.453   4
  -7  -4   1 458.177 696.084   4
  -7  -4   2 4672.93 990.978   4
  -7  -4   3-523.601 760.637   4
  -7  -4   4 2733.90 682.655   2
  -7  -4   4 326.587 629.486   4
  -7  -4   5 758.952 616.377   2
  -7  -4   6 569.361 685.619   2
  -7  -4   7 3925.01 973.315   2
  -7  -3  -2-988.615 704.205   4
  -7  -3  -1 4581.01 1051.53   4
  -7  -3   0-249.070 604.716   4
  -7  -3   1 2762.98 854.534   4
  -7  -3   2 3974.26 953.324   4
  -7  -3   3 4027.15 952.862   4
  -7  -3   3 3402.96 705.209   2
  -7  -3   4 4827.23 892.158   2
  -7  -3   4 3660.30 901.375   4
  -7  -3   5-553.465 620.985   2
  -7  -3   6 3346.96 915.484   2
  -7  -3   7 2704.20 866.736   2
  -7  -3   8 528.200 664.385   2
  -7  -2  -3 1153.05 597.023   4
  -7  -2  -2 2604.32 894.274   4
  -7  -2  -1 2072.71 752.227   4
  -7  -2   0 2401.67 752.720   4
  -7  -2   1 10329.4 1297.96   4
  -7  -2   2 2013.38 492.930   2
  -7  -2   2 1574.80 682.704   4
  -7  -2   3 3699.83 854.774   4
  -7  -2   3 4941.96 835.560   2
  -7  -2   4 2635.66 722.453   2
  -7  -2   4 3843.92 851.346   4
  -7  -2   5 2506.06 723.914   2
  -7  -2   6 10941.0 1326.01   2
  -7  -2   7 197.079 508.714   2
  -7  -2   8 1815.42 834.791   2
  -7  -2   9 1440.38 882.652   2
  -7  -1  -4-1348.44 697.795   1
  -7  -1  -4 691.558 715.589   4
  -7  -1  -3 2456.34 818.291   4
  -7  -1  -2 9355.35 1297.69   4
  -7  -1  -1 1917.68 565.416   4
  -7  -1   0 8738.09 1217.10   4
  -7  -1   1 4621.67 733.983   2
  -7  -1   1 3717.61 818.068   4
  -7  -1   2 1835.15 685.851   4
  -7  -1   2 2864.13 662.450   2
  -7  -1   3 7739.45 1097.17   4
  -7  -1   3 8170.08 991.292   2
  -7  -1   4-205.667 523.519   4
  -7  -1   4-47.9148 558.151   2
  -7  -1   5 8242.76 1153.95   2
  -7  -1   6-574.150 559.921   2
  -7  -1   7 1646.84 560.025   5
  -7  -1   7 1017.15 529.211   2
  -7  -1   8 2558.82 844.278   2
  -7  -1   9-646.783 649.225   2
  -7   0  -5 1904.43 656.878   1
  -7   0  -4 80.4549 528.239   4
  -7   0  -4 1120.51 512.604   1
  -7   0  -3 12574.8 1366.96   1
  -7   0  -3 9984.27 1331.49   4
  -7   0  -2 1623.46 743.294   4
  -7   0  -1 2721.64 787.097   4
  -7   0   0 6768.07 1053.98   4
  -7   0   1-391.265 601.404   4
  -7   0   2 12943.0 1204.58   2
  -7   0   2 13183.5 1350.37   4
  -7   0   3 3371.49 785.289   4
  -7   0   3 4134.07 747.382   2
  -7   0   4 1501.92 583.501   4
  -7   0   4 2821.07 722.231   2
  -7   0   5 8344.06 1083.07   2
  -7   0   6 2064.59 751.102   2
  -7   0   7-883.462 769.867   2
  -7   0   7 324.347 404.848   5
  -7   0   8 4486.79 827.908   5
  -7   0   8 6322.19 1201.28   2
  -7   0   9-181.419 409.835   5
  -7   0   9 382.487 619.936   2
  -7   0  10 3391.69 845.989   5
  -7   0  11 52.7953 496.380   5
  -7   1  -5 224.203 527.180   4
  -7   1  -5-651.672 589.315   1
  -7   1  -4 2196.28 595.929   1
  -7   1  -4 1519.65 662.764   4
  -7   1  -3 2868.94 660.173   4
  -7   1  -3 3120.17 742.597   1
  -7   1  -2 2843.79 804.524   4
  -7   1  -2 756.905 462.218   1
  -7   1  -1 2692.39 694.805   4
  -7   1   0 3254.30 722.385   4
  -7   1   1 6981.61 1034.45   4
  -7   1   2 11211.5 1199.63   4
  -7   1   3 1315.58 507.767   4
  -7   1   3 1146.43 525.537   2
  -7   1   4 8979.70 1142.57   2
  -7   1   4 11061.5 1135.36   4
  -7   1   5 8086.05 1171.67   2
  -7   1   6 415.264 579.375   2
  -7   1   7 9622.03 1367.87   2
  -7   1   7 7895.76 979.581   5
  -7   1   8 78.7878 658.230   2
  -7   1   8 459.302 536.091   5
  -7   1   9 1705.97 696.684   5
  -7   1   9 2235.20 978.623   2
  -7   1  10-480.853 761.852   2
  -7   1  10 507.952 605.877   5
  -7   2  -6 283.530 423.462   1
  -7   2  -5 2229.01 802.510   4
  -7   2  -5-182.838 515.434   1
  -7   2  -4 3766.35 900.973   4
  -7   2  -4 1798.13 573.415   1
  -7   2  -3 529.021 517.445   4
  -7   2  -3 743.986 602.670   1
  -7   2  -2 3940.49 897.193   4
  -7   2  -2 3481.02 723.560   1
  -7   2  -1 7676.69 1009.96   1
  -7   2  -1 9813.09 1209.62   4
  -7   2   0-42.3403 487.783   4
  -7   2   0-477.808 513.705   1
  -7   2   1 13204.1 1302.76   4
  -7   2   1 12942.7 1282.41   1
  -7   2   2 319.664 412.455   4
  -7   2   3-371.481 484.082   4
  -7   2   4 18720.2 1642.29   2
  -7   2   4 18435.5 1337.20   4
  -7   2   5-7.81924 549.856   2
  -7   2   6 8399.87 1246.00   2
  -7   2   7 2685.68 925.356   2
  -7   2   8 1909.99 827.085   2
  -7   2   8 2224.45 779.202   5
  -7   2   8 1720.18 466.256   1
  -7   2   9 2370.25 924.662   2
  -7   2   9 1630.27 774.183   5
  -7   2  10 2786.52 895.494   2
  -7   2  10 1347.99 586.864   5
  -7   3  -6 553.437 751.097   4
  -7   3  -6 30.3361 510.978   1
  -7   3  -5 59.5786 533.754   4
  -7   3  -5 111.371 512.842   1
  -7   3  -4 4134.28 894.251   4
  -7   3  -4 4043.34 806.826   1
  -7   3  -3 109.352 443.187   4
  -7   3  -3 499.932 403.240   1
  -7   3  -2 6582.73 1028.46   4
  -7   3  -2 7024.42 959.681   1
  -7   3  -1 4156.41 834.011   4
  -7   3  -1 4131.23 804.715   1
  -7   3   0 9699.74 1096.05   1
  -7   3   0 10515.7 1163.71   4
  -7   3   1 7517.28 919.890   4
  -7   3   1 8830.98 1019.97   1
  -7   3   2-98.0819 363.566   1
  -7   3   2 524.377 355.680   4
  -7   3   3 8460.05 896.103   4
  -7   3   3 7473.18 973.618   1
  -7   3   4 645.909 324.052   4
  -7   3   4 666.225 447.102   1
  -7   3   5 2597.69 598.278   1
  -7   3   6 13397.9 1174.29   1
  -7   3   7 1477.54 635.890   2
  -7   3   7 1773.62 468.114   1
  -7   3   8 2060.98 948.484   2
  -7   3   8 2318.35 736.414   5
  -7   3   9 1865.39 709.480   5
  -7   3   9 2314.66 1024.32   2
  -7   3  10 547.876 714.819   5
  -7   3  10 436.922 653.898   2
  -7   4  -6 1508.42 803.222   4
  -7   4  -5 1097.36 526.885   1
  -7   4  -5 2934.21 770.934   4
  -7   4  -4 469.251 584.364   4
  -7   4  -4 349.517 503.426   1
  -7   4  -3 1363.60 626.280   4
  -7   4  -3 831.532 505.450   1
  -7   4  -2 11488.7 1266.39   4
  -7   4  -2 10320.2 1142.00   1
  -7   4  -1 4920.03 787.513   1
  -7   4  -1 6742.78 973.573   4
  -7   4   0 6683.89 919.385   4
  -7   4   0 7414.52 961.361   1
  -7   4   1 1115.36 393.111   4
  -7   4   1 1651.41 603.396   1
  -7   4   2 10869.4 1084.04   1
  -7   4   2 10548.7 964.982   4
  -7   4   3 12479.1 972.185   4
  -7   4   3 11804.5 1077.49   1
  -7   4   4 209.733 358.723   1
  -7   4   5 7150.10 783.652   1
  -7   4   6 1709.07 477.643   1
  -7   4   7 861.518 350.849   1
  -7   4   8 421.317 626.919   5
  -7   4   9-558.272 686.945   5
  -7   5  -6 1719.12 774.967   4
  -7   5  -5 2579.90 738.510   4
  -7   5  -4 1715.69 661.275   4
  -7   5  -4 1798.48 584.099   3
  -7   5  -3 6168.54 919.439   1
  -7   5  -3 6156.62 893.146   3
  -7   5  -3 5184.76 937.517   4
  -7   5  -2 370.841 463.528   4
  -7   5  -2-204.804 499.703   1
  -7   5  -1 4776.91 824.289   1
  -7   5  -1 5644.86 893.469   4
  -7   5   0 3248.56 685.302   1
  -7   5   0 4172.02 734.500   4
  -7   5   1 1124.83 483.030   1
  -7   5   1 1358.52 406.554   4
  -7   5   2 10215.6 866.903   4
  -7   5   2 12705.3 1164.69   1
  -7   5   3-303.482 445.890   1
  -7   5   4 2841.27 565.030   1
  -7   5   5 1829.29 467.922   1
  -7   5   6-65.8058 287.071   1
  -7   5   7 1573.31 524.949   3
  -7   5   8 455.823 532.362   5
  -7   5   8 279.542 375.415   3
  -7   6  -6 4254.64 947.876   4
  -7   6  -5 581.061 455.346   3
  -7   6  -5 547.405 479.090   4
  -7   6  -4 2824.26 706.493   3
  -7   6  -4 1853.84 650.609   4
  -7   6  -3 737.353 456.303   4
  -7   6  -3 764.436 460.792   3
  -7   6  -2 138.159 370.738   4
  -7   6  -2 588.187 458.720   3
  -7   6  -1 5467.65 843.884   4
  -7   6  -1 4807.31 822.026   3
  -7   6   0 1306.79 491.406   4
  -7   6   0 421.791 481.929   3
  -7   6   1 1807.05 528.264   1
  -7   6   1 1166.72 562.813   3
  -7   6   2 1602.90 502.176   1
  -7   6   2 2310.91 688.327   3
  -7   6   3 10345.3 1121.35   3
  -7   6   4 359.952 499.942   3
  -7   6   5 202.543 489.438   3
  -7   6   6 1750.31 543.079   3
  -7   6   7 1252.24 719.508   5
  -7   6   7 1213.95 482.739   3
  -7   6   8-538.222 499.619   3
  -7   6   8 1448.11 822.070   5
  -7   7  -6-47.4931 541.022   4
  -7   7  -5 3290.94 822.868   4
  -7   7  -5 2127.83 650.517   3
  -7   7  -4 274.643 448.655   3
  -7   7  -4-509.092 515.593   4
  -7   7  -3-173.543 388.445   4
  -7   7  -3-310.527 426.194   3
  -7   7  -2 1939.79 603.802   3
  -7   7  -2 1303.13 499.782   4
  -7   7  -1 233.439 466.926   3
  -7   7   0 2312.97 625.250   3
  -7   7   1 2678.19 604.937   3
  -7   7   2 500.956 471.395   3
  -7   7   3 36.7463 446.266   3
  -7   7   4 1086.57 504.108   3
  -7   7   5-259.861 389.586   3
  -7   7   6 794.986 476.916   3
  -7   7   7-149.215 557.077   5
  -7   7   7-549.694 463.890   3
  -7   8  -5 245.744 398.082   3
  -7   8  -4 1291.79 669.811   3
  -7   8  -3 751.455 596.014   3
  -7   8  -2 288.600 600.086   3
  -7   8  -1-0.54458 410.540   3
  -7   8   0 14.0540 453.268   3
  -7   8   1 3767.31 751.274   3
  -7   8   2 543.516 508.995   3
  -7   8   3 1674.50 670.348   3
  -7   8   4 1239.12 688.211   3
  -7   8   5 549.529 513.395   3
  -7   8   6 137.204 456.917   3
  -7   8   7 97.2127 449.158   3
  -7   9  -3 1874.52 701.541   3
  -7   9  -2-490.564 572.782   3
  -7   9  -1 845.762 666.174   3
  -7   9   0 164.334 534.550   3
  -7   9   1-210.588 523.599   3
  -7   9   2 43.9989 580.286   3
  -7   9   3 2581.89 736.449   3
  -7   9   4 1623.86 654.887   3
  -7   9   5 200.769 363.352   3
  -6  -6   1 205.733 647.285   4
  -6  -6   2 5661.56 1113.79   4
  -6  -6   5 1507.17 655.446   2
  -6  -6   6 821.725 577.598   2
  -6  -5  -2-275.674 675.781   4
  -6  -5  -1 2999.17 935.910   4
  -6  -5   0-134.998 503.866   4
  -6  -5   1 4802.06 999.230   4
  -6  -5   2 664.571 622.215   4
  -6  -5   3 2881.69 772.805   4
  -6  -5   3 3107.71 699.729   2
  -6  -5   4 3729.75 788.151   2
  -6  -5   5 267.055 464.329   2
  -6  -5   6 7330.77 1114.46   2
  -6  -5   7-452.867 454.549   2
  -6  -4  -3 475.566 618.831   4
  -6  -4  -2 5834.46 1048.34   4
  -6  -4  -1 120.111 588.055   4
  -6  -4   0 2258.64 705.145   4
  -6  -4   1 2277.91 750.129   4
  -6  -4   2 867.790 455.450   2
  -6  -4   2 795.401 682.725   4
  -6  -4   3 3751.70 834.994   4
  -6  -4   3 4636.04 756.564   2
  -6  -4   4-309.893 458.001   2
  -6  -4   5 6560.48 1011.98   2
  -6  -4   6 4061.10 881.654   2
  -6  -4   7 1509.02 635.939   2
  -6  -4   8 6062.34 1234.26   2
  -6  -3  -4-491.180 480.468   4
  -6  -3  -3 3785.66 861.339   4
  -6  -3  -2 1322.17 655.527   4
  -6  -3  -1 3236.38 754.648   4
  -6  -3   0 8846.00 1240.29   4
  -6  -3   1 76.4385 302.820   2
  -6  -3   1 708.410 473.592   4
  -6  -3   2 5054.14 943.998   4
  -6  -3   2 4520.63 712.570   2
  -6  -3   3 8953.91 1181.06   4
  -6  -3   3 9246.48 1042.60   2
  -6  -3   4 1317.00 653.840   4
  -6  -3   4 583.393 514.472   2
  -6  -3   5 10760.0 1213.42   2
  -6  -3   6 2294.53 719.063   2
  -6  -3   7 3505.96 934.705   2
  -6  -3   8 4296.37 981.916   2
  -6  -3   9-124.731 481.705   2
  -6  -2  -5 2017.20 743.442   4
  -6  -2  -4 1943.87 766.080   4
  -6  -2  -3 5480.16 1017.91   4
  -6  -2  -2-53.5562 554.207   4
  -6  -2  -1 8369.51 1079.23   4
  -6  -2   0 6451.02 1038.84   4
  -6  -2   1 2965.04 518.274   2
  -6  -2   1 3659.74 885.358   4
  -6  -2   2 14491.8 1425.91   4
  -6  -2   2 14463.5 1199.23   2
  -6  -2   3 10348.7 1097.50   2
  -6  -2   3 9298.69 1154.39   4
  -6  -2   4 8937.10 1103.00   4
  -6  -2   4 8154.28 1014.96   2
  -6  -2   5 10161.6 1146.94   2
  -6  -2   6 1137.87 537.167   2
  -6  -2   7 6767.47 1139.79   2
  -6  -2   8 1377.75 761.295   2
  -6  -2   9 3737.17 1050.57   2
  -6  -2  10 5063.00 1243.15   2
  -6  -1  -5 370.615 483.060   1
  -6  -1  -5-442.666 653.252   4
  -6  -1  -4 6258.04 1114.75   4
  -6  -1  -3 4033.20 860.168   4
  -6  -1  -2 1402.52 648.439   4
  -6  -1  -1 9578.28 1208.80   4
  -6  -1   0 5375.57 681.286   2
  -6  -1   0 2919.45 633.202   4
  -6  -1   1 11647.9 1241.88   4
  -6  -1   1 11575.7 1006.25   2
  -6  -1   2 15901.2 1433.56   4
  -6  -1   2 16436.4 1219.66   2
  -6  -1   3 8705.11 1089.25   4
  -6  -1   3 8994.97 1009.98   2
  -6  -1   4 26454.4 1757.97   2
  -6  -1   4 29549.1 1863.51   4
  -6  -1   5 478.762 443.392   2
  -6  -1   6 2922.79 529.936   5
  -6  -1   6 2134.64 693.299   2
  -6  -1   7 47465.9 2106.09   5
  -6  -1   7 49925.2 2870.25   2
  -6  -1   8 4687.09 707.190   5
  -6  -1   8 6579.33 1136.77   2
  -6  -1   9 6003.97 1178.87   2
  -6  -1   9 4528.59 799.709   5
  -6  -1  10 315.540 776.395   2
  -6  -1  10 1382.14 682.721   5
  -6   0  -6 2868.63 951.990   4
  -6   0  -5 2414.33 664.008   1
  -6   0  -5 1453.88 597.468   4
  -6   0  -4 7496.67 1145.48   4
  -6   0  -4 7575.00 998.003   1
  -6   0  -3 53.6751 525.589   4
  -6   0  -2 3057.10 713.993   4
  -6   0  -1 50162.6 2639.64   4
  -6   0   0 24774.0 1770.77   4
  -6   0   1 22430.5 1637.69   4
  -6   0   1 25528.3 1541.13   2
  -6   0   2-713.323 521.627   4
  -6   0   2-160.650 364.634   2
  -6   0   3 22535.1 1567.63   4
  -6   0   3 22241.4 1545.32   2
  -6   0   4 23889.1 1574.30   4
  -6   0   4 22980.3 1632.58   2
  -6   0   5 1162.90 511.069   2
  -6   0   6 50506.6 2752.49   2
  -6   0   7-145.867 385.975   5
  -6   0   7-107.723 480.414   2
  -6   0   8 7841.33 1211.09   2
  -6   0   8 6795.78 933.731   5
  -6   0   9 8138.39 1023.90   5
  -6   0   9 7865.49 1230.46   2
  -6   0  10 557.379 538.222   5
  -6   0  10 358.524 654.971   2
  -6   0  11 2838.73 1047.12   2
  -6   0  11 3876.49 897.377   5
  -6   1  -6-152.317 391.600   1
  -6   1  -6-1339.16 823.580   4
  -6   1  -5 4134.39 829.990   4
  -6   1  -5 4412.70 776.752   1
  -6   1  -4 3448.07 859.895   4
  -6   1  -4 3691.60 751.533   1
  -6   1  -3 3293.15 645.069   1
  -6   1  -3 3061.90 734.243   4
  -6   1  -2 43668.4 2501.16   4
  -6   1  -2 39555.3 2155.47   1
  -6   1  -1 2550.13 662.947   4
  -6   1   0 36872.2 2148.07   4
  -6   1   1 27838.1 1794.66   4
  -6   1   2 1130.48 543.172   2
  -6   1   2 0.87370 378.495   4
  -6   1   3 49308.2 2204.20   4
  -6   1   3 53593.3 2496.87   2
  -6   1   4 663.207 308.688   4
  -6   1   4 129.726 422.309   2
  -6   1   5 16184.9 1478.92   2
  -6   1   6 5574.57 932.573   2
  -6   1   7 2901.49 620.178   5
  -6   1   7 2356.13 742.094   2
  -6   1   8 11675.5 1164.08   5
  -6   1   8 12950.5 1502.90   2
  -6   1   9 1094.42 770.624   2
  -6   1   9 345.707 474.088   5
  -6   1  10 5269.70 974.618   5
  -6   1  10 4898.28 1066.99   2
  -6   1  11 2170.92 766.617   5
  -6   1  11 3924.50 1005.35   2
  -6   2  -7-56.9928 574.927   4
  -6   2  -6 32.5029 493.519   1
  -6   2  -6 751.046 502.443   4
  -6   2  -5 15074.6 1524.65   4
  -6   2  -5 11014.9 1121.68   1
  -6   2  -4 1538.12 533.548   1
  -6   2  -4 1542.26 628.423   4
  -6   2  -3 13351.3 1210.13   1
  -6   2  -3 15373.1 1462.38   4
  -6   2  -2 6498.45 998.687   4
  -6   2  -2 4003.46 726.776   1
  -6   2  -1 4304.47 705.003   1
  -6   2  -1 4215.43 787.299   4
  -6   2   0 29957.2 1846.31   4
  -6   2   0 23028.7 1551.11   1
  -6   2   1 163.110 375.564   1
  -6   2   1-240.516 338.945   4
  -6   2   2 39754.2 1929.38   4
  -6   2   3 12069.0 1220.69   2
  -6   2   3 10263.0 936.757   4
  -6   2   4 15776.4 1421.47   2
  -6   2   4 15128.0 1062.32   4
  -6   2   5 20079.4 1683.26   2
  -6   2   6 1046.29 497.368   2
  -6   2   7 7890.81 1005.43   5
  -6   2   7 6547.30 1093.47   2
  -6   2   8 3946.44 916.700   2
  -6   2   8 2905.83 658.176   5
  -6   2   9 1049.61 623.639   2
  -6   2   9 1191.95 584.772   5
  -6   2  10 4503.79 897.005   5
  -6   2  10 5888.22 1293.47   2
  -6   2  11 496.863 793.490   2
  -6   3  -7 38.5320 464.122   4
  -6   3  -6 7930.09 1164.15   4
  -6   3  -6 6618.80 864.037   1
  -6   3  -5 727.887 427.299   4
  -6   3  -5 571.860 371.265   1
  -6   3  -4 5831.40 821.007   1
  -6   3  -4 6187.56 958.526   4
  -6   3  -3 8785.38 1051.66   4
  -6   3  -3 9507.69 1016.19   1
  -6   3  -2 54.4244 451.359   4
  -6   3  -2 733.386 412.533   1
  -6   3  -1 11817.4 1188.80   4
  -6   3  -1 10152.7 999.654   1
  -6   3   0 2947.60 572.282   1
  -6   3   0 2968.08 667.660   4
  -6   3   1 13627.4 1112.09   1
  -6   3   1 14886.9 1188.66   4
  -6   3   2 30972.8 1706.33   1
  -6   3   3-88.8908 353.442   1
  -6   3   4 20344.5 1304.77   1
  -6   3   5 8014.28 802.734   1
  -6   3   6 1455.68 363.050   1
  -6   3   6 814.580 540.166   2
  -6   3   7 6377.62 862.320   5
  -6   3   7 7272.95 1139.00   2
  -6   3   7 6045.49 604.633   1
  -6   3   8 5142.96 905.652   5
  -6   3   8 5612.25 1071.11   2
  -6   3   9 2930.57 920.480   2
  -6   3   9 2025.56 685.289   5
  -6   3  10-541.132 553.606   5
  -6   3  10 1557.90 803.250   2
  -6   3  11 191.184 621.753   2
  -6   4  -7 1671.57 661.987   4
  -6   4  -6 1885.77 691.448   4
  -6   4  -5 629.921 464.592   4
  -6   4  -5 1100.37 449.892   3
  -6   4  -4 9106.28 1073.56   4
  -6   4  -4 10279.8 1044.43   1
  -6   4  -3 909.353 449.285   4
  -6   4  -3 774.673 424.635   1
  -6   4  -2 9065.98 1010.62   4
  -6   4  -2 9675.61 993.754   1
  -6   4  -1 11490.4 1140.80   4
  -6   4  -1 10555.6 1067.18   1
  -6   4   0 5782.88 764.871   1
  -6   4   0 6361.30 842.797   4
  -6   4   1 11617.1 1006.30   1
  -6   4   2 8540.47 862.648   1
  -6   4   3 3544.46 556.425   1
  -6   4   4 8234.56 792.382   1
  -6   4   5 4.18526 239.102   1
  -6   4   6 3677.35 509.418   1
  -6   4   7 10752.7 1179.10   5
  -6   4   7 9684.06 727.125   1
  -6   4   8 3213.95 721.196   5
  -6   4   8 3146.00 496.570   3
  -6   4   9 6117.81 1043.04   5
  -6   4  10 1383.65 751.170   5
  -6   5  -7 2506.79 666.357   4
  -6   5  -6-21.1470 469.997   4
  -6   5  -5 3351.01 773.426   4
  -6   5  -5 2579.95 576.069   3
  -6   5  -4 3530.03 610.753   3
  -6   5  -4 4168.45 745.420   4
  -6   5  -3 577.706 429.682   4
  -6   5  -3 216.273 342.310   3
  -6   5  -2 4243.49 669.309   3
  -6   5  -2 3660.12 685.122   4
  -6   5  -2 3698.65 663.174   1
  -6   5  -1 10873.7 1042.04   1
  -6   5  -1 11251.3 1020.91   4
  -6   5   0 7577.23 840.655   1
  -6   5   1 10747.3 985.050   1
  -6   5   2 200.395 234.132   4
  -6   5   2 80.1035 338.127   1
  -6   5   3 679.964 361.966   1
  -6   5   4 24113.5 1322.05   1
  -6   5   5 10493.9 1023.70   3
  -6   5   6 8709.90 888.775   3
  -6   5   7 543.053 451.700   5
  -6   5   7-96.9120 313.256   3
  -6   5   8 3162.97 762.110   5
  -6   5   8 2598.28 497.309   3
  -6   5   9 1346.96 670.823   5
  -6   6  -7 1234.20 629.902   4
  -6   6  -6 98.8572 500.708   4
  -6   6  -5-719.675 540.492   4
  -6   6  -5-92.2163 347.434   3
  -6   6  -4 9813.35 1020.79   3
  -6   6  -4 9971.06 1115.75   4
  -6   6  -3 5862.18 794.275   3
  -6   6  -3 5853.05 808.722   4
  -6   6  -2 3263.75 601.179   4
  -6   6  -2 3000.69 595.708   3
  -6   6  -1 1902.66 480.270   4
  -6   6  -1 1034.28 446.868   3
  -6   6   0 9338.27 979.656   3
  -6   6   1 2613.76 398.470   4
  -6   6   1 3420.32 713.072   3
  -6   6   2 2.45455 123.364   4
  -6   6   2 90.3702 409.525   3
  -6   6   3 45444.0 2085.91   3
  -6   6   4 332.282 382.270   3
  -6   6   5 5625.24 773.354   3
  -6   6   6 3516.58 625.182   3
  -6   6   7-104.761 560.402   5
  -6   6   7-236.918 401.209   3
  -6   6   8 3795.40 909.317   5
  -6   6   8 2988.33 616.310   3
  -6   7  -7-717.843 674.944   4
  -6   7  -6-144.509 449.154   4
  -6   7  -5 7422.06 990.879   4
  -6   7  -5 5670.33 813.384   3
  -6   7  -4 442.159 402.475   4
  -6   7  -4 1492.27 609.432   3
  -6   7  -3 6259.83 811.739   4
  -6   7  -3 6211.97 854.966   3
  -6   7  -2 2457.34 637.574   3
  -6   7  -2 2204.46 472.416   4
  -6   7  -1 695.852 470.181   3
  -6   7   0 11505.1 1144.13   3
  -6   7   1 123.408 497.468   3
  -6   7   2 8273.53 976.189   3
  -6   7   3 1840.33 556.197   3
  -6   7   4 1109.79 458.286   3
  -6   7   5 5058.80 799.440   3
  -6   7   6 361.205 456.478   5
  -6   7   6-251.555 385.786   3
  -6   7   7 3397.12 810.564   5
  -6   7   7 2884.12 605.721   3
  -6   8  -7-796.831 662.014   4
  -6   8  -6 2031.63 677.571   4
  -6   8  -5-260.055 422.552   4
  -6   8  -5-273.775 434.444   3
  -6   8  -4 1343.37 540.889   3
  -6   8  -3 3896.74 811.675   3
  -6   8  -2-207.447 437.418   3
  -6   8  -1 5137.45 849.958   3
  -6   8   0-370.811 537.042   3
  -6   8   1 2389.86 654.014   3
  -6   8   2-705.401 530.085   3
  -6   8   3 1153.98 567.677   3
  -6   8   4 4595.93 776.661   3
  -6   8   5 995.244 464.259   3
  -6   8   6 1088.90 670.641   5
  -6   8   6 1294.69 580.283   3
  -6   8   7 2806.60 678.098   5
  -6   8   7 1373.08 521.862   3
  -6   9  -5-263.038 329.118   3
  -6   9  -4-273.149 535.913   3
  -6   9  -3 261.640 430.208   3
  -6   9  -2 780.637 525.359   3
  -6   9  -1 2166.89 664.577   3
  -6   9   0 923.627 478.516   3
  -6   9   1 1940.70 626.964   3
  -6   9   2 58.6273 443.237   3
  -6   9   3 472.448 418.103   3
  -6   9   4 1433.20 605.948   3
  -6   9   5 1021.94 537.103   5
  -6   9   5-181.458 504.734   3
  -6   9   6 345.750 488.426   5
  -6   9   6 709.529 425.726   3
  -6  10   0 318.743 374.307   3
  -6  10   1 835.395 469.706   3
  -5  -7  -1-149.791 504.767   4
  -5  -7   0 289.965 621.066   4
  -5  -7   1 1352.65 600.939   4
  -5  -7   4 1144.39 607.138   2
  -5  -7   5-236.630 513.124   2
  -5  -7   6 1304.97 617.317   2
  -5  -6  -3 1718.86 740.453   4
  -5  -6  -2 190.988 459.850   4
  -5  -6  -1 439.556 598.211   4
  -5  -6   0 4195.58 883.898   4
  -5  -6   1 1634.93 713.800   4
  -5  -6   2 278.865 559.974   4
  -5  -6   3 1621.47 502.553   2
  -5  -6   4 224.196 387.109   2
  -5  -6   5 2718.75 703.845   2
  -5  -6   6 58.0973 460.876   2
  -5  -6   7-348.148 673.114   2
  -5  -5  -4 656.849 652.279   4
  -5  -5  -3 3602.23 835.388   4
  -5  -5  -2-775.326 637.620   4
  -5  -5  -1 2766.17 799.182   4
  -5  -5   0 5018.61 925.747   4
  -5  -5   1 239.555 435.830   4
  -5  -5   2 2621.97 549.032   2
  -5  -5   2 1094.54 533.916   4
  -5  -5   3 2712.87 589.693   2
  -5  -5   3 1500.21 585.629   4
  -5  -5   4 2782.76 661.107   2
  -5  -5   5 5001.75 852.820   2
  -5  -5   6-953.336 650.150   2
  -5  -5   7 2346.74 716.199   2
  -5  -5   8 1729.17 646.229   2
  -5  -4  -5 1373.59 693.042   4
  -5  -4  -4 2108.94 751.491   4
  -5  -4  -3 2888.34 898.249   4
  -5  -4  -2 1547.40 630.036   4
  -5  -4  -1 3122.07 790.370   4
  -5  -4   0 1787.52 703.526   4
  -5  -4   1 13610.3 1060.26   2
  -5  -4   1 13792.0 1373.18   4
  -5  -4   2 12307.8 1316.41   4
  -5  -4   2 13080.7 1095.41   2
  -5  -4   3 545.801 504.039   4
  -5  -4   3 119.905 372.338   2
  -5  -4   4 18311.9 1424.94   2
  -5  -4   5 3810.91 691.628   2
  -5  -4   6-169.280 517.571   2
  -5  -4   7 14616.9 1490.98   2
  -5  -4   8-488.310 632.009   2
  -5  -4   9 2979.35 940.290   2
  -5  -3  -6 1109.81 626.700   4
  -5  -3  -5-87.7479 583.817   4
  -5  -3  -4 6593.90 1074.99   4
  -5  -3  -3-474.018 405.553   4
  -5  -3  -2 6192.18 986.415   4
  -5  -3  -1 18325.6 1586.25   4
  -5  -3   0 2741.33 677.458   4
  -5  -3   0 2091.87 412.688   2
  -5  -3   1 18711.2 1571.01   4
  -5  -3   1 20258.9 1257.76   2
  -5  -3   2 6324.65 923.296   4
  -5  -3   2 6859.40 808.244   2
  -5  -3   3 27111.8 1795.09   4
  -5  -3   3 27118.8 1615.50   2
  -5  -3   4 9680.44 1043.14   2
  -5  -3   5 372.813 447.275   2
  -5  -3   6 15377.2 1418.92   2
  -5  -3   7 3151.67 763.069   2
  -5  -3   8 1920.03 698.956   2
  -5  -3   9 8829.75 1327.26   2
  -5  -3  10 2029.85 871.783   2
  -5  -2  -6 288.995 557.416   4
  -5  -2  -5 9278.35 1298.35   4
  -5  -2  -4 1326.18 659.373   4
  -5  -2  -3 3331.30 800.042   4
  -5  -2  -2 21124.6 1733.25   4
  -5  -2  -1 4381.00 502.528   2
  -5  -2  -1 4337.25 811.643   4
  -5  -2   0 12977.9 1278.11   4
  -5  -2   0 12527.8 891.867   2
  -5  -2   1 26085.1 1741.39   4
  -5  -2   1 24222.3 1366.46   2
  -5  -2   2 17701.4 1429.19   4
  -5  -2   2 17603.4 1247.91   2
  -5  -2   3 12664.5 1211.44   4
  -5  -2   3 13964.3 1161.39   2
  -5  -2   4 1384.34 430.355   4
  -5  -2   4 2119.27 555.919   2
  -5  -2   5 22954.3 1622.10   2
  -5  -2   5 19607.1 1049.48   5
  -5  -2   6 13120.5 912.502   5
  -5  -2   6 14080.4 1352.25   2
  -5  -2   7 4205.52 588.729   5
  -5  -2   7 5619.59 930.977   2
  -5  -2   8 10565.4 1364.27   2
  -5  -2   8 10376.6 959.416   5
  -5  -2   9 6688.27 1145.84   2
  -5  -2   9 4726.66 689.982   5
  -5  -2  10 947.988 606.733   2
  -5  -2  10 864.606 506.064   5
  -5  -2  11 2140.75 871.256   2
  -5  -1  -7 1882.16 690.939   4
  -5  -1  -6 5626.15 1063.93   4
  -5  -1  -5 4461.56 859.698   4
  -5  -1  -5 6231.38 911.604   1
  -5  -1  -4 1174.58 601.703   4
  -5  -1  -3 14191.2 1401.20   4
  -5  -1  -2 13175.7 1337.20   4
  -5  -1  -1 42199.2 2347.33   4
  -5  -1   0 23601.4 1657.42   4
  -5  -1   0 24255.0 1298.75   2
  -5  -1   1 2642.74 623.056   4
  -5  -1   1 2529.49 477.311   2
  -5  -1   2 30965.9 1806.36   4
  -5  -1   2 30377.5 1617.06   2
  -5  -1   3 27884.4 1647.42   4
  -5  -1   3 25070.3 1549.19   2
  -5  -1   4 2266.94 529.035   4
  -5  -1   4 3920.93 684.001   2
  -5  -1   5 32008.9 1937.77   2
  -5  -1   6 850.618 542.710   2
  -5  -1   6 1258.05 401.078   5
  -5  -1   7 2386.99 511.152   5
  -5  -1   7 2489.01 745.658   2
  -5  -1   8 4101.00 1013.47   2
  -5  -1   8 2254.21 578.057   5
  -5  -1   9-364.856 532.626   5
  -5  -1   9-681.526 490.587   2
  -5  -1  10 4722.89 861.910   5
  -5  -1  10 8185.69 1477.17   2
  -5  -1  11 3107.45 745.194   5
  -5  -1  11 1124.66 715.190   2
  -5  -1  12 689.805 545.166   5
  -5   0  -7-144.139 603.533   4
  -5   0  -6 5849.58 1103.60   4
  -5   0  -6 4895.78 774.763   1
  -5   0  -5 3580.02 835.499   4
  -5   0  -5 2841.46 634.256   1
  -5   0  -4 7150.53 911.649   1
  -5   0  -4 6826.16 967.672   4
  -5   0  -3 32095.3 2055.34   4
  -5   0  -2 5619.90 897.987   4
  -5   0  -1 20003.2 1546.46   4
  -5   0   0 13205.9 1234.39   4
  -5   0   1 4420.63 708.905   4
  -5   0   1 5799.60 710.616   2
  -5   0   2 45321.7 2078.88   4
  -5   0   2 45291.4 1982.75   2
  -5   0   3 6465.94 737.277   4
  -5   0   3 6319.00 784.321   2
  -5   0   4 11526.4 954.331   4
  -5   0   4 12779.9 1139.44   2
  -5   0   5 21197.7 1601.35   2
  -5   0   6 5267.65 672.117   5
  -5   0   6 5842.58 965.446   2
  -5   0   7 488.993 321.093   5
  -5   0   7 491.149 367.053   2
  -5   0   8 10675.2 1007.06   5
  -5   0   8 10760.6 1372.31   2
  -5   0   9 4536.22 1011.65   2
  -5   0   9 4655.18 831.373   5
  -5   0  10 5620.71 920.494   5
  -5   0  10 5634.35 1116.97   2
  -5   0  11 112.000 616.058   2
  -5   0  11-161.243 487.529   5
  -5   1  -8 370.233 556.177   4
  -5   1  -7 2670.06 765.062   4
  -5   1  -6 8508.69 927.437   1
  -5   1  -6 7381.12 1087.12   4
  -5   1  -5 420.804 326.204   1
  -5   1  -5 786.187 472.256   4
  -5   1  -4 17737.9 1478.25   4
  -5   1  -4 17300.5 1294.29   1
  -5   1  -3 16023.9 1383.10   4
  -5   1  -3 13735.8 1148.46   1
  -5   1  -2 11151.1 1058.37   1
  -5   1  -2 9531.68 1071.82   4
  -5   1  -1 5969.58 856.757   4
  -5   1   0 2901.90 574.455   4
  -5   1   1 21565.2 1426.08   4
  -5   1   2 20874.7 1361.45   2
  -5   1   3 17587.7 1345.27   2
  -5   1   4 20372.1 1481.45   2
  -5   1   5 5599.69 821.349   2
  -5   1   6 17931.4 1225.76   5
  -5   1   6 17936.4 1570.25   2
  -5   1   7 33939.8 1790.21   5
  -5   1   7 36683.0 2314.12   2
  -5   1   8 221.563 458.989   2
  -5   1   8 536.719 457.543   5
  -5   1   9 4931.86 793.639   5
  -5   1   9 6660.76 1206.45   2
  -5   1  10 1910.54 725.319   5
  -5   1  10 1088.44 596.513   2
  -5   1  11 375.515 672.928   2
  -5   1  11-152.624 559.060   5
  -5   1  12 3738.81 1081.04   2
  -5   2  -8 1108.17 705.905   4
  -5   2  -7 5416.97 973.517   4
  -5   2  -6 3492.87 758.014   4
  -5   2  -6 1801.43 485.335   1
  -5   2  -5 6136.83 926.086   4
  -5   2  -5 5984.41 782.073   1
  -5   2  -4 4286.28 659.609   1
  -5   2  -4 5244.23 804.942   4
  -5   2  -3 4.30361 392.864   4
  -5   2  -3 174.363 315.716   1
  -5   2  -2 33429.3 1693.72   1
  -5   2  -2 35851.1 1915.06   4
  -5   2  -1 18049.5 1258.81   1
  -5   2  -1 19519.7 1412.38   4
  -5   2   0 5505.35 711.028   1
  -5   2   1 45023.4 1935.20   1
  -5   2   3 4758.16 749.686   2
  -5   2   4 80191.6 3154.49   2
  -5   2   5 1987.06 637.112   2
  -5   2   6 24483.6 1838.06   2
  -5   2   7 1928.43 660.975   2
  -5   2   7 2543.25 616.896   5
  -5   2   7 2141.62 371.972   1
  -5   2   8 9175.76 1310.70   2
  -5   2   8 9520.18 1035.24   5
  -5   2   9 7352.46 1030.32   5
  -5   2   9 6130.95 1081.80   2
  -5   2  10 1217.90 838.407   2
  -5   2  10 884.628 544.608   5
  -5   2  11 3078.81 766.092   5
  -5   2  11 3953.63 1031.87   2
  -5   2  12 1219.65 799.265   2
  -5   3  -8 1014.84 561.730   4
  -5   3  -7 3482.91 830.023   4
  -5   3  -6 2249.94 605.745   4
  -5   3  -5 4332.69 670.465   1
  -5   3  -5 4473.72 779.547   4
  -5   3  -4 9631.68 1000.52   4
  -5   3  -4 9789.17 942.348   1
  -5   3  -3 11895.4 1052.99   4
  -5   3  -3 11876.2 1009.00   1
  -5   3  -2 32477.5 1728.95   4
  -5   3  -2 33267.5 1641.32   1
  -5   3  -1 1559.83 426.654   1
  -5   3  -1 1539.20 458.070   4
  -5   3   0 73283.9 2447.74   1
  -5   3   1 24572.7 1345.51   1
  -5   3   2 414.431 324.963   1
  -5   3   2 1141.31 344.498   4
  -5   3   3 36393.5 1555.62   1
  -5   3   3 38061.7 1384.78   4
  -5   3   4 3036.79 456.433   1
  -5   3   5 6815.16 614.710   1
  -5   3   6 14570.4 832.436   1
  -5   3   6 15559.1 1491.16   2
  -5   3   7 8769.36 585.147   1
  -5   3   7 7492.25 909.561   5
  -5   3   7 9021.74 1233.46   2
  -5   3   8 5352.09 1001.74   2
  -5   3   8 5422.48 840.566   5
  -5   3   9 1323.74 544.584   5
  -5   3   9 491.277 600.526   2
  -5   3  10 3756.03 897.383   5
  -5   3  10 4189.89 1022.25   2
  -5   3  11 2129.99 916.771   2
  -5   4  -8 5854.23 988.096   4
  -5   4  -7 870.547 502.581   4
  -5   4  -6 4302.73 778.502   4
  -5   4  -5 12984.0 1190.88   4
  -5   4  -5 13183.5 975.661   3
  -5   4  -4-8.04839 282.826   4
  -5   4  -4-161.731 266.562   3
  -5   4  -3 9166.54 888.512   1
  -5   4  -3 10301.9 976.797   4
  -5   4  -2 23241.0 1372.49   4
  -5   4  -2 22118.9 1323.13   1
  -5   4  -1 35330.1 1678.66   1
  -5   4   0 8226.15 792.516   1
  -5   4   1-95.2271 220.025   4
  -5   4   1-74.7267 247.611   1
  -5   4   2 34600.4 1274.82   4
  -5   4   2 34961.2 1537.86   1
  -5   4   3 7189.27 672.669   1
  -5   4   4 11022.5 786.747   1
  -5   4   5 27810.9 1196.21   1
  -5   4   6 1681.28 413.130   3
  -5   4   6 1693.58 505.905   5
  -5   4   7 3691.54 689.404   5
  -5   4   7 4882.61 592.419   3
  -5   4   8 1455.22 565.809   5
  -5   4   8 1819.73 403.871   3
  -5   4   9 824.387 471.734   5
  -5   4  10 2328.93 730.677   5
  -5   5  -8 2987.95 836.714   4
  -5   5  -7-1398.32 689.438   4
  -5   5  -6 5941.94 920.233   4
  -5   5  -5 2136.70 506.521   3
  -5   5  -5 2232.76 549.722   4
  -5   5  -4 11538.2 1040.28   4
  -5   5  -4 12598.5 1004.31   3
  -5   5  -3 10620.7 915.354   3
  -5   5  -3 9031.22 875.851   4
  -5   5  -2 412.528 317.979   4
  -5   5  -2 419.006 334.779   3
  -5   5  -1 18291.5 1168.92   3
  -5   5   0 1921.10 425.121   4
  -5   5   0 1371.23 404.114   3
  -5   5   1 17996.5 928.061   4
  -5   5   1 18620.6 1169.36   3
  -5   5   2 27470.8 1459.84   3
  -5   5   2 27391.6 904.155   4
  -5   5   3 1094.50 424.331   3
  -5   5   4 9773.35 851.227   3
  -5   5   5 3290.21 554.560   3
  -5   5   6 803.134 583.024   5
  -5   5   6 614.205 328.910   3
  -5   5   7 2523.31 588.515   5
  -5   5   7 3693.56 542.340   3
  -5   5   8 1523.92 391.116   3
  -5   5   8 830.911 437.032   5
  -5   5   9-35.9655 641.170   5
  -5   6  -8 475.696 512.098   4
  -5   6  -7 998.872 484.793   4
  -5   6  -6 6871.49 928.832   4
  -5   6  -6 6318.47 767.086   3
  -5   6  -5 6337.72 888.178   4
  -5   6  -5 6996.99 815.025   3
  -5   6  -4 7419.44 827.252   3
  -5   6  -4 7055.26 837.890   4
  -5   6  -3 154.998 358.334   3
  -5   6  -3 476.588 316.038   4
  -5   6  -2 7136.35 749.932   4
  -5   6  -2 7936.70 856.431   3
  -5   6  -1 16382.3 1187.00   3
  -5   6   0-138.583 229.543   4
  -5   6   0 93.6810 383.780   3
  -5   6   1 5826.74 400.950   4
  -5   6   1 5345.25 697.258   3
  -5   6   2 4059.04 628.553   3
  -5   6   3 11940.9 994.899   3
  -5   6   4 3395.87 586.584   3
  -5   6   5 1857.80 478.769   3
  -5   6   6 3357.73 703.065   5
  -5   6   6 3496.55 610.663   3
  -5   6   7 3276.53 592.805   3
  -5   6   7 1606.69 586.464   5
  -5   6   8 65.2675 543.842   5
  -5   6   9 1092.41 584.566   5
  -5   7  -8 946.347 534.406   4
  -5   7  -7 4758.43 869.824   4
  -5   7  -6 755.798 443.794   4
  -5   7  -6 427.229 338.923   3
  -5   7  -5 5767.35 764.773   3
  -5   7  -5 6855.53 860.970   4
  -5   7  -4 462.932 436.423   3
  -5   7  -4-504.721 383.260   4
  -5   7  -3-131.107 400.838   3
  -5   7  -3-417.567 314.386   4
  -5   7  -2 5111.89 772.078   3
  -5   7  -1 1767.02 472.215   3
  -5   7  -1 2448.95 448.095   4
  -5   7   0 4206.64 750.041   3
  -5   7   1 2612.41 568.435   3
  -5   7   2 1353.15 506.991   3
  -5   7   3 582.892 370.203   3
  -5   7   4 3961.20 647.986   3
  -5   7   5 1195.28 463.428   3
  -5   7   6 2248.84 544.183   3
  -5   7   6 1156.95 545.286   5
  -5   7   7-227.114 519.298   5
  -5   7   7-250.510 402.756   3
  -5   7   8 323.209 459.690   5
  -5   8  -7 501.815 463.446   4
  -5   8  -6 744.531 412.361   3
  -5   8  -6 378.262 353.279   4
  -5   8  -5 1135.17 454.084   4
  -5   8  -5 606.013 449.139   3
  -5   8  -4-265.493 386.991   3
  -5   8  -4-97.7818 270.947   4
  -5   8  -3 523.099 446.083   3
  -5   8  -2 984.312 490.927   3
  -5   8  -1 2811.78 662.962   3
  -5   8   0 593.133 457.784   3
  -5   8   1 4796.34 746.384   3
  -5   8   2 2073.68 602.441   3
  -5   8   3 4514.53 687.926   3
  -5   8   4-496.978 453.219   3
  -5   8   5 419.672 454.288   5
  -5   8   5 1463.51 544.957   3
  -5   8   6-232.971 552.813   5
  -5   8   6-281.188 422.453   3
  -5   8   7 907.065 418.041   3
  -5   8   7 749.750 524.475   5
  -5   9  -6 515.362 478.084   3
  -5   9  -5-352.506 475.041   3
  -5   9  -4 1127.39 478.729   3
  -5   9  -3 2431.52 625.912   3
  -5   9  -2 654.867 481.862   3
  -5   9  -1 69.7955 478.785   3
  -5   9   0 1443.83 534.785   3
  -5   9   1 352.496 526.557   3
  -5   9   2 1144.37 516.323   3
  -5   9   3 1138.39 488.991   3
  -5   9   4 2513.24 660.480   5
  -5   9   4 1090.30 489.361   3
  -5   9   5-42.2717 466.999   5
  -5   9   5-346.465 421.653   3
  -5   9   6 956.792 541.586   5
  -5   9   6-593.298 417.453   3
  -5  10  -4 3936.01 789.907   3
  -5  10  -3-150.816 598.982   3
  -5  10  -2-426.321 510.156   3
  -5  10  -1 180.807 522.932   3
  -5  10   0-728.078 536.366   3
  -5  10   1 330.556 490.282   3
  -5  10   2 596.233 380.662   3
  -5  10   3 666.933 518.121   3
  -5  10   4 14.1067 458.344   3
  -5  10   4 1480.82 546.313   5
  -5  10   5-772.786 482.624   5
  -4  -8   4-319.590 515.916   2
  -4  -8   5 1374.26 621.545   2
  -4  -7  -1 3813.06 894.816   4
  -4  -7   0 728.428 517.575   4
  -4  -7   1 1660.96 674.225   4
  -4  -7   3 2715.75 666.055   2
  -4  -7   4 7198.81 1009.46   2
  -4  -7   5 1081.14 587.633   2
  -4  -7   6-1227.68 710.747   2
  -4  -7   7 529.846 649.404   2
  -4  -6  -3 1063.85 525.760   4
  -4  -6  -2 1898.70 700.835   4
  -4  -6  -1 2134.58 649.797   4
  -4  -6   0 4.61326 485.254   4
  -4  -6   1 3260.43 741.742   4
  -4  -6   2 13537.7 1142.25   2
  -4  -6   2 12100.0 1256.98   4
  -4  -6   3 16533.2 1347.39   2
  -4  -6   4 2333.44 557.599   2
  -4  -6   5 53.9976 447.572   2
  -4  -6   6 7858.25 1084.02   2
  -4  -6   7 5565.54 1005.24   2
  -4  -6   8 1354.51 657.264   2
  -4  -5  -6 768.311 600.629   4
  -4  -5  -5 4346.45 910.082   4
  -4  -5  -4 1804.38 638.843   4
  -4  -5  -3 1242.82 695.596   4
  -4  -5  -2 6159.74 1013.27   4
  -4  -5  -1 5135.28 909.480   4
  -4  -5   0 9466.87 1134.83   4
  -4  -5   1 14398.6 1338.45   4
  -4  -5   1 14072.1 1054.31   2
  -4  -5   2 3025.46 691.692   4
  -4  -5   2 2254.63 491.513   2
  -4  -5   3 14745.2 1226.77   2
  -4  -5   4 7148.42 889.320   2
  -4  -5   5 5360.39 855.748   2
  -4  -5   6 21568.9 1692.07   2
  -4  -5   7-356.866 410.210   2
  -4  -5   8 2144.19 784.029   2
  -4  -5   9 1737.08 657.635   2
  -4  -4  -7 1985.08 836.255   4
  -4  -4  -6 900.853 586.089   4
  -4  -4  -5 3214.41 775.904   4
  -4  -4  -4 72.1204 537.200   4
  -4  -4  -3 8585.84 1177.70   4
  -4  -4  -2 24300.4 1791.18   4
  -4  -4  -1 3252.69 726.177   4
  -4  -4   0 18602.1 1471.42   4
  -4  -4   0 17526.4 1033.55   2
  -4  -4   1 8035.39 979.798   4
  -4  -4   1 7375.55 722.720   2
  -4  -4   2 5124.36 753.780   4
  -4  -4   2 5255.33 657.903   2
  -4  -4   3 23187.7 1566.04   4
  -4  -4   3 20247.6 1327.62   2
  -4  -4   4 216.292 360.555   2
  -4  -4   5 12426.9 1218.43   2
  -4  -4   6 1278.44 496.339   2
  -4  -4   7 9591.20 1159.80   2
  -4  -4   8 8823.33 1188.84   2
  -4  -4   9 884.931 478.082   2
  -4  -4  10 3816.15 991.423   2
  -4  -3  -7 552.362 687.330   4
  -4  -3  -6 3948.26 933.416   4
  -4  -3  -5 4743.48 906.973   4
  -4  -3  -4 811.533 635.745   4
  -4  -3  -3 20066.1 1658.91   4
  -4  -3  -2 749.846 445.723   4
  -4  -3  -1 20199.4 1546.62   4
  -4  -3  -1 18104.1 926.568   2
  -4  -3   0 22847.1 1074.20   5
  -4  -3   0 23560.2 1148.15   2
  -4  -3   0 22896.6 1591.38   4
  -4  -3   1 265.397 428.654   4
  -4  -3   1 871.929 320.410   2
  -4  -3   2 19532.4 1394.58   4
  -4  -3   2 18470.9 1154.32   2
  -4  -3   3 12107.7 992.216   2
  -4  -3   3 12972.3 1135.22   4
  -4  -3   4 13158.3 630.670   5
  -4  -3   4 15399.5 1213.06   2
  -4  -3   5 32136.5 1195.46   5
  -4  -3   5 35170.1 1927.84   2
  -4  -3   6 608.995 254.107   5
  -4  -3   6 409.289 442.914   2
  -4  -3   7 16840.1 1056.38   5
  -4  -3   7 17836.8 1516.52   2
  -4  -3   8 4749.66 646.079   5
  -4  -3   8 4973.22 919.039   2
  -4  -3   9 4706.56 857.787   2
  -4  -3  10 7674.50 1338.54   2
  -4  -3  11 2508.60 842.356   2
  -4  -2  -8 971.956 652.876   4
  -4  -2  -7 2947.19 844.502   4
  -4  -2  -6 4578.38 950.605   4
  -4  -2  -5 2591.28 813.168   4
  -4  -2  -4 8691.53 1101.63   4
  -4  -2  -3 10920.6 1217.58   4
  -4  -2  -2 937.381 472.391   4
  -4  -2  -1 38466.5 1341.24   2
  -4  -2  -1 38824.4 2136.29   4
  -4  -2   0 1014.52 422.755   4
  -4  -2   0 1940.53 371.666   2
  -4  -2   1 41318.1 2011.98   4
  -4  -2   1 39762.4 1618.65   2
  -4  -2   2 50359.9 1971.06   2
  -4  -2   3 7014.34 754.057   2
  -4  -2   4 85097.0 2143.92   5
  -4  -2   4 89687.1 2996.39   2
  -4  -2   5 32542.1 1274.67   5
  -4  -2   5 33144.6 1839.85   2
  -4  -2   6 6370.23 897.297   2
  -4  -2   6 6480.20 654.978   5
  -4  -2   7 20639.3 1218.66   5
  -4  -2   7 23134.2 1767.90   2
  -4  -2   8 2148.54 514.322   5
  -4  -2   8 1840.11 699.205   2
  -4  -2   9 8674.79 938.454   5
  -4  -2   9 9231.17 1324.23   2
  -4  -2  10 5400.56 861.357   5
  -4  -2  10 7392.47 1293.85   2
  -4  -2  11 4987.95 878.072   5
  -4  -2  11 5757.21 1245.96   2
  -4  -2  12 1358.96 583.028   5
  -4  -1  -8 535.963 471.212   4
  -4  -1  -7 3394.49 788.120   4
  -4  -1  -6 1983.92 669.431   4
  -4  -1  -6 1931.11 433.844   1
  -4  -1  -5 2306.93 627.501   4
  -4  -1  -5 1695.74 440.133   1
  -4  -1  -4 32850.4 2016.31   4
  -4  -1  -3 7674.93 932.336   4
  -4  -1  -2 30098.6 1863.33   4
  -4  -1  -1 46774.6 1545.22   2
  -4  -1   0 2134.55 364.662   2
  -4  -1   1 97360.5 2734.98   2
  -4  -1   2 53482.6 2012.33   2
  -4  -1   3 40041.5 1829.33   2
  -4  -1   4 43242.6 1999.12   2
  -4  -1   5 1462.61 340.178   5
  -4  -1   5 2861.77 576.926   2
  -4  -1   6 29392.4 1369.78   5
  -4  -1   6 30896.4 1893.72   2
  -4  -1   7 68980.5 2386.89   5
  -4  -1   7 73744.7 3217.31   2
  -4  -1   8 38646.9 1863.29   5
  -4  -1   8 43764.0 2592.73   2
  -4  -1   9 7201.75 913.376   5
  -4  -1   9 8105.41 1213.62   2
  -4  -1  10-159.070 580.156   2
  -4  -1  10-753.783 489.358   5
  -4  -1  11 3868.40 1062.63   2
  -4  -1  11 2997.61 738.618   5
  -4  -1  12 2974.63 804.880   5
  -4  -1  12 2199.14 962.038   2
  -4   0  -8-235.867 425.338   4
  -4   0  -7 11990.1 1316.68   4
  -4   0  -6 1270.04 357.462   1
  -4   0  -6 1529.38 575.778   4
  -4   0  -5 18921.0 1256.75   1
  -4   0  -5 19841.1 1519.26   4
  -4   0  -4 17708.7 1197.92   1
  -4   0  -4 18612.1 1403.37   4
  -4   0  -3 9016.45 986.126   4
  -4   0   0 176347. 3947.98   2
  -4   0   1 22102.8 1179.13   2
  -4   0   2 13053.2 948.402   2
  -4   0   3 79332.3 2711.85   2
  -4   0   4 18015.7 1295.01   2
  -4   0   5 32879.6 1431.53   5
  -4   0   5 34889.9 1917.02   2
  -4   0   6 89861.8 2711.70   5
  -4   0   6 91396.2 3468.38   2
  -4   0   7 12600.4 988.335   5
  -4   0   7 13855.3 1406.72   2
  -4   0   8 29645.3 1667.53   5
  -4   0   8 32734.8 2257.25   2
  -4   0   9 10377.2 1372.58   2
  -4   0   9 10514.5 1077.53   5
  -4   0  10 1452.49 567.053   5
  -4   0  10 2666.50 727.716   2
  -4   0  11 6902.79 1237.84   2
  -4   0  11 5697.00 902.514   5
  -4   0  12-274.650 739.206   2
  -4   1  -9 1338.96 645.506   4
  -4   1  -8 15200.9 1506.37   4
  -4   1  -7 4259.07 864.077   4
  -4   1  -6 2302.86 595.225   4
  -4   1  -6 2255.50 466.256   1
  -4   1  -5 16013.8 1320.77   4
  -4   1  -5 16715.0 1112.24   1
  -4   1  -4 3774.42 682.820   4
  -4   1  -4 3735.04 566.556   1
  -4   1  -3 28573.0 1588.59   4
  -4   1  -3 29025.4 1476.33   1
  -4   1  -2 72262.5 2429.73   1
  -4   1   1 26870.9 1381.93   4
  -4   1   1 29026.9 1428.58   2
  -4   1   2 89494.4 2513.99   4
  -4   1   2 84956.6 2741.79   2
  -4   1   3 149820. 3489.19   4
  -4   1   3 189323. 4437.27   2
  -4   1   4 8703.80 919.417   2
  -4   1   5 33003.3 1853.72   2
  -4   1   6 7866.35 1010.29   2
  -4   1   6 7873.86 780.134   5
  -4   1   7 9966.69 932.335   5
  -4   1   7 9448.19 1127.17   2
  -4   1   8 14724.2 1234.31   5
  -4   1   8 13544.1 1443.54   2
  -4   1   9 1909.89 604.322   5
  -4   1   9 2480.87 811.366   2
  -4   1  10 6649.94 979.585   5
  -4   1  10 8089.66 1294.97   2
  -4   1  11 2204.25 745.935   5
  -4   1  11 1117.49 678.081   2
  -4   1  12 1031.48 778.564   2
  -4   2  -9 3284.71 814.574   4
  -4   2  -8 5480.07 903.052   4
  -4   2  -7-442.842 384.387   4
  -4   2  -6 13732.5 1015.33   1
  -4   2  -6 12528.2 1169.44   4
  -4   2  -5 36234.9 1882.52   4
  -4   2  -5 34497.9 1596.53   1
  -4   2  -4 23491.0 1281.65   1
  -4   2  -4 23701.2 1434.96   4
  -4   2  -3 40301.9 1672.05   1
  -4   2  -3 42119.5 1837.53   4
  -4   2  -2 501.012 276.461   1
  -4   2  -1 57825.0 2014.25   1
  -4   2   0 121393. 3170.73   1
  -4   2   0 132004. 3562.54   4
  -4   2   1 10692.1 830.520   4
  -4   2   1 9590.46 778.564   1
  -4   2   2 94993.6 2581.78   1
  -4   2   2 91842.0 2377.31   4
  -4   2   3 2860.69 337.172   4
  -4   2   3 3027.00 411.867   1
  -4   2   3 2195.27 458.215   2
  -4   2   4 68366.5 2006.45   1
  -4   2   4 66186.2 2638.17   2
  -4   2   5 24254.2 1056.93   1
  -4   2   5 21445.6 1535.91   2
  -4   2   6 93.5606 150.747   1
  -4   2   6-65.4257 292.921   5
  -4   2   6 175.395 356.289   2
  -4   2   7 16750.2 691.301   1
  -4   2   7 16337.0 1223.75   5
  -4   2   7 17259.1 1545.10   2
  -4   2   8 1557.34 588.488   2
  -4   2   8 3190.01 592.856   5
  -4   2   9 4755.27 814.137   5
  -4   2   9 4045.44 942.429   2
  -4   2  10 9169.74 1182.30   5
  -4   2  10 9294.74 1336.58   2
  -4   2  11-413.677 647.644   2
  -4   2  11 53.6020 573.086   5
  -4   3  -9 3671.68 830.924   4
  -4   3  -8 3188.17 791.311   4
  -4   3  -7 4606.35 821.929   4
  -4   3  -6 21131.4 1073.80   3
  -4   3  -6 23517.9 1566.59   4
  -4   3  -5-22.6625 312.480   4
  -4   3  -5 311.764 256.920   3
  -4   3  -4 46017.0 1987.07   4
  -4   3  -4 44122.3 1646.33   3
  -4   3  -4 46098.4 1834.72   1
  -4   3  -3 30590.4 1478.87   4
  -4   3  -3 30201.4 1443.16   1
  -4   3  -2 1105.18 301.348   1
  -4   3  -1 19508.5 1066.00   1
  -4   3   0 1736.32 385.483   1
  -4   3   0 1730.71 394.149   4
  -4   3   1 39876.3 1505.69   1
  -4   3   1 42762.3 1540.69   4
  -4   3   2 30236.2 1057.07   4
  -4   3   2 29637.1 1214.94   1
  -4   3   3 17582.7 875.671   1
  -4   3   4 53637.3 1585.42   1
  -4   3   5 1843.28 268.105   1
  -4   3   6 19274.8 751.083   1
  -4   3   6 19022.6 1282.95   5
  -4   3   6 21352.9 1637.47   2
  -4   3   7 21497.9 1029.21   3
  -4   3   7 21227.5 1410.63   5
  -4   3   7 23806.5 1765.38   2
  -4   3   8 4407.19 767.903   5
  -4   3   8 4411.94 898.014   2
  -4   3   8 2972.98 373.511   3
  -4   3   9 10486.0 1329.48   2
  -4   3   9 8613.46 1059.71   5
  -4   3  10 2342.20 820.251   2
  -4   3  10 1242.77 598.520   5
  -4   4  -9 2600.83 809.448   4
  -4   4  -8-741.552 578.629   4
  -4   4  -6 3499.67 484.255   3
  -4   4  -5 3894.00 647.007   4
  -4   4  -5 4463.37 551.222   3
  -4   4  -4 20706.3 1110.32   3
  -4   4  -4 19874.5 1256.16   4
  -4   4  -3 1380.82 371.944   4
  -4   4  -3 2042.05 410.364   3
  -4   4  -2 38300.8 1536.84   3
  -4   4  -1 12188.1 868.447   1
  -4   4  -1 13341.8 894.995   3
  -4   4  -1 12896.7 843.381   4
  -4   4   0 402.659 263.379   1
  -4   4   0 236.602 192.989   4
  -4   4   1 91045.2 2243.11   4
  -4   4   1 95352.8 2500.00   1
  -4   4   2 19375.4 661.773   4
  -4   4   2 18720.7 968.869   1
  -4   4   3 25746.7 1240.28   3
  -4   4   4 23909.6 1176.14   3
  -4   4   5 607.895 284.653   3
  -4   4   6 10295.0 959.810   5
  -4   4   6 11753.3 808.233   3
  -4   4   7 9737.96 977.228   5
  -4   4   7 10289.9 730.017   3
  -4   4   8 10596.6 732.259   3
  -4   4   8 10607.7 1147.77   5
  -4   4   9 4404.74 829.913   5
  -4   4  10 241.819 507.121   5
  -4   5  -6 504.050 322.896   3
  -4   5  -5 9078.56 799.130   3
  -4   5  -4 4522.22 579.283   3
  -4   5  -3 7567.94 703.651   4
  -4   5  -3 6839.92 731.535   3
  -4   5  -2 30542.3 1436.31   3
  -4   5  -1 22764.8 1065.93   4
  -4   5  -1 21016.3 1179.67   3
  -4   5   0 43451.1 1488.20   4
  -4   5   0 40456.2 1658.28   3
  -4   5   1 27799.5 1321.69   3
  -4   5   1 27204.2 850.104   4
  -4   5   2 825.544 293.409   3
  -4   5   3 10504.9 804.362   3
  -4   5   4 40612.2 1651.08   3
  -4   5   5 28934.8 1575.22   5
  -4   5   5 31716.6 1442.85   3
  -4   5   6 4256.66 534.578   3
  -4   5   6 4714.28 729.922   5
  -4   5   7 3036.60 466.261   3
  -4   5   7 2284.87 571.948   5
  -4   5   8 6310.38 951.363   5
  -4   5   9 859.434 604.963   5
  -4   6  -6 3014.72 504.536   3
  -4   6  -5 3487.69 546.204   3
  -4   6  -4 26590.9 1452.74   3
  -4   6  -3 26156.0 1414.44   3
  -4   6  -2 4374.47 603.284   3
  -4   6  -1 3088.16 565.117   3
  -4   6  -1 3932.89 441.502   4
  -4   6   0 13330.0 718.722   4
  -4   6   0 13698.4 1011.88   3
  -4   6   1 1421.01 414.115   3
  -4   6   2 7633.17 748.599   3
  -4   6   3 51576.1 2014.83   3
  -4   6   4 18754.0 1178.41   3
  -4   6   5 17208.2 1233.22   5
  -4   6   5 17525.5 1139.75   3
  -4   6   6 2355.71 428.334   3
  -4   6   6 3023.25 673.264   5
  -4   6   7 2429.02 450.662   3
  -4   6   7 2312.38 648.130   5
  -4   6   8 3225.96 697.340   5
  -4   6   9 874.501 499.957   5
  -4   7  -6 314.566 296.563   3
  -4   7  -5 10384.0 936.494   3
  -4   7  -4 7448.35 824.478   3
  -4   7  -3 11626.2 993.896   3
  -4   7  -2-360.684 345.343   3
  -4   7  -1 11017.8 676.272   4
  -4   7  -1 9842.48 952.336   3
  -4   7   0 12983.3 585.138   4
  -4   7   0 13307.1 1084.27   3
  -4   7   1 6224.38 751.405   3
  -4   7   2 14710.8 1113.88   3
  -4   7   3 1136.69 423.477   3
  -4   7   4 8319.51 850.775   3
  -4   7   5 5507.55 694.949   3
  -4   7   5 6140.07 774.489   5
  -4   7   6 2135.15 469.993   3
  -4   7   6 1537.26 484.084   5
  -4   7   7 2841.96 531.727   3
  -4   7   7 3964.38 757.310   5
  -4   7   8 673.081 514.171   5
  -4   8  -6 1390.93 578.769   3
  -4   8  -5 118.626 432.197   3
  -4   8  -4 6701.68 848.680   3
  -4   8  -3 6564.36 840.092   3
  -4   8  -2 3158.74 587.549   3
  -4   8  -1 11600.0 1042.55   3
  -4   8   0 519.247 447.852   3
  -4   8   1 5902.93 783.463   3
  -4   8   2 838.580 430.418   3
  -4   8   3-56.4967 285.536   3
  -4   8   4 2460.98 525.251   5
  -4   8   4 2683.02 559.393   3
  -4   8   5 388.001 402.542   5
  -4   8   5 167.358 399.399   3
  -4   8   6 2044.87 515.669   3
  -4   8   6 1565.95 455.996   5
  -4   8   7 3008.66 727.857   5
  -4   9  -6 205.452 455.817   3
  -4   9  -5-368.191 463.012   3
  -4   9  -4 1457.41 583.262   3
  -4   9  -3 283.156 384.772   3
  -4   9  -2 1345.71 531.448   3
  -4   9  -1 2014.89 506.493   3
  -4   9   0 3075.02 664.294   3
  -4   9   1 2035.71 533.126   3
  -4   9   2-30.6325 412.080   3
  -4   9   3 1051.79 445.469   5
  -4   9   3 2095.31 566.404   3
  -4   9   4-56.3060 339.866   3
  -4   9   4 38.8929 360.520   5
  -4   9   5 96.3466 422.091   3
  -4   9   5-960.824 545.213   5
  -4   9   6 862.232 451.485   5
  -4   9   6 1622.87 553.746   3
  -4   9   7-522.033 653.972   5
  -4  10  -5 1099.82 511.692   3
  -4  10  -4 393.571 453.955   3
  -4  10  -3 56.1134 497.541   3
  -4  10  -2 415.424 488.693   3
  -4  10  -1 601.807 479.760   3
  -4  10   0 2782.20 680.046   3
  -4  10   1 1171.79 584.218   3
  -4  10   2 1413.19 608.651   3
  -4  10   3-1092.83 625.836   3
  -4  10   4 491.109 518.441   3
  -4  10   5 1056.34 539.602   3
  -3  -9   4 374.506 378.407   2
  -3  -8   3 2328.51 597.380   2
  -3  -8   4 1369.12 572.615   2
  -3  -8   5 813.821 491.703   2
  -3  -8   6 112.623 443.259   2
  -3  -7  -1 61.3316 411.733   4
  -3  -7   0 2097.31 585.424   4
  -3  -7   1 1230.18 450.401   2
  -3  -7   2 6253.45 806.848   2
  -3  -7   3 157.394 353.340   2
  -3  -7   4 79.7390 440.306   2
  -3  -7   5 5209.13 911.045   2
  -3  -7   6 2954.15 776.150   2
  -3  -7   7 552.578 493.702   2
  -3  -7   8 3264.82 945.056   2
  -3  -6  -4-521.249 392.691   4
  -3  -6  -3 3877.79 811.539   4
  -3  -6  -2 892.532 472.513   4
  -3  -6  -1 2189.98 593.342   4
  -3  -6   0 7959.68 982.091   4
  -3  -6   0 8541.69 784.003   2
  -3  -6   1 453.086 389.490   4
  -3  -6   1 398.166 332.429   2
  -3  -6   2 4382.56 631.230   2
  -3  -6   3 7515.71 894.204   2
  -3  -6   4 67.8335 362.450   2
  -3  -6   5 10191.5 1126.87   2
  -3  -6   6 1.65086 427.134   2
  -3  -6   7 4352.85 933.137   2
  -3  -6   8 5963.86 1090.61   2
  -3  -6   9 23.4550 610.347   2
  -3  -5  -6 1365.13 653.538   4
  -3  -5  -5 2281.13 731.199   4
  -3  -5  -4 1835.71 613.870   4
  -3  -5  -3 4487.26 778.482   4
  -3  -5  -2 1125.30 544.635   4
  -3  -5  -1 11931.7 1149.36   4
  -3  -5  -1 14490.6 856.074   2
  -3  -5   0 12539.8 1168.84   4
  -3  -5   0 13614.3 903.241   2
  -3  -5   1 3663.70 534.243   2
  -3  -5   1 4636.55 738.625   4
  -3  -5   2 14833.1 1199.89   4
  -3  -5   2 13228.2 1026.22   2
  -3  -5   3 5083.49 680.517   2
  -3  -5   4 10747.5 1011.76   2
  -3  -5   5 11803.5 1148.83   2
  -3  -5   6 1272.67 491.701   2
  -3  -5   7 4237.40 832.284   2
  -3  -5   8 4001.48 957.744   2
  -3  -5   9 11111.1 1343.65   2
  -3  -5  10 4290.73 1011.87   2
  -3  -4  -8-62.9421 585.206   4
  -3  -4  -7 2275.61 720.051   4
  -3  -4  -6 4490.62 902.752   4
  -3  -4  -5-105.506 512.900   4
  -3  -4  -4 9538.10 1120.55   4
  -3  -4  -3 5209.01 858.996   4
  -3  -4  -2 5564.31 836.468   4
  -3  -4  -1 9162.96 975.422   4
  -3  -4  -1 7689.60 572.896   2
  -3  -4   0 4047.77 324.453   5
  -3  -4   0 4833.05 503.765   2
  -3  -4   0 4726.24 725.240   4
  -3  -4   1 40790.9 1597.12   2
  -3  -4   1 40626.5 1933.00   4
  -3  -4   2 8404.68 876.101   4
  -3  -4   2 6294.74 688.333   2
  -3  -4   3 17591.7 1170.09   2
  -3  -4   4 45406.1 2059.94   2
  -3  -4   5 758.697 431.753   2
  -3  -4   6 18076.8 1430.14   2
  -3  -4   6 16487.2 925.912   5
  -3  -4   7 26445.9 1837.63   2
  -3  -4   8 2398.50 716.604   2
  -3  -4   9 6405.41 1124.52   2
  -3  -4  10 1418.51 782.287   2
  -3  -4  11 3657.13 967.548   2
  -3  -3  -8 1315.18 698.053   4
  -3  -3  -7 5598.02 976.932   4
  -3  -3  -6 820.674 500.175   4
  -3  -3  -5 8024.10 1115.29   4
  -3  -3  -4 21969.3 1664.79   4
  -3  -3  -3 202.726 332.210   4
  -3  -3  -2 18067.8 680.934   2
  -3  -3  -2 19667.1 1464.36   4
  -3  -3  -1 17663.9 1320.99   4
  -3  -3  -1 17111.3 883.532   5
  -3  -3  -1 17485.6 796.370   2
  -3  -3   0 39209.6 1377.80   2
  -3  -3   0 38500.6 1868.34   4
  -3  -3   0 39921.8 1232.46   5
  -3  -3   1 69411.9 2482.32   4
  -3  -3   1 69500.7 2053.01   2
  -3  -3   1 67050.2 1533.16   5
  -3  -3   2 392.586 230.112   2
  -3  -3   2 689.350 360.596   4
  -3  -3   3 99311.2 1867.65   5
  -3  -3   3 106213. 2970.75   2
  -3  -3   4 5352.57 385.859   5
  -3  -3   4 5604.32 677.487   2
  -3  -3   5 7405.26 858.546   2
  -3  -3   5 7310.43 536.984   5
  -3  -3   6 49168.7 2310.03   2
  -3  -3   6 45307.8 1625.59   5
  -3  -3   7 4559.38 777.634   2
  -3  -3   7 3495.77 515.922   5
  -3  -3   8 8888.74 1142.66   2
  -3  -3   8 7698.27 818.258   5
  -3  -3   9 8816.34 964.506   5
  -3  -3   9 8420.95 1221.55   2
  -3  -3  10 4016.11 769.592   5
  -3  -3  10 4413.07 1034.28   2
  -3  -3  11 2176.12 786.951   2
  -3  -2  -9 517.268 534.796   4
  -3  -2  -8 3235.84 761.964   4
  -3  -2  -7 3334.95 783.139   4
  -3  -2  -6 583.096 452.741   4
  -3  -2  -5 38657.9 2157.94   4
  -3  -2  -4 186.142 408.642   4
  -3  -2  -3 40362.5 2076.38   4
  -3  -2  -2 77860.7 2895.25   4
  -3  -2  -2 69725.0 1458.15   2
  -3  -2  -1 285.697 195.594   5
  -3  -2  -1 286.659 332.110   4
  -3  -2  -1 121.151 151.948   2
  -3  -2   0 75517.8 1984.07   2
  -3  -2   0 74512.5 2629.13   4
  -3  -2   1 61675.4 1848.32   2
  -3  -2   2 68720.4 2112.29   2
  -3  -2   3 12477.6 910.643   2
  -3  -2   4 1421.39 387.916   2
  -3  -2   4 752.466 184.123   5
  -3  -2   5 35856.3 1318.73   5
  -3  -2   5 38747.8 1881.19   2
  -3  -2   6 3994.82 480.163   5
  -3  -2   6 3325.54 609.937   2
  -3  -2   7 22890.3 1259.06   5
  -3  -2   7 23674.0 1677.48   2
  -3  -2   8 16906.1 1208.28   5
  -3  -2   8 20412.9 1648.90   2
  -3  -2   9 2781.08 553.043   5
  -3  -2   9 2880.03 698.887   2
  -3  -2  10 6910.11 1140.12   2
  -3  -2  10 9211.93 1093.53   5
  -3  -2  11 3691.27 780.101   5
  -3  -2  11 1770.44 821.391   2
  -3  -2  12 1312.76 758.752   5
  -3  -2  12 567.600 596.464   2
  -3  -1  -9 1693.15 803.668   4
  -3  -1  -8 11230.5 1316.70   4
  -3  -1  -7 1552.27 589.149   4
  -3  -1  -6 28965.1 1819.33   4
  -3  -1  -6 26813.7 1321.46   1
  -3  -1  -5 10634.7 1076.87   4
  -3  -1  -5 10819.9 873.857   1
  -3  -1  -4 1304.83 410.423   4
  -3  -1  -3 59050.9 2337.12   4
  -3  -1  -1 128765. 2664.99   2
  -3  -1   0 5027.99 443.410   2
  -3  -1   1-6.52117 186.316   2
  -3  -1   2 112430. 2890.14   2
  -3  -1   3 18949.4 1101.96   2
  -3  -1   4 32071.3 1177.30   5
  -3  -1   4 34505.4 1647.32   2
  -3  -1   5 52953.5 1700.00   5
  -3  -1   5 58857.8 2357.77   2
  -3  -1   6 258.578 257.975   5
  -3  -1   6-35.0748 302.298   2
  -3  -1   7 16711.0 1424.71   2
  -3  -1   7 14230.0 1008.60   5
  -3  -1   8 8165.43 843.777   5
  -3  -1   8 8391.39 1138.96   2
  -3  -1   9 622.229 468.549   5
  -3  -1   9-498.908 534.530   2
  -3  -1  10 10084.5 1104.78   5
  -3  -1  10 10673.0 1407.99   2
  -3  -1  11 1881.30 748.982   5
  -3  -1  11 1923.64 871.462   2
  -3  -1  12 1796.41 629.451   5
  -3  -1  12 1101.81 709.301   2
  -3   0  -9 11616.4 1396.40   4
  -3   0  -8 141.616 340.863   4
  -3   0  -7 1021.73 494.388   4
  -3   0  -6 30635.1 1780.98   4
  -3   0  -6 28568.8 1308.56   1
  -3   0  -5 4115.35 664.134   4
  -3   0  -5 3802.57 488.686   1
  -3   0  -4 23838.9 1396.29   4
  -3   0  -4 23025.2 1181.31   3
  -3   0  -3 23876.3 1191.22   3
  -3   0   0 1656.53 297.769   2
  -3   0   1 44842.3 1580.06   2
  -3   0   2 121148. 3082.58   2
  -3   0   3 350.267 248.163   2
  -3   0   4 96810.8 2989.11   2
  -3   0   5 75577.0 2190.29   5
  -3   0   5 76992.7 2798.55   2
  -3   0   6 6523.10 624.244   5
  -3   0   6 7057.56 853.863   2
  -3   0   7 1382.55 444.583   2
  -3   0   7 1181.14 382.140   5
  -3   0   8 15472.8 1199.13   5
  -3   0   8 18253.6 1623.49   2
  -3   0   9 13470.6 1238.03   5
  -3   0   9 12545.9 1451.13   2
  -3   0  10 7594.47 1014.96   5
  -3   0  10 6368.32 1160.89   2
  -3   0  11 1243.22 650.899   5
  -3   0  11 665.224 581.734   2
  -3   0  12 637.677 584.535   2
  -3   1  -9 2436.01 622.035   4
  -3   1  -8-1.06441 439.334   4
  -3   1  -7 12117.9 1179.86   4
  -3   1  -6 7168.66 647.677   1
  -3   1  -6 7839.29 891.031   4
  -3   1  -5 18979.0 1279.46   4
  -3   1  -5 20163.8 1057.31   1
  -3   1  -4 70365.9 2104.68   1
  -3   1  -3 25655.6 1174.38   1
  -3   1  -2 73377.2 2132.32   1
  -3   1   1 67093.9 2075.05   2
  -3   1   2 60151.0 1645.59   4
  -3   1   2 58903.4 2020.70   2
  -3   1   3 23797.4 1278.36   2
  -3   1   4 11589.7 962.264   2
  -3   1   5 1048.11 367.404   5
  -3   1   5 1208.58 429.439   2
  -3   1   6 58326.7 2071.76   5
  -3   1   6 61253.7 2606.88   2
  -3   1   7 32602.9 1644.22   5
  -3   1   7 30810.7 1935.47   2
  -3   1   7 33952.1 1371.99   3
  -3   1   8 5852.15 796.311   5
  -3   1   8 5228.50 900.783   2
  -3   1   9 15276.5 1284.19   5
  -3   1   9 17212.6 1595.00   2
  -3   1  10 1758.07 682.490   5
  -3   1  10 495.871 557.901   2
  -3   1  11 1363.76 637.954   2
  -3   1  11 939.010 617.264   5
  -3   2  -9 1005.72 569.460   4
  -3   2  -6 967.587 227.225   3
  -3   2  -5 28087.5 1067.23   3
  -3   2  -5 29427.3 1311.47   1
  -3   2  -4 11861.4 798.750   1
  -3   2  -3 7.80207 210.124   1
  -3   2  -2 115370. 2738.52   1
  -3   2  -1 18318.2 950.579   4
  -3   2  -1 19867.6 923.602   1
  -3   2   0 32156.5 1301.77   4
  -3   2   0 29316.1 1144.24   1
  -3   2   1 68076.9 1835.18   4
  -3   2   1 69332.0 1853.41   1
  -3   2   2 12481.8 572.049   4
  -3   2   2 12150.2 668.543   1
  -3   2   3 15289.3 714.596   1
  -3   2   3 15006.0 1062.22   2
  -3   2   4 103031. 2161.24   1
  -3   2   4 102413. 3185.53   2
  -3   2   5 54727.2 1285.74   1
  -3   2   5 52762.8 2273.68   2
  -3   2   6 54823.9 2068.77   5
  -3   2   6 54598.4 1131.79   1
  -3   2   6 53250.5 2427.12   2
  -3   2   7-186.174 389.085   2
  -3   2   7 117.330 137.215   3
  -3   2   8 17992.4 1336.25   5
  -3   2   8 19144.0 751.661   3
  -3   2   9 7326.05 932.616   5
  -3   2   9 8120.87 1160.56   2
  -3   2  10 724.628 588.856   5
  -3   2  10 513.425 545.576   2
  -3   2  11 6365.73 1046.08   5
  -3   3  -6 3144.55 370.173   3
  -3   3  -5 3120.92 370.367   3
  -3   3  -4 5517.03 504.631   3
  -3   3  -3 61687.4 1767.37   3
  -3   3  -2 44526.3 1547.36   1
  -3   3  -2 45534.5 1518.43   4
  -3   3  -2 44902.2 1478.04   3
  -3   3  -1 15910.4 848.027   1
  -3   3  -1 14724.2 759.746   4
  -3   3   0 228670. 4236.41   4
  -3   3   0 213719. 4210.11   1
  -3   3   1 4175.59 340.313   4
  -3   3   1 4160.72 414.078   1
  -3   3   2 65261.8 1688.29   1
  -3   3   3 147206. 2879.47   1
  -3   3   4 4169.22 431.110   3
  -3   3   5 20572.3 916.382   3
  -3   3   6 17504.2 1153.72   5
  -3   3   6 16288.4 801.760   3
  -3   3   7 15376.8 1174.81   5
  -3   3   7 15857.1 780.714   3
  -3   3   7 16252.8 1370.63   2
  -3   3   8 5098.32 780.562   5
  -3   3   8 5054.76 815.024   2
  -3   3   9 731.600 471.709   5
  -3   3  10 5135.30 973.479   5
  -3   4  -6 21882.8 1039.90   3
  -3   4  -5 25651.2 1162.51   3
  -3   4  -4 3796.05 471.561   3
  -3   4  -3 47844.5 1629.56   3
  -3   4  -2 25689.7 1125.97   3
  -3   4  -1 137160. 2842.55   4
  -3   4  -1 137286. 3124.23   3
  -3   4   0 18126.3 749.085   4
  -3   4   0 18340.4 942.844   3
  -3   4   1 41.3284 51.8523   4
  -3   4   1 282.322 229.629   3
  -3   4   2 46006.6 1556.87   3
  -3   4   3 683.393 264.988   3
  -3   4   4 23438.2 1079.29   3
  -3   4   5 26658.0 1418.53   5
  -3   4   5 29744.6 1214.64   3
  -3   4   6 22.7259 335.172   5
  -3   4   6-221.361 236.963   3
  -3   4   7 11236.4 1072.66   5
  -3   4   7 10796.4 695.851   3
  -3   4   8 236.977 424.250   5
  -3   4   9 919.360 501.038   5
  -3   4  10 2080.51 684.095   5
  -3   5  -6 22008.4 1139.95   3
  -3   5  -5 607.659 278.898   3
  -3   5  -4 34840.3 1447.89   3
  -3   5  -3 13064.7 880.991   3
  -3   5  -2 1556.78 354.016   3
  -3   5  -1 28602.0 1307.05   3
  -3   5   0 1135.18 391.829   3
  -3   5   0 202.707 104.403   4
  -3   5   1 27990.0 1291.23   3
  -3   5   2 11039.4 805.788   3
  -3   5   3 18335.0 1038.80   3
  -3   5   4 20834.4 1197.14   5
  -3   5   4 22138.0 1126.42   3
  -3   5   5 1610.53 486.887   5
  -3   5   5 1980.23 368.087   3
  -3   5   6 2753.61 434.145   3
  -3   5   6 2469.98 516.461   5
  -3   5   7 8689.36 983.929   5
  -3   5   7 7107.66 628.504   3
  -3   5   8 311.743 427.787   5
  -3   5   9 1693.82 695.705   5
  -3   6  -6 2628.14 471.333   3
  -3   6  -5 17228.6 1088.50   3
  -3   6  -4 5157.99 634.241   3
  -3   6  -3 905.084 283.037   3
  -3   6  -2 15129.4 1024.85   3
  -3   6  -1 12865.5 940.672   3
  -3   6   0 8752.24 757.185   3
  -3   6   0 9184.10 376.696   4
  -3   6   0 9865.40 439.406   4
  -3   6   1 29098.2 1407.71   3
  -3   6   2 7280.21 730.225   3
  -3   6   3 12280.4 938.601   3
  -3   6   4 2480.55 461.859   5
  -3   6   4 3078.15 498.650   3
  -3   6   5 6263.13 753.361   5
  -3   6   5 5486.22 617.482   3
  -3   6   6 6526.36 681.348   3
  -3   6   6 5857.06 752.368   5
  -3   6   7 2249.08 707.425   5
  -3   6   7 1061.11 331.037   3
  -3   6   8 3706.16 809.745   5
  -3   6   9 1435.81 561.982   5
  -3   7  -7 4256.50 684.298   3
  -3   7  -6-324.291 347.764   3
  -3   7  -5 13316.0 1048.34   3
  -3   7  -4 1015.76 367.624   3
  -3   7  -3 356.100 272.533   3
  -3   7  -2 14394.1 1037.03   3
  -3   7  -1 1954.42 424.168   3
  -3   7   0 5887.39 306.368   4
  -3   7   0 6682.10 751.954   3
  -3   7   1 4308.42 613.619   3
  -3   7   2 444.592 298.853   3
  -3   7   3 1322.30 405.026   3
  -3   7   3 1195.10 354.909   5
  -3   7   4 5025.46 682.231   3
  -3   7   4 3873.81 630.097   5
  -3   7   5 1005.92 403.539   3
  -3   7   5 943.117 326.935   5
  -3   7   6 1008.64 482.732   5
  -3   7   6 1559.84 442.068   3
  -3   7   7 362.149 469.190   5
  -3   7   8 73.0179 557.748   5
  -3   8  -7 156.188 365.777   3
  -3   8  -6 788.764 470.822   3
  -3   8  -5 3252.32 605.759   3
  -3   8  -4 697.633 446.594   3
  -3   8  -3 1243.08 488.621   3
  -3   8  -2 607.982 379.165   3
  -3   8  -1 1438.57 497.680   3
  -3   8   0 298.374 348.745   3
  -3   8   1 978.579 414.087   3
  -3   8   2 7410.24 846.960   3
  -3   8   3 3850.94 669.109   3
  -3   8   3 4076.39 613.210   5
  -3   8   4 987.848 456.500   3
  -3   8   4 1194.77 468.047   5
  -3   8   5 946.580 430.212   5
  -3   8   5 2067.23 586.581   3
  -3   8   6 467.430 437.022   5
  -3   8   6 1214.08 466.235   3
  -3   8   7 185.786 510.632   5
  -3   9  -7-963.491 607.864   3
  -3   9  -6 1881.96 666.974   3
  -3   9  -5 2246.24 650.826   3
  -3   9  -4 733.131 505.269   3
  -3   9  -3 2600.34 610.334   3
  -3   9  -2 235.505 330.095   3
  -3   9  -1 321.280 465.031   3
  -3   9   0 2691.37 673.068   3
  -3   9   1 368.493 369.311   3
  -3   9   2 1147.04 492.991   3
  -3   9   2 1963.07 434.638   5
  -3   9   3 195.789 307.602   5
  -3   9   3 737.234 500.510   3
  -3   9   4 1507.92 427.122   5
  -3   9   4 2950.61 632.615   3
  -3   9   5 572.028 501.586   5
  -3   9   5-635.353 491.601   3
  -3   9   6 396.155 546.461   5
  -3  10  -6-361.711 527.951   3
  -3  10  -5-65.5121 491.151   3
  -3  10  -4 6199.60 987.108   3
  -3  10  -3 418.053 568.755   3
  -3  10  -2-694.163 620.814   3
  -3  10  -1 1018.40 593.146   3
  -3  10   0 162.292 509.582   3
  -3  10   1 701.617 507.314   3
  -3  10   2 1213.93 509.552   3
  -3  10   3 749.755 534.333   3
  -3  10   4 657.085 567.589   3
  -3  10   5-119.264 490.650   3
  -2  -9   2-93.0416 392.348   2
  -2  -9   3 1587.47 668.719   2
  -2  -9   4 1006.59 643.180   2
  -2  -9   5 537.277 423.824   2
  -2  -8   1-428.978 453.074   2
  -2  -8   2 6837.21 936.659   2
  -2  -8   3 349.609 376.798   2
  -2  -8   4 2566.62 711.045   2
  -2  -8   5 1263.75 508.872   2
  -2  -8   6 694.287 491.028   2
  -2  -8   7 8094.83 1221.28   2
  -2  -7  -1 9585.57 960.148   4
  -2  -7   0 166.507 284.266   2
  -2  -7   0-40.0939 334.314   4
  -2  -7   1 10484.1 992.854   2
  -2  -7   2 10532.3 1068.21   2
  -2  -7   3 68.5829 354.668   2
  -2  -7   4 31466.1 1944.40   2
  -2  -7   5 1831.58 642.754   2
  -2  -7   6 2074.60 648.986   2
  -2  -7   7 1311.20 649.437   2
  -2  -7   8 45.8049 544.152   2
  -2  -6  -4 14328.2 1319.68   4
  -2  -6  -3-134.216 434.484   4
  -2  -6  -2 12341.5 1127.98   4
  -2  -6  -1 7751.53 902.514   4
  -2  -6  -1 9289.95 751.035   2
  -2  -6   0 1675.70 396.176   2
  -2  -6   0 2026.88 470.487   4
  -2  -6   1 13381.5 1065.23   4
  -2  -6   1 15076.8 1086.64   2
  -2  -6   2 15605.6 1196.89   2
  -2  -6   3 58928.9 2467.31   2
  -2  -6   4 1799.79 531.701   2
  -2  -6   5 1712.81 549.693   2
  -2  -6   6 12682.6 1272.39   2
  -2  -6   7 1975.29 609.100   2
  -2  -6   8 8481.48 1187.03   2
  -2  -6   9 4803.16 1011.73   2
  -2  -5  -6 591.896 399.360   4
  -2  -5  -5 23921.1 1791.74   4
  -2  -5  -4 3148.31 673.821   4
  -2  -5  -3 2450.49 595.948   4
  -2  -5  -2 20335.3 1399.65   4
  -2  -5  -2 19923.7 924.014   2
  -2  -5  -1 4275.01 642.867   4
  -2  -5  -1 5157.50 519.748   2
  -2  -5   0 38058.1 1781.79   4
  -2  -5   0 38410.8 1547.38   2
  -2  -5   1 14987.4 1073.29   4
  -2  -5   1 14693.3 993.946   2
  -2  -5   2 14847.4 1053.56   2
  -2  -5   3 23634.2 1397.42   2
  -2  -5   4 383.105 452.628   2
  -2  -5   5 41459.7 2118.08   2
  -2  -5   6 27018.8 1760.14   2
  -2  -5   7 2845.28 715.621   2
  -2  -5   8 7492.12 1069.96   2
  -2  -5   9 1671.49 736.230   2
  -2  -5  10 1226.24 561.074   2
  -2  -4  -8 4142.20 858.705   4
  -2  -4  -7 1729.77 675.895   4
  -2  -4  -6 3333.88 702.713   4
  -2  -4  -5 6463.39 927.228   4
  -2  -4  -4-166.825 432.820   4
  -2  -4  -3 28237.6 1706.26   4
  -2  -4  -2 23535.0 1506.17   4
  -2  -4  -2 24766.2 900.733   2
  -2  -4  -1 56230.1 2222.63   4
  -2  -4  -1 58784.9 1556.87   5
  -2  -4  -1 62009.0 1731.41   2
  -2  -4   0 37380.5 1706.19   4
  -2  -4   0 42650.8 1485.99   2
  -2  -4   1 1054.77 277.578   2
  -2  -4   1 988.432 327.069   4
  -2  -4   2 51431.7 1916.07   2
  -2  -4   3 68970.7 2385.09   2
  -2  -4   4 1342.48 476.287   2
  -2  -4   5 31378.2 1722.27   2
  -2  -4   6 1563.70 530.236   2
  -2  -4   7 17684.8 1456.83   2
  -2  -4   8 7829.24 1053.83   2
  -2  -4   9-378.972 567.050   2
  -2  -4  10 7432.93 1173.02   2
  -2  -4  11 1260.26 668.709   2
  -2  -3  -9 4310.70 872.839   4
  -2  -3  -8 2924.03 724.339   4
  -2  -3  -7-59.3172 357.903   4
  -2  -3  -6 12251.4 1185.53   4
  -2  -3  -5 4202.15 737.731   4
  -2  -3  -4 13598.3 1165.66   4
  -2  -3  -3 50020.3 2223.73   4
  -2  -3  -2 172.489 84.7990   2
  -2  -3  -2-67.3224 341.182   4
  -2  -3  -1 77539.0 1875.11   5
  -2  -3  -1 80215.2 2653.14   4
  -2  -3  -1 78603.3 1815.92   2
  -2  -3   0 43863.7 1756.25   4
  -2  -3   0 43202.7 1059.63   5
  -2  -3   0 44871.5 1402.83   2
  -2  -3   1 11809.4 839.631   4
  -2  -3   1 12222.6 752.539   2
  -2  -3   2 77884.7 2237.50   4
  -2  -3   2 72128.4 2183.67   2
  -2  -3   3 26806.9 1317.96   2
  -2  -3   3 26593.0 739.130   5
  -2  -3   4 30484.3 1498.76   2
  -2  -3   4 30725.6 1016.50   5
  -2  -3   5 36506.8 1755.07   2
  -2  -3   5 36339.8 1314.60   5
  -2  -3   6 3863.72 686.641   2
  -2  -3   6 3586.33 494.683   5
  -2  -3   7 37190.3 1679.61   5
  -2  -3   7 36519.5 2021.55   2
  -2  -3   8 1305.94 550.549   2
  -2  -3   8 1751.31 460.632   5
  -2  -3   9 11062.5 1301.63   2
  -2  -3  10 6689.58 1101.48   2
  -2  -3  11 552.565 659.913   2
  -2  -3  12 9407.64 1451.66   2
  -2  -2 -10 788.700 556.387   4
  -2  -2  -9 3350.96 813.621   4
  -2  -2  -8 85.8704 472.292   4
  -2  -2  -7 11049.1 1137.62   4
  -2  -2  -6 16348.0 1312.92   4
  -2  -2  -5 2936.77 547.498   4
  -2  -2  -4 39036.2 1803.83   4
  -2  -2  -4 34445.2 1266.43   3
  -2  -2  -3 28853.6 1500.81   4
  -2  -2  -3 27016.5 1154.30   3
  -2  -2  -2 6067.79 701.634   4
  -2  -2  -2 6573.66 541.443   5
  -2  -2  -1 125662. 3383.19   4
  -2  -2  -1 119967. 2271.04   2
  -2  -2  -1 120377. 2573.86   5
  -2  -2   0 207.530 118.501   2
  -2  -2   0 562.405 248.470   4
  -2  -2   0 265.196 109.073   5
  -2  -2   1 70952.9 1843.62   2
  -2  -2   2 17108.1 503.021   5
  -2  -2   2 17242.2 890.934   2
  -2  -2   3 17117.8 986.101   2
  -2  -2   3 16225.4 611.092   5
  -2  -2   4 311771. 5376.19   5
  -2  -2   4 321432. 6265.33   2
  -2  -2   5 20965.6 985.032   5
  -2  -2   5 21428.0 1295.14   2
  -2  -2   6 50431.5 2243.54   2
  -2  -2   6 50445.9 1785.33   5
  -2  -2   7 36845.9 1629.52   5
  -2  -2   7 36391.3 1960.83   2
  -2  -2   8 205.174 350.219   5
  -2  -2   8 138.036 403.965   2
  -2  -2   9 26215.1 1926.72   2
  -2  -2   9 25401.8 1640.62   5
  -2  -2  10 3610.44 843.165   2
  -2  -2  10 4368.66 789.192   5
  -2  -2  11 6310.55 1157.54   2
  -2  -2  12-16.3256 640.143   2
  -2  -1 -10 2441.89 688.887   4
  -2  -1  -9 4167.10 822.070   4
  -2  -1  -8 920.322 444.716   4
  -2  -1  -7 12380.7 1150.88   4
  -2  -1  -6 2328.27 354.213   1
  -2  -1  -6 1893.40 537.256   4
  -2  -1  -5 9185.97 864.872   4
  -2  -1  -5 8917.45 654.560   1
  -2  -1  -5 9377.13 519.814   3
  -2  -1  -4 91885.4 2733.96   4
  -2  -1  -4 87226.3 2132.34   3
  -2  -1  -3 515.570 211.947   3
  -2  -1  -3 1294.44 326.300   4
  -2  -1  -2 121891. 2782.93   3
  -2  -1  -2 124893. 2906.35   5
  -2  -1  -1 43163.6 1048.70   2
  -2  -1  -1 42445.0 1449.41   3
  -2  -1   0 35647.9 1052.74   2
  -2  -1   1 440077. 7216.10   2
  -2  -1   2 40054.6 1390.09   2
  -2  -1   3 191287. 3485.69   5
  -2  -1   3 200258. 4143.29   2
  -2  -1   3 198354. 3921.01   3
  -2  -1   4 63657.3 1704.15   5
  -2  -1   4 63975.7 2144.39   2
  -2  -1   4 66739.0 1825.55   3
  -2  -1   5 19204.1 1219.53   2
  -2  -1   5 19560.1 895.921   3
  -2  -1   5 21116.5 999.594   5
  -2  -1   6 70106.6 2195.15   5
  -2  -1   6 73907.3 2701.65   2
  -2  -1   6 72377.1 1840.42   3
  -2  -1   7 43516.5 1828.12   5
  -2  -1   7 47805.7 2293.68   2
  -2  -1   7 43632.9 1270.96   3
  -2  -1   8 91570.2 3463.35   2
  -2  -1   8 84261.6 2908.72   5
  -2  -1   9 1512.40 440.312   5
  -2  -1   9 2930.23 747.630   2
  -2  -1  10 994.971 676.533   2
  -2  -1  10 60.6096 406.194   5
  -2  -1  11 5117.95 939.752   5
  -2  -1  11 6503.39 1199.22   2
  -2   0 -10 3578.83 781.579   4
  -2   0  -9 1020.04 575.254   4
  -2   0  -8 1644.81 548.050   4
  -2   0  -7 24595.0 1540.23   4
  -2   0  -6 1439.00 465.617   4
  -2   0  -6 1549.38 290.534   1
  -2   0  -5 74941.3 2452.67   4
  -2   0  -5 71864.8 1908.92   1
  -2   0  -5 72280.6 1683.53   3
  -2   0  -4 13496.5 725.417   1
  -2   0  -4 12508.2 660.275   3
  -2   0  -3 88887.5 2166.54   1
  -2   0  -3 79792.4 2129.74   3
  -2   0   0 999999. 15028.0   2
  -2   0   1 34976.4 1198.89   2
  -2   0   2 8142.69 597.428   2
  -2   0   3 69288.4 1733.97   5
  -2   0   3 74160.6 2167.30   2
  -2   0   4 353.144 215.083   5
  -2   0   4 329.607 161.482   3
  -2   0   4 614.083 241.682   2
  -2   0   5 85138.0 2357.98   5
  -2   0   5 86308.7 2811.42   2
  -2   0   5 91660.3 2155.78   3
  -2   0   6 53880.6 1927.45   5
  -2   0   6 55043.8 2320.99   2
  -2   0   6 55369.6 1445.84   3
  -2   0   7 51452.6 2046.81   5
  -2   0   7 50626.6 2365.68   2
  -2   0   7 49113.1 1243.48   3
  -2   0   8 29223.4 1613.29   5
  -2   0   8 29154.0 1912.02   2
  -2   0   9 804.145 501.127   5
  -2   0   9 155.215 407.843   2
  -2   0  10 12030.2 1263.26   5
  -2   0  10 13349.5 1412.56   2
  -2   0  11 9354.88 1225.49   5
  -2   0  11 7805.55 1213.02   2
  -2   1  -6 15079.9 491.969   3
  -2   1  -5 45152.9 1435.63   1
  -2   1  -5 44785.2 1087.20   3
  -2   1  -4 1566.93 279.923   1
  -2   1  -3 138637. 2859.21   1
  -2   1  -2 127348. 2654.59   1
  -2   1  -1 224272. 4074.67   1
  -2   1   0 72305.0 1728.13   1
  -2   1   1 32896.0 1192.04   2
  -2   1   2 379291. 6690.60   2
  -2   1   3 177266. 3909.44   2
  -2   1   4 102034. 2901.69   2
  -2   1   5 58740.1 2254.68   2
  -2   1   6 1996.30 425.185   5
  -2   1   6 2119.58 475.496   2
  -2   1   7 33740.5 1650.63   5
  -2   1   7 31509.0 802.547   3
  -2   1   7 30132.5 1776.54   2
  -2   1   7 31629.4 907.619   3
  -2   1   8 18181.0 1309.84   5
  -2   1   8 17029.1 1391.66   2
  -2   1   9 2964.82 697.331   5
  -2   1   9 3777.11 762.917   2
  -2   1  10 5545.36 934.912   5
  -2   1  10 5384.15 919.001   2
  -2   1  11 147.109 460.187   5
  -2   2  -6 47096.7 1171.57   3
  -2   2  -5 42895.3 1174.57   3
  -2   2  -4 95782.5 2038.98   3
  -2   2  -3 22149.1 809.635   3
  -2   2  -2 31296.5 1072.95   1
  -2   2  -1 211889. 3816.86   1
  -2   2   0 151315. 2787.63   4
  -2   2   0 147486. 2819.18   1
  -2   2   1 177531. 2911.01   4
  -2   2   1 175673. 3146.43   1
  -2   2   2 195249. 3329.64   1
  -2   2   3 291.339 81.7122   1
  -2   2   3-59.6851 196.072   2
  -2   2   4 137171. 2629.94   3
  -2   2   4 129673. 3409.71   2
  -2   2   5 20060.7 733.662   3
  -2   2   5 20967.3 1245.78   2
  -2   2   6 1914.29 488.887   2
  -2   2   6 1307.77 200.596   3
  -2   2   7 21914.6 1371.15   5
  -2   2   7 23235.5 710.507   3
  -2   2   7 24164.4 1532.08   2
  -2   2   8 1348.06 531.638   2
  -2   2   8 970.017 466.265   5
  -2   2   9 5642.20 855.825   5
  -2   2   9 6480.19 911.349   2
  -2   2  10 5469.44 881.306   5
  -2   2  11 1360.79 634.532   5
  -2   3  -6 27399.2 1000.51   3
  -2   3  -5 18253.1 793.154   3
  -2   3  -4 142733. 2938.11   3
  -2   3  -3 21697.7 885.187   3
  -2   3  -2 58164.8 1583.68   3
  -2   3  -1 140523. 2881.73   3
  -2   3   0 24997.5 691.246   4
  -2   3   0 26647.6 967.197   3
  -2   3   1 53113.6 1461.90   3
  -2   3   2 27178.2 994.121   3
  -2   3   3 35643.1 1156.31   3
  -2   3   4 41353.3 1275.40   3
  -2   3   5 1047.88 235.066   3
  -2   3   6 30356.3 1549.25   5
  -2   3   6 30701.0 1022.27   3
  -2   3   7 12097.9 1052.47   5
  -2   3   7 11886.2 581.740   3
  -2   3   8 489.818 402.100   5
  -2   3   9 19620.7 1544.67   5
  -2   3  10 1454.00 680.924   5
  -2   4  -7 14173.7 802.871   3
  -2   4  -6 2507.01 370.108   3
  -2   4  -5 22791.9 1009.04   3
  -2   4  -4 51291.1 1613.11   3
  -2   4  -3 2947.49 389.810   3
  -2   4  -2 36855.0 1335.54   3
  -2   4  -1 2267.15 358.060   3
  -2   4   0 4199.50 454.617   3
  -2   4   1 171093. 3542.57   3
  -2   4   2-160.223 185.436   3
  -2   4   3 75736.7 2034.27   3
  -2   4   4 14465.9 933.743   5
  -2   4   4 14886.2 803.405   3
  -2   4   5 10871.6 847.975   5
  -2   4   5 11230.9 680.696   3
  -2   4   6 29948.3 1573.18   5
  -2   4   6 27134.8 1086.29   3
  -2   4   7 4765.65 757.148   5
  -2   4   7 4182.17 413.424   3
  -2   4   8 15913.1 1353.86   5
  -2   4   9 2836.71 678.755   5
  -2   4  10 1326.60 732.810   5
  -2   5  -7 12690.0 886.489   3
  -2   5  -6-35.4196 238.739   3
  -2   5  -5 14575.9 930.336   3
  -2   5  -4 727.117 282.398   3
  -2   5  -3 21178.0 1064.12   3
  -2   5  -2 34677.9 1381.05   3
  -2   5  -1 437.159 281.481   3
  -2   5   0 127117. 2253.86   4
  -2   5   0 137217. 3150.97   3
  -2   5   1 19935.6 1053.05   3
  -2   5   2 23348.4 1118.85   3
  -2   5   3 41075.9 1523.82   3
  -2   5   4 29323.6 1379.62   5
  -2   5   4 26551.5 1207.50   3
  -2   5   5 52608.1 2043.55   5
  -2   5   5 52203.3 1769.73   3
  -2   5   6 1786.59 513.954   5
  -2   5   6 1026.89 327.547   3
  -2   5   7 3752.32 722.833   5
  -2   5   7 3386.69 453.888   3
  -2   5   8 4792.59 832.143   5
  -2   5   9 32.0783 496.835   5
  -2   6  -7 201.961 284.572   3
  -2   6  -6 12022.2 935.588   3
  -2   6  -5 7962.77 782.048   3
  -2   6  -4 10071.6 844.143   3
  -2   6  -3 112076. 3025.73   3
  -2   6  -2 4136.17 546.376   3
  -2   6  -1 10386.4 543.126   4
  -2   6  -1 9270.72 801.580   3
  -2   6   0 21444.5 1168.30   3
  -2   6   0 22316.3 730.392   4
  -2   6   1 242.149 306.439   3
  -2   6   2 20920.3 1167.58   3
  -2   6   3 24298.5 1228.45   5
  -2   6   3 24604.3 1271.61   3
  -2   6   4 35469.5 1592.20   5
  -2   6   4 38184.9 1627.00   3
  -2   6   5 10842.5 964.307   5
  -2   6   5 9180.15 806.780   3
  -2   6   6 1003.74 481.928   5
  -2   6   6 110.982 294.523   3
  -2   6   7 7860.14 978.298   5
  -2   6   8 2088.36 655.724   5
  -2   6   9 1742.57 702.824   5
  -2   7  -7 502.933 371.715   3
  -2   7  -6 8165.48 872.807   3
  -2   7  -5 16301.9 1144.84   3
  -2   7  -4 19688.1 1306.84   3
  -2   7  -3 10199.8 921.507   3
  -2   7  -2 712.040 355.501   3
  -2   7  -1 14651.2 704.302   4
  -2   7  -1 15910.6 1136.68   3
  -2   7   0 5044.37 662.901   3
  -2   7   1 15977.8 1137.41   3
  -2   7   2 6670.32 775.546   3
  -2   7   2 6887.17 658.774   5
  -2   7   3 1933.40 413.537   5
  -2   7   3 2392.87 528.404   3
  -2   7   4 14244.0 1018.18   5
  -2   7   4 15151.8 1111.79   3
  -2   7   5 2016.84 479.780   5
  -2   7   5 2241.09 505.511   3
  -2   7   6 3230.28 566.546   3
  -2   7   6 3520.94 624.006   5
  -2   7   7 1671.80 663.940   5
  -2   7   8-267.545 519.618   5
  -2   8  -7 3766.44 675.241   3
  -2   8  -6-376.020 507.994   3
  -2   8  -5 2390.99 549.753   3
  -2   8  -4 7421.17 863.551   3
  -2   8  -3 661.717 399.613   3
  -2   8  -2 15292.2 1198.99   3
  -2   8  -1 10397.2 1037.41   3
  -2   8   0 2278.78 616.416   3
  -2   8   1 14977.0 927.439   5
  -2   8   1 13908.3 1168.23   3
  -2   8   2 511.396 280.681   5
  -2   8   2 506.031 428.536   3
  -2   8   3 5.18906 274.718   5
  -2   8   3-426.620 408.306   3
  -2   8   4 2688.21 559.388   5
  -2   8   4 2962.38 565.563   3
  -2   8   5 865.859 438.678   5
  -2   8   5 980.828 470.086   3
  -2   8   6 389.379 427.956   5
  -2   8   7-443.461 573.263   5
  -2   9  -7 3281.00 755.069   3
  -2   9  -6 428.732 538.572   3
  -2   9  -5 2097.29 603.630   3
  -2   9  -4 2857.02 732.129   3
  -2   9  -3 710.353 509.640   3
  -2   9  -2 2864.54 635.726   3
  -2   9  -1 400.421 436.780   3
  -2   9   0 4869.89 765.696   3
  -2   9   1 1140.82 593.129   3
  -2   9   2 329.676 365.998   3
  -2   9   3 2217.57 612.659   3
  -2   9   4-192.072 446.006   3
  -2   9   5-605.711 570.559   3
  -2  10  -6-420.846 566.377   3
  -2  10  -5-272.141 547.456   3
  -2  10  -4 330.147 520.699   3
  -2  10  -3-1132.57 591.006   3
  -2  10  -2 1296.97 543.462   3
  -2  10  -1 79.3444 441.443   3
  -2  10   0 646.418 501.524   3
  -2  10   1-717.395 524.494   3
  -2  10   2 123.600 476.935   3
  -2  10   3 1118.51 546.863   3
  -2  10   4 1112.25 620.760   3
  -1 -10   2-521.225 690.964   2
  -1 -10   3-446.228 691.385   2
  -1  -9   1 2154.36 614.562   2
  -1  -9   2-78.1467 459.299   2
  -1  -9   3 1590.85 583.129   2
  -1  -9   4 2908.25 794.205   2
  -1  -9   5 1405.40 708.122   2
  -1  -9   6 3037.31 835.342   2
  -1  -8   0 2610.91 531.461   2
  -1  -8   1 3194.30 654.628   2
  -1  -8   2 1163.91 504.055   2
  -1  -8   3 8833.68 1037.18   2
  -1  -8   4 1481.22 581.080   2
  -1  -8   5 2734.33 669.313   2
  -1  -8   6 1395.13 598.906   2
  -1  -8   7-83.7459 544.953   2
  -1  -7  -1 16.2990 297.665   4
  -1  -7  -1 233.730 292.329   2
  -1  -7   0 12697.9 1020.74   2
  -1  -7   1 4764.50 686.254   2
  -1  -7   2 4156.37 693.123   2
  -1  -7   3 1331.88 454.875   2
  -1  -7   4 1161.69 492.129   2
  -1  -7   5 10609.2 1169.11   2
  -1  -7   6 1672.60 550.841   2
  -1  -7   7 1280.07 619.684   2
  -1  -7   8 5203.50 1016.38   2
  -1  -7   9-241.481 606.341   2
  -1  -6  -4-203.429 317.600   4
  -1  -6  -3 10765.3 986.897   4
  -1  -6  -2 413.509 348.118   4
  -1  -6  -1 6803.76 685.644   4
  -1  -6  -1 7861.31 700.374   2
  -1  -6   0 9282.76 793.084   4
  -1  -6   0 9711.64 827.276   2
  -1  -6   1 6217.43 703.378   2
  -1  -6   2 10343.6 944.724   2
  -1  -6   3 4833.62 745.048   2
  -1  -6   4 1360.66 431.904   2
  -1  -6   5 20912.2 1519.80   2
  -1  -6   6 30.0711 499.940   2
  -1  -6   7 11893.8 1322.48   2
  -1  -6   8 7030.74 1084.59   2
  -1  -6   9 1193.62 595.323   2
  -1  -6  10 1853.89 733.369   2
  -1  -5  -6 609.711 399.980   4
  -1  -5  -5 583.465 379.439   4
  -1  -5  -4 4951.40 738.360   4
  -1  -5  -3 6854.75 804.963   4
  -1  -5  -2 4561.79 612.925   4
  -1  -5  -1 20144.3 1135.67   4
  -1  -5   0 2656.71 428.001   4
  -1  -5   1 50416.7 1844.40   2
  -1  -5   2 48851.5 1896.68   2
  -1  -5   3 3078.06 548.799   2
  -1  -5   4 38580.0 1877.45   2
  -1  -5   5 21200.2 1466.91   2
  -1  -5   6 6945.59 901.855   2
  -1  -5   7 8070.65 995.440   2
  -1  -5   8 2190.47 678.092   2
  -1  -5   9 13720.0 1482.69   2
  -1  -5  10 1494.20 761.612   2
  -1  -5  11 3383.67 1053.70   2
  -1  -4  -8-194.655 512.563   4
  -1  -4  -7 8421.49 1031.82   4
  -1  -4  -6 5583.70 823.660   4
  -1  -4  -5 4042.14 657.027   4
  -1  -4  -4 27046.0 1588.50   4
  -1  -4  -3 3838.87 654.427   4
  -1  -4  -2 47600.1 1908.01   4
  -1  -4  -1 36830.7 1506.65   4
  -1  -4   0 17528.2 941.080   4
  -1  -4   1 95776.4 2404.52   4
  -1  -4   1 93541.5 2490.74   2
  -1  -4   2 1060.40 281.887   2
  -1  -4   3 48993.5 1876.30   2
  -1  -4   4 53598.3 2092.05   2
  -1  -4   5 1842.28 472.682   2
  -1  -4   6 31129.4 1793.87   2
  -1  -4   7 10963.9 1134.04   2
  -1  -4   8 17359.8 1492.28   2
  -1  -4   9 13746.7 1420.51   2
  -1  -4  10-289.615 496.194   2
  -1  -4  11 3198.27 875.275   2
  -1  -4  12 418.080 665.976   2
  -1  -3 -10 857.688 570.347   4
  -1  -3  -9-236.236 464.880   4
  -1  -3  -8 411.642 380.221   4
  -1  -3  -7 14245.5 1242.94   4
  -1  -3  -6 300.945 290.566   4
  -1  -3  -5 34883.0 1713.58   4
  -1  -3  -4 34159.2 1599.58   4
  -1  -3  -4 33099.9 784.545   2
  -1  -3  -3 10753.6 882.813   4
  -1  -3  -3 10603.3 540.060   2
  -1  -3  -2 44783.0 1376.46   5
  -1  -3  -2 49192.5 1877.04   4
  -1  -3  -1 26987.6 851.686   5
  -1  -3  -1 24783.9 1189.12   4
  -1  -3   0 103698. 2492.30   4
  -1  -3   0 100554. 2265.86   2
  -1  -3   1 56326.2 1624.72   4
  -1  -3   1 55529.6 1637.80   2
  -1  -3   2 25139.5 1118.35   2
  -1  -3   3 163855. 3745.60   2
  -1  -3   4 13790.9 990.668   2
  -1  -3   5 47111.9 1985.66   2
  -1  -3   6 74168.4 2704.57   2
  -1  -3   7-216.783 369.183   2
  -1  -3   8 20963.5 1582.75   2
  -1  -3   9 8797.60 1152.35   2
  -1  -3  10 5614.39 980.205   2
  -1  -3  11 2925.23 975.876   2
  -1  -3  12 832.019 585.261   2
  -1  -2 -10 2357.51 622.706   4
  -1  -2  -9-408.744 494.650   4
  -1  -2  -8 9172.80 1011.47   4
  -1  -2  -7 6809.23 800.752   4
  -1  -2  -6 5947.65 706.388   4
  -1  -2  -6 5952.92 387.661   1
  -1  -2  -5 69103.0 2282.37   4
  -1  -2  -5 62696.2 1478.11   3
  -1  -2  -4 21664.4 1142.68   4
  -1  -2  -4 19879.1 750.126   3
  -1  -2  -3 61828.9 1954.82   4
  -1  -2  -3 55682.9 1459.30   3
  -1  -2  -2 29445.1 1038.68   5
  -1  -2  -2 28128.1 976.699   3
  -1  -2  -1 109843. 2134.96   5
  -1  -2  -1 107275. 2724.07   4
  -1  -2  -1 107183. 2346.95   3
  -1  -2   0 293103. 4470.37   5
  -1  -2   0 296901. 5230.57   4
  -1  -2   0 294010. 4845.33   2
  -1  -2   1 83996.2 1944.49   2
  -1  -2   2 222194. 4232.98   2
  -1  -2   2 220651. 3504.80   5
  -1  -2   3 21878.6 767.371   5
  -1  -2   3 23066.7 1080.59   2
  -1  -2   3 21430.0 853.926   3
  -1  -2   4 2553.84 331.786   5
  -1  -2   4 2513.08 424.536   2
  -1  -2   4 2774.68 297.369   3
  -1  -2   5 51276.7 1947.60   2
  -1  -2   5 48684.6 1353.32   3
  -1  -2   5 50936.7 1701.45   5
  -1  -2   6 2331.23 261.387   3
  -1  -2   6 2361.50 498.160   2
  -1  -2   6 2907.47 437.170   5
  -1  -2   7 14534.1 631.719   3
  -1  -2   7 14355.7 1068.66   5
  -1  -2   8 6855.26 850.731   5
  -1  -2   8 7765.07 955.277   2
  -1  -2   9-14.6783 412.099   2
  -1  -2  10 15504.2 1541.25   2
  -1  -2  11 1130.14 588.025   2
  -1  -1 -11 1107.95 600.023   4
  -1  -1 -10 486.494 394.545   4
  -1  -1  -9 5918.85 869.730   4
  -1  -1  -6 62187.0 1417.44   1
  -1  -1  -5 1369.08 127.240   3
  -1  -1  -5 1655.75 207.478   1
  -1  -1  -4 31588.4 1295.86   4
  -1  -1  -4 33107.6 1014.25   1
  -1  -1  -4 31180.1 810.380   3
  -1  -1  -3 177938. 3661.54   4
  -1  -1  -3 178358. 3101.89   3
  -1  -1  -2 1891.69 259.330   5
  -1  -1  -2 1621.16 195.405   3
  -1  -1  -1 188793. 3416.81   3
  -1  -1  -1 194385. 3351.69   5
  -1  -1   0 13594.7 470.368   2
  -1  -1   1 1193.19 174.936   2
  -1  -1   2 263338. 4177.94   5
  -1  -1   2 264357. 4639.21   2
  -1  -1   3 24109.1 838.644   5
  -1  -1   3 22929.8 1007.56   2
  -1  -1   3 24573.3 797.983   3
  -1  -1   4 31155.4 1138.47   5
  -1  -1   4 33079.8 1333.39   2
  -1  -1   4 32111.9 913.193   3
  -1  -1   5 24933.1 1132.25   5
  -1  -1   5 24768.0 1284.79   2
  -1  -1   5 23688.7 728.155   3
  -1  -1   6 8944.44 836.343   2
  -1  -1   6 7284.27 350.840   3
  -1  -1   6 7788.21 741.767   5
  -1  -1   7 29920.9 1519.75   5
  -1  -1   7 29457.7 717.587   3
  -1  -1   7 31381.9 1715.63   2
  -1  -1   8 6366.57 842.256   5
  -1  -1   8 7028.03 895.491   2
  -1  -1   9-455.508 387.248   5
  -1  -1   9 1013.41 567.272   2
  -1  -1  10 9995.14 1204.02   2
  -1  -1  10 12460.1 1299.04   5
  -1  -1  11-459.409 462.939   2
  -1   0  -4 62753.8 1206.38   3
  -1   0  -4 66937.4 1462.51   1
  -1   0  -3 28265.3 1128.16   5
  -1   0  -3 26621.6 798.156   1
  -1   0  -3 26268.8 750.077   3
  -1   0  -2 88590.3 1801.94   1
  -1   0  -2 91089.5 2097.21   5
  -1   0   2 45199.2 1293.91   2
  -1   0   3 77168.9 2037.43   2
  -1   0   3 81514.2 1658.02   3
  -1   0   4 218475. 4579.14   2
  -1   0   4 229266. 3667.50   3
  -1   0   5 44560.1 1772.81   2
  -1   0   5 45382.0 936.790   3
  -1   0   6 46779.9 1968.89   2
  -1   0   6 44760.4 959.422   1
  -1   0   6 45392.6 1781.43   5
  -1   0   7 13258.1 445.711   1
  -1   0   7 15543.7 1180.13   2
  -1   0   7 15847.0 1109.66   5
  -1   0   8 14660.0 1243.97   2
  -1   0   8 15683.6 1227.01   5
  -1   0   9 28849.6 1868.03   2
  -1   0   9 26448.7 1743.62   5
  -1   0  10 5174.84 889.020   5
  -1   0  10 3919.54 802.545   2
  -1   1  -5 31298.7 677.497   3
  -1   1  -4 52379.3 1052.99   3
  -1   1  -3 2854.68 383.788   5
  -1   1  -3 2791.92 189.889   3
  -1   1  -2 305986. 4878.18   1
  -1   1  -2 302769. 4708.17   3
  -1   1  -1 11421.0 440.806   1
  -1   1   2 72676.1 1201.96   1
  -1   1   2 67249.3 1727.21   2
  -1   1   3 91250.0 2259.53   2
  -1   1   4 51519.3 1022.90   3
  -1   1   4 44823.4 1631.66   2
  -1   1   5 5540.01 231.768   3
  -1   1   5 4829.43 554.696   2
  -1   1   6 63824.7 2296.77   2
  -1   1   7 9683.53 904.929   2
  -1   1   7 9571.64 906.819   5
  -1   1   8 19990.3 1412.26   5
  -1   1   8 21041.3 1422.69   2
  -1   1   9 19093.4 1378.47   2
  -1   1   9 15272.8 1368.55   5
  -1   1  10-23.3572 542.500   5
  -1   1  11 1635.94 687.378   5
  -1   2  -6 3470.02 273.160   3
  -1   2  -5 89430.7 1832.66   3
  -1   2  -4 11263.0 486.606   3
  -1   2  -3 1869.66 211.063   3
  -1   2  -2 291303. 4762.75   3
  -1   2  -1 43.0898 101.545   3
  -1   2   0 189072. 3281.10   3
  -1   2   1 215496. 3665.19   3
  -1   2   2 130.127 110.480   3
  -1   2   3 9150.57 444.251   3
  -1   2   4 50747.0 1187.84   3
  -1   2   4 52491.3 1693.36   2
  -1   2   5 114756. 2140.08   3
  -1   2   5 119889. 2985.56   2
  -1   2   6 32729.0 1559.97   5
  -1   2   6 30675.8 783.370   3
  -1   2   6 33075.3 1494.65   2
  -1   2   7 3929.32 644.426   5
  -1   2   7 3907.36 557.439   2
  -1   2   8 25048.1 1441.90   2
  -1   2   8 20614.1 1473.77   5
  -1   2   9 1452.63 544.352   5
  -1   2  10 3266.95 828.419   5
  -1   3  -7 16646.1 789.469   3
  -1   3  -6 15832.4 760.115   3
  -1   3  -5 16775.4 754.171   3
  -1   3  -4 27901.0 992.403   3
  -1   3  -3 71090.5 1722.22   3
  -1   3  -2 30637.3 1031.57   3
  -1   3  -1 33395.8 1078.62   3
  -1   3   0 135895. 2219.04   4
  -1   3   0 128273. 2676.16   3
  -1   3   1 52212.9 1412.30   3
  -1   3   2 154492. 3072.40   5
  -1   3   2 155972. 3009.89   3
  -1   3   3 98378.0 2375.01   5
  -1   3   3 97512.3 2123.78   3
  -1   3   4 12112.7 612.173   3
  -1   3   5 60485.9 2060.24   5
  -1   3   5 58651.6 1509.72   3
  -1   3   6 10601.6 922.849   5
  -1   3   6 10827.1 557.996   3
  -1   3   7 21151.9 739.902   3
  -1   3   7 19166.1 1349.27   5
  -1   3   8 4472.99 739.474   5
  -1   3   9 199.273 500.768   5
  -1   3  10 2501.34 726.722   5
  -1   4  -7 3535.84 469.068   3
  -1   4  -6 27486.4 1184.13   3
  -1   4  -5 8180.35 605.176   3
  -1   4  -4 36441.7 1335.21   3
  -1   4  -3 61502.6 1785.46   3
  -1   4  -2 671.417 219.877   3
  -1   4  -1 229989. 4361.93   3
  -1   4   0 316.997 178.583   3
  -1   4   0 491.543 110.533   4
  -1   4   1 21941.3 714.184   4
  -1   4   1 20309.4 938.110   3
  -1   4   2 101242. 2334.12   5
  -1   4   2 99590.7 2413.88   3
  -1   4   3 881.338 225.833   3
  -1   4   4 25312.8 1234.95   5
  -1   4   4 25416.3 1069.78   3
  -1   4   5 18538.6 1142.20   5
  -1   4   5 16414.4 853.857   3
  -1   4   6 2430.18 482.033   5
  -1   4   6 2926.03 387.088   3
  -1   4   7 12500.2 1122.24   5
  -1   4   8 150.873 333.058   5
  -1   4   9 209.251 505.723   5
  -1   4  10 2126.82 691.251   5
  -1   5  -7 16270.4 1062.86   3
  -1   5  -6 25382.4 1277.25   3
  -1   5  -5 3908.69 503.533   3
  -1   5  -4 69738.6 2139.70   3
  -1   5  -3 5987.06 602.233   3
  -1   5  -2 20099.0 1059.90   3
  -1   5  -1 65730.0 1616.81   4
  -1   5  -1 66654.2 2065.66   3
  -1   5   0 408.663 212.102   3
  -1   5   0 736.645 154.551   4
  -1   5   1 11519.2 589.284   4
  -1   5   1 10605.8 782.821   3
  -1   5   2 2007.47 386.005   3
  -1   5   3 16174.5 952.395   3
  -1   5   4 12474.2 893.049   5
  -1   5   4 10856.7 798.974   3
  -1   5   5 426.363 389.936   5
  -1   5   5 10.1258 227.044   3
  -1   5   6 4776.13 676.600   5
  -1   5   6 3983.02 511.234   3
  -1   5   7 5541.95 786.883   5
  -1   5   8 487.695 402.370   5
  -1   5   9 4690.60 891.438   5
  -1   6  -7 10665.2 928.546   3
  -1   6  -6 3995.94 601.639   3
  -1   6  -5 22931.0 1291.71   3
  -1   6  -4 2534.19 491.324   3
  -1   6  -3 3051.44 537.488   3
  -1   6  -2 7357.76 743.811   3
  -1   6  -1 3371.64 542.936   3
  -1   6  -1 2873.33 322.604   4
  -1   6   0 18944.3 893.813   4
  -1   6   0 21403.3 1231.75   3
  -1   6   1 21134.4 928.201   5
  -1   6   1 20522.9 898.755   4
  -1   6   1 22099.5 1227.76   3
  -1   6   2 445.866 291.140   3
  -1   6   3 20440.6 1121.33   5
  -1   6   3 19868.5 1190.85   3
  -1   6   4 224.123 303.178   5
  -1   6   4 236.459 315.602   3
  -1   6   5 5209.84 723.416   5
  -1   6   5 3842.56 559.545   3
  -1   6   6 11528.5 1069.43   5
  -1   6   6 12523.3 962.154   3
  -1   6   7 724.410 419.113   5
  -1   6   8 2660.80 718.474   5
  -1   6   9 91.3081 452.478   5
  -1   7  -7 2682.04 573.058   3
  -1   7  -6 1211.93 450.897   3
  -1   7  -5 12562.6 1101.31   3
  -1   7  -4 4269.74 662.842   3
  -1   7  -3 431.978 381.689   3
  -1   7  -2 12957.1 1064.41   3
  -1   7  -1 197.959 379.979   3
  -1   7   0 21211.4 902.523   5
  -1   7   0 20574.6 1319.04   3
  -1   7   1 4934.29 675.205   3
  -1   7   2 888.492 410.439   3
  -1   7   3 5062.57 588.745   5
  -1   7   3 6398.30 797.868   3
  -1   7   4 2919.84 530.952   5
  -1   7   4 3041.58 566.784   3
  -1   7   5 2988.78 622.561   5
  -1   7   5 3857.24 668.933   3
  -1   7   6 900.770 427.196   5
  -1   7   7-368.079 457.542   5
  -1   7   8 283.206 506.165   5
  -1   8  -7 1065.37 544.037   3
  -1   8  -6 1132.39 490.397   3
  -1   8  -5 5128.07 802.032   3
  -1   8  -4 446.627 387.267   3
  -1   8  -3 5944.06 822.723   3
  -1   8  -2 4463.63 752.980   3
  -1   8  -1 468.886 465.980   3
  -1   8   0 715.119 420.882   3
  -1   8   1 783.248 461.884   3
  -1   8   2 8238.93 977.019   3
  -1   8   3 2341.84 665.748   3
  -1   8   4 1752.52 551.130   3
  -1   8   5 1641.32 557.016   3
  -1   9  -7-15.1809 638.728   3
  -1   9  -6 3038.46 683.462   3
  -1   9  -5 1765.30 659.967   3
  -1   9  -4 1075.45 495.972   3
  -1   9  -3 2558.13 642.689   3
  -1   9  -2 575.480 564.572   3
  -1   9  -1 1531.09 577.962   3
  -1   9   0 2882.53 736.338   3
  -1   9   1 887.561 497.133   3
  -1   9   2 1994.82 561.523   3
  -1   9   3 643.178 534.441   3
  -1   9   4 4590.25 813.283   3
  -1   9   5 407.789 432.534   3
  -1  10  -5 920.019 626.345   3
  -1  10  -4 3777.50 812.359   3
  -1  10  -3-813.955 597.381   3
  -1  10  -2 654.163 564.752   3
  -1  10  -1 1644.69 748.469   3
  -1  10   0 6.22475 495.415   3
  -1  10   1 625.871 583.351   3
  -1  10   2 1768.34 744.652   3
  -1  10   3 729.546 649.123   3
   0 -10   1 45.4782 437.548   2
   0 -10   2 2556.00 695.039   2
   0 -10   3 1401.59 634.964   2
   0 -10   4-33.2388 537.049   2
   0  -9   1 305.634 426.798   2
   0  -9   2 2376.10 618.077   2
   0  -9   3 1263.78 495.418   2
   0  -9   4 1397.79 655.674   2
   0  -9   5 2708.17 729.612   2
   0  -9   6 1749.87 760.986   2
   0  -8   2 14811.0 1233.84   2
   0  -8   3-269.301 427.889   2
   0  -8   4 3733.33 821.603   2
   0  -8   5 1522.08 671.032   2
   0  -8   6 1454.42 586.439   2
   0  -8   7 8685.25 1181.96   2
   0  -8   8 1403.38 671.626   2
   0  -7   3 7095.72 872.906   2
   0  -7   4 47021.6 2314.45   2
   0  -7   5 2313.70 685.284   2
   0  -7   6 12317.7 1290.00   2
   0  -7   7 3226.81 719.201   2
   0  -7   8 669.228 605.751   2
   0  -7   9 2516.26 844.607   2
   0  -6  -3 6697.79 641.639   4
   0  -6  -2 28485.7 1236.28   4
   0  -6  -1 3545.46 428.285   4
   0  -6   4-597.709 414.516   2
   0  -6   5 3044.99 670.776   2
   0  -6   6 12884.4 1235.45   2
   0  -6   7 124.626 512.225   2
   0  -6   8 12352.8 1406.74   2
   0  -6   9 657.644 641.215   2
   0  -6  10 488.577 488.042   2
   0  -5  -6 672.905 358.348   4
   0  -5  -5 59922.4 2452.63   4
   0  -5  -4 875.920 362.360   4
   0  -5  -3 25938.4 1303.51   4
   0  -5  -2 47230.0 1605.67   4
   0  -5  -1-68.0928 169.269   4
   0  -5   4 4611.82 666.121   2
   0  -5   5 45169.5 2107.06   2
   0  -5   6 5832.91 857.050   2
   0  -5   7 15999.0 1419.50   2
   0  -5   8 11369.7 1275.54   2
   0  -5   9 296.631 413.810   2
   0  -5  10 4653.81 967.247   2
   0  -5  11 3500.93 923.728   2
   0  -4  -8 13135.8 1208.66   4
   0  -4  -7 887.644 452.418   4
   0  -4  -6 16409.8 1187.70   4
   0  -4  -5 15553.2 1095.24   4
   0  -4  -4 1311.12 348.449   4
   0  -4  -4 924.656 250.762   2
   0  -4  -3 47822.5 1828.60   4
   0  -4  -2 5033.28 500.333   4
   0  -4  -1 147770. 3013.04   4
   0  -4   0 14292.5 657.619   4
   0  -4   4 40347.6 1768.23   2
   0  -4   5 56990.2 2265.85   2
   0  -4   6-212.943 346.157   2
   0  -4   7 21339.2 1561.81   2
   0  -4   8 3085.21 757.407   2
   0  -4   9 1669.51 525.474   2
   0  -4  10 10788.5 1307.84   2
   0  -4  11 430.326 478.775   2
   0  -3 -10-22.5416 374.316   4
   0  -3  -9 13808.8 1257.10   4
   0  -3  -8 2747.84 579.556   4
   0  -3  -7 1719.22 437.037   4
   0  -3  -6 16850.8 1092.73   4
   0  -3  -5 844.963 196.632   2
   0  -3  -5 1352.06 326.726   4
   0  -3  -5 716.139 174.019   3
   0  -3  -4 36848.5 1423.12   4
   0  -3  -4 33569.0 1116.05   3
   0  -3  -4 35250.6 1254.20   2
   0  -3  -3 51495.9 1650.76   4
   0  -3  -3 47444.4 1375.54   3
   0  -3  -3 48897.4 1538.78   2
   0  -3  -2 23418.2 1051.27   4
   0  -3  -2 22869.6 879.223   3
   0  -3  -1 130818. 2660.52   4
   0  -3  -1 127056. 2639.28   3
   0  -3   0 1533.21 208.392   4
   0  -3   3 29927.6 1303.56   2
   0  -3   3 29166.3 1021.47   3
   0  -3   4 76876.3 2374.59   2
   0  -3   4 77654.9 1892.18   3
   0  -3   5 46163.2 1880.87   2
   0  -3   5 47392.5 1396.20   3
   0  -3   6 15920.4 1182.25   2
   0  -3   6 14787.5 728.370   3
   0  -3   7 39226.7 1984.28   2
   0  -3   7 37229.8 1179.15   3
   0  -3   8-486.504 443.827   2
   0  -3   9 7724.67 1000.12   2
   0  -3  10 1717.85 582.641   2
   0  -3  11 498.341 477.909   2
   0  -2 -11 1205.68 519.576   4
   0  -2 -10 1731.17 502.023   4
   0  -2  -6 12394.6 658.000   2
   0  -2  -5 2564.41 291.463   2
   0  -2  -5 2362.06 153.524   1
   0  -2  -5 1979.59 192.722   3
   0  -2  -4 129270. 2404.49   3
   0  -2  -4 135301. 2662.84   2
   0  -2  -3 35386.6 1237.65   5
   0  -2  -3 36046.5 1174.14   4
   0  -2  -3 35593.9 964.530   3
   0  -2  -3 36300.2 1119.06   2
   0  -2  -2 81291.7 1825.14   5
   0  -2  -2 80861.4 1858.82   4
   0  -2  -2 76701.6 1640.89   3
   0  -2  -1 299951. 5234.68   4
   0  -2  -1 318035. 4998.96   3
   0  -2   0 1494.35 166.930   4
   0  -2   3 40195.7 1367.73   2
   0  -2   3 38097.0 1028.38   3
   0  -2   4 278384. 5363.47   2
   0  -2   4 272897. 4562.53   3
   0  -2   5 13030.3 920.442   2
   0  -2   5 12435.7 543.456   3
   0  -2   6 99413.5 2994.66   2
   0  -2   6 97733.3 1950.24   3
   0  -2   7 16348.8 1194.67   2
   0  -2   8 8145.03 928.350   2
   0  -2   9 29113.6 1850.99   2
   0  -2  10 268.369 406.297   2
   0  -1  -6 1392.53 243.299   2
   0  -1  -5 25322.2 953.171   2
   0  -1  -4 151660. 2831.12   2
   0  -1  -4 147729. 2310.05   1
   0  -1  -3 18993.2 825.771   5
   0  -1  -3 18933.9 475.606   3
   0  -1  -3 18081.6 648.555   2
   0  -1  -2 299124. 4890.61   5
   0  -1  -2 295898. 4485.24   3
   0  -1  -2 294357. 4726.69   2
   0  -1  -1 50134.9 1059.12   5
   0  -1   2 90564.3 1930.69   2
   0  -1   3 399837. 6847.16   2
   0  -1   3 412647. 6146.25   3
   0  -1   4 25348.6 1076.70   2
   0  -1   4 24932.6 617.234   3
   0  -1   5 66730.5 2129.85   5
   0  -1   5 65673.3 2068.19   2
   0  -1   5 67676.6 1535.41   1
   0  -1   6 71127.4 2358.42   2
   0  -1   6 69694.7 1623.23   1
   0  -1   6 73765.3 2418.87   5
   0  -1   7 4546.77 630.313   2
   0  -1   7 3973.88 344.387   1
   0  -1   7 3451.73 612.595   5
   0  -1   8 103409. 3387.55   2
   0  -1   9-560.048 415.793   2
   0  -1  10-434.411 419.582   2
   0   0  -5 96551.9 2284.97   2
   0   0  -4-3.97199 106.893   2
   0   0  -3 146395. 2931.78   5
   0   0  -3 144715. 2726.41   2
   0   0  -2 50728.0 1221.32   5
   0   0  -2 48873.1 1113.88   2
   0   0   2 48762.1 1138.65   2
   0   0   2 50348.9 886.179   1
   0   0   3 143672. 2311.64   1
   0   0   3 140229. 2787.82   2
   0   0   4 74.6236 68.8182   1
   0   0   4-13.3535 155.728   2
   0   0   5 94877.8 2529.33   2
   0   0   6 19409.6 1141.30   2
   0   0   7 37736.9 1745.83   2
   0   0   7 38648.0 1872.70   5
   0   0   8 7362.90 924.470   5
   0   0   8 7696.84 842.739   2
   0   0   9 2046.81 458.715   2
   0   1  -5 62805.6 1295.49   3
   0   1  -4 23237.7 968.964   2
   0   1  -4 22485.9 636.315   3
   0   1  -3 389022. 6362.96   5
   0   1  -3 383586. 5860.27   3
   0   1  -2 87311.3 1764.56   5
   0   1  -2 86909.5 1567.73   3
   0   1   2 311468. 4724.63   3
   0   1   2 310787. 4908.84   2
   0   1   3 20439.0 525.265   3
   0   1   3 20283.7 737.067   2
   0   1   4 154341. 3125.55   2
   0   1   4 152747. 2454.73   3
   0   1   5 25802.9 1116.61   2
   0   1   6 1771.13 445.880   5
   0   1   6 2186.77 374.919   2
   0   1   7 35498.5 1541.47   2
   0   1   7 35414.8 1805.99   5
   0   1   8 5914.48 871.266   5
   0   1   8 5034.12 593.110   2
   0   1   9 6245.93 904.060   5
   0   2  -6 93789.2 2066.45   3
   0   2  -5 11980.3 591.391   3
   0   2  -4 260862. 4843.93   5
   0   2  -4 265748. 4523.48   3
   0   2  -3 38814.3 1081.91   3
   0   2  -3 38260.6 1151.26   5
   0   2  -2 3105.40 265.942   3
   0   2  -2 3551.76 266.839   5
   0   2  -1 58103.2 1357.30   3
   0   2   0 1215.71 165.476   3
   0   2   0 1549.23 173.928   4
   0   2   1 351486. 5431.56   5
   0   2   1 337711. 5630.27   4
   0   2   1 352055. 5573.68   3
   0   2   2 84431.3 1900.12   5
   0   2   2 84966.2 1771.34   3
   0   2   3 38366.1 1038.62   3
   0   2   4 141529. 2622.83   3
   0   2   5 2535.96 454.818   5
   0   2   5 2684.20 235.116   3
   0   2   6 13294.9 1047.87   5
   0   2   7 31995.1 1756.04   5
   0   2   8 479.762 467.542   5
   0   2   9 4798.88 840.532   5
   0   3  -7 36516.7 1351.47   3
   0   3  -6 13316.5 762.088   3
   0   3  -5 43515.2 1421.36   3
   0   3  -4 76206.9 1970.75   3
   0   3  -4 77346.8 1963.82   5
   0   3  -3 29359.4 1085.13   3
   0   3  -3 30654.3 993.652   5
   0   3  -2 233260. 4270.15   3
   0   3  -1 163758. 3005.75   4
   0   3  -1 164974. 3238.31   3
   0   3   0 1158.17 231.421   3
   0   3   0 1286.40 182.627   4
   0   3   1 135696. 2515.61   5
   0   3   1 134376. 2858.02   4
   0   3   1 137547. 2826.87   3
   0   3   2 25331.4 938.110   5
   0   3   2 24327.7 959.499   3
   0   3   3 53398.6 1663.30   5
   0   3   3 54737.4 1534.72   3
   0   3   4 37812.0 1231.95   3
   0   3   5 780.812 311.996   5
   0   3   5 714.267 199.026   3
   0   3   6 19392.2 807.087   3
   0   3   6 21347.3 1326.22   5
   0   3   7 1715.16 504.884   5
   0   3   8 4772.97 853.590   5
   0   3   9 16947.6 1501.33   5
   0   4  -7 22148.0 1173.89   3
   0   4  -6-46.9594 218.584   3
   0   4  -5 57575.2 1890.76   3
   0   4  -4 41019.7 1524.91   3
   0   4  -4 40437.0 1292.56   5
   0   4  -3 33732.3 1337.83   3
   0   4  -3 34208.6 1060.60   5
   0   4  -2 84569.9 2043.66   4
   0   4  -2 80519.0 2223.36   3
   0   4  -1 5792.39 423.693   4
   0   4  -1 5841.42 538.280   3
   0   4   0 15009.3 539.454   5
   0   4   0 15567.1 768.668   4
   0   4   0 14499.3 839.073   3
   0   4   1 153965. 2870.24   5
   0   4   1 146038. 3324.17   4
   0   4   1 156257. 3379.57   3
   0   4   2 6327.27 492.592   5
   0   4   2 6664.60 512.475   4
   0   4   2 6252.15 571.710   3
   0   4   3 53144.7 1720.82   3
   0   4   4 1386.65 351.671   5
   0   4   4 1612.62 323.660   3
   0   4   5 18419.5 963.277   3
   0   4   5 16563.7 1139.52   5
   0   4   6 14567.8 837.026   3
   0   4   6 16547.4 1221.46   5
   0   4   7 250.920 356.464   5
   0   4   8 14785.4 1360.02   5
   0   4   9 10.8653 430.778   5
   0   5  -7 18178.9 1175.30   3
   0   5  -6 6352.78 691.599   3
   0   5  -5 44318.1 1796.75   3
   0   5  -4 3862.57 537.112   3
   0   5  -4 4255.13 385.418   5
   0   5  -3 13052.9 922.860   3
   0   5  -3 13409.1 606.664   5
   0   5  -2 15400.3 983.229   3
   0   5  -1 9910.93 619.785   4
   0   5  -1 10078.5 803.002   3
   0   5   0 113803. 2191.29   5
   0   5   0 111540. 2779.98   4
   0   5   0 111354. 2986.75   3
   0   5   1 227.025 145.153   5
   0   5   1 146.758 300.266   3
   0   5   1 62.7478 185.118   4
   0   5   2 52665.0 1592.05   5
   0   5   2 47676.1 1623.20   4
   0   5   2 49225.0 1846.83   3
   0   5   3 31638.5 1461.09   3
   0   5   4 833.563 307.494   5
   0   5   4 133.249 254.277   3
   0   5   5 67310.6 2235.79   3
   0   5   5 67282.5 2410.88   5
   0   5   6-67.6830 395.326   5
   0   5   6-321.506 302.221   3
   0   5   7 2202.48 551.857   5
   0   5   8 2177.78 607.224   5
   0   5   9 520.176 467.156   5
   0   6  -8 11824.9 1077.37   3
   0   6  -7 141.613 309.599   3
   0   6  -6 11568.5 1031.38   3
   0   6  -5 2350.84 507.641   3
   0   6  -4 308.059 161.791   5
   0   6  -4 104.099 346.470   3
   0   6  -3 137092. 3655.42   3
   0   6  -3 126928. 2472.44   5
   0   6  -2 2778.40 513.436   3
   0   6  -1 29513.3 812.971   5
   0   6  -1 28081.4 1493.38   3
   0   6   0 16900.6 671.972   5
   0   6   0 15816.2 1132.12   3
   0   6   1 3875.60 386.419   5
   0   6   1 4798.81 667.503   3
   0   6   2 31791.5 1633.70   3
   0   6   3 8227.91 845.722   3
   0   6   4 28763.8 1548.97   3
   0   6   4 28645.3 1424.12   5
   0   6   5 1719.09 464.800   5
   0   6   5 2439.29 508.573   3
   0   6   6 2019.66 533.792   5
   0   6   7 4260.74 763.822   5
   0   6   8 27.1634 489.646   5
   0   7  -8-26.1422 398.949   3
   0   7  -7 3279.83 648.551   3
   0   7  -6 11248.2 1103.52   3
   0   7  -5 2917.32 626.655   3
   0   7  -4 46740.7 2174.47   3
   0   7  -3 7222.84 874.162   3
   0   7  -2 4954.89 765.292   3
   0   7  -1 20388.1 663.023   5
   0   7  -1 21968.8 1459.50   3
   0   7   0 2111.65 256.634   5
   0   7   0 1794.60 505.702   3
   0   7   1 12450.5 695.603   5
   0   7   1 13215.4 1142.00   3
   0   7   2 2353.14 611.012   3
   0   7   3 3269.24 495.277   5
   0   7   3 3815.48 654.780   3
   0   7   4 5571.17 670.607   5
   0   7   4 7711.92 949.505   3
   0   7   5 592.625 411.443   5
   0   7   5-889.947 484.982   3
   0   7   6 2546.35 643.168   5
   0   7   7 886.206 517.246   5
   0   8  -8 1088.81 542.532   3
   0   8  -7 9742.22 1140.25   3
   0   8  -6 1501.74 600.675   3
   0   8  -5 701.186 468.171   3
   0   8  -4 3432.38 681.005   3
   0   8  -3-72.3757 500.726   3
   0   8  -2 12834.1 1202.42   3
   0   8  -1 1220.93 488.581   3
   0   8   0 6793.93 978.522   3
   0   8   1 8259.21 1001.55   3
   0   8   2 77.8995 475.325   3
   0   8   3 2416.01 695.762   3
   0   8   4 1854.98 593.909   3
   0   8   5 473.782 421.637   3
   0   9  -8 208.452 511.194   3
   0   9  -7 1335.88 606.398   3
   0   9  -6 836.396 574.031   3
   0   9  -5 2264.68 667.770   3
   0   9  -4 1612.47 572.754   3
   0   9  -3 1726.16 624.552   3
   0   9  -2 4192.45 858.984   3
   0   9  -1-370.593 551.899   3
   0   9   0 4893.23 1016.62   3
   0   9   1 825.225 617.543   3
   0   9   2-19.4725 536.814   3
   0   9   3 1096.21 629.160   3
   0   9   4-1036.02 671.253   3
   0  10  -2 3837.14 949.339   3
   0  10  -1 308.720 565.672   3
   1 -11   1-358.463 431.412   2
   1 -10   3 1105.52 593.647   2
   1 -10   4 3850.96 951.104   2
   1  -9   4 703.174 512.906   2
   1  -9   5-528.060 690.528   2
   1  -9   6 3514.57 848.897   2
   1  -8   5 4144.67 813.405   2
   1  -8   6 1017.99 543.536   2
   1  -8   7 387.470 615.518   2
   1  -8   8 3751.12 944.411   2
   1  -7   5 11810.8 1209.72   2
   1  -7   6-303.281 481.549   2
   1  -7   7 2288.53 737.853   2
   1  -7   8 2795.81 808.495   2
   1  -7   9 268.387 553.198   2
   1  -6  -3 17714.9 790.610   4
   1  -6  -2 133.041 115.572   4
   1  -6   5 24843.6 1628.06   2
   1  -6   6 3154.89 698.438   2
   1  -6   7 11004.1 1248.83   2
   1  -6   8 537.573 536.458   2
   1  -6   9 6975.59 1172.07   2
   1  -6  10 1691.76 607.212   2
   1  -5  -6 4018.16 573.411   4
   1  -5  -5 45.0925 279.100   4
   1  -5  -4 12529.4 863.832   4
   1  -5  -3 14668.7 757.703   4
   1  -5  -2 1813.19 212.580   4
   1  -5   5 4287.11 703.675   2
   1  -5   6 26488.7 1706.27   2
   1  -5   7 17682.2 1471.04   2
   1  -5   8 1336.48 527.408   2
   1  -5   9 10868.8 1305.16   2
   1  -5  10 1098.36 680.769   2
   1  -5  11 1898.68 689.891   2
   1  -4  -8 228.547 326.908   4
   1  -4  -7 11677.8 930.527   4
   1  -4  -6 2035.65 448.441   4
   1  -4  -5 15398.8 909.153   4
   1  -4  -4 23400.7 1049.44   4
   1  -4  -3 876.805 220.311   4
   1  -4  -2 92711.6 1902.01   4
   1  -4   5 7600.94 792.478   2
   1  -4   6 27857.2 1629.71   2
   1  -4   7 3525.72 701.195   2
   1  -4   8 19566.9 1563.97   2
   1  -4   9 4786.58 841.299   2
   1  -4  10 302.392 397.716   2
   1  -3 -10 3324.76 669.679   4
   1  -3  -5 56171.8 1933.07   2
   1  -3  -4 11309.0 814.935   2
   1  -3  -3 92825.6 1994.93   4
   1  -3  -3 93633.1 2079.93   3
   1  -3  -3 93849.4 2555.16   2
   1  -3  -2 143132. 2660.63   4
   1  -3  -2 147464. 2875.49   3
   1  -3   3 89179.4 2049.63   3
   1  -3   4 31781.5 1064.07   3
   1  -3   5 18149.9 1130.70   2
   1  -3   5 18112.6 786.389   3
   1  -3   6 17218.5 1187.43   2
   1  -3   7 17599.2 1302.41   2
   1  -3   8 31437.2 1829.53   2
   1  -3   9 3391.78 698.668   2
   1  -3  10 5103.10 849.026   2
   1  -2  -5 108279. 2717.74   2
   1  -2  -4 46037.7 1591.49   2
   1  -2  -3 7535.91 579.132   2
   1  -2  -3 8233.87 283.512   1
   1  -2  -2 401.496 155.162   2
   1  -2  -2 396.392 121.615   3
   1  -2   2 310745. 5044.03   3
   1  -2   3 1644.07 238.075   1
   1  -2   3 1777.96 202.771   3
   1  -2   4 12810.4 815.066   2
   1  -2   4 13072.1 668.713   1
   1  -2   5 99551.7 2745.76   2
   1  -2   6 3485.27 565.699   2
   1  -2   7 11866.7 979.384   2
   1  -2   8 3819.85 611.553   2
   1  -2   9-69.4054 419.241   2
   1  -1  -5 4951.96 480.745   2
   1  -1  -4 47454.9 1507.11   2
   1  -1  -3 107891. 2318.81   5
   1  -1  -3 101162. 2403.11   2
   1  -1  -1 248145. 3723.24   4
   1  -1   0 26941.5 612.860   4
   1  -1   3 2462.52 243.232   1
   1  -1   3 2482.95 281.746   2
   1  -1   4 58827.2 1659.09   2
   1  -1   4 54952.5 1433.43   1
   1  -1   5 37776.9 1192.50   1
   1  -1   5 38031.1 1430.27   2
   1  -1   6 4412.75 509.480   2
   1  -1   7 19081.1 1180.87   2
   1  -1   8 904.088 358.786   2
   1  -1   9 2724.97 562.103   2
   1   0  -4 225340. 4348.14   2
   1   0  -3 79606.0 1789.75   5
   1   0  -3 73878.4 1896.60   2
   1   0   2 93248.3 1630.37   2
   1   0   3 28852.2 822.191   2
   1   0   4 69112.1 1668.71   2
   1   0   5 921.412 236.522   2
   1   0   6 72096.6 2111.01   2
   1   0   7 12181.3 872.160   2
   1   0   8 2378.81 448.592   2
   1   1  -4 32385.1 1120.12   5
   1   1  -4 32303.8 1284.85   2
   1   1  -4 34617.0 1128.81   3
   1   1  -3 25034.9 824.927   5
   1   1  -3 25914.5 919.704   3
   1   1  -2 264430. 4182.16   5
   1   1  -2 265516. 4524.73   3
   1   1  -1 1244.69 181.652   4
   1   1  -1 959.973 170.202   3
   1   1   0 15625.8 732.398   4
   1   1   0 13960.0 601.382   3
   1   1   1 197510. 3744.43   4
   1   1   1 193373. 3483.53   3
   1   1   2 1798.15 228.415   3
   1   1   4 37299.0 914.996   2
   1   1   5 1711.48 219.977   2
   1   1   6 70926.5 1781.39   2
   1   1   7 492.395 166.041   2
   1   2  -6 3450.26 435.755   3
   1   2  -5 55370.7 1686.47   3
   1   2  -4 2633.30 287.463   5
   1   2  -4 2639.30 338.545   3
   1   2  -3 22896.1 728.883   5
   1   2  -3 21651.3 916.319   3
   1   2  -2 233554. 3601.90   5
   1   2  -2 231353. 4188.68   4
   1   2  -2 232277. 4289.23   3
   1   2  -1 83873.0 1915.42   4
   1   2  -1 87969.4 2068.08   3
   1   2   0 315048. 5659.89   4
   1   2   0 315402. 5432.96   3
   1   2   1 114993. 2774.92   4
   1   2   1 112212. 2447.59   3
   1   2   1 111990. 2212.78   5
   1   2   2 29165.8 1172.14   4
   1   2   2 30339.4 1042.02   3
   1   2   2 29859.8 1062.79   5
   1   2   3 64193.4 1665.08   3
   1   2   3 62615.5 1872.80   5
   1   2   4 23839.9 952.235   3
   1   2   5 75773.4 2505.96   5
   1   2   6 5761.88 728.668   5
   1   3  -7 51.5622 242.629   3
   1   3  -6 73413.7 2216.13   3
   1   3  -5 47402.5 1652.94   3
   1   3  -4 11416.9 567.142   5
   1   3  -4 12978.0 812.399   3
   1   3  -3 164394. 2817.20   5
   1   3  -3 165180. 3557.47   3
   1   3  -2 23798.8 968.564   4
   1   3  -2 22697.6 1047.10   3
   1   3  -1 54012.9 1567.50   4
   1   3  -1 55314.9 1718.23   3
   1   3   0 110838. 2759.69   4
   1   3   0 107233. 2596.90   3
   1   3   1 28120.7 1317.54   4
   1   3   1 26995.4 1126.70   3
   1   3   1 27378.1 881.010   5
   1   3   2 48634.2 1726.54   4
   1   3   2 50127.5 1595.50   3
   1   3   2 47712.6 1458.60   5
   1   3   3 11142.5 715.068   3
   1   3   4 38339.3 1387.97   3
   1   3   4 38502.6 1604.96   5
   1   3   5 39122.3 1427.38   3
   1   3   5 41288.3 1807.08   5
   1   3   6 813.089 443.513   5
   1   4  -8 17561.6 1200.05   3
   1   4  -7 12772.0 979.919   3
   1   4  -6 30420.8 1472.39   3
   1   4  -5 1809.03 276.798   5
   1   4  -5 1846.41 408.893   3
   1   4  -4 50957.3 1292.23   5
   1   4  -4 54817.5 1926.20   3
   1   4  -3 48377.2 1020.84   5
   1   4  -3 50795.6 1821.43   3
   1   4  -2 1294.90 328.189   3
   1   4  -1 95931.4 2648.76   3
   1   4   0 17662.5 1050.62   4
   1   4   0 18781.2 1035.94   3
   1   4   0 18058.9 562.895   5
   1   4   1 41439.9 1601.14   3
   1   4   1 39546.4 1154.54   5
   1   4   2 52054.1 1820.26   3
   1   4   2 48849.1 1534.45   5
   1   4   3 3490.17 496.385   3
   1   4   4 26175.9 1259.80   3
   1   4   4 29040.6 1402.22   5
   1   4   5 4168.47 623.960   5
   1   4   5 5024.96 576.579   3
   1   4   6 5939.62 633.342   3
   1   4   6 5984.60 806.980   5
   1   5  -8 1806.24 499.249   3
   1   5  -7 8483.61 845.988   3
   1   5  -6 5841.87 730.313   3
   1   5  -5 19023.1 791.937   5
   1   5  -5 21587.4 1339.14   3
   1   5  -4 40550.7 1026.56   5
   1   5  -4 40024.0 1789.57   3
   1   5  -3 2352.52 501.660   3
   1   5  -2 47780.2 1936.92   3
   1   5  -1 52325.2 2022.04   3
   1   5   0 2700.62 507.451   3
   1   5   1 21579.7 1275.73   3
   1   5   1 22114.5 855.050   5
   1   5   2 5509.77 679.457   3
   1   5   2 5753.43 510.714   5
   1   5   3 6503.49 742.636   3
   1   5   4 5937.63 692.036   5
   1   5   4 4104.72 595.706   3
   1   5   5 986.865 422.340   5
   1   5   5 708.970 281.742   3
   1   6  -8 6621.70 902.921   3
   1   6  -7 12804.0 1134.49   3
   1   6  -6 200.213 442.400   3
   1   6  -5 23942.1 1536.01   3
   1   6  -4 1835.18 452.865   3
   1   6  -3 4841.13 748.531   3
   1   6  -2 11659.1 1020.81   3
   1   6  -1 3977.35 628.140   3
   1   6   0 9604.13 964.846   3
   1   6   1 7110.60 841.315   3
   1   6   2 1356.11 451.012   3
   1   6   2 1632.71 359.272   5
   1   6   3 12554.5 1089.37   3
   1   6   4 215.124 352.918   3
   1   6   4 328.979 319.011   5
   1   6   5 1297.05 411.735   3
   1   7  -8 5512.87 883.361   3
   1   7  -7 2467.24 614.997   3
   1   7  -6 993.992 566.693   3
   1   7  -5 9703.46 1067.51   3
   1   7  -4 990.731 540.109   3
   1   7  -3 1208.04 537.558   3
   1   7  -2 5058.53 756.265   3
   1   7  -1 5433.89 867.716   3
   1   7   0 12327.3 1188.33   3
   1   7   1 1529.49 646.277   3
   1   7   2 4162.86 803.325   3
   1   7   3 5213.17 791.111   3
   1   7   4-987.600 546.998   3
   1   7   5 5374.06 850.887   3
   1   8  -8 498.651 497.573   3
   1   8  -7 514.348 583.143   3
   1   8  -6 951.108 627.701   3
   1   8  -5 381.532 496.037   3
   1   8  -4 2269.13 654.034   3
   1   8  -3 8383.69 1087.88   3
   1   8  -2 987.791 520.815   3
   1   8  -1 3117.20 752.210   3
   1   8   0 2127.45 602.342   3
   1   8   1 1667.28 607.321   3
   1   8   2 5375.91 889.359   3
   1   8   3 276.388 568.729   3
   1   8   4 1416.50 661.500   3
   1   9  -7-468.235 607.461   3
   1   9  -6 2957.43 756.891   3
   1   9  -5 545.012 582.536   3
   1   9  -4 2900.11 715.860   3
   1   9  -3 2339.18 747.845   3
   1   9  -2-685.045 478.635   3
   1   9  -1 1759.26 781.269   3
   1   9   0 796.578 462.383   3
   1   9   1 845.827 717.025   3
   1   9   2 453.786 627.820   3
   1   9   3 1972.91 774.490   3
   1   9   4 276.436 513.185   3
   2  -9   6-88.2294 566.972   2
   2  -8   6 952.788 433.112   2
   2  -8   7 4451.72 972.753   2
   2  -8   8 2263.65 826.105   2
   2  -7   6 9583.67 1205.33   2
   2  -7   7 771.507 504.061   2
   2  -7   8 1335.50 599.970   2
   2  -7   9 1204.71 504.775   2
   2  -6   6 15173.3 1385.81   2
   2  -6   7 265.911 456.121   2
   2  -6   8 9657.67 1233.77   2
   2  -6   9 435.184 630.323   2
   2  -6  10 1176.42 631.535   2
   2  -5  -5 49574.4 1606.39   4
   2  -5  -4 24717.4 961.407   1
   2  -5  -4 25479.0 963.754   4
   2  -5   6 184.109 319.877   2
   2  -5   7 13381.3 1287.17   2
   2  -5   8 2858.91 712.023   2
   2  -5   9-373.347 579.063   2
   2  -5  10 4431.35 884.285   2
   2  -4  -5 10530.2 476.467   1
   2  -4  -4 14990.3 645.498   4
   2  -4  -4 13830.1 594.471   1
   2  -4  -3 65546.7 1400.78   4
   2  -4  -3 69197.7 1655.49   1
   2  -4  -2 146.816 136.113   1
   2  -4   6 2281.09 540.089   2
   2  -4   7 16800.6 1345.14   2
   2  -4   8 59.7166 452.813   2
   2  -4   9 4083.29 804.853   2
   2  -3  -4 38427.2 991.358   1
   2  -3  -3 31766.7 907.855   1
   2  -3  -2 25351.1 837.280   1
   2  -3  -1 48534.6 1307.20   1
   2  -3   6 30394.3 1587.05   2
   2  -3   7 25137.0 1529.58   2
   2  -3   8 416.489 351.433   2
   2  -3   9 5791.16 813.054   2
   2  -2  -3-108.809 218.925   2
   2  -2  -2 202656. 3253.75   4
   2  -2  -2 197696. 3476.66   1
   2  -2  -1 181468. 3140.04   4
   2  -2  -1 182534. 3260.60   1
   2  -2   3 23891.3 972.820   1
   2  -2   5 44142.6 1644.29   2
   2  -2   6 51303.0 1935.44   2
   2  -2   7 2195.01 430.014   2
   2  -2   8 9071.51 899.330   2
   2  -1  -4 108813. 2877.01   2
   2  -1  -2 416109. 6521.36   4
   2  -1  -1 34685.8 1066.84   4
   2  -1   0 72721.2 1813.12   4
   2  -1   4 1334.35 255.637   2
   2  -1   5 51082.7 1618.72   2
   2  -1   6 15110.4 885.827   2
   2  -1   7 4274.28 536.326   2
   2   0  -3 79421.6 1899.08   4
   2   0  -2 7795.52 466.509   4
   2   0  -1 37000.8 1195.65   4
   2   0   0 965293. 15155.2   4
   2   0   0 965176. 14532.5   2
   2   0   1 395507. 6913.79   4
   2   0   1 395607. 6198.02   2
   2   0   2 160025. 2693.77   2
   2   0   3 90075.7 1693.43   2
   2   0   4 13322.0 537.329   2
   2   0   5 68793.5 1638.88   2
   2   0   6 1894.94 272.593   2
   2   0   7 27552.0 1091.94   2
   2   1  -3 218222. 4154.31   4
   2   1  -2 43131.3 1325.24   4
   2   1  -1 452175. 7606.81   4
   2   1   0 37077.8 1508.50   4
   2   1   0 34459.0 1041.58   2
   2   1   1 49377.9 1775.10   4
   2   1   1 45947.1 1069.68   2
   2   2  -5 21970.7 1208.73   3
   2   2  -4 339000. 6462.06   3
   2   2  -3 17679.7 973.386   3
   2   2  -2 17858.2 989.958   3
   2   2  -1 75218.5 2113.37   4
   2   2  -1 75145.4 1985.85   2
   2   2   0 45.9618 202.507   3
   2   2   0 542.778 276.552   4
   2   2   1 124882. 3038.77   3
   2   2   2 7550.17 614.610   3
   2   3  -6 4428.16 606.797   3
   2   3  -5 38786.8 1698.96   3
   2   3  -4 32247.6 1496.05   3
   2   3  -3 26413.3 1314.03   3
   2   3  -2 69239.2 2209.17   3
   2   3  -1 10903.6 817.205   3
   2   3   0 42106.2 1669.68   3
   2   3   1 79947.7 2379.67   3
   2   3   2 331.763 263.385   3
   2   3   3 50246.0 1912.74   3
   2   4  -8 7647.65 924.186   3
   2   4  -7 18549.5 1321.90   3
   2   4  -6 267.376 376.338   3
   2   4  -5 29115.8 1519.62   3
   2   4  -4 1410.56 398.358   3
   2   4  -3 67308.9 2340.80   3
   2   4  -2 48593.2 1944.37   3
   2   4  -1 1719.29 445.198   3
   2   4   0 38537.0 1709.86   3
   2   4   1 64954.1 2237.65   3
   2   4   2 25569.9 1380.22   3
   2   4   3 31627.3 1599.83   3
   2   4   4 779.250 364.951   3
   2   5  -8 8435.71 1023.30   3
   2   5  -7 3577.72 685.744   3
   2   5  -6 29015.1 1683.60   3
   2   5  -5 39177.3 1932.08   3
   2   5  -4 525.624 359.657   3
   2   5  -3 22380.9 1404.82   3
   2   5  -2 15480.8 1192.28   3
   2   5  -1 13569.5 1077.82   3
   2   5   0 38994.4 1838.58   3
   2   5   1 4429.78 653.036   3
   2   5   2 20683.1 1301.75   3
   2   5   3 2287.29 523.429   3
   2   5   4 3512.33 626.539   3
   2   5   5 27532.3 1626.46   3
   2   6  -8 6283.96 946.345   3
   2   6  -7 2238.09 673.002   3
   2   6  -6 12105.0 1173.90   3
   2   6  -5 1170.35 485.797   3
   2   6  -4 2377.77 613.764   3
   2   6  -3 62289.7 2599.38   3
   2   6  -2 16819.6 1311.87   3
   2   6  -1 15685.1 1320.53   3
   2   6   0 1871.94 586.590   3
   2   6   1 8469.06 965.314   3
   2   6   2 13469.6 1176.34   3
   2   6   3-152.568 405.219   3
   2   6   4 14466.3 1288.15   3
   2   6   5-938.225 587.775   3
   2   7  -8 789.035 454.694   3
   2   7  -7 1544.30 590.024   3
   2   7  -6 3419.62 785.519   3
   2   7  -5 1708.05 607.584   3
   2   7  -4 32904.5 2018.45   3
   2   7  -3 319.602 445.531   3
   2   7  -2 13003.0 1275.28   3
   2   7  -1 11305.8 1199.41   3
   2   7   0 100.137 460.777   3
   2   7   1 12868.8 1262.10   3
   2   7   2 606.744 493.210   3
   2   7   3 1163.85 567.720   3
   2   7   4 1134.47 553.806   3
   2   8  -8 200.534 601.920   3
   2   8  -7 8771.16 1162.62   3
   2   8  -6 269.492 465.854   3
   2   8  -5 2049.24 678.898   3
   2   8  -4 1888.12 637.271   3
   2   8  -3 655.451 518.637   3
   2   8  -2 6052.20 1013.44   3
   2   8  -1-160.896 436.972   3
   2   8   0 3193.50 743.352   3
   2   8   1 1370.21 711.752   3
   2   8   2 2298.20 777.775   3
   2   8   3 1638.33 613.369   3
   2   8   4-857.122 671.166   3
   2   9  -4-399.120 735.695   3
   2   9  -3 668.368 520.594   3
   2   9  -2-146.314 498.491   3
   2   9  -1 238.387 617.874   3
   2   9   0 1385.80 641.489   3
   3  -8   7 576.233 540.107   2
   3  -8   8 2318.55 848.163   2
   3  -7   7 3543.66 761.163   2
   3  -7   8 2637.58 782.436   2
   3  -7   9-163.917 644.307   2
   3  -6   7 3494.09 825.593   2
   3  -6   8-149.817 446.519   2
   3  -6   9 4280.72 948.276   2
   3  -6  10 176.350 492.375   2
   3  -5  -5 1417.53 219.260   4
   3  -5   7 2795.99 690.985   2
   3  -5   8 473.917 427.174   2
   3  -5   9 9924.24 1220.44   2
   3  -4  -4 22701.6 721.508   4
   3  -4  -4 23850.0 930.723   1
   3  -4  -3 1193.56 126.991   4
   3  -4  -3 658.904 182.674   1
   3  -4   7 384.107 433.636   2
   3  -4   8 11581.9 1197.97   2
   3  -3  -4 4781.76 356.322   4
   3  -3  -3 138807. 2577.31   4
   3  -3  -2 65817.0 1596.79   4
   3  -3  -2 66604.8 1755.54   1
   3  -3  -1 4430.76 315.016   4
   3  -3  -1 4419.10 403.983   1
   3  -3   6 3309.59 548.030   2
   3  -3   7 13128.4 1064.48   2
   3  -3   8 9691.91 999.178   2
   3  -2  -4 107669. 2379.14   4
   3  -2  -3 14810.8 660.427   4
   3  -2  -2 13036.2 668.597   4
   3  -2  -1 68648.1 1915.13   4
   3  -2   0 31912.9 1165.09   4
   3  -2   6 981.918 327.006   2
   3  -2   7 15774.4 1059.33   2
   3  -1  -4 12860.1 721.708   4
   3  -1  -3 23984.9 963.710   4
   3  -1  -2 63064.8 1726.85   4
   3  -1  -1 76457.8 2246.76   4
   3  -1   0 14531.3 915.695   4
   3  -1   0 16747.4 848.473   2
   3  -1   1 7704.96 621.375   4
   3  -1   1 8123.95 536.409   2
   3  -1   5 20134.2 899.433   2
   3  -1   6 6960.35 552.253   2
   3   0  -2 116929. 2758.81   4
   3   0  -1 53029.8 1843.82   4
   3   0  -1 47681.9 1641.72   2
   3   0   0 3187.88 485.590   4
   3   0   0 2521.16 327.583   2
   3   0   1 48724.4 1407.43   2
   3   0   2 78385.7 1758.79   2
   3   0   3 23876.2 733.201   2
   3   0   4 25437.0 700.906   2
   3   0   4 24095.9 668.430   2
   3   0   5 3439.54 206.984   2
   3   1  -2 108992. 2829.40   2
   3   1  -1-60.1481 165.278   2
   3   1   0 4834.42 425.644   2
   3   1   1 114769. 2360.91   2
   3   1   2 8777.65 370.410   2
   3   2  -1 63376.3 1988.17   2
   3   2   0 79697.7 2096.22   2
   3   3  -5 7554.35 883.462   3
   3   3  -4 5498.92 746.575   3
   3   3  -3 115008. 3406.61   3
   3   3  -2 226.859 308.957   3
   3   3  -1 75509.2 2590.94   3
   3   3   0 45184.9 1924.65   3
   3   3   1 19192.6 1228.09   3
   3   4  -6 18358.0 1392.84   3
   3   4  -5 897.304 486.775   3
   3   4  -4 48646.1 2275.56   3
   3   4  -3 17844.5 1387.61   3
   3   4  -2 7397.52 871.943   3
   3   4  -1 37206.9 1949.63   3
   3   4   0 4672.01 692.106   3
   3   4   1 6688.16 918.864   3
   3   4   2 6565.35 816.496   3
   3   5  -7 4602.43 837.293   3
   3   5  -6 1905.61 595.363   3
   3   5  -5 10793.0 1117.34   3
   3   5  -4 11348.8 1108.96   3
   3   5  -3 4694.71 789.911   3
   3   5  -2 16357.9 1327.18   3
   3   5  -1 5104.13 778.357   3
   3   5   0 12815.9 1172.21   3
   3   5   1 13181.0 1252.60   3
   3   5   2 1024.78 490.147   3
   3   5   3 6619.84 925.888   3
   3   6  -8 6029.97 1046.87   3
   3   6  -7 4989.16 927.324   3
   3   6  -6-166.375 412.391   3
   3   6  -5 10901.4 1224.03   3
   3   6  -4 434.504 438.795   3
   3   6  -3 7808.97 1027.75   3
   3   6  -2 5487.27 865.652   3
   3   6  -1 595.375 499.582   3
   3   6   0 9032.39 1074.45   3
   3   6   1 3880.42 804.529   3
   3   6   2 937.993 460.675   3
   3   6   3 3766.07 714.967   3
   3   7  -8 3270.78 801.141   3
   3   7  -7-202.553 613.617   3
   3   7  -6 5462.65 980.624   3
   3   7  -5 6043.76 1035.72   3
   3   7  -4 384.526 468.538   3
   3   7  -3 201.273 538.071   3
   3   7  -2 6681.34 1052.74   3
   3   7  -1 1988.01 685.317   3
   3   7   0 1451.62 533.731   3
   3   7   1-439.076 588.825   3
   3   7   2 1256.10 601.801   3
   3   7   3 844.351 619.956   3
   3   8  -7 819.526 514.943   3
   3   8  -6-101.060 614.963   3
   3   8  -5 1866.91 700.032   3
   3   8  -4 656.742 520.606   3
   3   8  -3 2645.48 891.485   3
   3   8  -2 776.728 601.462   3
   3   8  -1 2605.22 863.986   3
   3   8   0 641.007 642.408   3
   3   8   1 347.857 518.134   3
   3   8   2 2309.71 830.252   3
   3   8   3 293.302 509.116   3
   4  -8   7 2208.37 777.918   2
   4  -8   8 984.849 762.263   2
   4  -7   8 48.8262 607.603   2
   4  -7   9 872.336 596.694   2
   4  -6   7 1524.45 632.340   2
   4  -6   8 3028.13 810.543   2
   4  -5   7 5096.22 869.852   2
   4  -5   8 778.932 524.626   2
   4  -4  -5 83.2664 131.610   4
   4  -4  -4 23035.6 870.805   4
   4  -4  -3 24234.8 935.821   4
   4  -4  -2 19863.9 753.450   4
   4  -4   7 7044.27 921.871   2
   4  -3  -5 1819.41 299.896   4
   4  -3  -4 47589.2 1448.21   4
   4  -3  -3 18173.3 890.330   4
   4  -3  -2 30594.7 1275.67   4
   4  -3  -1 39067.1 1408.19   4
   4  -3   7 3198.97 538.458   2
   4  -2  -3 3052.93 379.064   4
   4  -2  -2 95655.3 2698.08   4
   4  -2  -1 10119.2 797.235   4
   4  -2   6 12909.2 868.264   2
   4  -1   0 134410. 3241.18   2
   4  -1   1 80405.9 2209.33   2
   4  -1   2 78600.9 2095.77   2
   4  -1   3 29564.9 1130.42   2
   4  -1   4 4739.01 415.380   2
   4  -1   5 15732.8 762.404   2
   4   0   0 172135. 3814.10   2
   4   0   1 212791. 4235.04   2
   4   0   2 27622.3 1041.57   2
   4   0   3 8112.20 472.295   2
   4   0   4 15091.7 466.398   2
   4   0   4 15490.2 487.837   2
   4   1   0 2029.29 342.976   2
   4   1   1 39978.5 1331.72   2
   4   1   2 26810.3 896.353   2
   4   2   0 1731.75 330.319   2
   4   2   1 37636.7 1287.90   2
   4   4  -3 19801.9 1548.83   3
   4   4  -2 5873.59 861.797   3
   4   5  -5 6362.23 1058.21   3
   4   5  -4 4883.21 929.046   3
   4   5  -3 15511.0 1450.88   3
   4   5  -2 3324.28 689.869   3
   4   5  -1 12775.9 1295.18   3
   4   5   0 8499.58 1094.45   3
   4   6  -6 9434.12 1309.18   3
   4   6  -5-286.883 510.584   3
   4   6  -4 4762.58 878.068   3
   4   6  -3 18106.1 1655.11   3
   4   6  -2 12490.1 1347.40   3
   4   6  -1 2817.96 816.098   3
   4   6   0-426.639 431.197   3
   4   6   1 3625.10 920.590   3
   4   7  -7 1396.86 778.628   3
   4   7  -6 1735.34 755.636   3
   4   7  -5 1416.46 771.108   3
   4   7  -4 8092.96 1261.93   3
   4   7  -3 3525.13 863.037   3
   4   7  -2 4635.87 1028.94   3
   4   7  -1 592.464 594.334   3
   4   7   0 1644.61 648.276   3
   4   7   1 5661.71 1114.09   3
   5  -7   8 598.097 489.910   2
   5  -4  -4 9948.55 729.543   4
   5  -4  -3 6161.56 587.250   4
   5  -4  -2 32358.1 1332.61   4
   5  -4  -1 233.827 168.222   4
   5  -1   2 10637.0 765.884   2
   5  -1   3 13085.6 802.121   2
   5   0   1 18850.8 1030.81   2
   5   0   2 5124.17 486.594   2
   5   1   1 37352.4 1419.11   2
   0   0   0    0.00    0.00   0
TITL lxy0609-qBr in P1
REM P1 (#1 in standard setting)
CELL 0.71073   7.910151   8.456777   9.359787  94.3189 104.2394 109.1327
ZERR    3.00   0.000936   0.000930   0.000652   0.0072   0.0080   0.0104
LATT -1
SFAC C H N Br
UNIT 33.00 30.00 3.00 3.00
TREF
HKLF 4
END
;
_shelx_hkl_checksum              36339
loop_
_space_group_symop_operation_xyz
'x, y, z'
'-x, -y, -z'
loop_
_atom_site_label
_atom_site_type_symbol
_atom_site_fract_x
_atom_site_fract_y
_atom_site_fract_z
_atom_site_U_iso_or_equiv
_atom_site_adp_type
_atom_site_occupancy
_atom_site_site_symmetry_order
_atom_site_calc_flag
_atom_site_refinement_flags_posn
_atom_site_refinement_flags_adp
Br1 Br 0.77623(6) 0.10490(5) 0.69399(4) 0.05987(18) Uani 1 1 d . .
N1 N 0.3011(4) 0.2623(3) 0.7286(3) 0.0388(6) Uani 1 1 d . .
O1 O 0.6016(5) 0.2421(4) 0.3868(4) 0.0676(8) Uani 1 1 d D .
C4 C 0.2477(4) 0.2396(4) 0.9682(3) 0.0393(7) Uani 1 1 d . .
C7 C 0.2454(5) 0.5674(4) 0.9947(4) 0.0484(8) Uani 1 1 d . .
H7 H 0.2444 0.6773 1.0050 0.058 Uiso 1 1 calc R U
C10 C 0.3240(5) 0.3540(4) 0.6017(3) 0.0503(9) Uani 1 1 d . .
H10A H 0.3961 0.3119 0.5490 0.060 Uiso 1 1 calc R U
H10B H 0.3928 0.4740 0.6399 0.060 Uiso 1 1 calc R U
C3 C 0.2510(5) 0.0744(4) 0.9521(4) 0.0519(9) Uani 1 1 d . .
H3 H 0.2345 0.0099 1.0272 0.062 Uiso 1 1 calc R U
C9 C 0.2731(4) 0.3357(4) 0.8536(3) 0.0339(7) Uani 1 1 d . .
C8 C 0.2725(5) 0.5016(4) 0.8686(3) 0.0430(8) Uani 1 1 d . .
H8 H 0.2903 0.5658 0.7935 0.052 Uiso 1 1 calc R U
C11 C 0.1402(6) 0.3318(5) 0.4956(4) 0.0692(12) Uani 1 1 d . .
H11A H 0.1596 0.3993 0.4190 0.104 Uiso 1 1 calc R U
H11B H 0.0658 0.3674 0.5487 0.104 Uiso 1 1 calc R U
H11C H 0.0767 0.2144 0.4507 0.104 Uiso 1 1 calc R U
C2 C 0.2781(6) 0.0095(5) 0.8270(4) 0.0608(10) Uani 1 1 d . .
H2 H 0.2804 -0.0999 0.8154 0.073 Uiso 1 1 calc R U
C6 C 0.2191(5) 0.4731(5) 1.1095(4) 0.0517(9) Uani 1 1 d . .
H6 H 0.2012 0.5211 1.1947 0.062 Uiso 1 1 calc R U
C5 C 0.2196(5) 0.3132(4) 1.0973(4) 0.0484(8) Uani 1 1 d . .
H5 H 0.2014 0.2512 1.1737 0.058 Uiso 1 1 calc R U
C1 C 0.3024(5) 0.1061(4) 0.7168(4) 0.0518(9) Uani 1 1 d . .
H1 H 0.3203 0.0599 0.6309 0.062 Uiso 1 1 calc R U
H1A H 0.643(7) 0.214(6) 0.467(3) 0.11(2) Uiso 1 1 d D .
H1B H 0.504(4) 0.154(4) 0.353(4) 0.082(15) Uiso 1 1 d D .
loop_
_atom_site_aniso_label
_atom_site_aniso_U_11
_atom_site_aniso_U_22
_atom_site_aniso_U_33
_atom_site_aniso_U_23
_atom_site_aniso_U_13
_atom_site_aniso_U_12
Br1 0.0598(3) 0.0662(3) 0.0451(2) 0.01155(17) 0.01407(18) 0.01201(19)
N1 0.0450(16) 0.0390(14) 0.0366(14) 0.0090(11) 0.0163(12) 0.0165(12)
O1 0.083(2) 0.0481(16) 0.074(2) 0.0234(15) 0.0269(17) 0.0216(16)
C4 0.0386(18) 0.0428(17) 0.0336(16) 0.0078(13) 0.0086(13) 0.0119(14)
C7 0.057(2) 0.0429(18) 0.049(2) 0.0042(15) 0.0183(17) 0.0211(16)
C10 0.069(3) 0.0486(19) 0.0436(19) 0.0138(15) 0.0338(18) 0.0195(18)
C3 0.068(3) 0.049(2) 0.0441(19) 0.0208(15) 0.0184(17) 0.0247(18)
C9 0.0318(17) 0.0369(16) 0.0316(15) 0.0049(12) 0.0085(13) 0.0112(13)
C8 0.046(2) 0.0416(18) 0.0413(18) 0.0105(14) 0.0132(15) 0.0145(15)
C11 0.086(3) 0.078(3) 0.041(2) 0.0211(19) 0.017(2) 0.025(2)
C2 0.088(3) 0.047(2) 0.062(2) 0.0161(18) 0.028(2) 0.036(2)
C6 0.057(2) 0.062(2) 0.0401(19) 0.0013(16) 0.0192(17) 0.0242(18)
C5 0.050(2) 0.061(2) 0.0369(18) 0.0139(15) 0.0186(15) 0.0169(17)
C1 0.071(3) 0.049(2) 0.045(2) 0.0063(16) 0.0236(18) 0.0299(19)
loop_
_atom_type_symbol
_atom_type_description
_atom_type_scat_dispersion_real
_atom_type_scat_dispersion_imag
_atom_type_scat_source
C C 0.0033 0.0016 'International Tables Vol C Tables 4.2.6.8 and 6.1.1.4'
H H 0.0000 0.0000 'International Tables Vol C Tables 4.2.6.8 and 6.1.1.4'
N N 0.0061 0.0033 'International Tables Vol C Tables 4.2.6.8 and 6.1.1.4'
Br Br -0.2901 2.4595 'International Tables Vol C Tables 4.2.6.8 and 6.1.1.4'
O O 0.0106 0.0060 'International Tables Vol C Tables 4.2.6.8 and 6.1.1.4'
loop_
_geom_angle_atom_site_label_1
_geom_angle_atom_site_label_2
_geom_angle_atom_site_label_3
_geom_angle
C1 N1 C9 120.9(3)
C1 N1 C10 118.0(2)
C9 N1 C10 121.1(2)
H1A O1 H1B 98(4)
C3 C4 C9 119.5(3)
C3 C4 C5 121.8(3)
C9 C4 C5 118.7(3)
C8 C7 C6 121.4(3)
C8 C7 H7 119.3
C6 C7 H7 119.3
N1 C10 C11 111.6(3)
N1 C10 H10A 109.3
C11 C10 H10A 109.3
N1 C10 H10B 109.3
C11 C10 H10B 109.3
H10A C10 H10B 108.0
C2 C3 C4 119.7(3)
C2 C3 H3 120.2
C4 C3 H3 120.2
N1 C9 C8 121.7(3)
N1 C9 C4 118.0(3)
C8 C9 C4 120.3(3)
C7 C8 C9 119.0(3)
C7 C8 H8 120.5
C9 C8 H8 120.5
C10 C11 H11A 109.5
C10 C11 H11B 109.5
H11A C11 H11B 109.5
C10 C11 H11C 109.5
H11A C11 H11C 109.5
H11B C11 H11C 109.5
C3 C2 C1 119.6(3)
C3 C2 H2 120.2
C1 C2 H2 120.2
C5 C6 C7 120.4(3)
C5 C6 H6 119.8
C7 C6 H6 119.8
C6 C5 C4 120.1(3)
C6 C5 H5 119.9
C4 C5 H5 119.9
N1 C1 C2 122.4(3)
N1 C1 H1 118.8
C2 C1 H1 118.8
loop_
_geom_bond_atom_site_label_1
_geom_bond_atom_site_label_2
_geom_bond_distance
N1 C1 1.321(4)
N1 C9 1.383(4)
N1 C10 1.482(4)
O1 H1A 0.827(19)
O1 H1B 0.848(18)
C4 C3 1.404(4)
C4 C9 1.407(4)
C4 C5 1.416(4)
C7 C8 1.361(4)
C7 C6 1.401(5)
C7 H7 0.9300
C10 C11 1.490(5)
C10 H10A 0.9700
C10 H10B 0.9700
C3 C2 1.350(5)
C3 H3 0.9300
C9 C8 1.401(4)
C8 H8 0.9300
C11 H11A 0.9600
C11 H11B 0.9600
C11 H11C 0.9600
C2 C1 1.374(4)
C2 H2 0.9300
C6 C5 1.350(5)
C6 H6 0.9300
C5 H5 0.9300
C1 H1 0.9300
loop_
_geom_hbond_atom_site_label_D
_geom_hbond_atom_site_label_H
_geom_hbond_atom_site_label_A
_geom_hbond_distance_DH
_geom_hbond_distance_HA
_geom_hbond_distance_DA
_geom_hbond_angle_DHA
_geom_hbond_site_symmetry_A
O1 H1A Br1 0.827(19) 2.51(2) 3.335(3) 174(5) .
O1 H1B Br1 0.848(18) 2.47(2) 3.304(3) 169(4) 2_656
loop_
_geom_torsion_atom_site_label_1
_geom_torsion_atom_site_label_2
_geom_torsion_atom_site_label_3
_geom_torsion_atom_site_label_4
_geom_torsion
C1 N1 C10 C11 93.0(4)
C9 N1 C10 C11 -84.9(4)
C9 C4 C3 C2 -0.1(5)
C5 C4 C3 C2 180.0(4)
C1 N1 C9 C8 179.6(3)
C10 N1 C9 C8 -2.6(4)
C1 N1 C9 C4 0.6(4)
C10 N1 C9 C4 178.4(3)
C3 C4 C9 N1 -0.2(4)
C5 C4 C9 N1 179.8(3)
C3 C4 C9 C8 -179.2(3)
C5 C4 C9 C8 0.7(5)
C6 C7 C8 C9 0.3(5)
N1 C9 C8 C7 -179.5(3)
C4 C9 C8 C7 -0.6(5)
C4 C3 C2 C1 0.0(6)
C8 C7 C6 C5 -0.1(5)
C7 C6 C5 C4 0.3(5)
C3 C4 C5 C6 179.4(4)
C9 C4 C5 C6 -0.6(5)
C9 N1 C1 C2 -0.7(5)
C10 N1 C1 C2 -178.6(3)
C3 C2 C1 N1 0.4(6)
