#------------------------------------------------------------------------------
#$Date: 2019-11-24 08:47:15 +0200 (Sun, 24 Nov 2019) $
#$Revision: 237358 $
#$URL: file:///home/coder/svn-repositories/cod/cif/1/55/45/1554572.cif $
#------------------------------------------------------------------------------
#
# This file is available in the Crystallography Open Database (COD),
# http://www.crystallography.net/
#
# All data on this site have been placed in the public domain by the
# contributors.
#
data_1554572
loop_
_publ_author_name
'Zhao, Zi-Biao'
'Shi, Lei'
'Meng, Fan-Jie'
'Li, Yaming'
'Zhou, Yong-Gui'
_publ_section_title
;
 Synthesis of chiral seven-membered cyclic sulfonamides through
 palladium-catalyzed arylation of cyclic imines
;
_journal_issue                   10
_journal_name_full               'Organic Chemistry Frontiers'
_journal_page_first              1572
_journal_paper_doi               10.1039/C8QO01323C
_journal_volume                  6
_journal_year                    2019
_chemical_absolute_configuration ad
_chemical_formula_sum            'C19 H15 N O2 S'
_chemical_formula_weight         321.38
_space_group_crystal_system      monoclinic
_space_group_IT_number           4
_space_group_name_Hall           'P 2yb'
_space_group_name_H-M_alt        'P 1 21 1'
_atom_sites_solution_hydrogens   mixed
_audit_creation_method           SHELXL-2013
_audit_update_record
;
2018-11-06 deposited with the CCDC.	2019-03-21 downloaded from the CCDC.
;
_cell_angle_alpha                90
_cell_angle_beta                 101.787(7)
_cell_angle_gamma                90
_cell_formula_units_Z            2
_cell_length_a                   8.0275(15)
_cell_length_b                   8.0254(17)
_cell_length_c                   12.699(3)
_cell_measurement_reflns_used    9676
_cell_measurement_temperature    296(2)
_cell_measurement_theta_max      54.894
_cell_measurement_theta_min      5.184
_cell_volume                     800.9(3)
_computing_cell_refinement       'Bruker SAINT'
_computing_data_collection       'Bruker APEX2'
_computing_data_reduction        'Bruker SAINT'
_computing_molecular_graphics    'Bruker SHELXTL'
_computing_publication_material  'Bruker SHELXTL'
_computing_structure_refinement  'SHELXL-2013 (Sheldrick, 2013)'
_computing_structure_solution    'SHELXS-97 (Sheldrick 2008)'
_diffrn_ambient_temperature      296(2)
_diffrn_measured_fraction_theta_full 0.987
_diffrn_measured_fraction_theta_max 0.988
_diffrn_measurement_device_type  'Bruker APEX-II CCD'
_diffrn_measurement_method       '\f and \w scans'
_diffrn_radiation_type           MoK\a
_diffrn_radiation_wavelength     0.71073
_diffrn_reflns_av_R_equivalents  0.0469
_diffrn_reflns_av_unetI/netI     0.0340
_diffrn_reflns_Laue_measured_fraction_full 0.987
_diffrn_reflns_Laue_measured_fraction_max 0.988
_diffrn_reflns_limit_h_max       9
_diffrn_reflns_limit_h_min       -9
_diffrn_reflns_limit_k_max       9
_diffrn_reflns_limit_k_min       -9
_diffrn_reflns_limit_l_max       15
_diffrn_reflns_limit_l_min       -15
_diffrn_reflns_number            13998
_diffrn_reflns_point_group_measured_fraction_full 0.989
_diffrn_reflns_point_group_measured_fraction_max 0.990
_diffrn_reflns_theta_full        25.242
_diffrn_reflns_theta_max         25.999
_diffrn_reflns_theta_min         2.592
_exptl_absorpt_coefficient_mu    0.211
_exptl_absorpt_correction_T_max  0.7456
_exptl_absorpt_correction_T_min  0.6340
_exptl_absorpt_correction_type   multi-scan
_exptl_absorpt_process_details   sadabs
_exptl_crystal_colour            colorless
_exptl_crystal_density_diffrn    1.333
_exptl_crystal_description       prismatic
_exptl_crystal_F_000             336
_exptl_crystal_size_max          0.200
_exptl_crystal_size_mid          0.160
_exptl_crystal_size_min          0.120
_refine_diff_density_max         0.171
_refine_diff_density_min         -0.186
_refine_diff_density_rms         0.028
_refine_ls_abs_structure_details
; 
 Flack x determined using 1372 quotients [(I+)-(I-)]/[(I+)+(I-)] 
 (Parsons and Flack (2004), Acta Cryst. A60, s61). 
;
_refine_ls_abs_structure_Flack   0.05(3)
_refine_ls_extinction_expression Fc^*^=kFc[1+0.001xFc^2^\l^3^/sin(2\q)]^-1/4^
_refine_ls_extinction_method     SHELXL
_refine_ls_goodness_of_fit_ref   1.056
_refine_ls_hydrogen_treatment    mixed
_refine_ls_matrix_type           full
_refine_ls_number_parameters     213
_refine_ls_number_reflns         3112
_refine_ls_number_restraints     1
_refine_ls_restrained_S_all      1.056
_refine_ls_R_factor_all          0.0292
_refine_ls_R_factor_gt           0.0285
_refine_ls_shift/su_max          0.001
_refine_ls_shift/su_mean         0.000
_refine_ls_structure_factor_coef Fsqd
_refine_ls_weighting_details
'w=1/[\s^2^(Fo^2^)+(0.0469P)^2^+0.0462P] where P=(Fo^2^+2Fc^2^)/3'
_refine_ls_weighting_scheme      calc
_refine_ls_wR_factor_gt          0.0777
_refine_ls_wR_factor_ref         0.0784
_reflns_Friedel_coverage         0.863
_reflns_Friedel_fraction_full    0.992
_reflns_Friedel_fraction_max     0.992
_reflns_number_gt                3036
_reflns_number_total             3112
_reflns_threshold_expression     'I > 2\s(I)'
_cod_data_source_file            c8qo01323c2.cif
_cod_data_source_block           mo_d8v18258_0m
_cod_original_cell_volume        800.8(3)
_cod_original_sg_symbol_H-M      'P 21'
_cod_database_code               1554572
_shelx_space_group_comment
; 
The symmetry employed for this shelxl refinement is uniquely defined 
by the following loop, which should always be used as a source of 
symmetry information in preference to the above space-group names. 
They are only intended as comments. 
;
_shelx_estimated_absorpt_t_min   0.959
_shelx_estimated_absorpt_t_max   0.975
_shelxl_version_number           2013-4
_shelx_res_file
; 
TITL mo_d8v18258_0m_a.res in P2(1) 
CELL 0.71073 8.0275 8.0254 12.6985 90 101.787 90 
ZERR 2 0.0015 0.0017 0.0028 0 0.007 0 
LATT -1 
SYMM -X,0.5+Y,-Z 
SFAC C  H  N  O  S 
UNIT 38 30 2 4 2 
OMIT 0   0   1 
OMIT  -3.00  52.00 
L.S. 8 
ACTA 
BOND $H 
FMAP 2 
PLAN 20 
LIST 4 
HTAB N1 O1_$1 
HTAB C13 O1_$1 
EQIV $1 -x, y-1/2, -z+1 
CONF 
HTAB 
MPLA c14 > c19 
mpla c7 > c12 
mpla c1 > c6 
WPDB -1 
SIZE 0.20 0.16 0.12 
TEMP 23 
WGHT    0.046900    0.046200 
EXTI    0.025855 
FVAR       2.26590 
S1    5    0.117184    0.758918    0.581858    11.00000    0.03612    0.03809 = 
         0.04604    0.00619    0.01321    0.00635 
O1    4   -0.021007    0.788996    0.492339    11.00000    0.04162    0.06925 = 
         0.06132    0.02369    0.00721    0.01212 
O2    4    0.161999    0.886400    0.660368    11.00000    0.06310    0.03931 = 
         0.06773   -0.00614    0.02973    0.00463 
N1    3    0.066764    0.592577    0.640847    11.00000    0.03494    0.04255 = 
         0.04374    0.00548    0.00445   -0.00290 
C1    1    0.298619    0.704471    0.532011    11.00000    0.03771    0.03580 = 
         0.04367    0.00202    0.01298    0.00222 
C2    1    0.286277    0.699425    0.421655    11.00000    0.05319    0.05530 = 
         0.04337    0.00236    0.01289    0.00399 
AFIX  43 
H2    2    0.182947    0.719690    0.374983    11.00000   -1.20000 
AFIX   0 
C3    1    0.430667    0.663648    0.382219    11.00000    0.07593    0.06342 = 
         0.04894   -0.00195    0.03065    0.00359 
AFIX  43 
H3    2    0.424660    0.659072    0.308358    11.00000   -1.20000 
AFIX   0 
C4    1    0.582706    0.634900    0.451769    11.00000    0.05823    0.05901 = 
         0.07012    0.00564    0.03622    0.01202 
AFIX  43 
H4    2    0.679928    0.613948    0.424719    11.00000   -1.20000 
AFIX   0 
C5    1    0.592545    0.636823    0.561624    11.00000    0.04017    0.05499 = 
         0.06553    0.00553    0.01897    0.00550 
AFIX  43 
H5    2    0.696269    0.614988    0.607471    11.00000   -1.20000 
AFIX   0 
C6    1    0.450573    0.670735    0.605169    11.00000    0.03595    0.03462 = 
         0.04806    0.00138    0.01219   -0.00026 
C7    1    0.464898    0.676006    0.723876    11.00000    0.03563    0.04043 = 
         0.04580   -0.00167    0.00453   -0.00179 
C8    1    0.602857    0.760343    0.785448    11.00000    0.04516    0.05781 = 
         0.06399   -0.00316    0.00356   -0.01287 
AFIX  43 
H8    2    0.682229    0.810385    0.751529    11.00000   -1.20000 
AFIX   0 
C9    1    0.623815    0.770942    0.895875    11.00000    0.06475    0.08112 = 
         0.05996   -0.01197   -0.00807   -0.02637 
AFIX  43 
H9    2    0.717367    0.826417    0.935935    11.00000   -1.20000 
AFIX   0 
C10   1    0.506204    0.699385    0.946146    11.00000    0.08266    0.09146 = 
         0.04132   -0.01452   -0.00147   -0.02549 
AFIX  43 
H10   2    0.518354    0.708156    1.020354    11.00000   -1.20000 
AFIX   0 
C11   1    0.369212    0.613981    0.886291    11.00000    0.05989    0.06351 = 
         0.03980   -0.00564    0.00794   -0.01364 
AFIX  43 
H11   2    0.290680    0.564547    0.921159    11.00000   -1.20000 
AFIX   0 
C12   1    0.346679    0.600624    0.775675    11.00000    0.03909    0.03789 = 
         0.03710   -0.00243    0.00431   -0.00185 
C13   1    0.202739    0.494007    0.711878    11.00000    0.03766    0.03511 = 
         0.03214   -0.00111    0.00737    0.00019 
AFIX  13 
H13   2    0.253204    0.420456    0.665293    11.00000   -1.20000 
AFIX   0 
C14   1    0.112854    0.384204    0.779523    11.00000    0.04473    0.04183 = 
         0.03119   -0.00280    0.00709   -0.00794 
C15   1    0.156435    0.219300    0.794064    11.00000    0.07176    0.04074 = 
         0.04248    0.00007    0.01554   -0.00259 
AFIX  43 
H15   2    0.244012    0.176636    0.764149    11.00000   -1.20000 
AFIX   0 
C16   1    0.071817    0.115648    0.852640    11.00000    0.12354    0.04923 = 
         0.05387    0.00674    0.02593   -0.01878 
AFIX  43 
H16   2    0.102148    0.003912    0.861519    11.00000   -1.20000 
AFIX   0 
C17   1   -0.056929    0.177681    0.897674    11.00000    0.10877    0.07923 = 
         0.05502    0.00310    0.03389   -0.03993 
AFIX  43 
H17   2   -0.113562    0.108201    0.937341    11.00000   -1.20000 
AFIX   0 
C18   1   -0.101857    0.342374    0.884035    11.00000    0.07157    0.09426 = 
         0.05770   -0.00725    0.03412   -0.02242 
AFIX  43 
H18   2   -0.188402    0.384636    0.915072    11.00000   -1.20000 
AFIX   0 
C19   1   -0.019404    0.445369    0.824607    11.00000    0.05754    0.05856 = 
         0.05226   -0.00177    0.02319   -0.00462 
AFIX  43 
H19   2   -0.052088    0.556351    0.814472    11.00000   -1.20000 
AFIX   0 
H1    2    0.001741    0.522613    0.590676    11.00000    0.05003 
HKLF 4 
  
REM  mo_d8v18258_0m_a.res in P2(1) 
REM R1 =  0.0285 for    3036 Fo > 4sig(Fo)  and  0.0292 for all    3112 data 
REM    213 parameters refined using      1 restraints 
  
END 
  
WGHT      0.0432      0.0611 
  
REM Instructions for potential hydrogen bonds 
HTAB C13 O1_$1 
HTAB N1 O1_$1 
  
REM Highest difference peak  0.171,  deepest hole -0.186,  1-sigma level  0.028 
Q1    1   0.2375  0.7527  0.5605  11.00000  0.05    0.17 
Q2    1   0.3769  0.6737  0.7378  11.00000  0.05    0.16 
Q3    1   0.2047  0.7119  0.5469  11.00000  0.05    0.14 
Q4    1   0.5072  0.7170  0.7419  11.00000  0.05    0.11 
Q5    1   0.0244  0.3925  0.7775  11.00000  0.05    0.10 
Q6    1   0.4824  0.5888  0.4196  11.00000  0.05    0.10 
Q7    1   0.0889  0.6690  0.6285  11.00000  0.05    0.10 
Q8    1   0.0592  0.4131  0.7982  11.00000  0.05    0.10 
Q9    1   0.5191  0.6652  0.5843  11.00000  0.05    0.10 
Q10   1   0.1613  0.4384  0.7539  11.00000  0.05    0.10 
Q11   1   0.0169  0.6634  0.7063  11.00000  0.05    0.10 
Q12   1   0.2863  0.7318  0.4790  11.00000  0.05    0.10 
Q13   1   0.0536  0.7151  0.4813  11.00000  0.05    0.10 
Q14   1   0.0404  0.6956  0.7176  11.00000  0.05    0.09 
Q15   1   0.4604  0.6581  0.6785  11.00000  0.05    0.09 
Q16   1   0.3453  0.6359  0.8212  11.00000  0.05    0.09 
Q17   1   0.0497  0.1661  0.8988  11.00000  0.05    0.09 
Q18   1   0.5615  0.7021  0.9073  11.00000  0.05    0.09 
Q19   1  -0.0843  0.2592  0.8643  11.00000  0.05    0.09 
Q20   1  -0.0091  0.3823  0.8816  11.00000  0.05    0.09 
;
_shelx_res_checksum              25920
_shelx_hkl_file
; 
   1   0   0 1488.85   90.89 
   1   0   0 1704.13   90.59 
   3   0   0   60.29    5.90 
  -3   0   0   43.10    6.00 
  -3   0   0   51.89    6.10 
  -3   0   0   54.19    5.50 
  -3   0   0   56.29    3.90 
  -3   0   0   56.69    4.00 
  -4   0   0 3490.35  208.08 
  -4   0   0 3736.73  204.78 
  -4   0   0 3801.72  205.08 
   4   0   0 3821.92  208.68 
  -4   0   0 3473.65  209.58 
  -4   0   0 3502.55  210.48 
  -5   0   0  176.88   14.90 
  -5   0   0  176.68   16.10 
  -5   0   0  186.78   11.60 
   5   0   0  196.88   15.60 
  -5   0   0  171.68   16.80 
  -5   0   0  181.68   11.20 
  -6   0   0   63.99   10.50 
   6   0   0   81.39    9.60 
  -6   0   0   65.99    4.70 
  -6   0   0   68.69    5.00 
  -6   0   0   76.79    9.30 
  -6   0   0   57.89    9.60 
   7   0   0  299.37   23.60 
  -7   0   0  281.77   26.10 
  -7   0   0  287.87   24.80 
  -7   0   0  259.07   22.40 
  -8   0   0   86.29   16.20 
  -8   0   0   86.59   10.20 
  -9   0   0   96.99   11.70 
  -9   0   0   84.99   14.10 
 -10   0   0   67.49   10.00 
   0  -1   0    0.00    0.20 
   0  -1   0    1.00    0.50 
   0  -1   0    0.00    0.20 
   0   1   0    0.20    0.30 
  -2  -1   0 5219.98  286.27 
  -2  -1   0 4924.71  288.17 
  -2  -1   0 4744.23  286.57 
  -2  -1   0 5084.99  286.07 
   2  -1   0 5667.43  284.37 
   2  -1   0 4868.01  286.57 
  -2  -1   0 4433.76  287.37 
   2   1   0 5141.49  285.97 
  -2   1   0 5365.86  286.27 
   2   1   0 4896.81  286.77 
  -2   1   0 5412.66  286.57 
  -2   1   0 4688.53  285.47 
  -2   1   0 5309.87  284.87 
  -2   1   0 5134.29  284.77 
   2   1   0 5221.98  286.07 
  -3  -1   0  466.55   27.30 
  -3  -1   0  411.46   29.60 
  -3  -1   0  489.65   27.60 
  -3  -1   0  430.86   28.40 
  -3  -1   0  448.86   30.40 
   3  -1   0  439.96   29.00 
  -3   1   0  397.56   27.10 
   3   1   0  477.15   29.00 
  -3   1   0  441.46   28.00 
  -3   1   0  458.55   28.70 
  -4  -1   0  780.52   49.10 
  -4  -1   0  718.93   46.00 
  -4  -1   0  774.12   44.10 
  -4  -1   0  823.82   44.50 
   4  -1   0  730.13   47.20 
  -4  -1   0  723.83   47.80 
  -4   1   0  722.33   47.30 
  -4   1   0  742.83   45.80 
  -4   1   0  675.33   44.50 
   4   1   0  756.32   46.60 
  -4   1   0  698.63   48.50 
  -5  -1   0  121.09   13.20 
  -5  -1   0   99.49    8.40 
  -5  -1   0   93.99   11.40 
  -5  -1   0   96.19   10.40 
  -5  -1   0  122.69    9.00 
  -5   1   0  112.99   10.50 
  -5   1   0  120.39   11.50 
  -5   1   0  104.89   11.70 
   5   1   0  127.29   11.70 
  -5   1   0  109.19    9.70 
  -6  -1   0 2172.18  137.19 
  -6  -1   0 2194.08  137.99 
  -6  -1   0 2456.45  130.39 
  -6  -1   0 2231.58  134.09 
  -6  -1   0 2353.86  129.99 
  -6   1   0 2377.86  135.39 
   6   1   0 2288.67  134.89 
  -6   1   0 2225.78  133.49 
  -6   1   0 2203.88  136.69 
  -6   1   0 2153.08  131.99 
  -7  -1   0   40.60   13.40 
  -7  -1   0   39.50    9.80 
  -7  -1   0   29.40    4.00 
  -7  -1   0   30.00    3.80 
  -7  -1   0   24.10    6.70 
   7   1   0   39.70    9.10 
  -7   1   0   50.49    9.30 
  -7   1   0   31.00    8.30 
  -7   1   0   41.00    7.50 
  -7   1   0   49.40   10.60 
  -8  -1   0  539.05   31.10 
  -8  -1   0  545.45   31.60 
  -8  -1   0  509.15   42.10 
   8   1   0  558.74   39.50 
  -8   1   0  481.55   41.40 
  -8   1   0  471.65   36.00 
  -9  -1   0    0.50    5.80 
  -9  -1   0    5.40    4.20 
  -9   1   0    8.20    5.70 
   9   1   0   12.70    6.00 
  -9   1   0   12.60    5.10 
 -10  -1   0   11.40    6.80 
 -10   1   0   14.90    7.50 
 -10   1   0    4.30    5.20 
  -2  -2   0 3535.95  205.28 
   2  -2   0 3581.94  202.18 
  -2  -2   0 3408.06  203.38 
   2  -2   0 3250.17  201.78 
  -2  -2   0 3947.71  204.28 
   2  -2   0 3462.85  202.48 
  -2  -2   0 3646.04  203.88 
   2  -2   0 3808.22  202.38 
   2   2   0 3669.23  203.88 
  -2   2   0 3581.74  202.48 
  -2   2   0 3635.74  201.58 
   2   2   0 3465.95  205.28 
   2   2   0 3439.36  203.68 
  -2   2   0 3703.03  202.58 
   3  -2   0 1400.66   81.79 
  -3  -2   0 1478.45   84.69 
   3  -2   0 1334.27   84.39 
  -3  -2   0 1532.75   85.09 
  -3  -2   0 1327.67   86.49 
   3  -2   0 1410.46   82.09 
  -3  -2   0 1340.17   84.69 
  -3   2   0 1611.04   84.09 
   3   2   0 1466.05   84.49 
  -3   2   0 1529.15   84.19 
   3   2   0 1439.56   85.49 
  -3   2   0 1490.25   82.69 
   3   2   0 1492.75   84.59 
  -3   2   0 1352.86   82.89 
  -3   2   0 1484.55   82.79 
  -4  -2   0 1110.69   63.09 
  -4  -2   0 1061.59   62.59 
  -4  -2   0 1040.20   66.69 
  -4  -2   0  985.50   65.59 
   4  -2   0 1021.20   63.89 
  -4  -2   0 1020.50   63.59 
  -4   2   0 1067.39   59.89 
  -4   2   0 1146.19   63.29 
  -4   2   0  966.50   61.39 
   4   2   0 1057.29   64.39 
  -4   2   0 1039.30   62.69 
  -5  -2   0  953.30   57.89 
  -5  -2   0  989.60   56.29 
  -5  -2   0  936.71   55.69 
  -5  -2   0  895.51   60.99 
  -5  -2   0  827.82   59.59 
  -5   2   0  888.71   56.49 
  -5   2   0 1021.60   57.59 
   5   2   0  913.71   58.29 
  -5   2   0  909.21   58.59 
  -5   2   0  855.01   55.09 
  -6  -2   0  356.36   29.30 
  -6  -2   0  336.37   28.00 
  -6  -2   0  342.57   22.90 
  -6  -2   0  347.17   23.40 
  -6  -2   0  337.77   25.60 
  -6   2   0  304.27   23.10 
  -6   2   0  297.77   26.10 
  -6   2   0  362.56   25.60 
   6   2   0  345.07   26.40 
  -6   2   0  321.77   24.40 
  -7  -2   0  553.24   34.10 
  -7  -2   0  560.84   34.80 
  -7  -2   0  471.45   42.20 
   7   2   0  517.35   40.90 
  -7   2   0  557.14   42.00 
  -7   2   0  515.45   39.60 
  -7   2   0  539.75   37.00 
  -7   2   0  511.35   35.20 
  -8  -2   0  507.75   30.80 
  -8  -2   0  496.25   30.10 
  -8  -2   0  418.56   38.60 
  -8   2   0  461.85   37.40 
   8   2   0  485.85   36.60 
  -8   2   0  423.66   32.00 
  -8   2   0  433.06   35.40 
  -9  -2   0   65.29    6.10 
  -9  -2   0   54.89   12.50 
  -9  -2   0   63.29    6.40 
  -9   2   0   60.69    9.00 
  -9   2   0   46.30   10.40 
   9   2   0   64.89   12.80 
 -10  -2   0   41.00    3.90 
 -10  -2   0   35.30    4.10 
 -10  -2   0   31.50    8.10 
 -10  -2   0   59.29   14.00 
  10   2   0   46.60   11.60 
 -10   2   0   40.10    8.40 
 -10   2   0   35.30   11.60 
   0  -3   0    1.20    1.00 
   0  -3   0    7.60    2.30 
   0  -3   0    1.00    0.90 
   0  -3   0   -0.10    1.00 
   0   3   0    1.40    1.20 
   0   3   0    0.90    1.00 
   0   3   0    1.00    1.10 
   0   3   0    1.30    0.90 
  -1  -3   0   29.00    4.20 
  -1  -3   0   26.30    4.60 
   1  -3   0   20.20    3.70 
  -1  -3   0   24.50    3.30 
  -1  -3   0   22.00    4.00 
   1   3   0   25.00    4.60 
  -1   3   0   23.50    2.70 
  -1   3   0   29.50    4.00 
  -1   3   0   29.00    2.80 
  -1   3   0   17.70    3.60 
   1   3   0   27.20    3.60 
   1   3   0   21.00    4.30 
  -2  -3   0 4048.80  226.98 
   2  -3   0 3759.22  223.78 
   2  -3   0 3996.90  225.38 
  -2  -3   0 3781.92  227.48 
   2  -3   0 3736.33  223.68 
   2  -3   0 4086.29  225.48 
  -2  -3   0 4133.39  227.28 
  -2   3   0 4169.18  225.68 
  -2   3   0 4044.90  225.68 
   2   3   0 4068.39  226.98 
   2   3   0 4067.89  226.98 
   2   3   0 3826.32  226.08 
   2   3   0 3875.11  227.88 
  -3  -3   0  204.98   15.40 
  -3  -3   0  215.58   16.00 
   3  -3   0  213.78   13.70 
  -3  -3   0  208.08   17.60 
   3  -3   0  186.68   13.40 
  -3  -3   0  211.98   17.10 
  -3  -3   0  181.48   16.60 
   3  -3   0  203.48   14.40 
   3  -3   0  215.18   13.80 
  -3   3   0  196.18   13.00 
  -3   3   0  187.18   14.10 
   3   3   0  180.58   15.50 
  -3   3   0  222.08   13.40 
  -3   3   0  190.08   14.00 
   3   3   0  217.28   15.90 
  -4  -3   0  575.44   38.80 
  -4  -3   0  610.24   42.30 
  -4  -3   0  601.74   38.90 
  -4  -3   0  545.85   41.00 
   4  -3   0  518.55   36.10 
   4  -3   0  570.74   38.20 
  -4  -3   0  625.14   39.40 
   4  -3   0  627.14   35.10 
  -4   3   0  590.04   36.10 
  -4   3   0  608.94   37.80 
   4   3   0  603.44   39.90 
  -4   3   0  607.24   36.40 
   4   3   0  615.34   38.70 
  -4   3   0  688.73   37.30 
   4   3   0  634.24   38.80 
  -5  -3   0  625.94   44.80 
  -5  -3   0  634.14   40.50 
  -5  -3   0  599.44   39.80 
  -5  -3   0  568.54   40.50 
   5  -3   0  590.74   40.70 
  -5  -3   0  573.74   43.40 
  -5   3   0  619.24   37.90 
  -5   3   0  644.74   39.70 
   5   3   0  605.34   41.70 
  -5   3   0  714.53   39.70 
  -5   3   0  585.24   40.70 
  -6  -3   0 2266.97  130.69 
  -6  -3   0 2180.48  137.19 
  -6  -3   0 2314.17  131.19 
  -6  -3   0 2192.78  132.49 
  -6  -3   0 2048.99  135.59 
  -6   3   0 2168.18  130.79 
   6   3   0 2213.18  133.79 
  -6   3   0 2187.98  133.19 
  -6   3   0 2486.35  131.19 
  -6   3   0 2174.18  128.79 
  -7  -3   0  587.64   48.90 
  -7  -3   0  633.14   42.80 
  -7  -3   0  667.43   42.40 
  -7   3   0  718.13   44.10 
  -7   3   0  673.93   43.80 
  -7   3   0  637.14   46.10 
  -7   3   0  627.24   41.40 
   7   3   0  650.13   46.40 
  -8  -3   0   75.09    9.10 
  -8  -3   0   90.79    9.30 
  -8  -3   0   91.69   14.60 
  -8   3   0   69.09   11.10 
  -8   3   0   85.59   11.50 
  -8   3   0   82.59   12.70 
   8   3   0   80.79   15.50 
  -8   3   0   82.09   10.00 
  -9  -3   0   74.49    8.60 
  -9  -3   0   56.19   15.20 
  -9  -3   0   82.59    8.60 
   9   3   0   91.79   13.30 
  -9   3   0   65.79   13.40 
  -9   3   0   57.19    9.90 
   0  -4   0 2211.88  123.29 
   0  -4   0 2197.08  127.09 
   0  -4   0 2257.97  124.29 
   0  -4   0 2242.38  126.99 
   0   4   0 2124.89  126.89 
   0   4   0 2007.80  123.99 
   0   4   0 2243.28  127.09 
   0   4   0 2072.19  124.89 
  -1  -4   0 2529.65  150.18 
  -1  -4   0 2567.84  149.19 
   1  -4   0 2409.16  149.29 
   1  -4   0 2835.22  145.99 
   1  -4   0 2602.64  149.59 
  -1  -4   0 2621.04  150.58 
   1  -4   0 2967.00  145.89 
  -1   4   0 2708.23  149.99 
   1   4   0 2630.44  150.48 
  -1   4   0 2606.34  149.88 
  -1   4   0 2416.96  146.39 
  -1   4   0 2507.45  146.89 
   1   4   0 2401.36  149.29 
   1   4   0 2531.35  150.28 
   1   4   0 2354.56  147.89 
  -2  -4   0  358.86   23.80 
  -2  -4   0  363.86   25.70 
   2  -4   0  362.36   24.40 
   2  -4   0  356.36   24.30 
  -2  -4   0  372.66   26.10 
  -2  -4   0  341.37   25.60 
   2  -4   0  332.67   21.60 
   2  -4   0  349.17   21.90 
   2   4   0  327.57   24.20 
  -2   4   0  392.26   21.80 
   2   4   0  352.56   25.50 
   2   4   0  377.36   27.20 
  -2   4   0  372.06   24.90 
  -2   4   0  391.26   24.90 
   2   4   0  336.97   25.80 
  -2   4   0  346.77   21.70 
  -3  -4   0  619.24   40.10 
   3  -4   0  631.84   37.80 
   3  -4   0  542.15   36.10 
  -3  -4   0  566.44   38.30 
  -3  -4   0  560.14   40.70 
  -3  -4   0  617.94   40.40 
   3  -4   0  602.64   37.70 
   3  -4   0  572.64   36.60 
  -3  -4   0  586.34   41.20 
   3   4   0  623.94   40.10 
  -3   4   0  687.53   35.60 
  -3   4   0  572.64   37.90 
   3   4   0  547.95   39.00 
  -3   4   0  691.43   35.50 
   3   4   0  624.94   40.10 
  -3   4   0  585.64   38.10 
   4  -4   0  600.24   36.50 
  -4  -4   0  646.64   40.70 
  -4  -4   0  552.54   39.10 
  -4  -4   0  544.45   42.10 
  -4  -4   0  601.44   40.60 
   4  -4   0  605.74   36.70 
   4  -4   0  537.75   37.70 
  -4  -4   0  529.35   41.60 
   4   4   0  601.54   40.00 
  -4   4   0  669.93   36.20 
  -4   4   0  615.84   37.90 
   4   4   0  592.04   40.50 
  -4   4   0  695.33   36.00 
  -5  -4   0  135.19   12.60 
  -5  -4   0  121.29   15.00 
  -5  -4   0  118.69   12.30 
   5  -4   0  127.69    8.90 
  -5  -4   0  107.89   14.20 
   5  -4   0  118.29   11.70 
   5  -4   0  115.89    7.90 
  -5  -4   0  130.39   13.00 
  -5   4   0  120.29   11.10 
  -5   4   0  126.59   10.00 
   5   4   0  118.79   13.40 
  -5   4   0  127.69   13.10 
  -5   4   0  116.59    9.70 
  -6  -4   0   22.90    6.50 
  -6  -4   0   28.80    6.20 
  -6   4   0   31.10    5.80 
  -6   4   0   25.50    6.00 
  -6   4   0   30.10    6.90 
  -6   4   0   30.30    5.50 
  -7  -4   0  107.89   16.20 
  -7  -4   0   80.49   10.90 
  -7  -4   0  111.89   11.40 
  -7   4   0  111.79   10.30 
  -7   4   0  102.09   11.10 
   7   4   0  101.79   13.70 
  -7   4   0   99.59   11.20 
  -7   4   0   76.49   11.40 
  -8  -4   0  230.28   20.30 
  -8  -4   0  239.48   25.80 
  -8  -4   0  226.18   19.60 
  -8   4   0  220.58   21.60 
  -8   4   0  229.88   20.20 
  -8   4   0  236.08   18.10 
  -8   4   0  242.38   20.00 
   8   4   0  217.68   22.70 
  -9  -4   0   55.29    7.40 
  -9  -4   0   42.60   12.20 
  -9  -4   0   40.50    7.50 
  -9   4   0   41.50    7.70 
   9   4   0   43.70   11.30 
  -9   4   0   46.80   10.60 
   0  -5   0    7.20    2.80 
   0  -5   0    9.00    3.40 
   0  -5   0    5.60    3.10 
   0  -5   0    9.80    2.20 
   0   5   0    8.30    2.60 
   0   5   0    4.90    3.20 
   0   5   0   10.50    3.10 
   0   5   0    4.40    2.80 
   1  -5   0  328.87   24.60 
  -1  -5   0  347.47   21.90 
  -1  -5   0  374.86   25.90 
   1  -5   0  385.96   20.50 
  -1  -5   0  325.97   25.00 
  -1  -5   0  373.86   24.10 
   1  -5   0  353.86   24.70 
   1   5   0  300.67   22.60 
   1   5   0  324.87   25.00 
  -1   5   0  288.37   21.40 
  -1   5   0  328.77   24.60 
  -1   5   0  306.87   21.30 
   1   5   0  317.57   23.90 
  -1   5   0  303.47   24.10 
   1   5   0  338.77   25.20 
   2  -5   0 1041.20   60.29 
  -2  -5   0 1003.60   67.19 
  -2  -5   0 1043.50   62.39 
  -2  -5   0 1060.39   65.69 
  -2  -5   0 1048.40   65.09 
   2  -5   0 1060.39   64.09 
   2  -5   0 1049.40   64.09 
   2   5   0  975.60   63.39 
   2   5   0 1057.59   65.69 
  -2   5   0  996.30   74.99 
  -2   5   0 1039.30   64.29 
   2   5   0 1027.60   65.49 
  -2   5   0 1048.20   60.49 
   2   5   0 1057.89   65.59 
   3  -5   0  172.48   14.40 
  -3  -5   0  164.58   16.40 
  -3  -5   0  187.08   14.70 
  -3  -5   0  182.58   16.40 
  -3  -5   0  149.09   16.20 
   3  -5   0  175.38   14.40 
  -3  -5   0  171.88   16.50 
   3   5   0  179.38   16.20 
   3   5   0  187.38   16.40 
   3   5   0  170.18   15.50 
  -3   5   0  177.38   14.90 
  -3   5   0  170.68   14.80 
  -3   5   0  196.98   12.10 
   4  -5   0  480.85   30.50 
   4  -5   0  439.16   29.80 
  -4  -5   0  511.45   34.80 
   4  -5   0  386.96   29.10 
  -4  -5   0  447.46   35.40 
  -4  -5   0  409.86   34.80 
  -4  -5   0  496.65   32.50 
  -4  -5   0  504.85   34.50 
   4  -5   0  482.55   30.60 
  -4   5   0  477.65   28.50 
  -4   5   0  466.05   31.60 
   4   5   0  445.46   33.40 
  -4   5   0  546.95   28.70 
   4   5   0  453.35   33.50 
   4   5   0  477.45   33.80 
   5  -5   0  447.86   28.50 
  -5  -5   0  489.05   34.60 
  -5  -5   0  423.66   35.90 
  -5  -5   0  491.35   34.40 
   5  -5   0  424.66   29.20 
  -5  -5   0  461.55   37.00 
  -5   5   0  504.25   31.40 
  -5   5   0  438.76   30.70 
   5   5   0  440.36   34.00 
   5   5   0  497.55   33.90 
  -5   5   0  481.35   30.80 
  -6  -5   0  205.18   18.80 
  -6  -5   0  192.98   18.20 
  -6  -5   0  168.98   20.70 
  -6   5   0  174.08   16.30 
  -6   5   0  216.98   14.50 
   6   5   0  166.58   18.90 
  -6   5   0  202.88   16.30 
  -6   5   0  210.98   14.00 
  -7  -5   0  465.35   34.30 
  -7  -5   0  456.85   34.60 
  -7  -5   0  385.36   37.70 
  -7   5   0  435.26   32.10 
  -7   5   0  514.65   30.40 
  -7   5   0  495.15   29.40 
   7   5   0  436.26   36.10 
  -7   5   0  419.66   32.90 
  -8  -5   0   70.49   10.00 
  -8  -5   0   53.69    9.30 
  -8  -5   0   36.30   10.70 
  -8   5   0   70.49   10.30 
  -8   5   0   69.59    8.00 
   8   5   0   46.70   11.30 
  -8   5   0   68.49   10.00 
   0  -6   0  514.35   31.20 
   0  -6   0  461.95   32.20 
   0  -6   0  535.85   36.70 
   0  -6   0  541.25   36.60 
   0   6   0  503.25   33.00 
   0   6   0  520.55   36.60 
   0   6   0  492.85   33.60 
   0   6   0  551.14   36.90 
   1  -6   0 1451.75   72.29 
  -1  -6   0 1268.07   79.19 
   1  -6   0 1429.96   72.69 
  -1  -6   0 1258.27   78.69 
   1  -6   0 1217.68   77.89 
  -1  -6   0 1255.97   73.79 
   1  -6   0 1290.87   78.09 
  -1  -6   0 1210.98   78.39 
  -1   6   0 1150.78   73.89 
   1   6   0 1171.48   76.69 
  -1   6   0 1219.48   77.99 
  -1   6   0 1210.18   73.89 
  -1   6   0 1270.77   78.29 
   1   6   0 1129.29   75.19 
   1   6   0 1239.58   78.79 
   2  -6   0  577.64   38.10 
   2  -6   0  531.65   33.00 
  -2  -6   0  552.44   35.10 
  -2  -6   0  533.15   37.60 
  -2  -6   0  525.05   41.60 
  -2  -6   0  547.75   39.20 
   2   6   0  531.05   36.60 
  -2   6   0  542.05   37.60 
  -2   6   0  557.74   34.80 
   2   6   0  569.04   39.30 
  -2   6   0  504.95   37.40 
   2   6   0  556.74   39.20 
   3  -6   0  519.45   34.10 
   3  -6   0  597.74   37.80 
  -3  -6   0  543.95   40.00 
  -3  -6   0  574.24   40.00 
  -3  -6   0  582.54   40.20 
  -3  -6   0  582.64   40.70 
  -3  -6   0  580.84   36.80 
   3  -6   0  556.24   37.50 
   3   6   0  528.05   38.00 
  -3   6   0  535.25   34.40 
  -3   6   0  534.45   37.60 
   3   6   0  575.54   39.80 
   3   6   0  543.15   39.60 
  -3   6   0  523.75   37.80 
   4  -6   0 1143.99   67.99 
  -4  -6   0 1175.48   72.69 
   4  -6   0  968.80   65.39 
  -4  -6   0 1138.29   73.49 
  -4  -6   0 1234.38   72.89 
  -4  -6   0 1009.10   72.49 
  -4   6   0 1133.59   64.69 
   4   6   0 1085.99   70.79 
   4   6   0 1201.38   72.29 
  -4   6   0 1064.79   68.99 
  -5  -6   0  535.05   44.80 
  -5  -6   0  599.14   42.70 
   5  -6   0  557.24   36.60 
  -5  -6   0  586.24   46.80 
   5   6   0  581.34   42.30 
  -5   6   0  561.54   38.80 
  -5   6   0  645.24   35.50 
  -6  -6   0   30.50    8.10 
  -6  -6   0   39.50    7.60 
   6  -6   0   28.20    3.80 
  -6  -6   0   39.50   10.70 
  -6   6   0   39.80    7.30 
   6   6   0   26.70    7.70 
  -6   6   0   34.30    6.30 
  -6   6   0   43.30    4.90 
  -7  -6   0   13.30    5.20 
  -7  -6   0   16.10    5.60 
  -7  -6   0    9.10    6.30 
  -7   6   0   10.40    2.90 
   7   6   0   17.40    7.20 
  -7   6   0   11.40    3.10 
  -7   6   0    6.00    3.70 
  -8  -6   0  143.89   21.80 
  -8  -6   0  201.28   19.50 
  -8  -6   0  187.98   19.30 
   8   6   0  185.68   21.30 
  -8   6   0  160.48   19.70 
  -8   6   0  161.38   16.60 
  -8   6   0  212.68   14.20 
   0  -7   0   14.80    5.50 
   0  -7   0   10.00    4.30 
   0  -7   0    2.80    4.20 
   0   7   0   17.40    4.50 
   0   7   0   19.20    5.40 
   0   7   0    9.20    4.50 
  -1  -7   0   81.99   11.10 
   1  -7   0   83.29    6.60 
   1  -7   0   89.89    7.30 
  -1  -7   0   81.59    8.00 
   1  -7   0   91.19   10.80 
  -1  -7   0   75.99    9.30 
   1  -7   0   96.19   11.40 
  -1  -7   0   88.79   11.60 
  -1   7   0   61.89    7.30 
  -1   7   0   64.99    7.90 
  -1   7   0   66.89   11.10 
  -1   7   0   79.59   10.60 
   1   7   0   73.09    9.30 
   1   7   0   88.29   11.60 
   1   7   0   70.49   11.60 
  -2  -7   0  772.42   53.69 
  -2  -7   0  814.62   51.59 
   2  -7   0  705.23   51.59 
   2  -7   0  761.02   51.89 
   2  -7   0  752.12   46.40 
  -2  -7   0  795.62   48.40 
  -2  -7   0  854.01   54.19 
  -2  -7   0  735.43   51.69 
   2   7   0  809.62   53.99 
  -2   7   0  764.32   52.09 
   2   7   0  766.02   50.59 
  -2   7   0  748.63   51.79 
  -2   7   0  759.32   47.40 
   2   7   0  830.72   53.89 
  -3  -7   0   25.20    6.60 
   3  -7   0   15.50    5.00 
  -3  -7   0   25.50    6.70 
  -3  -7   0   15.80    7.10 
   3  -7   0   21.70    4.50 
  -3  -7   0   10.60    5.50 
  -3   7   0   15.90    3.70 
  -3   7   0   17.60    5.10 
   3   7   0    8.30    5.20 
   3   7   0   22.70   10.20 
   3   7   0   18.40    5.50 
  -4  -7   0  187.78   18.60 
  -4  -7   0  148.99   16.80 
   4  -7   0  167.18   14.50 
  -4  -7   0  158.08   17.80 
  -4   7   0  144.09   15.20 
  -4   7   0  154.08   11.80 
   4   7   0  128.59   15.50 
  -5  -7   0  447.96   35.00 
   5  -7   0  422.56   29.40 
  -5  -7   0  416.26   34.90 
  -5  -7   0  416.36   35.80 
   5   7   0  427.86   34.00 
  -5   7   0  455.35   31.90 
   6  -7   0   15.40    3.30 
  -6  -7   0   16.40    6.50 
  -6  -7   0    8.20    4.90 
  -6  -7   0   33.80    8.30 
   6   7   0   10.50    5.70 
  -7  -7   0   43.70   12.30 
  -7  -7   0   51.19   12.30 
   7   7   0   33.60    9.70 
   0  -8   0  417.96   34.40 
   0  -8   0  473.65   28.90 
   0  -8   0  383.96   29.70 
   0  -8   0  455.05   34.70 
   0   8   0  433.86   30.60 
   0   8   0  452.35   34.90 
   0   8   0  449.76   35.00 
   1  -8   0  232.48   15.30 
  -1  -8   0  225.78   18.30 
  -1  -8   0  208.48   18.70 
  -1  -8   0  221.88   16.00 
  -1  -8   0  219.18   21.50 
   1  -8   0  219.88   21.10 
  -1   8   0  192.28   20.00 
   1   8   0  200.58   20.60 
   1   8   0  207.78   20.90 
   1   8   0  202.28   18.30 
  -1   8   0  216.18   20.80 
  -1   8   0  189.78   16.70 
   2  -8   0  115.69   14.40 
  -2  -8   0  124.19   15.70 
  -2  -8   0  105.49   14.00 
  -2  -8   0  168.08   17.40 
  -2  -8   0  132.19   14.00 
   2  -8   0  132.99   11.10 
  -2   8   0  122.09   11.40 
   2   8   0  105.49   14.80 
   2   8   0  117.89   15.90 
   2   8   0  146.19   16.20 
  -2   8   0  131.89   15.30 
  -3  -8   0  187.28   20.00 
   3  -8   0  176.28   14.40 
  -3  -8   0  203.28   21.60 
  -3  -8   0  202.18   19.30 
   3  -8   0  192.48   18.30 
  -3  -8   0  184.88   20.60 
  -3   8   0  183.28   14.70 
   3   8   0  213.98   19.00 
  -3   8   0  166.58   18.90 
   3   8   0  180.68   19.70 
  -4  -8   0  681.83   50.69 
  -4  -8   0  677.03   49.80 
  -4  -8   0  688.93   50.29 
   4  -8   0  695.03   46.50 
  -4   8   0  651.13   47.50 
   4   8   0  690.13   48.50 
  -5  -8   0   36.70    9.60 
  -5  -8   0   27.60    8.90 
  -5  -8   0   23.40    7.00 
   5  -8   0   26.20    6.20 
   5   8   0   18.20    6.90 
  -6  -8   0   13.10    6.40 
  -6  -8   0   20.30    7.80 
   6  -8   0   11.70    4.10 
   6   8   0   20.30    7.00 
   0  -9   0    2.50    3.30 
   0  -9   0   -7.50    4.20 
   0  -9   0    2.30    3.10 
   0   9   0    0.90    4.30 
   0   9   0    0.90    2.80 
   1  -9   0   14.10    3.70 
   1  -9   0    4.00    5.10 
  -1  -9   0    9.20    5.40 
  -1  -9   0   14.80    6.80 
  -1  -9   0   18.00    5.70 
   1   9   0   18.10    7.10 
  -1   9   0   12.60    6.10 
  -2  -9   0  299.87   27.00 
  -2  -9   0  325.57   30.10 
   2  -9   0  312.27   22.10 
  -2  -9   0  332.47   30.10 
  -2  -9   0  335.07   26.10 
   2  -9   0  301.47   27.20 
  -2   9   0  306.47   23.20 
  -2   9   0  313.47   27.90 
   2   9   0  323.97   29.50 
   2   9   0  313.87   25.90 
   3  -9   0   49.50   10.40 
  -3  -9   0   46.90   11.80 
  -3  -9   0   43.60   11.10 
   3   9   0   50.59   10.70 
  -3   9   0   49.10    7.20 
  -3   9   0   35.40    9.40 
   4  -9   0   95.69   13.90 
  -4  -9   0  117.39   15.70 
  -4  -9   0  118.39   15.40 
  -4  -9   0   94.39   17.30 
   4   9   0  108.59   14.90 
  -4   9   0   93.09   13.70 
  -5  -9   0   34.60    9.50 
  -5  -9   0   47.60   11.20 
   0 -10   0  151.98   19.70 
   0 -10   0  167.48   12.00 
   0  10   0   93.99   18.80 
  -1 -10   0   -0.40    5.70 
   1 -10   0   11.40    6.90 
  -1 -10   0    3.00    6.30 
  -1 -10   0    7.30    5.40 
   1  10   0    5.10    3.90 
   1  10   0   18.30    8.20 
  -1  10   0   12.50    4.60 
   2 -10   0   43.40   11.20 
  -2 -10   0   76.69   11.40 
  -2 -10   0   61.89   12.90 
  -2 -10   0   19.50   11.80 
   2  10   0   54.99   10.80 
  -2  10   0   49.80    8.70 
 -10   0   1   46.40   12.10 
 -10   0   1   49.20    9.70 
  -9   0   1  206.48   23.40 
  -9   0   1  216.38   19.30 
  -8   0   1  393.76   33.90 
  -8   0   1  380.96   28.80 
  -7   0   1 1568.04   94.29 
  -7   0   1 1584.64   96.49 
  -7   0   1 1433.76   92.09 
  -7   0   1 1542.45   97.69 
  -6   0   1 1086.19   69.79 
  -6   0   1  970.90   67.79 
   6   0  -1 1256.47   70.99 
  -6   0   1 1227.28   63.89 
  -6   0   1 1085.79   71.39 
  -6   0   1 1075.99   72.39 
  -6   0   1 1144.69   64.19 
  -5   0   1  757.72   44.90 
  -5   0   1  812.62   44.60 
  -5   0   1  745.83   49.00 
  -5   0   1  734.23   50.19 
  -5   0   1  739.03   50.99 
   5   0  -1  859.41   49.99 
  -4   0   1  321.17   17.70 
  -4   0   1  288.07   20.80 
  -4   0   1  255.67   21.20 
  -4   0   1  298.67   17.90 
   4   0  -1  325.67   21.40 
  -4   0   1  265.57   21.80 
  -3   0   1  323.17   18.10 
  -3   0   1  297.97   20.40 
  -3   0   1  283.77   21.20 
   3   0  -1  314.57   17.90 
  -3   0   1  271.47   20.80 
   3   0  -1  332.97   20.80 
   0   0   1    0.10    0.10 
   0   0   1    0.00    0.10 
  -3   0  -1 1021.40   55.39 
   3   0   1  921.61   59.29 
   3   0   1  975.70   55.29 
  -3   0  -1 1009.50   59.19 
   3   0   1  947.71   57.59 
  -3   0  -1  942.81   57.39 
  -4   0  -1   30.10    2.90 
  -4   0  -1   28.20    4.20 
   4   0   1   30.90    4.60 
  -4   0  -1   30.40    6.10 
   4   0   1   20.40    5.40 
  -4   0  -1   30.10    2.60 
  -5   0  -1  110.19   12.00 
  -5   0  -1  119.49    8.20 
   5   0   1  114.49   11.00 
  -5   0  -1  115.89    7.40 
  -5   0  -1  106.49   10.40 
  -5   0  -1  105.69   12.40 
  -6   0  -1   35.30    3.70 
  -6   0  -1   39.30    7.40 
  -6   0  -1   55.99   10.20 
  -6   0  -1   38.40    3.20 
   6   0   1   50.99    9.30 
  -6   0  -1   44.80    9.80 
  -7   0  -1  491.25   35.40 
  -7   0  -1  518.75   37.80 
  -7   0  -1  481.55   39.20 
   7   0   1  529.55   36.50 
   8   0   1  223.48   19.50 
  -8   0  -1  165.08   16.30 
  -8   0  -1  192.38   21.40 
  -9   0  -1   10.00    6.00 
  -9   0  -1    9.70    4.70 
 -10   0  -1   20.70    8.00 
 -10   0  -1   26.30    7.00 
 -10  -1   1    6.20    5.70 
 -10   1   1   12.50    6.00 
 -10   1   1   24.70    8.80 
  -9  -1   1   39.70   10.40 
  -9  -1   1   41.40    3.20 
  -9  -1   1   38.90    8.90 
  -9   1   1   42.50    9.10 
  -9   1   1   31.50   10.20 
  -8  -1   1  224.48   14.80 
  -8  -1   1  242.28   15.20 
  -8  -1   1  216.88   23.80 
  -8   1   1  223.68   22.90 
   8   1  -1  231.98   21.80 
  -7  -1   1  501.35   28.50 
  -7  -1   1  400.96   32.80 
  -7  -1   1  465.55   28.60 
  -7  -1   1  441.46   36.70 
  -7  -1   1  409.16   35.00 
  -7   1   1  451.65   31.80 
  -7   1   1  477.85   33.60 
  -7   1   1  484.45   36.20 
   7   1  -1  487.65   34.70 
  -6  -1   1 2061.49  116.19 
  -6  -1   1 1893.81  123.39 
  -6  -1   1 2123.69  116.09 
  -6  -1   1 2063.19  120.69 
  -6  -1   1 1970.40  122.89 
  -6   1   1 2031.70  120.19 
  -6   1   1 1875.11  118.09 
  -6   1   1 2071.19  121.29 
  -6   1   1 1999.80  122.39 
   6   1  -1 2090.59  121.19 
  -5  -1   1  594.54   42.60 
  -5  -1   1  663.53   38.30 
  -5  -1   1  661.63   38.10 
  -5  -1   1  605.44   40.90 
  -5  -1   1  606.24   43.40 
   5   1  -1  658.93   41.60 
  -5   1   1  625.84   40.70 
  -5   1   1  627.24   41.40 
  -5   1   1  618.64   42.20 
  -5   1   1  608.24   39.40 
  -4  -1   1  705.23   39.70 
  -4  -1   1  702.03   39.50 
  -4  -1   1  646.54   41.60 
  -4  -1   1  639.44   43.10 
  -4  -1   1  642.44   43.60 
  -4   1   1  643.74   42.30 
  -4   1   1  604.54   41.30 
   4   1  -1  689.23   39.20 
  -4   1   1  604.84   40.00 
   4   1  -1  672.03   42.00 
  -4   1   1  676.73   42.90 
  -3  -1   1  684.33   40.50 
  -3  -1   1  625.24   41.60 
  -3  -1   1  678.03   40.40 
  -3  -1   1  615.94   43.00 
  -3   1   1  773.82   38.80 
  -3   1   1  660.13   41.90 
  -3   1   1  731.33   41.70 
  -3   1   1  642.14   41.40 
   3   1  -1  692.73   42.00 
  -3   1   1  643.64   40.50 
   3   1  -1  678.13   43.50 
   3   1  -1  716.03   40.50 
  -2  -1   1  428.86   26.40 
  -2  -1   1  451.05   27.70 
   2  -1  -1  459.55   24.70 
  -2  -1   1  464.95   25.90 
  -2  -1   1  444.56   25.80 
   2  -1  -1  402.06   25.40 
  -2   1   1  453.15   24.60 
   2   1  -1  428.46   25.80 
   2   1  -1  401.86   27.40 
   2   1  -1  397.36   26.30 
  -2   1   1  386.46   25.30 
  -2   1   1  390.46   25.70 
  -2   1   1  400.76   25.90 
  -1  -1  -1   69.29    5.40 
  -1  -1  -1   75.39    5.50 
   1  -1   1   66.39    4.60 
  -1  -1  -1   61.59    5.70 
  -1  -1  -1   67.49    5.20 
   1  -1   1   71.29    5.20 
  -1   1  -1   69.19    4.90 
   1   1   1   57.29    5.70 
   1   1   1   63.09    5.20 
  -1   1  -1   78.59    5.10 
  -2  -1  -1 3782.32  229.98 
  -2  -1  -1 4239.48  228.58 
  -2  -1  -1 4091.69  228.38 
  -2  -1  -1 3893.11  228.78 
   2  -1   1 3983.80  226.78 
   2  -1   1 4191.58  229.38 
   2  -1   1 4282.07  228.28 
   2   1   1 4045.90  228.48 
  -2   1  -1 4624.94  229.18 
  -2   1  -1 3787.72  227.88 
   2   1   1 3726.03  230.18 
   2   1   1 3867.31  228.98 
  -3  -1  -1  402.36   23.80 
  -3  -1  -1  373.56   24.80 
   3  -1   1  395.86   26.00 
  -3  -1  -1  347.27   26.30 
  -3  -1  -1  391.56   24.10 
   3  -1   1  418.06   24.60 
   3   1   1  397.96   23.90 
  -3   1  -1  354.76   24.00 
   3   1   1  374.56   25.10 
   3   1   1  332.07   26.20 
  -3   1  -1  424.86   25.60 
  -3   1  -1  381.96   22.20 
  -4  -1  -1 1070.59   60.89 
   4  -1   1 1128.79   62.79 
  -4  -1  -1  998.20   64.79 
  -4  -1  -1  948.41   65.39 
  -4  -1  -1  984.10   62.69 
  -4  -1  -1 1093.69   61.49 
   4  -1   1  995.60   64.39 
  -4   1  -1  977.90   61.99 
   4   1   1 1042.50   63.39 
  -4   1  -1 1042.70   58.99 
   4   1   1 1076.89   60.79 
  -4   1  -1 1131.29   63.99 
  -5  -1  -1  644.24   38.20 
   5  -1   1  597.04   43.00 
  -5  -1  -1  612.14   41.00 
  -5  -1  -1  638.34   39.00 
  -5  -1  -1  612.94   43.20 
   5  -1   1  694.83   41.40 
  -5  -1  -1  570.14   43.90 
   5   1   1  662.13   42.00 
  -5   1  -1  713.63   42.70 
  -5   1  -1  615.44   40.40 
  -6  -1  -1 1364.06   84.79 
  -6  -1  -1 1392.46   81.49 
  -6  -1  -1 1350.56   89.19 
  -6  -1  -1 1509.35   81.99 
  -6  -1  -1 1427.96   88.09 
   6   1   1 1456.35   86.09 
  -6   1  -1 1362.16   84.09 
  -6   1  -1 1258.27   82.69 
  -6   1  -1 1482.85   86.59 
  -6   1  -1 1344.47   87.99 
  -7  -1  -1  196.28   17.70 
  -7  -1  -1  186.78   22.00 
  -7  -1  -1  196.08   13.30 
  -7  -1  -1  201.68   14.40 
   7   1   1  209.68   18.80 
  -7   1  -1  196.08   18.60 
  -7   1  -1  199.58   20.40 
  -8  -1  -1   23.30    3.50 
  -8  -1  -1   19.20    2.60 
  -8  -1  -1   24.10    7.90 
  -8   1  -1   14.00    6.70 
  -8   1  -1   19.40    5.80 
   8   1   1   27.70    7.70 
  -9  -1  -1   33.40    9.50 
  -9   1  -1   30.80    9.40 
  -9   1  -1   37.20    8.00 
   9   1   1   24.00    8.00 
 -10  -1  -1   -0.90    4.60 
 -10  -2   1   97.89   13.50 
 -10  -2   1  105.69    7.90 
 -10  -2   1   74.49   16.20 
 -10  -2   1  110.39    8.00 
 -10   2   1   82.49   16.40 
 -10   2   1  125.09   13.20 
  -9  -2   1  404.96   38.30 
  -9  -2   1  439.36   28.10 
  -9  -2   1  467.15   28.50 
   9   2  -1  471.55   36.70 
  -9   2   1  415.56   31.70 
  -9   2   1  432.86   37.10 
  -8  -2   1  457.15   29.30 
  -8  -2   1  414.26   37.80 
  -8  -2   1  483.75   29.70 
  -8   2   1  436.76   33.80 
  -8   2   1  434.86   35.70 
  -8   2   1  424.16   31.50 
   8   2  -1  476.05   35.80 
  -7  -2   1  939.81   74.99 
  -7  -2   1  966.30   58.59 
   7   2  -1  956.30   64.69 
  -7   2   1  885.71   62.09 
  -7   2   1 1017.40   61.09 
  -7   2   1  858.91   57.89 
  -6  -2   1 1071.19   67.19 
  -6  -2   1 1106.19   64.29 
  -6  -2   1 1064.79   70.79 
  -6  -2   1  988.10   69.49 
  -6  -2   1 1114.59   64.19 
  -6   2   1 1016.70   64.29 
  -6   2   1 1075.59   66.29 
   6   2  -1 1066.29   67.79 
  -6   2   1 1110.49   66.59 
  -6   2   1 1003.00   67.49 
  -5  -2   1  557.44   41.30 
  -5  -2   1  584.54   37.40 
  -5  -2   1  594.14   37.40 
  -5  -2   1  561.64   39.00 
  -5  -2   1  551.44   41.60 
  -5   2   1  587.84   37.10 
   5   2  -1  627.04   37.00 
  -5   2   1  604.04   38.60 
  -5   2   1  596.04   38.40 
  -5   2   1  593.34   39.60 
   5   2  -1  632.74   40.20 
  -4  -2   1  281.57   23.80 
  -4  -2   1  288.17   22.20 
  -4  -2   1  313.97   21.60 
  -4  -2   1  320.27   21.60 
   4   2  -1  325.07   23.00 
   4   2  -1  339.37   21.60 
  -4   2   1  303.27   20.70 
  -4   2   1  319.97   22.40 
  -4   2   1  317.97   21.60 
  -4   2   1  345.67   19.40 
   3  -2  -1 1342.17   69.69 
  -3  -2   1 1167.98   72.29 
  -3  -2   1 1253.87   71.99 
   3  -2  -1 1080.19   70.49 
   3  -2  -1 1222.48   69.69 
  -3  -2   1 1281.77   72.19 
  -3  -2   1 1202.78   74.39 
   3   2  -1 1256.07   72.49 
  -3   2   1 1242.98   70.19 
  -3   2   1 1205.88   71.49 
  -3   2   1 1263.67   70.99 
   3   2  -1 1182.18   72.49 
   3   2  -1 1181.48   74.59 
  -3   2   1 1171.68   70.29 
  -2  -2   1 2637.24  159.48 
  -2  -2   1 2852.91  159.98 
  -2  -2   1 2864.61  160.18 
   2  -2  -1 2858.01  158.78 
   2  -2  -1 2665.33  158.28 
  -2  -2   1 2729.33  161.28 
   2  -2  -1 2802.72  158.28 
   2   2  -1 2668.83  159.78 
  -2   2   1 2930.61  158.88 
  -2   2   1 2867.21  158.78 
  -2   2   1 3045.30  158.08 
   2   2  -1 2715.33  161.48 
  -2   2   1 2652.83  158.08 
   2   2  -1 2933.61  160.28 
  -2   2   1 2734.83  157.68 
  -1  -2   1 2234.68  136.59 
  -1  -2   1 2436.86  137.89 
   1  -2  -1 2489.75  137.09 
  -1  -2   1 2374.96  137.89 
  -1  -2   1 2446.26  137.79 
  -1   2   1 2504.05  137.29 
   1   2  -1 2241.78  136.79 
   1   2  -1 2440.46  138.19 
   1   2  -1 2499.65  137.99 
   0  -2  -1 6608.84  356.16 
   0  -2  -1 5877.21  354.56 
   0  -2  -1 6216.58  354.76 
   0  -2   1 6541.75  355.86 
  -1  -2  -1 8568.64  524.15 
   1  -2   1 9373.36  523.45 
  -1   2  -1 9999.00  523.95 
  -2  -2  -1 2989.10  160.18 
  -2  -2  -1 2668.93  161.18 
  -2  -2  -1 2813.82  159.68 
  -2  -2  -1 2473.45  160.38 
   2  -2   1 2775.22  157.88 
  -2  -2  -1 2728.73  159.28 
   2  -2   1 2934.41  158.48 
   2  -2   1 2865.11  158.88 
   2   2   1 2755.92  159.68 
  -2   2  -1 2909.51  158.58 
   3  -2   1  415.16   22.40 
  -3  -2  -1  377.46   24.20 
   3  -2   1  380.26   21.50 
  -3  -2  -1  346.27   25.90 
  -3  -2  -1  388.76   24.60 
   3  -2   1  383.36   24.80 
  -3  -2  -1  387.56   24.60 
  -3  -2  -1  352.56   26.60 
   3   2   1  341.77   24.00 
  -3   2  -1  313.47   22.30 
  -3   2  -1  357.46   22.50 
  -3   2  -1  350.06   23.10 
  -3   2  -1  419.56   24.10 
   3   2   1  348.97   24.80 
  -4  -2  -1  598.94   35.10 
  -4  -2  -1  556.64   37.70 
  -4  -2  -1  551.04   38.50 
  -4  -2  -1  546.65   34.20 
   4  -2   1  546.85   36.20 
  -4  -2  -1  532.95   35.20 
  -4   2  -1  575.74   35.50 
   4   2   1  571.84   34.40 
  -4   2  -1  541.85   32.10 
   4   2   1  528.05   35.90 
  -4   2  -1  479.35   33.00 
  -4   2  -1  516.05   33.90 
  -5  -2  -1  427.96   27.40 
  -5  -2  -1  394.66   31.70 
  -5  -2  -1  382.16   27.90 
  -5  -2  -1  389.16   30.50 
  -5  -2  -1  416.86   26.50 
   5  -2   1  392.76   29.50 
  -5   2  -1  385.26   23.50 
  -5   2  -1  380.46   26.90 
  -5   2  -1  445.76   28.50 
   5   2   1  412.26   26.30 
   5   2   1  400.76   29.00 
   6  -2   1 1353.16   87.29 
  -6  -2  -1 1353.76   89.89 
  -6  -2  -1 1371.66   85.19 
  -6  -2  -1 1455.05   83.39 
  -6  -2  -1 1387.46   88.79 
  -6  -2  -1 1470.55   82.39 
  -6   2  -1 1360.26   83.79 
  -6   2  -1 1311.27   82.49 
  -6   2  -1 1377.76   87.59 
  -6   2  -1 1477.25   85.59 
   6   2   1 1405.76   86.49 
  -7  -2  -1  363.16   33.60 
  -7  -2  -1  425.46   27.60 
  -7  -2  -1  432.06   26.50 
  -7   2  -1  402.46   29.00 
  -7   2  -1  358.76   31.70 
  -7   2  -1  373.36   27.50 
  -7   2  -1  428.46   30.30 
  -8  -2  -1  101.89    9.40 
  -8  -2  -1   94.69   14.40 
  -8  -2  -1   93.09    8.30 
  -8   2  -1   68.89    9.90 
   8   2   1  101.89   13.50 
  -8   2  -1   99.59   11.50 
  -8   2  -1  102.89   14.00 
  -9  -2  -1   20.30    3.50 
  -9  -2  -1   20.90    4.20 
  -9  -2  -1   31.90    9.30 
  -9   2  -1   25.10    6.20 
  -9   2  -1   13.80    6.60 
   9   2   1   25.90    8.00 
  -9  -3   1   76.79    8.80 
  -9  -3   1   59.49   14.60 
  -9  -3   1   93.29    9.20 
  -9   3   1   62.99   13.00 
  -9   3   1   68.99   10.10 
   9   3  -1   88.79   13.20 
  -8  -3   1  267.67   20.70 
  -8  -3   1  270.97   28.10 
  -8  -3   1  257.47   20.70 
   8   3  -1  295.17   25.60 
  -8   3   1  278.47   24.70 
  -8   3   1  244.38   20.80 
  -8   3   1  295.67   22.80 
  -7  -3   1 1084.99   65.79 
  -7  -3   1 1103.79   65.69 
  -7   3   1 1099.59   66.49 
  -7   3   1 1009.60   64.39 
   7   3  -1 1047.40   69.49 
  -7   3   1 1008.70   68.39 
  -6  -3   1  264.47   21.70 
  -6  -3   1  289.37   24.90 
  -6  -3   1  265.77   20.20 
  -6  -3   1  286.27   20.30 
  -6  -3   1  260.87   24.80 
  -6   3   1  269.87   19.90 
  -6   3   1  244.38   18.80 
  -6   3   1  232.78   20.80 
  -6   3   1  238.18   20.10 
   6   3  -1  244.58   21.90 
  -5  -3   1 1541.85   94.59 
  -5  -3   1 1563.64   93.79 
  -5  -3   1 1503.25   97.89 
  -5  -3   1 1452.45   97.29 
  -5  -3   1 1640.64   93.99 
  -5   3   1 1668.33   90.29 
   5   3  -1 1649.23   93.49 
  -5   3   1 1578.14   94.39 
  -5   3   1 1547.45   91.29 
   5   3  -1 1559.14   95.39 
  -5   3   1 1596.94   93.59 
  -5   3   1 1494.35   93.59 
  -4  -3   1  186.68   15.00 
  -4  -3   1  186.88   17.20 
  -4  -3   1  187.08   15.10 
  -4  -3   1  187.08   14.90 
   4  -3  -1  206.38   11.60 
   4  -3  -1  171.38   13.00 
   4  -3  -1  184.68   11.80 
   4   3  -1  162.38   15.10 
  -4   3   1  167.98   13.70 
  -4   3   1  179.98   12.90 
  -4   3   1  168.18   12.60 
  -4   3   1  171.38   12.70 
   4   3  -1  171.88   14.40 
   3  -3  -1  473.65   32.90 
  -3  -3   1  593.24   40.90 
  -3  -3   1  509.85   36.90 
  -3  -3   1  556.94   35.60 
   3  -3  -1  537.35   33.40 
  -3  -3   1  521.95   34.80 
   3  -3  -1  531.95   32.80 
   3   3  -1  539.85   35.40 
  -3   3   1  557.34   33.80 
   3   3  -1  532.95   37.40 
   3   3  -1  596.64   36.00 
  -3   3   1  581.24   32.60 
  -3   3   1  597.34   32.30 
  -3   3   1  561.34   33.60 
  -3   3   1  510.85   33.00 
  -2  -3   1 3724.73  209.58 
  -2  -3   1 3719.73  208.88 
   2  -3  -1 3604.64  207.38 
  -2  -3   1 3396.96  207.18 
  -2  -3   1 3694.93  208.88 
   2  -3  -1 3655.43  207.08 
   2  -3  -1 3631.04  205.88 
  -2   3   1 3686.13  207.48 
  -2   3   1 3796.92  207.68 
   2   3  -1 3764.12  208.98 
   2   3  -1 3507.75  209.68 
   2   3  -1 3535.75  207.78 
  -1  -3   1 3999.50  232.88 
   1  -3  -1 4407.96  234.28 
  -1  -3   1 4265.67  234.48 
  -1  -3   1 4218.38  234.98 
  -1  -3   1 4133.59  235.08 
   1   3  -1 4065.19  234.58 
   1   3  -1 4120.09  235.08 
   1   3  -1 3802.12  233.08 
   1   3  -1 3926.01  234.68 
  -1   3   1 4108.99  234.28 
  -1   3   1 4243.98  234.48 
   0  -3   1  929.21   56.19 
   0  -3  -1  956.70   53.79 
   0  -3   1  924.01   53.49 
   0  -3  -1  950.80   56.09 
   0  -3  -1  927.71   56.39 
   0  -3   1  930.01   56.19 
   0  -3  -1  889.91   54.39 
   0  -3   1  877.41   54.29 
   0   3   1  927.31   54.19 
   0   3   1  948.91   56.19 
   0   3   1  982.20   56.49 
   0   3  -1  957.20   56.39 
   0   3  -1  931.31   55.09 
   0   3  -1  921.21   53.99 
   0   3  -1  924.51   55.99 
  -1  -3  -1 4110.59  264.37 
   1  -3   1 4923.61  265.07 
  -1  -3  -1 4838.62  265.47 
  -1  -3  -1 4876.51  265.97 
  -1  -3  -1 4497.25  264.97 
  -1  -3  -1 4656.53  263.47 
  -1   3  -1 4863.01  264.87 
   1   3   1 4822.62  265.57 
  -1   3  -1 4681.53  264.97 
  -1   3  -1 4406.06  262.87 
   1   3   1 4809.32  265.77 
   1   3   1 4493.85  263.97 
   2  -3   1  465.85   26.90 
  -2  -3  -1  479.15   29.20 
  -2  -3  -1  391.66   28.90 
  -2  -3  -1  427.26   29.80 
  -2  -3  -1  484.65   29.70 
   2  -3   1  445.86   27.30 
  -2  -3  -1  432.26   27.80 
   2  -3   1  459.45   27.90 
   2   3   1  398.46   28.00 
   2   3   1  429.16   28.90 
  -2   3  -1  406.16   27.60 
   2   3   1  407.66   28.50 
   3  -3   1  168.18   13.50 
  -3  -3  -1  173.08   15.60 
  -3  -3  -1  167.58   16.00 
  -3  -3  -1  185.38   14.20 
   3  -3   1  182.78   12.20 
  -3  -3  -1  177.58   14.40 
  -3  -3  -1  195.28   15.20 
   3  -3   1  181.78   12.80 
  -3   3  -1  180.38   13.20 
   3   3   1  163.98   14.40 
  -3   3  -1  215.48   12.80 
  -4  -3  -1  172.88   14.50 
  -4  -3  -1  178.28   16.50 
   4  -3   1  184.18   11.60 
  -4  -3  -1  188.08   14.60 
  -4  -3  -1  147.09   16.30 
  -4  -3  -1  192.38   15.10 
   4  -3   1  151.48   14.10 
  -4   3  -1  182.88   12.70 
  -4   3  -1  204.98   13.70 
   4   3   1  183.98   14.60 
  -4   3  -1  170.08   13.00 
  -4   3  -1  166.78   12.10 
   4   3   1  166.58   15.20 
  -5  -3  -1  674.63   45.80 
  -5  -3  -1  688.83   48.80 
  -5  -3  -1  727.63   45.70 
   5  -3   1  660.43   46.00 
  -5  -3  -1  686.83   49.60 
  -5  -3  -1  728.63   44.90 
  -5   3  -1  666.83   42.40 
  -5   3  -1  690.13   43.80 
   5   3   1  688.93   44.50 
   5   3   1  694.93   46.80 
  -5   3  -1  713.63   41.80 
  -5   3  -1  797.32   44.70 
  -6  -3  -1 1331.57   77.29 
  -6  -3  -1 1208.18   77.59 
  -6  -3  -1 1262.17   83.19 
   6  -3   1 1197.98   78.99 
  -6  -3  -1 1229.68   75.89 
   6   3   1 1234.88   79.29 
  -6   3  -1 1390.86   77.09 
  -6   3  -1 1224.88   74.29 
  -6   3  -1 1217.88   75.79 
  -7  -3  -1  152.88   14.30 
  -7  -3  -1  171.78   14.10 
  -7  -3  -1  147.89   18.80 
  -7   3  -1  164.78   13.80 
   7   3   1  146.99   16.70 
  -7   3  -1  159.18   17.70 
  -7   3  -1  159.28   17.40 
  -7   3  -1  167.28   14.60 
  -8  -3  -1   95.89   10.20 
  -8  -3  -1   92.99   17.90 
  -8  -3  -1   85.49    9.30 
  -8   3  -1   85.19   10.10 
  -8   3  -1   85.89   10.90 
  -8   3  -1  104.99   14.10 
   8   3   1   84.99   12.90 
  -9  -3  -1   74.99   17.10 
  -9  -3  -1   92.99    9.00 
  -9  -3  -1   68.59   12.70 
  -9   3  -1   87.09   14.00 
  -9   3  -1   83.99   10.30 
   9   3   1   77.89   15.30 
  -9  -4   1   89.69    9.80 
  -9  -4   1   69.69   15.30 
  -9  -4   1   64.09    9.10 
   9   4  -1   77.69   14.80 
  -9   4   1   51.79   13.90 
  -9   4   1   59.89    9.30 
  -8  -4   1  227.98   19.80 
  -8  -4   1  222.48   25.40 
  -8  -4   1  227.28   19.50 
   8   4  -1  232.98   23.20 
  -8   4   1  228.28   21.50 
  -8   4   1  240.98   18.40 
  -7  -4   1   84.99   10.50 
  -7  -4   1   88.49   14.30 
  -7  -4   1   89.29   10.40 
  -7   4   1   77.79   10.50 
   7   4  -1   87.49   12.60 
  -7   4   1   91.59   10.00 
  -7   4   1   93.89    9.60 
  -6  -4   1  423.86   30.40 
  -6  -4   1  426.26   35.90 
  -6  -4   1  418.16   30.30 
  -6   4   1  389.36   26.70 
  -6   4   1  472.15   27.90 
  -6   4   1  372.96   29.60 
   6   4  -1  430.96   36.30 
  -6   4   1  373.36   28.70 
   5  -4  -1  666.23   39.80 
  -5  -4   1  700.33   45.00 
  -5  -4   1  627.74   47.60 
   5  -4  -1  645.84   39.30 
  -5  -4   1  647.24   48.00 
  -5  -4   1  676.63   45.00 
  -5  -4   1  655.03   44.60 
   5   4  -1  701.53   44.60 
  -5   4   1  712.43   40.90 
  -5   4   1  729.63   41.00 
   5   4  -1  654.13   45.60 
  -5   4   1  628.84   42.40 
  -5   4   1  674.33   43.30 
  -5   4   1  686.73   41.50 
  -4  -4   1 1238.78   80.49 
  -4  -4   1 1375.96   78.69 
   4  -4  -1 1311.07   74.69 
  -4  -4   1 1310.77   78.49 
  -4  -4   1 1206.68   76.99 
   4  -4  -1 1299.27   73.99 
   4  -4  -1 1112.99   74.39 
   4   4  -1 1270.17   81.29 
   4   4  -1 1330.17   78.29 
  -4   4   1 1401.26   73.19 
  -4   4   1 1172.88   74.49 
   4   4  -1 1243.28   78.19 
  -4   4   1 1280.27   75.59 
  -3  -4   1  263.17   21.70 
   3  -4  -1  272.07   18.70 
   3  -4  -1  282.77   19.30 
  -3  -4   1  279.77   21.20 
  -3  -4   1  258.87   19.50 
  -3  -4   1  290.57   21.40 
   3   4  -1  275.37   21.10 
   3   4  -1  263.57   20.40 
  -3   4   1  269.67   19.30 
  -3   4   1  266.67   19.40 
   3   4  -1  260.47   22.20 
  -2  -4   1 1314.37   78.99 
  -2  -4   1 1374.16   79.09 
   2  -4  -1 1280.67   74.89 
   2  -4  -1 1296.67   77.09 
  -2  -4   1 1246.58   78.69 
  -2  -4   1 1213.28   76.39 
   2  -4  -1 1280.17   77.49 
  -2   4   1 1310.97   77.49 
  -2   4   1 1391.76   74.69 
   2   4  -1 1282.77   83.99 
  -2   4   1 1293.67   77.69 
   2   4  -1 1251.67   79.29 
   2   4  -1 1337.87   78.69 
  -1  -4   1 3799.72  224.08 
  -1  -4   1 3696.13  220.98 
   1  -4  -1 3881.91  223.68 
  -1  -4   1 3912.91  224.08 
   1  -4  -1 4022.20  223.38 
   1  -4  -1 4462.15  220.08 
  -1  -4   1 3986.90  222.98 
   1   4  -1 3983.20  224.48 
  -1   4   1 3911.81  220.58 
   1   4  -1 3893.91  223.88 
   1   4  -1 3557.04  221.58 
   1   4  -1 3644.24  223.38 
  -1   4   1 3917.91  223.68 
  -1   4   1 3906.21  223.48 
   0  -4  -1  428.46   25.10 
   0  -4  -1  387.76   27.30 
   0  -4   1  387.96   25.00 
   0  -4   1  394.96   23.80 
   0  -4  -1  413.16   25.10 
   0  -4   1  434.16   27.60 
   0  -4   1  411.16   27.40 
   0  -4  -1  418.26   27.30 
   0   4  -1  371.06   25.70 
   0   4   1  367.16   26.80 
   0   4   1  361.16   24.70 
   0   4  -1  377.86   27.10 
   0   4   1  398.66   27.30 
   0   4  -1  373.26   24.50 
  -1  -4  -1 6581.14  416.16 
  -1  -4  -1 7284.17  416.86 
  -1  -4  -1 7674.63  418.46 
  -1  -4  -1 7316.67  414.96 
   1  -4   1 7700.73  417.56 
  -1  -4  -1 7495.35  417.86 
  -1   4  -1 7289.57  414.86 
   1   4   1 7530.65  417.96 
  -1   4  -1 7157.18  413.76 
  -1   4  -1 7496.75  417.16 
  -1   4  -1 7503.55  417.46 
   1   4   1 7053.39  417.06 
   1   4   1 7638.24  418.36 
   2  -4   1 1854.61  103.09 
  -2  -4  -1 1723.43  104.39 
  -2  -4  -1 1804.22  101.99 
  -2  -4  -1 1636.84  103.69 
   2  -4   1 1779.92  102.39 
  -2  -4  -1 1801.32  104.19 
   2  -4   1 1791.92  100.39 
  -2  -4  -1 1903.91  104.99 
   2   4   1 1766.02  103.99 
   2   4   1 1631.24  102.49 
  -2   4  -1 1718.43  102.89 
   2   4   1 1779.02  104.39 
  -2   4  -1 1580.24  100.09 
   3  -4   1  397.76   26.40 
   3  -4   1  427.96   26.10 
  -3  -4  -1  417.36   28.50 
  -3  -4  -1  364.56   28.90 
  -3  -4  -1  396.66   29.80 
   3  -4   1  382.56   25.80 
  -3  -4  -1  394.46   27.00 
  -3  -4  -1  419.96   29.10 
   3   4   1  407.66   28.20 
   3   4   1  415.06   28.80 
  -3   4  -1  387.96   26.80 
   3   4   1  396.76   28.20 
   4  -4   1  157.28   11.40 
   4  -4   1  154.88   10.60 
   4  -4   1  149.79   12.80 
  -4  -4  -1  137.19   15.60 
  -4  -4  -1  137.99   15.00 
  -4  -4  -1  153.88   13.60 
  -4  -4  -1  147.19   14.20 
  -4  -4  -1  147.79   13.30 
  -4   4  -1  145.59   12.10 
   4   4   1  149.99   14.30 
   5  -4   1  635.44   43.00 
  -5  -4  -1  648.74   43.80 
  -5  -4  -1  711.83   43.80 
  -5  -4  -1  606.94   42.80 
  -5  -4  -1  632.74   47.30 
   5  -4   1  648.04   37.50 
  -5  -4  -1  626.84   46.30 
   5  -4   1  671.03   38.10 
   5   4   1  645.04   43.00 
  -5   4  -1  590.74   43.00 
   5   4   1  624.64   44.40 
  -5   4  -1  614.84   40.70 
  -5   4  -1  750.42   40.80 
  -5   4  -1  672.83   39.00 
  -6  -4  -1  131.89   13.70 
   6  -4   1  130.79   14.20 
  -6  -4  -1  120.29   16.40 
  -6  -4  -1  136.59   13.20 
  -6   4  -1  143.19   12.30 
  -6   4  -1  129.69   12.00 
  -6   4  -1  134.19   10.90 
  -6   4  -1  135.79   10.20 
   6   4   1  146.19   15.40 
  -7  -4  -1   38.20   10.90 
  -7  -4  -1   42.30    8.10 
  -7  -4  -1   39.60    6.90 
   7   4   1   51.69   11.70 
  -7   4  -1   48.10    7.50 
  -7   4  -1   39.30    9.20 
  -7   4  -1   35.40    7.10 
  -7   4  -1   34.40    6.20 
  -8  -4  -1  148.49   15.00 
  -8  -4  -1  157.88   20.20 
  -8   4  -1  140.49   17.00 
  -8   4  -1  155.48   15.00 
   8   4   1  163.38   18.30 
  -8   4  -1  180.88   18.10 
  -8   4  -1  146.09   13.40 
  -9  -4  -1  131.29   19.80 
  -9  -4  -1  153.08   14.80 
  -9  -4  -1  181.48   16.60 
  -9   4  -1  157.58   19.00 
  -9   4  -1  176.38   15.20 
   9   4   1  209.98   21.10 
  -9  -5   1   17.60    5.40 
  -9  -5   1   16.80    4.80 
  -9  -5   1    8.40    7.70 
  -9   5   1   21.40    7.90 
   9   5  -1   14.70    7.00 
  -9   5   1   21.50    5.20 
  -8  -5   1  199.38   18.10 
  -8  -5   1  196.08   17.80 
  -8  -5   1  183.38   23.10 
  -8   5   1  176.28   15.00 
  -8   5   1  175.18   14.70 
  -8   5   1  162.08   16.90 
   8   5  -1  178.38   20.00 
  -7  -5   1  462.65   34.40 
  -7  -5   1  417.56   38.80 
  -7  -5   1  404.96   34.00 
  -7   5   1  470.65   35.20 
  -7   5   1  497.75   30.00 
  -7   5   1  506.05   30.00 
  -7   5   1  423.96   32.00 
   7   5  -1  448.06   36.40 
  -6  -5   1  119.79   13.30 
   6  -5  -1  111.19    7.80 
  -6  -5   1  131.49   13.70 
  -6  -5   1  122.59   15.90 
  -6   5   1  110.19   11.00 
  -6   5   1   99.29   11.80 
   6   5  -1  114.29   14.10 
  -6   5   1  129.29    9.90 
   5  -5  -1   49.99    5.30 
  -5  -5   1   56.09   11.50 
  -5  -5   1   51.19    9.30 
   5  -5  -1   40.00    6.90 
   5  -5  -1   55.19    5.90 
  -5  -5   1   53.59    9.50 
  -5  -5   1   42.30    9.10 
  -5  -5   1   55.89   11.80 
  -5   5   1   46.40    6.50 
   5   5  -1   44.70    8.20 
  -5   5   1   63.09    5.20 
   5   5  -1   59.89    9.20 
  -5   5   1   66.79    6.10 
  -5   5   1   42.40    5.70 
  -4  -5   1 1325.27   91.39 
  -4  -5   1 1518.35   90.49 
   4  -5  -1 1455.95   86.39 
  -4  -5   1 1467.75   91.99 
   4  -5  -1 1415.56   85.69 
  -4  -5   1 1575.04   90.99 
   4  -5  -1 1298.07   85.09 
   4   5  -1 1545.55   90.39 
   4   5  -1 1461.15   89.59 
  -4   5   1 1535.75   87.39 
  -4   5   1 1465.35   87.49 
   4   5  -1 1471.55   92.89 
  -3  -5   1  640.24   42.40 
   3  -5  -1  656.73   39.60 
   3  -5  -1  561.14   37.30 
   3  -5  -1  649.83   40.10 
  -3  -5   1  596.64   39.30 
  -3  -5   1  618.74   42.50 
  -3  -5   1  673.53   42.60 
  -3   5   1  576.54   39.60 
   3   5  -1  584.04   42.80 
   3   5  -1  624.44   42.10 
  -3   5   1  600.54   40.10 
  -3   5   1  617.94   37.50 
   3   5  -1  586.74   40.50 
   2  -5  -1  654.33   41.80 
  -2  -5   1  637.24   43.40 
  -2  -5   1  636.54   42.80 
   2  -5  -1  625.84   38.70 
  -2  -5   1  671.13   43.80 
  -2  -5   1  619.54   40.20 
   2   5  -1  604.24   41.30 
   2   5  -1  674.13   43.50 
  -2   5   1  635.44   42.10 
   2   5  -1  643.04   43.60 
  -2   5   1  710.23   40.00 
   2   5  -1  641.94   43.70 
  -2   5   1  664.63   42.60 
  -1  -5   1 1127.79   66.59 
  -1  -5   1 1009.20   65.69 
   1  -5  -1 1080.29   65.19 
   1  -5  -1 1216.68   61.19 
   1  -5  -1 1051.79   65.49 
  -1  -5   1 1103.79   64.19 
  -1  -5   1 1034.20   61.99 
   1   5  -1  978.30   64.79 
  -1   5   1 1036.90   65.49 
   1   5  -1 1052.99   65.69 
   1   5  -1  917.81   64.09 
  -1   5   1  997.90   64.99 
   1   5  -1 1036.80   66.09 
   0  -5  -1  526.15   32.00 
   0  -5  -1  526.55   34.90 
   0  -5   1  535.45   35.40 
   0  -5   1  532.15   35.30 
   0  -5   1  499.45   30.70 
   0  -5   1  480.15   32.00 
   0  -5  -1  535.35   31.10 
   0  -5  -1  566.84   36.00 
   0  -5  -1  451.55   31.90 
   0   5  -1  485.35   33.20 
   0   5   1  485.55   32.10 
   0   5  -1  499.15   32.00 
   0   5  -1  490.35   37.70 
   0   5   1  515.35   35.30 
   0   5   1  542.65   35.40 
   0   5  -1  543.45   35.60 
  -1  -5  -1 1478.75   87.49 
  -1  -5  -1 1384.36   84.89 
  -1  -5  -1 1250.57   84.29 
  -1  -5  -1 1458.95   82.99 
   1  -5   1 1510.55   86.59 
  -1  -5  -1 1461.65   86.69 
   1  -5   1 1601.84   81.29 
   1  -5   1 1421.26   85.89 
  -1   5  -1 1434.26   86.59 
   1   5   1 1325.87   83.99 
   1   5   1 1423.96   86.69 
  -1   5  -1 1305.47   83.19 
   1   5   1 1482.15   87.39 
  -1   5  -1 1478.95   86.19 
  -1   5  -1 1336.17   82.09 
  -2  -5  -1  693.03   46.50 
   2  -5   1  705.33   45.20 
   2  -5   1  687.03   42.10 
  -2  -5  -1  730.93   47.00 
  -2  -5  -1  714.73   44.00 
  -2  -5  -1  649.24   45.80 
  -2  -5  -1  699.33   47.90 
   2  -5   1  738.63   45.90 
  -2   5  -1  689.03   46.20 
   2   5   1  682.23   45.10 
   2   5   1  748.93   47.60 
  -2   5  -1  727.43   42.80 
   2   5   1  760.72   47.30 
  -3  -5  -1 1122.29   75.69 
  -3  -5  -1 1263.47   73.29 
   3  -5   1 1276.87   73.69 
   3  -5   1 1164.58   71.19 
  -3  -5  -1 1312.37   76.19 
   3  -5   1 1297.87   73.09 
  -3  -5  -1 1153.08   76.29 
  -3  -5  -1 1243.48   76.39 
  -3   5  -1 1097.89   70.49 
   3   5   1 1178.08   74.49 
   3   5   1 1215.98   75.79 
  -3   5  -1 1172.18   73.79 
   3   5   1 1283.57   75.89 
  -4  -5  -1  377.06   26.70 
   4  -5   1  365.66   25.20 
  -4  -5  -1  384.56   29.00 
  -4  -5  -1  342.47   29.70 
  -4  -5  -1  398.36   28.70 
  -4  -5  -1  349.47   29.50 
   4  -5   1  363.46   25.40 
   4  -5   1  378.76   24.50 
   4   5   1  354.96   27.80 
  -4   5  -1  393.36   23.80 
   4   5   1  359.36   28.00 
  -4   5  -1  371.66   26.30 
   5  -5   1  693.13   41.80 
  -5  -5  -1  685.73   51.19 
   5  -5   1  636.44   47.60 
  -5  -5  -1  675.13   50.29 
  -5  -5  -1  720.43   47.80 
  -5  -5  -1  777.92   49.20 
  -5   5  -1  755.02   45.00 
   5   5   1  705.13   47.40 
   6  -5   1  327.97   26.80 
  -6  -5  -1  362.36   28.50 
  -6  -5  -1  365.86   28.00 
  -6  -5  -1  364.06   32.60 
  -6   5  -1  356.06   24.30 
   6   5   1  311.27   28.80 
  -6   5  -1  404.46   24.20 
  -7  -5  -1  388.56   29.70 
  -7  -5  -1  353.16   34.50 
  -7  -5  -1  381.66   30.30 
  -7   5  -1  354.86   29.80 
  -7   5  -1  441.76   26.90 
   7   5   1  359.56   31.60 
  -8  -5  -1   24.70    6.40 
  -8   5  -1   27.60    7.70 
  -8   5  -1   29.10    5.80 
  -8   5  -1   25.20    5.00 
  -8   5  -1   12.70    5.70 
  -8  -6   1   23.50    6.00 
  -8  -6   1   30.90    7.40 
  -8  -6   1   28.20    9.60 
   8   6  -1   50.79   11.10 
  -8   6   1   17.30    5.20 
  -7  -6   1   79.59   16.70 
  -7  -6   1   96.19   12.30 
  -7  -6   1   71.49   12.10 
  -7   6   1   80.29   10.80 
  -7   6   1   98.79    8.60 
   7   6  -1   67.99   13.70 
  -6  -6   1   84.69   12.20 
   6  -6  -1   87.89    9.90 
  -6  -6   1  102.79   12.50 
  -6  -6   1   82.99   15.80 
  -6   6   1   77.39   10.70 
  -6   6   1   92.19    7.90 
   6   6  -1   83.29   12.20 
   5  -6  -1  670.93   47.30 
  -5  -6   1  844.82   54.09 
  -5  -6   1  797.22   53.59 
   5  -6  -1  743.83   47.60 
  -5  -6   1  717.43   55.49 
   5   6  -1  726.63   52.29 
  -5   6   1  882.71   46.30 
  -4  -6   1   68.79    8.70 
   4  -6  -1   63.99    7.50 
  -4  -6   1   63.39   12.20 
  -4  -6   1   66.39   12.60 
   4  -6  -1   75.29    8.20 
  -4  -6   1   73.49   10.40 
  -4  -6   1   59.29   11.20 
   4   6  -1   45.90    9.40 
  -4   6   1   64.49    6.40 
  -4   6   1   58.39    8.10 
   4   6  -1   62.09   10.70 
  -4   6   1   62.79    8.40 
  -3  -6   1  201.38   18.40 
  -3  -6   1  196.48   18.60 
   3  -6  -1  195.78   16.60 
   3  -6  -1  170.78   14.00 
  -3  -6   1  188.58   18.20 
   3  -6  -1  185.68   16.00 
  -3   6   1  193.78   13.60 
   3   6  -1  169.48   16.70 
   3   6  -1  200.08   19.00 
   3   6  -1  200.48   18.50 
  -3   6   1  180.58   16.60 
  -3   6   1  194.68   16.80 
  -2  -6   1  690.13   45.10 
   2  -6  -1  651.03   44.40 
  -2  -6   1  689.73   46.70 
  -2  -6   1  679.83   42.30 
  -2  -6   1  661.03   46.30 
   2  -6  -1  671.33   40.60 
  -2   6   1  648.34   41.00 
   2   6  -1  664.63   46.00 
   2   6  -1  656.43   43.80 
  -2   6   1  686.43   45.20 
   2   6  -1  679.53   46.50 
  -2   6   1  712.43   45.70 
   1  -6  -1 2464.15  141.49 
   1  -6  -1 2355.86  141.79 
  -1  -6   1 2397.26  142.39 
  -1  -6   1 2407.96  136.99 
  -1  -6   1 2466.85  142.79 
  -1  -6   1 2490.25  139.49 
   1  -6  -1 2692.53  136.19 
   1   6  -1 2398.66  142.09 
  -1   6   1 2397.26  141.89 
   1   6  -1 2205.68  140.39 
   1   6  -1 2167.08  138.39 
  -1   6   1 2257.27  137.29 
  -1   6   1 2279.87  141.19 
   0  -6   1  114.59   12.10 
   0  -6  -1  109.79    8.70 
   0  -6   1  108.09    8.30 
   0  -6  -1  117.79    9.60 
   0  -6  -1  114.79   12.20 
   0  -6   1   99.49   11.90 
   0  -6  -1  108.29   12.40 
   0  -6  -1   95.79    9.50 
   0  -6   1  100.99   10.60 
   0   6   1  102.09    9.80 
   0   6   1   95.99   12.10 
   0   6  -1  115.49   12.50 
   0   6  -1   99.09   11.50 
   0   6   1  101.49   11.70 
   0   6  -1  111.39    9.80 
   0   6  -1  104.79   12.00 
   1  -6   1  649.24   42.20 
  -1  -6  -1  617.14   37.80 
  -1  -6  -1  612.64   42.20 
   1  -6   1  605.14   41.30 
  -1  -6  -1  645.04   43.10 
   1  -6   1  672.53   36.20 
  -1  -6  -1  635.24   40.00 
  -1  -6  -1  531.65   39.30 
  -1   6  -1  578.44   38.50 
   1   6   1  554.04   39.10 
   1   6   1  662.13   42.90 
  -1   6  -1  578.24   37.50 
  -1   6  -1  621.44   42.20 
   1   6   1  585.44   47.50 
  -2  -6  -1  864.51   51.59 
   2  -6   1  783.82   49.30 
  -2  -6  -1  876.21   56.49 
   2  -6   1  910.51   62.99 
  -2  -6  -1  759.72   53.69 
  -2  -6  -1  839.52   54.49 
  -2   6  -1  825.12   50.59 
  -2   6  -1  859.81   54.89 
   2   6   1  934.31   56.59 
   2   6   1  747.73   52.69 
   2   6   1  875.41   55.59 
   3  -6   1  686.73   44.30 
  -3  -6  -1  717.63   49.99 
  -3  -6  -1  671.03   49.40 
   3  -6   1  756.22   47.30 
  -3  -6  -1  809.42   50.59 
  -3  -6  -1  732.33   50.59 
   3  -6   1  777.02   48.20 
  -3  -6  -1  756.12   46.80 
   3   6   1  702.93   48.30 
  -3   6  -1  739.83   44.30 
  -3   6  -1  694.43   48.10 
   3   6   1  726.93   49.99 
   3   6   1  768.22   50.09 
  -4  -6  -1 1122.49   67.49 
  -4  -6  -1 1030.20   68.39 
  -4  -6  -1  950.20   67.29 
   4  -6   1 1088.49   62.69 
  -4  -6  -1 1030.30   67.49 
   4  -6   1 1008.20   61.69 
   4   6   1  981.40   68.29 
   4   6   1 1041.00   66.79 
  -4   6  -1  990.50   64.19 
  -4   6  -1  972.90   60.29 
   5  -6   1  106.59    9.40 
  -5  -6  -1  120.79   14.50 
  -5  -6  -1   96.09   14.50 
   5  -6   1  111.99   11.10 
  -5  -6  -1  111.59   13.30 
   5   6   1   99.69   12.90 
  -5   6  -1  137.39   12.10 
   5   6   1  110.49   13.70 
  -6  -6  -1   50.69    8.90 
  -6  -6  -1   47.50    9.60 
   6  -6   1   36.50    3.90 
  -6  -6  -1   42.40   10.90 
  -6   6  -1   46.80    6.30 
  -6   6  -1   40.50    6.90 
   6   6   1   35.40    9.40 
  -6   6  -1   32.60    6.80 
  -7  -6  -1   59.99   10.40 
  -7  -6  -1   55.59    9.90 
  -7  -6  -1   32.60   10.50 
   7   6   1   55.09   12.10 
  -7   6  -1   44.20    8.60 
  -7   6  -1   63.49    7.30 
  -8  -6  -1  102.39   21.30 
  -8  -6  -1   73.09   13.10 
  -8  -6  -1  114.99   17.00 
   8   6   1   71.19   14.00 
  -8   6  -1   76.09   11.70 
  -7  -7   1   86.49   14.60 
  -7  -7   1   92.09   22.70 
  -7  -7   1  103.79   14.20 
  -7   7   1  112.29   12.00 
  -7   7   1   86.09    8.70 
   7   7  -1   90.49   13.40 
  -6  -7   1   25.00    8.30 
  -6  -7   1   18.40    7.10 
  -6  -7   1   23.50    7.00 
  -6   7   1   22.80    7.50 
   6   7  -1   18.80    6.30 
  -6   7   1   16.20    3.80 
  -5  -7   1  246.18   21.60 
  -5  -7   1  206.38   21.80 
   5  -7  -1  169.28   15.50 
  -5  -7   1  182.08   20.50 
   5  -7  -1  198.28   16.50 
  -5   7   1  209.98   14.70 
   5   7  -1  197.68   20.10 
  -4  -7   1  570.34   40.90 
   4  -7  -1  545.75   36.90 
  -4  -7   1  537.45   40.40 
  -4  -7   1  545.15   40.40 
   4  -7  -1  464.55   33.70 
  -4   7   1  547.95   37.90 
  -4   7   1  550.04   33.30 
   4   7  -1  495.75   38.20 
   4   7  -1  521.75   53.39 
   3  -7  -1  292.87   24.30 
  -3  -7   1  287.07   25.30 
   3  -7  -1  276.97   20.90 
  -3  -7   1  341.77   27.70 
  -3  -7   1  317.67   26.90 
  -3  -7   1  305.17   22.80 
  -3   7   1  310.97   28.40 
   3   7  -1  303.17   26.80 
   3   7  -1  316.77   27.80 
  -3   7   1  310.37   25.00 
   3   7  -1  324.57   25.20 
  -3   7   1  313.07   21.00 
   2  -7  -1 1904.81  110.69 
   2  -7  -1 1763.22  110.59 
  -2  -7   1 1934.81  113.19 
   2  -7  -1 1781.72  104.79 
  -2  -7   1 1879.21  109.99 
  -2  -7   1 1929.91  113.09 
  -2   7   1 1729.93  105.79 
   2   7  -1 1711.83  110.99 
  -2   7   1 1809.92  110.79 
   2   7  -1 1825.72  112.59 
   2   7  -1 1748.72  108.69 
  -2   7   1 1782.72  110.89 
   1  -7  -1   16.90    3.60 
  -1  -7   1   13.00    3.40 
   1  -7  -1   17.00    4.90 
  -1  -7   1   19.20    5.40 
  -1  -7   1   26.40    6.20 
  -1  -7   1   18.80    5.60 
   1  -7  -1   21.90    6.30 
  -1   7   1   10.10    3.60 
  -1   7   1   11.50    4.40 
  -1   7   1   16.90    5.10 
   1   7  -1    9.10    3.60 
   1   7  -1   13.10    4.70 
   1   7  -1    9.70    4.20 
   0  -7  -1  486.45   28.80 
   0  -7   1  482.85   34.70 
   0  -7  -1  492.75   34.60 
   0  -7   1  486.65   28.30 
   0  -7  -1  438.56   29.40 
   0  -7  -1  522.95   35.70 
   0  -7  -1  401.16   29.70 
   0  -7   1  472.35   34.70 
   0   7  -1  424.26   31.40 
   0   7  -1  435.56   34.10 
   0   7   1  442.06   30.80 
   0   7   1  459.25   34.20 
   0   7  -1  432.36   30.40 
   0   7   1  415.66   33.90 
   1  -7   1  367.86   28.00 
  -1  -7  -1  314.97   25.10 
   1  -7   1  390.16   21.90 
  -1  -7  -1  368.36   25.40 
   1  -7   1  313.57   26.80 
  -1  -7  -1  316.17   37.50 
  -1  -7  -1  350.06   24.30 
  -1  -7  -1  406.06   29.10 
  -1   7  -1  321.67   24.10 
   1   7   1  335.87   28.20 
   1   7   1  327.37   25.20 
  -1   7  -1  335.87   27.60 
  -1   7  -1  327.97   23.50 
   1   7   1  338.47   27.80 
  -2  -7  -1  652.93   44.30 
  -2  -7  -1  579.84   42.30 
  -2  -7  -1  610.04   38.00 
   2  -7   1  560.64   35.70 
   2  -7   1  610.24   49.99 
  -2  -7  -1  627.54   41.30 
  -2  -7  -1  536.65   40.40 
  -2   7  -1  569.64   36.60 
  -2   7  -1  642.64   42.60 
   2   7   1  569.74   40.10 
  -2   7  -1  574.64   37.20 
   2   7   1  585.54   42.90 
   2   7   1  574.84   42.50 
  -3  -7  -1  446.36   34.10 
  -3  -7  -1  427.16   42.90 
   3  -7   1  445.96   31.90 
  -3  -7  -1  455.05   35.40 
  -3  -7  -1  440.86   34.30 
   3   7   1  452.75   35.20 
  -3   7  -1  395.36   32.40 
   3   7   1  470.85   35.00 
  -4  -7  -1  219.98   21.80 
  -4  -7  -1  223.18   21.10 
   4  -7   1  227.28   18.10 
  -4  -7  -1  193.08   21.20 
   4   7   1  211.28   20.90 
  -4   7  -1  220.18   19.90 
   4   7   1  233.28   21.00 
  -5  -7  -1   47.80    9.70 
  -5  -7  -1   65.49   13.40 
  -5  -7  -1   54.89    9.30 
   5  -7   1   46.10    6.50 
  -5   7  -1   53.49    9.00 
   5   7   1   44.40   10.20 
  -6  -7  -1    8.00    4.50 
  -6  -7  -1    7.30    6.20 
  -6  -7  -1   13.70    6.90 
   6  -7   1   14.40    2.90 
  -6   7  -1   14.60    4.20 
   6   7   1   12.30    6.20 
  -7  -7  -1   92.29   22.60 
  -7  -7  -1  121.49   16.60 
   7   7   1  111.89   15.70 
  -7   7  -1  137.29   12.80 
  -6  -8   1   90.99   15.40 
  -6  -8   1  109.29   15.90 
   6  -8  -1   69.99    9.30 
  -6   8   1   97.09   12.10 
   5  -8  -1   59.79    9.50 
  -5  -8   1   58.39   12.40 
   5  -8  -1   86.19   10.20 
  -5  -8   1   72.99   12.20 
  -5  -8   1   66.69   12.10 
  -5   8   1   63.89    7.50 
   5   8  -1   81.69   11.60 
  -4  -8   1  130.29   21.40 
  -4  -8   1  164.28   17.70 
   4  -8  -1  121.89   14.30 
   4  -8  -1  118.69   13.70 
  -4  -8   1  138.89   16.80 
   4   8  -1  132.89   15.90 
  -4   8   1  145.89   12.00 
  -3  -8   1  153.88   16.50 
  -3  -8   1  127.19   16.80 
   3  -8  -1  150.18   16.10 
  -3  -8   1  164.98   18.40 
   3  -8  -1  134.59   12.70 
  -3  -8   1  185.58   18.70 
  -3   8   1  148.69   12.70 
   3   8  -1  159.78   16.40 
   3   8  -1  149.09   17.30 
  -3   8   1  169.88   17.10 
  -3   8   1  142.79   15.90 
  -2  -8   1  633.74   46.70 
   2  -8  -1  585.54   44.60 
  -2  -8   1  720.23   48.00 
   2  -8  -1  548.15   40.80 
  -2  -8   1  637.54   42.60 
  -2  -8   1  676.93   43.80 
   2   8  -1  588.84   45.10 
   2   8  -1  631.14   43.10 
  -2   8   1  640.24   45.30 
  -2   8   1  654.93   45.70 
  -2   8   1  616.04   40.30 
   2   8  -1  612.74   46.50 
  -1  -8   1  525.05   37.30 
  -1  -8   1  600.04   42.60 
  -1  -8   1  592.24   42.70 
   1  -8  -1  605.74   34.90 
   1  -8  -1  579.44   41.70 
  -1  -8   1  577.04   35.10 
  -1   8   1  500.65   36.40 
   1   8  -1  552.04   41.70 
  -1   8   1  522.75   40.90 
  -1   8   1  527.95   40.80 
   1   8  -1  535.25   39.20 
   1   8  -1  530.55   37.70 
   0  -8  -1  251.37   16.60 
   0  -8  -1  189.88   19.10 
   0  -8  -1  236.58   21.30 
   0  -8  -1  215.88   21.90 
   0  -8   1  236.88   17.40 
   0  -8  -1  215.58   16.90 
   0  -8   1  250.87   16.20 
   0  -8   1  243.78   22.30 
   0  -8   1  231.78   21.70 
   0   8  -1  226.88   18.50 
   0   8  -1  226.48   21.80 
   0   8   1  212.68   21.10 
   0   8  -1  220.78   18.80 
   0   8   1  219.88   21.70 
   0   8   1  220.98   18.60 
  -1  -8  -1   37.90   12.20 
  -1  -8  -1   22.40    5.80 
  -1  -8  -1   26.40    7.60 
   1  -8   1   37.60    8.70 
   1  -8   1   37.70    4.90 
   1  -8   1   36.40    4.50 
  -1  -8  -1   36.00    7.10 
  -1   8  -1   29.80    8.10 
   1   8   1   33.40    8.50 
  -1   8  -1   29.20    5.90 
   1   8   1   23.60    7.70 
   1   8   1   29.20    6.80 
  -1   8  -1   29.80    7.90 
  -2  -8  -1  200.28   19.50 
  -2  -8  -1  224.78   18.30 
   2  -8   1  197.28   18.20 
  -2  -8  -1  151.18   16.90 
  -2  -8  -1  185.88   19.90 
   2   8   1  177.28   19.50 
   2   8   1  193.08   19.60 
  -2   8  -1  169.88   14.30 
   2   8   1  159.98   16.70 
  -2   8  -1  184.98   19.00 
  -3  -8  -1  307.27   25.70 
  -3  -8  -1  311.17   27.70 
  -3  -8  -1  275.67   24.90 
  -3  -8  -1  287.67   26.30 
   3  -8   1  292.87   24.30 
  -3   8  -1  302.37   29.50 
   3   8   1  265.47   24.00 
   3   8   1  287.47   26.60 
  -4  -8  -1  249.88   23.50 
  -4  -8  -1  220.78   22.10 
   4  -8   1  194.08   18.10 
  -4  -8  -1  240.88   21.70 
   4   8   1  175.68   19.90 
  -4   8  -1  206.98   19.80 
   4   8   1  204.78   22.00 
  -5  -8  -1   10.10    6.00 
   5  -8   1   10.70    3.80 
  -5  -8  -1   -0.60    4.00 
  -5   8  -1    3.00    4.00 
   5   8   1   15.30    6.00 
   6  -8   1   61.09    8.50 
  -6  -8  -1  101.59   13.80 
  -6  -8  -1   81.89   15.60 
   6   8   1   79.29   15.30 
  -5  -9   1   16.00    7.70 
  -5  -9   1   11.50    6.60 
  -4  -9   1   51.29   12.80 
  -4  -9   1   79.49   12.60 
   4  -9  -1   64.29    9.90 
  -4  -9   1   91.99   15.70 
   4  -9  -1   87.19   13.10 
  -4   9   1   96.99    9.30 
   4   9  -1   83.69   12.50 
   3  -9  -1  260.37   20.40 
   3  -9  -1  257.77   24.20 
  -3  -9   1  314.27   25.40 
  -3  -9   1  275.97   27.00 
  -3  -9   1  252.67   28.60 
  -3   9   1  264.57   20.50 
   3   9  -1  282.47   24.50 
  -2  -9   1  201.38   21.40 
  -2  -9   1  198.68   19.50 
   2  -9  -1  201.48   16.20 
  -2  -9   1  217.88   22.30 
   2  -9  -1  205.08   21.10 
  -2  -9   1  202.98   20.90 
  -2   9   1  214.38   17.40 
  -2   9   1  205.78   21.50 
   2   9  -1  186.88   22.40 
   2   9  -1  194.88   19.10 
  -2   9   1  212.98   21.10 
  -1  -9   1    9.50    5.70 
  -1  -9   1   21.30    6.70 
  -1  -9   1   17.60    6.70 
   1  -9  -1    9.30    6.60 
  -1   9   1   16.90    6.40 
   1   9  -1   16.90    7.00 
  -1   9   1   16.50    4.80 
  -1   9   1    4.60    5.20 
   1   9  -1   12.90    6.10 
   0  -9   1   44.70    9.60 
   0  -9  -1   47.50   10.70 
   0  -9   1   46.70    5.80 
   0  -9  -1   41.80    6.30 
   0  -9   1   41.00    6.60 
   0  -9  -1   43.80    6.90 
   0   9  -1   40.00    8.70 
   0   9  -1   33.20    7.00 
   0   9   1   30.30    7.80 
   0   9   1   38.60   11.60 
   0   9   1   50.09    7.50 
   1  -9   1   52.09   10.70 
  -1  -9  -1   37.00   10.70 
  -1  -9  -1   50.79    8.60 
  -1  -9  -1   40.90    8.20 
   1   9   1   50.69    9.50 
   1   9   1   56.79   11.60 
  -1   9  -1   34.60    8.60 
  -1   9  -1   52.69    7.90 
   1   9   1   43.30   10.40 
  -2  -9  -1  102.39   16.20 
  -2  -9  -1  117.49   12.90 
  -2  -9  -1   90.39   13.50 
  -2  -9  -1  119.89   15.70 
   2  -9   1  108.89   13.80 
   2   9   1  122.19   15.50 
  -2   9  -1  113.19   15.10 
   2   9   1  103.39   13.30 
  -3  -9  -1   27.00   11.30 
   3  -9   1   16.10    6.20 
  -3  -9  -1    6.50    7.70 
   3   9   1   16.70    6.00 
  -3   9  -1   10.90    6.20 
  -4  -9  -1   97.99   15.70 
  -4  -9  -1   85.09   15.80 
   4  -9   1   98.29   13.10 
  -4  -9  -1   98.39   13.60 
   4   9   1   70.99   13.00 
  -4   9  -1   65.89   12.90 
  -5  -9  -1   43.40   11.40 
   5   9   1   56.39   12.90 
   3  10  -1   48.40   11.60 
  -2 -10   1   34.70    9.60 
   2 -10  -1   54.79   12.10 
  -2 -10   1   59.99   12.10 
   2  10  -1   43.40    9.70 
  -2  10   1   41.90    8.20 
  -1 -10   1   71.49   13.00 
  -1 -10   1   94.09   11.50 
   1 -10  -1   83.79   15.20 
  -1 -10   1   81.79   16.30 
   1  10  -1   90.39   15.30 
   1  10  -1   82.99   11.90 
   0 -10   1   67.79   10.30 
   0 -10  -1   53.59   13.10 
   0 -10   1   75.59    7.80 
   0 -10   1   37.80   10.80 
   0  10  -1   63.39    9.70 
   0  10  -1   68.09   18.40 
   0  10   1   66.49   10.30 
  -1 -10  -1   43.90    8.20 
  -1 -10  -1   77.09   14.90 
  -1 -10  -1   40.70    8.90 
   1 -10   1   37.90   11.10 
  -1  10  -1   63.89    9.30 
   1  10   1   51.39   10.00 
  -2 -10  -1   11.80    8.10 
   2 -10   1   11.40    6.30 
  -2 -10  -1    7.10    6.10 
  -2 -10  -1   21.50    8.30 
   2  10   1    5.70    4.80 
 -10   0   2  139.59   15.70 
 -10   0   2  152.98   20.00 
  -9   0   2   24.40    9.30 
  -9   0   2   37.00    8.00 
  -8   0   2    1.90    3.50 
  -8   0   2    5.10    4.50 
  -7   0   2  243.68   23.80 
  -7   0   2  294.77   15.90 
  -7   0   2  269.37   22.30 
  -7   0   2  264.97   16.40 
  -7   0   2  220.58   20.20 
  -7   0   2  270.87   23.70 
  -6   0   2  621.84   44.30 
  -6   0   2  790.02   40.50 
  -6   0   2  663.63   47.40 
  -6   0   2  687.63   46.30 
  -6   0   2  737.23   41.40 
  -6   0   2  665.63   48.00 
  -5   0   2  119.69   11.60 
  -5   0   2  124.29    8.80 
  -5   0   2  113.69   12.50 
  -5   0   2  106.79   12.00 
  -5   0   2  108.09   10.50 
  -5   0   2  139.69    8.20 
  -4   0   2  521.95   36.40 
   4   0  -2  565.94   32.30 
   4   0  -2  512.35   37.40 
  -4   0   2  605.24   34.40 
  -4   0   2  536.55   35.60 
  -1   0   2 2022.70  110.99 
   1   0  -2 1785.92  110.49 
  -1   0   2 1886.11  110.49 
   1   0  -2 2016.50  110.29 
   1   0  -2 1965.20  111.09 
  -1   0   2 2042.90  110.29 
   0   0   2  159.88   11.40 
   0   0   2  207.28   11.10 
   0   0  -2  197.18   11.20 
  -2   0  -2 3224.48  185.78 
   2   0   2 3210.68  185.98 
  -2   0  -2 3414.96  187.48 
   2   0   2 3228.88  187.68 
   2   0   2 3339.17  185.18 
   3   0   2  750.02   46.70 
   3   0   2  761.02   42.90 
   3   0   2  721.93   44.50 
  -3   0  -2  785.92   42.50 
  -3   0  -2  729.43   44.10 
  -3   0  -2  635.84   51.19 
  -4   0  -2  163.58   14.60 
   4   0   2  178.28   13.80 
  -4   0  -2  188.98   11.10 
   4   0   2  164.08   15.50 
   4   0   2  172.18   11.20 
  -4   0  -2  160.38   13.00 
  -5   0  -2  364.36   22.90 
  -5   0  -2  379.86   22.00 
   5   0   2  346.77   28.50 
   5   0   2  359.26   25.90 
  -5   0  -2  389.36   27.90 
  -5   0  -2  361.96   25.30 
  -6   0  -2   23.40    2.60 
   6   0   2   22.70    7.40 
   6   0   2   21.70    5.90 
  -6   0  -2   27.50    7.40 
  -6   0  -2   22.20    3.50 
  -6   0  -2   17.70    6.30 
  -6   0  -2   21.90    5.70 
  -7   0  -2  438.86   25.40 
  -7   0  -2  391.36   34.00 
  -7   0  -2  410.36   29.60 
  -7   0  -2  389.26   24.00 
   7   0   2  423.06   30.90 
  -8   0  -2  164.18   19.70 
   8   0   2  163.38   16.90 
  -9   0  -2    3.90    5.10 
  -9   0  -2    4.40    4.00 
 -10  -1   2   -2.80    4.00 
 -10   1   2    6.40    4.60 
 -10   1   2   -2.80    5.90 
  -9  -1   2  295.57   30.40 
  -9  -1   2  313.97   26.20 
  -9  -1   2  348.67   19.50 
  -9   1   2  296.97   29.40 
  -9   1   2  325.17   26.00 
  -8  -1   2  413.36   23.90 
  -8  -1   2  373.56   24.60 
  -8  -1   2  333.97   28.50 
  -8  -1   2  391.46   34.20 
  -8   1   2  401.06   33.10 
  -8   1   2  394.16   29.00 
  -8   1   2  421.16   36.60 
  -7  -1   2  998.00   68.39 
  -7  -1   2 1108.29   60.09 
  -7  -1   2 1056.79   60.99 
  -7  -1   2  905.91   63.79 
  -7  -1   2  999.60   65.99 
  -7  -1   2  983.40   68.89 
  -7   1   2  997.90   63.69 
   7   1  -2 1128.19   67.39 
  -7   1   2 1008.30   67.69 
  -7   1   2 1030.90   66.69 
  -7   1   2 1045.80   65.99 
  -6  -1   2  459.95   36.90 
  -6  -1   2  485.45   37.70 
  -6  -1   2  544.45   32.20 
  -6  -1   2  506.25   35.70 
  -6  -1   2  557.14   31.40 
   6   1  -2  562.94   36.60 
  -6   1   2  498.45   36.60 
  -6   1   2  508.45   35.30 
  -6   1   2  455.15   33.40 
  -6   1   2  491.85   35.70 
  -5  -1   2  409.96   25.50 
  -5  -1   2  420.36   24.90 
  -5  -1   2  381.76   27.90 
  -5  -1   2  361.66   29.10 
  -5  -1   2  365.96   29.40 
   5   1  -2  411.96   24.80 
  -5   1   2  352.76   28.00 
  -5   1   2  456.65   23.10 
  -5   1   2  379.76   26.40 
  -5   1   2  360.46   27.50 
   5   1  -2  402.96   28.30 
  -5   1   2  386.26   27.60 
  -4  -1   2 2643.84  155.98 
  -4  -1   2 2845.92  153.98 
  -4  -1   2 2844.82  153.48 
  -4   1   2 2612.54  155.98 
   4   1  -2 2612.34  158.08 
   4   1  -2 2847.62  156.38 
  -4   1   2 2521.25  154.18 
   4   1  -2 2782.02  153.68 
  -4   1   2 2509.35  155.48 
  -4   1   2 2704.93  155.68 
  -3  -1   2 2955.90  174.18 
   3  -1  -2 3249.27  170.98 
   3  -1  -2 3026.80  174.08 
  -3  -1   2 3180.38  172.68 
   3  -1  -2 2605.64  172.58 
  -3  -1   2 3018.90  175.58 
   3   1  -2 2999.80  175.88 
   3   1  -2 3166.38  174.48 
   3   1  -2 3264.17  173.08 
  -3   1   2 2925.61  172.78 
  -3   1   2 3039.80  173.88 
   2  -1  -2  344.57   19.20 
   2  -1  -2  331.27   20.60 
   2  -1  -2  298.67   20.10 
  -2  -1   2  311.97   20.90 
  -2  -1   2  337.67   20.30 
   2   1  -2  325.97   22.00 
   2   1  -2  334.37   20.50 
  -2   1   2  318.87   20.30 
  -2   1   2  323.77   19.40 
   2   1  -2  334.77   21.10 
  -2   1   2  315.17   20.00 
   2  -1   2 7044.00  387.86 
  -2  -1  -2 7019.80  386.46 
  -2  -1  -2 6723.93  388.36 
  -2  -1  -2 6839.92  386.86 
   2   1   2 6217.88  388.36 
   2   1   2 6778.42  386.66 
  -2   1  -2 7430.06  387.36 
   3  -1   2 3548.84  202.48 
   3  -1   2 3561.14  200.18 
  -3  -1  -2 3662.73  199.68 
  -3  -1  -2 3429.16  202.78 
  -3  -1  -2 3432.26  200.68 
   3   1   2 3491.75  201.28 
  -3   1  -2 3242.48  199.58 
  -3   1  -2 3628.44  198.48 
  -3   1  -2 3928.81  201.98 
   3   1   2 3354.26  203.28 
   3   1   2 3485.25  199.98 
  -4  -1  -2 1039.60   60.09 
  -4  -1  -2  975.20   63.39 
  -4  -1  -2 1045.50   59.29 
   4  -1   2  966.70   63.19 
   4  -1   2 1059.19   60.89 
  -4  -1  -2  934.91   60.89 
  -4   1  -2 1137.29   62.79 
   4   1   2  977.20   64.19 
   4   1   2 1027.40   59.69 
   4   1   2  989.50   61.79 
  -4   1  -2  969.20   60.19 
  -4   1  -2 1035.70   57.89 
  -5  -1  -2 2672.73  152.88 
  -5  -1  -2 2517.45  149.39 
   5  -1   2 2835.22  149.79 
  -5  -1  -2 2667.23  146.59 
  -5  -1  -2 2786.12  147.99 
   5  -1   2 2489.85  152.48 
  -5  -1  -2 2505.15  153.98 
   5   1   2 2209.48  148.69 
  -5   1  -2 2476.65  148.49 
  -5   1  -2 2773.82  151.48 
   5   1   2 2482.85  153.58 
   5   1   2 2575.64  150.48 
  -5   1  -2 2441.36  145.39 
  -6  -1  -2 1113.39   62.49 
   6  -1   2 1012.40   69.69 
  -6  -1  -2 1135.29   70.09 
  -6  -1  -2 1043.30   66.19 
   6  -1   2 1138.79   66.69 
  -6  -1  -2 1063.59   63.79 
  -6  -1  -2 1005.20   70.79 
  -6   1  -2 1100.89   68.19 
  -6   1  -2 1106.99   61.19 
   6   1   2 1052.59   67.39 
  -6   1  -2 1026.90   60.69 
  -6   1  -2 1013.70   65.29 
  -7  -1  -2   81.49    6.50 
  -7  -1  -2   75.49   12.10 
  -7  -1  -2   89.59    7.90 
  -7  -1  -2   81.79   10.20 
  -7   1  -2   55.89   12.00 
  -7   1  -2   91.59   13.60 
  -7   1  -2   85.99   10.80 
   7   1   2   77.19   10.70 
  -7   1  -2   64.69    8.60 
  -8  -1  -2    9.30    2.10 
  -8  -1  -2    8.00    2.40 
  -8  -1  -2    8.00    5.10 
  -8   1  -2    5.50    4.80 
   8   1   2   12.10    5.00 
  -8   1  -2   10.30    4.40 
  -9  -1  -2   33.80    2.90 
  -9  -1  -2   19.40    7.30 
  -9  -1  -2   34.40    3.70 
   9   1   2   27.70    8.20 
  -9   1  -2   27.20    9.00 
 -10  -2   2  181.88   12.30 
 -10  -2   2  182.48   18.40 
 -10  -2   2  184.38   12.80 
 -10   2   2  157.38   16.50 
 -10   2   2  188.98   21.50 
  -9  -2   2  213.48   14.90 
  -9  -2   2  190.98   23.30 
  -9  -2   2  205.38   19.90 
  -9  -2   2  217.68   15.70 
  -9   2   2  197.58   21.80 
  -9   2   2  204.48   19.00 
  -8  -2   2  126.99   17.10 
  -8  -2   2  119.39   11.30 
  -8  -2   2  125.49   10.60 
   8   2  -2  135.29   15.60 
  -8   2   2  116.29   15.30 
  -8   2   2  142.19   14.80 
  -7  -2   2  636.64   43.10 
  -7  -2   2  673.43   41.30 
  -7  -2   2  603.24   47.60 
  -7   2   2  630.44   43.90 
  -7   2   2  633.64   41.90 
  -7   2   2  648.74   45.30 
  -7   2   2  648.34   43.90 
   7   2  -2  645.24   49.50 
  -6  -2   2  479.45   31.20 
  -6  -2   2  497.05   36.90 
  -6  -2   2  418.16   35.20 
  -6  -2   2  488.15   33.80 
  -6  -2   2  501.15   30.60 
  -6   2   2  461.55   32.50 
  -6   2   2  451.35   32.70 
  -6   2   2  443.46   33.20 
   6   2  -2  499.15   30.20 
   6   2  -2  468.75   33.90 
  -6   2   2  431.86   30.90 
  -5  -2   2 1528.45   88.09 
  -5  -2   2 1455.65   89.69 
  -5  -2   2 1434.06   92.19 
  -5  -2   2 1565.74   87.39 
  -5  -2   2 1334.97   91.49 
   5   2  -2 1531.25   87.39 
   5   2  -2 1467.25   92.89 
   5   2  -2 1471.25   89.89 
  -5   2   2 1588.54   84.79 
  -5   2   2 1466.75   87.19 
  -5   2   2 1541.25   89.29 
  -5   2   2 1426.66   88.99 
  -5   2   2 1434.86   88.29 
  -4  -2   2  510.85   35.90 
   4  -2  -2  501.85   29.90 
  -4  -2   2  546.55   33.20 
  -4  -2   2  523.65   32.50 
   4  -2  -2  545.75   29.40 
  -4  -2   2  510.35   33.90 
   4   2  -2  531.35   32.90 
  -4   2   2  476.25   32.30 
   4   2  -2  527.65   34.30 
   4   2  -2  507.75   36.20 
  -4   2   2  454.25   32.70 
  -4   2   2  484.75   32.80 
  -4   2   2  531.95   30.60 
   3  -2  -2 4591.64  286.37 
  -3  -2   2 5254.47  287.57 
   3  -2  -2 5418.16  284.97 
  -3  -2   2 4817.12  288.07 
   3  -2  -2 5174.48  285.97 
  -3  -2   2 5401.16  288.07 
  -3  -2   2 5024.20  290.07 
  -3   2   2 4728.73  286.27 
  -3   2   2 4982.20  286.07 
   3   2  -2 4847.61  290.27 
   3   2  -2 4967.20  288.17 
  -3   2   2 5422.26  286.07 
  -3   2   2 4967.40  286.57 
   3   2  -2 5375.06  288.07 
  -2  -2   2  393.46   25.20 
  -2  -2   2  369.66   24.90 
   2  -2  -2  381.56   24.30 
   2  -2  -2  401.86   23.70 
   2  -2  -2  381.46   24.00 
   2   2  -2  413.06   25.60 
  -2   2   2  399.76   24.30 
   2   2  -2  364.86   24.90 
  -2   2   2  419.06   23.70 
   0   2   2 8475.75  476.35 
   1  -2   2 2709.33  131.29 
  -1  -2  -2 2401.76  132.59 
  -1  -2  -2 2280.17  131.09 
  -1  -2  -2 2352.96  132.19 
  -1  -2  -2 2175.68  132.19 
   1   2   2 2175.78  131.39 
  -1   2  -2 2295.77  131.69 
   1   2   2 2049.20  132.19 
  -2  -2  -2   96.79    9.50 
  -2  -2  -2  112.39    8.80 
   2  -2   2  106.29    7.30 
   2  -2   2  108.39    8.70 
  -2  -2  -2  109.69    8.60 
  -2  -2  -2  121.09    9.40 
   2   2   2   90.09    8.50 
  -2   2  -2  103.19    7.90 
   2   2   2   80.29    9.20 
  -2   2  -2  110.09    8.00 
  -3  -2  -2 1179.48   70.49 
   3  -2   2 1194.68   67.09 
  -3  -2  -2 1181.18   69.89 
  -3  -2  -2 1080.29   71.59 
  -3  -2  -2 1211.18   69.69 
   3  -2   2 1222.38   68.19 
   3  -2   2 1146.99   70.49 
   3   2   2 1134.49   69.89 
   3   2   2 1173.88   72.09 
   3   2   2 1068.69   72.59 
  -3   2  -2 1182.48   68.19 
  -3   2  -2 1338.17   69.79 
   4  -2   2  335.67   25.40 
   4  -2   2  357.76   20.20 
  -4  -2  -2  328.97   26.90 
  -4  -2  -2  390.06   23.40 
  -4  -2  -2  387.36   24.20 
  -4  -2  -2  346.57   24.00 
   4  -2   2  363.06   20.70 
  -4  -2  -2  337.77   26.10 
  -4   2  -2  303.37   21.70 
   4   2   2  325.97   24.60 
  -4   2  -2  394.16   24.30 
   4   2   2  331.37   23.30 
  -4   2  -2  336.77   21.40 
  -4   2  -2  315.37   22.20 
  -5  -2  -2  557.64   39.60 
  -5  -2  -2  549.74   36.70 
  -5  -2  -2  613.54   36.40 
  -5  -2  -2  507.95   40.20 
  -5  -2  -2  577.14   35.00 
   5  -2   2  524.85   38.50 
  -5   2  -2  534.45   35.00 
  -5   2  -2  504.45   34.30 
   5   2   2  576.94   35.40 
  -5   2  -2  577.24   32.90 
   5   2   2  564.84   38.00 
  -6  -2  -2  470.95   37.30 
  -6  -2  -2  460.85   38.60 
   6  -2   2  501.45   37.40 
  -6  -2  -2  480.25   34.40 
  -6  -2  -2  540.05   33.60 
  -6  -2  -2  553.64   32.20 
  -6   2  -2  559.24   35.70 
  -6   2  -2  461.55   32.80 
   6   2   2  488.35   35.70 
  -6   2  -2  475.15   32.30 
   7  -2   2  336.27   30.40 
  -7  -2  -2  389.96   26.10 
  -7  -2  -2  379.06   33.20 
  -7  -2  -2  386.56   24.40 
  -7   2  -2  361.76   25.70 
  -7   2  -2  338.67   30.40 
   7   2   2  368.86   31.60 
  -7   2  -2  334.87   26.00 
  -7   2  -2  406.86   28.90 
  -8  -2  -2  180.88   12.70 
  -8  -2  -2  171.78   14.00 
  -8  -2  -2  178.28   20.90 
  -8   2  -2  155.88   19.20 
  -8   2  -2  143.89   14.30 
  -8   2  -2  160.08   15.30 
   8   2   2  154.48   17.40 
  -9  -2  -2    0.00    2.10 
  -9  -2  -2    3.30    1.40 
   9   2   2    3.50    3.80 
  -9   2  -2    2.80    3.20 
  -9   2  -2   -2.00    3.70 
  -9  -3   2  227.78   26.70 
  -9  -3   2  250.97   19.80 
  -9  -3   2  244.08   18.70 
  -9   3   2  237.28   26.70 
   9   3  -2  249.28   24.50 
  -9   3   2  267.07   21.10 
  -8  -3   2  195.48   16.20 
  -8  -3   2  157.78   20.60 
  -8  -3   2  168.08   14.90 
  -8   3   2  152.58   17.60 
   8   3  -2  195.38   20.00 
  -8   3   2  219.58   17.80 
  -7  -3   2  231.78   24.70 
  -7  -3   2  266.57   20.70 
  -7  -3   2  261.17   19.90 
  -7   3   2  265.07   22.20 
   7   3  -2  265.07   23.20 
  -7   3   2  257.07   20.60 
  -7   3   2  234.88   21.10 
  -7   3   2  278.37   20.10 
  -6  -3   2  162.88   18.40 
  -6  -3   2  199.28   15.40 
  -6  -3   2  177.08   15.40 
  -6  -3   2  158.98   16.10 
  -6  -3   2  147.49   18.10 
   6   3  -2  172.18   17.00 
  -6   3   2  175.58   14.70 
  -6   3   2  182.38   16.00 
   6   3  -2  176.68   14.70 
  -6   3   2  176.38   14.60 
  -6   3   2  165.68   15.40 
  -6   3   2  198.68   12.10 
  -5  -3   2   51.49    7.30 
  -5  -3   2   54.29    7.70 
  -5  -3   2   67.79    7.60 
  -5  -3   2   44.40    9.40 
   5   3  -2   66.09   10.00 
  -5   3   2   50.39    7.40 
   5   3  -2   52.19    7.10 
   5   3  -2   69.39    8.90 
  -5   3   2   63.79    5.70 
  -5   3   2   63.89    6.80 
  -5   3   2   54.39    7.00 
  -5   3   2   52.99    7.00 
  -4  -3   2  418.66   29.70 
   4  -3  -2  420.36   26.90 
   4  -3  -2  376.96   27.60 
  -4  -3   2  478.75   29.90 
  -4  -3   2  448.66   30.10 
   4  -3  -2  450.35   25.90 
  -4  -3   2  415.46   31.90 
   4   3  -2  442.86   32.90 
  -4   3   2  448.76   27.60 
  -4   3   2  455.25   27.30 
   4   3  -2  425.36   30.10 
  -4   3   2  416.76   27.70 
   4   3  -2  468.65   30.00 
  -4   3   2  441.56   27.30 
   3  -3  -2 4498.95  250.87 
   3  -3  -2 4422.16  251.97 
  -3  -3   2 4373.66  255.57 
  -3  -3   2 4594.34  254.27 
  -3  -3   2 4067.29  252.87 
   3   3  -2 4523.35  254.17 
   3   3  -2 4216.48  253.37 
  -3   3   2 4541.15  252.07 
  -3   3   2 4875.91  250.77 
   3   3  -2 4269.07  255.97 
  -2  -3   2   98.59    9.20 
   2  -3  -2   98.29    7.90 
  -2  -3   2   87.29    8.10 
   2  -3  -2  100.59    7.70 
  -2  -3   2   95.69    9.70 
   2  -3  -2   94.59    8.50 
  -2  -3   2  108.59    9.60 
   2   3  -2   96.29    9.30 
   2   3  -2   86.99    8.30 
  -2   3   2   95.99    8.40 
   2   3  -2   85.89   11.00 
  -1  -3   2 4659.43  254.47 
   1  -3  -2 4320.47  253.97 
   1  -3  -2 4465.45  253.57 
  -1  -3   2 4193.08  252.27 
  -1  -3   2 4708.83  254.07 
  -1  -3   2 4629.94  254.77 
   1   3  -2 4655.43  254.87 
  -1   3   2 4614.14  254.17 
   1   3  -2 4228.48  254.17 
   1   3  -2 4190.98  252.57 
   0  -3   2  718.43   46.80 
   0  -3  -2  806.72   48.50 
   0  -3  -2  739.13   46.60 
   0  -3  -2  793.72   48.90 
   0  -3  -2  813.82   46.30 
   0  -3   2  772.62   48.60 
   0  -3   2  816.22   48.40 
   0  -3  -2  728.63   46.90 
   0   3  -2  820.32   48.90 
   0   3   2  831.02   46.90 
   0   3   2  897.41   49.20 
   0   3  -2  817.42   47.80 
  -1  -3  -2 1376.76   83.49 
   1  -3   2 1470.55   83.89 
  -1  -3  -2 1571.84   84.99 
  -1  -3  -2 1539.95   84.49 
  -1  -3  -2 1375.16   84.09 
   1   3   2 1460.65   84.59 
   1   3   2 1366.56   82.79 
  -1   3  -2 1299.97   82.19 
  -1   3  -2 1385.96   83.69 
  -2  -3  -2 3292.87  185.68 
   2  -3   2 3260.87  184.98 
   2  -3   2 3280.67  185.98 
  -2  -3  -2 3397.66  186.98 
  -2  -3  -2 3116.59  188.18 
  -2  -3  -2 2897.11  187.48 
   2  -3   2 3344.77  185.28 
  -2  -3  -2 3467.75  187.78 
  -2   3  -2 3320.17  186.08 
   2   3   2 3129.99  187.68 
   2   3   2 3284.67  187.38 
   3  -3   2  221.28   13.70 
   3  -3   2  212.88   14.80 
  -3  -3  -2  217.98   15.80 
   3  -3   2  212.28   15.70 
  -3  -3  -2  200.78   18.10 
  -3  -3  -2  210.98   16.70 
  -3  -3  -2  216.98   16.10 
  -3  -3  -2  191.88   17.10 
  -3   3  -2  200.78   14.80 
   3   3   2  191.88   16.10 
  -4  -3  -2  988.20   68.09 
  -4  -3  -2 1055.29   65.19 
  -4  -3  -2 1061.49   64.39 
   4  -3   2 1070.99   61.79 
  -4  -3  -2  969.60   66.89 
   4   3   2 1089.09   64.99 
  -4   3  -2 1036.70   62.49 
  -4   3  -2 1208.98   63.59 
   4   3   2 1013.60   65.49 
  -5  -3  -2  980.10   61.49 
  -5  -3  -2 1110.99   63.29 
   5  -3   2  942.91   63.59 
  -5  -3  -2 1027.50   66.49 
  -5  -3  -2  971.10   67.09 
  -5  -3  -2  990.80   66.39 
   5   3   2 1009.20   61.99 
  -5   3  -2 1032.70   59.29 
  -5   3  -2 1151.48   61.99 
  -5   3  -2  834.12   60.99 
   5   3   2 1002.50   64.09 
  -6  -3  -2  154.18   18.30 
  -6  -3  -2  133.09   13.80 
  -6  -3  -2  157.48   13.30 
   6  -3   2  153.08   16.30 
  -6   3  -2  157.98   10.70 
   6   3   2  146.19   15.40 
  -6   3  -2  151.58   12.90 
  -6   3  -2  187.58   15.10 
   6   3   2  171.98   13.70 
  -6   3  -2  138.69   12.30 
   7  -3   2   34.60    9.20 
  -7  -3  -2   30.60    5.60 
  -7  -3  -2   38.90    7.30 
  -7  -3  -2   52.09   12.50 
  -7   3  -2   37.80    7.00 
  -7   3  -2   37.30    7.00 
  -7   3  -2   57.09    8.60 
   7   3   2   54.19   11.70 
  -8  -3  -2  116.39   17.70 
  -8  -3  -2  107.09   11.60 
  -8  -3  -2  131.09   11.30 
   8   3   2  117.79   15.20 
  -8   3  -2   96.69   14.70 
  -8   3  -2  113.19   12.50 
  -8   3  -2  114.59   11.50 
  -9  -3  -2   86.69   10.90 
  -9  -3  -2  107.99   16.90 
  -9  -3  -2  113.79   10.30 
  -9   3  -2   89.19   14.30 
  -9   3  -2  109.89   11.70 
  -9  -4   2   97.59   11.20 
  -9  -4   2  103.09   11.20 
  -9  -4   2   88.49   17.70 
  -9   4   2  107.79   13.40 
  -9   4   2  103.69   12.40 
   9   4  -2   92.79   14.60 
  -9   4   2   94.59   11.30 
  -8  -4   2   81.19    9.80 
  -8  -4   2   61.79   13.90 
  -8  -4   2   83.09   10.80 
  -8   4   2   81.59   11.10 
  -8   4   2   81.69   10.20 
   8   4  -2   81.59   12.80 
  -8   4   2   97.79   11.10 
  -7  -4   2  400.66   30.70 
  -7  -4   2  404.96   30.10 
  -7  -4   2  389.56   35.40 
  -7   4   2  377.86   29.80 
   7   4  -2  410.26   33.20 
  -7   4   2  411.96   30.80 
  -7   4   2  432.26   28.20 
  -7   4   2  470.65   29.00 
  -6  -4   2   41.40    7.90 
  -6  -4   2   33.90    6.60 
  -6  -4   2   39.20    9.80 
  -6   4   2   29.50    5.80 
  -6   4   2   34.70    4.40 
   6   4  -2   33.60    8.50 
  -6   4   2   42.50    6.30 
  -6   4   2   32.70    7.30 
  -6   4   2   36.00    5.40 
   5  -4  -2 1878.01  112.19 
  -5  -4   2 2148.78  117.99 
  -5  -4   2 1893.71  120.99 
  -5  -4   2 1981.10  118.19 
  -5  -4   2 1929.81  117.49 
   5  -4  -2 2004.80  112.79 
   5  -4  -2 1697.43  114.29 
  -5   4   2 2162.48  113.69 
  -5   4   2 1790.42  113.99 
  -5   4   2 2146.89  113.19 
   5   4  -2 1903.61  118.29 
   5   4  -2 2001.20  117.69 
  -5   4   2 2040.80  114.59 
  -4  -4   2  127.59   12.40 
   4  -4  -2  116.09   10.50 
  -4  -4   2  118.59   13.70 
  -4  -4   2  123.69   12.60 
  -4  -4   2  110.99   11.60 
   4  -4  -2  135.39   10.60 
   4  -4  -2  129.09    9.50 
   4   4  -2  131.29   14.50 
   4   4  -2  125.69   12.50 
  -4   4   2  129.99    9.60 
   4   4  -2  126.39   12.40 
  -4   4   2  112.09   10.50 
  -3  -4   2  819.62   51.99 
  -3  -4   2  874.51   54.19 
  -3  -4   2  912.21   53.89 
   3  -4  -2  799.62   50.29 
   3  -4  -2  828.62   50.59 
   3  -4  -2  861.31   51.89 
  -3  -4   2  834.22   54.69 
  -3   4   2  885.41   52.19 
   3   4  -2  885.51   54.19 
   3   4  -2  815.02   52.69 
   3   4  -2  770.02   54.79 
  -2  -4   2  873.11   57.09 
   2  -4  -2  862.51   52.19 
   2  -4  -2  744.33   52.29 
   2  -4  -2  834.62   50.29 
  -2  -4   2  885.81   54.39 
  -2  -4   2  780.22   51.39 
  -2  -4   2  885.41   53.89 
  -2   4   2  963.10   53.49 
   2   4  -2  853.21   52.39 
   2   4  -2  783.62   56.09 
   2   4  -2  815.42   54.39 
  -2   4   2  955.90   50.19 
  -1  -4   2 5272.07  300.57 
  -1  -4   2 5051.29  297.57 
   1  -4  -2 5790.62  296.97 
  -1  -4   2 5383.56  299.57 
  -1  -4   2 5443.56  301.37 
   1  -4  -2 5263.77  299.87 
   1   4  -2 4853.11  300.07 
   1   4  -2 5272.37  301.17 
  -1   4   2 5342.77  297.47 
  -1   4   2 5334.77  300.27 
   1   4  -2 4846.42  298.17 
  -1   4   2 5362.36  300.57 
   0  -4  -2  658.43   42.70 
   0  -4  -2  634.34   39.70 
   0  -4   2  622.44   40.00 
   0  -4   2  663.33   42.00 
   0  -4  -2  658.53   40.10 
   0  -4   2  650.53   38.50 
   0  -4  -2  673.13   39.20 
   0  -4   2  728.63   43.10 
   0  -4  -2  702.93   42.30 
   0   4   2  621.14   39.90 
   0   4   2  676.03   42.70 
   0   4   2  678.53   42.40 
   0   4  -2  653.13   41.10 
   0   4  -2  619.74   39.30 
   0   4  -2  693.43   42.80 
  -1  -4  -2  615.34   40.30 
  -1  -4  -2  663.73   41.10 
  -1  -4  -2  639.54   38.50 
  -1  -4  -2  627.94   41.50 
  -1  -4  -2  599.64   39.70 
   1  -4   2  666.63   40.90 
   1   4   2  668.13   41.70 
  -1   4  -2  649.83   38.90 
  -1   4  -2  619.04   40.60 
   1   4   2  595.24   39.20 
  -2  -4  -2  227.38   19.30 
  -2  -4  -2  242.98   20.20 
   2  -4   2  262.57   17.50 
   2  -4   2  277.77   18.50 
   2  -4   2  264.67   19.00 
  -2  -4  -2  268.37   20.50 
  -2  -4  -2  267.37   19.90 
  -2  -4  -2  258.87   18.10 
  -2   4  -2  265.17   19.20 
   2   4   2  256.67   20.20 
   2   4   2  256.17   19.00 
  -2   4  -2  244.08   17.60 
  -3  -4  -2  779.82   47.70 
   3  -4   2  796.72   47.50 
  -3  -4  -2  758.92   48.80 
   3  -4   2  805.02   46.20 
  -3  -4  -2  809.22   50.09 
  -3  -4  -2  726.93   50.69 
  -3  -4  -2  692.33   49.50 
   3  -4   2  740.73   46.90 
   3   4   2  699.93   48.30 
  -3   4  -2  789.52   47.70 
   3   4   2  805.52   49.80 
   4  -4   2  272.77   18.00 
  -4  -4  -2  290.37   21.80 
  -4  -4  -2  283.17   24.70 
   4  -4   2  244.48   22.80 
   4  -4   2  285.77   19.60 
  -4  -4  -2  293.37   22.60 
  -4  -4  -2  241.98   23.00 
  -4  -4  -2  313.67   23.10 
  -4   4  -2  334.27   19.50 
  -4   4  -2  278.67   20.20 
   4   4   2  283.17   22.50 
   5  -4   2  435.46   26.30 
   5  -4   2  420.76   31.80 
  -5  -4  -2  422.46   34.30 
  -5  -4  -2  492.65   32.00 
  -5  -4  -2  413.66   35.20 
   5  -4   2  451.95   27.30 
  -5  -4  -2  443.26   32.40 
  -5  -4  -2  450.85   31.50 
   5   4   2  479.55   32.20 
   5   4   2  432.36   32.90 
  -5   4  -2  519.05   29.70 
  -5   4  -2  369.76   33.20 
  -6  -4  -2  126.99   13.60 
  -6  -4  -2  126.89   16.90 
  -6  -4  -2  133.99   13.30 
   6  -4   2  106.29   13.80 
  -6   4  -2  134.09   10.60 
  -6   4  -2  145.19   12.50 
   6   4   2  143.19   15.40 
   6   4   2  146.49   13.30 
  -7  -4  -2  505.25   33.80 
  -7  -4  -2  440.36   39.70 
  -7  -4  -2  456.35   34.60 
   7  -4   2  455.15   36.60 
   7   4   2  489.15   37.30 
  -7   4  -2  470.45   30.60 
  -7   4  -2  517.65   33.60 
  -8  -4  -2  150.18   14.90 
  -8  -4  -2  175.68   14.80 
  -8  -4  -2  145.79   20.10 
  -8   4  -2  155.58   18.10 
   8   4   2  130.89   17.30 
  -8   4  -2  159.08   13.20 
  -8   4  -2  126.09   18.70 
  -9  -4  -2   71.59    9.80 
  -9  -4  -2   41.90   14.20 
  -9  -4  -2   80.29    9.00 
   9   4   2   51.49   11.30 
  -9   4  -2   42.90   11.10 
  -9   4  -2   67.99   10.90 
  -9  -5   2   74.79   10.70 
  -9  -5   2   74.79   15.50 
  -9  -5   2   65.99   10.80 
  -9   5   2   74.09   12.20 
   9   5  -2   83.79   15.60 
  -9   5   2  106.19   10.40 
  -8  -5   2  126.59   13.70 
  -8  -5   2  107.19   12.80 
  -8  -5   2  101.89   16.20 
  -8   5   2  114.39   11.00 
  -8   5   2  121.99   11.00 
   8   5  -2  128.39   16.40 
  -8   5   2   87.29   11.40 
  -7  -5   2  194.38   19.70 
  -7  -5   2  211.78   19.40 
  -7  -5   2  213.68   23.60 
  -7   5   2  243.68   16.60 
  -7   5   2  214.78   15.50 
   7   5  -2  196.88   20.80 
  -7   5   2  205.18   18.80 
  -6  -5   2  185.88   20.90 
  -6  -5   2  208.28   19.10 
  -6  -5   2  227.48   19.00 
   6  -5  -2  176.28   12.50 
  -6   5   2  232.48   14.80 
  -6   5   2  194.58   17.30 
  -6   5   2  172.18   14.40 
  -6   5   2  197.58   13.20 
  -6   5   2  183.48   15.10 
   6   5  -2  186.08   18.90 
  -5  -5   2  273.47   25.40 
   5  -5  -2  236.08   19.50 
   5  -5  -2  262.47   19.00 
  -5  -5   2  259.07   21.80 
  -5  -5   2  253.97   22.90 
  -5  -5   2  281.07   22.90 
   5  -5  -2  254.57   18.50 
   5   5  -2  294.77   23.20 
  -5   5   2  321.07   18.70 
   5   5  -2  295.87   26.30 
  -5   5   2  274.67   20.50 
   5   5  -2  276.07   23.20 
  -4  -5   2  717.53   49.10 
   4  -5  -2  612.74   43.00 
  -4  -5   2  769.02   47.80 
   4  -5  -2  665.43   42.90 
  -4  -5   2  746.83   48.30 
   4  -5  -2  713.73   44.50 
  -4  -5   2  688.23   47.40 
  -4   5   2  775.92   42.00 
   4   5  -2  658.23   49.80 
   4   5  -2  696.43   47.40 
  -4   5   2  708.83   45.20 
   4   5  -2  655.63   46.30 
  -3  -5   2  579.14   39.00 
  -3  -5   2  624.64   42.10 
  -3  -5   2  623.24   41.60 
  -3  -5   2  628.24   42.20 
   3  -5  -2  644.44   39.00 
   3  -5  -2  574.84   39.50 
   3  -5  -2  580.64   37.40 
  -3   5   2  572.84   39.70 
  -3   5   2  655.33   36.70 
   3   5  -2  581.44   40.00 
   3   5  -2  639.74   42.20 
   3   5  -2  568.64   42.50 
  -2  -5   2   -0.60    2.10 
   2  -5  -2    2.80    2.40 
  -2  -5   2    1.20    2.00 
   2  -5  -2    4.10    1.90 
  -2  -5   2    1.90    1.90 
  -2  -5   2   -0.80    1.80 
  -2   5   2    1.30    1.60 
   2   5  -2    0.00    2.70 
  -2   5   2   -0.20    1.30 
   2   5  -2    3.90    3.30 
   2   5  -2    1.70    2.20 
   1  -5  -2  742.83   48.50 
  -1  -5   2  716.73   53.69 
  -1  -5   2  774.22   45.70 
   1  -5  -2  870.71   45.20 
  -1  -5   2  760.52   49.40 
   1  -5  -2  745.63   49.30 
  -1  -5   2  739.43   49.90 
   1   5  -2  686.33   46.50 
   1   5  -2  697.43   48.60 
  -1   5   2  777.32   46.00 
   1   5  -2  767.32   49.99 
  -1   5   2  794.22   49.60 
  -1   5   2  793.52   49.20 
   0  -5   2  221.08   17.90 
   0  -5   2  228.78   13.70 
   0  -5  -2  223.48   14.30 
   0  -5  -2  241.08   18.60 
   0  -5   2  201.88   15.50 
   0  -5  -2  198.08   14.80 
   0  -5  -2  240.88   17.90 
   0  -5   2  198.58   17.10 
   0  -5  -2  219.48   15.20 
   0   5   2  179.68   14.90 
   0   5  -2  204.98   17.80 
   0   5   2  208.08   17.40 
   0   5  -2  190.08   16.00 
   0   5  -2  183.68   14.40 
   0   5   2  198.08   17.40 
   1  -5   2 1362.16   81.19 
  -1  -5  -2 1327.67   80.59 
  -1  -5  -2 1385.46   82.19 
   1  -5   2 1384.96   81.99 
  -1  -5  -2 1223.38   79.79 
  -1  -5  -2 1364.16   82.99 
  -1  -5  -2 1395.86   78.59 
   1   5   2 1277.67   79.69 
   1   5   2 1398.76   82.49 
  -1   5  -2 1288.07   79.19 
   1   5   2 1349.07   82.69 
  -1   5  -2 1346.87   81.99 
  -2  -5  -2  290.67   23.00 
  -2  -5  -2  256.47   21.80 
   2  -5   2  320.77   22.70 
   2  -5   2  293.17   21.50 
   2  -5   2  283.17   19.40 
  -2  -5  -2  286.17   23.60 
  -2  -5  -2  316.27   23.20 
  -2  -5  -2  295.67   20.50 
  -2   5  -2  302.67   20.30 
   2   5   2  274.27   21.50 
   2   5   2  325.87   24.00 
  -2   5  -2  290.17   22.40 
  -3  -5  -2   78.89   10.60 
  -3  -5  -2  100.49   11.80 
   3  -5   2   93.49   13.30 
   3  -5   2   80.99    8.50 
   3  -5   2   98.69    9.00 
  -3  -5  -2   95.99   10.60 
  -3  -5  -2   87.79   11.30 
  -3  -5  -2   92.39   11.00 
  -3   5  -2   86.89    9.50 
   3   5   2   83.29   10.00 
   3   5   2   94.79   11.00 
  -3   5  -2   90.49    9.60 
   4  -5   2  787.42   46.40 
  -4  -5  -2  737.73   48.80 
  -4  -5  -2  730.63   47.10 
   4  -5   2  711.23   44.50 
   4  -5   2  666.93   47.00 
  -4  -5  -2  751.52   50.09 
  -4  -5  -2  698.03   51.29 
   4   5   2  693.43   48.60 
   4   5   2  709.53   49.00 
  -4   5  -2  806.52   44.80 
  -4   5  -2  753.22   47.20 
  -5  -5  -2  444.26   33.60 
  -5  -5  -2  509.95   35.50 
   5  -5   2  445.06   28.30 
  -5  -5  -2  461.75   37.60 
   5  -5   2  457.85   33.00 
   5   5   2  466.95   35.10 
   5   5   2  467.95   34.10 
  -5   5  -2  493.75   31.90 
  -6  -5  -2  174.98   16.30 
  -6  -5  -2  137.09   18.10 
   6  -5   2  144.19   15.90 
  -6  -5  -2  142.09   16.10 
  -6   5  -2  166.98   13.50 
  -6   5  -2  188.98   13.60 
   6   5   2  162.48   15.80 
   6   5   2  157.58   17.50 
   7  -5   2    8.10    4.70 
  -7  -5  -2    8.10    4.00 
  -7  -5  -2    8.60    6.40 
  -7  -5  -2    0.40    2.90 
  -7   5  -2   11.70    4.20 
   7   5   2   -1.00    3.80 
  -8  -5  -2   40.80    8.60 
  -8  -5  -2   59.29    9.20 
  -8  -5  -2   30.00    9.60 
   8   5   2   23.70    7.70 
  -8   5  -2   36.80   10.80 
  -8  -6   2   51.49    9.50 
  -8  -6   2   49.50   10.00 
  -8  -6   2   58.39   13.80 
   8   6  -2   56.39   11.90 
  -7  -6   2  154.58   16.50 
  -7  -6   2  149.29   17.10 
  -7  -6   2  126.39   18.40 
  -7   6   2  183.08   12.80 
   7   6  -2  130.99   17.20 
  -7   6   2  141.39   15.50 
   6  -6  -2   48.80    6.00 
  -6  -6   2   55.89   10.40 
  -6  -6   2   56.29   12.80 
   6  -6  -2   53.59    7.60 
  -6  -6   2   60.79   10.60 
  -6   6   2   76.69    6.90 
   6   6  -2   51.69   10.90 
  -6   6   2   63.19    7.80 
   5  -6  -2  300.57   23.40 
   5  -6  -2  339.87   24.00 
  -5  -6   2  339.17   27.90 
  -5  -6   2  383.56   29.30 
  -5  -6   2  323.07   29.30 
  -5   6   2  367.26   22.20 
  -5   6   2  336.77   25.20 
   5   6  -2  298.07   26.70 
  -4  -6   2  186.58   17.60 
  -4  -6   2  179.88   18.30 
   4  -6  -2  155.08   14.00 
  -4  -6   2  153.88   15.40 
   4  -6  -2  175.08   15.30 
  -4  -6   2  175.38   18.10 
   4   6  -2  193.08   18.10 
  -4   6   2  198.48   13.20 
   4   6  -2  167.58   16.80 
   4   6  -2  177.98   19.00 
  -4   6   2  193.78   16.50 
  -3  -6   2  220.08   20.60 
   3  -6  -2  213.78   16.90 
  -3  -6   2  234.08   18.10 
   3  -6  -2  243.48   18.60 
  -3  -6   2  280.47   22.40 
  -3  -6   2  265.57   21.60 
   3  -6  -2  232.48   19.50 
  -3   6   2  232.18   16.30 
   3   6  -2  232.88   19.50 
  -3   6   2  218.38   19.40 
   3   6  -2  239.68   21.00 
   3   6  -2  223.18   21.10 
   2  -6  -2  444.36   27.60 
   2  -6  -2  414.66   31.30 
  -2  -6   2  457.75   31.70 
  -2  -6   2  414.56   28.50 
  -2  -6   2  437.86   32.50 
   2  -6  -2  428.36   30.80 
  -2  -6   2  443.16   33.10 
   2   6  -2  446.76   30.40 
  -2   6   2  424.46   27.90 
  -2   6   2  457.65   32.20 
   2   6  -2  404.66   32.20 
   2   6  -2  437.26   33.00 
  -1  -6   2  583.34   40.40 
   1  -6  -2  565.14   40.20 
  -1  -6   2  590.54   41.20 
   1  -6  -2  628.74   35.30 
   1  -6  -2  614.94   40.00 
  -1  -6   2  573.14   35.70 
  -1  -6   2  595.64   38.40 
  -1   6   2  555.34   36.40 
  -1   6   2  600.54   40.20 
   1   6  -2  526.05   37.00 
   1   6  -2  577.04   39.70 
  -1   6   2  574.54   40.30 
   1   6  -2  504.05   44.40 
   0  -6  -2  124.29    9.40 
   0  -6   2   84.09   12.30 
   0  -6   2  115.69    8.50 
   0  -6  -2   98.39   12.30 
   0  -6   2  107.49   12.60 
   0  -6   2  115.69   12.20 
   0  -6  -2  108.69   12.20 
   0  -6  -2  111.29    9.80 
   0  -6  -2  111.59    9.70 
   0   6  -2  108.89   11.20 
   0   6   2  112.39   12.70 
   0   6   2  123.79   12.50 
   0   6   2  117.69   10.80 
   0   6  -2  130.19   13.30 
   0   6  -2  110.89    9.90 
   1  -6   2  160.38   15.30 
  -1  -6  -2  194.18   16.70 
  -1  -6  -2  164.88   14.70 
  -1  -6  -2  180.08   13.20 
   1  -6   2  198.18   16.80 
  -1  -6  -2  153.68   16.40 
   1  -6   2  204.78   12.80 
  -1  -6  -2  152.88   14.10 
   1   6   2  155.58   14.30 
  -1   6  -2  166.08   16.10 
   1   6   2  137.49   19.00 
   1   6   2  156.88   16.10 
   2  -6   2  295.97   21.00 
  -2  -6  -2  337.27   33.70 
  -2  -6  -2  332.27   22.90 
  -2  -6  -2  279.27   23.90 
  -2  -6  -2  328.07   25.30 
  -2  -6  -2  343.87   27.00 
   2  -6   2  331.17   25.00 
  -2   6  -2  366.46   26.00 
  -2   6  -2  313.77   22.00 
   2   6   2  338.77   26.50 
   2   6   2  292.27   23.60 
  -3  -6  -2  877.61   58.49 
  -3  -6  -2  962.30   60.59 
   3  -6   2  842.22   53.99 
   3  -6   2  906.71   55.89 
  -3  -6  -2  910.71   55.59 
  -3  -6  -2  858.11   59.19 
  -3  -6  -2  832.32   58.29 
   3  -6   2  968.00   57.59 
   3   6   2  878.51   59.29 
  -3   6  -2  872.31   57.49 
  -3   6  -2  954.10   55.79 
   3   6   2  824.62   57.09 
   4  -6   2  171.28   13.70 
  -4  -6  -2  152.28   17.10 
  -4  -6  -2  173.98   17.70 
  -4  -6  -2  169.38   18.20 
   4  -6   2  151.98   14.50 
  -4  -6  -2  180.78   17.10 
   4   6   2  181.38   17.00 
   4   6   2  173.18   17.30 
  -4   6  -2  161.38   13.80 
  -4   6  -2  179.58   15.70 
  -5  -6  -2   22.70    7.80 
   5  -6   2   26.40    4.40 
  -5  -6  -2   28.30    6.90 
   5  -6   2   36.30    7.30 
  -5  -6  -2   29.40    6.90 
  -5   6  -2   33.30    6.30 
   5   6   2   20.20    6.00 
   5   6   2   24.30    7.50 
  -5   6  -2   31.20    6.20 
   6  -6   2   30.80    7.30 
  -6  -6  -2   19.40    7.80 
  -6  -6  -2   17.80    6.20 
  -6  -6  -2   28.10    8.30 
   6  -6   2   22.60    2.90 
  -6   6  -2   22.60    5.10 
   6   6   2   15.70    7.00 
   6   6   2   19.90    6.30 
  -6   6  -2   22.50    5.00 
  -7  -6  -2  169.58   21.20 
  -7  -6  -2  160.48   17.80 
  -7  -6  -2  167.98   17.50 
   7   6   2  134.09   20.30 
  -7   6  -2  149.59   16.60 
  -7   6  -2  202.18   14.80 
  -8  -6  -2   -6.80    3.10 
   8   6   2    2.30    4.40 
  -7  -7   2  190.48   19.70 
  -7  -7   2  175.38   19.90 
  -7  -7   2  173.28   25.30 
   6  -7  -2   27.20    6.30 
  -6  -7   2   28.30    8.70 
  -6  -7   2   32.50    8.40 
   6  -7  -2   28.10    5.50 
  -6  -7   2   39.50    9.00 
   6   7  -2   39.70    9.80 
   5  -7  -2  124.99   12.80 
  -5  -7   2  144.59   16.80 
  -5  -7   2  140.79   17.50 
   5  -7  -2  150.78   13.90 
  -5  -7   2  154.18   17.60 
  -5   7   2  153.68   11.90 
   5   7  -2  140.39   16.10 
  -5   7   2  145.19   14.60 
  -4  -7   2  186.28   19.30 
   4  -7  -2  172.78   16.40 
  -4  -7   2  179.28   18.70 
  -4  -7   2  186.38   19.80 
   4  -7  -2  158.98   14.20 
  -4   7   2  190.38   17.20 
   4   7  -2  184.28   19.20 
  -4   7   2  158.78   13.10 
   4   7  -2  132.89   18.10 
  -3  -7   2  922.21   56.89 
  -3  -7   2  964.60   62.09 
  -3  -7   2 1006.70   63.39 
   3  -7  -2  874.11   55.19 
   3  -7  -2  921.91   59.79 
  -3  -7   2  973.60   61.09 
   3   7  -2  874.61   58.79 
   3   7  -2  856.61   61.69 
  -3   7   2  796.52   63.79 
   3   7  -2  927.01   62.29 
  -3   7   2  901.01   55.19 
  -2  -7   2  330.77   26.20 
   2  -7  -2  263.17   19.30 
  -2  -7   2  295.67   23.30 
   2  -7  -2  270.97   23.80 
  -2  -7   2  276.67   20.20 
  -2  -7   2  284.67   24.60 
   2  -7  -2  307.37   23.50 
   2   7  -2  267.37   23.90 
  -2   7   2  286.57   24.10 
   2   7  -2  268.67   22.00 
   2   7  -2  284.87   25.00 
  -2   7   2  263.57   20.00 
  -1  -7   2  722.23   47.50 
   1  -7  -2  727.53   50.69 
   1  -7  -2  797.92   44.60 
  -1  -7   2  751.62   51.39 
  -1  -7   2  756.72   50.89 
  -1  -7   2  745.83   44.80 
   1  -7  -2  763.52   50.09 
   1   7  -2  748.33   51.79 
  -1   7   2  744.13   50.99 
  -1   7   2  717.73   46.30 
   1   7  -2  668.63   46.70 
   1   7  -2  684.83   49.10 
   0  -7  -2  286.67   24.00 
   0  -7   2  281.37   23.50 
   0  -7   2  256.57   19.30 
   0  -7  -2  257.87   18.80 
   0  -7  -2  251.47   22.40 
   0  -7  -2  282.57   22.60 
   0  -7  -2  273.57   18.60 
   0  -7   2  265.37   22.60 
   0  -7   2  264.87   17.20 
   0   7   2  242.88   19.80 
   0   7   2  276.07   23.90 
   0   7  -2  272.37   23.50 
   0   7  -2  239.28   19.10 
   0   7  -2  251.97   20.90 
  -1  -7  -2  649.83   39.20 
  -1  -7  -2  651.73   44.40 
  -1  -7  -2  657.73   41.50 
  -1  -7  -2  586.74   40.70 
   1  -7   2  681.43   41.00 
   1  -7   2  609.24   43.20 
   1  -7   2  598.14   43.80 
  -1  -7  -2  637.74   45.60 
   1   7   2  676.33   45.80 
  -1   7  -2  575.94   40.60 
   1   7   2  564.94   41.00 
  -1   7  -2  611.34   44.30 
  -2  -7  -2   88.99   14.20 
  -2  -7  -2   78.79   10.30 
   2  -7   2   67.29    7.40 
  -2  -7  -2   74.19   11.80 
  -2  -7  -2   82.09   10.50 
  -2   7  -2   79.19   10.70 
  -2   7  -2   84.09   11.10 
   2   7   2   65.69    9.20 
   2   7   2   89.39   14.00 
  -3  -7  -2    6.20    4.50 
  -3  -7  -2    6.10    4.20 
  -3  -7  -2    5.70    4.10 
  -3  -7  -2    5.00    4.90 
   3  -7   2   15.90    4.80 
   3  -7   2   -0.30    2.10 
   3   7   2    5.10    3.90 
  -3   7  -2    6.80    3.20 
   3   7   2   -0.90    2.70 
  -4  -7  -2  227.88   21.80 
   4  -7   2  192.78   16.30 
   4  -7   2  210.88   17.00 
  -4  -7  -2  201.78   21.20 
  -4  -7  -2  214.98   20.40 
  -4   7  -2  201.38   15.70 
  -4   7  -2  187.98   18.50 
   4   7   2  213.98   19.90 
   4   7   2  214.68   21.10 
  -5  -7  -2  172.88   18.40 
  -5  -7  -2  148.79   18.40 
   5  -7   2  154.38   12.50 
   5  -7   2  148.29   14.10 
  -5  -7  -2  151.88   16.60 
   5   7   2  144.29   17.30 
   5   7   2  157.58   16.80 
  -5   7  -2  134.79   12.50 
  -5   7  -2  133.59   14.70 
  -6  -7  -2  180.88   18.30 
  -6  -7  -2  133.89   16.80 
   6  -7   2  129.59   10.70 
   6  -7   2  146.29   14.80 
  -6  -7  -2  165.48   19.90 
   6   7   2  154.78   17.40 
  -6   7  -2  147.79   14.20 
  -6   7  -2  140.99   13.10 
  -7  -7  -2    9.20    7.10 
  -7  -7  -2    9.10    5.10 
   7   7   2   13.60    6.10 
  -6  -8   2   96.79   15.70 
  -6  -8   2   93.49   13.40 
   6   8  -2   78.39   16.20 
  -5  -8   2  144.59   18.00 
  -5  -8   2  120.19   18.10 
   5  -8  -2  122.49   13.60 
  -5  -8   2  105.29   15.50 
   5  -8  -2  126.59   13.10 
  -5   8   2  136.39   11.50 
  -5   8   2  147.29   15.20 
   5   8  -2  147.39   16.10 
   4  -8  -2  157.58   14.50 
   4  -8  -2  154.68   16.70 
  -4  -8   2  223.48   29.30 
  -4  -8   2  178.38   18.90 
  -4  -8   2  196.98   20.50 
  -4   8   2  176.38   14.10 
   4   8  -2  146.49   17.40 
  -4   8   2  166.88   17.20 
  -3  -8   2   17.10    7.60 
  -3  -8   2   25.30    7.20 
   3  -8  -2   30.30    5.90 
   3  -8  -2   22.30    6.50 
  -3  -8   2   25.70    7.90 
   3   8  -2   19.50    6.60 
  -3   8   2   20.70    6.00 
  -3   8   2   24.10    5.10 
   3   8  -2   14.00    7.20 
  -2  -8   2  456.15   29.50 
  -2  -8   2  474.25   33.50 
  -2  -8   2  452.85   35.50 
   2  -8  -2  457.45   34.70 
   2  -8  -2  453.45   29.10 
  -2  -8   2  434.26   36.10 
  -2   8   2  411.46   34.30 
  -2   8   2  424.16   29.90 
   2   8  -2  418.86   32.00 
   2   8  -2  401.26   34.00 
   2   8  -2  456.05   36.20 
  -1  -8   2  288.37   26.10 
  -1  -8   2  262.67   22.20 
  -1  -8   2  287.17   25.40 
   1  -8  -2  307.87   19.80 
  -1  -8   2  291.17   19.80 
   1  -8  -2  277.77   25.40 
  -1   8   2  256.97   21.10 
   1   8  -2  277.87   22.10 
   1   8  -2  263.87   25.40 
  -1   8   2  300.87   25.80 
   1   8  -2  278.07   24.00 
   0  -8  -2   64.89    7.20 
   0  -8   2   64.49    6.30 
   0  -8   2   69.09    8.60 
   0  -8  -2   52.29    7.40 
   0  -8   2   58.39   10.70 
   0  -8   2   60.49   11.10 
   0  -8  -2   68.39   12.30 
   0  -8  -2   76.19   10.20 
   0   8  -2   71.59   12.70 
   0   8  -2   54.19    8.80 
   0   8  -2   60.49    7.80 
   0   8   2   54.69   10.60 
   0   8   2   68.19    8.90 
  -1  -8  -2   96.59   10.40 
  -1  -8  -2  102.99   10.70 
  -1  -8  -2   83.99   19.80 
  -1  -8  -2  101.19   16.10 
   1  -8   2   97.49   12.00 
   1  -8   2   97.89    8.50 
  -1   8  -2   81.59   10.10 
   1   8   2   70.69   12.60 
   1   8   2   90.79   12.40 
  -1   8  -2   82.99   11.80 
   2  -8   2   12.90    4.80 
  -2  -8  -2   18.80    6.50 
  -2  -8  -2   23.80    6.70 
  -2  -8  -2    6.40    5.10 
  -2  -8  -2   11.90    5.30 
   2  -8   2   21.50    4.20 
   2   8   2   33.70    8.50 
  -2   8  -2   17.80    4.40 
   2   8   2   22.20    6.00 
  -2   8  -2   16.70    5.70 
  -3  -8  -2    5.30    6.50 
  -3  -8  -2    6.10    5.00 
  -3  -8  -2   20.40    6.80 
   3  -8   2   24.10    6.30 
   3  -8   2   17.20    4.30 
  -3  -8  -2    5.60    5.40 
  -3   8  -2   17.60    6.30 
   3   8   2   17.20    5.80 
   3   8   2   29.40    7.50 
  -4  -8  -2    2.90    4.70 
   4  -8   2    9.30    3.80 
  -4  -8  -2   10.50    5.40 
  -4  -8  -2   14.20    6.30 
   4   8   2   18.60    6.60 
   4   8   2    3.30    5.40 
   5  -8   2  111.69   12.40 
  -5  -8  -2  144.89   18.10 
  -5  -8  -2  157.38   18.50 
   5   8   2  126.09   17.50 
   5   8   2  153.38   17.50 
  -5   8  -2  157.48   15.70 
  -6  -8  -2   27.80    8.80 
  -6  -8  -2   25.60   10.80 
  -6   8  -2   42.80    8.90 
   6   8   2   57.09   11.70 
  -5  -9   2   20.00    8.20 
  -5  -9   2    7.60    7.10 
  -5   9   2   26.50    5.40 
   5   9  -2   19.60    8.30 
  -4  -9   2   54.59   12.00 
   4  -9  -2   71.79   11.40 
  -4  -9   2   48.40   13.70 
  -4  -9   2   76.39   14.00 
  -4   9   2   50.39   11.20 
   4   9  -2   42.00    9.80 
  -3  -9   2  200.98   20.00 
  -3  -9   2  173.08   20.80 
  -3  -9   2  221.98   23.00 
   3  -9  -2  180.18   19.70 
  -3   9   2  174.28   18.90 
   3   9  -2  181.58   18.30 
   2  -9  -2   31.90    9.60 
  -2  -9   2   51.29   10.30 
  -2  -9   2   67.49   12.80 
  -2  -9   2   63.29   11.60 
  -2   9   2   30.30    8.20 
   2   9  -2   52.79   10.90 
  -2   9   2   42.80    8.90 
   2   9  -2   52.09    9.80 
   2   9  -2   33.70    8.10 
  -1  -9   2   39.90    5.90 
  -1  -9   2   41.30    8.20 
   1  -9  -2   33.60    8.70 
  -1  -9   2   42.80    9.70 
   1   9  -2   22.70   10.60 
   1   9  -2   30.40    7.20 
  -1   9   2   28.80    7.80 
  -1   9   2   27.50    6.80 
   0  -9   2   74.99    9.10 
   0  -9  -2   40.80   12.60 
   0  -9   2   54.09   11.30 
   0  -9   2   60.19    7.90 
   0   9   2   65.89    9.40 
   0   9  -2   63.29   11.30 
   0   9  -2   56.49   10.00 
   0   9  -2   74.69    8.80 
   0   9   2   65.49   20.10 
   1  -9   2   55.39    6.70 
   1  -9   2   47.10    9.50 
  -1  -9  -2   65.59    8.90 
  -1  -9  -2   61.29    9.30 
  -1  -9  -2   56.39   11.80 
   1   9   2   50.19   10.90 
  -1   9  -2   63.99   11.30 
  -1   9  -2   59.69    8.30 
   1   9   2   34.50    8.30 
  -2  -9  -2   44.40   10.50 
   2  -9   2   45.70    9.00 
  -2  -9  -2   38.00    9.00 
  -2  -9  -2   31.40    7.60 
  -2  -9  -2   21.50    9.30 
  -2   9  -2   41.80    8.80 
   2   9   2   32.00    9.00 
   2   9   2   29.30    7.80 
  -2   9  -2   23.50    5.30 
   3  -9   2    5.00    6.20 
  -3  -9  -2   16.70    8.00 
  -3  -9  -2   22.10   12.80 
   3   9   2   18.60    7.90 
   3   9   2   10.90    5.10 
  -3   9  -2   22.20    7.30 
   4  -9   2   46.30    9.40 
  -4  -9  -2   59.59   12.30 
  -4  -9  -2   71.99   13.00 
  -4   9  -2   56.29   11.30 
   4   9   2   64.59   13.10 
   2 -10  -2   26.70    9.10 
  -2 -10   2   15.70    8.40 
  -2 -10   2   34.70   11.90 
  -2  10   2   33.00    7.70 
  -2  10   2   38.00    9.00 
   2  10  -2   36.00    8.50 
  -1 -10   2  146.89   20.40 
  -1 -10   2  163.48   21.40 
  -1 -10   2  217.58   17.50 
   1 -10  -2  174.88   21.30 
   1  10  -2  177.68   24.60 
  -1  10   2  179.38   17.30 
   1  10  -2  191.38   17.90 
  -1  10   2  193.78   21.40 
   0 -10   2   42.80   13.80 
   0 -10  -2   55.39   12.90 
   0  10   2   48.40    9.40 
   0  10   2   48.10   11.60 
   0  10  -2   61.99    9.50 
   1 -10   2    8.60    5.60 
  -1 -10  -2   13.40    5.90 
  -1 -10  -2   12.50    5.60 
  -1 -10  -2    0.20    6.80 
   1 -10   2    2.10    3.20 
   1  10   2    2.70    3.90 
   1  10   2   20.60    6.40 
   2 -10   2   31.60   11.70 
  -2 -10  -2   41.60   11.70 
  -2 -10  -2   55.19    9.80 
  -2 -10  -2   21.10   10.90 
   2  10   2   32.80    8.10 
   2  10   2   46.30   11.40 
 -10   0   3  250.47   22.90 
 -10   0   3  221.18   26.00 
  -9   0   3   28.00    7.30 
  -9   0   3   34.60   10.00 
  -8   0   3  216.18   12.10 
  -8   0   3  175.78   12.50 
  -8   0   3  181.68   17.60 
  -7   0   3   31.50    7.50 
  -7   0   3   25.20    7.30 
  -7   0   3   25.50    3.50 
  -7   0   3   27.10    8.30 
  -7   0   3   24.80    2.60 
  -7   0   3   18.50    5.40 
  -6   0   3  316.07   25.30 
  -6   0   3  366.86   20.40 
  -6   0   3  322.47   26.60 
  -6   0   3  336.17   26.80 
  -6   0   3  316.07   24.10 
  -5   0   3   10.20    3.50 
  -5   0   3   -0.60    2.20 
  -5   0   3    2.80    2.40 
  -5   0   3    4.80    1.20 
   5   0  -3    6.90    2.80 
   4   0  -3   16.50    4.70 
   4   0  -3    8.90    2.00 
  -4   0   3    9.40    3.10 
  -4   0   3    4.70    2.60 
  -4   0   3    7.30    1.60 
  -4   0   3    8.90    3.30 
   2   0  -3 2190.18  139.69 
  -2   0   3 2558.34  139.09 
  -2   0   3 2639.64  140.89 
   2   0  -3 2508.45  139.19 
   2   0  -3 2453.65  140.99 
  -2   0   3 2402.66  139.79 
  -1   0   3  623.74   37.90 
   1   0  -3  601.14   37.40 
   1   0  -3  640.84   38.10 
   1   0  -3  667.83   37.30 
  -1   0   3  639.14   37.30 
  -1   0   3  674.33   37.30 
   1   0   3 5519.25  311.87 
   2   0   3   20.20    2.90 
  -2   0  -3   21.40    2.60 
  -2   0  -3   16.00    3.50 
  -2   0  -3   20.30    2.30 
   2   0   3   18.60    2.40 
   2   0   3   16.30    3.90 
  -3   0  -3 2419.26  132.99 
  -3   0  -3 2327.37  134.19 
   3   0   3 2243.18  140.09 
   3   0   3 2372.86  133.49 
  -3   0  -3 2404.76  136.59 
   3   0   3 2299.27  134.79 
  -4   0  -3  635.54   41.20 
  -4   0  -3  649.34   36.80 
   4   0   3  606.14   39.40 
   4   0   3  650.73   37.40 
  -4   0  -3  629.44   38.80 
   4   0   3  567.64   41.80 
   5   0   3  243.08   22.40 
  -5   0  -3  260.77   21.50 
  -5   0  -3  250.17   18.90 
  -5   0  -3  267.37   16.50 
   5   0   3  276.17   20.20 
   5   0   3  270.77   16.80 
  -6   0  -3  289.57   17.30 
  -6   0  -3  272.27   20.70 
   6   0   3  237.98   24.10 
  -6   0  -3  271.77   18.50 
  -6   0  -3  306.67   24.10 
   6   0   3  282.17   21.90 
   7   0   3  550.24   38.50 
  -7   0  -3  571.94   34.10 
  -7   0  -3  523.65   42.70 
  -7   0  -3  537.35   32.40 
  -7   0  -3  560.84   37.40 
   8   0   3   69.59   11.00 
  -8   0  -3   82.49    5.90 
  -8   0  -3   81.19   13.40 
  -8   0  -3   94.99    6.90 
  -9   0  -3    3.10    4.10 
   9   0   3   -2.80    3.50 
  -9   0  -3   -4.30    2.90 
 -10  -1   3   13.00    6.70 
 -10  -1   3    7.20    8.40 
 -10   1   3   10.90    6.30 
 -10   1   3   28.30    8.60 
  -9  -1   3  294.37   18.70 
  -9  -1   3  257.37   27.50 
  -9  -1   3  251.17   23.50 
  -9  -1   3  295.17   17.70 
  -9   1   3  292.17   27.20 
  -9   1   3  288.07   23.70 
  -8  -1   3  718.53   39.60 
  -8  -1   3  689.43   41.20 
  -8  -1   3  658.93   49.90 
  -8   1   3  656.53   47.50 
  -8   1   3  610.34   47.70 
  -8   1   3  623.84   44.30 
  -7  -1   3  129.19   16.40 
  -7  -1   3  172.48   12.50 
  -7  -1   3  143.49   16.80 
  -7  -1   3  135.49   16.50 
  -7  -1   3  151.18   14.20 
  -7  -1   3  139.29   10.50 
  -7   1   3  141.19    9.30 
  -7   1   3  155.38   15.50 
  -7   1   3  138.89   13.90 
  -7   1   3  153.08    9.20 
  -7   1   3  143.69   14.90 
  -7   1   3  142.49   15.70 
  -6  -1   3   51.89    6.00 
  -6  -1   3   57.19   10.70 
  -6  -1   3   38.10    9.80 
  -6  -1   3   49.40    7.00 
  -6  -1   3   57.29    9.20 
  -6  -1   3   50.99    5.20 
  -6   1   3   67.59    8.50 
   6   1  -3   50.89    5.30 
  -6   1   3   63.09    4.40 
  -6   1   3   48.60    7.60 
  -6   1   3   60.89    8.70 
  -6   1   3   52.59    8.30 
   5  -1  -3 1106.59   63.49 
  -5  -1   3  991.20   67.39 
   5  -1  -3 1177.58   63.69 
  -5  -1   3 1088.29   69.19 
  -5  -1   3 1092.09   70.89 
  -5  -1   3 1175.58   65.59 
  -5   1   3 1039.60   68.79 
   5   1  -3 1271.87   70.29 
  -5   1   3 1068.69   67.29 
  -5   1   3 1134.59   69.19 
   5   1  -3 1098.19   71.59 
  -5   1   3 1116.49   69.89 
   5   1  -3 1205.18   66.39 
  -4  -1   3 6193.08  336.77 
   4  -1  -3 6129.79  335.47 
  -4  -1   3 5955.30  339.77 
  -4  -1   3 5126.49  337.87 
  -4  -1   3 5901.61  341.07 
   4  -1  -3 5847.82  339.77 
   4   1  -3 6082.59  337.47 
  -4   1   3 5798.72  339.17 
  -4   1   3 6688.13  335.67 
   4   1  -3 5767.52  341.57 
  -4   1   3 5997.10  339.47 
   4   1  -3 6554.64  340.27 
  -4   1   3 5541.55  337.57 
   3  -1  -3 1398.56   90.59 
   3  -1  -3 1528.15   91.79 
  -3  -1   3 1647.74   90.29 
  -3  -1   3 1352.46   90.69 
  -3  -1   3 1574.14   92.19 
   3  -1  -3 1633.34   89.09 
  -3   1   3 1737.93   89.39 
   3   1  -3 1687.23   90.99 
  -3   1   3 1647.64   91.59 
   3   1  -3 1489.95   93.29 
  -3   1   3 1538.75   90.59 
  -2  -1   3  733.93   43.70 
  -2  -1   3  724.03   42.90 
   2  -1  -3  732.93   41.10 
  -2  -1   3  634.24   41.90 
  -2  -1   3  788.22   42.10 
   2  -1  -3  691.93   42.20 
   2  -1  -3  654.73   41.90 
  -2   1   3  676.93   41.60 
   2   1  -3  704.33   42.20 
  -2   1   3  710.73   41.80 
  -2   1   3  748.03   41.40 
  -1  -1   3 3700.53  194.58 
   1  -1  -3 3233.58  193.78 
  -1  -1   3 3151.78  193.68 
  -1  -1   3 3634.84  194.28 
   1  -1  -3 3458.55  193.88 
  -1  -1   3 3204.58  194.78 
   1   1  -3 3463.35  194.48 
  -1   1   3 3668.63  194.28 
   1   1  -3 3409.16  195.18 
   0  -1  -3 3241.78  172.98 
   0  -1  -3 3095.59  173.08 
   0  -1   3 2887.21  172.88 
   0   1  -3 3214.28  173.58 
   0   1  -3 2923.81  173.18 
   0   1   3 2977.60  173.18 
   0   1   3 3076.59  173.38 
   1  -1   3  600.14   33.90 
  -1  -1  -3  537.65   33.70 
  -1  -1  -3  558.74   33.00 
  -1   1  -3  528.85   33.80 
   1   1   3  556.64   32.90 
   1   1   3  532.45   34.10 
  -2  -1  -3  446.26   29.50 
   2  -1   3  466.45   29.40 
  -2  -1  -3  460.05   27.70 
   2  -1   3  439.06   26.80 
  -2  -1  -3  457.05   27.90 
   2   1   3  486.75   28.30 
  -2   1  -3  445.06   27.10 
   2   1   3  442.26   28.30 
   2   1   3  421.76   29.80 
  -2   1  -3  477.55   28.60 
  -3  -1  -3 6823.62  404.56 
   3  -1   3 6911.01  405.36 
  -3  -1  -3 7547.74  402.46 
   3  -1   3 7348.36  401.36 
  -3  -1  -3 7179.18  405.76 
   3  -1   3 6952.80  402.56 
  -3   1  -3 7317.97  401.56 
  -3   1  -3 6947.80  402.06 
   3   1   3 7182.88  402.96 
   3   1   3 6725.03  406.16 
   3   1   3 7009.70  403.96 
  -3   1  -3 7760.92  404.66 
  -4  -1  -3  168.88   11.70 
   4  -1   3  164.08   10.80 
   4  -1   3  154.78   14.90 
  -4  -1  -3  169.68   15.30 
  -4  -1  -3  170.18   13.20 
   4  -1   3  171.28   12.90 
  -4   1  -3  186.58   14.70 
   4   1   3  154.48   15.50 
   4   1   3  158.48   13.70 
  -4   1  -3  170.58   10.90 
  -4   1  -3  163.48   12.30 
   4   1   3  157.08   12.20 
  -5  -1  -3 1384.06   80.99 
  -5  -1  -3 1443.36   85.89 
  -5  -1  -3 1330.77   82.09 
   5  -1   3 1316.27   85.79 
   5  -1   3 1447.36   82.39 
  -5  -1  -3 1420.16   79.69 
   5   1   3 1364.56   80.39 
  -5   1  -3 1286.47   80.99 
   5   1   3 1310.77   86.69 
   5   1   3 1368.26   83.49 
  -5   1  -3 1352.06   78.59 
  -5   1  -3 1471.25   84.49 
   6  -1   3  147.59   16.50 
  -6  -1  -3  151.18   16.00 
  -6  -1  -3  163.08   12.60 
  -6  -1  -3  151.98   14.80 
  -6  -1  -3  156.88   11.10 
   6  -1   3  169.88   14.30 
  -6   1  -3  155.88   15.40 
   6   1   3  151.28   11.10 
  -6   1  -3  153.48   10.20 
   6   1   3  149.49   14.70 
   6   1   3  132.59   16.70 
  -6   1  -3  148.89   12.90 
   7  -1   3    0.20    4.90 
  -7  -1  -3    5.70    2.10 
   7  -1   3    4.80    3.70 
  -7  -1  -3    3.80    3.10 
  -7  -1  -3    5.00    1.90 
  -7  -1  -3    8.40    4.50 
  -7   1  -3    1.20    2.90 
   7   1   3   15.00    5.70 
  -7   1  -3    9.50    1.70 
  -7   1  -3    5.80    2.20 
  -8  -1  -3   71.69   14.00 
  -8  -1  -3   69.49    5.90 
  -8  -1  -3   66.49    7.20 
  -8   1  -3   64.99   13.70 
  -8   1  -3   78.89    8.90 
   8   1   3   70.59   10.50 
  -9  -1  -3   27.70    3.10 
  -9  -1  -3   26.70   13.90 
  -9  -1  -3   28.60    4.20 
  -9   1  -3   31.70   10.20 
  -9   1  -3   24.50    6.70 
   9   1   3   39.70   10.10 
 -10  -2   3  281.87   28.70 
 -10  -2   3  269.87   18.30 
 -10  -2   3  254.77   16.80 
 -10  -2   3  210.48   22.40 
 -10   2   3  259.57   22.20 
 -10   2   3  255.77   25.80 
  -9  -2   3  105.59    9.80 
  -9  -2   3  107.69    8.70 
  -9  -2   3   94.09   17.80 
  -9  -2   3   89.69   12.70 
  -9   2   3  100.19   12.70 
  -9   2   3   94.39   14.40 
  -8  -2   3  141.29   18.00 
  -8  -2   3  135.29   14.50 
  -8  -2   3  136.79   12.50 
  -8  -2   3  146.09   11.40 
  -8   2   3  136.89   15.20 
  -8   2   3  126.69   13.80 
  -8   2   3  150.38   16.40 
  -7  -2   3  271.97   19.40 
  -7  -2   3  237.38   23.80 
  -7   2   3  229.58   20.90 
  -7   2   3  248.08   19.70 
  -7   2   3  245.88   21.50 
  -7   2   3  232.48   20.50 
  -6  -2   3  322.47   23.60 
  -6  -2   3  319.47   27.80 
  -6  -2   3  324.97   25.60 
  -6  -2   3  322.47   27.80 
  -6  -2   3  340.47   22.50 
  -6   2   3  344.87   23.90 
  -6   2   3  305.07   24.30 
  -6   2   3  336.97   25.30 
   6   2  -3  340.77   26.20 
   6   2  -3  341.07   23.00 
  -6   2   3  317.17   25.00 
   6   2  -3  303.07   27.90 
  -6   2   3  352.46   20.50 
  -5  -2   3  167.08   15.30 
  -5  -2   3  173.08   13.30 
   5  -2  -3  173.08   10.40 
   5  -2  -3  179.68   10.70 
  -5  -2   3  155.78   13.80 
  -5  -2   3  160.38   16.50 
   5   2  -3  182.98   15.80 
  -5   2   3  151.18   14.10 
  -5   2   3  171.58   15.00 
  -5   2   3  188.88   14.20 
   5   2  -3  168.28   13.70 
  -5   2   3  181.68   11.80 
   5   2  -3  162.88   17.20 
  -4  -2   3  431.76   27.50 
   4  -2  -3  419.46   25.90 
   4  -2  -3  377.56   27.20 
  -4  -2   3  413.06   30.70 
   4  -2  -3  450.35   25.00 
  -4   2   3  387.86   27.40 
  -4   2   3  410.26   27.00 
  -4   2   3  422.36   27.70 
  -4   2   3  444.76   26.10 
   4   2  -3  457.35   29.50 
   4   2  -3  442.56   28.20 
   3  -2  -3  937.11   58.19 
   3  -2  -3 1060.49   55.79 
   3  -2  -3  946.41   57.09 
  -3  -2   3 1038.20   57.99 
   3   2  -3  887.21   60.09 
   3   2  -3  972.20   58.29 
   3   2  -3  948.61   58.49 
  -3   2   3  959.20   56.59 
  -3   2   3  928.01   56.49 
  -3   2   3  971.30   56.69 
   2  -2  -3 1238.58   74.59 
   2  -2  -3 1271.87   75.19 
  -2  -2   3 1195.98   75.89 
   2  -2  -3 1233.78   74.39 
  -2  -2   3 1295.27   77.39 
  -2  -2   3 1333.77   76.19 
  -2   2   3 1309.17   75.39 
   2   2  -3 1229.58   77.49 
  -2   2   3 1479.75   74.79 
   2   2  -3 1404.96   76.79 
  -2   2   3 1286.37   73.79 
   2   2  -3 1308.67   76.19 
  -1  -2   3 2638.14  148.49 
  -1  -2   3 2410.86  147.49 
   1  -2  -3 2817.32  146.49 
   1  -2  -3 2512.85  147.69 
   1  -2  -3 2821.72  147.19 
  -1   2   3 2472.15  146.49 
   1   2  -3 2625.84  148.89 
   1   2  -3 2567.64  147.69 
  -1   2   3 2626.34  148.39 
   1   2  -3 2471.15  148.99 
   0  -2   3 2344.17  134.09 
   0  -2  -3 2394.26  134.29 
   0  -2  -3 2256.87  133.19 
   0  -2   3 2599.24  133.89 
   0  -2  -3 2465.85  132.99 
   0   2  -3 2176.88  134.19 
   0   2   3 2442.26  133.39 
   0   2   3 2097.59  133.59 
   0   2   3 2320.27  134.69 
   0   2  -3 2378.86  134.69 
   1  -2   3  438.36   25.00 
  -1  -2  -3  375.86   25.30 
  -1  -2  -3  402.46   25.30 
  -1  -2  -3  390.66   24.30 
  -1   2  -3  349.17   24.90 
   1   2   3  361.56   25.40 
   1   2   3  353.36   25.60 
   1   2   3  436.06   25.00 
  -1   2  -3  450.95   24.80 
  -2  -2  -3 6891.81  395.06 
  -2  -2  -3 6980.10  393.06 
   2  -2   3 6806.82  391.46 
   2  -2   3 7240.08  393.76 
  -2   2  -3 7009.60  392.46 
  -2   2  -3 7797.22  392.76 
   2   2   3 6594.34  393.16 
   2   2   3 6369.56  394.86 
  -3  -2  -3  216.98   14.90 
   3  -2   3  197.58   12.50 
   3  -2   3  204.18   15.90 
  -3  -2  -3  214.08   15.30 
  -3  -2  -3  189.58   16.40 
  -3  -2  -3  209.08   14.60 
   3   2   3  189.18   14.80 
   3   2   3  183.08   16.70 
  -3   2  -3  210.58   14.70 
   3   2   3  167.58   14.80 
  -3   2  -3  187.58   13.40 
  -4  -2  -3  748.83   45.70 
  -4  -2  -3  715.53   48.30 
   4  -2   3  701.33   47.40 
  -4  -2  -3  740.63   45.70 
   4  -2   3  709.23   42.30 
  -4  -2  -3  757.52   44.80 
   4  -2   3  756.12   43.20 
   4   2   3  663.23   48.70 
  -4   2  -3  727.93   43.40 
  -4   2  -3  792.42   46.10 
   4   2   3  723.03   45.40 
   4   2   3  714.73   46.60 
  -5  -2  -3  479.25   30.70 
  -5  -2  -3  471.05   29.40 
  -5  -2  -3  417.46   42.60 
  -5  -2  -3  460.75   30.90 
   5  -2   3  438.36   33.30 
   5   2   3  426.16   34.60 
   5   2   3  471.65   32.50 
  -5   2  -3  410.96   28.50 
  -5   2  -3  499.65   31.80 
   5   2   3  476.85   30.20 
  -5   2  -3  427.76   29.00 
  -6  -2  -3  192.38   21.00 
   6  -2   3  198.08   20.10 
  -6  -2  -3  216.18   15.30 
  -6  -2  -3  207.28   16.70 
  -6  -2  -3  217.28   17.60 
  -6   2  -3  230.58   18.60 
   6   2   3  218.78   18.90 
  -6   2  -3  186.48   15.60 
  -6   2  -3  209.18   13.70 
   6   2   3  217.98   15.90 
  -6   2  -3  187.28   15.30 
  -7  -2  -3  232.88   18.30 
   7  -2   3  212.88   22.70 
  -7  -2  -3  275.97   17.10 
  -7  -2  -3  215.88   23.90 
  -7   2  -3  218.78   17.80 
   7   2   3  232.18   21.20 
  -7   2  -3  213.18   17.40 
  -8  -2  -3   27.70    4.30 
  -8  -2  -3   26.30    8.70 
  -8  -2  -3   26.90    5.20 
   8   2   3   30.60    8.50 
  -8   2  -3   15.10    6.70 
  -8   2  -3   16.50    4.70 
  -8   2  -3   18.00    4.50 
  -9  -2  -3    4.90    2.80 
  -9  -2  -3   16.60    3.60 
  -9  -2  -3    4.90    4.60 
  -9   2  -3    6.50    4.20 
  -9   2  -3   13.30    5.70 
   9   2   3    4.90    4.60 
  -9  -3   3  538.55   35.10 
  -9  -3   3  570.14   37.20 
  -9  -3   3  526.65   45.00 
  -9   3   3  497.65   39.80 
  -9   3   3  526.25   37.10 
   9   3  -3  553.34   42.60 
  -8  -3   3  254.47   27.10 
  -8  -3   3  291.07   21.00 
  -8  -3   3  287.27   22.40 
  -8   3   3  269.67   21.80 
   8   3  -3  293.47   25.90 
  -8   3   3  275.47   23.90 
  -8   3   3  288.07   23.80 
  -7  -3   3  226.78   18.60 
  -7  -3   3  190.88   21.30 
  -7  -3   3  204.18   16.60 
  -7   3   3  222.18   13.60 
  -7   3   3  214.98   17.30 
  -7   3   3  203.28   18.90 
   7   3  -3  194.98   19.70 
  -7   3   3  211.48   17.70 
  -7   3   3  197.48   18.20 
  -6  -3   3  319.87   25.80 
  -6  -3   3  327.37   24.70 
  -6  -3   3  370.26   24.20 
  -6  -3   3  310.77   28.00 
  -6   3   3  319.07   23.40 
  -6   3   3  323.17   31.40 
   6   3  -3  353.66   24.40 
   6   3  -3  297.67   28.30 
   6   3  -3  303.37   25.80 
  -6   3   3  325.27   25.10 
  -6   3   3  340.17   21.30 
  -6   3   3  332.37   23.30 
  -5  -3   3 1089.99   72.89 
   5  -3  -3 1145.89   65.59 
  -5  -3   3 1177.38   70.19 
  -5  -3   3 1193.58   69.09 
  -5  -3   3 1078.49   70.19 
   5  -3  -3  971.20   67.49 
   5  -3  -3 1188.18   64.49 
   5   3  -3 1203.18   69.79 
   5   3  -3 1141.09   70.79 
  -5   3   3 1161.68   67.19 
   5   3  -3 1089.89   73.79 
  -5   3   3 1158.38   66.59 
  -5   3   3 1085.89   67.39 
  -5   3   3 1129.49   67.99 
   4  -3  -3 1219.98   69.69 
   4  -3  -3 1343.17   68.29 
  -4  -3   3 1258.17   71.79 
   4  -3  -3 1049.20   69.99 
  -4  -3   3 1178.98   72.19 
   4   3  -3 1223.08   72.39 
  -4   3   3 1186.88   69.79 
  -4   3   3 1113.59   68.89 
   4   3  -3 1090.59   74.69 
   4   3  -3 1138.09   72.19 
  -4   3   3 1144.29   69.09 
  -4   3   3 1237.58   69.39 
  -3  -3   3 1131.49   72.99 
   3  -3  -3 1202.58   70.89 
   3  -3  -3 1142.39   71.79 
   3  -3  -3 1259.67   72.49 
  -3  -3   3 1325.37   74.59 
  -3  -3   3 1313.57   75.89 
   3   3  -3 1196.68   73.49 
  -3   3   3 1279.17   72.39 
   3   3  -3 1147.99   75.69 
   3   3  -3 1260.67   74.29 
  -2  -3   3 2281.57  129.29 
  -2  -3   3 2006.20  126.89 
   2  -3  -3 2451.95  127.39 
  -2  -3   3 2372.06  128.59 
  -2  -3   3 2315.37  129.09 
   2  -3  -3 2149.88  126.59 
   2   3  -3 2082.29  127.19 
  -2   3   3 2179.18  127.49 
   2   3  -3 2222.38  128.89 
   2   3  -3 2025.40  129.19 
   1  -3  -3  673.93   36.70 
  -1  -3   3  608.64   38.00 
  -1  -3   3  586.34   37.70 
   1  -3  -3  558.14   37.80 
   1  -3  -3  612.14   37.30 
  -1  -3   3  531.75   35.90 
  -1   3   3  647.24   38.20 
  -1   3   3  653.43   36.00 
   1   3  -3  635.14   38.80 
   1   3  -3  552.64   36.20 
   1   3  -3  583.84   38.20 
   0  -3  -3  923.21   55.89 
   0  -3   3  944.81   53.99 
   0  -3   3  950.30   55.19 
   0  -3  -3  943.21   55.19 
   0  -3  -3  904.51   53.39 
   0   3  -3  898.11   54.79 
   0   3   3  931.21   55.79 
   0   3   3  916.81   53.69 
   0   3   3  807.12   53.69 
   0   3  -3  922.71   55.69 
  -1  -3  -3  474.95   30.30 
  -1  -3  -3  497.85   31.50 
  -1  -3  -3  495.35   30.90 
  -1  -3  -3  509.55   29.20 
  -1   3  -3  471.95   30.50 
   1   3   3  421.46   30.30 
  -1   3  -3  461.75   29.80 
   1   3   3  458.95   29.70 
   1   3   3  462.35   31.10 
  -2  -3  -3  667.43   43.40 
   2  -3   3  689.93   41.80 
   2  -3   3  664.23   40.70 
  -2  -3  -3  700.63   43.50 
  -2  -3  -3  755.22   43.20 
   2  -3   3  687.63   42.10 
  -2  -3  -3  695.43   41.60 
  -2   3  -3  670.23   42.00 
   2   3   3  627.04   43.60 
   2   3   3  644.64   42.10 
  -3  -3  -3  910.11   54.59 
   3  -3   3  856.71   51.59 
  -3  -3  -3  903.51   53.99 
   3  -3   3  871.01   54.59 
   3  -3   3  935.51   53.49 
  -3  -3  -3  917.61   55.59 
  -3  -3  -3  889.81   56.49 
  -3   3  -3  997.80   53.09 
   3   3   3  808.02   54.59 
   3   3   3  770.02   56.29 
  -3   3  -3  871.51   53.39 
  -4  -3  -3  543.35   35.10 
   4  -3   3  478.75   35.80 
  -4  -3  -3  491.45   38.60 
  -4  -3  -3  554.14   35.00 
   4  -3   3  511.55   31.50 
  -4  -3  -3  514.95   37.60 
   4  -3   3  573.04   33.30 
  -4  -3  -3  560.64   36.20 
   4   3   3  532.95   36.30 
  -4   3  -3  596.84   34.50 
   4   3   3  515.85   35.50 
  -4   3  -3  530.55   33.50 
  -5  -3  -3  252.87   19.70 
   5  -3   3  233.78   15.20 
   5  -3   3  277.57   16.40 
   5  -3   3  237.48   21.00 
  -5  -3  -3  246.28   22.40 
  -5  -3  -3  233.78   23.20 
  -5  -3  -3  255.97   20.10 
  -5  -3  -3  247.28   18.80 
   5   3   3  255.67   21.10 
   5   3   3  245.78   19.50 
  -5   3  -3  285.47   19.70 
  -6  -3  -3   89.49   10.30 
  -6  -3  -3  103.79   14.30 
   6  -3   3   87.69   12.30 
  -6  -3  -3   97.69    9.60 
   6   3   3   97.79   10.00 
   6   3   3   91.59   12.00 
  -6   3  -3   93.49    8.00 
  -7  -3  -3    3.30    4.80 
  -7  -3  -3    2.80    2.40 
  -7  -3  -3    7.20    2.60 
   7  -3   3    4.00    4.00 
  -7   3  -3    2.70    3.10 
   7   3   3    6.00    4.70 
  -7   3  -3    4.10    3.30 
  -8  -3  -3   62.09    8.80 
  -8  -3  -3   73.49    8.30 
  -8  -3  -3   63.89   14.00 
  -8   3  -3   69.89    9.10 
   8   3   3   88.69   12.00 
  -8   3  -3   64.59   13.50 
  -9  -3  -3   14.50    3.70 
  -9  -3  -3    8.90    3.70 
  -9  -3  -3   13.00    6.90 
   9   3   3    0.90    4.60 
  -9   3  -3    2.00    4.50 
  -9  -4   3   42.00    7.50 
  -9  -4   3   27.70    6.10 
  -9   4   3   37.80    8.00 
  -9   4   3   49.99    8.60 
  -9   4   3   45.10    8.50 
   9   4  -3   56.29   12.30 
  -8  -4   3   77.59    9.00 
  -8  -4   3   53.39   12.90 
  -8  -4   3   74.19   10.20 
  -8   4   3   62.39    8.80 
  -8   4   3   60.39    9.30 
  -8   4   3   51.99    9.00 
   8   4  -3   76.39   11.70 
  -7  -4   3  196.68   16.60 
  -7  -4   3  182.08   20.70 
  -7  -4   3  174.28   16.70 
  -7   4   3  183.28   15.50 
  -7   4   3  167.28   14.40 
   7   4  -3  183.98   18.40 
  -7   4   3  176.08   14.70 
  -7   4   3  163.78   12.50 
  -7   4   3  143.09   16.10 
  -6  -4   3  297.17   31.30 
   6  -4  -3  310.37   17.70 
  -6  -4   3  288.57   23.00 
  -6  -4   3  338.17   25.10 
   6  -4  -3  281.67   17.90 
  -6   4   3  278.77   21.10 
  -6   4   3  270.27   24.80 
  -6   4   3  313.07   20.80 
   6   4  -3  292.07   25.00 
  -6   4   3  317.97   21.20 
  -6   4   3  310.17   20.70 
  -5  -4   3  252.27   23.40 
  -5  -4   3  256.07   29.10 
   5  -4  -3  224.28   18.60 
  -5  -4   3  267.97   20.60 
  -5  -4   3  259.37   20.90 
   5  -4  -3  266.37   16.40 
   5  -4  -3  270.67   17.80 
   5   4  -3  282.47   21.30 
   5   4  -3  233.28   23.20 
  -5   4   3  241.18   18.30 
  -5   4   3  234.18   17.20 
   5   4  -3  243.48   21.10 
  -5   4   3  279.87   18.00 
  -5   4   3  252.37   16.70 
   4  -4  -3  197.98   13.90 
  -4  -4   3  213.08   19.20 
  -4  -4   3  195.78   16.60 
   4  -4  -3  173.38   15.00 
  -4  -4   3  201.08   17.70 
   4  -4  -3  196.58   15.30 
  -4  -4   3  213.18   17.10 
   4   4  -3  167.48   18.30 
   4   4  -3  209.58   17.30 
  -4   4   3  197.38   15.50 
   4   4  -3  207.88   17.60 
  -4   4   3  239.38   14.50 
  -3  -4   3  815.82   52.89 
  -3  -4   3  897.91   54.39 
  -3  -4   3  911.91   55.49 
   3  -4  -3  833.42   51.59 
  -3  -4   3  932.61   56.19 
   3  -4  -3  821.82   51.59 
   3  -4  -3  909.81   53.39 
   3   4  -3  787.72   55.89 
   3   4  -3  772.12   53.09 
   3   4  -3  894.31   55.19 
  -3   4   3  892.61   53.29 
  -2  -4   3 1614.74  103.69 
   2  -4  -3 1775.32  102.89 
  -2  -4   3 1901.61  106.39 
   2  -4  -3 1760.22  104.29 
  -2  -4   3 1824.02  106.39 
  -2  -4   3 1788.22  106.89 
   2   4  -3 1675.23  106.89 
  -2   4   3 1802.42  105.59 
  -2   4   3 2069.99  102.89 
   2   4  -3 1665.93  104.29 
  -1  -4   3 1021.30   63.69 
   1  -4  -3 1105.59   64.19 
  -1  -4   3 1127.29   64.99 
  -1  -4   3 1103.89   65.69 
   1  -4  -3 1190.38   61.59 
   1  -4  -3 1039.60   64.89 
  -1  -4   3  988.60   61.69 
  -1   4   3 1029.60   64.59 
  -1   4   3 1086.49   62.09 
   1   4  -3  970.90   62.19 
   1   4  -3  974.20   64.39 
   1   4  -3 1045.40   65.29 
   0  -4  -3  349.27   26.10 
   0  -4   3  404.76   26.70 
   0  -4  -3  356.56   23.30 
   0  -4  -3  373.66   24.20 
   0  -4  -3  370.66   23.00 
   0  -4  -3  407.96   26.10 
   0  -4   3  366.36   24.10 
   0   4   3  364.46   23.90 
   0   4  -3  366.96   26.10 
   0   4  -3  355.06   24.90 
   0   4   3  356.56   26.00 
  -1  -4  -3 1397.16   84.69 
  -1  -4  -3 1466.35   85.99 
   1  -4   3 1453.45   84.99 
  -1  -4  -3 1434.46   82.29 
  -1  -4  -3 1344.47   83.49 
  -1  -4  -3 1343.67   84.39 
   1   4   3 1474.75   85.89 
  -1   4  -3 1458.05   84.99 
  -1   4  -3 1401.96   83.19 
   1   4   3 1379.06   83.29 
  -2  -4  -3  471.25   32.10 
  -2  -4  -3  453.55   32.10 
  -2  -4  -3  412.86   30.60 
   2  -4   3  462.05   30.40 
  -2  -4  -3  483.95   31.20 
  -2  -4  -3  453.25   29.20 
   2  -4   3  466.05   29.10 
   2  -4   3  453.95   29.20 
   2   4   3  426.96   30.00 
   2   4   3  437.06   31.40 
  -2   4  -3  452.15   30.50 
  -3  -4  -3 1306.67   81.39 
  -3  -4  -3 1324.57   78.69 
   3  -4   3 1087.89   79.09 
  -3  -4  -3 1362.56   79.99 
   3  -4   3 1340.87   77.49 
   3  -4   3 1311.57   75.49 
  -3  -4  -3 1319.67   77.19 
  -3  -4  -3 1260.77   79.69 
   3   4   3 1236.78   78.29 
   3   4   3 1351.76   79.69 
  -3   4  -3 1299.97   77.49 
  -4  -4  -3   67.09    8.20 
  -4  -4  -3   77.19   10.80 
   4  -4   3   61.89    8.60 
   4  -4   3   65.29    5.90 
   4  -4   3   67.99    7.20 
  -4  -4  -3   68.69    8.60 
  -4  -4  -3   61.59    9.80 
  -4  -4  -3   59.19    9.80 
   4   4   3   64.89    8.90 
  -4   4  -3   90.59    7.70 
  -4   4  -3   73.99    7.60 
   5  -4   3  109.99    8.50 
  -5  -4  -3   91.19   13.70 
  -5  -4  -3   93.19   13.30 
  -5  -4  -3   82.79   11.00 
   5  -4   3   93.39    7.20 
  -5  -4  -3  123.29   11.60 
   5  -4   3   98.39   11.80 
  -5   4  -3   92.99    9.90 
   5   4   3  101.19   11.10 
   5   4   3  108.99   12.50 
  -5   4  -3  116.79   10.10 
  -6  -4  -3  626.14   42.30 
   6  -4   3  642.34   45.60 
  -6  -4  -3  609.44   43.80 
  -6  -4  -3  629.24   49.00 
   6   4   3  639.84   43.10 
   6   4   3  619.24   45.30 
  -6   4  -3  688.03   42.40 
  -6   4  -3  653.13   40.10 
  -7  -4  -3  394.56   27.80 
  -7  -4  -3  370.86   29.20 
  -7  -4  -3  375.56   34.90 
   7  -4   3  384.76   31.80 
   7   4   3  342.67   27.70 
  -7   4  -3  369.36   23.90 
   7   4   3  385.36   31.60 
  -7   4  -3  420.56   29.10 
  -8  -4  -3    8.70    3.20 
  -8  -4  -3   -2.10    2.80 
  -8  -4  -3    0.60    5.30 
   8   4   3    3.60    4.10 
  -8   4  -3    7.40    4.40 
  -9  -5   3  124.19   22.30 
  -9  -5   3  139.89   17.50 
  -9  -5   3  136.99   13.80 
  -9   5   3  110.79   11.90 
   9   5  -3  105.69   19.40 
  -9   5   3  110.79   12.70 
  -8  -5   3   70.39   15.60 
  -8  -5   3   94.59   12.90 
  -8  -5   3  103.39   12.00 
  -8   5   3  103.39   10.40 
  -8   5   3  101.59    9.40 
   8   5  -3   85.59   16.50 
  -8   5   3   91.29   10.40 
  -7  -5   3   12.20    4.40 
  -7  -5   3   11.40    6.30 
  -7  -5   3   16.80    5.60 
  -7   5   3    7.30    2.40 
  -7   5   3    4.60    3.00 
  -7   5   3    5.80    3.10 
   7   5  -3   10.50    5.20 
  -6  -5   3    7.30    5.60 
   6  -5  -3   20.40    3.30 
   6  -5  -3    8.50    3.80 
  -6  -5   3   17.10    5.00 
  -6  -5   3   19.50    6.20 
  -6   5   3   17.80    4.10 
  -6   5   3    7.80    3.10 
   6   5  -3   23.60    7.70 
  -5  -5   3 1103.39   66.99 
   5  -5  -3  901.21   61.29 
  -5  -5   3 1105.69   65.39 
  -5  -5   3 1043.90   68.19 
   5  -5  -3 1029.00   61.39 
  -5  -5   3 1006.00   64.29 
   5   5  -3  945.61   68.89 
   5   5  -3  980.90   65.29 
  -5   5   3 1001.10   62.39 
   5   5  -3  984.60   65.09 
   4  -5  -3  619.24   41.70 
   4  -5  -3  663.03   41.20 
   4  -5  -3  689.23   43.20 
  -4  -5   3  640.54   43.50 
  -4  -5   3  718.83   45.50 
  -4  -5   3  680.03   47.00 
  -4  -5   3  726.93   46.90 
   4   5  -3  611.04   44.10 
   4   5  -3  545.05   50.09 
   4   5  -3  701.83   46.10 
  -4   5   3  618.24   43.00 
  -4   5   3  760.72   40.50 
   3  -5  -3  417.76   29.80 
  -3  -5   3  459.65   32.20 
  -3  -5   3  500.15   31.90 
   3  -5  -3  406.86   28.30 
  -3  -5   3  427.06   31.70 
  -3  -5   3  404.06   28.80 
   3  -5  -3  397.56   27.60 
  -3   5   3  469.65   27.00 
   3   5  -3  398.26   32.20 
   3   5  -3  434.76   31.70 
  -3   5   3  422.46   30.00 
   3   5  -3  396.76   29.50 
   2  -5  -3  171.58   15.10 
  -2  -5   3  149.59   12.50 
  -2  -5   3  172.68   15.90 
   2  -5  -3  161.48   12.20 
   2  -5  -3  165.28   13.90 
  -2  -5   3  178.48   15.40 
  -2  -5   3  158.98   14.90 
   2   5  -3  147.19   13.20 
   2   5  -3  174.38   15.80 
   2   5  -3  135.99   14.60 
  -2   5   3  172.98   12.20 
  -2   5   3  170.58   15.00 
  -1  -5   3  477.85   34.80 
   1  -5  -3  587.74   31.60 
   1  -5  -3  538.85   35.90 
  -1  -5   3  552.84   36.60 
   1  -5  -3  484.75   34.30 
  -1  -5   3  486.75   33.90 
  -1   5   3  510.15   32.30 
   1   5  -3  472.65   32.30 
  -1   5   3  541.35   35.80 
   1   5  -3  474.05   34.70 
   1   5  -3  507.45   36.00 
   0  -5   3 1443.86   83.69 
   0  -5  -3 1452.15   82.79 
   0  -5  -3 1395.56   83.69 
   0  -5  -3 1313.67   79.59 
   0  -5   3 1418.76   82.49 
   0  -5   3 1200.78   80.99 
   0  -5  -3 1313.77   78.99 
   0  -5  -3 1417.36   78.59 
   0   5  -3 1362.66   83.19 
   0   5   3 1297.57   79.89 
   0   5   3 1401.96   83.49 
   0   5  -3 1251.47   80.99 
   1  -5   3 1303.17   66.09 
   1  -5   3 1203.68   70.19 
   1  -5   3 1111.59   68.59 
  -1  -5  -3 1124.99   66.09 
  -1  -5  -3 1044.70   68.19 
  -1  -5  -3 1141.09   70.79 
  -1  -5  -3 1165.68   69.79 
  -1  -5  -3 1019.40   69.19 
   1   5   3 1116.99   70.39 
  -1   5  -3 1030.40   69.19 
  -1   5  -3 1089.29   67.39 
   1   5   3 1062.99   67.49 
  -2  -5  -3   13.80    4.50 
  -2  -5  -3   12.30    4.50 
  -2  -5  -3   18.20    4.90 
   2  -5   3   12.00    3.50 
  -2  -5  -3   10.70    3.70 
  -2  -5  -3   23.20    4.80 
   2  -5   3    6.40    2.80 
   2  -5   3   10.90    4.00 
  -2   5  -3   16.00    4.00 
  -2   5  -3   14.80    4.90 
   2   5   3   12.10    4.00 
   2   5   3   11.10    4.10 
  -3  -5  -3  170.38   16.90 
   3  -5   3  183.08   15.00 
  -3  -5  -3  150.58   15.60 
  -3  -5  -3  173.58   16.40 
   3  -5   3  158.48   13.80 
  -3  -5  -3  153.58   15.00 
   3  -5   3  162.08   13.10 
  -3  -5  -3  185.18   14.40 
   3   5   3  169.38   16.00 
  -3   5  -3  154.58   14.50 
  -3   5  -3  165.68   14.20 
   3   5   3  170.38   15.30 
   4  -5   3  948.61   59.89 
   4  -5   3  946.91   60.09 
  -4  -5  -3  954.30   63.29 
   4  -5   3  926.01   56.79 
  -4  -5  -3  968.40   61.49 
  -4  -5  -3  945.41   62.69 
  -4  -5  -3  925.61   64.49 
   4   5   3  964.70   62.29 
  -4   5  -3 1076.69   58.09 
  -4   5  -3  962.40   60.09 
   4   5   3  887.31   61.29 
  -5  -5  -3  263.27   20.90 
   5  -5   3  236.28   15.60 
   5  -5   3  219.48   20.00 
  -5   5  -3  242.18   18.80 
   5   5   3  230.78   20.70 
   5   5   3  231.18   21.20 
  -6  -5  -3   89.99   10.60 
   6  -5   3   75.19    5.90 
   6  -5   3   78.29   13.40 
  -6  -5  -3   98.29   14.40 
  -6  -5  -3   99.59   12.20 
   6   5   3   89.99   12.70 
   6   5   3   88.29   11.30 
  -6   5  -3  109.49    9.90 
  -6   5  -3   84.79    9.00 
   7  -5   3    4.20    4.60 
  -7  -5  -3    9.80    4.10 
  -7  -5  -3    6.80    5.40 
  -7  -5  -3    2.60    3.00 
   7   5   3   12.60    6.60 
  -7   5  -3   14.70    4.20 
  -7   5  -3   14.90    3.40 
  -8  -5  -3   65.29   10.90 
  -8  -5  -3   77.59   10.20 
  -8  -5  -3   57.69   14.90 
   8   5   3   43.90   10.70 
  -8   5  -3   75.29   11.90 
  -8  -6   3    3.60    4.20 
  -8  -6   3   10.50    6.20 
  -8  -6   3    1.10    5.10 
  -8   6   3    6.40    3.70 
   8   6  -3   -6.60    5.40 
  -7  -6   3  146.09   18.50 
  -7  -6   3  112.99   14.30 
  -7  -6   3  132.69   16.00 
  -7   6   3  151.28   11.80 
  -7   6   3  116.89   12.00 
   7   6  -3  126.89   15.70 
  -6  -6   3   65.29   11.00 
  -6  -6   3   62.49   13.40 
   6  -6  -3   67.99    7.20 
  -6  -6   3   48.50    9.90 
   6  -6  -3   55.19    8.40 
  -6   6   3   75.89    7.30 
   6   6  -3   70.69   10.70 
  -6   6   3   82.09    9.20 
  -5  -6   3  206.68   20.50 
   5  -6  -3  150.58   14.60 
  -5  -6   3  204.88   19.70 
  -5  -6   3  166.58   17.30 
   5  -6  -3  175.08   15.20 
   5   6  -3  143.39   16.60 
  -5   6   3  191.28   13.40 
  -5   6   3  182.48   16.00 
  -4  -6   3   14.90    6.20 
   4  -6  -3   24.80    5.70 
  -4  -6   3   12.20    5.00 
  -4  -6   3   20.10    5.60 
  -4  -6   3    6.40    4.20 
   4  -6  -3   13.60    4.10 
  -4   6   3   15.50    4.90 
   4   6  -3   16.40    5.50 
  -4   6   3   16.80    4.00 
   4   6  -3   13.40    5.30 
   4   6  -3   12.00    6.10 
   3  -6  -3  555.04   38.80 
   3  -6  -3  622.84   42.50 
  -3  -6   3  601.04   40.20 
  -3  -6   3  670.63   45.40 
  -3  -6   3  665.13   44.10 
   3  -6  -3  612.34   40.70 
  -3  -6   3  637.04   43.70 
  -3   6   3  633.54   42.80 
   3   6  -3  678.53   45.10 
   3   6  -3  608.44   45.60 
   3   6  -3  622.34   41.80 
  -3   6   3  621.34   38.60 
  -2  -6   3 2144.59  128.29 
  -2  -6   3 2207.98  126.09 
   2  -6  -3 2103.69  121.59 
   2  -6  -3 2137.69  126.69 
  -2  -6   3 2133.89  126.99 
  -2  -6   3 2069.99  122.49 
   2  -6  -3 2072.99  126.59 
  -2   6   3 2166.78  122.29 
   2   6  -3 2201.18  128.49 
   2   6  -3 2022.70  127.39 
  -2   6   3 2102.39  126.59 
   2   6  -3 1961.20  123.79 
  -1  -6   3  261.57   21.60 
   1  -6  -3  248.58   21.60 
  -1  -6   3  250.67   20.80 
   1  -6  -3  273.87   17.60 
  -1  -6   3  239.18   17.30 
   1  -6  -3  274.07   21.30 
  -1  -6   3  282.17   23.00 
   1   6  -3  261.17   19.00 
   1   6  -3  249.08   31.00 
   1   6  -3  230.88   20.90 
  -1   6   3  260.27   21.90 
  -1   6   3  267.67   18.90 
   0  -6   3  479.65   34.00 
   0  -6   3  452.85   29.80 
   0  -6   3  464.35   32.70 
   0  -6  -3  453.95   29.50 
   0  -6  -3  445.76   29.00 
   0  -6  -3  483.55   28.70 
   0  -6  -3  448.66   33.90 
   0  -6  -3  487.45   33.00 
   0  -6   3  434.66   27.40 
   0   6  -3  449.46   33.70 
   0   6  -3  418.76   31.30 
   0   6   3  432.96   30.20 
   0   6   3  459.55   33.80 
  -1  -6  -3 1194.28   75.19 
  -1  -6  -3 1183.28   73.29 
  -1  -6  -3 1136.99   71.19 
  -1  -6  -3 1114.59   70.29 
   1  -6   3 1169.08   72.19 
   1  -6   3 1211.18   73.79 
  -1   6  -3 1217.48   74.09 
  -1   6  -3 1146.99   70.69 
   1   6   3 1086.39   70.59 
  -2  -6  -3  446.76   32.80 
  -2  -6  -3  459.95   28.00 
  -2  -6  -3  407.56   30.60 
   2  -6   3  375.46   26.90 
  -2  -6  -3  371.56   29.30 
   2  -6   3  417.36   30.60 
  -2  -6  -3  422.26   31.20 
  -2   6  -3  423.36   28.10 
  -2   6  -3  393.56   30.50 
   2   6   3  390.76   29.30 
   2   6   3  411.96   31.80 
   3  -6   3  463.75   31.80 
   3  -6   3  505.25   32.50 
  -3  -6  -3  506.35   36.80 
  -3  -6  -3  503.35   35.40 
  -3  -6  -3  494.25   36.70 
  -3  -6  -3  443.46   34.80 
   3   6   3  490.05   36.40 
   3   6   3  431.36   33.80 
  -3   6  -3  511.25   34.90 
  -3   6  -3  471.55   31.90 
  -4  -6  -3   11.30    4.10 
   4  -6   3    3.00    2.10 
  -4  -6  -3   10.30    4.60 
  -4  -6  -3    4.30    3.50 
  -4  -6  -3    8.20    4.60 
   4  -6   3    3.20    2.50 
   4   6   3    3.00    3.60 
  -4   6  -3    1.70    3.60 
   4   6   3    3.50    3.60 
  -4   6  -3    3.10    2.60 
   5  -6   3  177.38   16.70 
  -5  -6  -3  200.88   21.20 
  -5  -6  -3  191.88   18.30 
   5  -6   3  165.88   13.00 
  -5  -6  -3  181.68   19.10 
  -5   6  -3  185.58   15.30 
   5   6   3  177.18   18.40 
  -5   6  -3  186.88   16.40 
   5   6   3  168.88   17.90 
   6  -6   3  206.18   14.40 
   6  -6   3  188.68   20.00 
  -6  -6  -3  230.68   25.10 
  -6  -6  -3  226.38   21.80 
  -6  -6  -3  237.48   21.00 
   6   6   3  231.28   22.60 
  -6   6  -3  225.68   18.70 
  -6   6  -3  263.97   18.30 
   6   6   3  215.08   20.90 
  -7  -6  -3   73.49   11.70 
  -7  -6  -3   61.09   12.30 
   7  -6   3   75.59   11.70 
  -7  -6  -3   84.79   17.10 
  -7   6  -3   85.49    8.90 
  -7   6  -3  107.29   10.40 
   7   6   3   56.69   12.30 
  -7  -7   3   -1.30    5.10 
  -7  -7   3    1.00    3.90 
  -7   7   3   19.50    4.30 
  -6  -7   3   30.90    8.90 
   6  -7  -3   16.20    4.80 
  -6  -7   3    8.80    5.50 
  -6   7   3   25.50    5.70 
   6   7  -3   23.70    7.70 
  -5  -7   3  277.37   23.70 
  -5  -7   3  251.37   24.50 
   5  -7  -3  244.08   20.40 
  -5  -7   3  270.87   24.90 
   5  -7  -3  224.28   18.90 
   5   7  -3  228.18   22.20 
  -5   7   3  230.78   21.00 
  -5   7   3  260.87   17.80 
  -4  -7   3  231.68   21.80 
  -4  -7   3  254.37   24.60 
   4  -7  -3  201.68   17.60 
   4  -7  -3  214.48   19.90 
  -4  -7   3  225.38   23.10 
   4   7  -3  247.78   24.20 
  -4   7   3  244.08   17.20 
  -4   7   3  245.48   21.00 
   3  -7  -3   40.50    8.10 
  -3  -7   3   56.99   10.60 
   3  -7  -3   29.90    6.50 
  -3  -7   3   48.50   10.00 
  -3  -7   3   43.60    9.60 
  -3  -7   3   44.30    6.90 
  -3   7   3   29.90    7.90 
   3   7  -3   56.59   10.80 
   3   7  -3   35.90    8.10 
   3   7  -3   43.10   10.10 
  -3   7   3   36.50    5.70 
  -2  -7   3  519.25   38.70 
   2  -7  -3  470.45   35.00 
  -2  -7   3  511.85   37.20 
  -2  -7   3  518.05   36.00 
   2  -7  -3  470.05   36.30 
  -2  -7   3  486.55   32.10 
   2  -7  -3  513.35   31.90 
   2   7  -3  471.55   36.90 
  -2   7   3  510.35   37.10 
   2   7  -3  487.55   37.70 
   2   7  -3  484.25   34.10 
  -2   7   3  482.85   32.50 
   1  -7  -3  897.51   58.79 
  -1  -7   3  805.62   54.49 
  -1  -7   3  856.61   51.69 
  -1  -7   3  942.41   59.89 
   1  -7  -3  834.92   56.89 
  -1  -7   3  865.71   57.89 
   1  -7  -3  936.51   52.19 
   1   7  -3  814.82   53.69 
   1   7  -3  820.12   56.89 
   1   7  -3  915.21   59.69 
  -1   7   3  822.32   53.69 
  -1   7   3  889.71   58.69 
   0  -7  -3  532.15   31.40 
   0  -7  -3  507.85   31.60 
   0  -7   3  475.95   35.80 
   0  -7  -3  485.15   31.30 
   0  -7   3  500.85   29.70 
   0  -7  -3  493.45   37.70 
   0  -7   3  558.24   32.50 
   0  -7  -3  501.15   36.10 
   0   7  -3  470.75   36.70 
   0   7  -3  443.66   31.60 
   0   7  -3  443.66   34.20 
   0   7   3  500.15   37.40 
   0   7   3  438.66   32.90 
  -1  -7  -3  119.19   11.50 
   1  -7   3  129.39   13.40 
   1  -7   3  119.99    9.50 
  -1  -7  -3  122.09   13.30 
  -1  -7  -3  103.59   10.60 
   1  -7   3   95.99   11.60 
  -1  -7  -3   95.09   13.30 
  -1  -7  -3  104.89    9.80 
  -1   7  -3   87.09   12.20 
  -1   7  -3   82.39   10.30 
   1   7   3   94.09   12.70 
   1   7   3   91.19   10.90 
  -2  -7  -3  171.38   16.20 
   2  -7   3  144.79   12.70 
  -2  -7  -3  159.28   15.80 
  -2  -7  -3  181.68   17.10 
  -2  -7  -3  139.29   16.90 
   2   7   3  193.78   18.50 
   2   7   3  143.49   18.40 
  -2   7  -3  164.98   16.60 
  -2   7  -3  173.58   14.50 
   3  -7   3  241.78   18.70 
  -3  -7  -3  215.28   20.90 
  -3  -7  -3  218.88   20.50 
   3  -7   3  205.38   17.10 
  -3  -7  -3  252.67   22.70 
  -3  -7  -3  236.48   21.30 
  -3   7  -3  210.58   20.00 
   3   7   3  207.88   19.70 
  -3   7  -3  205.28   17.20 
   3   7   3  247.18   22.50 
   4  -7   3  381.36   28.90 
   4  -7   3  436.36   28.70 
  -4  -7  -3  376.86   37.40 
  -4  -7  -3  428.96   32.90 
  -4   7  -3  433.76   32.10 
   4   7   3  416.26   33.50 
  -4   7  -3  408.76   28.30 
   4   7   3  388.36   31.90 
  -5  -7  -3  249.78   25.40 
   5  -7   3  229.48   20.20 
   5  -7   3  250.27   17.90 
  -5  -7  -3  260.27   24.60 
  -5  -7  -3  241.88   22.60 
  -5   7  -3  266.17   22.00 
   5   7   3  212.18   22.20 
   5   7   3  243.78   23.80 
  -5   7  -3  247.28   19.50 
  -6  -7  -3   55.69   11.40 
  -6  -7  -3   79.59   16.50 
   6  -7   3   89.09   12.10 
   6  -7   3   65.99    8.50 
  -6  -7  -3   96.29   12.80 
  -6   7  -3   66.79   10.10 
  -6   7  -3   92.09   10.20 
  -6  -8   3  282.37   28.00 
   6  -8  -3  272.57   22.30 
  -6  -8   3  268.47   26.20 
   6   8  -3  265.17   26.00 
  -6   8   3  262.77   23.60 
  -6   8   3  294.17   20.50 
   5  -8  -3   30.70    7.40 
  -5  -8   3   51.29    9.80 
  -5  -8   3   52.49   11.20 
  -5  -8   3   33.70    9.30 
  -5   8   3   44.10    6.40 
  -5   8   3   42.30    8.40 
   5   8  -3   32.00    8.50 
  -4  -8   3    7.10    4.40 
   4  -8  -3    1.00    3.30 
  -4  -8   3   10.80    7.20 
  -4  -8   3    5.70    4.70 
  -4   8   3   -0.10    3.00 
  -4   8   3    1.00    2.80 
   4   8  -3   -0.50    4.20 
  -3  -8   3  229.58   21.30 
  -3  -8   3  177.88   20.70 
   3  -8  -3  195.18   18.80 
   3   8  -3  159.68   18.80 
  -3   8   3  210.88   19.80 
   3   8  -3  184.28   20.20 
  -3   8   3  165.38   15.00 
  -2  -8   3  472.35   29.10 
   2  -8  -3  459.55   34.90 
  -2  -8   3  417.46   32.50 
  -2  -8   3  434.06   34.60 
  -2  -8   3  425.86   35.50 
   2   8  -3  453.95   36.00 
   2   8  -3  380.56   30.60 
  -2   8   3  392.46   33.70 
   2   8  -3  424.16   34.50 
  -2   8   3  439.56   30.10 
  -1  -8   3  127.99   14.80 
  -1  -8   3  123.99   14.00 
  -1  -8   3  131.19   10.60 
  -1  -8   3  151.18   15.70 
   1  -8  -3  113.99   15.10 
   1   8  -3  132.29   14.80 
  -1   8   3  124.89   15.50 
   1   8  -3  102.09   12.00 
  -1   8   3  125.39   12.50 
   1   8  -3  149.88   16.80 
   0  -8  -3   39.30    5.70 
   0  -8  -3   43.20    8.90 
   0  -8   3   38.80    4.60 
   0  -8   3   45.90    9.30 
   0  -8  -3   53.79   10.90 
   0  -8   3   47.90    7.10 
   0   8  -3   47.10    8.80 
   0   8   3   28.00    7.20 
   0   8  -3   22.00    7.70 
   0   8   3   50.79   10.60 
  -1  -8  -3  220.48   17.80 
   1  -8   3  227.58   16.00 
  -1  -8  -3  202.38   17.40 
   1  -8   3  207.88   20.10 
  -1  -8  -3  256.67   23.60 
  -1  -8  -3  183.28   25.30 
   1   8   3  190.98   18.30 
  -1   8  -3  186.28   17.80 
  -1   8  -3  225.38   21.50 
   1   8   3  244.98   22.60 
  -2  -8  -3    3.50    4.30 
  -2  -8  -3    5.50    4.10 
  -2  -8  -3    3.00    3.80 
   2  -8   3   12.70    7.90 
  -2  -8  -3   -0.30    3.70 
   2  -8   3    0.90    2.50 
   2   8   3    5.10    3.50 
   2   8   3    8.50    5.10 
  -2   8  -3   -0.80    4.50 
  -2   8  -3    3.40    3.40 
  -3  -8  -3  161.78   16.60 
  -3  -8  -3  167.78   18.40 
   3  -8   3  159.48   15.40 
  -3  -8  -3  181.08   17.80 
   3  -8   3  125.09   12.60 
  -3  -8  -3  155.68   16.90 
   3   8   3  146.49   17.70 
  -3   8  -3  159.78   17.20 
   3   8   3  140.79   15.60 
  -3   8  -3  129.89   13.00 
  -4  -8  -3  128.19   14.80 
   4  -8   3   90.49   11.00 
  -4  -8  -3  104.39   14.10 
  -4  -8  -3  125.09   15.20 
   4  -8   3   91.49   10.70 
  -4   8  -3  108.79   13.50 
  -4   8  -3  111.29   10.40 
   4   8   3   66.59   13.60 
   4   8   3   74.09   12.10 
  -5  -8  -3   94.39   13.20 
   5  -8   3   55.99    9.80 
   5  -8   3   57.99    8.40 
  -5  -8  -3   63.99   16.40 
  -5  -8  -3   69.29   14.20 
  -5   8  -3   56.09   10.60 
   5   8   3   69.89   13.20 
   5   8   3   55.99   13.00 
  -5   8  -3   87.39    9.20 
  -5  -9   3  107.89   15.70 
  -5  -9   3  129.69   17.10 
  -5   9   3  120.09   11.90 
   5   9  -3  125.09   15.20 
  -5   9   3  123.89   14.60 
  -4  -9   3  113.49   16.50 
   4  -9  -3  123.79   15.60 
  -4  -9   3  143.09   17.50 
  -4  -9   3  126.19   20.10 
  -4   9   3  130.79   12.60 
  -4   9   3  127.59   18.20 
   4   9  -3  132.89   15.70 
  -3  -9   3   33.90   10.20 
  -3  -9   3   32.30    9.50 
  -3  -9   3   44.80   10.60 
  -3   9   3   31.10    8.00 
   3   9  -3   24.10    7.20 
  -3   9   3   30.60    6.60 
   2  -9  -3   89.99   16.20 
  -2  -9   3   99.09   14.20 
  -2  -9   3  116.99   17.80 
   2   9  -3   82.69   15.90 
  -2   9   3  113.99   11.50 
   2   9  -3   90.89   14.00 
  -2   9   3   80.79   14.20 
  -1  -9   3  139.59   17.00 
  -1  -9   3  134.29   11.00 
  -1  -9   3  129.29   14.20 
   1  -9  -3  147.99   17.90 
   1   9  -3   98.19   14.70 
   1   9  -3  146.39   17.90 
   1   9  -3  116.69   13.00 
  -1   9   3  134.99   16.70 
  -1   9   3  119.99   13.30 
   0  -9  -3  135.79   18.20 
   0  -9   3  135.49   17.30 
   0   9   3  157.38   15.40 
   0   9  -3  150.28   13.80 
   0   9  -3  152.48   16.10 
   0   9   3  124.59   22.40 
   0   9  -3  150.28   18.10 
  -1  -9  -3   22.80    7.30 
   1  -9   3   18.80    4.40 
  -1  -9  -3   26.40    6.00 
  -1  -9  -3    9.00    4.40 
   1  -9   3   12.80    5.80 
  -1   9  -3    9.50    4.40 
   1   9   3   20.80    7.20 
  -1   9  -3   17.70    5.60 
   1   9   3   18.80    5.70 
   2  -9   3   22.70    4.90 
  -2  -9  -3    6.70    8.70 
  -2  -9  -3    9.80    6.70 
  -2  -9  -3   27.80    6.80 
   2  -9   3    6.80    4.90 
  -2  -9  -3   17.20    6.40 
  -2   9  -3   23.80    5.30 
  -2   9  -3   20.40    7.10 
   2   9   3   23.90    8.20 
  -3  -9  -3   69.99   15.20 
  -3  -9  -3   73.89   13.00 
  -3  -9  -3   63.99   14.10 
   3  -9   3   65.99   11.10 
   3   9   3   56.49   12.30 
  -3   9  -3   59.69    8.70 
  -3   9  -3   71.29   12.00 
   3   9   3   63.79   13.10 
  -4  -9  -3   94.79   16.20 
  -4  -9  -3  108.79   15.30 
   4   9   3  107.19   13.70 
   4   9   3   78.39   14.90 
  -2 -10   3   78.69   12.90 
   2 -10  -3   98.09   17.00 
  -2 -10   3   66.19   12.40 
  -2  10   3   65.49   10.30 
  -2  10   3   71.69   13.80 
   2  10  -3   67.59   11.50 
  -1 -10   3  100.49   16.10 
   1 -10  -3  105.09   17.30 
  -1 -10   3  135.09   13.40 
  -1  10   3   93.19   12.50 
  -1  10   3  120.89   16.40 
   0 -10   3   59.39    7.80 
   0 -10  -3   60.09   13.20 
   0  10   3   68.29   13.00 
   0  10   3   44.00    9.50 
  -1 -10  -3   27.10    6.30 
   1 -10   3   20.70    9.20 
   1 -10   3   28.90    5.70 
  -1 -10  -3   39.10   10.50 
   1  10   3   19.60    8.30 
   1  10   3   18.30    6.50 
 -10   0   4  263.07   27.20 
  -9   0   4   23.40    7.80 
  -9   0   4    6.80    4.20 
  -9   0   4   14.50    1.90 
  -9   0   4   13.30    2.00 
  -8   0   4  174.88   17.00 
  -8   0   4  198.58   12.20 
  -8   0   4  172.88   13.10 
  -7   0   4  247.98   21.60 
  -7   0   4  313.87   17.80 
  -7   0   4  276.87   24.20 
  -7   0   4  283.87   24.70 
  -7   0   4  262.67   24.40 
   6   0  -4  108.19    8.20 
  -6   0   4   96.19   10.70 
  -6   0   4   94.69   11.80 
  -6   0   4  121.09    8.00 
   6   0  -4   99.99   12.50 
  -6   0   4  105.89   13.00 
  -5   0   4    9.60    1.90 
  -5   0   4    5.80    3.50 
   5   0  -4    7.60    2.10 
   5   0  -4   14.80    4.60 
  -5   0   4    5.90    3.10 
  -5   0   4    8.90    3.60 
   4   0  -4 4952.30  272.57 
  -4   0   4 4919.11  276.07 
  -4   0   4 4823.22  275.57 
  -4   0   4 5079.39  271.87 
   4   0  -4 4610.14  276.47 
  -4   0   4 4535.25  273.87 
   3   0  -4 3325.57  222.58 
  -3   0   4 4284.77  220.88 
  -3   0   4 4297.17  223.78 
   3   0  -4 3832.62  223.88 
  -3   0   4 3800.82  221.98 
  -2   0   4  561.84   34.10 
   2   0  -4  552.04   34.40 
   2   0  -4  545.05   32.80 
  -2   0   4  534.65   33.10 
  -2   0   4  602.84   32.90 
   2   0  -4  511.35   33.30 
  -1   0   4  308.87   18.20 
   1   0  -4  277.77   17.60 
  -1   0   4  275.87   17.50 
  -1   0   4  297.87   17.40 
   1   0  -4  260.57   17.60 
   1   0  -4  269.57   18.60 
   0   0   4 4432.36  250.47 
   0   0  -4 4449.06  250.47 
   1   0   4 3425.26  200.58 
  -1   0  -4 3489.85  200.98 
  -1   0  -4 3572.84  201.88 
  -1   0  -4 3724.93  200.28 
   1   0   4 3571.54  202.78 
  -2   0  -4 3429.66  188.78 
   2   0   4 3255.97  186.88 
  -2   0  -4 3377.26  186.48 
  -2   0  -4 3282.07  186.58 
   2   0   4 3221.58  189.58 
   2   0   4 3217.28  187.08 
   3   0   4  533.85   36.70 
   3   0   4  535.35   33.00 
  -3   0  -4  552.14   35.60 
  -3   0  -4  555.64   33.20 
   3   0   4  522.35   33.90 
  -3   0  -4  559.54   32.60 
   4   0   4  170.98   15.20 
  -4   0  -4  176.28   13.20 
  -4   0  -4  184.68   12.00 
  -4   0  -4  174.38   15.50 
   4   0   4  175.08   16.50 
   4   0   4  174.68   12.50 
  -5   0  -4  981.30   57.19 
   5   0   4  926.71   64.49 
  -5   0  -4  956.30   59.49 
   5   0   4  986.50   57.99 
  -5   0  -4 1087.19   65.89 
   5   0   4  971.80   60.79 
  -6   0  -4 1605.64   97.89 
  -6   0  -4 1771.92  103.59 
   6   0   4 1698.13   99.69 
   6   0   4 1468.25  103.39 
   6   0   4 1651.93   94.49 
  -6   0  -4 1697.13   94.69 
  -7   0  -4  182.38   12.50 
   7   0   4  169.48   20.30 
  -7   0  -4  199.08   16.30 
  -7   0  -4  189.38   14.00 
   7   0   4  193.98   17.40 
  -8   0  -4   44.80   11.70 
  -8   0  -4   54.19    5.60 
  -8   0  -4   52.79    4.60 
   8   0   4   57.09   10.70 
   9   0   4   20.20    7.80 
  -9   0  -4   26.10    9.50 
 -10  -1   4  205.18   12.70 
 -10  -1   4  217.38   13.40 
 -10  -1   4  184.98   19.50 
 -10  -1   4  174.48   23.20 
 -10   1   4  200.18   23.10 
 -10   1   4  178.88   22.40 
  -9  -1   4  223.88   15.90 
  -9  -1   4  223.68   14.20 
  -9  -1   4  191.78   19.40 
  -9  -1   4  224.98   23.90 
  -9   1   4  197.38   21.80 
  -9   1   4  211.18   19.50 
  -8  -1   4  268.17   18.70 
  -8  -1   4  235.28   24.20 
  -8  -1   4  222.48   21.00 
  -8  -1   4  278.37   16.80 
  -8   1   4  248.58   15.60 
  -8   1   4  217.68   20.40 
  -8   1   4  271.87   15.40 
  -8   1   4  244.48   23.40 
  -8   1   4  231.78   22.80 
  -7  -1   4   54.29    9.30 
  -7  -1   4   46.40    8.90 
  -7  -1   4   59.19    5.40 
  -7  -1   4   47.70   10.30 
  -7  -1   4   62.09   12.00 
  -7   1   4   53.89    8.20 
  -7   1   4   57.19   10.70 
  -7   1   4   44.30    9.10 
   7   1  -4   56.69    5.60 
  -7   1   4   53.99    4.60 
  -7   1   4   58.39   10.50 
  -6  -1   4  849.91   59.29 
  -6  -1   4  878.41   59.09 
  -6  -1   4  780.02   55.19 
   6  -1  -4  924.51   50.79 
  -6  -1   4  934.21   52.59 
   6  -1  -4  902.21   50.59 
  -6   1   4 1002.80   51.79 
  -6   1   4  835.12   55.09 
  -6   1   4  848.72   57.29 
  -6   1   4  905.01   57.59 
   6   1  -4  846.52   59.79 
  -6   1   4  873.81   57.39 
  -5  -1   4  548.95   39.10 
   5  -1  -4  576.24   34.90 
   5  -1  -4  572.94   39.70 
  -5  -1   4  542.65   40.20 
  -5  -1   4  626.84   35.80 
   5   1  -4  607.14   36.80 
  -5   1   4  589.44   39.10 
  -5   1   4  574.24   37.60 
   5   1  -4  541.35   40.90 
  -5   1   4  566.74   39.10 
  -5   1   4  677.13   35.00 
  -4  -1   4 2042.90  118.09 
   4  -1  -4 2021.90  118.09 
  -4  -1   4 2062.69  119.19 
  -4  -1   4 1859.31  116.39 
  -4  -1   4 2122.09  115.09 
   4  -1  -4 2051.29  114.09 
   4  -1  -4 1717.73  115.79 
   4   1  -4 1875.71  119.29 
   4   1  -4 2038.00  115.89 
  -4   1   4 2197.48  114.29 
  -4   1   4 1964.90  115.99 
  -4   1   4 2079.09  117.39 
   3  -1  -4 5675.93  359.66 
  -3  -1   4 6850.31  359.36 
   3  -1  -4 6368.16  360.96 
  -3  -1   4 6698.53  362.36 
  -3  -1   4 6376.96  361.36 
  -3  -1   4 5910.81  359.86 
   3  -1  -4 6584.14  358.36 
  -3   1   4 6178.18  359.46 
   3   1  -4 6434.76  359.96 
   3   1  -4 6024.20  362.26 
  -3   1   4 6582.34  358.66 
  -3   1   4 6756.82  360.36 
   2  -1  -4 3156.78  190.18 
  -2  -1   4 3468.75  190.08 
  -2  -1   4 3520.55  191.78 
  -2  -1   4 3434.66  191.18 
  -2  -1   4 3150.68  190.08 
   2  -1  -4 3444.06  189.48 
   2  -1  -4 3312.57  190.48 
   2   1  -4 3447.16  190.58 
  -2   1   4 3499.45  189.78 
  -2   1   4 3409.46  189.78 
  -2   1   4 3153.28  189.78 
   2   1  -4 3222.58  191.88 
  -1  -1   4 5492.25  285.47 
  -1  -1   4 5045.80  285.87 
   1  -1  -4 5081.79  285.07 
  -1  -1   4 4958.80  284.57 
   1   1  -4 5091.19  285.57 
  -1   1   4 5418.36  285.47 
   1   1  -4 4863.11  286.37 
   1   1  -4 4502.95  284.67 
   0  -1  -4  165.28   10.90 
   0  -1   4  164.38   10.80 
   0  -1  -4  178.48   11.00 
   0   1  -4  154.68   10.90 
   0   1  -4  138.69    9.90 
   0   1  -4  165.28   11.90 
   0   1   4  156.08   11.20 
   0   1   4  146.49   11.20 
   0   1   4  157.38   10.40 
  -1  -1  -4 2732.33  155.28 
   1  -1   4 2833.12  155.68 
  -1  -1  -4 2747.82  154.38 
  -1  -1  -4 2872.41  153.78 
   1   1   4 2712.23  154.98 
   1   1   4 2530.55  155.78 
  -1   1  -4 2649.43  154.18 
   1   1   4 2652.63  154.18 
  -2  -1  -4 4489.05  244.78 
   2  -1   4 4104.19  244.08 
  -2  -1  -4 4275.27  246.78 
   2  -1   4 4328.37  247.08 
  -2   1  -4 4295.27  244.38 
  -2   1  -4 4762.72  246.08 
   2   1   4 4152.28  247.58 
   2   1   4 4207.88  245.28 
   3  -1   4 1846.62  116.19 
  -3  -1  -4 2014.20  113.69 
  -3  -1  -4 2073.59  116.59 
   3  -1   4 2002.00  112.39 
  -3  -1  -4 1944.51  112.99 
   3   1   4 1859.91  116.99 
  -3   1  -4 2045.50  115.09 
  -3   1  -4 2029.20  112.49 
   3   1   4 1963.60  113.89 
  -3   1  -4 1982.30  112.39 
   3   1   4 1893.31  114.49 
   4  -1   4  815.02   53.09 
   4  -1   4  809.62   47.60 
  -4  -1  -4  813.72   52.49 
  -4  -1  -4  816.12   48.10 
   4  -1   4  821.62   49.30 
  -4  -1  -4  812.32   49.50 
   4   1   4  799.12   49.10 
  -4   1  -4  806.42   48.40 
   4   1   4  742.93   53.19 
  -4   1  -4  810.22   47.50 
  -4   1  -4  825.42   51.19 
   4   1   4  829.42   50.79 
   5  -1   4  267.37   16.80 
   5  -1   4  239.68   22.60 
  -5  -1  -4  278.47   22.70 
  -5  -1  -4  268.37   17.50 
  -5  -1  -4  253.67   19.30 
   5  -1   4  281.27   19.70 
   5   1   4  239.68   23.10 
  -5   1  -4  300.67   21.90 
   5   1   4  257.47   18.40 
  -5   1  -4  259.57   18.50 
  -5   1  -4  264.67   16.90 
   5   1   4  249.18   20.40 
  -6  -1  -4   67.89   12.00 
   6  -1   4   62.19    8.40 
   6  -1   4   68.39   11.40 
  -6  -1  -4   63.89    6.10 
  -6  -1  -4   59.99    7.10 
   6   1   4   49.30   11.50 
  -6   1  -4   63.39    9.30 
  -6   1  -4   66.49    5.60 
   6   1   4   61.69    9.10 
   6   1   4   63.39    6.50 
  -6   1  -4   69.79    7.60 
   7  -1   4  192.98   17.00 
  -7  -1  -4  180.28   20.80 
  -7  -1  -4  194.48   15.30 
  -7  -1  -4  200.18   13.50 
   7  -1   4  182.08   20.90 
  -7   1  -4  190.58   13.30 
   7   1   4  188.78   17.80 
  -7   1  -4  185.98   12.60 
  -7   1  -4  184.68   16.80 
   8  -1   4   13.30    5.80 
  -8  -1  -4   12.60    6.50 
  -8  -1  -4   14.50    3.30 
  -8  -1  -4   10.60    2.40 
  -8   1  -4    3.80    3.00 
  -8   1  -4   10.90    6.00 
   8   1   4    5.10    4.30 
  -9  -1  -4   46.80    6.30 
  -9  -1  -4   33.10   10.50 
  -9  -1  -4   49.70    4.40 
  -9   1  -4   47.20   12.70 
  -9   1  -4   38.00    7.60 
   9   1   4   36.90    9.00 
 -10  -2   4   77.19   16.10 
 -10  -2   4   79.39   11.90 
 -10  -2   4   88.79    7.50 
 -10  -2   4   92.69    9.00 
 -10   2   4   78.39   12.30 
 -10   2   4  107.29   14.80 
  -9  -2   4   52.29    8.00 
  -9  -2   4   46.30    9.90 
  -9  -2   4   41.10   10.80 
  -9  -2   4   60.29    5.90 
  -9   2   4   45.40    9.50 
  -9   2   4   49.10   10.50 
  -8  -2   4  107.59   15.50 
  -8  -2   4  123.29   12.10 
  -8  -2   4  115.79   13.20 
  -8  -2   4  126.69   10.30 
  -8   2   4  119.29   14.20 
  -8   2   4  113.99   14.70 
  -8   2   4  138.99   13.80 
  -7  -2   4  308.97   22.30 
  -7  -2   4  257.57   23.80 
  -7  -2   4  286.97   20.20 
  -7  -2   4  264.07   26.50 
  -7   2   4  328.97   22.80 
  -7   2   4  302.57   18.40 
  -7   2   4  282.27   23.80 
  -7   2   4  276.47   23.20 
  -7   2   4  275.67   23.50 
  -6  -2   4  359.96   28.90 
  -6  -2   4  378.56   31.00 
  -6  -2   4  328.37   27.10 
  -6  -2   4  393.56   25.70 
  -6  -2   4  387.96   27.30 
  -6   2   4  397.36   24.30 
   6   2  -4  439.56   27.30 
  -6   2   4  349.96   29.80 
  -6   2   4  367.56   27.90 
  -6   2   4  411.56   27.40 
   6   2  -4  391.06   32.00 
  -6   2   4  400.06   28.50 
   6   2  -4  439.16   30.30 
  -5  -2   4   58.99    8.30 
  -5  -2   4   51.29   10.10 
  -5  -2   4   68.09    6.60 
   5  -2  -4   65.69    6.20 
   5  -2  -4   58.29    4.70 
   5  -2  -4   45.30    6.40 
   5   2  -4   54.09    8.00 
   5   2  -4   45.90    9.80 
  -5   2   4   57.49    7.10 
  -5   2   4   57.29    5.40 
   5   2  -4   57.49    6.90 
  -5   2   4   59.29    7.70 
   4  -2  -4 1442.56   78.79 
  -4  -2   4 1458.55   81.09 
  -4  -2   4 1371.26   84.59 
  -4  -2   4 1329.47   82.79 
   4  -2  -4 1340.47   81.69 
   4  -2  -4 1206.68   80.79 
  -4   2   4 1405.76   79.79 
  -4   2   4 1400.86   80.49 
   4   2  -4 1275.87   84.79 
   4   2  -4 1437.96   83.19 
  -4   2   4 1433.46   81.09 
   4   2  -4 1378.36   81.89 
   3  -2  -4 3035.10  186.48 
   3  -2  -4 3125.19  186.38 
  -3  -2   4 3151.98  187.78 
  -3  -2   4 3361.46  186.88 
   3  -2  -4 3409.46  185.18 
  -3   2   4 3252.77  185.58 
   3   2  -4 2997.90  189.38 
   3   2  -4 3331.57  187.68 
  -3   2   4 3400.86  186.08 
  -3   2   4 3420.76  186.88 
   3   2  -4 3487.15  188.28 
  -2  -2   4 7812.72  432.46 
   2  -2  -4 7544.95  429.66 
  -2  -2   4 8057.89  431.16 
  -2  -2   4 7672.83  431.26 
  -2  -2   4 6875.71  430.06 
   2   2  -4 7159.38  432.96 
   2   2  -4 7994.50  431.86 
  -2   2   4 7998.10  430.76 
   1  -2  -4 3581.24  190.38 
   1  -2  -4 3341.47  190.88 
  -1  -2   4 2997.30  191.48 
  -1  -2   4 3282.07  190.78 
  -1  -2   4 3433.46  191.48 
  -1  -2   4 2972.80  189.98 
   1  -2  -4 3655.53  189.98 
  -1   2   4 3869.41  190.38 
   1   2  -4 3277.07  191.98 
  -1   2   4 3228.08  190.08 
  -1   2   4 3355.76  191.58 
   0  -2  -4  875.51   49.90 
   0  -2  -4  931.01   48.60 
   0  -2   4  838.82   49.50 
   0  -2  -4  871.71   49.10 
   0   2  -4  780.52   50.19 
   0   2  -4  784.72   49.99 
   0   2   4  747.33   49.50 
   0   2   4  824.62   50.29 
   0   2   4  857.81   49.00 
   1  -2   4 2853.61  147.79 
  -1  -2  -4 2507.15  147.69 
  -1  -2  -4 2515.05  147.39 
  -1   2  -4 2971.50  147.49 
   1   2   4 2330.67  148.19 
   1   2   4 2550.44  148.19 
   1   2   4 2402.46  146.89 
  -1   2  -4 2465.75  147.29 
  -2  -2  -4 2611.04  152.58 
  -2  -2  -4 2747.43  151.18 
  -2  -2  -4 2726.93  150.58 
   2  -2   4 2636.24  152.18 
   2  -2   4 2497.35  149.39 
  -2   2  -4 2915.11  150.98 
  -2   2  -4 2581.54  150.58 
   2   2   4 2356.46  152.98 
   3  -2   4  245.48   15.40 
   3  -2   4  243.98   18.90 
  -3  -2  -4  230.88   16.70 
  -3  -2  -4  242.28   19.30 
  -3  -2  -4  254.67   17.20 
   3   2   4  222.18   19.60 
   3   2   4  225.88   17.40 
   3   2   4  222.28   17.70 
  -3   2  -4  236.68   16.20 
  -3   2  -4  262.07   17.50 
  -4  -2  -4  470.25   29.30 
  -4  -2  -4  407.06   28.20 
  -4  -2  -4  432.76   31.40 
   4  -2   4  399.96   30.60 
   4  -2   4  437.46   25.80 
  -4  -2  -4  428.56   27.50 
  -4   2  -4  416.76   26.60 
  -4   2  -4  454.35   29.10 
   4   2   4  382.16   31.60 
   4   2   4  439.86   28.70 
   4   2   4  395.06   29.20 
  -5  -2  -4  325.57   21.90 
   5  -2   4  312.87   19.70 
  -5  -2  -4  332.37   26.50 
  -5  -2  -4  324.37   23.20 
   5  -2   4  295.27   25.90 
  -5  -2  -4  318.87   23.20 
   5   2   4  310.47   27.50 
   5   2   4  321.87   24.80 
  -5   2  -4  324.77   24.10 
   5   2   4  342.67   23.10 
  -5   2  -4  335.97   21.00 
  -6  -2  -4  295.07   22.50 
  -6  -2  -4  288.07   27.50 
  -6  -2  -4  320.07   20.60 
  -6  -2  -4  307.77   22.30 
   6  -2   4  267.77   25.60 
  -6   2  -4  310.37   19.50 
   6   2   4  295.77   21.30 
   6   2   4  271.47   26.90 
   6   2   4  320.87   24.70 
  -6   2  -4  270.27   20.30 
  -6   2  -4  315.87   24.00 
  -6   2  -4  287.37   20.50 
  -7  -2  -4  105.89   10.30 
  -7  -2  -4   95.19    8.60 
   7  -2   4   82.79   13.40 
  -7  -2  -4   91.99   14.50 
  -7   2  -4   94.89    7.30 
   7   2   4   91.29    8.90 
  -7   2  -4   87.29    9.40 
  -7   2  -4   83.49    9.10 
   7   2   4  100.99   12.30 
   8  -2   4    0.80    4.80 
  -8  -2  -4    2.00    2.10 
  -8  -2  -4    4.20    3.80 
  -8  -2  -4    5.40    3.10 
  -8   2  -4    8.10    3.70 
   8   2   4    5.60    3.90 
  -8   2  -4    4.00    3.70 
  -9  -2  -4   77.39   16.60 
  -9  -2  -4   76.89    8.10 
  -9   2  -4   62.19    9.20 
   9   2   4   69.09   14.40 
  -9   2  -4   52.89   13.60 
  -9  -3   4  164.78   13.90 
  -9  -3   4  147.79   20.30 
  -9  -3   4  152.08   17.30 
  -9  -3   4  192.08   16.70 
  -9   3   4  189.58   17.10 
  -9   3   4  174.58   18.40 
  -8  -3   4   86.49   10.80 
  -8  -3   4  105.49   15.00 
  -8  -3   4   67.79   10.40 
  -8  -3   4   91.29    9.10 
  -8   3   4   99.29   11.50 
  -8   3   4   84.59   11.20 
  -8   3   4   78.19   11.40 
   8   3  -4   76.29   12.10 
  -7  -3   4   38.00    9.50 
  -7  -3   4   29.70    6.20 
  -7  -3   4   28.20    5.20 
  -7   3   4   25.70    7.80 
  -7   3   4   33.00    6.80 
  -7   3   4   33.90    4.00 
  -7   3   4   32.40    7.10 
   7   3  -4   22.60    6.90 
  -7   3   4   26.20    6.50 
  -6  -3   4  410.46   29.40 
   6  -3  -4  403.86   23.60 
   6  -3  -4  399.86   24.00 
  -6  -3   4  390.16   30.30 
  -6  -3   4  437.16   28.10 
  -6  -3   4  449.16   33.70 
  -6   3   4  346.77   29.10 
  -6   3   4  382.86   27.50 
  -6   3   4  353.96   32.10 
   6   3  -4  395.56   33.50 
  -6   3   4  412.66   26.00 
   6   3  -4  400.26   28.70 
  -6   3   4  396.06   27.30 
   6   3  -4  435.16   31.10 
   5  -3  -4  830.92   47.50 
   5  -3  -4  816.92   49.40 
  -5  -3   4  834.72   51.09 
  -5  -3   4  850.81   55.59 
  -5  -3   4  782.12   52.69 
   5  -3  -4  713.03   50.29 
  -5  -3   4  856.51   52.79 
  -5   3   4  818.72   49.40 
  -5   3   4  779.32   49.80 
   5   3  -4  770.32   55.99 
  -5   3   4  848.12   49.99 
  -5   3   4  856.01   49.90 
   5   3  -4  833.92   53.19 
   5   3  -4  825.92   52.19 
   4  -3  -4 1513.45   83.79 
  -4  -3   4 1549.64   86.59 
  -4  -3   4 1428.36   87.99 
   4  -3  -4 1455.85   81.79 
  -4  -3   4 1410.06   85.79 
   4  -3  -4 1319.17   83.89 
  -4  -3   4 1529.25   85.09 
  -4   3   4 1214.28   82.19 
   4   3  -4 1417.36   85.79 
  -4   3   4 1424.56   82.09 
   4   3  -4 1427.66   85.79 
   4   3  -4 1309.47   88.19 
  -4   3   4 1449.55   82.79 
  -4   3   4 1458.85   83.59 
  -3  -3   4  167.08   13.10 
   3  -3  -4  146.69   10.90 
  -3  -3   4  149.29   12.80 
   3  -3  -4  149.09   12.20 
  -3  -3   4  160.18   14.50 
   3  -3  -4  152.78   12.30 
   3   3  -4  147.59   13.30 
  -3   3   4  146.09   12.00 
   3   3  -4  158.08   13.00 
   3   3  -4  138.79   14.20 
  -3   3   4  166.58   11.30 
  -2  -3   4 2946.21  162.58 
  -2  -3   4 2924.21  161.58 
   2  -3  -4 2825.22  159.88 
   2  -3  -4 2870.01  159.68 
  -2  -3   4 2632.14  160.38 
   2   3  -4 2847.42  160.68 
   2   3  -4 2920.41  162.48 
   2   3  -4 2679.53  162.78 
  -2   3   4 2534.25  163.78 
  -1  -3   4 1901.81  119.89 
   1  -3  -4 2377.46  118.49 
  -1  -3   4 2220.38  120.59 
   1  -3  -4 2055.49  119.69 
  -1  -3   4 1955.50  118.49 
   1   3  -4 2104.39  118.79 
   1   3  -4 2080.69  121.09 
  -1   3   4 1932.41  117.89 
  -1   3   4 2072.99  120.59 
   1   3  -4 2019.90  120.99 
   0  -3   4 2224.38  127.09 
   0  -3  -4 2065.69  125.59 
   0  -3  -4 2181.38  127.29 
   0  -3   4 2495.05  126.59 
   0  -3  -4 2311.57  125.39 
   0   3  -4 2153.38  127.89 
   0   3   4 1947.01  126.29 
   0   3   4 2227.88  128.19 
  -1  -3  -4 1953.90  116.39 
   1  -3   4 2239.18  115.99 
  -1  -3  -4 2053.29  116.89 
  -1  -3  -4 2042.80  115.09 
   1   3   4 1943.01  115.99 
  -1   3  -4 1964.90  116.49 
  -1   3  -4 1995.40  116.99 
   1   3   4 2048.59  117.69 
   1   3   4 1821.52  116.99 
   2  -3   4   17.00    3.00 
  -2  -3  -4   22.70    5.30 
  -2  -3  -4   14.70    3.70 
   2  -3   4   16.30    4.70 
  -2  -3  -4   21.60    4.30 
  -2  -3  -4   18.70    4.70 
  -2   3  -4   27.90    4.80 
   2   3   4   14.50    4.30 
   2   3   4   19.60    4.20 
   2   3   4   22.50    4.60 
  -2   3  -4   16.50    3.50 
  -3  -3  -4  191.28   16.50 
  -3  -3  -4  191.28   15.60 
   3  -3   4  174.98   15.20 
   3  -3   4  170.58   12.30 
  -3  -3  -4  187.78   14.30 
  -3  -3  -4  197.18   14.80 
  -3   3  -4  206.18   14.00 
  -3   3  -4  185.48   14.10 
   3   3   4  166.98   16.50 
   3   3   4  164.08   14.80 
   4  -3   4  905.91   52.19 
   4  -3   4  847.62   50.09 
  -4  -3  -4  822.12   56.19 
  -4  -3  -4  877.51   53.39 
  -4  -3  -4  843.02   54.39 
   4  -3   4  808.32   54.99 
  -4  -3  -4  892.11   53.29 
   4   3   4  864.31   54.39 
   4   3   4  827.92   54.59 
   4   3   4  766.42   56.79 
  -4   3  -4  976.60   53.09 
  -4   3  -4  846.02   52.09 
  -5  -3  -4  144.29   13.20 
   5  -3   4  132.79   15.00 
   5  -3   4  136.09    9.80 
  -5  -3  -4  156.68   14.10 
  -5  -3  -4  130.29   12.30 
  -5  -3  -4  134.59   16.40 
  -5  -3  -4  141.59   15.80 
   5  -3   4  151.58   11.00 
   5   3   4  157.38   13.60 
  -5   3  -4  178.58   13.90 
   5   3   4  145.99   14.80 
  -5   3  -4  149.79   11.70 
  -6  -3  -4  105.59   10.40 
  -6  -3  -4  108.99   15.20 
  -6  -3  -4  114.19   11.90 
   6  -3   4  106.49   13.90 
  -6   3  -4  120.39    9.60 
  -6   3  -4  103.79   11.80 
   6   3   4  116.19   11.40 
   6   3   4  102.69   13.90 
  -7  -3  -4   94.59   14.60 
   7  -3   4   76.29   12.80 
  -7  -3  -4   89.69    9.10 
  -7  -3  -4   93.79   10.70 
  -7   3  -4   93.59    7.60 
   7   3   4   92.19    9.80 
   7   3   4   85.69   12.30 
   8  -3   4   57.09   13.30 
  -8  -3  -4   47.60   13.10 
  -8  -3  -4   44.80    8.70 
  -8  -3  -4   62.69    7.10 
   8   3   4   74.59   11.00 
  -8   3  -4   68.89    8.10 
  -9  -4   4  118.39   13.60 
  -9  -4   4   77.69   16.10 
  -9  -4   4   86.89   12.60 
  -9  -4   4  110.79   11.30 
   9   4  -4  101.29   14.80 
  -9   4   4   94.99   12.10 
  -9   4   4  117.99   13.20 
  -9   4   4  109.09   12.10 
  -8  -4   4   90.09   17.40 
  -8  -4   4   97.39   10.70 
  -8  -4   4   95.89   11.90 
  -8   4   4   90.99   11.00 
  -8   4   4   90.19   10.30 
   8   4  -4  117.89   14.40 
  -8   4   4   84.69   10.60 
  -8   4   4   97.49    7.60 
  -7  -4   4  203.68   16.70 
  -7  -4   4  196.18   18.10 
  -7  -4   4  173.28   20.70 
  -7   4   4  173.58   15.10 
   7   4  -4  183.08   18.90 
  -7   4   4  188.68   14.00 
  -7   4   4  164.68   14.20 
  -7   4   4  182.58   15.30 
   6  -4  -4  243.38   16.40 
  -6  -4   4  282.97   22.10 
   6  -4  -4  223.48   18.80 
  -6  -4   4  250.07   19.80 
  -6  -4   4  201.98   25.90 
  -6   4   4  265.07   18.20 
  -6   4   4  238.58   17.50 
  -6   4   4  232.38   22.20 
  -6   4   4  232.08   17.10 
   6   4  -4  273.17   24.20 
  -5  -4   4  169.68   18.30 
   5  -4  -4  200.28   17.40 
   5  -4  -4  195.18   12.90 
   5  -4  -4  167.08   15.10 
  -5  -4   4  191.28   16.40 
  -5  -4   4  190.68   16.90 
  -5  -4   4  162.38   16.60 
  -5   4   4  186.48   14.80 
  -5   4   4  212.08   14.50 
   5   4  -4  195.18   17.10 
   5   4  -4  180.98   17.00 
   5   4  -4  180.48   19.20 
  -4  -4   4  359.06   27.70 
  -4  -4   4  400.56   28.20 
  -4  -4   4  442.66   30.00 
   4  -4  -4  351.26   26.40 
   4  -4  -4  394.26   27.00 
   4  -4  -4  368.06   24.80 
  -4  -4   4  395.36   30.40 
   4   4  -4  435.56   29.70 
   4   4  -4  381.76   28.30 
  -4   4   4  443.26   25.30 
   4   4  -4  377.56   31.00 
  -4   4   4  392.26   27.00 
  -3  -4   4  618.24   40.50 
  -3  -4   4  636.64   39.50 
   3  -4  -4  561.04   36.90 
  -3  -4   4  593.14   40.50 
   3  -4  -4  556.14   38.20 
   3  -4  -4  596.24   36.70 
  -3  -4   4  542.75   37.80 
   3   4  -4  597.94   40.10 
   3   4  -4  560.34   38.20 
  -3   4   4  606.84   38.50 
  -3   4   4  684.83   36.10 
   3   4  -4  524.95   40.50 
   2  -4  -4 1680.83  102.29 
  -2  -4   4 1718.23  102.39 
  -2  -4   4 1769.72  102.99 
   2  -4  -4 1704.03   99.59 
  -2  -4   4 1814.92  103.89 
  -2  -4   4 1628.04  100.29 
   2  -4  -4 1731.43  100.89 
   2   4  -4 1580.74  100.49 
   2   4  -4 1769.62  103.69 
  -2   4   4 1930.11   99.59 
   2   4  -4 1571.64  103.29 
  -2   4   4 1786.62  102.39 
   1  -4  -4  673.93   42.80 
  -1  -4   4  598.24   41.20 
   1  -4  -4  692.83   41.50 
  -1  -4   4  589.84   39.10 
  -1  -4   4  717.53   42.50 
  -1  -4   4  698.43   43.40 
  -1   4   4  691.43   39.90 
   1   4  -4  605.74   39.60 
   1   4  -4  680.33   43.20 
  -1   4   4  647.64   42.90 
   1   4  -4  637.04   42.40 
   0  -4  -4  748.23   46.20 
   0  -4  -4  785.92   43.70 
   0  -4  -4  721.63   43.80 
   0  -4  -4  770.12   47.60 
   0  -4   4  757.42   47.40 
   0  -4   4  751.52   46.10 
   0   4  -4  736.33   47.20 
   0   4  -4  730.83   46.20 
   0   4   4  632.94   44.30 
   0   4   4  728.33   44.70 
   0   4   4  713.03   47.00 
   1  -4   4   77.09    8.00 
  -1  -4  -4   80.09    9.30 
  -1  -4  -4   84.19    7.30 
  -1  -4  -4   76.39    8.10 
   1  -4   4   79.39    9.00 
  -1  -4  -4   86.89    8.90 
  -1   4  -4   84.39    9.00 
   1   4   4   69.69    8.40 
   1   4   4   85.19    8.30 
  -1   4  -4   79.39    9.50 
   1   4   4   82.69    9.30 
   2  -4   4  532.25   34.20 
   2  -4   4  572.14   36.20 
  -2  -4  -4  527.85   36.20 
  -2  -4  -4  572.44   36.30 
  -2  -4  -4  561.74   34.40 
  -2  -4  -4  576.44   37.70 
   2  -4   4  561.34   35.00 
   2   4   4  529.15   35.50 
   2   4   4  494.95   36.70 
  -2   4  -4  532.95   34.80 
   2   4   4  528.75   36.90 
  -2   4  -4  530.65   35.90 
  -3  -4  -4  305.77   21.50 
  -3  -4  -4  313.97   23.80 
  -3  -4  -4  312.97   22.60 
  -3  -4  -4  284.47   24.70 
   3  -4   4  321.87   22.20 
  -3  -4  -4  287.67   23.60 
   3  -4   4  294.27   19.90 
   3  -4   4  304.57   22.40 
   3   4   4  307.37   23.60 
  -3   4  -4  303.17   22.20 
   3   4   4  286.67   22.60 
   4  -4   4  167.38   16.20 
   4  -4   4  171.38   12.50 
  -4  -4  -4  177.48   18.80 
  -4  -4  -4  198.18   16.00 
   4  -4   4  185.98   14.70 
  -4  -4  -4  182.08   16.90 
  -4  -4  -4  168.38   18.00 
  -4  -4  -4  179.28   15.30 
  -4   4  -4  184.68   15.10 
   4   4   4  183.58   16.70 
  -4   4  -4  216.08   14.80 
   5  -4   4  740.73   51.39 
  -5  -4  -4  748.53   50.99 
  -5  -4  -4  697.53   54.19 
   5  -4   4  732.83   44.80 
  -5  -4  -4  804.32   49.50 
  -5   4  -4  749.82   47.90 
   5   4   4  731.83   50.09 
  -5   4  -4  880.81   48.30 
  -6  -4  -4  205.38   21.90 
  -6  -4  -4  172.58   16.00 
   6  -4   4  192.48   19.50 
  -6  -4  -4  161.68   17.20 
  -6   4  -4  209.58   16.50 
   6   4   4  183.58   16.80 
  -6   4  -4  192.68   15.00 
   6   4   4  200.08   19.10 
  -7  -4  -4   62.79    8.40 
  -7  -4  -4   72.19    9.70 
  -7  -4  -4   51.89   13.00 
   7  -4   4   56.99   12.20 
  -7   4  -4   60.09    6.50 
   7   4   4   61.59   12.30 
   7   4   4   60.49    9.30 
  -8  -4  -4   82.99   17.40 
   8  -4   4   75.99   14.70 
  -8  -4  -4  110.79   12.20 
  -8  -4  -4   84.39    9.60 
   8   4   4   59.79   14.80 
  -9  -5   4   77.09   16.00 
  -9  -5   4   75.59    9.90 
  -9  -5   4   74.39   13.60 
  -9   5   4   77.19    9.50 
  -9   5   4   69.89    9.70 
   9   5  -4   59.59   12.80 
  -8  -5   4  101.29   13.50 
  -8  -5   4  111.19   16.10 
  -8  -5   4  118.99   13.00 
  -8   5   4  125.49   11.70 
  -8   5   4  108.69   11.00 
  -8   5   4  104.29    9.60 
  -8   5   4  105.39    9.50 
   8   5  -4  135.19   16.30 
  -7  -5   4   23.70    8.00 
  -7  -5   4   26.90    7.20 
  -7  -5   4   23.10    5.80 
   7   5  -4   31.30    9.30 
  -7   5   4   30.90    5.90 
  -7   5   4   17.90    4.00 
  -6  -5   4  271.47   25.70 
   6  -5  -4  259.47   18.50 
  -6  -5   4  272.07   23.80 
  -6  -5   4  259.97   22.00 
   6  -5  -4  216.18   19.70 
  -6   5   4  293.27   18.80 
  -6   5   4  240.78   19.60 
   6   5  -4  263.97   23.30 
  -5  -5   4  483.25   33.50 
  -5  -5   4  414.56   34.00 
  -5  -5   4  462.75   33.00 
  -5  -5   4  455.45   35.70 
   5  -5  -4  378.76   31.30 
   5   5  -4  431.76   33.10 
   5   5  -4  456.55   34.00 
  -5   5   4  532.95   29.20 
  -5   5   4  419.26   33.00 
  -4  -5   4  252.77   22.30 
  -4  -5   4  239.08   20.10 
   4  -5  -4  237.18   19.20 
  -4  -5   4  251.87   22.70 
   4  -5  -4  261.17   20.10 
  -4  -5   4  275.07   21.60 
   4  -5  -4  243.98   18.00 
   4   5  -4  233.28   22.90 
   4   5  -4  248.68   20.80 
  -4   5   4  294.97   17.80 
   4   5  -4  286.57   22.70 
  -4   5   4  243.68   20.00 
  -3  -5   4 1093.59   67.19 
  -3  -5   4 1136.29   68.29 
   3  -5  -4 1027.10   63.69 
   3  -5  -4 1056.59   64.19 
   3  -5  -4 1074.49   66.39 
  -3  -5   4  980.40   64.49 
  -3  -5   4 1098.09   68.69 
  -3   5   4 1097.49   66.49 
  -3   5   4 1177.18   62.99 
   3   5  -4 1062.79   68.19 
   3   5  -4 1001.50   65.29 
   3   5  -4  936.91   68.19 
  -2  -5   4  283.67   22.20 
   2  -5  -4  285.17   22.40 
   2  -5  -4  302.67   21.10 
  -2  -5   4  274.37   19.70 
   2  -5  -4  291.77   19.40 
  -2  -5   4  306.37   23.00 
  -2  -5   4  303.77   23.60 
   2   5  -4  287.97   23.20 
   2   5  -4  262.37   22.70 
  -2   5   4  273.97   19.10 
   2   5  -4  261.57   20.10 
  -2   5   4  270.97   21.90 
   1  -5  -4   52.89    5.60 
  -1  -5   4   63.39    7.70 
  -1  -5   4   46.00    5.10 
  -1  -5   4   46.20    8.60 
   1  -5  -4   61.69    7.30 
   1  -5  -4   43.50    8.00 
  -1  -5   4   62.09    9.90 
   1   5  -4   40.20    7.70 
   1   5  -4   47.20    7.10 
  -1   5   4   49.60    6.00 
  -1   5   4   42.00    8.10 
   1   5  -4   40.50    5.40 
   0  -5   4 1291.57   78.59 
   0  -5  -4 1315.57   78.99 
   0  -5   4 1279.07   77.09 
   0  -5  -4 1208.78   74.99 
   0  -5  -4 1327.37   73.69 
   0  -5   4 1326.17   74.79 
   0  -5  -4 1289.37   77.29 
   0  -5  -4 1232.18   73.79 
   0   5  -4 1308.97   78.69 
   0   5   4 1060.99   84.79 
   0   5   4 1234.68   75.19 
   0   5  -4 1210.58   76.59 
  -1  -5  -4   98.69   13.30 
  -1  -5  -4   89.29   11.40 
  -1  -5  -4  106.19   11.10 
   1  -5   4  124.99   10.90 
   1  -5   4  111.69   11.70 
   1  -5   4  123.79    9.70 
  -1  -5  -4  107.19    9.20 
  -1  -5  -4  102.29   10.20 
   1   5   4  116.29   12.20 
   1   5   4   90.49    9.90 
  -1   5  -4  114.09   11.10 
  -1   5  -4  114.09   11.70 
   2  -5   4  465.05   31.50 
  -2  -5  -4  442.76   31.00 
  -2  -5  -4  463.15   33.00 
  -2  -5  -4  451.55   32.50 
  -2  -5  -4  487.85   31.80 
   2  -5   4  459.35   29.50 
   2  -5   4  430.46   28.90 
   2   5   4  421.86   32.10 
  -2   5  -4  358.96   38.50 
  -2   5  -4  397.06   29.60 
   2   5   4  417.46   30.30 
  -3  -5  -4  700.73   43.30 
   3  -5   4  666.23   43.70 
  -3  -5  -4  713.53   48.10 
  -3  -5  -4  707.13   45.50 
   3  -5   4  667.33   42.00 
  -3  -5  -4  723.03   47.30 
   3  -5   4  691.33   44.60 
  -3  -5  -4  649.74   45.70 
   3   5   4  617.34   44.50 
  -3   5  -4  707.33   45.10 
   3   5   4  653.13   46.10 
  -3   5  -4  648.64   42.90 
   4  -5   4  655.33   40.40 
  -4  -5  -4  665.53   48.40 
  -4  -5  -4  711.93   45.10 
   4  -5   4  615.44   43.70 
  -4  -5  -4  661.83   46.30 
  -4  -5  -4  638.04   46.40 
  -4   5  -4  642.84   43.60 
  -4   5  -4  737.53   42.30 
   4   5   4  613.34   45.20 
   5  -5   4  226.18   21.00 
  -5  -5  -4  238.48   20.30 
  -5  -5  -4  226.18   24.00 
   5  -5   4  225.88   16.00 
  -5  -5  -4  251.57   22.20 
   5   5   4  238.48   21.80 
   5   5   4  232.58   21.10 
  -5   5  -4  285.27   18.90 
  -5   5  -4  240.78   19.30 
   6  -5   4   36.20    8.50 
  -6  -5  -4   22.20    6.00 
   6  -5   4   23.70    3.10 
  -6  -5  -4   34.00    9.30 
  -6  -5  -4   22.40    6.30 
  -6   5  -4   28.00    5.60 
  -6   5  -4   28.90    5.90 
   6   5   4   24.80    6.00 
   6   5   4   19.80    8.00 
   7  -5   4   17.20    6.90 
  -7  -5  -4   32.10    7.60 
  -7  -5  -4   19.70    8.70 
  -7  -5  -4   19.50    5.20 
   7   5   4   17.90    6.70 
  -7   5  -4   26.60    4.80 
   7   5   4   21.40   11.40 
  -8  -5  -4   19.30    8.30 
  -8  -5  -4   20.40    6.20 
  -8  -5  -4   34.80    7.60 
   8  -5   4   27.00    9.10 
   8   5   4   31.30    9.00 
  -8  -6   4  119.09   16.50 
  -8  -6   4  137.59   19.70 
  -8  -6   4  123.69   14.90 
   8   6  -4  121.49   17.00 
  -8   6   4  163.08   12.80 
  -7  -6   4   43.10    9.10 
  -7  -6   4   38.10    9.40 
  -7  -6   4   24.30    8.60 
  -7   6   4   31.80    5.90 
   7   6  -4   30.40    7.80 
  -7   6   4   50.49    6.40 
  -6  -6   4  154.48   16.30 
   6  -6  -4  160.08   13.70 
  -6  -6   4  142.19   17.30 
  -6  -6   4  153.78   18.80 
  -6   6   4  153.78   14.00 
  -6   6   4  170.28   15.20 
   6   6  -4  154.08   17.00 
  -5  -6   4   55.49   10.10 
  -5  -6   4   36.20    8.80 
  -5  -6   4   41.50    9.90 
   5  -6  -4   50.99    7.70 
  -5   6   4   56.29    6.30 
  -5   6   4   40.30    7.40 
   5   6  -4   46.30   10.70 
  -4  -6   4   46.90    9.80 
  -4  -6   4   74.49    9.90 
  -4  -6   4   54.29    8.10 
   4  -6  -4   43.20    7.70 
  -4  -6   4   37.10    8.40 
   4  -6  -4   49.50    8.10 
   4   6  -4   35.50    9.60 
   4   6  -4   53.79   10.30 
  -4   6   4   47.90    6.00 
   4   6  -4   39.70    8.80 
  -3  -6   4  249.08   20.10 
   3  -6  -4  286.97   21.00 
   3  -6  -4  259.27   22.30 
   3  -6  -4  251.87   22.00 
  -3  -6   4  299.57   23.70 
  -3  -6   4  301.37   24.20 
  -3  -6   4  298.77   32.10 
   3   6  -4  259.77   24.20 
   3   6  -4  285.57   24.10 
  -3   6   4  272.37   19.10 
   3   6  -4  271.17   21.50 
  -3   6   4  263.47   22.20 
  -2  -6   4  503.05   33.50 
  -2  -6   4  552.54   37.40 
   2  -6  -4  510.05   37.50 
   2  -6  -4  530.95   39.60 
   2  -6  -4  535.25   33.30 
  -2  -6   4  531.25   38.90 
  -2  -6   4  546.35   37.70 
   2   6  -4  523.75   38.70 
  -2   6   4  544.15   33.80 
   2   6  -4  488.25   37.80 
   2   6  -4  477.15   34.50 
  -2   6   4  548.55   37.80 
  -1  -6   4   18.00    6.80 
   1  -6  -4   19.00    5.50 
  -1  -6   4   20.10    5.20 
   1  -6  -4   23.90    4.30 
  -1  -6   4   17.30    5.90 
   1  -6  -4   22.70    5.60 
  -1  -6   4   14.80    3.50 
   1   6  -4   14.70    5.90 
  -1   6   4   13.50    4.50 
   1   6  -4   20.90    5.40 
  -1   6   4   14.70    4.00 
   0  -6   4  124.69   14.10 
   0  -6  -4  138.69   11.90 
   0  -6   4  151.58   12.50 
   0  -6  -4  158.78   15.50 
   0  -6  -4  129.19   13.20 
   0  -6  -4  117.59   11.10 
   0  -6   4  125.49   13.20 
   0  -6  -4  130.39   10.50 
   0   6  -4  130.89   13.90 
   0   6  -4  125.99   13.00 
   0   6   4  135.09   12.30 
   0   6   4  112.79   13.60 
  -1  -6  -4  840.72   53.49 
   1  -6   4  813.82   52.09 
   1  -6   4  773.52   62.09 
  -1  -6  -4  815.42   49.10 
  -1  -6  -4  813.92   50.59 
   1  -6   4  887.41   49.40 
  -1  -6  -4  816.92   54.89 
  -1  -6  -4  767.52   53.69 
  -1   6  -4  825.02   53.99 
   1   6   4  783.02   55.69 
   1   6   4  727.63   50.89 
  -1   6  -4  776.32   51.19 
  -2  -6  -4  211.18   15.50 
  -2  -6  -4  179.18   16.90 
  -2  -6  -4  191.28   18.90 
  -2  -6  -4  200.78   17.00 
   2  -6   4  191.78   17.70 
  -2  -6  -4  182.18   17.70 
   2  -6   4  181.68   15.00 
  -2   6  -4  207.18   18.00 
  -2   6  -4  175.48   15.60 
   2   6   4  198.08   18.90 
   2   6   4  177.28   16.50 
   3  -6   4    3.90    2.90 
   3  -6   4    3.60    2.20 
  -3  -6  -4    5.50    3.40 
  -3  -6  -4    4.90    3.90 
  -3  -6  -4    7.30    3.60 
  -3  -6  -4    9.90    4.70 
  -3   6  -4    0.90    2.50 
  -3   6  -4   -0.20    3.90 
   3   6   4    5.50    3.40 
   3   6   4   11.10    4.00 
  -4  -6  -4   48.80   15.50 
  -4  -6  -4   50.59   10.20 
  -4  -6  -4   65.09   10.90 
  -4  -6  -4   53.39   11.20 
   4  -6   4   59.79    8.60 
   4  -6   4   59.59    6.60 
   4   6   4   73.19   12.20 
  -4   6  -4   65.69    9.40 
   4   6   4   61.79    9.40 
  -4   6  -4   41.50    8.30 
   5  -6   4  250.97   17.90 
  -5  -6  -4  290.97   23.70 
  -5  -6  -4  318.37   26.10 
   5  -6   4  265.07   22.70 
  -5  -6  -4  272.67   26.50 
  -5   6  -4  249.88   21.50 
   5   6   4  258.57   23.80 
  -5   6  -4  276.57   20.80 
   5   6   4  228.48   23.10 
  -6  -6  -4   89.99   11.30 
  -6  -6  -4   90.99   12.00 
  -6  -6  -4  109.79   14.60 
   6  -6   4   68.19    6.80 
   6  -6   4   74.79   11.60 
  -6   6  -4   81.19   10.20 
   6   6   4   90.29   12.20 
  -6   6  -4   81.09    9.90 
   6   6   4   88.69   13.00 
  -7  -6  -4   45.70   12.90 
  -7  -6  -4   60.59   11.10 
   7  -6   4   75.29   12.00 
  -7  -6  -4   65.29   10.80 
  -7   6  -4   63.99    8.40 
   7   6   4   69.19   13.90 
   7   6   4   62.19   11.40 
  -7  -7   4   76.79   16.80 
  -7  -7   4   59.89   13.30 
  -7  -7   4   54.39   10.30 
  -7   7   4   61.09    7.40 
  -7   7   4   55.19    7.90 
   7   7  -4   64.39   14.70 
  -6  -7   4   51.09   10.00 
  -6  -7   4   51.99   10.50 
  -6  -7   4   57.39   12.50 
   6  -7  -4   48.20    8.10 
  -6   7   4   61.99   10.10 
  -6   7   4   65.79    7.60 
   6   7  -4   53.89   12.10 
  -5  -7   4  248.38   22.90 
  -5  -7   4  232.48   24.20 
  -5  -7   4  252.17   24.20 
   5   7  -4  247.98   22.60 
  -5   7   4  251.37   21.70 
  -4  -7   4  143.19   16.30 
   4  -7  -4  103.99   13.80 
  -4  -7   4  139.39   15.90 
  -4  -7   4  135.49   15.00 
   4  -7  -4  126.69   13.90 
   4   7  -4  120.29   13.80 
   4   7  -4  147.39   27.30 
  -4   7   4  128.99   11.40 
  -4   7   4  116.59   13.60 
   3  -7  -4   74.99    9.40 
  -3  -7   4   98.79   13.30 
  -3  -7   4   88.99    9.40 
  -3  -7   4   84.29   12.20 
   3  -7  -4   57.49   10.60 
  -3  -7   4   85.59   11.70 
   3   7  -4   64.79    9.40 
  -3   7   4   80.99   11.00 
   3   7  -4   71.59   11.50 
  -3   7   4   87.29    8.80 
   3   7  -4  101.39   16.60 
  -2  -7   4  317.37   26.30 
   2  -7  -4  283.27   20.20 
  -2  -7   4  287.87   24.50 
   2  -7  -4  284.57   29.80 
   2  -7  -4  262.57   24.20 
  -2  -7   4  267.77   20.00 
  -2  -7   4  297.37   24.20 
   2   7  -4  265.07   21.40 
  -2   7   4  298.57   21.10 
   2   7  -4  292.07   25.70 
   2   7  -4  256.67   24.00 
  -2   7   4  281.97   24.40 
  -1  -7   4   38.90    8.60 
  -1  -7   4   29.30    4.60 
  -1  -7   4   40.00    8.90 
   1  -7  -4   42.10    7.90 
   1  -7  -4   43.80    5.80 
  -1  -7   4   32.70    8.00 
   1  -7  -4   38.20    8.30 
   1   7  -4   27.80    6.00 
   1   7  -4   34.50    7.60 
  -1   7   4   25.30    7.00 
  -1   7   4   30.60    6.40 
   1   7  -4   28.00    7.40 
   0  -7   4  122.09   11.10 
   0  -7  -4  102.39   13.50 
   0  -7  -4  104.59    9.10 
   0  -7  -4  107.89   12.40 
   0  -7  -4  100.19    9.70 
   0  -7  -4  101.69   11.40 
   0  -7   4  109.89   12.50 
   0  -7   4   98.59   13.40 
   0   7   4  103.89   13.40 
   0   7   4  104.09   11.10 
   0   7  -4  108.59   13.40 
   0   7  -4  118.89   12.60 
   1  -7   4   64.49    8.70 
   1  -7   4   36.20    8.80 
  -1  -7  -4   51.69    9.30 
   1  -7   4   44.20    6.20 
  -1  -7  -4   57.59   11.20 
  -1  -7  -4   51.79    7.20 
  -1  -7  -4   41.20    8.00 
  -1   7  -4   49.00    9.50 
   1   7   4   47.40    9.50 
  -1   7  -4   53.49    8.10 
  -2  -7  -4  138.19   14.40 
   2  -7   4  144.79   12.80 
  -2  -7  -4  144.29   16.70 
  -2  -7  -4  141.39   15.20 
  -2  -7  -4  153.08   16.20 
   2   7   4  187.18   18.20 
   2   7   4  136.09   14.40 
  -2   7  -4  134.39   15.30 
  -2   7  -4  148.19   13.70 
  -3  -7  -4  208.38   20.00 
   3  -7   4  182.28   16.10 
  -3  -7  -4  162.58   17.80 
  -3  -7  -4  212.58   19.30 
   3  -7   4  169.78   15.70 
  -3  -7  -4  213.78   21.00 
  -3   7  -4  187.28   16.30 
   3   7   4  181.08   17.70 
  -3   7  -4  193.88   18.90 
   3   7   4  190.18   19.60 
  -4  -7  -4  136.09   15.20 
   4  -7   4  130.09   11.50 
  -4  -7  -4  132.69   16.50 
   4  -7   4  119.79   12.80 
  -4  -7  -4  102.59   15.30 
  -4   7  -4  122.79   12.70 
  -4   7  -4  123.19   14.10 
   4   7   4  138.19   16.00 
   4   7   4  104.69   13.90 
  -5  -7  -4   39.40    9.40 
  -5  -7  -4   39.80   10.70 
   5  -7   4   40.40    6.40 
  -5  -7  -4   46.30    8.80 
   5  -7   4   31.70    7.50 
   5   7   4   33.80    8.50 
  -5   7  -4   42.10    7.70 
  -5   7  -4   36.30    7.80 
   5   7   4   48.20    9.90 
  -6  -7  -4    6.30    5.10 
   6  -7   4   12.00    6.00 
  -6  -7  -4   10.50    7.00 
   6   7   4  -10.70    5.80 
  -6   7  -4   14.30    4.80 
  -6   7  -4    5.50    5.10 
   6   7   4    4.50    5.70 
  -6  -8   4  231.98   23.40 
  -6  -8   4  255.17   28.20 
   6  -8  -4  223.08   20.00 
  -6   8   4  208.58   20.60 
   6   8  -4  209.58   22.50 
  -6   8   4  232.18   17.90 
  -5  -8   4   34.80    8.20 
   5  -8  -4    8.60    5.80 
  -5  -8   4   18.00    7.70 
  -5   8   4   16.10    5.00 
   5   8  -4   12.90    6.20 
  -5   8   4   18.20    5.20 
  -4  -8   4  194.18   19.40 
   4  -8  -4  144.49   17.00 
  -4  -8   4  147.19   19.30 
  -4   8   4  159.78   17.40 
  -4   8   4  151.18   13.80 
   4   8  -4  161.88   16.80 
  -3  -8   4  213.48   22.60 
  -3  -8   4  197.28   20.40 
  -3  -8   4  238.78   21.70 
  -3   8   4  179.98   19.50 
  -3   8   4  199.88   16.30 
   3   8  -4  175.68   17.40 
   3   8  -4  156.78   20.10 
   2  -8  -4  227.28   22.30 
  -2  -8   4  237.18   18.90 
  -2  -8   4  215.58   21.40 
  -2  -8   4  244.28   22.70 
  -2   8   4  251.97   19.20 
  -2   8   4  247.98   23.10 
   2   8  -4  198.58   22.00 
   2   8  -4  242.78   19.80 
   2   8  -4  225.58   23.20 
  -1  -8   4   36.20    9.20 
  -1  -8   4   36.70    8.00 
  -1  -8   4   29.50    4.60 
   1  -8  -4   18.40    7.10 
  -1  -8   4   21.90    7.00 
   1   8  -4   18.50    6.90 
   1   8  -4   30.00    8.30 
  -1   8   4   26.10    8.00 
  -1   8   4   28.30    6.20 
   1   8  -4   26.60    5.70 
   0  -8   4   48.20    7.20 
   0  -8   4   52.99   10.30 
   0  -8  -4   49.00    9.30 
   0   8   4   55.79    8.00 
   0   8  -4   34.70    9.00 
   0   8   4   31.20    8.60 
   0   8  -4   46.90    9.20 
  -1  -8  -4  114.59   15.20 
  -1  -8  -4  106.29   11.70 
   1  -8   4  115.79   10.40 
   1  -8   4  111.19   13.20 
  -1  -8  -4  110.09   10.90 
  -1  -8  -4  123.49   14.00 
  -1   8  -4   85.79   12.00 
  -1   8  -4   95.89   13.80 
   1   8   4   99.29   14.30 
   1   8   4   92.49   12.00 
  -2  -8  -4  107.79   15.60 
  -2  -8  -4  114.79   13.60 
  -2  -8  -4  131.39   13.30 
   2  -8   4  107.69   10.90 
  -2  -8  -4  107.49   14.30 
   2   8   4  112.69   15.50 
   2   8   4   96.69   12.70 
  -2   8  -4  115.49   12.60 
  -2   8  -4  136.09   15.60 
  -3  -8  -4   74.69   11.50 
  -3  -8  -4   86.79   13.90 
   3  -8   4   76.89   10.00 
   3  -8   4   73.09    9.40 
  -3  -8  -4   72.29   12.30 
  -3  -8  -4   71.99   14.40 
   3   8   4   58.59   12.30 
  -3   8  -4   80.49   11.50 
   3   8   4   69.69   10.40 
  -3   8  -4   77.49   10.00 
  -4  -8  -4   19.20    7.30 
   4  -8   4   25.70    6.80 
  -4  -8  -4   23.30    7.60 
  -4  -8  -4   40.70   10.30 
   4  -8   4   29.60    6.10 
   4   8   4   38.20    9.50 
   4   8   4   18.90    7.20 
  -4   8  -4   25.80    6.40 
  -4   8  -4   53.39   10.70 
  -5  -8  -4   39.00   10.30 
   5  -8   4   32.20    8.00 
  -5  -8  -4   36.50   10.60 
   5  -8   4   29.80    5.90 
  -5   8  -4   61.49   11.00 
   5   8   4   27.00    8.30 
   5   8   4   29.50    7.00 
  -5  -9   4  110.39   15.90 
  -5  -9   4   67.89   12.90 
   5   9  -4   62.59   12.30 
  -5   9   4   86.39   10.00 
  -5   9   4   90.89   12.50 
   4  -9  -4   59.69   11.20 
  -4  -9   4   50.29   11.70 
  -4  -9   4   66.89   13.00 
  -4   9   4   50.59    8.90 
   4   9  -4   59.19   11.40 
  -3  -9   4   29.30    9.20 
  -3  -9   4   39.30   10.60 
  -3  -9   4    7.10    6.10 
  -3   9   4   12.40    5.10 
  -3   9   4   22.80    6.50 
   3   9  -4   14.90    5.70 
   2  -9  -4   53.09   11.50 
  -2  -9   4   40.50   10.40 
  -2  -9   4   36.00    9.30 
  -2  -9   4   44.90    8.10 
   2   9  -4   58.99   13.20 
   2   9  -4   40.10    8.30 
  -2   9   4   45.50   10.10 
  -2   9   4   40.30    8.00 
  -1  -9   4  310.47   22.70 
  -1  -9   4  262.17   21.60 
  -1  -9   4  293.97   26.50 
   1  -9  -4  317.97   28.10 
   1   9  -4  251.47   26.70 
   1   9  -4  251.77   21.10 
   1   9  -4  263.37   28.00 
  -1   9   4  277.07   27.10 
  -1   9   4  261.57   22.30 
   0  -9   4  126.79   16.60 
   0  -9   4  166.88   13.60 
   0  -9  -4  137.29   18.30 
   0   9  -4  177.88   19.50 
   0   9  -4  134.49   16.60 
   0   9   4  145.79   15.30 
   0   9   4  127.29   18.30 
  -1  -9  -4   10.00    4.20 
   1  -9   4    7.00    4.80 
   1  -9   4    9.70    4.00 
  -1  -9  -4   12.10    6.00 
  -1  -9  -4    8.20    4.30 
  -1   9  -4   19.00    6.00 
  -1   9  -4   14.00    6.00 
   1   9   4    6.00    6.00 
   1   9   4   12.60    5.20 
   2  -9   4   18.60    4.90 
  -2  -9  -4   28.80    9.40 
  -2  -9  -4   19.90    6.20 
   2  -9   4    9.20    5.20 
  -2  -9  -4    2.60    5.70 
  -2  -9  -4   15.60    5.60 
   2   9   4   10.10    4.90 
   2   9   4   32.10    8.50 
  -2   9  -4   10.50    6.60 
  -2   9  -4   15.70    5.20 
   3  -9   4   73.79   10.70 
  -3  -9  -4  116.69   15.90 
  -3  -9  -4  136.59   16.50 
  -3  -9  -4  104.29   14.50 
   3  -9   4  107.89   12.90 
  -3   9  -4  105.69   16.90 
  -3   9  -4  109.89   17.00 
   3   9   4   92.49   16.30 
  -4  -9  -4   16.30    8.70 
  -4  -9  -4   -4.70    4.90 
   4   9   4   11.00    5.60 
   4   9   4   12.50    8.10 
  -2 -10   4  114.19   16.80 
  -2 -10   4   82.49   13.00 
   2 -10  -4   58.79   14.10 
   2  10  -4   64.49   11.60 
  -2  10   4   89.99   11.60 
  -2  10   4   67.99   14.00 
  -1 -10   4    8.00    7.40 
  -1 -10   4    7.50    5.30 
  -1 -10   4   11.20    4.40 
   1 -10  -4   -0.40    8.00 
   1  10  -4   19.10    5.50 
  -1  10   4   12.30    7.10 
   0 -10   4   44.00   13.90 
   0 -10  -4   50.99   11.90 
   0 -10   4   53.79    7.50 
   0  10   4   26.00    9.90 
  -1 -10  -4   18.90    9.50 
   1 -10   4   32.30    8.60 
   1  10   4   18.10    6.40 
   1  10   4   22.00    9.20 
 -10   0   5  144.69   19.10 
 -10   0   5  122.39   15.30 
  -9   0   5   68.49    6.40 
  -9   0   5   42.20    9.00 
  -9   0   5   82.79   13.00 
  -9   0   5   57.19    5.10 
  -8   0   5  415.46   32.00 
  -8   0   5  470.75   26.80 
  -8   0   5  407.36   28.30 
   7   0  -5  685.83   40.40 
  -7   0   5  647.34   44.70 
  -7   0   5  625.84   47.50 
  -7   0   5  732.53   40.40 
  -7   0   5  653.23   47.30 
  -6   0   5   44.70    8.70 
  -6   0   5   59.19    5.10 
   6   0  -5   56.49   10.90 
   6   0  -5   41.80    5.10 
  -6   0   5   45.40    8.20 
  -6   0   5   56.69   10.40 
  -5   0   5  519.15   35.30 
  -5   0   5  476.85   33.20 
   5   0  -5  494.85   36.00 
  -5   0   5  537.75   30.80 
  -5   0   5  472.85   34.60 
   5   0  -5  513.25   31.60 
  -4   0   5 1727.03   99.99 
   4   0  -5 1535.95  100.09 
  -4   0   5 1614.94   99.59 
  -4   0   5 1803.52   96.39 
   4   0  -5 1682.93   96.79 
  -3   0   5 1507.75   80.79 
   3   0  -5 1178.68   78.99 
   3   0  -5 1246.28   82.89 
  -3   0   5 1479.25   78.39 
   3   0  -5 1346.57   78.39 
  -2   0   5   85.69    7.10 
   2   0  -5   88.79    6.90 
  -2   0   5   80.49    8.30 
   2   0  -5   78.79    7.20 
   2   0  -5   83.59    8.00 
  -2   0   5   88.39    6.80 
   1   0  -5  306.87   19.40 
   1   0  -5  285.17   19.20 
  -1   0   5  313.87   19.50 
  -1   0   5  345.37   19.00 
   1   0  -5  275.47   20.40 
   0   0   5  843.82   47.30 
   0   0   5  864.21   49.20 
   0   0  -5  813.92   48.30 
   0   0   5  746.33   48.10 
   0   0  -5  829.62   47.50 
   1   0   5   96.79    7.90 
  -1   0  -5  110.19    8.80 
   1   0   5   99.49    7.50 
  -1   0  -5  115.89    7.20 
  -1   0  -5   95.79    7.80 
   1   0   5  103.59    9.50 
   2   0   5    6.30    2.30 
   2   0   5    4.60    2.70 
  -2   0  -5    7.00    1.80 
   2   0   5    2.30    1.40 
  -2   0  -5    4.70    2.40 
  -2   0  -5    2.90    1.40 
   3   0   5  343.37   23.40 
  -3   0  -5  343.17   24.90 
   3   0   5  378.06   23.20 
  -3   0  -5  374.56   22.60 
   3   0   5  339.47   26.30 
  -3   0  -5  340.17   22.20 
  -4   0  -5 1013.90   59.19 
  -4   0  -5  999.20   58.19 
   4   0   5  980.90   60.39 
  -4   0  -5 1064.79   62.89 
   4   0   5  953.00   64.19 
   4   0   5  944.61   58.99 
  -5   0  -5  860.41   50.59 
   5   0   5  776.62   55.99 
  -5   0  -5  810.42   48.70 
  -5   0  -5  850.81   54.19 
   5   0   5  805.32   49.60 
   5   0   5  822.62   51.89 
  -6   0  -5  644.04   41.20 
   6   0   5  542.85   47.30 
   6   0   5  662.63   39.40 
  -6   0  -5  672.03   39.00 
   6   0   5  677.93   43.40 
   7   0   5  106.69   15.70 
   7   0   5  121.89   13.20 
  -7   0  -5  117.19    9.30 
  -7   0  -5  133.69   11.10 
  -7   0  -5  138.19   12.00 
  -8   0  -5    2.50    4.60 
   8   0   5   -0.80    2.90 
  -8   0  -5    2.20    1.80 
  -8   0  -5    1.80    1.50 
   8   0   5   -5.70    3.50 
  -9   0  -5  130.79    9.50 
  -9   0  -5  109.69    8.40 
   9   0   5  122.49   14.90 
  -9   0  -5  116.69   17.20 
 -10  -1   5  256.87   23.70 
 -10  -1   5  248.78   17.70 
 -10  -1   5  254.27   18.10 
 -10  -1   5  274.97   28.50 
 -10   1   5  241.08   25.40 
 -10   1   5  276.37   26.10 
  -9  -1   5  269.27   16.50 
  -9  -1   5  250.17   18.70 
  -9  -1   5  212.48   24.30 
  -9  -1   5  245.68   22.10 
  -9   1   5  237.58   21.30 
  -9   1   5  241.28   23.50 
  -8  -1   5   34.20    6.10 
  -8  -1   5   33.00    4.20 
  -8  -1   5   28.20    7.00 
  -8  -1   5   25.80    8.10 
  -8   1   5   29.90    8.50 
  -8   1   5   37.80    3.80 
  -8   1   5   27.40    7.80 
  -8   1   5   35.40    9.10 
  -7  -1   5   35.30    6.90 
  -7  -1   5   40.70    9.80 
  -7   1   5   40.50    8.40 
   7   1  -5   29.20    8.20 
  -7   1   5   40.50    4.20 
  -7   1   5   40.20    8.60 
  -7   1   5   41.20    8.60 
  -6  -1   5  356.76   21.50 
   6  -1  -5  322.77   26.20 
  -6  -1   5  302.17   24.00 
   6  -1  -5  306.17   21.90 
  -6  -1   5  316.17   25.40 
  -6  -1   5  348.77   27.20 
  -6   1   5  322.47   25.20 
  -6   1   5  353.26   20.80 
  -6   1   5  293.97   25.00 
   6   1  -5  288.47   26.90 
   6   1  -5  329.97   22.50 
  -6   1   5  332.37   24.10 
  -5  -1   5  273.87   21.90 
   5  -1  -5  271.47   17.10 
   5  -1  -5  264.57   21.20 
  -5  -1   5  239.68   19.30 
  -5  -1   5  258.67   20.80 
  -5  -1   5  267.47   17.50 
  -5   1   5  242.98   19.10 
  -5   1   5  238.38   20.40 
  -5   1   5  274.67   17.00 
  -5   1   5  257.47   20.20 
   5   1  -5  259.47   18.50 
   5   1  -5  241.48   21.90 
  -4  -1   5   91.99    7.60 
  -4  -1   5   94.39    9.60 
  -4  -1   5   75.59    9.50 
  -4  -1   5   87.89    8.80 
   4  -1  -5   77.59    8.30 
   4  -1  -5   94.49    7.10 
   4   1  -5   82.99   10.10 
  -4   1   5   88.69    8.90 
  -4   1   5   85.09    7.00 
   4   1  -5   85.19    8.00 
  -4   1   5   81.09    8.50 
   3  -1  -5  164.38   14.20 
   3  -1  -5  195.38   15.10 
  -3  -1   5  186.88   15.40 
   3  -1  -5  192.78   13.20 
  -3  -1   5  211.08   14.00 
  -3  -1   5  202.78   15.50 
  -3   1   5  217.58   14.20 
   3   1  -5  205.28   14.50 
  -3   1   5  207.88   14.30 
  -3   1   5  198.38   14.80 
  -2  -1   5  538.25   30.40 
   2  -1  -5  501.55   30.80 
  -2  -1   5  470.45   31.50 
   2  -1  -5  476.15   31.30 
  -2  -1   5  484.35   30.10 
   2  -1  -5  492.15   29.70 
   2   1  -5  419.06   29.90 
  -2   1   5  510.85   30.10 
  -2   1   5  499.05   30.00 
  -2   1   5  526.85   29.90 
   2   1  -5  469.65   30.40 
   1  -1  -5  693.03   40.60 
  -1  -1   5  743.53   41.60 
   1  -1  -5  690.73   41.10 
  -1  -1   5  661.63   40.00 
   1  -1  -5  686.83   40.70 
  -1  -1   5  694.43   40.80 
   1   1  -5  606.14   40.20 
   1   1  -5  702.23   41.30 
   1   1  -5  664.43   42.40 
  -1   1   5  697.83   41.10 
   0  -1   5 2370.36  120.49 
   0  -1  -5 2339.37  119.89 
   0  -1  -5 2008.30  119.59 
   0  -1  -5 2336.97  118.99 
   0  -1   5 2315.27  118.19 
   0  -1   5 2014.10  119.49 
   0   1  -5 1828.02  119.59 
   0   1  -5 2111.29  120.59 
   0   1  -5 1787.12  118.39 
   0   1   5 1969.60  120.39 
   0   1   5 2082.39  118.99 
   0   1   5 1937.11  119.99 
   1  -1   5  768.92   44.50 
  -1  -1  -5  659.13   47.50 
  -1  -1  -5  762.42   43.00 
   1   1   5  711.43   42.50 
   1   1   5  701.33   43.30 
   1   1   5  707.03   44.60 
  -1   1  -5  692.03   42.70 
  -2  -1  -5  345.07   21.80 
   2  -1   5  359.86   24.40 
  -2  -1  -5  347.67   22.10 
   2  -1   5  347.87   21.40 
  -2  -1  -5  339.97   23.40 
  -2   1  -5  344.07   22.60 
   2   1   5  307.57   24.10 
   2   1   5  321.27   22.00 
  -2   1  -5  327.17   21.40 
   3  -1   5 1136.59   69.99 
  -3  -1  -5 1132.39   68.99 
  -3  -1  -5 1183.98   66.19 
   3  -1   5 1113.89   65.79 
  -3  -1  -5 1139.99   65.89 
   3  -1   5 1153.28   65.49 
   3   1   5 1006.60   69.79 
  -3   1  -5 1096.09   65.39 
   3   1   5 1082.49   67.09 
  -3   1  -5 1165.28   67.89 
   3   1   5 1120.19   66.99 
   4  -1   5  320.67   21.10 
   4  -1   5  281.47   24.30 
   4  -1   5  321.57   20.00 
  -4  -1  -5  300.07   23.70 
  -4  -1  -5  330.07   21.20 
  -4  -1  -5  304.47   20.10 
  -4   1  -5  307.57   19.90 
   4   1   5  280.87   24.80 
   4   1   5  296.37   22.10 
   4   1   5  300.77   21.10 
  -4   1  -5  287.97   22.40 
  -4   1  -5  296.47   19.60 
  -5  -1  -5  197.78   15.70 
  -5  -1  -5  197.88   18.70 
   5  -1   5  206.18   14.20 
   5  -1   5  191.58   19.50 
   5  -1   5  225.88   16.40 
  -5  -1  -5  196.28   14.40 
  -5   1  -5  215.48   15.00 
   5   1   5  195.28   20.20 
   5   1   5  190.48   17.00 
   5   1   5  202.28   15.50 
  -5   1  -5  220.08   18.30 
  -5   1  -5  199.08   14.00 
  -6  -1  -5  268.77   20.20 
   6  -1   5  274.27   30.00 
   6  -1   5  271.47   17.20 
  -6  -1  -5  299.27   21.00 
   6  -1   5  267.37   20.80 
  -6  -1  -5  280.77   18.40 
   6   1   5  223.18   24.60 
  -6   1  -5  259.37   17.80 
  -6   1  -5  284.57   19.60 
   6   1   5  257.57   19.10 
   6   1   5  286.77   22.50 
   7  -1   5   40.10   10.60 
  -7  -1  -5   52.49    5.40 
   7  -1   5   43.70    8.60 
  -7  -1  -5   56.39    6.90 
   7   1   5   45.00   10.90 
   7   1   5   47.10    6.20 
  -7   1  -5   50.59    5.00 
  -8  -1  -5   97.89   15.20 
  -8  -1  -5   91.29    9.20 
  -8  -1  -5   78.79    7.10 
   8  -1   5   86.29   11.00 
   8  -1   5   48.80   12.60 
  -8   1  -5   82.59    6.90 
  -8   1  -5   86.89    7.40 
   8   1   5   78.79   11.70 
  -9  -1  -5   -0.90    6.50 
  -9  -1  -5    4.40    1.70 
  -9  -1  -5    5.50    2.60 
   9   1   5   11.80    6.30 
  -9   1  -5    3.90    3.80 
 -10  -2   5    7.50    5.20 
 -10  -2   5   13.60    2.70 
 -10  -2   5   12.90    6.20 
 -10  -2   5   14.70    5.70 
 -10   2   5   10.30    6.90 
 -10   2   5    9.40    5.70 
  -9  -2   5   55.39    8.50 
  -9  -2   5   54.09   10.20 
  -9  -2   5   50.69    5.70 
  -9  -2   5   57.29   12.80 
  -9   2   5   59.09   11.50 
  -9   2   5   52.49    9.50 
  -8  -2   5  188.18   18.60 
  -8  -2   5  212.98   15.40 
  -8  -2   5  172.98   20.80 
  -8  -2   5  213.38   17.90 
  -8   2   5  212.08   18.50 
  -8   2   5  208.98   19.80 
  -8   2   5  232.38   14.30 
  -8   2   5  204.08   19.70 
  -7  -2   5  333.87   24.00 
  -7  -2   5  293.47   24.30 
  -7  -2   5  313.97   21.50 
  -7   2   5  345.97   25.40 
  -7   2   5  294.77   23.60 
  -7   2   5  296.97   24.70 
  -6  -2   5   71.89   10.90 
  -6  -2   5   74.09    7.40 
  -6  -2   5   70.79    9.80 
   6  -2  -5   76.59    6.00 
  -6  -2   5   70.59    9.00 
   6  -2  -5   71.79    6.30 
  -6   2   5   78.89    9.30 
  -6   2   5   76.09    9.40 
   6   2  -5   74.19    8.30 
  -6   2   5   75.79    6.70 
   6   2  -5   66.39   11.00 
  -6   2   5   73.19    9.90 
  -6   2   5   69.49    9.20 
  -5  -2   5  360.46   28.10 
   5  -2  -5  353.86   27.70 
  -5  -2   5  443.66   27.50 
  -5  -2   5  406.66   31.30 
  -5  -2   5  400.76   29.80 
   5  -2  -5  441.26   25.60 
   5  -2  -5  398.46   29.10 
  -5   2   5  456.75   26.60 
   5   2  -5  431.76   28.60 
  -5   2   5  416.16   27.80 
  -5   2   5  443.66   28.60 
   5   2  -5  404.56   32.20 
   4  -2  -5 2520.65  150.68 
  -4  -2   5 2315.07  149.99 
   4  -2  -5 2355.96  149.99 
   4  -2  -5 2670.33  147.89 
  -4  -2   5 2684.43  153.58 
  -4  -2   5 2860.41  149.99 
  -4  -2   5 2605.64  151.88 
  -4   2   5 2740.23  148.99 
  -4   2   5 2604.54  149.19 
   4   2  -5 2472.45  153.78 
   4   2  -5 2632.74  150.88 
  -4   2   5 2733.03  149.59 
  -3  -2   5 7365.06  385.96 
  -3  -2   5 6169.88  386.76 
   3  -2  -5 6704.33  382.86 
   3  -2  -5 7033.60  381.46 
  -3  -2   5 6871.61  384.26 
   3  -2  -5 6441.86  382.86 
  -3   2   5 7273.27  382.56 
   3   2  -5 6980.20  383.96 
   3   2  -5 6359.66  385.76 
  -3   2   5 6497.65  381.36 
   2  -2  -5 4749.52  272.87 
   2  -2  -5 4981.80  272.57 
  -2  -2   5 4615.44  272.67 
  -2  -2   5 5109.39  273.57 
  -2  -2   5 4453.35  274.87 
  -2  -2   5 4869.91  273.77 
   2  -2  -5 4791.42  272.47 
  -2   2   5 4907.41  273.37 
   2   2  -5 4725.93  275.47 
   2   2  -5 4992.40  274.37 
  -1  -2   5 1071.29   65.89 
  -1  -2   5 1019.30   64.99 
   1  -2  -5 1174.98   65.59 
  -1  -2   5 1085.99   66.79 
   1  -2  -5 1264.67   65.59 
   1  -2  -5 1011.10   65.69 
  -1  -2   5 1112.19   66.39 
  -1   2   5 1185.18   67.19 
   1   2  -5 1109.59   67.99 
  -1   2   5 1116.49   65.69 
   1   2  -5 1130.69   67.19 
  -1   2   5 1259.77   65.59 
   0  -2  -5 1226.78   66.99 
   0  -2  -5 1156.08   67.49 
   0  -2   5 1185.88   67.39 
   0  -2  -5 1267.67   66.39 
   0   2   5 1166.18   66.89 
   0   2   5 1127.09   68.29 
   0   2  -5 1040.70   68.29 
   0   2   5 1054.99   67.69 
   0   2  -5 1100.79   67.99 
  -1  -2  -5  162.88   10.80 
  -1  -2  -5  123.89   12.70 
  -1  -2  -5  155.68   11.70 
  -1   2  -5  154.38   11.80 
   1   2   5  144.09   12.20 
  -1   2  -5  181.28   12.50 
   1   2   5  137.09   12.40 
  -2  -2  -5  621.84   37.20 
   2  -2   5  556.34   35.60 
  -2  -2  -5  592.94   38.40 
  -2  -2  -5  629.24   36.40 
   2  -2   5  582.34   38.50 
  -2   2  -5  605.24   36.90 
   2   2   5  605.74   38.00 
   2   2   5  544.45   39.10 
   2   2   5  617.84   37.50 
  -3  -2  -5  800.12   60.19 
   3  -2   5 1002.90   61.39 
  -3  -2  -5 1055.49   58.59 
  -3  -2  -5 1003.50   61.29 
   3  -2   5  949.51   56.79 
  -3   2  -5  992.60   57.99 
  -3   2  -5 1046.30   59.09 
   3   2   5  926.91   62.19 
   3   2   5  948.21   59.39 
   3   2   5  971.80   59.59 
  -4  -2  -5  633.04   38.70 
   4  -2   5  558.34   41.50 
   4  -2   5  619.64   36.50 
  -4  -2  -5  642.54   38.10 
  -4  -2  -5  617.34   41.80 
  -4   2  -5  651.73   39.70 
   4   2   5  630.54   39.50 
   4   2   5  532.35   42.40 
   4   2   5  554.44   39.60 
  -4   2  -5  604.24   37.40 
  -5  -2  -5  134.09   14.30 
   5  -2   5  119.19   14.50 
  -5  -2  -5  132.59   12.90 
  -5  -2  -5  137.99   12.30 
  -5  -2  -5  122.79   10.50 
   5  -2   5  124.39    9.30 
  -5   2  -5  115.79   12.30 
   5   2   5  105.79   12.30 
   5   2   5  115.69   11.40 
   5   2   5  113.19   14.70 
  -5   2  -5  131.49   10.10 
  -6  -2  -5  414.16   29.10 
   6  -2   5  388.16   24.50 
   6  -2   5  400.06   33.50 
  -6  -2  -5  412.36   26.80 
  -6   2  -5  425.16   26.30 
   6   2   5  427.56   31.20 
  -6   2  -5  369.66   26.40 
  -6   2  -5  425.56   26.70 
   6   2   5  381.56   34.20 
   6   2   5  416.16   28.30 
  -7  -2  -5   62.99    6.80 
  -7  -2  -5   56.09    8.00 
   7  -2   5   67.29   14.20 
  -7  -2  -5   61.99   13.20 
  -7   2  -5   63.29    6.30 
   7   2   5   56.59    7.30 
  -7   2  -5   70.99    7.90 
   7   2   5   74.19   10.00 
  -7   2  -5   56.89    7.30 
  -8  -2  -5   29.30    4.90 
  -8  -2  -5   20.10    4.70 
  -8  -2  -5   14.40    7.70 
   8  -2   5    9.40    7.80 
  -8   2  -5   25.00    5.90 
  -8   2  -5   31.90    3.40 
  -8   2  -5   26.60    3.10 
   8   2   5   20.40    7.40 
  -8   2  -5   27.10    5.30 
  -9  -3   5   96.29    9.60 
  -9  -3   5   89.89   12.60 
  -9  -3   5  111.69   11.90 
  -9  -3   5   94.29   15.70 
  -9   3   5  115.59   12.70 
  -9   3   5   91.29   12.10 
  -9   3   5   97.39   13.20 
  -8  -3   5   26.80    7.50 
  -8  -3   5   42.60    7.80 
  -8  -3   5   47.00   11.30 
  -8  -3   5   31.10    5.80 
  -8   3   5   29.90    7.30 
  -8   3   5   27.40    7.10 
  -8   3   5   50.09    9.00 
  -8   3   5   30.70    4.20 
  -7  -3   5  169.38   19.60 
  -7  -3   5  198.68   17.70 
  -7  -3   5  184.88   17.10 
  -7  -3   5  187.38   15.30 
  -7   3   5  183.38   16.40 
  -7   3   5  183.98   13.80 
  -7   3   5  189.78   16.40 
   6  -3  -5  455.45   33.60 
  -6  -3   5  548.15   39.20 
   6  -3  -5  522.95   31.20 
  -6  -3   5  501.05   33.10 
  -6  -3   5  524.35   35.70 
  -6  -3   5  471.45   35.80 
   6  -3  -5  528.65   30.00 
  -6   3   5  434.16   35.50 
   6   3  -5  460.35   40.30 
  -6   3   5  517.95   33.00 
  -6   3   5  457.55   33.00 
  -6   3   5  521.25   32.00 
   6   3  -5  474.45   34.60 
   6   3  -5  540.45   36.90 
  -5  -3   5  779.82   50.59 
   5  -3  -5  748.93   45.60 
   5  -3  -5  797.72   47.20 
  -5  -3   5  781.82   52.59 
  -5  -3   5  804.22   48.40 
   5  -3  -5  717.63   48.30 
  -5   3   5  797.12   47.30 
   5   3  -5  812.02   52.49 
  -5   3   5  779.42   46.90 
   5   3  -5  809.82   50.79 
  -5   3   5  687.53   47.00 
   5   3  -5  662.43   52.49 
  -5   3   5  788.62   47.20 
   4  -3  -5  394.76   28.20 
  -4  -3   5  454.05   28.80 
  -4  -3   5  417.56   31.30 
   4  -3  -5  436.46   27.40 
   4  -3  -5  400.96   26.00 
   4  -3  -5  441.16   28.10 
  -4  -3   5  400.86   29.30 
  -4   3   5  451.95   27.10 
  -4   3   5  376.96   26.00 
   4   3  -5  444.36   29.90 
  -4   3   5  423.16   27.80 
   4   3  -5  387.96   31.50 
   4   3  -5  440.56   29.80 
  -3  -3   5  186.88   15.20 
  -3  -3   5  170.88   14.60 
  -3  -3   5  184.18   16.60 
   3  -3  -5  170.88   13.20 
   3  -3  -5  186.38   13.30 
  -3   3   5  223.98   12.30 
  -3   3   5  184.68   14.60 
   3   3  -5  164.08   16.50 
   3   3  -5  175.58   15.50 
  -3   3   5  210.48   13.60 
   3   3  -5  208.98   15.70 
   2  -3  -5 1135.39   64.89 
   2  -3  -5 1148.29   66.09 
  -2  -3   5 1012.00   65.59 
  -2  -3   5 1251.67   67.79 
  -2  -3   5 1132.09   66.79 
  -2  -3   5 1117.39   68.39 
   2  -3  -5 1169.38   66.19 
  -2   3   5 1076.59   64.39 
  -2   3   5 1108.39   67.39 
   2   3  -5 1134.49   68.49 
   2   3  -5 1039.70   68.79 
  -1  -3   5 1026.10   63.09 
   1  -3  -5  909.31   67.79 
   1  -3  -5 1224.18   63.19 
  -1  -3   5 1195.48   65.19 
  -1  -3   5 1044.00   64.69 
   1   3  -5 1100.69   65.79 
  -1   3   5 1009.30   62.99 
  -1   3   5 1100.59   65.39 
   1   3  -5 1077.49   66.09 
   0  -3  -5 1778.62  104.69 
   0  -3  -5 1842.22  106.29 
   0  -3  -5 1986.10  104.49 
   0  -3   5 1849.42  106.09 
   0   3   5 1633.84  105.69 
   0   3   5 1873.11  105.39 
   0   3  -5 1740.73  107.09 
   0   3  -5 1843.62  107.29 
   0   3   5 1851.31  107.49 
   1  -3   5  338.27   23.80 
  -1  -3  -5  362.36   24.70 
  -1  -3  -5  387.86   23.50 
  -1  -3  -5  387.16   25.10 
   1  -3   5  414.96   24.90 
  -1   3  -5  373.56   25.50 
   1   3   5  355.26   25.80 
   1   3   5  369.96   24.50 
   1   3   5  341.67   25.60 
  -1   3  -5  365.36   25.40 
  -2  -3  -5  642.04   37.40 
  -2  -3  -5  586.24   39.20 
  -2  -3  -5  629.24   38.50 
   2  -3   5  592.74   38.80 
   2  -3   5  589.34   36.60 
  -2   3  -5  618.84   38.50 
   2   3   5  593.74   38.40 
   2   3   5  557.14   40.10 
   2   3   5  604.64   39.50 
  -3  -3  -5 1921.11  105.99 
  -3  -3  -5 1919.71  106.59 
   3  -3   5 1780.22  103.99 
   3  -3   5 1784.02  107.99 
  -3  -3  -5 1799.42  108.69 
  -3  -3  -5 1872.21  108.29 
   3   3   5 1770.32  107.59 
  -3   3  -5 1814.22  106.09 
   3   3   5 1690.93  109.69 
   3   3   5 1734.23  107.09 
  -4  -3  -5  650.43   40.80 
  -4  -3  -5  635.84   44.10 
  -4  -3  -5  665.43   42.70 
   4  -3   5  602.14   43.20 
   4  -3   5  620.64   38.10 
   4   3   5  613.64   45.30 
   4   3   5  610.04   41.90 
  -4   3  -5  653.53   40.40 
  -4   3  -5  706.93   40.90 
   4   3   5  596.84   42.10 
  -5  -3  -5   87.79    9.90 
   5  -3   5   75.19   10.90 
  -5  -3  -5   84.89    9.10 
   5  -3   5   64.19    6.30 
  -5  -3  -5   63.69    7.90 
  -5   3  -5   76.39    7.70 
   5   3   5   80.99   10.00 
  -5   3  -5   91.19    9.70 
   5   3   5   65.79   13.20 
   5   3   5   84.49    9.40 
  -6  -3  -5   51.29    6.90 
  -6  -3  -5   48.60   11.90 
   6  -3   5   60.19    4.40 
   6  -3   5   37.00    9.80 
  -6  -3  -5   63.79    8.70 
   6   3   5   65.79    8.40 
   6   3   5   52.29   10.30 
  -6   3  -5   53.39    6.30 
  -7  -3  -5  122.09   13.30 
  -7  -3  -5  138.29   18.70 
  -7  -3  -5  149.29   12.40 
   7  -3   5  103.79   15.40 
   7   3   5  139.89   15.80 
  -7   3  -5  134.29   10.90 
   7   3   5  128.89   12.80 
  -8  -3  -5   46.20    5.90 
   8  -3   5   30.60   10.10 
  -8  -3  -5   39.90    7.80 
  -8  -3  -5   48.20   13.40 
   8   3   5   41.20    9.80 
  -9  -4   5   21.90    6.20 
  -9  -4   5   24.10    5.00 
  -9  -4   5   28.50    9.30 
  -9  -4   5   28.80    7.30 
  -9   4   5   28.20    6.90 
  -9   4   5   23.90    6.20 
  -8  -4   5  156.38   19.30 
  -8  -4   5  153.38   14.00 
  -8  -4   5  145.69   15.90 
  -8   4   5  148.29   14.00 
  -8   4   5  142.59   11.70 
  -8   4   5  162.58   14.40 
  -8   4   5  139.59   13.70 
  -7  -4   5   99.79   15.00 
  -7  -4   5  118.89   11.60 
  -7  -4   5   97.99   12.80 
  -7   4   5   95.49   10.10 
   7   4  -5  127.09   14.20 
  -7   4   5  135.19   13.30 
  -7   4   5  107.79   10.00 
  -7   4   5  100.89   11.00 
   6  -4  -5    0.90    2.70 
  -6  -4   5    3.90    3.10 
  -6  -4   5    1.50    3.20 
  -6  -4   5    4.90    3.90 
   6  -4  -5   -0.50    1.60 
  -6   4   5    0.40    2.80 
  -6   4   5    0.50    1.70 
  -6   4   5    1.70    2.60 
  -6   4   5    5.70    2.30 
  -5  -4   5  102.39   11.70 
   5  -4  -5  101.89    8.20 
  -5  -4   5  110.39   11.00 
  -5  -4   5  100.39   13.40 
   5  -4  -5   99.29   11.00 
   5  -4  -5  109.69   10.10 
  -5  -4   5  101.29   12.10 
   5   4  -5   95.49   13.60 
   5   4  -5   81.79   11.20 
  -5   4   5  120.09    9.90 
  -5   4   5  100.99   10.00 
   5   4  -5   94.39   11.30 
  -4  -4   5  836.52   53.99 
  -4  -4   5  801.32   53.39 
  -4  -4   5  860.41   56.49 
   4  -4  -5  757.72   52.29 
   4  -4  -5  901.11   53.39 
  -4  -4   5  924.11   56.09 
   4   4  -5  843.92   55.09 
   4   4  -5  720.23   59.79 
   4   4  -5  841.32   54.09 
  -4   4   5  984.90   51.09 
  -4   4   5  817.42   52.79 
   3  -4  -5  905.11   54.69 
  -3  -4   5  964.50   58.99 
  -3  -4   5  965.00   57.19 
  -3  -4   5  858.71   55.99 
  -3  -4   5  911.91   58.59 
   3  -4  -5  860.01   55.09 
   3  -4  -5  886.41   56.69 
   3   4  -5  898.41   56.29 
   3   4  -5  920.31   58.19 
  -3   4   5  888.21   56.49 
  -3   4   5 1043.90   54.19 
   3   4  -5  784.82   58.49 
   2  -4  -5 1356.66   79.69 
  -2  -4   5 1282.47   79.49 
   2  -4  -5 1309.67   76.59 
   2  -4  -5 1300.37   77.49 
  -2  -4   5 1314.37   78.99 
  -2  -4   5 1239.58   77.09 
   2   4  -5 1320.17   80.39 
   2   4  -5 1252.97   77.39 
   2   4  -5 1175.28   80.09 
  -2   4   5 1430.46   76.49 
  -2   4   5 1378.56   79.39 
   1  -4  -5    9.60    3.00 
   1  -4  -5   19.80    2.70 
   1  -4  -5   15.90    4.00 
   1  -4  -5   18.20    3.50 
  -1  -4   5   15.40    5.40 
  -1  -4   5   10.50    3.00 
  -1   4   5   16.60    4.20 
   1   4  -5   14.70    4.10 
  -1   4   5   18.10    3.40 
  -1   4   5   14.00    3.30 
   1   4  -5   16.00    4.60 
   0  -4  -5  467.35   26.80 
   0  -4  -5  431.16   26.90 
   0  -4  -5  374.46   35.00 
   0  -4  -5  447.46   30.50 
   0  -4   5  445.66   28.90 
   0  -4   5  494.55   28.20 
   0   4  -5  406.26   29.40 
   0   4  -5  403.56   29.80 
   0   4   5  431.86   28.00 
   0   4   5  351.06   27.50 
   0   4   5  412.16   29.90 
   1  -4   5 1657.93   88.79 
  -1  -4  -5 1566.64   91.99 
  -1  -4  -5 1545.25   87.69 
   1  -4   5 1558.04   89.19 
  -1  -4  -5 1481.95   88.99 
  -1  -4  -5 1555.44   90.29 
   1   4   5 1455.55   89.09 
  -1   4  -5 1370.16   89.59 
   1   4   5 1548.55   91.59 
  -1   4  -5 1520.75   90.79 
   1   4   5 1329.67   89.89 
  -2  -4  -5 1038.60   63.19 
   2  -4   5  997.30   60.59 
  -2  -4  -5  970.40   61.49 
   2  -4   5  979.10   59.19 
  -2  -4  -5 1079.29   61.79 
  -2  -4  -5 1028.20   59.49 
   2   4   5  899.21   62.39 
  -2   4  -5  962.30   61.29 
   2   4   5  988.70   62.59 
  -2   4  -5  973.50   60.39 
   2   4   5  962.40   60.89 
  -3  -4  -5  181.08   13.80 
  -3  -4  -5  150.38   15.10 
   3  -4   5  167.18   12.10 
   3  -4   5  142.49   14.40 
  -3  -4  -5  145.29   15.00 
   3  -4   5  171.18   14.20 
  -3  -4  -5  177.88   14.60 
  -3   4  -5  180.28   14.10 
  -3   4  -5  166.38   14.30 
   3   4   5  148.99   14.40 
   3   4   5  149.29   16.00 
   3   4   5  145.19   14.80 
   4  -4   5  257.37   19.70 
  -4  -4  -5  281.27   23.10 
  -4  -4  -5  230.48   23.50 
   4  -4   5  267.87   17.60 
  -4  -4  -5  268.37   20.10 
  -4  -4  -5  295.17   21.20 
   4  -4   5  267.97   22.10 
  -4  -4  -5  284.17   22.60 
   4   4   5  229.18   23.00 
  -4   4  -5  275.97   20.40 
   4   4   5  251.27   21.60 
  -5  -4  -5  424.96   29.60 
  -5  -4  -5  373.56   34.30 
   5  -4   5  386.16   31.90 
   5  -4   5  422.36   25.90 
  -5  -4  -5  414.06   31.40 
  -5   4  -5  463.55   29.40 
   5   4   5  420.86   31.00 
   5   4   5  409.36   31.50 
  -6  -4  -5   16.30    4.40 
  -6  -4  -5   20.60    7.90 
   6  -4   5   17.70    2.70 
   6  -4   5   30.70    7.80 
  -6  -4  -5   20.90    5.60 
   6   4   5   13.80    5.80 
   6   4   5   12.80    4.80 
  -6   4  -5   26.10    5.00 
  -7  -4  -5   94.79   15.40 
   7  -4   5   63.39   13.50 
  -7  -4  -5   73.49    9.20 
  -7  -4  -5   87.49   11.70 
   7   4   5   94.29   12.80 
   7   4   5   93.19   11.00 
  -7   4  -5   91.79    8.60 
  -8  -4  -5   86.49    9.70 
  -8  -4  -5   82.29   10.90 
   8  -4   5   67.49   14.40 
  -8  -4  -5   73.29   15.90 
  -8   4  -5   80.19    6.60 
   8   4   5   98.39   13.40 
  -9  -5   5  120.69   16.90 
  -9  -5   5   93.89   11.60 
  -9  -5   5  114.79   15.10 
  -9  -5   5  105.49   17.50 
  -9   5   5  125.39   12.30 
  -9   5   5  111.09   11.60 
  -8  -5   5    4.50    6.50 
  -8  -5   5   26.50    6.50 
  -8  -5   5   18.80    4.90 
  -8   5   5   15.00    3.80 
   8   5  -5   19.00    7.00 
  -8   5   5   17.60    4.90 
  -7  -5   5   86.29   13.70 
  -7  -5   5   72.69   12.80 
  -7  -5   5   83.59   10.30 
   7  -5  -5   65.89    6.30 
  -7   5   5   82.19    8.70 
  -7   5   5   67.49    8.30 
   7   5  -5   62.79   12.10 
   6  -5  -5   60.29    6.90 
  -6  -5   5   52.49   10.70 
  -6  -5   5   45.70   11.40 
  -6  -5   5   65.09   10.30 
  -6   5   5   37.10    7.50 
   6   5  -5   41.10   10.20 
  -6   5   5   40.90    7.20 
  -5  -5   5  257.97   23.20 
  -5  -5   5  235.08   21.20 
   5  -5  -5  256.27   20.40 
   5  -5  -5  272.47   20.60 
  -5  -5   5  273.07   22.00 
   5   5  -5  275.97   22.60 
   5   5  -5  261.87   23.10 
  -5   5   5  258.07   20.50 
   4  -5  -5  168.48   15.50 
   4  -5  -5  147.89   15.40 
  -4  -5   5  168.18   16.00 
   4  -5  -5  170.28   13.40 
  -4  -5   5  165.78   17.60 
  -4  -5   5  170.58   15.50 
  -4  -5   5  175.08   17.30 
  -4   5   5  192.78   13.40 
   4   5  -5  176.78   16.00 
   4   5  -5  195.58   17.70 
   4   5  -5  193.88   19.20 
  -4   5   5  164.28   15.30 
  -3  -5   5  140.59   13.40 
  -3  -5   5  134.59   14.70 
   3  -5  -5  125.79   13.10 
  -3  -5   5  123.19   11.60 
   3  -5  -5  126.69   12.60 
  -3  -5   5  138.49   14.20 
   3  -5  -5  119.89   11.60 
  -3   5   5  149.49   10.80 
   3   5  -5  117.79   13.40 
   3   5  -5  101.29   11.40 
   3   5  -5  109.79   14.30 
  -3   5   5  128.09   12.80 
   2  -5  -5  782.02   49.40 
  -2  -5   5  695.33   45.60 
  -2  -5   5  822.12   51.09 
  -2  -5   5  709.33   54.19 
  -2  -5   5  758.82   49.10 
   2  -5  -5  747.23   47.10 
   2  -5  -5  735.93   45.40 
   2   5  -5  709.83   49.80 
   2   5  -5  728.93   49.80 
   2   5  -5  697.33   46.20 
  -2   5   5  746.93   48.90 
  -2   5   5  790.02   45.70 
   1  -5  -5 1852.11  105.49 
  -1  -5   5 1810.02  108.89 
  -1  -5   5 1823.32  110.89 
  -1  -5   5 1682.43  107.49 
   1  -5  -5 2110.29  103.89 
   1  -5  -5 1845.52  110.49 
   1  -5  -5 1792.42  108.29 
  -1   5   5 1872.61  106.79 
  -1   5   5 1768.52  109.79 
   1   5  -5 1655.03  109.39 
   1   5  -5 1832.12  110.69 
   0  -5   5  148.99   14.70 
   0  -5  -5  169.58   11.90 
   0  -5  -5  142.99   15.00 
   0  -5  -5  149.29   11.60 
   0  -5   5  187.08   13.50 
   0  -5   5  165.68   14.10 
   0  -5  -5  138.29   12.80 
   0  -5  -5  159.28   14.20 
   0   5   5  141.29   12.70 
   0   5  -5  146.79   14.20 
   0   5   5  140.49   14.60 
   0   5  -5  150.88   15.00 
  -1  -5  -5  146.89   12.60 
  -1  -5  -5  147.69   15.10 
   1  -5   5  147.49   12.90 
  -1  -5  -5  123.79   13.20 
  -1  -5  -5  169.08   14.50 
   1  -5   5  153.28   14.60 
   1  -5   5  157.78   12.20 
   1   5   5  137.19   12.80 
  -1   5  -5  150.68   14.50 
   1   5   5  123.49   14.00 
  -1   5  -5  145.19   14.00 
  -2  -5  -5 1980.50  110.09 
  -2  -5  -5 1944.81  112.79 
  -2  -5  -5 1937.21  112.49 
   2  -5   5 1982.50  113.39 
  -2  -5  -5 1948.01  114.89 
  -2  -5  -5 1788.72  113.99 
   2  -5   5 1964.10  110.59 
   2  -5   5 1799.02  110.49 
  -2   5  -5 1706.83  110.89 
   2   5   5 1791.82  111.79 
  -2   5  -5 1874.41  113.19 
   2   5   5 1868.71  114.19 
  -3  -5  -5  461.55   33.80 
   3  -5   5  446.96   29.90 
  -3  -5  -5  492.75   33.30 
   3  -5   5  422.46   31.90 
   3  -5   5  519.45   33.30 
  -3  -5  -5  514.45   35.60 
  -3  -5  -5  458.25   35.60 
   3   5   5  435.86   32.90 
   3   5   5  460.45   34.20 
  -3   5  -5  446.56   32.80 
  -3   5  -5  453.05   31.80 
  -4  -5  -5  652.93   42.50 
  -4  -5  -5  583.24   45.80 
  -4  -5  -5  660.63   44.80 
   4  -5   5  592.04   38.10 
  -4  -5  -5  618.04   44.30 
   4  -5   5  596.74   42.50 
  -4   5  -5  687.13   40.70 
   4   5   5  608.54   43.10 
  -4   5  -5  616.14   41.80 
   4   5   5  586.64   43.50 
  -5  -5  -5   48.80    8.50 
   5  -5   5   47.30    5.20 
  -5  -5  -5   42.90   10.80 
  -5  -5  -5   43.00    9.00 
   5  -5   5   48.00   10.30 
  -5   5  -5   55.79    7.70 
   5   5   5   53.49   11.60 
  -5   5  -5   55.99    8.00 
   5   5   5   43.90    8.30 
   6  -5   5   16.70    2.80 
  -6  -5  -5    3.60    4.20 
  -6  -5  -5   20.60    5.50 
   6  -5   5   24.60    8.40 
  -6  -5  -5   22.30    8.90 
  -6   5  -5    9.00    3.60 
   6   5   5   16.50    4.90 
   6   5   5   13.70    6.20 
   7  -5   5   70.59   14.40 
  -7  -5  -5   91.59   19.30 
  -7  -5  -5   87.79   10.80 
  -7   5  -5   86.89    9.20 
   7   5   5   60.09   11.90 
  -8  -6   5  116.19   13.10 
  -8  -6   5   98.79   16.60 
  -8  -6   5  104.79   19.00 
  -8   6   5   96.19   10.60 
   8   6  -5   96.79   14.90 
  -8   6   5  123.09   11.00 
  -7  -6   5   13.10    5.00 
  -7  -6   5   12.20    5.90 
  -7  -6   5   12.20    6.20 
   7  -6  -5    8.10    3.20 
   7   6  -5   15.40    5.70 
  -7   6   5   12.00    3.90 
  -7   6   5    8.70    3.70 
  -6  -6   5   48.70    9.00 
  -6  -6   5   46.40   11.40 
   6  -6  -5   49.99    7.60 
  -6  -6   5   42.20    9.70 
   6   6  -5   48.30   10.30 
  -6   6   5   50.69    6.40 
  -6   6   5   36.50    7.10 
  -5  -6   5    5.70    5.10 
  -5  -6   5    6.00    4.60 
   5  -6  -5    6.00    3.60 
  -5  -6   5    5.20    3.40 
  -5   6   5    6.10    3.00 
  -5   6   5    6.10    2.90 
   5   6  -5    7.30    5.10 
  -4  -6   5  439.26   34.10 
  -4  -6   5  465.45   34.90 
  -4  -6   5  420.16   29.90 
   4  -6  -5  416.46   31.00 
   4  -6  -5  378.16   28.60 
  -4  -6   5  430.26   31.90 
  -4   6   5  411.76   31.00 
  -4   6   5  428.56   27.40 
   4   6  -5  397.26   32.60 
   4   6  -5  382.36   30.20 
  -3  -6   5   83.09    9.70 
  -3  -6   5  105.59   12.20 
  -3  -6   5  100.69   13.40 
  -3  -6   5   97.09   12.70 
   3  -6  -5   94.39   10.00 
   3  -6  -5   92.49   10.20 
  -3   6   5   95.19    9.20 
   3   6  -5   99.59   12.60 
   3   6  -5   98.49   12.70 
   3   6  -5   91.39   10.40 
  -3   6   5  106.99   11.80 
  -2  -6   5   18.80    4.10 
  -2  -6   5   10.10    6.90 
  -2  -6   5    5.30    3.20 
   2  -6  -5   19.60    5.00 
  -2  -6   5   16.00    5.00 
   2  -6  -5   14.20    4.10 
   2  -6  -5   16.60    5.10 
   2   6  -5   15.00    4.50 
  -2   6   5    9.10    3.50 
  -2   6   5   11.00    4.10 
   2   6  -5    9.60    4.60 
   1  -6  -5  655.23   44.10 
  -1  -6   5  626.14   44.20 
   1  -6  -5  651.63   38.30 
  -1  -6   5  603.94   40.80 
  -1  -6   5  619.84   42.20 
   1  -6  -5  606.44   41.50 
  -1   6   5  599.54   39.60 
   1   6  -5  616.94   43.70 
   1   6  -5  542.05   42.00 
  -1   6   5  642.14   43.70 
   0  -6   5  733.23   49.60 
   0  -6  -5  724.33   47.70 
   0  -6  -5  722.63   49.60 
   0  -6   5  745.53   47.60 
   0  -6  -5  682.23   43.20 
   0  -6  -5  695.33   45.10 
   0  -6  -5  794.52   44.00 
   0   6  -5  696.33   49.10 
   0   6  -5  665.33   47.10 
   0   6   5  677.63   45.60 
   0   6   5  718.13   49.30 
   1  -6   5  638.34   43.60 
  -1  -6  -5  622.34   44.50 
   1  -6   5  572.54   40.60 
  -1  -6  -5  621.54   39.80 
  -1  -6  -5  649.93   38.70 
   1  -6   5  656.03   39.20 
  -1  -6  -5  625.84   42.20 
  -1  -6  -5  579.74   41.20 
   1   6   5  602.74   43.70 
  -1   6  -5  581.94   43.00 
  -1   6  -5  611.94   41.30 
   1   6   5  587.94   40.70 
  -2  -6  -5   15.20    5.40 
  -2  -6  -5   30.20    6.50 
  -2  -6  -5   19.90    6.40 
   2  -6   5   17.00    4.90 
  -2  -6  -5   26.00    6.40 
  -2   6  -5   16.80    5.20 
  -2   6  -5   27.30    6.40 
   2   6   5   14.40    5.30 
   3  -6   5   92.69    8.90 
  -3  -6  -5   99.39   11.20 
  -3  -6  -5   95.39   12.80 
   3  -6   5   85.39   10.10 
  -3  -6  -5   88.39   12.00 
  -3  -6  -5   82.09   11.30 
   3   6   5   77.69   10.50 
  -3   6  -5   86.19   10.80 
  -3   6  -5   80.59   11.20 
   3   6   5   80.09   11.70 
   4  -6   5  100.39   12.30 
  -4  -6  -5  110.49   12.70 
  -4  -6  -5  104.59   14.50 
   4  -6   5   95.49    9.40 
   4   6   5  119.49   13.70 
  -4   6  -5  101.09   12.40 
  -4   6  -5  129.19   12.90 
   4   6   5   96.69   12.80 
  -5  -6  -5  306.27   26.80 
   5  -6   5  270.77   19.30 
  -5  -6  -5  281.87   28.00 
   5  -6   5  269.97   24.40 
  -5  -6  -5  315.47   24.70 
   5   6   5  276.67   25.10 
  -5   6  -5  280.87   22.50 
  -5   6  -5  286.77   23.70 
   5   6   5  296.47   25.70 
  -6  -6  -5   39.80    9.00 
  -6  -6  -5   36.60    8.00 
  -6  -6  -5   39.50   10.50 
   6   6   5   26.70    8.30 
   6   6   5   34.10    9.60 
  -6   6  -5   35.10    7.40 
  -7  -6  -5   41.60    9.20 
   7  -6   5   33.70    9.30 
  -7  -6  -5   25.10    8.90 
   7   6   5   23.90    8.60 
  -7   6  -5   37.40    7.20 
  -7  -7   5   19.30    6.60 
  -7  -7   5   13.00    6.60 
  -7   7   5   20.00    5.50 
  -7   7   5   22.40    5.10 
  -6  -7   5  199.58   22.70 
   6  -7  -5  226.28   18.90 
  -6  -7   5  203.58   22.40 
  -6  -7   5  218.08   21.30 
  -6   7   5  201.38   19.50 
   6   7  -5  207.38   20.90 
  -6   7   5  219.18   16.70 
  -5  -7   5  117.59   15.10 
   5  -7  -5  100.99   12.20 
  -5  -7   5  106.99   14.60 
  -5  -7   5   92.99   12.60 
   5   7  -5   83.89   11.90 
  -5   7   5   92.09    9.30 
  -5   7   5   72.89   10.80 
  -4  -7   5   11.50    4.60 
  -4  -7   5   13.30    6.10 
   4  -7  -5   10.10    5.10 
  -4  -7   5   16.40    6.60 
  -4   7   5   12.40    4.00 
  -4   7   5   20.30    6.70 
   4   7  -5    9.50    5.30 
  -3  -7   5  119.19   14.80 
  -3  -7   5  108.69   12.10 
  -3  -7   5  119.29   16.60 
  -3  -7   5  148.99   15.30 
  -3   7   5  133.49   13.20 
   3   7  -5  104.09   12.00 
  -3   7   5  104.79   13.30 
   3   7  -5  107.09   22.00 
  -2  -7   5  247.38   17.60 
   2  -7  -5  208.48   21.30 
  -2  -7   5  269.77   22.30 
  -2  -7   5  227.98   21.30 
  -2  -7   5  271.87   24.20 
   2   7  -5  250.57   23.30 
   2   7  -5  224.48   22.10 
  -2   7   5  231.08   18.60 
   2   7  -5  221.18   18.50 
  -2   7   5  237.88   21.90 
   1  -7  -5  271.67   24.70 
   1  -7  -5  274.37   22.80 
  -1  -7   5  282.37   25.10 
  -1  -7   5  254.27   22.90 
  -1  -7   5  277.27   21.90 
  -1   7   5  275.77   22.70 
   1   7  -5  283.67   25.10 
   1   7  -5  253.77   23.00 
  -1   7   5  257.97   23.90 
   0  -7   5   49.00    8.80 
   0  -7  -5   59.59    7.20 
   0  -7   5   71.69    8.20 
   0  -7  -5   69.99   11.60 
   0  -7  -5   58.39    9.70 
   0  -7  -5   54.29    6.10 
   0  -7   5   67.89   11.80 
   0   7   5   58.59   11.00 
   0   7  -5   57.99    9.10 
   0   7   5   62.89    9.00 
   0   7  -5   45.30    8.50 
  -1  -7  -5    6.50    4.00 
  -1  -7  -5    7.80    4.70 
   1  -7   5    5.80    3.10 
  -1  -7  -5    4.60    3.90 
   1  -7   5    2.60    2.70 
  -1  -7  -5    5.90    3.30 
  -1   7  -5   11.60    5.00 
   1   7   5    4.40    4.10 
  -1   7  -5    0.10    3.30 
   1   7   5    3.60    3.00 
   2  -7   5  261.87   21.70 
  -2  -7  -5  323.77   27.80 
  -2  -7  -5  307.47   23.60 
  -2  -7  -5  306.77   25.20 
  -2  -7  -5  290.97   24.80 
  -2   7  -5  299.07   23.50 
  -2   7  -5  303.87   26.10 
   2   7   5  273.57   23.80 
   2   7   5  333.67   27.60 
  -3  -7  -5  146.19   16.90 
   3  -7   5  184.08   15.00 
  -3  -7  -5  176.28   18.70 
  -3  -7  -5  166.38   16.70 
   3  -7   5  158.28   15.00 
  -3  -7  -5  141.49   16.00 
  -3   7  -5  165.58   15.60 
  -3   7  -5  171.78   17.80 
   3   7   5  158.78   16.60 
   3   7   5  160.88   18.40 
  -4  -7  -5  257.97   25.70 
   4  -7   5  218.58   21.40 
   4  -7   5  284.37   20.20 
  -4  -7  -5  287.77   24.40 
  -4  -7  -5  286.17   26.00 
  -4   7  -5  298.97   24.20 
   4   7   5  264.27   25.70 
   4   7   5  295.87   24.90 
  -4   7  -5  246.98   22.30 
  -5  -7  -5   30.80    8.70 
   5  -7   5   32.40    8.30 
  -5  -7  -5   54.39   10.90 
   5  -7   5   36.20    5.60 
  -5  -7  -5   38.10    8.30 
  -5   7  -5   38.30    7.90 
   5   7   5   45.00    8.30 
  -5   7  -5   32.20    8.20 
   5   7   5   27.90    8.50 
   6  -7   5   13.10    7.20 
  -6  -7  -5   16.80    7.90 
  -6  -7  -5   12.50    8.80 
   6   7   5   14.50    5.60 
  -6   7  -5   12.20    5.40 
   6   7   5   -6.90    6.20 
  -6  -8   5   18.40    7.80 
   6  -8  -5   27.80    8.50 
  -6  -8   5   19.30    9.00 
  -6   8   5   24.60    5.60 
  -6   8   5   22.60    5.90 
   6   8  -5   24.50    8.30 
  -5  -8   5  166.58   19.80 
  -5  -8   5  161.48   19.90 
  -5  -8   5  164.88   18.10 
   5  -8  -5  170.48   19.40 
  -5   8   5  173.08   14.70 
   5   8  -5  166.38   18.00 
  -5   8   5  157.78   17.30 
   4  -8  -5  258.77   23.40 
  -4  -8   5  256.27   26.10 
  -4  -8   5  234.78   25.20 
  -4  -8   5  255.67   24.70 
   4   8  -5  236.08   21.70 
  -4   8   5  239.68   22.80 
  -4   8   5  251.77   19.40 
   3  -8  -5  179.58   32.40 
  -3  -8   5  288.27   26.00 
  -3  -8   5  236.28   18.60 
  -3  -8   5  229.48   22.40 
  -3  -8   5  204.28   22.40 
   3   8  -5  232.28   24.00 
   3   8  -5  247.98   20.50 
  -3   8   5  241.98   19.20 
  -3   8   5  235.08   22.80 
   2  -8  -5   11.80    6.60 
  -2  -8   5   17.20    6.60 
  -2  -8   5   21.30    8.30 
  -2  -8   5   24.80    5.30 
   2   8  -5   21.00    6.10 
  -2   8   5   21.70    6.00 
   2   8  -5   32.10    9.10 
  -2   8   5   40.20    9.20 
  -1  -8   5   28.20    7.80 
   1  -8  -5   21.50    7.00 
  -1  -8   5   25.50    9.00 
  -1  -8   5   44.70    8.20 
  -1   8   5   29.10    6.10 
   1   8  -5   37.90    9.00 
   1   8  -5   38.20    9.40 
  -1   8   5   27.70    8.20 
   0  -8  -5   50.49    6.80 
   0  -8  -5   54.39   11.90 
   0  -8   5   78.29   12.10 
   0  -8   5   78.19    8.60 
   0  -8  -5   64.49   11.40 
   0   8   5   61.89    9.10 
   0   8  -5   79.19   10.60 
   0   8  -5   61.99   10.70 
   0   8   5   59.09   11.60 
   1  -8   5   90.29   12.10 
  -1  -8  -5  108.19   13.70 
  -1  -8  -5   89.29   10.30 
  -1  -8  -5  108.89   15.00 
  -1  -8  -5  120.39   12.00 
   1  -8   5  104.79   10.60 
   1   8   5  106.29   12.70 
   1   8   5   87.49   15.00 
  -1   8  -5  110.29   13.90 
  -1   8  -5   78.39   12.00 
  -2  -8  -5  159.58   19.20 
   2  -8   5  156.98   14.10 
  -2  -8  -5  148.09   16.80 
  -2  -8  -5  138.79   16.50 
  -2  -8  -5  143.29   15.80 
   2   8   5  152.88   18.30 
   2   8   5  133.59   15.50 
  -2   8  -5  172.98   17.90 
   3  -8   5    4.20    3.50 
  -3  -8  -5   -2.70    4.30 
   3  -8   5   -2.50    2.60 
  -3  -8  -5    4.00    5.10 
  -3  -8  -5    1.70    4.20 
  -3   8  -5   -0.20    4.90 
   3   8   5    3.90    5.20 
   3   8   5    3.10    3.90 
  -3   8  -5    6.10    4.00 
  -4  -8  -5   71.49   13.50 
  -4  -8  -5   54.69   12.30 
   4  -8   5   41.40    8.60 
  -4  -8  -5   52.49   10.10 
   4   8   5   53.99   12.80 
  -4   8  -5   56.59    9.80 
   4   8   5   68.39   13.50 
  -4   8  -5   47.40    9.90 
   5  -8   5   92.89   13.20 
  -5  -8  -5   93.89   17.80 
  -5  -8  -5  131.89   17.00 
  -5   8  -5  117.19   14.00 
   5   8   5  102.39   17.80 
   5   8   5   64.59   12.70 
  -4  -9   5   52.79   11.00 
  -4  -9   5   49.60   11.40 
   4  -9  -5   21.10    8.40 
  -4  -9   5   47.70   13.80 
  -4   9   5   35.30    7.00 
   4   9  -5   45.70    9.20 
  -4   9   5   36.00    8.90 
  -3  -9   5   -6.30    5.90 
  -3  -9   5    5.00    4.60 
   3  -9  -5   10.00    6.80 
  -3  -9   5    7.70    6.70 
   3   9  -5    6.40    4.70 
  -3   9   5    8.80    4.50 
  -3   9   5   12.70    4.70 
  -2  -9   5  151.08   18.10 
   2  -9  -5  156.48   19.40 
  -2  -9   5  150.28   12.70 
  -2  -9   5  182.38   18.10 
  -2   9   5  141.09   18.20 
   2   9  -5  156.38   19.60 
  -2   9   5  143.19   14.90 
   2   9  -5  155.48   14.90 
  -1  -9   5  159.98   14.80 
  -1  -9   5  137.49   16.90 
   1  -9  -5  145.59   18.50 
   1   9  -5  146.99   19.20 
  -1   9   5  104.49   13.30 
  -1   9   5  121.79   17.00 
   0  -9   5   50.09   10.30 
   0  -9  -5   50.99   12.40 
   0  -9   5   62.19    7.90 
   0   9   5   32.40    9.30 
   0   9   5   50.79   10.60 
   0   9  -5   42.20    9.60 
   1  -9   5   99.79   11.20 
   1  -9   5  118.59   14.90 
  -1  -9  -5  100.99   16.80 
  -1  -9  -5  124.09   12.10 
  -1  -9  -5  104.19   11.10 
  -1   9  -5  103.59   15.90 
   1   9   5  127.79   16.30 
   1   9   5  110.59   13.70 
  -1   9  -5   96.29   13.60 
   2  -9   5   30.80    6.50 
  -2  -9  -5   32.20    7.90 
  -2  -9  -5   37.40    8.50 
  -2  -9  -5   16.40    8.10 
   2  -9   5   23.10    8.00 
  -2  -9  -5   39.80   11.70 
  -2   9  -5   16.40    8.40 
   2   9   5   12.60    6.20 
   2   9   5   12.20    8.20 
  -2   9  -5   34.40    8.00 
   3  -9   5   28.30    7.10 
  -3  -9  -5   36.70    8.90 
  -3  -9  -5   42.90   11.00 
   3   9   5   27.80    7.30 
   3   9   5   18.70    9.30 
 -10   0   6    5.90    6.00 
 -10   0   6   16.90    4.30 
 -10   0   6    8.10    5.50 
 -10   0   6   12.30    2.90 
  -9   0   6  378.66   23.40 
  -9   0   6  360.56   31.90 
  -9   0   6  374.66   25.40 
  -9   0   6  350.06   29.00 
  -8   0   6   91.19    7.50 
  -8   0   6   90.69   11.30 
  -8   0   6   70.39   12.10 
  -7   0   6    2.70    1.70 
  -7   0   6   -1.50    3.10 
   7   0  -6    5.70    3.90 
  -7   0   6    4.10    3.70 
  -6   0   6  810.62   52.49 
   6   0  -6  808.92   56.09 
  -6   0   6  774.82   54.09 
  -6   0   6  826.22   54.69 
  -6   0   6  880.61   49.30 
   6   0  -6  830.72   50.29 
   5   0  -6 2544.15  145.79 
  -5   0   6 2455.55  149.29 
  -5   0   6 2664.63  149.59 
   5   0  -6 2328.87  149.99 
  -5   0   6 2746.33  145.09 
  -5   0   6 2447.26  147.09 
   4   0  -6  580.64   41.60 
  -4   0   6  595.64   39.40 
  -4   0   6  660.03   41.30 
  -4   0   6  680.23   38.40 
   4   0  -6  627.94   38.70 
  -3   0   6   61.09    6.70 
   3   0  -6   60.09    7.30 
   3   0  -6   58.39    6.40 
  -3   0   6   60.79    9.60 
   3   0  -6   54.49    5.60 
  -3   0   6   63.09    5.80 
   2   0  -6 1391.96   81.69 
  -2   0   6 1479.25   80.09 
   2   0  -6 1233.78   79.89 
  -2   0   6 1392.86   80.49 
   2   0  -6 1365.86   79.89 
  -2   0   6 1383.86   79.49 
   1   0  -6 3014.90  182.68 
  -1   0   6 3219.08  182.88 
   1   0  -6 3094.69  182.48 
   1   0  -6 2971.80  184.18 
  -1   0   6 3763.52  182.08 
   0   0  -6 4006.00  241.08 
   0   0   6 4326.67  240.08 
   0   0  -6 4086.59  240.18 
   0   0   6 4033.90  241.28 
   0   0   6 4291.27  242.28 
   0   0  -6 4809.42  242.08 
  -1   0  -6 2444.86  130.89 
   1   0   6 2088.09  129.09 
   1   0   6 2141.49  129.99 
  -1   0  -6 2500.85  128.69 
   1   0   6 2203.18  132.19 
  -1   0  -6 2237.78  129.99 
   2   0   6 1548.65   93.39 
  -2   0  -6 1718.63   92.39 
  -2   0  -6 1590.64   93.49 
  -2   0  -6 1671.43   95.19 
   2   0   6 1547.65   96.89 
   3   0   6 1033.20   67.49 
  -3   0  -6 1071.49   65.39 
  -3   0  -6 1153.48   62.29 
   3   0   6 1070.99   63.49 
   3   0   6 1025.90   63.49 
  -3   0  -6 1024.50   62.59 
  -4   0  -6 2389.86  125.79 
   4   0   6 2247.08  126.49 
  -4   0  -6 2202.38  125.29 
  -4   0  -6 1880.71  132.19 
   4   0   6 2188.88  127.29 
   4   0   6 2141.99  132.09 
  -5   0  -6  147.29   11.80 
   5   0   6  150.28   14.00 
   5   0   6  158.58   18.10 
  -5   0  -6  182.78   13.20 
  -5   0  -6  164.58   16.70 
  -6   0  -6   74.29    7.90 
   6   0   6   42.70   11.70 
  -6   0  -6   54.89    7.40 
   6   0   6   64.29    8.60 
   6   0   6   57.99    6.50 
   7   0   6   32.40    4.70 
   7   0   6   29.90    9.40 
  -7   0  -6   37.10    6.60 
   7   0   6   30.30    7.10 
  -7   0  -6   29.70    4.20 
   8   0   6  180.28   16.70 
  -8   0  -6  155.68   11.50 
  -8   0  -6  143.19   12.90 
   8   0   6  128.49   18.70 
 -10  -1   6  126.79    9.50 
 -10  -1   6  126.09   20.60 
 -10  -1   6  110.49   14.40 
 -10  -1   6  119.19   11.10 
 -10   1   6  116.09   16.50 
 -10   1   6  117.99   14.30 
  -9  -1   6  104.69   13.90 
  -9  -1   6  156.28   12.70 
  -9  -1   6  126.29    9.70 
  -9  -1   6  111.79   16.20 
  -9   1   6  102.99    9.50 
  -9   1   6  134.29   15.90 
  -9   1   6  117.09    9.00 
  -9   1   6  122.39   13.90 
  -8  -1   6   49.30   11.50 
  -8  -1   6   77.59   10.70 
  -8  -1   6   78.59    8.80 
  -8  -1   6   59.49    6.50 
  -8   1   6   74.79    6.60 
  -8   1   6   77.49   10.70 
  -8   1   6   87.69   11.40 
  -8   1   6   69.69   12.50 
  -7  -1   6  107.89   12.70 
  -7  -1   6  109.99    9.40 
  -7  -1   6  112.39   14.10 
   7  -1  -6   93.39   13.40 
  -7   1   6  126.19    9.40 
  -7   1   6  122.99   13.50 
   7   1  -6  131.39   17.90 
  -7   1   6  115.19   13.70 
   6  -1  -6  282.17   19.20 
  -6  -1   6  277.37   22.20 
   6  -1  -6  298.27   24.30 
  -6  -1   6  290.37   24.50 
  -6  -1   6  315.77   19.60 
  -6  -1   6  278.07   23.50 
   6   1  -6  251.27   27.20 
   6   1  -6  278.07   20.60 
  -6   1   6  295.77   22.00 
  -6   1   6  297.87   23.10 
  -6   1   6  268.57   23.30 
  -6   1   6  288.87   19.00 
   5  -1  -6   99.19   10.80 
   5  -1  -6  120.69    9.60 
  -5  -1   6  116.79   11.90 
  -5  -1   6  127.29   10.00 
  -5  -1   6  119.19   13.20 
  -5  -1   6  110.29   12.30 
   5  -1  -6  104.79   12.20 
   5   1  -6  134.19   11.20 
  -5   1   6  143.49   12.80 
  -5   1   6  136.69    9.80 
   5   1  -6  117.29   13.40 
  -5   1   6  137.89   12.10 
   4  -1  -6  133.09    9.90 
  -4  -1   6  133.79   13.00 
  -4  -1   6  121.49   11.30 
  -4  -1   6  146.69   10.40 
  -4  -1   6  116.59   11.80 
   4  -1  -6  125.09   12.10 
   4  -1  -6  115.59   11.10 
   4   1  -6  128.69   10.80 
   4   1  -6  117.19   12.70 
  -4   1   6  125.09   12.30 
  -4   1   6  125.09    9.90 
  -4   1   6  132.79   11.30 
   3  -1  -6  638.84   37.60 
  -3  -1   6  598.24   40.10 
  -3  -1   6  668.93   40.20 
   3  -1  -6  577.04   38.70 
  -3  -1   6  672.83   38.10 
  -3  -1   6  582.54   38.30 
   3  -1  -6  579.44   39.20 
  -3   1   6  642.14   38.10 
  -3   1   6  596.44   38.50 
   3   1  -6  616.44   40.90 
  -3   1   6  624.54   37.80 
   3   1  -6  651.23   38.80 
   2  -1  -6  404.26   25.70 
  -2  -1   6  360.96   25.80 
  -2  -1   6  373.66   24.30 
   2  -1  -6  388.26   24.40 
  -2  -1   6  396.06   24.70 
   2  -1  -6  350.16   24.70 
   2   1  -6  352.96   25.40 
   2   1  -6  416.16   25.40 
  -2   1   6  435.86   25.00 
   1  -1  -6  137.89   10.10 
   1  -1  -6  130.79   11.10 
  -1  -1   6  142.79   15.40 
  -1  -1   6  139.19   10.30 
  -1  -1   6  139.39    9.40 
   1  -1  -6  134.09   10.10 
   1   1  -6  119.29   12.00 
  -1   1   6  135.69   10.20 
   1   1  -6  125.39   10.30 
  -1   1   6  154.38    9.60 
  -1   1   6  127.69   10.30 
   1   1  -6  110.99    9.50 
   0  -1  -6   62.39    6.10 
   0  -1   6   64.29    6.90 
   0  -1  -6   71.19    6.40 
   0  -1   6   74.99    5.00 
   0  -1   6   54.99    5.70 
   0   1  -6   54.49    5.30 
   0   1   6   61.69    5.60 
   0   1  -6   65.29    6.20 
   0   1   6   60.79    6.90 
   0   1   6   58.89    6.40 
  -1  -1  -6 2419.36  136.79 
  -1  -1  -6 2369.16  136.09 
  -1  -1  -6 2552.44  134.99 
   1  -1   6 2437.76  138.09 
   1  -1   6 2275.57  135.79 
  -1   1  -6 2753.02  137.09 
   1   1   6 2224.88  138.19 
  -1   1  -6 2263.67  136.09 
   1   1   6 2269.17  136.69 
   1   1   6 2184.58  135.59 
  -2  -1  -6 3130.79  174.58 
  -2  -1  -6 3091.79  176.38 
   2  -1   6 3045.40  177.78 
   2  -1   6 2905.71  174.08 
  -2  -1  -6 3208.68  173.78 
   2   1   6 2889.51  175.38 
   2   1   6 2886.21  177.88 
  -2   1  -6 3305.07  175.78 
   3  -1   6  922.21   60.79 
  -3  -1  -6 1020.60   56.49 
  -3  -1  -6  998.40   56.69 
  -3  -1  -6  987.70   59.69 
   3  -1   6  988.50   56.49 
  -3   1  -6  946.41   58.29 
   3   1   6  886.21   57.59 
   3   1   6  887.91   61.09 
  -3   1  -6  898.41   56.19 
   3   1   6  942.21   57.79 
  -4  -1  -6  380.56   27.70 
   4  -1   6  357.16   23.60 
   4  -1   6  367.26   24.30 
  -4  -1  -6  344.87   23.50 
  -4  -1  -6  397.76   24.50 
   4  -1   6  345.07   28.50 
   4   1   6  338.37   29.00 
   4   1   6  349.57   25.60 
  -4   1  -6  349.77   23.70 
  -4   1  -6  358.56   23.40 
   4   1   6  380.76   25.20 
   5  -1   6  184.88   14.00 
  -5  -1  -6  204.28   15.20 
   5  -1   6  181.48   15.20 
  -5  -1  -6  197.48   14.10 
   5  -1   6  185.08   19.40 
   5   1   6  176.38   19.60 
  -5   1  -6  201.48   17.30 
  -5   1  -6  202.38   14.00 
   5   1   6  176.08   14.90 
   5   1   6  180.98   16.50 
  -5   1  -6  182.08   13.60 
   6  -1   6  405.46   25.90 
  -6  -1  -6  432.16   28.40 
  -6  -1  -6  421.76   26.50 
   6  -1   6  364.46   33.60 
   6  -1   6  404.26   28.70 
  -6   1  -6  394.16   26.00 
   6   1   6  420.16   30.50 
   6   1   6  345.47   33.80 
  -6   1  -6  429.76   27.20 
   6   1   6  412.76   27.70 
   7  -1   6   81.19    9.60 
  -7  -1  -6   65.09    7.00 
  -7  -1  -6   73.49    8.70 
   7  -1   6   79.79   16.10 
   7   1   6   63.69   14.10 
   7   1   6   73.59   10.70 
   7   1   6   66.29   11.00 
  -7   1  -6   63.29    6.70 
  -7   1  -6   86.69   11.20 
  -8  -1  -6   34.10    4.90 
   8  -1   6   52.19   13.20 
   8  -1   6   52.69   10.90 
   8   1   6   29.10   13.20 
   8   1   6   39.20    9.80 
  -8   1  -6   44.30    5.40 
  -8   1  -6   36.50    6.80 
 -10  -2   6   23.30    4.30 
 -10  -2   6   20.40    7.20 
 -10  -2   6   27.50    5.90 
 -10  -2   6   28.00    9.90 
 -10   2   6   14.40    7.10 
 -10   2   6   29.80    8.30 
  -9  -2   6   94.59   10.90 
  -9  -2   6  103.39   14.60 
  -9  -2   6   92.09    8.30 
  -9  -2   6   84.89   12.00 
  -9   2   6   76.59   11.50 
  -9   2   6   78.69    7.00 
  -9   2   6   93.19   12.60 
  -8  -2   6   82.69   14.00 
  -8  -2   6   83.09    8.00 
  -8  -2   6   72.69   10.50 
  -8  -2   6   57.69   12.60 
  -8   2   6   76.29    7.10 
  -8   2   6   74.09   11.40 
  -8   2   6   72.09   10.30 
  -8   2   6   89.69   11.20 
  -7  -2   6  356.76   23.40 
   7  -2  -6  364.76   21.70 
  -7  -2   6  307.77   25.90 
  -7  -2   6  340.17   29.40 
  -7   2   6  307.07   26.30 
  -7   2   6  323.87   22.30 
  -7   2   6  344.37   26.40 
  -7   2   6  362.76   25.70 
   6  -2  -6  736.13   48.80 
  -6  -2   6  764.72   45.10 
  -6  -2   6  673.43   48.60 
   6  -2  -6  757.62   43.50 
  -6  -2   6  718.63   50.49 
  -6  -2   6  660.93   46.90 
  -6   2   6  778.32   47.40 
   6   2  -6  679.93   51.29 
  -6   2   6  747.93   46.40 
  -6   2   6  732.43   44.30 
   6   2  -6  748.73   46.80 
  -6   2   6  669.03   48.60 
   5  -2  -6 1480.65   89.59 
   5  -2  -6 1263.47   87.79 
  -5  -2   6 1615.94   92.39 
  -5  -2   6 1444.56   90.09 
  -5  -2   6 1342.97   87.99 
  -5  -2   6 1587.24   87.09 
   5  -2  -6 1585.14   86.89 
  -5   2   6 1455.25   87.09 
   5   2  -6 1344.17   91.99 
   5   2  -6 1502.75   88.59 
  -5   2   6 1579.54   86.49 
  -4  -2   6 1741.33  104.49 
  -4  -2   6 1903.21  106.39 
   4  -2  -6 1591.44  102.79 
   4  -2  -6 1736.43  103.49 
  -4  -2   6 1680.03  102.79 
   4  -2  -6 1767.82  100.69 
  -4  -2   6 1845.72  102.39 
  -4   2   6 1639.24  101.69 
  -4   2   6 1820.52  101.89 
  -4   2   6 1762.72  101.79 
   4   2  -6 1812.92  103.69 
   4   2  -6 1704.03  106.59 
  -3  -2   6  924.71   58.19 
  -3  -2   6  922.01   59.39 
   3  -2  -6  922.01   58.29 
  -3  -2   6  992.40   60.89 
   3  -2  -6 1028.70   57.29 
  -3  -2   6 1016.80   58.49 
   3  -2  -6  939.51   58.69 
  -3   2   6 1053.19   57.19 
   3   2  -6  955.50   59.39 
  -3   2   6  968.90   58.19 
  -3   2   6 1032.50   57.49 
   3   2  -6  865.21   60.79 
   2  -2  -6 1125.09   68.79 
  -2  -2   6 1087.89   68.29 
  -2  -2   6 1185.18   69.29 
   2  -2  -6 1132.19   68.99 
  -2  -2   6 1191.68   69.89 
   2  -2  -6 1156.58   68.49 
  -2   2   6 1362.56   68.19 
  -2   2   6 1136.99   69.79 
   2   2  -6 1135.89   70.19 
   2   2  -6 1165.88   71.69 
  -1  -2   6 1903.81  111.99 
  -1  -2   6 2017.10  112.89 
   1  -2  -6 2058.09  111.79 
   1  -2  -6 1975.50  111.59 
  -1  -2   6 1779.02  110.59 
  -1  -2   6 1830.82  112.19 
   1  -2  -6 1836.32  111.89 
  -1   2   6 2184.58  111.59 
  -1   2   6 1879.51  111.99 
   1   2  -6 1903.61  114.39 
   1   2  -6 1916.11  113.19 
  -1   2   6 2036.90  113.29 
   0  -2   6 5418.06  302.77 
   0  -2  -6 5210.18  302.87 
   0  -2  -6 6148.29  301.97 
   0   2   6 5414.66  304.07 
   0   2   6 5405.16  302.37 
   0   2  -6 5219.88  303.57 
   0   2   6 5041.90  303.67 
   0   2  -6 4928.41  304.07 
  -1  -2  -6   34.60    5.10 
  -1  -2  -6   50.79    5.90 
   1  -2   6   45.80    5.00 
   1  -2   6   50.99    6.70 
  -1  -2  -6   53.39    4.90 
   1   2   6   53.49    7.00 
   1   2   6   51.89    5.70 
   1   2   6   48.20    6.10 
  -1   2  -6   53.79    7.00 
  -1   2  -6   57.89    6.00 
   2  -2   6  130.99   12.90 
  -2  -2  -6  149.79   10.80 
  -2  -2  -6  140.99   11.30 
   2  -2   6  131.49   10.40 
  -2  -2  -6  141.19   12.60 
  -2   2  -6  143.79   11.40 
  -2   2  -6  158.78   11.90 
   2   2   6  128.79   12.00 
   2   2   6  142.09   13.80 
   2   2   6  124.39   11.40 
   3  -2   6  371.46   27.90 
  -3  -2  -6  361.96   26.90 
   3  -2   6  352.06   23.50 
  -3  -2  -6  366.46   24.60 
  -3  -2  -6  381.56   24.40 
   3   2   6  360.26   25.70 
  -3   2  -6  358.86   24.50 
   3   2   6  340.87   28.20 
  -3   2  -6  426.36   25.90 
   4  -2   6  205.28   14.20 
  -4  -2  -6  193.78   18.10 
  -4  -2  -6  218.08   15.70 
   4  -2   6  204.48   19.10 
  -4  -2  -6  186.28   14.80 
  -4   2  -6  193.48   21.70 
   4   2   6  194.18   16.30 
   4   2   6  182.08   16.60 
   4   2   6  189.98   19.30 
  -4   2  -6  204.78   14.90 
  -5  -2  -6  249.78   17.60 
   5  -2   6  209.98   15.40 
  -5  -2  -6  203.08   16.00 
   5  -2   6  206.28   21.20 
   5   2   6  246.68   18.30 
  -5   2  -6  236.58   19.00 
   5   2   6  215.88   19.00 
  -5   2  -6  209.68   15.90 
  -6  -2  -6  189.18   13.90 
   6  -2   6  165.48   12.20 
  -6  -2  -6  172.38   15.70 
   6  -2   6  158.08   19.20 
   6   2   6  167.28   14.80 
   6   2   6  192.78   21.40 
  -6   2  -6  161.28   13.20 
  -7  -2  -6   12.20    3.70 
  -7  -2  -6    8.80    2.90 
   7  -2   6   12.40    6.30 
  -7   2  -6   10.70    2.90 
   7   2   6    3.60    3.60 
   7   2   6   10.60    3.70 
   7   2   6    1.00    5.20 
  -8  -2  -6   84.09    8.70 
  -8  -2  -6   94.09   15.60 
  -8  -2  -6   86.69   10.50 
   8  -2   6  100.19   16.20 
   8   2   6   98.89   13.20 
  -8   2  -6  100.29    8.30 
  -9  -3   6   13.20    5.60 
  -9  -3   6   10.40    4.40 
  -9  -3   6   23.10    8.90 
  -9   3   6    0.10    5.60 
  -9   3   6   17.00    3.10 
  -9   3   6    8.50    4.50 
  -9   3   6   12.20    5.20 
  -8  -3   6   28.80    6.40 
  -8  -3   6   41.80    8.90 
  -8  -3   6   27.50    9.00 
  -8  -3   6   49.30    6.20 
  -8   3   6   38.90    5.00 
  -8   3   6   42.00    8.20 
  -8   3   6   35.80    8.00 
  -8   3   6   36.70    7.80 
   7  -3  -6  299.17   19.90 
  -7  -3   6  308.57   22.00 
  -7  -3   6  286.17   24.40 
  -7  -3   6  266.47   23.60 
  -7  -3   6  314.67   27.70 
  -7   3   6  308.47   23.10 
  -7   3   6  317.87   21.30 
  -7   3   6  281.77   23.00 
  -7   3   6  314.67   22.80 
  -6  -3   6  267.57   19.30 
  -6  -3   6  235.28   20.00 
  -6  -3   6  267.97   23.70 
   6  -3  -6  222.38   19.70 
   6  -3  -6  274.77   18.20 
  -6   3   6  209.68   18.60 
  -6   3   6  260.57   20.30 
  -6   3   6  250.87   18.90 
  -6   3   6  245.98   18.10 
   5  -3  -6  142.69   13.90 
   5  -3  -6  159.88   11.30 
  -5  -3   6  170.48   17.20 
   5  -3  -6  158.68   13.50 
  -5  -3   6  161.98   13.60 
  -5  -3   6  129.49   13.30 
   5   3  -6  143.89   16.40 
  -5   3   6  150.48   13.20 
  -5   3   6  155.78   12.70 
   5   3  -6  164.08   14.70 
  -5   3   6  164.88   13.20 
   4  -3  -6  138.39   13.60 
   4  -3  -6  153.48   12.90 
  -4  -3   6  188.08   14.10 
   4  -3  -6  161.78   11.80 
  -4  -3   6  148.49   14.30 
  -4  -3   6  144.39   13.20 
  -4  -3   6  188.48   17.00 
  -4   3   6  157.08   13.20 
  -4   3   6  164.68   12.00 
   4   3  -6  149.88   16.20 
  -4   3   6  177.58   12.80 
   4   3  -6  161.58   14.70 
  -3  -3   6  742.83   48.10 
   3  -3  -6  770.32   46.20 
   3  -3  -6  717.63   47.20 
  -3  -3   6  785.52   50.09 
  -3  -3   6  843.52   48.20 
   3  -3  -6  738.43   46.20 
  -3  -3   6  719.83   46.90 
  -3   3   6  787.62   47.80 
   3   3  -6  668.63   49.99 
   3   3  -6  779.02   49.20 
  -3   3   6  846.12   44.90 
  -2  -3   6 1601.54   98.29 
   2  -3  -6 1603.84   95.29 
   2  -3  -6 1691.23   96.29 
  -2  -3   6 1775.32   97.69 
  -2  -3   6 1542.95   95.59 
   2  -3  -6 1626.64   95.99 
   2   3  -6 1745.03   98.89 
  -2   3   6 1694.83   97.89 
  -2   3   6 1620.44   94.99 
   2   3  -6 1635.64   99.69 
   1  -3  -6 1651.03   87.19 
   1  -3  -6 1421.16   87.79 
  -1  -3   6 1513.95   88.49 
  -1  -3   6 1468.95   88.29 
   1   3  -6 1432.86   90.19 
  -1   3   6 1385.46   87.29 
  -1   3   6 1588.74   87.29 
   1   3  -6 1496.55   89.79 
  -1   3   6 1532.45   89.59 
   0  -3  -6  288.27   20.00 
   0  -3  -6  311.17   19.50 
   0  -3  -6  290.47   20.90 
   0  -3   6  294.87   20.60 
   0  -3   6  355.46   21.20 
   0   3   6  308.87   22.20 
   0   3   6  269.47   20.90 
   0   3  -6  281.97   21.70 
   0   3   6  311.97   20.50 
   1  -3   6  331.07   22.20 
   1  -3   6  373.86   23.70 
  -1  -3  -6  342.77   23.00 
  -1  -3  -6  321.57   23.00 
  -1  -3  -6  363.26   21.70 
   1   3   6  310.87   24.10 
   1   3   6  326.37   24.10 
  -1   3  -6  312.97   24.00 
   1   3   6  300.17   22.50 
  -1   3  -6  348.97   23.90 
  -2  -3  -6 3319.37  180.48 
  -2  -3  -6 3116.59  181.18 
   2  -3   6 3087.59  178.38 
  -2  -3  -6 3303.97  178.78 
   2  -3   6 3142.69  181.38 
  -2   3  -6 2625.44  180.68 
   2   3   6 2950.90  182.68 
  -2   3  -6 3640.44  180.48 
   2   3   6 2978.80  180.18 
   2   3   6 3086.69  181.58 
  -3  -3  -6  551.14   37.50 
  -3  -3  -6  583.74   34.80 
  -3  -3  -6  529.65   35.20 
   3  -3   6  533.55   33.20 
   3  -3   6  524.85   37.30 
   3   3   6  521.25   38.90 
   3   3   6  523.55   36.60 
  -3   3  -6  560.64   35.50 
   3   3   6  520.05   36.10 
  -4  -3  -6   46.60    8.20 
  -4  -3  -6   48.10    9.60 
  -4  -3  -6   52.79    9.50 
   4  -3   6   43.80    9.40 
   4  -3   6   56.59    5.50 
  -4  -3  -6   52.69    6.90 
   4   3   6   37.50    7.00 
   4   3   6   49.50    7.50 
  -4   3  -6   50.29    6.60 
  -4   3  -6   66.19    7.90 
   4   3   6   60.49   12.00 
   5  -3   6   53.79    5.50 
  -5  -3  -6   35.30    6.40 
  -5  -3  -6   42.00    8.10 
   5  -3   6   50.79   10.70 
   5   3   6   37.70    9.80 
   5   3   6   59.69    8.60 
  -5   3  -6   52.69    6.60 
   5   3   6   45.50    7.90 
  -5   3  -6   71.19    8.50 
   6  -3   6  306.47   19.70 
   6  -3   6  267.67   27.10 
  -6  -3  -6  327.57   22.60 
  -6  -3  -6  303.87   24.60 
   6   3   6  318.87   24.30 
   6   3   6  305.77   25.80 
   6   3   6  307.37   29.50 
  -6   3  -6  310.47   22.10 
  -7  -3  -6   22.80    4.20 
  -7  -3  -6   28.60    7.90 
   7  -3   6   23.90    8.00 
  -7  -3  -6   18.30    5.70 
   7   3   6    6.10    4.60 
   7   3   6   20.00    6.40 
  -7   3  -6   17.30    3.80 
  -8  -3  -6   42.70    8.40 
  -8  -3  -6   47.00    6.60 
  -8  -3  -6   56.39   13.10 
   8  -3   6   51.29   11.70 
   8   3   6   26.80    9.10 
   8   3   6   55.89   11.40 
  -8   3  -6   46.40    5.70 
  -9  -4   6   47.60   10.20 
  -9  -4   6   52.69   13.10 
  -9  -4   6   37.80    7.00 
  -9  -4   6   58.39   13.50 
  -9   4   6   32.40    8.70 
  -9   4   6   52.69    5.60 
  -9   4   6   56.79    9.70 
  -9   4   6   69.19    9.30 
  -8  -4   6  147.09   18.90 
  -8  -4   6  132.29   13.30 
  -8  -4   6  132.59   15.00 
  -8  -4   6  115.39   15.10 
  -8   4   6  153.48   13.50 
  -8   4   6  147.49   12.20 
  -8   4   6  135.79   13.10 
  -8   4   6  147.19   13.90 
  -7  -4   6   25.80    8.40 
  -7  -4   6   28.10    7.30 
  -7  -4   6   33.50    7.50 
  -7  -4   6   35.90    6.50 
  -7   4   6   29.20    5.80 
  -7   4   6   39.90    5.50 
  -7   4   6   44.00    7.70 
   6  -4  -6   40.40    6.40 
  -6  -4   6   29.40    7.60 
  -6  -4   6   34.60    9.00 
  -6  -4   6   47.60    7.80 
  -6  -4   6   44.00   10.20 
  -6   4   6   37.20    6.50 
  -6   4   6   40.20    6.20 
  -6   4   6   32.00    7.60 
  -6   4   6   31.10    5.50 
   5  -4  -6  418.66   28.00 
  -5  -4   6  420.56   28.70 
  -5  -4   6  338.07   27.50 
  -5  -4   6  452.95   31.30 
  -5  -4   6  385.96   29.60 
   5  -4  -6  331.57   27.70 
   5   4  -6  401.06   30.10 
  -5   4   6  382.26   27.60 
  -5   4   6  453.35   26.60 
   4  -4  -6  887.81   52.49 
  -4  -4   6  918.81   55.39 
   4  -4  -6  909.01   55.29 
  -4  -4   6  786.02   53.79 
  -4  -4   6  917.81   58.39 
  -4  -4   6  869.11   55.59 
  -4   4   6  873.81   54.79 
   4   4  -6  872.01   56.79 
   4   4  -6  812.92   58.59 
  -3  -4   6  793.62   47.90 
  -3  -4   6  770.62   49.80 
  -3  -4   6  731.43   47.10 
   3  -4  -6  749.62   45.50 
   3  -4  -6  733.73   46.40 
  -3  -4   6  676.83   45.70 
  -3   4   6  725.63   47.60 
   3   4  -6  767.82   49.50 
  -2  -4   6 1056.69   68.09 
  -2  -4   6 1031.00   64.89 
   2  -4  -6 1149.29   66.29 
   2  -4  -6 1066.59   63.79 
   2  -4  -6 1155.98   68.79 
  -2  -4   6 1059.39   65.69 
  -2  -4   6 1156.78   67.59 
   2  -4  -6 1083.69   65.39 
  -2   4   6 1020.10   63.89 
   2   4  -6 1043.80   69.29 
  -2   4   6 1237.98   65.39 
  -2   4   6 1117.19   68.09 
   2   4  -6 1131.99   69.09 
  -1  -4   6  356.66   26.30 
   1  -4  -6  384.06   26.20 
  -1  -4   6  372.16   26.70 
   1  -4  -6  400.56   24.80 
   1  -4  -6  445.06   23.90 
   1   4  -6  385.06   28.10 
  -1   4   6  390.96   25.40 
  -1   4   6  371.86   27.60 
   1   4  -6  377.86   28.20 
  -1   4   6  333.57   24.70 
   0  -4  -6  730.13   39.40 
   0  -4  -6  691.73   41.00 
   0  -4   6  661.53   41.20 
   0  -4  -6  631.94   41.20 
   0   4   6  549.15   40.50 
   0   4   6  631.04   40.40 
   0   4  -6  643.14   42.70 
   0   4  -6  637.54   42.70 
   0   4   6  603.34   42.50 
  -1  -4  -6 1546.15   92.59 
  -1  -4  -6 1713.53   91.39 
   1  -4   6 1583.74   92.39 
  -1  -4  -6 1630.84   95.99 
  -1  -4  -6 1538.45   93.49 
   1  -4   6 1673.93   92.79 
  -1   4  -6 1559.54   94.59 
   1   4   6 1574.04   95.19 
  -1   4  -6 1449.06   93.79 
   1   4   6 1438.16   94.09 
   1   4   6 1528.25   92.99 
  -2  -4  -6   90.49    9.40 
   2  -4   6   84.49    8.30 
   2  -4   6   73.49    9.60 
  -2  -4  -6   95.39   10.30 
  -2  -4  -6   89.39   10.80 
   2   4   6   78.19    9.40 
   2   4   6   96.59   11.20 
   2   4   6   98.09   10.90 
  -2   4  -6   89.99   10.20 
  -2   4  -6   92.09   11.50 
  -3  -4  -6  225.58   18.30 
   3  -4   6  228.18   16.20 
  -3  -4  -6  256.67   17.70 
   3  -4   6  210.08   19.20 
  -3  -4  -6  246.68   20.40 
  -3  -4  -6  219.98   19.90 
   3   4   6  236.98   19.30 
   3   4   6  210.48   19.30 
  -3   4  -6  259.97   18.90 
   3   4   6  205.18   20.60 
  -3   4  -6  223.78   18.30 
  -4  -4  -6  438.86   30.00 
   4  -4   6  422.26   26.90 
  -4  -4  -6  447.16   32.70 
   4  -4   6  391.96   31.70 
  -4  -4  -6  455.55   32.40 
   4   4   6  394.96   31.00 
  -4   4  -6  443.46   30.00 
   4   4   6  387.56   33.50 
  -5  -4  -6  114.49   16.50 
  -5  -4  -6  138.19   13.20 
   5  -4   6  124.89   15.10 
   5  -4   6  135.59   10.60 
  -5  -4  -6  127.49   14.50 
   5   4   6  136.79   17.20 
   5   4   6  129.09   14.20 
   5   4   6  141.79   15.30 
  -5   4  -6  156.88   16.10 
  -5   4  -6  152.58   13.10 
  -6  -4  -6    5.70    6.30 
  -6  -4  -6   12.80    4.30 
   6  -4   6   11.60    2.80 
   6  -4   6   10.80    6.30 
  -6  -4  -6   15.70    4.90 
  -6   4  -6   14.40    4.00 
   6   4   6   17.20    5.60 
   6   4   6   20.30    6.60 
  -7  -4  -6   -3.00    4.20 
  -7  -4  -6   12.60    3.70 
   7  -4   6    0.50    5.50 
  -7  -4  -6    1.30    2.00 
   7   4   6    5.40    4.50 
  -7   4  -6    0.60    2.40 
   7   4   6    7.60    4.50 
  -8  -5   6   63.69    9.90 
  -8  -5   6   66.49    8.70 
  -8  -5   6   63.99   11.50 
  -8   5   6   59.19    7.80 
  -8   5   6   76.89    9.00 
  -7  -5   6  171.18   19.20 
  -7  -5   6  189.88   20.80 
  -7  -5   6  150.88   17.00 
   7  -5  -6  192.68   14.70 
  -7  -5   6  198.48   17.60 
  -7   5   6  187.68   16.10 
   7   5  -6  213.08   20.30 
  -7   5   6  203.48   15.60 
  -6  -5   6  168.18   16.20 
  -6  -5   6  162.78   19.20 
  -6  -5   6  153.28   17.40 
   6  -5  -6  183.48   15.00 
  -6   5   6  149.19   14.80 
   6   5  -6  178.68   17.70 
  -6   5   6  190.58   14.20 
   5  -5  -6  472.75   34.40 
  -5  -5   6  514.25   38.20 
  -5  -5   6  485.55   35.90 
  -5  -5   6  492.35   38.40 
  -5  -5   6  486.25   35.30 
  -5   5   6  566.14   32.40 
  -5   5   6  461.85   34.50 
   5   5  -6  507.55   36.30 
   4  -5  -6   13.90    4.30 
  -4  -5   6   11.10    5.80 
  -4  -5   6   14.70    5.40 
   4  -5  -6   24.20    6.10 
   4  -5  -6   11.20    4.30 
  -4  -5   6   14.90    4.90 
  -4  -5   6   15.30    4.70 
  -4   5   6   18.50    4.80 
   4   5  -6   24.90    6.40 
   4   5  -6   17.20    5.70 
  -4   5   6   17.70    4.20 
   4   5  -6   13.70    7.20 
   3  -5  -6  111.29   11.20 
  -3  -5   6  117.19   12.20 
  -3  -5   6  108.59   14.60 
  -3  -5   6   99.19   10.60 
  -3  -5   6  108.69   12.80 
   3  -5  -6  108.89   10.40 
   3   5  -6  125.89   11.80 
  -3   5   6  108.49   12.00 
   3   5  -6  107.89   13.10 
   3   5  -6  112.79   12.80 
  -3   5   6  121.39   10.00 
  -2  -5   6  935.91   58.99 
  -2  -5   6 1034.20   64.49 
   2  -5  -6  936.51   62.69 
  -2  -5   6 1052.29   62.39 
  -2  -5   6  901.41   61.89 
   2  -5  -6 1009.90   60.39 
   2  -5  -6  994.10   60.59 
   2   5  -6  985.80   63.79 
  -2   5   6 1037.40   59.39 
  -2   5   6  980.80   62.79 
   2   5  -6  926.21   63.59 
   1  -5  -6  642.54   42.30 
   1  -5  -6  665.23   44.80 
  -1  -5   6  704.03   45.60 
  -1  -5   6  677.43   42.50 
   1  -5  -6  651.53   41.50 
  -1  -5   6  676.83   43.00 
  -1   5   6  636.34   44.20 
  -1   5   6  675.53   41.30 
   1   5  -6  559.64   43.40 
   1   5  -6  610.04   44.40 
   0  -5  -6  739.93   47.30 
   0  -5   6  724.73   46.80 
   0  -5   6  766.52   49.40 
   0  -5  -6  796.62   44.40 
   0  -5  -6  773.52   49.80 
   0   5   6  612.44   45.30 
   0   5   6  717.23   46.10 
   0   5   6  732.83   48.90 
   0   5  -6  738.43   48.20 
   0   5  -6  675.73   48.40 
  -1  -5  -6  386.06   27.70 
  -1  -5  -6  416.86   26.80 
  -1  -5  -6  417.56   29.60 
   1  -5   6  417.96   28.50 
   1  -5   6  437.66   28.10 
   1  -5   6  432.06   30.90 
  -1  -5  -6  415.96   31.50 
  -1   5  -6  400.76   30.00 
  -1   5  -6  428.56   31.10 
   1   5   6  340.57   28.70 
   1   5   6  434.36   31.30 
   1   5   6  411.66   28.90 
  -2  -5  -6  647.64   40.40 
  -2  -5  -6  589.24   42.20 
  -2  -5  -6  615.54   40.50 
   2  -5   6  601.54   39.30 
   2  -5   6  498.25   37.20 
   2  -5   6  639.84   41.30 
   2   5   6  570.14   41.30 
  -2   5  -6  535.35   39.70 
  -2   5  -6  598.74   41.10 
   2   5   6  651.93   42.60 
  -3  -5  -6  136.29   13.20 
  -3  -5  -6  121.49   13.70 
   3  -5   6  115.19   10.50 
  -3  -5  -6  132.39   14.40 
  -3  -5  -6  126.59   14.80 
   3  -5   6  124.89   13.00 
   3   5   6  145.99   14.80 
  -3   5  -6  118.69   13.60 
  -3   5  -6  111.09   12.50 
   3   5   6  107.89   13.90 
  -4  -5  -6    4.70    3.10 
   4  -5   6    1.70    3.30 
   4  -5   6   -0.70    1.70 
  -4  -5  -6    2.80    3.20 
  -4  -5  -6    0.50    3.30 
   4   5   6   -2.60    2.30 
   4   5   6    4.70    3.10 
  -4   5  -6    1.90    3.70 
  -4   5  -6   -1.90    2.60 
   5  -5   6  165.08   19.30 
  -5  -5  -6  218.38   20.90 
   5  -5   6  219.58   15.20 
  -5  -5  -6  202.18   22.90 
  -5  -5  -6  231.18   19.10 
   5   5   6  243.58   21.30 
  -5   5  -6  229.18   18.70 
   5   5   6  199.18   19.70 
   6  -5   6  139.89   15.80 
  -6  -5  -6  131.29   14.90 
  -6  -5  -6  134.49   18.20 
  -6  -5  -6  130.19   13.00 
   6  -5   6  123.39    9.50 
   6   5   6  103.29   14.30 
   6   5   6   75.39   13.40 
  -6   5  -6  107.79   12.30 
  -7  -5  -6   79.09   17.50 
  -7  -5  -6  119.59   12.40 
   7  -5   6   77.49   16.10 
  -7  -5  -6   95.19   15.40 
   7   5   6  105.19   14.80 
  -7   5  -6  114.99   11.10 
   7   5   6  100.69   14.40 
  -8  -6   6   81.59   11.00 
  -8  -6   6   60.99   13.40 
  -8  -6   6   51.39   10.50 
  -8   6   6   94.59    9.40 
   8   6  -6   62.69   12.80 
  -8   6   6   71.39    8.90 
  -7  -6   6  115.69   16.00 
  -7  -6   6  119.69   15.70 
   7  -6  -6  104.69   10.70 
  -7  -6   6   77.39   11.90 
  -7   6   6  100.39   11.90 
  -7   6   6  129.39   11.10 
   7   6  -6   99.79   14.80 
  -6  -6   6    5.10    5.20 
  -6  -6   6    1.60    2.70 
   6  -6  -6   -1.60    3.50 
   6   6  -6   -0.80    3.30 
  -6   6   6    2.70    2.60 
  -6   6   6    3.30    2.70 
  -5  -6   6  183.28   19.10 
  -5  -6   6  161.38   18.90 
   5  -6  -6  178.48   16.70 
  -5   6   6  160.38   16.10 
  -5   6   6  175.08   13.70 
   5   6  -6  163.38   18.40 
  -4  -6   6  790.72   52.59 
   4  -6  -6  722.43   50.09 
  -4  -6   6  698.53   48.10 
  -4  -6   6  763.82   53.39 
  -4  -6   6  733.13   50.09 
   4   6  -6  760.92   49.50 
  -4   6   6  706.03   49.90 
   4   6  -6  755.72   52.39 
  -3  -6   6  509.45   38.30 
  -3  -6   6  495.95   37.10 
  -3  -6   6  550.44   36.40 
  -3  -6   6  443.26   32.60 
  -3   6   6  532.45   32.60 
  -3   6   6  456.05   35.60 
   3   6  -6  450.45   38.80 
   3   6  -6  492.55   37.50 
   3   6  -6  506.15   34.20 
   2  -6  -6  575.64   36.90 
  -2  -6   6  540.85   40.00 
  -2  -6   6  525.35   36.10 
  -2  -6   6  641.74   43.50 
   2  -6  -6  591.64   38.90 
  -2  -6   6  598.24   40.30 
   2  -6  -6  581.34   41.50 
   2   6  -6  600.94   42.60 
  -2   6   6  622.74   37.70 
   2   6  -6  511.85   41.20 
  -2   6   6  569.54   41.10 
   2   6  -6  578.74   37.50 
  -1  -6   6  509.25   34.90 
   1  -6  -6  538.85   37.30 
  -1  -6   6  496.95   37.20 
   1  -6  -6  501.15   34.40 
  -1  -6   6  518.65   33.90 
  -1   6   6  473.45   32.80 
  -1   6   6  483.65   36.10 
   1   6  -6  453.35   36.10 
   1   6  -6  399.56   37.50 
   0  -6   6   22.00    4.90 
   0  -6  -6   17.80    5.00 
   0  -6  -6   13.20    5.30 
   0  -6  -6   15.70    4.60 
   0  -6   6   23.70    5.20 
   0  -6  -6   21.90    4.90 
   0  -6   6   15.90    6.40 
   0   6  -6   14.10    5.10 
   0   6   6   30.90    7.50 
   0   6   6   24.70    5.70 
   0   6  -6   13.60    5.10 
  -1  -6  -6    6.90    3.50 
   1  -6   6   12.50    4.00 
  -1  -6  -6    9.80    3.90 
   1  -6   6    2.20    3.70 
  -1  -6  -6   17.90    6.50 
  -1  -6  -6   18.80    5.60 
   1  -6   6    8.10    3.60 
  -1   6  -6    4.50    3.20 
   1   6   6    1.80    3.20 
  -1   6  -6    5.70    3.90 
  -2  -6  -6   34.90    8.80 
  -2  -6  -6   52.49    8.90 
  -2  -6  -6   40.30    8.30 
  -2  -6  -6   47.60    9.80 
   2  -6   6   40.70    7.70 
   2   6   6   60.89   11.10 
   2   6   6   45.70    8.90 
  -2   6  -6   43.70    8.90 
  -2   6  -6   43.70    8.60 
   3  -6   6    8.20    3.90 
  -3  -6  -6    2.50    4.20 
   3  -6   6    6.40    3.10 
  -3  -6  -6    9.40    5.30 
  -3  -6  -6    4.80    4.00 
  -3  -6  -6    2.20    3.50 
   3   6   6    5.50    4.10 
   3   6   6    7.50    4.20 
  -3   6  -6   13.50    4.80 
  -3   6  -6   10.50    6.00 
  -4  -6  -6  496.05   40.20 
   4  -6   6  509.75   32.30 
  -4  -6  -6  538.65   39.60 
   4  -6   6  459.15   36.00 
  -4  -6  -6  551.44   37.10 
   4   6   6  453.25   36.60 
   4   6   6  542.85   39.00 
  -4   6  -6  510.65   36.80 
  -4   6  -6  442.56   34.70 
  -5  -6  -6   62.69   13.50 
  -5  -6  -6   45.60    9.30 
  -5  -6  -6   57.59   11.40 
   5  -6   6   69.19    7.00 
   5   6   6   50.19   11.80 
   5   6   6   57.69   11.50 
  -5   6  -6   50.99    8.90 
  -6  -6  -6   -0.80    4.00 
   6  -6   6   -0.20    3.90 
  -6  -6  -6    5.90    5.40 
  -6  -6  -6   13.10    4.30 
  -6   6  -6   -2.20    3.30 
   6   6   6   -1.00    5.40 
   6   6   6    5.70    4.70 
   7  -7  -6  121.39   15.70 
  -7  -7   6  141.99   17.10 
  -7  -7   6  174.08   20.50 
  -7   7   6  138.69   12.70 
  -7   7   6  140.29   15.40 
   6  -7  -6   71.49   11.00 
  -6  -7   6  105.49   13.90 
  -6  -7   6   65.99   11.90 
  -6  -7   6   67.29   13.50 
   6   7  -6   70.29   13.20 
  -6   7   6   81.99    9.00 
  -6   7   6   85.99   10.80 
   5  -7  -6  110.39   14.00 
  -5  -7   6  152.38   17.20 
  -5  -7   6  109.89   15.70 
  -5  -7   6  118.99   14.40 
  -5   7   6  101.99   10.50 
   5   7  -6  125.49   14.40 
  -5   7   6  113.39   13.10 
  -4  -7   6   34.30    9.50 
   4  -7  -6   13.10    5.90 
  -4  -7   6   45.50   10.40 
  -4  -7   6   36.70    8.30 
   4   7  -6   36.30    8.20 
  -4   7   6   28.60    7.60 
  -4   7   6   27.50    6.00 
  -3  -7   6   17.40    8.30 
   3  -7  -6    8.40    5.20 
  -3  -7   6   21.20    6.00 
  -3  -7   6    3.30    5.40 
   3   7  -6   16.30    6.80 
   3   7  -6   19.40    5.40 
  -3   7   6   14.10    4.50 
  -3   7   6    8.40    4.80 
  -2  -7   6  217.28   19.90 
  -2  -7   6  197.18   15.60 
   2  -7  -6  230.28   21.60 
  -2  -7   6  199.88   20.10 
  -2  -7   6  200.68   21.40 
   2   7  -6  232.28   22.10 
   2   7  -6  219.88   17.20 
  -2   7   6  199.38   20.10 
  -2   7   6  222.48   17.80 
  -1  -7   6   70.39   10.90 
  -1  -7   6   54.39   10.20 
  -1  -7   6   61.49    9.60 
   1  -7  -6   48.60    9.90 
   1  -7  -6   58.49    9.70 
   1   7  -6   56.09    9.30 
   1   7  -6   34.40    8.30 
  -1   7   6   39.20    7.80 
  -1   7   6   45.20    9.40 
   0  -7  -6    1.50    4.50 
   0  -7   6    4.90    4.70 
   0  -7   6    7.90    3.60 
   0  -7   6   10.20    4.80 
   0  -7  -6   10.10    4.00 
   0  -7  -6    9.00    3.70 
   0  -7  -6   13.30    5.10 
   0   7   6   10.10    4.40 
   0   7  -6   11.80    4.60 
   0   7   6   10.20    5.10 
   0   7  -6    0.70    3.00 
  -1  -7  -6   39.90    9.30 
   1  -7   6   38.90    7.00 
  -1  -7  -6   41.30    6.50 
   1  -7   6   38.10    7.70 
  -1  -7  -6   32.80    7.20 
  -1  -7  -6   38.00    7.70 
   1   7   6   45.40    9.00 
  -1   7  -6   42.10    8.40 
   1   7   6   38.10    9.50 
  -1   7  -6   34.20    7.90 
  -2  -7  -6  185.58   19.20 
  -2  -7  -6  206.08   18.40 
  -2  -7  -6  233.58   22.10 
  -2  -7  -6  226.18   20.20 
   2  -7   6  206.38   17.80 
  -2   7  -6  235.98   21.40 
  -2   7  -6  200.28   18.90 
   2   7   6  187.18   18.60 
   2   7   6  220.38   21.90 
  -3  -7  -6  154.38   16.60 
  -3  -7  -6   87.79   17.90 
   3  -7   6  112.59   12.80 
   3  -7   6  114.89   11.80 
  -3  -7  -6  116.19   13.60 
  -3   7  -6  133.79   14.20 
   3   7   6  120.99   14.40 
  -3   7  -6  126.89   14.20 
   3   7   6  126.59   15.60 
  -4  -7  -6   61.49   13.70 
  -4  -7  -6   61.99   11.30 
   4  -7   6   51.39   10.10 
  -4  -7  -6   47.50    9.90 
   4  -7   6   65.99    9.00 
   4   7   6   43.30   10.90 
  -4   7  -6   62.19   11.20 
   4   7   6   66.29   12.50 
  -4   7  -6   54.09   11.10 
   5  -7   6   28.90    8.10 
  -5  -7  -6   34.80    9.30 
  -5  -7  -6   51.19   12.30 
  -5  -7  -6   33.80    9.40 
   5  -7   6   29.90    5.00 
  -5   7  -6   25.90    6.60 
   5   7   6   21.80    6.90 
   5   7   6   24.10    7.80 
  -6  -8   6  109.89   15.40 
  -6  -8   6  101.49   18.00 
  -6   8   6  129.29   11.90 
   6   8  -6  113.59   14.70 
  -6   8   6  105.19   13.70 
  -5  -8   6   70.09   12.00 
   5  -8  -6   63.99   11.50 
  -5  -8   6   47.80   10.60 
  -5  -8   6   67.69   14.00 
  -5   8   6   32.00   11.70 
  -5   8   6   58.49    8.10 
   5   8  -6   67.59   13.00 
  -4  -8   6   83.39   12.10 
  -4  -8   6   94.19   15.30 
   4  -8  -6   67.69   12.50 
  -4  -8   6   72.99   15.10 
  -4   8   6   87.99   10.00 
   4   8  -6   96.29   12.00 
  -4   8   6   94.79   12.60 
  -3  -8   6   78.29    9.00 
   3  -8  -6   62.79   11.80 
  -3  -8   6   55.99   12.20 
  -3  -8   6   57.59   11.40 
  -3   8   6   68.09    9.10 
   3   8  -6   77.29   14.10 
   3   8  -6   65.89    9.40 
  -3   8   6   70.49   12.10 
  -2  -8   6   24.10    5.10 
  -2  -8   6   29.90    7.70 
  -2  -8   6   28.40    8.70 
  -2  -8   6   34.80    9.10 
   2  -8  -6   16.50    6.70 
  -2   8   6   25.20    6.40 
  -2   8   6   30.90    7.80 
   2   8  -6   48.40    7.10 
   2   8  -6   25.80    9.00 
  -1  -8   6   41.00    9.40 
   1  -8  -6   49.00   10.30 
  -1  -8   6   46.90   10.00 
  -1   8   6   42.10   13.30 
  -1   8   6   32.20    7.70 
   1   8  -6   41.70   10.70 
   0  -8  -6  129.89   17.90 
   0  -8   6  179.68   14.40 
   0  -8   6  142.99   15.80 
   0   8   6  143.59   18.30 
   0   8  -6  154.68   18.20 
   0   8   6  128.59   14.60 
  -1  -8  -6  109.79   14.40 
  -1  -8  -6  105.49   12.40 
  -1  -8  -6  118.69   12.00 
   1  -8   6  133.39   13.80 
   1  -8   6  118.89   12.10 
  -1  -8  -6  127.89   16.60 
  -1   8  -6  130.19   15.00 
   1   8   6  123.79   16.00 
  -1   8  -6   97.19   14.20 
   1   8   6  122.29   14.10 
  -2  -8  -6   24.10    7.30 
   2  -8   6   36.50    7.40 
  -2  -8  -6   36.60   10.40 
  -2  -8  -6   32.40    7.00 
  -2  -8  -6   31.70    8.10 
  -2   8  -6   35.50    8.90 
  -2   8  -6   22.70    6.40 
   2   8   6   25.70    7.60 
   2   8   6   15.90    6.40 
   3  -8   6   -2.30    2.80 
  -3  -8  -6    2.00    3.80 
   3  -8   6    1.40    3.10 
  -3  -8  -6    5.30    4.80 
  -3  -8  -6    4.20    4.50 
  -3   8  -6   12.40    6.40 
   3   8   6   -1.00    6.20 
  -3   8  -6    6.20    5.00 
   3   8   6   10.10    4.70 
   4  -8   6  113.99   17.80 
   4  -8   6  120.99   13.00 
  -4  -8  -6  119.29   19.60 
  -4  -8  -6  124.09   17.40 
  -4   8  -6  133.99   16.40 
   4   8   6  111.99   17.80 
   4   8   6  109.99   14.80 
  -4  -9   6    0.60    6.00 
  -4  -9   6    5.30    5.20 
  -4   9   6    4.10    3.00 
  -4   9   6    2.00    4.20 
   4   9  -6    0.70    4.70 
  -3  -9   6   57.79   12.20 
  -3  -9   6   56.49   11.50 
   3  -9  -6   62.79   11.80 
  -3   9   6   67.49    9.30 
   3   9  -6   70.09   10.30 
  -3   9   6   58.09   11.20 
  -2  -9   6  175.28   14.20 
  -2  -9   6  212.48   19.60 
  -2  -9   6  186.98   20.10 
   2  -9  -6  158.08   20.80 
   2   9  -6  202.18   23.90 
  -2   9   6  167.08   16.90 
  -2   9   6  178.88   20.80 
   1  -9  -6   21.90    8.50 
  -1  -9   6   44.70    8.50 
  -1  -9   6   22.40    7.30 
  -1   9   6   35.00    8.00 
   1   9  -6   12.60    8.60 
  -1   9   6   20.70    6.50 
   0  -9  -6    4.50    7.30 
   0  -9   6    4.20    5.60 
   0  -9   6    9.20    4.20 
   0   9  -6   12.30    6.40 
   0   9   6   18.50    5.80 
   0   9   6   13.50    6.30 
   1  -9   6    3.90    4.40 
  -1  -9  -6   -3.80    3.60 
   1  -9   6   -2.20    3.20 
  -1  -9  -6    6.20    6.60 
   1   9   6    9.00    5.70 
  -1   9  -6    6.60    6.60 
   1   9   6   -3.40    3.70 
  -2  -9  -6   43.30    9.00 
  -2  -9  -6   73.79   11.10 
   2  -9   6   55.39   15.20 
  -2  -9  -6   54.79   12.40 
   2  -9   6   39.50   11.20 
   2   9   6   44.50   11.40 
   2   9   6   48.70    9.90 
 -10   0   7  199.78   21.30 
 -10   0   7  182.18   13.50 
 -10   0   7  196.28   15.30 
 -10   0   7  194.28   19.20 
  -9   0   7  553.94   33.80 
  -9   0   7  544.85   39.40 
  -9   0   7  524.65   41.90 
  -8   0   7   17.70    6.50 
  -8   0   7   12.80    2.80 
  -8   0   7   20.10    6.80 
  -7   0   7    3.30    2.00 
   7   0  -7   22.20    6.00 
  -7   0   7    8.30    4.80 
  -7   0   7    4.30    3.80 
  -6   0   7  514.05   30.90 
   6   0  -7  451.25   31.40 
   6   0  -7  482.45   37.00 
  -6   0   7  527.85   35.90 
  -6   0   7  425.66   34.70 
  -6   0   7  507.85   33.90 
   5   0  -7  385.36   31.40 
  -5   0   7  455.95   31.40 
   5   0  -7  409.66   28.60 
  -5   0   7  413.46   33.00 
  -5   0   7  418.76   29.30 
  -5   0   7  466.35   27.60 
  -4   0   7  125.69   11.70 
  -4   0   7  135.79   13.70 
   4   0  -7  120.09   11.40 
   4   0  -7  140.39   11.00 
  -4   0   7  139.89   10.70 
   4   0  -7  129.89   13.10 
  -3   0   7   97.99   10.70 
   3   0  -7  102.09    8.60 
   3   0  -7   84.69    8.70 
  -3   0   7   95.99    8.80 
  -3   0   7   98.49    8.30 
   3   0  -7   91.39    9.90 
  -2   0   7  154.68   12.00 
   2   0  -7  162.68   12.10 
  -2   0   7  163.68   11.60 
  -2   0   7  174.98   12.80 
   2   0  -7  138.89   12.00 
  -1   0   7  795.42   50.19 
  -1   0   7  969.60   50.99 
   1   0  -7  752.22   51.39 
  -1   0   7  928.81   49.20 
   1   0  -7  802.12   50.19 
   1   0  -7  779.32   49.80 
   0   0   7   12.90    3.80 
   0   0   7   11.10    2.80 
   0   0   7   11.60    2.30 
   0   0  -7    9.80    2.70 
   0   0  -7   12.20    3.50 
   0   0  -7   10.10    2.40 
  -1   0  -7   62.49    6.40 
  -1   0  -7   49.80    5.50 
  -1   0  -7   56.79    4.80 
   1   0   7   46.90    4.90 
   1   0   7   46.20    5.50 
   1   0   7   51.39    7.10 
  -2   0  -7  116.99   10.50 
  -2   0  -7   98.49    9.00 
  -2   0  -7  121.59    8.10 
   2   0   7   96.59   11.70 
   2   0   7  107.39    9.10 
   3   0   7  759.62   51.79 
   3   0   7  751.42   47.30 
  -3   0  -7  795.82   49.20 
   3   0   7  738.13   47.30 
  -3   0  -7  791.12   45.50 
  -3   0  -7  765.22   46.60 
   4   0   7   10.50    3.20 
   4   0   7   10.90    4.00 
  -4   0  -7   10.20    4.70 
   4   0   7   12.60    5.80 
  -4   0  -7   15.60    3.50 
  -4   0  -7   12.50    3.10 
   5   0   7   73.89    9.10 
   5   0   7   78.39   12.60 
   5   0   7   76.39    8.30 
  -5   0  -7   82.39    8.00 
  -5   0  -7   67.49    7.20 
   6   0   7    6.90    4.10 
   6   0   7    2.00    4.90 
   6   0   7    9.50    2.60 
  -6   0  -7    1.80    1.90 
  -7   0  -7   54.19    6.00 
   7   0   7   68.69    9.30 
   7   0   7   39.60    5.90 
   7   0   7   37.10   10.30 
  -8   0  -7  103.09    9.20 
   8   0   7   97.69   13.10 
   8   0   7   91.59   18.90 
  -8   0  -7  110.29   10.80 
 -10  -1   7   94.99    8.60 
 -10  -1   7   88.19   13.90 
 -10  -1   7  102.49   22.50 
 -10   1   7  103.89    8.20 
 -10   1   7  110.39    8.70 
 -10   1   7  106.99   14.30 
 -10   1   7   88.49   13.10 
  -9  -1   7    6.10    4.30 
  -9  -1   7    4.60    4.60 
  -9  -1   7    0.50    2.40 
  -9  -1   7    5.70    2.40 
  -9   1   7   13.90    5.10 
  -9   1   7    6.70    4.40 
  -9   1   7    2.70    1.90 
  -8  -1   7  231.08   15.60 
  -8  -1   7  205.88   21.50 
  -8  -1   7  201.68   19.20 
  -8   1   7  193.88   14.90 
  -8   1   7  218.28   20.50 
  -8   1   7  197.78   18.80 
  -7  -1   7  373.16   28.20 
  -7  -1   7  371.86   31.40 
  -7  -1   7  378.16   24.80 
   7  -1  -7  329.27   30.30 
  -7   1   7  400.26   29.50 
  -7   1   7  390.26   24.60 
  -7   1   7  358.56   27.50 
   6  -1  -7  729.43   44.80 
  -6  -1   7  798.92   45.00 
  -6  -1   7  680.63   49.00 
  -6  -1   7  752.92   50.39 
  -6  -1   7  727.93   47.60 
   6  -1  -7  704.43   49.99 
  -6   1   7  817.82   49.10 
  -6   1   7  644.64   48.90 
   6   1  -7  660.43   50.89 
  -6   1   7  741.93   47.10 
  -6   1   7  736.63   44.40 
  -5  -1   7  386.06   23.70 
  -5  -1   7  359.36   25.50 
   5  -1  -7  334.77   25.50 
  -5  -1   7  358.46   28.80 
   5  -1  -7  328.67   27.80 
   5  -1  -7  320.47   26.50 
  -5  -1   7  373.86   27.80 
  -5   1   7  379.76   26.40 
  -5   1   7  352.06   23.20 
  -5   1   7  341.17   24.70 
   5   1  -7  346.07   28.20 
   5   1  -7  329.27   27.40 
  -4  -1   7  366.86   27.00 
   4  -1  -7  336.17   25.60 
  -4  -1   7  379.26   27.70 
  -4  -1   7  415.76   24.70 
   4  -1  -7  336.27   26.40 
   4  -1  -7  374.16   24.20 
  -4  -1   7  346.07   25.30 
   4   1  -7  393.16   25.60 
   4   1  -7  351.36   27.90 
  -4   1   7  368.96   26.10 
  -4   1   7  408.36   24.60 
  -4   1   7  377.56   25.00 
   3  -1  -7  588.04   40.90 
  -3  -1   7  635.54   40.50 
   3  -1  -7  678.93   40.10 
  -3  -1   7  697.63   40.50 
  -3  -1   7  612.24   42.30 
   3  -1  -7  618.24   41.70 
  -3   1   7  681.03   40.50 
   3   1  -7  681.63   43.70 
  -3   1   7  701.63   40.30 
   3   1  -7  669.83   41.10 
   2  -1  -7  282.47   21.00 
  -2  -1   7  311.87   21.30 
   2  -1  -7  272.27   20.10 
   2  -1  -7  274.37   19.50 
  -2  -1   7  318.47   20.20 
  -2  -1   7  298.77   19.50 
   2   1  -7  297.97   20.50 
   2   1  -7  252.77   19.50 
  -2   1   7  305.47   20.20 
  -2   1   7  342.37   19.40 
   1  -1  -7 1376.16   81.79 
  -1  -1   7 1395.46   81.09 
   1  -1  -7 1346.67   80.69 
   1  -1  -7 1306.47   80.89 
  -1  -1   7 1509.55   79.79 
  -1   1   7 1601.54   80.29 
   1   1  -7 1284.07   82.99 
  -1   1   7 1520.75   83.59 
   1   1  -7 1189.98   80.19 
  -1   1   7 1366.06   81.59 
   1   1  -7 1366.86   81.49 
   0  -1   7  256.17   15.00 
   0  -1  -7  236.48   16.60 
   0  -1   7  256.97   17.80 
   0  -1   7  242.38   16.60 
   0  -1  -7  255.97   15.90 
   0   1   7  218.88   17.60 
   0   1  -7  207.88   15.40 
   0   1  -7  246.98   18.40 
   0   1   7  252.77   16.10 
   0   1  -7  230.88   16.90 
   0   1   7  233.18   17.20 
   1  -1   7  566.14   36.80 
   1  -1   7  520.85   32.90 
  -1  -1  -7  552.04   34.60 
   1  -1   7  512.15   34.20 
  -1  -1  -7  593.44   33.30 
  -1  -1  -7  602.74   35.40 
   1   1   7  530.45   34.10 
  -1   1  -7  549.54   34.80 
   1   1   7  586.04   35.60 
   1   1   7  546.55   37.10 
  -1   1  -7  553.44   32.80 
  -2  -1  -7 1130.09   67.39 
  -2  -1  -7 1143.69   68.89 
   2  -1   7 1087.99   70.69 
  -2  -1  -7 1184.18   66.19 
   2   1   7 1094.79   71.19 
   2   1   7 1126.29   68.49 
  -2   1  -7 1263.07   68.69 
   2   1   7 1074.39   67.49 
  -2   1  -7 1121.99   67.49 
  -3  -1  -7 1155.78   70.39 
  -3  -1  -7 1229.78   66.99 
   3  -1   7 1094.49   72.29 
   3  -1   7 1078.09   67.39 
   3   1   7 1073.59   72.59 
  -3   1  -7 1220.98   69.59 
  -3   1  -7 1093.89   67.39 
   3   1   7 1189.98   69.19 
   3   1   7 1084.79   68.49 
  -4  -1  -7  929.61   57.29 
   4  -1   7  912.51   63.49 
   4  -1   7  953.00   57.69 
  -4  -1  -7  969.90   61.39 
  -4  -1  -7 1039.70   57.59 
   4   1   7  917.31   58.99 
   4   1   7  940.01   59.49 
  -4   1  -7 1043.20   55.99 
  -4   1  -7  997.20   60.29 
  -4   1  -7  906.81   57.19 
   4   1   7  850.91   63.39 
   5  -1   7   23.60    7.00 
   5  -1   7    7.60    3.60 
   5  -1   7   10.00    2.90 
  -5  -1  -7   10.30    3.10 
   5   1   7    5.10    3.00 
   5   1   7   12.40    5.30 
   5   1   7    5.50    3.60 
  -5   1  -7   10.20    2.90 
  -5   1  -7   12.00    3.10 
   6  -1   7  253.77   19.90 
  -6  -1  -7  268.27   18.10 
  -6  -1  -7  248.18   19.10 
   6  -1   7  239.18   18.00 
   6  -1   7  222.38   24.60 
  -6   1  -7  256.47   17.80 
  -6   1  -7  256.87   17.90 
   6   1   7  253.37   19.40 
   6   1   7  249.97   25.50 
   6   1   7  248.38   21.20 
   7  -1   7   89.59   10.10 
  -7  -1  -7   78.29    7.90 
  -7  -1  -7   78.99    9.90 
   7  -1   7   68.29   14.20 
   7   1   7   77.79   10.70 
   7   1   7   88.59   11.10 
  -7   1  -7   96.69    9.20 
   7   1   7   54.69   13.10 
  -7   1  -7   67.09    7.50 
  -8  -1  -7   14.00    4.80 
   8  -1   7   19.60    8.20 
  -8  -1  -7   23.00    4.20 
   8   1   7    9.40    7.70 
  -8   1  -7   21.10    5.10 
   8   1   7   17.60    7.00 
  -9  -2   7  149.49   18.90 
  -9  -2   7  157.98   12.30 
  -9  -2   7  150.78   15.00 
  -9  -2   7  139.99   16.30 
  -9   2   7  159.58   17.00 
  -9   2   7  135.59   11.50 
  -9   2   7  154.78   15.90 
  -8  -2   7   26.30    4.90 
  -8  -2   7   26.80    6.40 
  -8  -2   7   34.10    8.00 
  -8  -2   7   29.40    7.90 
  -8   2   7   37.90    4.90 
  -8   2   7   34.40    7.80 
  -8   2   7   30.70    7.60 
  -8   2   7   18.80    7.80 
  -7  -2   7  170.68   18.20 
  -7  -2   7  161.68   15.80 
  -7  -2   7  167.98   13.30 
   7  -2  -7  166.68   16.90 
  -7   2   7  163.08   15.60 
  -7   2   7  149.88   15.00 
  -7   2   7  150.28   12.60 
  -6  -2   7  581.84   36.80 
   6  -2  -7  615.84   41.00 
  -6  -2   7  608.14   42.40 
  -6  -2   7  539.55   38.70 
  -6   2   7  586.34   38.70 
   6   2  -7  547.65   43.10 
  -6   2   7  572.94   37.80 
  -6   2   7  545.35   36.10 
   5  -2  -7 1588.74  105.39 
  -5  -2   7 1933.31  109.39 
   5  -2  -7 1792.72  102.99 
   5  -2  -7 1809.92  107.09 
  -5  -2   7 1958.10  104.49 
  -5  -2   7 1691.13  105.39 
   5   2  -7 1791.02  105.99 
  -5   2   7 1805.72  103.79 
  -5   2   7 1705.93  104.49 
   5   2  -7 1596.84  109.19 
  -5   2   7 1860.11  104.39 
   4  -2  -7 1578.94   98.19 
  -4  -2   7 1612.64   97.49 
  -4  -2   7 1780.42   97.19 
   4  -2  -7 1680.03   95.69 
  -4  -2   7 1637.94   99.19 
   4  -2  -7 1514.05   97.69 
  -4  -2   7 1706.83  100.59 
  -4   2   7 1732.73   96.39 
   4   2  -7 1681.73   98.49 
  -4   2   7 1718.93   96.99 
   4   2  -7 1548.95  101.09 
  -4   2   7 1601.34   96.19 
   3  -2  -7  108.19    8.60 
  -3  -2   7   94.39    9.50 
   3  -2  -7   93.99    9.90 
  -3  -2   7  103.49   10.10 
  -3  -2   7   90.29   12.10 
   3  -2  -7   89.29   10.60 
  -3  -2   7  103.59    9.20 
  -3   2   7   95.79    9.10 
   3   2  -7   93.39    9.60 
   3   2  -7   94.89   11.30 
  -3   2   7  115.39    9.00 
  -2  -2   7  102.59    9.00 
   2  -2  -7   96.09   10.00 
  -2  -2   7  109.39   11.70 
  -2  -2   7  103.59    9.30 
   2  -2  -7   96.29    8.70 
  -2  -2   7  107.19    9.70 
   2   2  -7   94.79   11.00 
   2   2  -7  122.19   10.50 
  -2   2   7  101.39    8.70 
  -2   2   7  130.59    8.90 
  -2   2   7  101.89    9.60 
   1  -2  -7   56.29    6.00 
   1  -2  -7   65.09    7.00 
  -1  -2   7   66.09    7.20 
  -1  -2   7   55.09    5.20 
  -1  -2   7   52.69    5.90 
   1  -2  -7   53.29    6.20 
   1   2  -7   43.70    5.90 
  -1   2   7   48.90    6.10 
   1   2  -7   49.30    8.80 
  -1   2   7   50.19    5.40 
  -1   2   7   49.90    6.30 
   0  -2   7  474.65   29.20 
   0  -2  -7  530.85   28.50 
   0  -2  -7  467.95   29.50 
   0   2  -7  428.36   31.20 
   0   2   7  432.56   28.70 
   0   2   7  466.45   30.60 
   0   2   7  417.56   30.30 
   0   2  -7  435.86   30.00 
  -1  -2  -7  513.75   32.70 
   1  -2   7  474.35   31.70 
  -1  -2  -7  571.64   31.30 
   1  -2   7  518.35   34.00 
  -1  -2  -7  498.45   32.40 
  -1   2  -7  549.05   33.80 
   1   2   7  491.95   32.20 
   1   2   7  492.35   33.50 
   1   2   7  470.95   34.30 
  -1   2  -7  487.65   32.80 
  -2  -2  -7  395.66   26.30 
  -2  -2  -7  414.06   25.40 
   2  -2   7  381.36   28.70 
  -2  -2  -7  407.46   27.90 
   2   2   7  370.06   27.50 
  -2   2  -7  461.15   27.50 
  -2   2  -7  422.76   27.00 
   2   2   7  345.67   26.30 
   2   2   7  372.06   29.30 
  -3  -2  -7  174.98   22.80 
   3  -2   7  162.38   12.50 
   3  -2   7  168.28   16.70 
  -3  -2  -7  162.48   13.20 
  -3  -2  -7  180.68   13.00 
   3   2   7  164.38   14.30 
  -3   2  -7  176.28   17.10 
  -3   2  -7  137.99   12.80 
   3   2   7  147.89   16.40 
   4  -2   7  115.39   14.10 
  -4  -2  -7  117.99   10.60 
   4  -2   7  114.19   10.00 
  -4  -2  -7  119.89   13.40 
   4   2   7  118.29   12.10 
  -4   2  -7  114.19   10.40 
   4   2   7  118.69   12.00 
   4   2   7  119.29   15.00 
  -4   2  -7  129.09   12.20 
  -5  -2  -7  612.64   38.30 
  -5  -2  -7  645.34   39.00 
   5  -2   7  589.84   37.40 
   5  -2   7  541.75   44.20 
   5   2   7  611.84   40.30 
   5   2   7  591.74   41.10 
  -5   2  -7  597.64   38.00 
   5   2   7  563.34   45.40 
   6  -2   7   13.40    7.10 
   6  -2   7   21.70    3.90 
  -6  -2  -7   21.20    4.30 
  -6  -2  -7   22.90    5.80 
   6   2   7   28.40    7.70 
   6   2   7   16.60    7.30 
  -6   2  -7   21.80    4.30 
   6   2   7   23.30    5.30 
   7  -2   7   63.69   14.80 
  -7  -2  -7   95.49    9.10 
  -7  -2  -7   82.19    9.90 
  -7   2  -7   78.29    8.30 
   7   2   7   79.79   16.80 
   7   2   7   90.19   11.90 
   7   2   7   69.69    9.40 
  -8  -2  -7  131.59   11.80 
   8  -2   7  163.88   20.50 
  -8  -2  -7  139.79   20.50 
  -8  -2  -7  137.19   14.30 
   8   2   7  141.79   16.30 
  -8   2  -7  124.99   11.10 
  -9  -3   7    3.60    2.50 
  -9  -3   7   10.50    4.40 
  -9  -3   7    9.70    5.10 
  -9   3   7    4.00    3.90 
  -9   3   7    1.60    6.00 
  -9   3   7    4.20    3.70 
  -9   3   7    2.90    2.20 
  -8  -3   7   38.70    9.40 
  -8  -3   7   21.50    5.10 
  -8  -3   7   30.00    6.60 
  -8  -3   7   34.90    9.60 
  -8   3   7   19.00    6.00 
  -8   3   7   28.80    7.00 
  -8   3   7   29.40    7.20 
  -8   3   7   24.40    4.60 
  -7  -3   7  208.18   16.50 
  -7  -3   7  180.98   18.00 
   7  -3  -7  225.88   15.80 
  -7  -3   7  207.08   21.30 
  -7  -3   7  191.38   18.50 
  -7   3   7  200.58   15.90 
  -7   3   7  226.88   17.60 
  -7   3   7  191.18   17.70 
  -7   3   7  190.08   17.10 
  -6  -3   7  192.18   17.20 
  -6  -3   7  194.18   19.30 
   6  -3  -7  196.98   16.40 
  -6  -3   7  169.18   17.60 
   6  -3  -7  181.98   14.60 
  -6   3   7  163.88   14.30 
  -6   3   7  166.28   15.20 
   5  -3  -7   87.49   10.20 
   5  -3  -7   93.09   11.80 
  -5  -3   7  100.39   11.40 
  -5  -3   7   98.69   10.50 
  -5  -3   7   90.89   12.50 
   5  -3  -7   89.29    7.90 
  -5  -3   7   91.49    9.20 
  -5   3   7   80.99    8.90 
   5   3  -7   72.59   11.80 
   5   3  -7   80.39   10.40 
  -5   3   7   79.09    9.50 
  -5   3   7   90.89    9.30 
  -4  -3   7  585.54   39.90 
  -4  -3   7  559.44   37.70 
  -4  -3   7  575.64   36.20 
   4  -3  -7  534.55   35.70 
  -4  -3   7  503.35   35.80 
  -4   3   7  544.35   36.00 
   4   3  -7  518.25   37.30 
   4   3  -7  494.95   40.20 
  -4   3   7  632.54   35.10 
  -3  -3   7 3775.72  202.18 
  -3  -3   7 3512.55  202.68 
   3  -3  -7 3412.86  201.68 
   3  -3  -7 3474.45  200.48 
   3  -3  -7 3432.16  200.78 
  -3  -3   7 3384.26  200.98 
  -3  -3   7 3388.26  203.98 
   3   3  -7 3586.24  203.78 
   3   3  -7 3428.86  205.68 
  -3   3   7 3688.23  199.38 
  -3   3   7 3569.14  202.48 
  -2  -3   7  716.03   42.90 
  -2  -3   7  706.43   44.30 
   2  -3  -7  703.13   43.60 
   2  -3  -7  644.54   42.90 
  -2  -3   7  683.93   45.50 
  -2  -3   7  721.83   44.10 
   2  -3  -7  725.53   43.60 
   2   3  -7  753.72   46.20 
   2   3  -7  660.33   46.70 
  -2   3   7  706.63   42.80 
  -2   3   7  740.33   45.30 
   1  -3  -7 1033.70   62.09 
   1  -3  -7 1084.89   63.39 
  -1  -3   7 1188.78   64.09 
   1  -3  -7  951.00   62.59 
  -1  -3   7 1054.59   63.39 
  -1   3   7  952.00   66.59 
   1   3  -7 1073.49   65.19 
  -1   3   7 1119.99   62.49 
  -1   3   7  981.60   62.89 
   0  -3  -7   33.80    5.50 
   0  -3   7   32.50    5.40 
   0  -3   7   35.90    5.50 
   0  -3  -7   35.70    4.50 
   0   3   7   37.20    6.40 
   0   3  -7   30.30    7.70 
   0   3   7   26.30    6.10 
   0   3   7   38.10    5.20 
   0   3  -7   33.20    5.90 
   1  -3   7 2872.01  164.88 
   1  -3   7 2952.30  166.58 
  -1  -3  -7 2766.32  165.68 
  -1  -3  -7 2883.41  165.58 
  -1  -3  -7 3144.39  164.18 
   1   3   7 2865.01  165.68 
  -1   3  -7 2760.22  166.78 
   1   3   7 2645.04  167.48 
   1   3   7 2921.61  167.78 
  -1   3  -7 2917.01  166.98 
  -2  -3  -7  377.56   26.30 
  -2  -3  -7  412.76   25.20 
   2  -3   7  386.46   28.10 
  -2  -3  -7  351.96   26.90 
   2   3   7  368.96   26.70 
  -2   3  -7  382.36   26.80 
  -2   3  -7  432.16   27.50 
   2   3   7  364.46   27.60 
   2   3   7  354.86   28.80 
  -3  -3  -7  401.76   26.90 
  -3  -3  -7  404.36   25.90 
   3  -3   7  360.16   24.80 
   3  -3   7  384.36   29.50 
  -3  -3  -7  385.86   28.70 
   3   3   7  391.56   27.80 
  -3   3  -7  382.06   26.90 
   3   3   7  362.86   30.30 
   3   3   7  383.96   28.40 
   4  -3   7   57.69    6.10 
  -4  -3  -7   68.79    7.40 
  -4  -3  -7   51.29    6.90 
   4  -3   7   48.60   10.60 
  -4   3  -7   66.99    8.10 
  -4   3  -7   45.30    6.70 
   4   3   7   37.60    8.10 
   4   3   7   48.40    8.80 
   4   3   7   40.30   10.70 
   5  -3   7   43.80    5.20 
  -5  -3  -7   35.40    6.10 
   5  -3   7   36.80   10.00 
  -5  -3  -7   40.30    8.00 
   5   3   7   41.60   11.00 
   5   3   7   22.20    7.10 
   5   3   7   26.90    6.10 
  -5   3  -7   38.70    6.40 
   6  -3   7   63.49    7.20 
  -6  -3  -7   71.99    9.20 
   6  -3   7   48.30   11.70 
  -6  -3  -7   51.89    7.10 
   6   3   7   52.79   12.60 
   6   3   7   60.09    9.70 
   6   3   7   56.39   11.40 
  -6   3  -7   54.59    7.30 
   7  -3   7   -1.90    5.20 
  -7  -3  -7    1.10    2.50 
  -7  -3  -7    2.10    4.40 
   7   3   7   10.70    4.90 
   7   3   7    9.00    4.80 
  -7   3  -7    4.80    2.80 
  -9  -4   7  144.19   18.50 
  -9  -4   7  129.39   15.40 
  -9  -4   7  125.79   12.80 
  -9  -4   7  133.49   15.20 
  -9   4   7  118.19   11.00 
  -9   4   7  121.09   13.50 
  -8  -4   7  116.59   14.60 
  -8  -4   7  141.19   12.80 
  -8  -4   7  107.09   13.90 
  -8  -4   7  144.59   17.80 
  -8   4   7  118.89   12.60 
  -8   4   7  124.49   12.90 
  -8   4   7  150.48   13.70 
  -8   4   7  134.39   12.10 
   7  -4  -7   46.20    6.60 
  -7  -4   7   36.20   10.20 
  -7  -4   7   36.20    7.80 
  -7  -4   7   44.90    9.00 
  -7  -4   7   28.50    6.50 
  -7   4   7   53.39    7.70 
  -7   4   7   41.70    7.00 
  -7   4   7   44.30    7.20 
  -7   4   7   48.90    6.60 
  -6  -4   7   49.40    9.60 
  -6  -4   7   51.39    9.20 
  -6  -4   7   50.59   11.50 
  -6  -4   7   50.49    8.50 
   6  -4  -7   45.30    6.60 
  -6   4   7   40.20    7.00 
  -6   4   7   53.59    6.80 
  -6   4   7   44.10    6.00 
  -6   4   7   56.59    7.30 
   5  -4  -7  560.64   39.40 
  -5  -4   7  526.25   40.60 
  -5  -4   7  519.65   39.10 
  -5  -4   7  624.54   40.10 
   5   4  -7  546.95   41.20 
  -5   4   7  690.83   35.60 
  -5   4   7  579.14   40.40 
  -5   4   7  658.53   37.80 
   4  -4  -7  478.45   34.70 
  -4  -4   7  460.35   33.90 
  -4  -4   7  553.24   35.50 
   4  -4  -7  509.95   32.80 
  -4  -4   7  512.35   35.80 
  -4  -4   7  524.05   38.40 
   4  -4  -7  533.55   35.80 
   4  -4  -7  500.85   32.50 
   4   4  -7  538.05   37.40 
  -4   4   7  597.14   33.10 
   4   4  -7  461.15   38.30 
  -4   4   7  539.15   35.50 
  -3  -4   7  678.43   45.00 
   3  -4  -7  679.33   42.60 
  -3  -4   7  781.52   46.20 
   3  -4  -7  713.43   43.80 
   3  -4  -7  662.63   44.50 
  -3  -4   7  710.33   48.00 
  -3  -4   7  639.24   43.70 
  -3   4   7  820.22   43.50 
  -3   4   7  710.33   46.20 
   3   4  -7  666.33   48.60 
   3   4  -7  737.53   47.60 
  -3   4   7  669.23   41.90 
   2  -4  -7  117.69   10.60 
  -2  -4   7  148.89   17.00 
   2  -4  -7  114.39    9.80 
  -2  -4   7  117.49   10.40 
  -2  -4   7  110.19    9.90 
  -2  -4   7  112.29   13.90 
   2  -4  -7  117.39   11.90 
   2   4  -7  102.09   12.60 
  -2   4   7  124.79   10.20 
  -2   4   7  100.99    9.30 
  -2   4   7  117.19   11.90 
   2   4  -7  134.69   13.00 
  -1  -4   7 1227.58   73.89 
  -1  -4   7 1302.47   73.89 
   1  -4  -7 1384.56   71.39 
   1  -4  -7 1218.88   73.49 
   1  -4  -7 1224.78   71.89 
  -1   4   7 1063.59   72.29 
   1   4  -7 1170.88   76.09 
   1   4  -7 1157.98   75.39 
  -1   4   7 1179.48   75.29 
  -1   4   7 1232.28   72.59 
   0  -4  -7  582.34   35.50 
   0  -4  -7  596.84   36.70 
   0  -4  -7  562.04   34.40 
   0  -4   7  640.74   36.20 
   0  -4   7  536.15   35.80 
   0   4  -7  500.55   37.30 
   0   4  -7  512.75   37.90 
   0   4   7  552.14   38.10 
   0   4   7  544.65   35.80 
   0   4   7  464.65   38.10 
   1  -4   7  874.71   51.69 
  -1  -4  -7  879.91   49.70 
   1  -4   7  821.72   50.69 
  -1  -4  -7  808.92   51.69 
  -1  -4  -7  837.82   50.99 
   1   4   7  748.53   52.69 
   1   4   7  829.42   53.79 
  -1   4  -7  730.23   52.59 
   1   4   7  822.92   51.59 
  -1   4  -7  827.12   53.09 
   2  -4   7 1031.20   66.09 
  -2  -4  -7 1060.69   65.99 
  -2  -4  -7 1136.79   63.69 
  -2  -4  -7 1095.89   65.69 
   2   4   7  983.00   67.69 
   2   4   7 1045.30   67.59 
  -2   4  -7 1032.70   65.99 
  -2   4  -7 1101.19   66.79 
   2   4   7 1042.40   65.79 
   3  -4   7  337.77   28.00 
  -3  -4  -7  370.66   26.60 
   3  -4   7  368.36   24.40 
  -3  -4  -7  362.46   28.00 
  -3  -4  -7  398.26   29.40 
   3   4   7  378.46   28.70 
  -3   4  -7  400.96   27.10 
  -3   4  -7  345.37   26.80 
   3   4   7  332.57   29.50 
   3   4   7  370.06   27.50 
  -4  -4  -7  316.37   23.10 
  -4  -4  -7  328.77   31.70 
   4  -4   7  306.87   20.50 
   4  -4   7  271.77   25.20 
  -4   4  -7  312.67   23.50 
   4   4   7  279.97   24.00 
   5  -4   7  209.88   15.30 
   5  -4   7  193.58   20.90 
  -5  -4  -7  247.68   21.00 
  -5   4  -7  221.98   18.00 
   5   4   7  200.88   19.60 
   5   4   7  206.68   20.00 
   5   4   7  202.28   22.40 
   6  -4   7   32.10    4.80 
   6  -4   7   27.50    8.90 
  -6  -4  -7   26.70    5.50 
  -6  -4  -7   24.10    6.60 
  -6  -4  -7   17.50    6.90 
   6   4   7   31.10    9.00 
  -6   4  -7   40.40    6.80 
   6   4   7   30.50    7.70 
  -7  -4  -7   15.30    8.40 
  -7  -4  -7   19.40    5.40 
   7  -4   7   12.80    5.90 
  -7  -4  -7   16.00    4.50 
   7   4   7   17.90    6.30 
   7   4   7   16.40    6.50 
  -7   4  -7   14.10    4.60 
  -8  -5   7   33.70   10.50 
  -8  -5   7   38.20   10.20 
  -8  -5   7   48.00   10.10 
  -8  -5   7   40.50   10.70 
  -8   5   7   52.29    7.80 
  -8   5   7   39.90    6.90 
  -7  -5   7  229.38   20.90 
  -7  -5   7  191.78   21.70 
   7  -5  -7  245.98   19.30 
  -7  -5   7  239.98   24.90 
  -7  -5   7  232.78   20.50 
  -7   5   7  285.87   19.20 
  -7   5   7  224.58   19.60 
  -6  -5   7   40.10    8.90 
  -6  -5   7   54.29    9.30 
  -6  -5   7   42.60    8.70 
  -6  -5   7   44.10   11.00 
   6  -5  -7   64.99    8.70 
  -6   5   7   38.70    7.40 
  -6   5   7   63.19    7.40 
   5  -5  -7   18.00    5.00 
  -5  -5   7   31.20    8.60 
  -5  -5   7   30.80    6.40 
  -5  -5   7   22.90    6.20 
  -5  -5   7   31.40    6.70 
  -5   5   7   17.30    4.90 
  -5   5   7   23.90    4.80 
  -4  -5   7   57.59   10.50 
  -4  -5   7   49.70    6.90 
  -4  -5   7   46.00    8.40 
   4  -5  -7   48.50    8.40 
   4   5  -7   65.39    9.10 
  -4   5   7   50.49    9.20 
  -4   5   7   63.39    7.00 
   3  -5  -7  468.75   32.60 
   3  -5  -7  507.85   35.50 
  -3  -5   7  510.15   34.60 
  -3  -5   7  484.85   36.40 
  -3  -5   7  482.35   32.90 
  -3  -5   7  445.46   31.80 
   3  -5  -7  491.45   32.40 
   3   5  -7  448.56   36.80 
  -3   5   7  482.45   34.90 
   3   5  -7  512.25   36.70 
  -3   5   7  530.75   31.80 
   2  -5  -7   65.49    9.30 
   2  -5  -7   56.99    7.70 
   2  -5  -7   63.09    7.90 
  -2  -5   7   62.19    7.10 
  -2  -5   7   74.49   11.90 
  -2  -5   7   56.49    8.20 
  -2  -5   7   66.79    7.10 
  -2   5   7   70.69    7.70 
   2   5  -7   64.59   10.40 
  -2   5   7   74.89    9.70 
   2   5  -7   71.49   12.50 
   1  -5  -7  320.17   23.80 
  -1  -5   7  352.56   24.50 
   1  -5  -7  336.07   22.10 
  -1  -5   7  341.97   24.40 
   1  -5  -7  332.97   26.20 
   1  -5  -7  358.56   20.90 
   1   5  -7  308.77   27.50 
   1   5  -7  277.77   26.30 
  -1   5   7  316.77   22.90 
  -1   5   7  263.07   21.70 
  -1   5   7  314.47   25.50 
   0  -5  -7  979.60   61.89 
   0  -5  -7 1064.09   65.09 
   0  -5   7 1061.29   64.69 
   0  -5  -7 1114.69   62.09 
   0  -5  -7 1035.20   67.69 
   0   5   7  929.71   66.49 
   0   5  -7 1003.30   70.79 
   0   5   7 1052.49   67.39 
   0   5  -7 1065.59   67.29 
   0   5   7 1104.59   64.69 
  -1  -5  -7 1339.37   80.09 
  -1  -5  -7 1297.47   81.69 
   1  -5   7 1409.46   80.89 
   1  -5   7 1342.87   80.59 
  -1  -5  -7 1419.16   85.19 
   1   5   7 1389.76   84.59 
  -1   5  -7 1328.57   83.59 
   1   5   7 1183.88   81.89 
   1   5   7 1322.67   81.49 
   2  -5   7  212.58   18.70 
  -2  -5  -7  238.48   21.30 
  -2  -5  -7  269.57   20.00 
  -2  -5  -7  241.48   19.30 
  -2   5  -7  203.68   19.20 
  -2   5  -7  189.78   19.50 
   2   5   7  211.08   20.20 
   2   5   7  246.48   20.90 
   3  -5   7  246.58   21.80 
  -3  -5  -7  276.27   23.90 
   3  -5   7  255.47   18.80 
  -3  -5  -7  272.77   22.50 
  -3  -5  -7  266.47   21.30 
  -3   5  -7  253.97   21.80 
   3   5   7  263.37   23.30 
  -3   5  -7  288.07   22.40 
   3   5   7  235.08   23.20 
   3   5   7  264.17   22.20 
  -4  -5  -7  125.89   14.40 
  -4  -5  -7  129.39   13.00 
   4  -5   7   89.59   12.80 
   4  -5   7  117.29    9.60 
  -4  -5  -7   92.59   14.40 
   4   5   7  103.09   12.50 
  -4   5  -7  105.69   12.50 
   4   5   7  112.99   13.70 
   5  -5   7   55.59   11.70 
  -5  -5  -7   93.09   10.50 
  -5  -5  -7   61.69   13.40 
  -5  -5  -7   68.29   12.30 
   5  -5   7   81.29    7.80 
  -5   5  -7   83.89   10.30 
   5   5   7   71.99   12.40 
   5   5   7   80.39   11.70 
   6  -5   7   11.40    5.70 
   6  -5   7   15.20    3.80 
  -6  -5  -7   15.60    6.00 
  -6  -5  -7    4.40    4.40 
  -6  -5  -7   10.20    3.90 
  -6   5  -7   12.20    3.70 
   6   5   7    1.80    4.80 
  -8  -6   7  122.69   13.40 
  -8  -6   7  107.19   17.00 
  -8  -6   7   97.99   13.30 
  -8   6   7  111.49   12.20 
  -7  -6   7   30.40    7.10 
   7  -6  -7   20.20    6.30 
  -7  -6   7   26.10    6.70 
  -7  -6   7   18.20    8.40 
  -7   6   7   31.40    6.30 
  -6  -6   7   41.80    9.00 
   6  -6  -7   43.80    8.40 
  -6  -6   7   27.90    9.00 
  -6  -6   7   53.69    9.60 
  -6  -6   7   42.60    9.50 
  -6   6   7   52.39    6.90 
  -6   6   7   49.80    9.00 
   5  -6  -7  353.46   27.40 
  -5  -6   7  345.87   27.10 
  -5  -6   7  300.77   25.10 
  -5  -6   7  352.76   30.40 
  -5  -6   7  338.27   29.60 
  -5   6   7  310.57   26.50 
  -5   6   7  357.76   23.70 
   4  -6  -7   64.09   11.70 
  -4  -6   7   90.49   15.00 
  -4  -6   7   86.79   11.10 
  -4  -6   7  119.99   13.60 
  -4  -6   7   97.69   11.00 
  -4   6   7   96.59    9.50 
  -4   6   7   79.69   11.30 
   4   6  -7   95.79   13.00 
  -3  -6   7  286.07   26.90 
  -3  -6   7  302.77   24.30 
   3  -6  -7  287.07   24.90 
  -3  -6   7  273.07   21.60 
  -3  -6   7  316.77   27.10 
  -3  -6   7  258.77   21.00 
  -3   6   7  299.67   21.50 
   3   6  -7  343.27   27.00 
  -3   6   7  329.97   25.80 
  -2  -6   7  130.89   15.80 
   2  -6  -7  136.69   13.00 
  -2  -6   7  130.09   15.30 
  -2  -6   7  119.19   10.70 
  -2  -6   7  136.79   14.00 
   2  -6  -7  137.69   14.90 
  -2  -6   7  130.89   11.20 
  -2   6   7  126.49   13.60 
   2   6  -7  126.69   15.90 
  -2   6   7  104.09   14.00 
   2   6  -7  136.09   15.40 
  -1  -6   7  741.43   50.19 
  -1  -6   7  705.63   46.80 
   1  -6  -7  702.43   49.30 
  -1  -6   7  788.52   46.00 
   1  -6  -7  643.84   43.40 
   1  -6  -7  766.72   41.60 
  -1   6   7  612.64   46.90 
  -1   6   7  686.23   48.70 
   1   6  -7  634.24   48.00 
   1   6  -7  661.13   48.70 
   0  -6  -7  246.48   16.80 
   0  -6   7  254.87   20.20 
   0  -6  -7  228.58   19.80 
   0  -6  -7  203.88   19.00 
   0  -6   7  273.97   19.10 
   0  -6   7  247.88   22.50 
   0  -6  -7  218.08   21.90 
   0   6   7  224.68   21.50 
   0   6   7  237.18   19.70 
   0   6  -7  260.17   22.50 
   0   6  -7  230.08   21.10 
  -1  -6  -7   86.69   13.90 
  -1  -6  -7   67.19    8.40 
   1  -6   7   77.79    8.80 
  -1  -6  -7   49.99    8.60 
  -1  -6  -7   67.69    9.60 
   1  -6   7   62.39    8.30 
  -1   6  -7   62.89   10.30 
   1   6   7   64.79    9.00 
  -1   6  -7   65.89   11.60 
   1   6   7   69.89   12.00 
  -2  -6  -7   52.59   13.00 
  -2  -6  -7   55.89   10.40 
  -2  -6  -7   53.89    9.50 
   2  -6   7   48.70    7.80 
  -2  -6  -7   42.30    9.70 
  -2   6  -7   54.39   10.00 
  -2   6  -7   47.80    8.70 
   2   6   7   33.30    8.10 
   2   6   7   59.59    9.00 
  -3  -6  -7  215.58   22.30 
  -3  -6  -7  247.38   23.30 
   3  -6   7  218.58   17.40 
  -3  -6  -7  259.27   24.30 
   3  -6   7  203.68   19.60 
  -3   6  -7  221.58   22.80 
   3   6   7  227.58   22.40 
   3   6   7  229.48   20.70 
  -3   6  -7  211.28   20.50 
   4  -6   7  238.58   23.10 
  -4  -6  -7  289.27   27.60 
  -4  -6  -7  281.57   23.00 
   4  -6   7  274.37   19.60 
  -4  -6  -7  329.87   27.20 
   4   6   7  244.48   23.50 
   4   6   7  251.87   25.00 
  -4   6  -7  285.57   23.80 
  -5  -6  -7   29.80    8.80 
   5  -6   7   29.90    5.20 
   5  -6   7   27.80    7.90 
  -5  -6  -7   34.50   10.60 
  -5  -6  -7   39.90    7.70 
   5   6   7   33.60    7.90 
  -5   6  -7   41.10    7.40 
   5   6   7   39.30    8.40 
  -6  -6  -7    1.10    6.90 
  -6  -6  -7    0.60    4.90 
   6  -6   7    3.50    5.70 
   6   6   7   10.80    5.90 
  -6   6  -7    2.20    4.20 
  -7  -7   7  136.69   18.60 
   7  -7  -7   87.49   15.90 
  -7  -7   7   79.29   16.30 
  -7   7   7  140.19   12.10 
  -7   7   7  121.39   13.60 
   6  -7  -7   13.10    5.60 
  -6  -7   7   12.60    7.00 
  -6  -7   7    6.40    4.90 
  -6  -7   7   11.30    7.40 
   6   7  -7   16.60    6.70 
  -6   7   7    8.00    3.70 
  -6   7   7    7.10    5.10 
   5  -7  -7   29.90    8.30 
  -5  -7   7   39.20   11.20 
  -5  -7   7   23.90    8.70 
  -5  -7   7   43.40    8.40 
  -5   7   7   40.70    6.10 
  -5   7   7   21.50    6.30 
   5   7  -7   19.80    6.60 
  -4  -7   7   83.39   15.00 
  -4  -7   7   95.39   13.20 
  -4  -7   7   81.89   11.30 
   4  -7  -7   66.09   12.00 
  -4   7   7   92.89   12.00 
  -4   7   7   75.99    9.30 
   4   7  -7   89.59   11.10 
  -3  -7   7    5.10    7.20 
  -3  -7   7    7.50    4.00 
  -3  -7   7    3.90    4.40 
   3  -7  -7    1.70    4.30 
  -3  -7   7    5.90    3.60 
  -3   7   7    2.80    2.90 
  -3   7   7    2.80    3.30 
   3   7  -7   -3.40    4.10 
   2  -7  -7  175.78   19.30 
  -2  -7   7  188.78   18.00 
  -2  -7   7  167.58   14.00 
  -2  -7   7  195.18   19.00 
  -2  -7   7  192.08   22.60 
  -2  -7   7  180.68   13.90 
   2   7  -7  148.19   18.20 
  -2   7   7  159.88   23.50 
  -2   7   7  193.88   16.40 
   1  -7  -7    4.70    3.80 
  -1  -7   7    8.20    4.90 
  -1  -7   7   -0.30    3.50 
   1  -7  -7   -0.30    3.20 
  -1   7   7    3.60    3.00 
  -1   7   7    2.80    3.10 
   1   7  -7    3.90    3.50 
   0  -7  -7  254.87   17.70 
   0  -7  -7  252.37   22.10 
   0  -7   7  244.58   21.70 
   0  -7  -7  277.47   25.20 
   0  -7   7  291.27   20.70 
   0   7  -7  226.28   25.70 
   0   7   7  243.18   21.40 
   0   7   7  270.97   24.50 
  -1  -7  -7   59.29   10.40 
  -1  -7  -7   45.90    7.50 
  -1  -7  -7   43.50    8.80 
   1  -7   7   59.09    8.20 
  -1  -7  -7   77.49   13.70 
   1  -7   7   43.30    8.50 
   1   7   7   44.90   10.30 
  -1   7  -7   55.89   10.00 
  -1   7  -7   67.19   16.40 
   1   7   7   67.29    9.30 
   2  -7   7   76.89   10.80 
  -2  -7  -7   72.19   14.30 
  -2  -7  -7  108.59   12.00 
  -2  -7  -7  110.59   13.10 
  -2  -7  -7   97.19   12.90 
   2   7   7   95.89   13.40 
  -2   7  -7   86.99   12.60 
   2   7   7   96.79   12.20 
   3  -7   7  115.79   16.00 
   3  -7   7  118.39   12.20 
  -3  -7  -7  127.19   16.30 
  -3  -7  -7  128.49   16.20 
  -3  -7  -7  121.29   14.20 
  -3   7  -7  124.69   15.10 
   3   7   7   94.59   16.90 
   3   7   7  132.29   15.30 
  -4  -7  -7   16.90    7.40 
  -4  -7  -7   43.80   10.50 
   4  -7   7   28.80    7.60 
   4   7   7   37.20    8.40 
  -4   7  -7   24.30    7.00 
   5  -7   7  101.69   13.90 
   5  -7   7   84.39   11.40 
  -5  -7  -7   97.49   16.10 
  -5  -7  -7   59.89   13.70 
   5   7   7   93.69   15.00 
  -5   7  -7  102.39   14.20 
   5   7   7   94.69   13.00 
  -5  -8   7   31.60   10.50 
  -5  -8   7   36.40    8.50 
   5  -8  -7   28.30    8.60 
  -5   8   7   43.00    7.80 
   5   8  -7   34.30    8.40 
  -5   8   7   43.80    9.00 
  -4  -8   7   26.90    7.30 
  -4  -8   7   32.00   10.10 
   4  -8  -7   12.70    7.20 
  -4  -8   7   10.80    8.20 
   4   8  -7   22.60    7.30 
  -4   8   7   20.80    6.90 
  -4   8   7   25.10    5.80 
   3  -8  -7    4.50    5.20 
  -3  -8   7   13.80    8.00 
  -3  -8   7   17.50    5.80 
  -3  -8   7   19.40    4.60 
  -3  -8   7   13.80    7.50 
  -3   8   7    6.40    5.00 
   3   8  -7    6.30    4.60 
  -3   8   7   13.10    5.00 
   2  -8  -7   56.89   11.30 
  -2  -8   7   59.19   11.10 
  -2  -8   7   52.69    9.70 
  -2   8   7   52.19    9.30 
   2   8  -7   33.50   17.90 
  -2   8   7   42.70    9.20 
   1  -8  -7  125.29   18.40 
  -1  -8   7  202.78   16.70 
  -1  -8   7  164.28   17.10 
   1   8  -7  141.99   18.60 
  -1   8   7  150.98   15.70 
  -1   8   7  161.18   18.60 
   0  -8  -7   98.19   11.10 
   0  -8  -7  116.39   15.70 
   0  -8   7  129.59   12.40 
   0  -8   7   99.49   13.50 
   0   8   7  113.39   15.50 
   0   8  -7  112.19   15.20 
   0   8   7  113.29   12.80 
  -1  -8  -7   49.40    7.70 
   1  -8   7   24.30    7.10 
   1  -8   7   46.20    8.50 
  -1  -8  -7   47.00    9.00 
  -1  -8  -7   51.49   11.10 
  -1  -8  -7   48.60   10.10 
  -1   8  -7   56.59   11.30 
   1   8   7   42.90   10.00 
   1   8   7   28.70    7.10 
  -2  -8  -7    1.00    5.60 
  -2  -8  -7   13.90    8.00 
  -2  -8  -7   13.50    7.20 
   2  -8   7   10.50    4.80 
  -2  -8  -7   22.00    6.30 
   2   8   7    1.50    6.20 
   2   8   7    8.20    5.20 
  -2   8  -7   21.30    7.10 
  -3  -8  -7   13.10    6.50 
   3  -8   7   20.10    6.20 
  -3  -8  -7   18.10    7.10 
   3  -8   7   23.60    5.80 
  -3  -8  -7   20.00    7.70 
   3   8   7   27.30    8.80 
  -3   8  -7    1.30    7.40 
   3   8   7   15.50    5.70 
  -4  -8  -7   64.89   13.40 
   4   8   7   67.59   14.00 
   4   8   7   63.19   14.70 
  -3  -9   7  163.18   19.50 
  -3  -9   7  146.69   20.30 
   3  -9  -7  139.29   21.40 
  -3   9   7  174.78   19.80 
  -3   9   7  167.98   18.10 
   2  -9  -7   90.49   16.30 
  -2  -9   7  108.39   14.40 
  -2  -9   7   95.89   14.80 
  -2   9   7   98.59   12.60 
   2   9  -7  106.69   17.20 
  -2   9   7   77.59   14.90 
  -1  -9   7   26.90    6.90 
  -1  -9   7   24.50    8.10 
   1  -9  -7   29.20    9.70 
  -1   9   7   23.20    7.40 
  -1   9   7   24.90    8.30 
   1   9  -7   21.90    7.70 
   0  -9  -7   20.50    8.90 
   0  -9   7   12.60    4.60 
   0  -9   7   23.40    7.40 
   0   9   7   20.30    7.20 
   0   9   7   15.60    7.10 
  -1  -9  -7   32.00    8.10 
  -1  -9  -7   45.70   12.50 
   1  -9   7   35.90    7.90 
   1  -9   7   28.30    8.50 
  -1  -9  -7   39.60   10.40 
   1   9   7   24.50    6.70 
   1   9   7   33.30   14.80 
  -9   0   8    7.70    2.70 
  -9   0   8    5.50    5.20 
  -9   0   8    2.40    4.50 
  -8   0   8   88.79    8.30 
  -8   0   8   70.59   11.00 
  -8   0   8   89.29   12.40 
  -7   0   8   -0.10    3.40 
  -7   0   8    2.20    1.90 
   7   0  -8    5.60    4.30 
  -7   0   8    2.00    3.80 
  -6   0   8   35.00    7.70 
  -6   0   8   39.30    5.30 
   6   0  -8   29.90    8.20 
  -6   0   8   30.10    8.00 
  -5   0   8   49.30    6.00 
  -5   0   8   46.60    8.30 
  -5   0   8   49.99   10.00 
   5   0  -8   39.10    8.40 
  -5   0   8   59.19   10.80 
   5   0  -8   43.00    5.90 
  -4   0   8  316.47   21.70 
   4   0  -8  321.97   21.40 
  -4   0   8  334.47   21.10 
   4   0  -8  250.77   21.30 
   4   0  -8  280.37   23.60 
  -4   0   8  301.07   23.50 
   3   0  -8   10.70    3.80 
   3   0  -8   15.60    3.70 
   3   0  -8    8.80    3.30 
  -3   0   8    9.00    4.80 
  -3   0   8   10.80    3.00 
  -3   0   8   14.60    4.00 
  -2   0   8    3.00    2.00 
   2   0  -8    0.10    1.00 
   2   0  -8    2.10    3.10 
   2   0  -8    0.60    2.00 
  -2   0   8    1.50    1.90 
  -2   0   8    0.80    2.30 
   1   0  -8  182.08   14.40 
   1   0  -8  181.88   14.20 
   1   0  -8  191.78   16.70 
  -1   0   8  192.68   14.70 
  -1   0   8  225.18   13.50 
  -1   0   8  206.08   15.20 
   0   0   8    4.10    2.10 
   0   0  -8    6.20    3.70 
   0   0  -8   10.30    2.90 
   0   0   8   10.80    3.50 
   0   0  -8    6.90    2.50 
  -1   0  -8   18.00    3.30 
  -1   0  -8   13.50    3.20 
   1   0   8   15.20    3.50 
  -1   0  -8   12.60    3.60 
   1   0   8    6.90    3.50 
   1   0   8   10.50    3.00 
   2   0   8  583.14   42.00 
   2   0   8  564.04   37.50 
  -2   0  -8  577.34   37.80 
   2   0   8  574.34   38.40 
  -2   0  -8  662.23   39.50 
  -2   0  -8  667.73   36.20 
   3   0   8 1307.47   80.39 
  -3   0  -8 1277.37   79.19 
  -3   0  -8 1485.35   77.99 
   3   0   8 1282.07   79.79 
   3   0   8 1274.67   85.09 
  -3   0  -8 1422.76   81.99 
  -4   0  -8  170.78   13.70 
  -4   0  -8  189.68   13.00 
   4   0   8  176.98   15.00 
   4   0   8  172.28   14.70 
   4   0   8  166.48   19.60 
  -5   0  -8  108.19    9.10 
  -5   0  -8   90.59    8.90 
   5   0   8  109.19   10.50 
   5   0   8   84.99   13.80 
   5   0   8   87.49   10.40 
   6   0   8   24.30    5.60 
  -6   0  -8   13.50    3.60 
  -6   0  -8   21.70    4.80 
   6   0   8   23.60    8.00 
   6   0   8   19.40    4.70 
   7   0   8  147.89   20.50 
   7   0   8  153.08   13.70 
  -7   0  -8  164.48   13.00 
  -9  -1   8   99.99   15.30 
  -9  -1   8  100.39   14.50 
  -9  -1   8   74.89    8.40 
  -9   1   8   76.29   12.00 
  -9   1   8   97.69   12.90 
  -9   1   8   81.29    8.00 
  -8  -1   8  163.78   18.10 
  -8  -1   8  154.48   12.10 
  -8  -1   8  124.79   15.00 
  -8   1   8  145.39   11.90 
  -8   1   8  146.29   15.40 
  -7  -1   8  176.48   13.10 
   7  -1  -8  151.88   17.70 
  -7  -1   8  186.68   18.50 
  -7  -1   8  160.88   15.80 
  -7   1   8  142.49   12.40 
  -7   1   8  155.78   16.20 
  -7   1   8  140.99   15.20 
   6  -1  -8  200.28   19.30 
  -6  -1   8  200.38   19.40 
  -6  -1   8  223.28   15.50 
  -6  -1   8  197.38   17.40 
  -6   1   8  196.08   15.10 
  -6   1   8  208.78   18.70 
   6   1  -8  165.48   19.00 
  -6   1   8  173.78   20.30 
  -5  -1   8  817.12   52.29 
  -5  -1   8  903.31   51.09 
   5  -1  -8  777.52   54.39 
  -5  -1   8  781.12   54.09 
  -5  -1   8  873.21   55.29 
   5  -1  -8  828.92   50.79 
   5  -1  -8  732.53   52.29 
  -5   1   8  900.91   50.89 
  -5   1   8  856.71   51.89 
  -5   1   8  809.92   52.99 
   5   1  -8  828.02   52.19 
  -4  -1   8 1011.90   63.89 
   4  -1  -8  866.71   61.69 
   4  -1  -8 1045.80   60.69 
  -4  -1   8 1103.99   61.19 
   4  -1  -8  953.80   63.19 
  -4  -1   8 1043.20   63.89 
  -4  -1   8 1003.80   61.39 
  -4   1   8 1047.00   60.79 
  -4   1   8 1035.50   61.89 
   4   1  -8 1038.80   61.99 
  -4   1   8 1071.29   60.99 
   4   1  -8  874.31   64.09 
  -3  -1   8  574.24   37.80 
   3  -1  -8  559.24   37.60 
   3  -1  -8  584.44   35.60 
  -3  -1   8  575.04   35.70 
   3  -1  -8  516.75   36.40 
  -3   1   8  606.74   36.10 
  -3   1   8  631.34   35.50 
   3   1  -8  478.75   35.60 
   3   1  -8  542.75   36.50 
   3   1  -8  606.64   39.50 
   2  -1  -8  151.28   13.00 
  -2  -1   8  176.18   12.30 
  -2  -1   8  183.98   14.20 
  -2  -1   8  160.48   12.70 
   2  -1  -8  166.58   12.50 
   2  -1  -8  156.48   14.40 
   2   1  -8  149.88   14.80 
   2   1  -8  129.69   12.10 
  -2   1   8  177.08   12.00 
  -2   1   8  172.18   13.20 
   2   1  -8  159.88   13.10 
  -2   1   8  175.68   12.70 
  -1  -1   8  895.51   45.80 
   1  -1  -8  739.03   46.90 
  -1  -1   8  801.52   47.50 
   1  -1  -8  773.42   48.50 
   1  -1  -8  742.93   51.49 
  -1   1   8  889.41   46.50 
  -1   1   8  785.92   48.10 
  -1   1   8  819.42   48.20 
   1   1  -8  664.03   49.20 
   1   1  -8  743.03   47.80 
   1   1  -8  674.13   46.40 
   0  -1   8  188.88   14.90 
   0  -1   8  209.28   16.30 
   0  -1   8  210.28   13.30 
   0  -1  -8  214.28   14.30 
   0  -1  -8  248.78   16.10 
   0  -1  -8  204.58   15.10 
   0   1  -8  203.38   17.10 
   0   1   8  209.08   14.40 
   0   1   8  202.08   15.80 
   0   1   8  199.58   16.60 
   0   1  -8  175.48   13.80 
   0   1  -8  199.28   15.40 
   1  -1   8  717.63   48.40 
  -1  -1  -8  816.22   44.70 
  -1  -1  -8  765.02   46.10 
   1  -1   8  712.53   45.90 
  -1  -1  -8  825.82   46.90 
   1  -1   8  686.43   44.20 
   1   1   8  719.73   48.90 
  -1   1  -8  867.11   47.60 
  -1   1  -8  736.63   46.30 
  -1   1  -8  722.63   44.10 
   1   1   8  717.03   45.50 
   1   1   8  731.93   47.00 
  -2  -1  -8 1678.93   97.29 
   2  -1   8 1643.44  100.09 
  -2  -1  -8 1572.64   95.69 
  -2  -1  -8 1785.52   94.39 
   2   1   8 1535.95   96.99 
  -2   1  -8 1579.24   95.99 
   2   1   8 1499.65   95.69 
   2   1   8 1557.14  100.09 
  -2   1  -8 1862.71   97.49 
  -3  -1  -8 2591.54  135.59 
   3  -1   8 2267.57  142.09 
  -3  -1  -8 2385.26  139.19 
   3  -1   8 2376.56  136.89 
  -3  -1  -8 2288.07  136.39 
   3   1   8 2283.27  137.59 
   3   1   8 2186.98  142.29 
  -3   1  -8 2216.48  136.59 
  -3   1  -8 2636.84  138.89 
   4  -1   8  174.18   15.10 
  -4  -1  -8  188.28   15.00 
   4  -1   8  187.68   21.10 
  -4  -1  -8  224.08   15.00 
   4  -1   8  198.88   15.40 
   4   1   8  199.08   16.80 
   4   1   8  192.08   16.70 
  -4   1  -8  206.88   15.40 
   5  -1   8  376.66   33.60 
  -5  -1  -8  432.66   26.50 
   5  -1   8  372.26   26.80 
   5  -1   8  371.06   27.00 
  -5  -1  -8  392.06   26.30 
   5   1   8  415.56   29.30 
   5   1   8  353.46   33.60 
  -5   1  -8  388.46   26.30 
  -5   1  -8  401.16   24.80 
   5   1   8  381.96   28.00 
  -6  -1  -8   33.00    5.60 
   6  -1   8   23.40    8.40 
   6  -1   8   22.80    5.00 
   6  -1   8   44.30    6.70 
  -6   1  -8   40.30    5.20 
  -6   1  -8   29.60    5.60 
   6   1   8   35.30    6.70 
   6   1   8   29.20    7.70 
   6   1   8   36.70    9.80 
   7  -1   8   10.80    4.40 
   7  -1   8   -6.20    3.70 
  -7  -1  -8    6.60    2.90 
   7   1   8    8.30    9.10 
   7   1   8    5.30    3.80 
  -7   1  -8    4.00    3.30 
   7   1   8    3.80    4.40 
  -7   1  -8    2.30    2.50 
  -9  -2   8   87.99   13.90 
  -9  -2   8   83.49   10.20 
  -9  -2   8   88.09    9.10 
  -9  -2   8   68.29   14.70 
  -9   2   8   80.39    9.50 
  -9   2   8   79.09   12.40 
  -9   2   8   79.69   14.50 
   8  -2  -8    6.40    2.70 
  -8  -2   8   -1.30    4.20 
  -8  -2   8    4.20    3.90 
  -8  -2   8    7.90    2.70 
  -8   2   8    4.90    4.60 
  -8   2   8    3.50    1.80 
  -8   2   8   14.40    5.40 
  -8   2   8    1.50    4.00 
  -7  -2   8  385.56   24.40 
   7  -2  -8  333.97   28.30 
  -7  -2   8  369.46   29.90 
  -7  -2   8  316.27   26.30 
  -7   2   8  336.87   26.50 
  -7   2   8  325.77   25.40 
  -7   2   8  329.77   23.70 
  -6  -2   8  236.98   24.20 
  -6  -2   8  295.67   23.20 
   6  -2  -8  287.87   24.10 
  -6  -2   8  326.77   29.70 
  -6   2   8  287.67   21.70 
  -6   2   8  270.07   22.40 
  -6   2   8  297.77   20.70 
  -5  -2   8  682.33   40.50 
  -5  -2   8  659.33   45.00 
   5  -2  -8  653.03   39.50 
  -5  -2   8  620.64   43.20 
  -5  -2   8  656.73   41.90 
   5  -2  -8  561.64   41.60 
   5  -2  -8  589.44   42.50 
  -5   2   8  642.54   40.30 
  -5   2   8  670.83   40.60 
   5   2  -8  590.84   45.10 
  -5   2   8  606.94   40.70 
   5   2  -8  650.73   42.20 
  -4  -2   8  383.76   27.10 
   4  -2  -8  359.56   27.60 
  -4  -2   8  366.06   28.30 
   4  -2  -8  371.86   28.10 
   4  -2  -8  383.46   25.70 
  -4  -2   8  395.56   26.50 
  -4  -2   8  382.86   30.20 
  -4   2   8  453.75   26.60 
   4   2  -8  359.06   27.60 
  -4   2   8  428.86   26.30 
  -4   2   8  410.86   26.90 
  -3  -2   8  513.65   36.90 
  -3  -2   8  542.65   36.00 
   3  -2  -8  539.85   33.90 
   3  -2  -8  466.25   34.80 
   3  -2  -8  509.55   35.10 
  -3  -2   8  574.74   34.90 
  -3  -2   8  525.85   34.20 
   3   2  -8  534.65   35.90 
  -3   2   8  602.14   33.80 
   3   2  -8  510.25   37.80 
  -3   2   8  589.14   35.40 
   2  -2  -8  541.15   32.80 
   2  -2  -8  464.35   33.40 
  -2  -2   8  504.65   31.90 
  -2  -2   8  570.94   34.80 
   2  -2  -8  506.95   33.20 
  -2  -2   8  545.55   33.40 
  -2  -2   8  526.25   33.70 
  -2   2   8  490.15   32.40 
   2   2  -8  486.05   34.00 
  -2   2   8  471.95   33.50 
   2   2  -8  499.25   36.10 
  -2   2   8  563.94   32.00 
   1  -2  -8  170.58   13.40 
  -1  -2   8  173.68   13.60 
   1  -2  -8  176.58   13.60 
   1  -2  -8  172.98   14.30 
  -1  -2   8  172.48   11.90 
  -1  -2   8  200.68   14.60 
  -1   2   8  182.58   14.40 
  -1   2   8  196.38   13.30 
  -1   2   8  192.68   14.80 
   1   2  -8  165.88   16.80 
   1   2  -8  187.48   14.70 
   1   2  -8  148.89   12.40 
   0  -2  -8   62.89    6.90 
   0  -2   8   50.89    6.40 
   0  -2   8   62.69    7.60 
   0  -2  -8   66.59    6.40 
   0  -2  -8   72.79    7.20 
   0   2   8   61.69    7.50 
   0   2  -8   71.59    7.80 
   0   2   8   63.49    8.10 
   0   2  -8   61.29   10.10 
   0   2   8   63.39    6.70 
   1  -2   8   92.59   10.60 
   1  -2   8   89.89    8.40 
  -1  -2  -8   98.09    9.40 
  -1  -2  -8   96.99    9.00 
  -1  -2  -8   95.69    7.80 
  -1   2  -8   83.99   10.90 
   1   2   8   95.89    9.90 
   1   2   8   87.49   10.60 
   1   2   8   86.49    8.70 
  -1   2  -8   84.99    9.10 
   2  -2   8  560.84   40.10 
  -2  -2  -8  629.64   35.80 
  -2  -2  -8  604.04   38.50 
  -2  -2  -8  632.94   37.50 
   2   2   8  546.25   37.30 
  -2   2  -8  561.44   37.60 
  -2   2  -8  651.63   41.10 
   2   2   8  515.05   38.20 
   2   2   8  506.35   40.20 
  -3  -2  -8 1951.40  113.09 
  -3  -2  -8 2005.50  115.79 
   3  -2   8 1929.71  117.99 
  -3  -2  -8 2197.58  112.29 
   3  -2   8 1903.61  112.19 
   3   2   8 1848.42  118.59 
  -3   2  -8 1815.02  113.09 
   3   2   8 1872.91  114.09 
   3   2   8 1812.82  115.09 
  -4  -2  -8  319.07   20.30 
   4  -2   8  277.67   19.80 
  -4  -2  -8  261.07   20.00 
  -4   2  -8  247.88   20.10 
   4   2   8  263.37   26.20 
   4   2   8  291.77   22.40 
   4   2   8  271.37   21.90 
   5  -2   8  100.69    9.30 
  -5  -2  -8  100.59    9.70 
   5  -2   8   74.69   14.80 
   5   2   8  100.89   11.50 
   5   2   8   94.39   11.40 
  -5   2  -8   88.89    9.30 
   5   2   8   94.49   14.70 
   6  -2   8   40.10    6.20 
   6  -2   8   43.40   11.60 
  -6  -2  -8   51.49    6.40 
   6   2   8   36.30    9.10 
  -6   2  -8   40.40    6.60 
   6   2   8   30.80    6.90 
   6   2   8   21.60    8.00 
   7  -2   8   84.49   16.90 
  -7  -2  -8  130.29   12.70 
  -7  -2  -8  100.59   12.50 
   7   2   8  115.49   18.60 
  -7   2  -8  110.79   11.00 
   7   2   8  117.09   14.70 
   7   2   8  125.09   13.20 
  -9  -3   8   52.39   11.00 
  -9  -3   8   44.80    9.50 
  -9  -3   8   51.99    7.00 
  -9  -3   8   47.50   11.00 
  -9   3   8   34.30   10.20 
  -9   3   8   77.59   11.30 
  -9   3   8   53.59    6.60 
  -9   3   8   63.29   11.90 
  -8  -3   8   59.69   11.00 
  -8  -3   8   54.09    9.80 
  -8  -3   8   52.39    7.30 
  -8  -3   8   66.39   12.90 
  -8   3   8   59.89   10.00 
  -8   3   8   54.59    7.30 
  -8   3   8   93.39   11.70 
  -8   3   8   71.29    9.70 
  -7  -3   8   75.49   12.70 
  -7  -3   8   88.09   11.30 
  -7  -3   8   96.99    9.30 
   7  -3  -8   78.39    8.80 
  -7   3   8   77.79   10.20 
  -7   3   8   79.89    8.80 
  -7   3   8   71.89   10.20 
  -7   3   8   64.09   10.50 
  -6  -3   8  135.19   16.50 
  -6  -3   8  133.99   13.90 
  -6  -3   8  133.19   12.40 
   6  -3  -8  154.98   14.40 
  -6   3   8  125.89   12.80 
  -6   3   8  134.09   12.30 
  -6   3   8  124.79   12.40 
  -5  -3   8  209.58   20.60 
  -5  -3   8  206.18   16.40 
  -5  -3   8  181.08   16.80 
   5  -3  -8  176.08   16.60 
  -5  -3   8  183.28   17.80 
  -5   3   8  195.48   16.20 
   5   3  -8  183.68   17.40 
  -5   3   8  224.78   15.90 
  -5   3   8  231.58   16.20 
   4  -3  -8  848.22   55.19 
  -4  -3   8  890.51   55.39 
   4  -3  -8  898.01   53.79 
  -4  -3   8  937.31   55.59 
  -4  -3   8  851.71   56.79 
  -4  -3   8  878.21   58.79 
   4  -3  -8  846.92   55.99 
  -4   3   8  877.91   55.69 
   4   3  -8  930.81   57.59 
   4   3  -8  786.02   59.09 
  -4   3   8 1020.30   54.19 
   3  -3  -8 1109.49   67.09 
  -3  -3   8 1109.39   68.99 
   3  -3  -8 1105.59   69.79 
  -3  -3   8 1072.39   70.29 
  -3  -3   8 1071.69   67.29 
   3  -3  -8 1069.99   67.99 
  -3  -3   8 1166.08   68.49 
  -3   3   8 1140.79   69.09 
  -3   3   8 1311.07   66.89 
  -3   3   8 1127.49   66.19 
   3   3  -8 1093.69   70.09 
   3   3  -8 1093.89   72.59 
  -2  -3   8  142.79   14.30 
   2  -3  -8  127.09   12.20 
  -2  -3   8  129.99   11.90 
   2  -3  -8  131.09   12.00 
   2  -3  -8  118.19   11.30 
  -2   3   8  139.79   11.50 
  -2   3   8  153.68   13.20 
  -2   3   8  160.58   11.40 
   2   3  -8  142.59   13.40 
   2   3  -8  137.89   14.60 
  -1  -3   8  296.67   21.40 
   1  -3  -8  300.07   21.40 
   1  -3  -8  333.67   21.20 
  -1  -3   8  357.06   22.60 
   1   3  -8  281.67   24.20 
  -1   3   8  264.77   21.40 
  -1   3   8  305.27   20.80 
  -1   3   8  285.77   22.70 
   1   3  -8  292.07   22.80 
   0  -3  -8 1282.07   69.79 
   0  -3  -8 1157.18   71.09 
   0  -3   8 1277.97   71.89 
   0  -3   8 1161.48   70.89 
   0   3  -8 1111.69   73.69 
   0   3   8 1233.18   70.99 
   0   3  -8 1121.09   72.49 
   0   3   8 1210.38   73.39 
   0   3   8 1085.49   72.29 
  -1  -3  -8 2588.94  154.78 
   1  -3   8 2705.73  156.28 
   1  -3   8 2572.84  153.98 
  -1  -3  -8 2951.20  153.28 
  -1  -3  -8 2806.92  154.88 
   1   3   8 2677.13  155.08 
   1   3   8 2702.23  157.28 
  -1   3  -8 2584.94  157.48 
  -1   3  -8 2708.83  156.28 
   1   3   8 2427.36  157.08 
  -2  -3  -8  768.82   47.60 
   2  -3   8  750.32   49.99 
  -2  -3  -8  746.93   48.60 
  -2  -3  -8  825.72   46.20 
   2   3   8  697.43   50.79 
  -2   3  -8  797.62   48.90 
   2   3   8  720.13   48.00 
   2   3   8  719.53   49.50 
  -2   3  -8  740.33   48.30 
  -3  -3  -8  505.45   33.90 
   3  -3   8  515.75   32.80 
  -3  -3  -8  490.75   36.10 
  -3  -3  -8  551.94   33.20 
   3  -3   8  494.15   37.50 
   3   3   8  515.45   36.50 
  -3   3  -8  511.85   34.80 
   3   3   8  469.35   35.00 
   3   3   8  482.75   38.50 
  -3   3  -8  569.74   35.10 
   4  -3   8  179.58   14.10 
  -4  -3  -8  193.48   15.30 
   4  -3   8  165.58   18.60 
   4   3   8  164.48   16.30 
   4   3   8  186.98   20.30 
   4   3   8  182.68   18.60 
  -4   3  -8  198.78   16.00 
   5  -3   8   68.29   13.40 
  -5  -3  -8   52.19    8.30 
  -5  -3  -8   75.39   10.20 
   5  -3   8   74.09    7.70 
   5   3   8   59.49    9.90 
   5   3   8   49.70   12.30 
  -5   3  -8   60.99    7.90 
   5   3   8   71.19   10.20 
   6  -3   8    8.20    5.10 
   6  -3   8   12.30    3.50 
  -6  -3  -8    3.90    3.80 
   6   3   8   18.40    5.40 
   6   3   8   11.00    4.80 
   6   3   8   10.70    5.90 
  -6   3  -8   13.20    3.80 
   7  -3   8   28.60    9.10 
  -7  -3  -8   44.20    7.10 
  -7  -3  -8   26.00    6.20 
   7   3   8   17.30    7.10 
   7   3   8   48.00    8.80 
   7   3   8   36.40   11.00 
  -7   3  -8   38.10    6.60 
  -9  -4   8   33.10    9.60 
  -9  -4   8   45.00    7.80 
  -9  -4   8   48.10   12.50 
  -9  -4   8   51.19   11.20 
  -9   4   8   38.60    8.40 
  -9   4   8   39.50    8.20 
  -9   4   8   23.90    5.20 
  -8  -4   8   40.10   10.10 
  -8  -4   8   28.10    7.50 
  -8  -4   8   32.80    6.30 
  -8  -4   8   25.20    6.80 
  -8   4   8   33.30    5.80 
  -8   4   8   39.00    6.90 
  -8   4   8   36.20    6.90 
  -8   4   8   34.70    7.30 
  -7  -4   8  338.37   24.10 
  -7  -4   8  315.37   28.90 
  -7  -4   8  312.57   25.40 
  -7  -4   8  283.17   26.00 
   7  -4  -8  314.87   23.10 
  -7   4   8  338.77   23.30 
  -7   4   8  317.27   21.60 
  -7   4   8  259.57   21.90 
  -7   4   8  292.67   23.20 
  -6  -4   8  135.69   14.00 
  -6  -4   8  132.99   17.50 
  -6  -4   8  118.89   14.20 
   6  -4  -8  142.79   18.60 
  -6   4   8  177.78   13.80 
  -6   4   8  179.48   12.00 
  -6   4   8  158.68   14.50 
   5  -4  -8 1191.08   76.19 
   5  -4  -8 1212.58   78.29 
  -5  -4   8 1162.38   77.59 
  -5  -4   8 1215.38   79.69 
  -5  -4   8 1303.37   78.09 
  -5  -4   8 1257.57   82.09 
  -5   4   8 1386.36   73.79 
  -5   4   8 1432.06   76.09 
  -5   4   8 1255.57   78.29 
   4  -4  -8  322.07   22.50 
  -4  -4   8  315.57   24.80 
  -4  -4   8  356.76   24.60 
  -4  -4   8  292.97   27.10 
  -4  -4   8  312.97   23.50 
   4  -4  -8  339.27   22.50 
   4   4  -8  278.37   26.30 
  -4   4   8  292.87   20.50 
  -4   4   8  386.06   22.60 
  -4   4   8  311.37   24.40 
  -3  -4   8  477.05   32.90 
  -3  -4   8  478.35   31.70 
  -3  -4   8  493.65   33.00 
   3  -4  -8  477.05   31.00 
   3  -4  -8  474.85   31.60 
   3  -4  -8  459.85   32.40 
  -3  -4   8  513.35   36.10 
  -3   4   8  551.44   31.40 
  -3   4   8  527.35   34.60 
  -3   4   8  442.76   30.10 
   3   4  -8  450.55   34.50 
   3   4  -8  432.56   36.00 
   2  -4  -8  242.38   17.60 
  -2  -4   8  248.98   20.50 
  -2  -4   8  230.18   18.30 
  -2  -4   8  210.98   17.20 
   2  -4  -8  204.38   16.70 
  -2  -4   8  219.78   17.10 
   2  -4  -8  232.58   17.40 
  -2   4   8  232.88   16.90 
   2   4  -8  221.68   20.90 
  -2   4   8  215.28   19.10 
  -2   4   8  265.17   17.40 
   2   4  -8  220.48   19.50 
   1  -4  -8 1698.63  109.29 
   1  -4  -8 1857.81  108.39 
  -1  -4   8 1846.32  109.99 
  -1  -4   8 2127.19  110.59 
   1  -4  -8 1931.71  107.89 
   1   4  -8 1739.53  112.99 
  -1   4   8 1758.32  111.89 
  -1   4   8 1916.01  109.29 
   0  -4  -8  860.51   54.99 
   0  -4   8  898.91   54.79 
   0  -4  -8  993.40   53.59 
   0  -4  -8  951.60   53.29 
   0  -4   8  967.50   55.19 
   0   4  -8  801.42   57.29 
   0   4   8  751.52   57.79 
   0   4   8  877.11   54.79 
   0   4   8  794.12   55.49 
   0   4  -8  859.91   56.99 
   1  -4   8  605.44   40.10 
   1  -4   8  555.24   38.20 
  -1  -4  -8  681.13   37.90 
  -1  -4  -8  607.74   39.70 
  -1  -4  -8  621.84   39.00 
   1   4   8  619.94   40.00 
  -1   4  -8  539.95   41.30 
  -1   4  -8  587.44   41.00 
   1   4   8  572.34   41.30 
   1   4   8  607.04   42.00 
   2  -4   8  184.78   17.60 
  -2  -4  -8  208.18   16.70 
  -2  -4  -8  220.38   17.40 
   2   4   8  169.28   18.30 
   2   4   8  200.88   18.20 
   2   4   8  188.58   16.70 
  -2   4  -8  176.18   17.90 
  -2   4  -8  209.88   17.80 
   3  -4   8  506.55   34.50 
  -3  -4  -8  584.44   39.60 
  -3  -4  -8  577.74   40.50 
   3  -4   8  536.75   39.50 
  -3  -4  -8  592.34   37.30 
   3   4   8  515.05   37.90 
  -3   4  -8  536.05   37.70 
   3   4   8  565.14   39.70 
   3   4   8  491.35   40.40 
   4  -4   8   75.29    7.70 
  -4  -4  -8   78.59   11.00 
  -4  -4  -8   82.59    9.70 
   4  -4   8   55.99   11.60 
   4   4   8   58.79   10.30 
   4   4   8   70.19   14.10 
  -4   4  -8   74.39    9.50 
   4   4   8   83.59   10.80 
  -5  -4  -8   26.90    6.80 
  -5  -4  -8   26.70    5.60 
   5  -4   8   31.60    5.20 
   5  -4   8   27.00    7.80 
   5   4   8   22.80    8.50 
  -5   4  -8   34.40    6.80 
   5   4   8   19.30    6.50 
   5   4   8   18.80    6.40 
   6  -4   8    6.70    2.90 
   6  -4   8    8.40    5.00 
  -6  -4  -8    5.40    2.50 
  -6  -4  -8   -2.90    3.50 
   6   4   8    8.70    4.60 
   6   4   8   -1.90    4.30 
   6   4   8    5.20    5.30 
  -6   4  -8   14.40    3.50 
  -8  -5   8   56.69    9.40 
  -8  -5   8   57.89   13.20 
  -8  -5   8   47.80   10.70 
  -8   5   8   59.59   12.00 
  -8   5   8   74.49    8.30 
  -7  -5   8  251.47   25.50 
  -7  -5   8  246.88   21.00 
   7  -5  -8  253.17   20.70 
  -7  -5   8  236.28   21.50 
  -7  -5   8  227.28   23.70 
  -7   5   8  241.28   20.70 
  -7   5   8  282.37   19.80 
   6  -5  -8  148.19   14.80 
  -6  -5   8  169.18   15.70 
  -6  -5   8  128.29   14.80 
  -6  -5   8  146.09   18.50 
  -6  -5   8  161.88   17.90 
  -6   5   8  183.28   14.00 
  -6   5   8  146.09   14.80 
   5  -5  -8  210.98   18.20 
  -5  -5   8  192.08   19.40 
  -5  -5   8  195.58   18.00 
  -5  -5   8  199.78   21.30 
  -5  -5   8  157.38   16.10 
  -5   5   8  194.48   17.80 
  -5   5   8  215.18   15.60 
  -4  -5   8  132.39   15.30 
  -4  -5   8  156.18   13.80 
  -4  -5   8  149.88   18.20 
   4  -5  -8  151.18   15.00 
  -4  -5   8  149.39   14.80 
   4   5  -8  143.19   15.40 
  -4   5   8  144.99   15.40 
  -4   5   8  149.39   12.40 
  -3  -5   8  890.41   55.29 
   3  -5  -8  896.21   55.59 
  -3  -5   8  971.80   58.19 
  -3  -5   8  868.61   56.09 
   3  -5  -8  908.81   59.39 
  -3  -5   8  849.32   63.29 
   3   5  -8  885.01   60.19 
  -3   5   8  906.61   59.09 
  -2  -5   8  328.27   22.90 
   2  -5  -8  352.66   27.90 
   2  -5  -8  306.97   22.30 
  -2  -5   8  376.76   26.20 
   2  -5  -8  315.87   24.30 
  -2  -5   8  367.66   27.10 
  -2  -5   8  334.37   23.40 
   2   5  -8  369.66   29.30 
   2   5  -8  365.36   28.30 
  -2   5   8  367.76   27.70 
  -2   5   8  311.77   22.80 
  -2   5   8  376.96   24.60 
   1  -5  -8  116.79    9.50 
  -1  -5   8   96.29   10.80 
   1  -5  -8  108.29   10.90 
   1  -5  -8  107.79   12.80 
  -1  -5   8  119.79   11.90 
  -1   5   8  101.49   10.60 
  -1   5   8   81.39   11.60 
   1   5  -8  104.19   12.60 
  -1   5   8   85.79    9.90 
   1   5  -8   90.39   12.40 
   0  -5   8  273.47   20.60 
   0  -5  -8  266.77   23.60 
   0  -5  -8  300.17   19.10 
   0  -5   8  284.47   21.10 
   0  -5  -8  279.27   21.30 
   0   5  -8  250.47   22.60 
   0   5   8  260.77   23.10 
   0   5   8  242.88   20.90 
   0   5   8  266.57   22.00 
   0   5  -8  239.38   22.70 
  -1  -5  -8  910.61   58.09 
   1  -5   8  850.91   53.69 
  -1  -5  -8  880.91   52.69 
   1  -5   8  887.31   53.19 
  -1  -5  -8  911.51   54.69 
  -1   5  -8  806.92   55.89 
  -1   5  -8  805.22   55.59 
   1   5   8  748.93   54.79 
   1   5   8  843.52   54.39 
   1   5   8  710.53   63.99 
  -2  -5  -8   64.29    8.70 
  -2  -5  -8   57.29   10.40 
  -2  -5  -8   82.09    9.00 
   2  -5   8   48.80    9.30 
  -2   5  -8   68.69    9.10 
   2   5   8   64.99   11.10 
  -2   5  -8   38.70    9.50 
   2   5   8   53.69    8.40 
   2   5   8   61.49   10.10 
  -3  -5  -8   97.39   13.00 
   3  -5   8   73.69   15.90 
   3  -5   8   91.19    9.40 
  -3  -5  -8   95.79   10.80 
   3   5   8  111.89   13.40 
  -3   5  -8   89.89   11.90 
   3   5   8   96.69   12.20 
   3   5   8   95.69   13.50 
   4  -5   8   48.30   10.30 
   4  -5   8   44.90    6.50 
  -4  -5  -8   48.70   10.90 
  -4  -5  -8   56.29    8.90 
  -4   5  -8   55.29    9.20 
   4   5   8   56.99   10.60 
   4   5   8   47.90   11.30 
   4   5   8   54.69   11.00 
   5  -5   8   37.40    9.40 
  -5  -5  -8   46.40    9.70 
  -5  -5  -8   57.69    9.70 
   5  -5   8   64.39    6.90 
  -5  -5  -8   38.70   10.70 
  -5   5  -8   52.29    9.10 
   5   5   8   57.69   11.60 
  -6  -5  -8   20.00    6.60 
   6  -5   8   13.80    6.90 
  -6  -5  -8   13.80    7.10 
   6   5   8   16.60    7.10 
  -6   5  -8   10.70    4.50 
   6   5   8   15.20    7.40 
  -7  -6   8   70.99   14.50 
  -7  -6   8   61.39   10.20 
  -7  -6   8   65.19   12.10 
  -7  -6   8   77.79   14.80 
   7  -6  -8   63.49   11.20 
  -7   6   8   90.99    9.40 
  -7   6   8   78.99   10.20 
  -6  -6   8  403.06   34.60 
  -6  -6   8  396.26   30.50 
  -6  -6   8  345.77   29.00 
   6  -6  -8  361.96   30.00 
  -6  -6   8  366.46   32.90 
  -6   6   8  391.06   30.30 
  -6   6   8  436.96   27.30 
  -5  -6   8  297.77   24.10 
  -5  -6   8  280.07   27.00 
  -5  -6   8  303.47   27.20 
  -5  -6   8  237.28   21.50 
   5  -6  -8  275.57   24.20 
  -5   6   8  302.17   20.80 
  -5   6   8  257.37   23.40 
   4  -6  -8    9.40    4.10 
  -4  -6   8   15.80    8.40 
  -4  -6   8   14.30    4.50 
  -4  -6   8   31.90    7.30 
  -4  -6   8    8.10    4.00 
  -4  -6   8   17.70    6.10 
  -4   6   8   11.10    3.90 
  -4   6   8    8.30    4.40 
  -3  -6   8   43.50    9.80 
  -3  -6   8   32.10    6.40 
  -3  -6   8   34.30    6.10 
  -3  -6   8   28.50    6.60 
   3  -6  -8   29.40    7.10 
  -3  -6   8   33.70    9.70 
  -3   6   8   33.60    6.40 
  -3   6   8   30.70    7.60 
   2  -6  -8  369.76   32.00 
  -2  -6   8  403.46   32.20 
   2  -6  -8  391.16   31.20 
  -2  -6   8  393.76   29.10 
  -2  -6   8  410.36   29.70 
   2   6  -8  338.17   30.40 
  -2   6   8  388.16   27.20 
  -2   6   8  336.17   30.00 
  -1  -6   8  201.18   21.10 
  -1  -6   8  182.58   17.00 
   1  -6  -8  187.98   19.10 
   1  -6  -8  175.08   16.40 
  -1  -6   8  182.38   19.60 
   1   6  -8  178.48   18.70 
  -1   6   8  176.78   16.30 
  -1   6   8  191.38   19.10 
   0  -6  -8  165.98   11.90 
   0  -6  -8  142.19   16.50 
   0  -6   8  170.88   15.00 
   0  -6  -8  133.49   14.40 
   0  -6   8  145.69   13.60 
   0  -6   8  163.98   17.40 
   0   6   8  122.19   13.20 
   0   6   8  139.39   16.00 
   0   6   8  122.39   14.00 
   0   6  -8  129.29   15.60 
  -1  -6  -8  243.88   18.70 
  -1  -6  -8  247.68   23.30 
   1  -6   8  249.48   19.60 
  -1  -6  -8  244.68   20.80 
   1  -6   8  234.98   20.00 
   1   6   8  251.07   21.00 
   1   6   8  210.68   20.20 
  -1   6  -8  240.58   22.50 
   1   6   8  236.98   22.80 
   2  -6   8  100.09   14.80 
  -2  -6  -8  116.49   12.50 
  -2  -6  -8  112.89   14.90 
  -2  -6  -8  104.79   13.80 
  -2  -6  -8  119.89   12.90 
  -2   6  -8  137.09   15.00 
   2   6   8  119.79   13.60 
   2   6   8  106.29   17.10 
  -3  -6  -8   79.29   10.70 
   3  -6   8   84.69    9.50 
  -3  -6  -8   98.49   14.20 
   3  -6   8   86.49   12.00 
  -3  -6  -8   78.19   13.60 
   3   6   8  100.99   12.70 
   3   6   8  112.59   14.40 
  -3   6  -8   89.79   12.10 
  -4  -6  -8   32.20    9.90 
  -4  -6  -8   26.90    8.40 
   4  -6   8   29.60    5.50 
  -4  -6  -8   39.40    8.20 
   4  -6   8   37.40    9.10 
   4   6   8   40.00   10.10 
   4   6   8   39.10    9.20 
  -4   6  -8   45.80    8.40 
   5  -6   8   29.90    8.20 
  -5  -6  -8   33.10   10.50 
   5  -6   8   19.00    5.00 
  -5  -6  -8   25.70    8.40 
   5   6   8   21.50    8.00 
  -5   6  -8   36.20    7.10 
   5   6   8   21.10    7.40 
  -6  -7   8   14.80    5.60 
  -6  -7   8   23.80    9.10 
  -6  -7   8   28.10    6.20 
   6  -7  -8   28.30    8.40 
  -6   7   8   25.20    6.00 
  -6   7   8   30.40    6.60 
   5  -7  -8   65.49   12.10 
  -5  -7   8   49.90   10.60 
  -5  -7   8   46.50    8.70 
  -5  -7   8   73.29   14.60 
  -5  -7   8   45.00   10.10 
  -5   7   8   44.90    9.80 
  -5   7   8   62.69    8.10 
  -4  -7   8   23.50    5.80 
  -4  -7   8   13.70    5.70 
   4  -7  -8   15.70    7.00 
  -4  -7   8   10.60    7.70 
  -4  -7   8   12.40    7.20 
  -4   7   8    7.70    4.10 
  -4   7   8   23.10    5.90 
  -3  -7   8  130.49   12.00 
  -3  -7   8  119.49   14.30 
  -3  -7   8  114.89   11.60 
  -3  -7   8  142.49   17.60 
  -3  -7   8  113.29   16.00 
   3  -7  -8  107.89   15.30 
  -3   7   8  109.09   12.00 
  -3   7   8  125.19   14.80 
   3   7  -8  145.19   16.30 
  -2  -7   8  550.74   37.30 
  -2  -7   8  509.35   37.20 
  -2  -7   8  497.15   40.50 
   2  -7  -8  504.95   39.80 
   2   7  -8  486.95   39.80 
  -2   7   8  467.85   38.90 
  -2   7   8  503.45   35.30 
  -1  -7   8   98.49   11.50 
   1  -7  -8   81.09   14.10 
  -1  -7   8   85.99   11.30 
  -1   7   8   78.19   10.40 
   1   7  -8   83.79   14.40 
  -1   7   8   90.59   12.90 
   0  -7  -8  128.59   10.30 
   0  -7   8  118.99   13.40 
   0  -7  -8   83.69   14.90 
   0  -7   8  133.69   12.80 
   0  -7  -8  118.59   13.60 
   0  -7  -8  107.99   12.60 
   0   7   8  120.19   13.40 
   0   7   8  121.49   16.20 
   0   7  -8  151.78   16.60 
  -1  -7  -8  260.17   20.10 
   1  -7   8  252.57   21.50 
   1  -7   8  264.57   21.80 
  -1  -7  -8  274.57   26.40 
  -1  -7  -8  314.97   30.30 
  -1  -7  -8  272.67   23.50 
   1   7   8  272.17   23.10 
  -1   7  -8  247.88   24.30 
   1   7   8  233.68   24.90 
  -2  -7  -8   36.10    8.20 
  -2  -7  -8   27.60    6.70 
  -2  -7  -8   40.30    9.40 
   2  -7   8   35.60    8.40 
  -2  -7  -8   40.90    9.10 
  -2   7  -8   32.50    8.20 
   2   7   8   34.50    8.80 
   2   7   8   26.00    7.70 
  -3  -7  -8    2.60    5.10 
   3  -7   8   -1.00    3.20 
  -3  -7  -8   -2.40    3.50 
  -3  -7  -8    5.30    4.60 
   3  -7   8   -1.20    2.50 
   3   7   8   17.80    6.40 
  -3   7  -8    0.40    3.80 
  -4  -7  -8   22.50    8.30 
   4  -7   8   34.60    8.30 
  -4  -7  -8   52.49   12.60 
   4  -7   8   27.80    6.20 
   4   7   8   30.80    8.20 
  -4   7  -8   26.10    7.80 
   4   7   8   17.60    7.80 
  -5  -8   8   20.60    9.70 
  -5  -8   8   25.50    6.70 
  -5  -8   8    9.00    6.10 
  -5   8   8   17.40    5.70 
   4  -8  -8   17.90    6.80 
  -4  -8   8  -14.50    6.90 
  -4  -8   8    3.10    7.00 
  -4  -8   8    3.70    4.20 
  -4  -8   8    4.20    5.20 
  -4   8   8    9.50    4.40 
  -4   8   8   10.60    4.80 
  -3  -8   8   92.19   14.60 
  -3  -8   8   69.09    9.60 
  -3  -8   8   69.09   12.60 
  -3  -8   8  130.59   17.70 
  -3  -8   8   84.09   10.20 
   3  -8  -8  109.99   15.10 
  -3   8   8  100.79   13.90 
  -3   8   8   87.49   11.10 
  -2  -8   8   93.79   12.70 
   2  -8  -8   97.89   16.40 
  -2  -8   8   66.69   11.10 
  -2   8   8   75.59   10.30 
   2   8  -8   61.69   12.70 
  -2   8   8   62.09   11.80 
   1  -8  -8  130.49   19.00 
  -1  -8   8  153.18   17.10 
  -1  -8   8  196.68   16.60 
   1   8  -8  145.99   19.20 
  -1   8   8  157.68   18.70 
  -1   8   8  150.58   16.00 
   0  -8   8   80.69   11.10 
   0  -8   8   55.59    9.50 
   0  -8  -8   83.29    7.60 
   0  -8  -8   74.59    9.60 
   0  -8  -8   79.49   14.70 
   0   8   8   64.39   13.30 
   0   8   8   89.79   11.40 
   0   8  -8   71.39   13.60 
  -1  -8  -8   29.30    9.80 
  -1  -8  -8   34.90    8.90 
   1  -8   8   49.99    8.90 
  -1  -8  -8   45.00    6.90 
   1  -8   8   42.20    8.70 
   1   8   8   43.90   10.80 
   1   8   8   48.20   11.20 
  -1   8  -8   16.10    8.30 
  -2  -8  -8   10.10    5.60 
   2  -8   8    8.90    4.90 
  -2  -8  -8    9.90    5.20 
  -2  -8  -8    2.80    5.40 
  -2   8  -8   14.50    7.90 
   2   8   8    1.00    3.30 
   2   8   8   -4.10    5.30 
  -3  -8  -8   26.30    8.50 
  -3  -8  -8   32.30   10.00 
   3  -8   8   17.30    6.50 
   3   8   8   12.30    6.20 
   3   8   8   14.70    8.30 
   2  -9  -8   88.39   16.50 
  -2  -9   8   91.19   14.90 
  -2   9   8   97.79   16.70 
  -2   9   8   99.59   13.00 
  -1  -9   8   12.10    5.30 
   1  -9  -8    6.00    7.50 
  -1  -9   8    9.80    5.20 
  -1   9   8    2.10    4.20 
  -1   9   8   -9.80    5.10 
   0  -9   8  143.29   16.60 
   0  -9   8  137.09   14.50 
   0  -9  -8  130.49   21.30 
   0   9   8  135.99   18.40 
   0   9   8  122.19   15.40 
  -9   0   9    3.30    5.30 
  -9   0   9   -0.20    3.80 
  -9   0   9    1.80    2.00 
  -8   0   9   71.09   11.90 
  -8   0   9   58.69    7.00 
  -8   0   9   48.20   11.00 
  -7   0   9  251.87   21.60 
  -7   0   9  273.37   19.40 
   6   0  -9  800.62   60.39 
  -6   0   9  906.71   59.39 
  -6   0   9  986.50   55.69 
  -6   0   9  906.71   57.19 
   5   0  -9  682.03   55.29 
  -5   0   9  718.63   49.50 
  -5   0   9  775.82   45.90 
   5   0  -9  721.23   46.30 
  -5   0   9  722.53   48.70 
  -5   0   9  743.03   46.70 
  -4   0   9 5240.58  300.57 
  -4   0   9 5566.14  299.47 
   4   0  -9 5200.18  299.77 
  -4   0   9 5302.97  299.07 
   4   0  -9 4980.50  302.77 
  -3   0   9  205.88   15.20 
   3   0  -9  160.68   15.50 
   3   0  -9  207.98   18.10 
   3   0  -9  190.38   15.50 
  -3   0   9  219.38   15.90 
  -3   0   9  245.38   17.30 
   2   0  -9    5.20    3.30 
   2   0  -9    4.30    2.10 
  -2   0   9    6.20    2.40 
   2   0  -9   12.90    5.20 
  -2   0   9   15.60    4.30 
  -2   0   9    7.10    2.50 
   1   0  -9    9.40    5.80 
  -1   0   9   18.20    4.70 
  -1   0   9   14.70    2.90 
  -1   0   9   11.20    3.40 
   1   0  -9   16.00    4.20 
   1   0  -9   17.20    3.80 
   0   0  -9  382.66   26.30 
   0   0   9  378.16   26.40 
   0   0  -9  445.06   28.30 
   0   0   9  373.46   27.90 
   0   0   9  407.06   24.90 
   0   0  -9  381.26   25.20 
   1   0   9    6.50    2.60 
  -1   0  -9    3.20    2.30 
  -1   0  -9    4.90    3.40 
   1   0   9   10.30    2.80 
   1   0   9   10.60    4.60 
  -1   0  -9    3.60    2.20 
   2   0   9 1965.40  124.09 
   2   0   9 1999.10  128.29 
  -2   0  -9 2073.69  123.59 
  -2   0  -9 2372.36  121.59 
  -2   0  -9 2395.36  125.39 
   2   0   9 1925.81  122.79 
  -3   0  -9   42.60    4.80 
   3   0   9   40.40    7.00 
  -3   0  -9   41.90    5.80 
   3   0   9   35.70    6.30 
   3   0   9   36.90   10.00 
  -4   0  -9  450.35   30.40 
   4   0   9  437.86   31.30 
   4   0   9  461.65   31.90 
  -4   0  -9  499.05   28.90 
   4   0   9  432.46   37.10 
   5   0   9  132.09   17.90 
  -5   0  -9  142.59   10.90 
   5   0   9  122.39   12.70 
   5   0   9  127.89   13.00 
  -5   0  -9  134.69   11.70 
  -6   0  -9   28.00    5.30 
  -6   0  -9   27.80    5.30 
   6   0   9   42.60    8.80 
   6   0   9   26.90    9.30 
   6   0   9   29.30    6.20 
   7   0   9   19.20    8.30 
  -7   0  -9   20.20    4.20 
   7   0   9   27.70    8.90 
   7   0   9   32.30    7.80 
  -9  -1   9  174.78   20.00 
  -9  -1   9  187.88   14.40 
  -9  -1   9  181.58   18.30 
  -9   1   9  171.78   17.60 
  -9   1   9  166.48   13.90 
  -9   1   9  156.68   18.50 
  -8  -1   9  324.97   22.50 
  -8  -1   9  306.07   25.80 
  -8  -1   9  335.87   29.00 
  -8   1   9  338.87   26.10 
  -8   1   9  283.87   22.10 
  -8   1   9  323.97   27.10 
  -7  -1   9   16.00    4.10 
   7  -1  -9   24.20    6.90 
  -7  -1   9   20.30    7.00 
  -7  -1   9   19.00    7.20 
  -7   1   9   21.50    7.50 
  -7   1   9   12.50    5.60 
  -7   1   9   15.90    4.10 
  -6  -1   9  413.06   30.40 
  -6  -1   9  447.86   28.80 
  -6  -1   9  442.56   33.50 
  -6   1   9  419.76   29.80 
  -6   1   9  400.86   31.20 
  -6   1   9  423.66   28.50 
  -5  -1   9  372.76   24.20 
   5  -1  -9  309.67   26.60 
   5  -1  -9  316.57   26.70 
  -5  -1   9  324.57   27.80 
   5  -1  -9  336.07   23.90 
  -5  -1   9  339.47   25.00 
  -5  -1   9  320.07   26.60 
   5   1  -9  333.67   28.30 
  -5   1   9  364.96   24.70 
   5   1  -9  370.66   25.50 
  -5   1   9  348.37   26.20 
  -5   1   9  354.26   24.00 
  -4  -1   9 3841.42  217.28 
  -4  -1   9 3696.13  219.38 
   4  -1  -9 3349.96  218.08 
   4  -1  -9 3587.24  219.78 
  -4  -1   9 4085.59  217.38 
  -4  -1   9 3781.82  220.18 
   4   1  -9 3760.12  218.38 
  -4   1   9 3935.51  216.68 
  -4   1   9 3689.43  217.08 
  -4   1   9 4171.88  217.78 
  -3  -1   9   52.99    9.20 
  -3  -1   9   45.80    6.30 
   3  -1  -9   46.40    7.50 
   3  -1  -9   47.90    6.00 
  -3  -1   9   44.20    6.90 
   3  -1  -9   54.49    8.90 
   3   1  -9   55.79   10.20 
  -3   1   9   43.80    6.10 
   3   1  -9   45.70    6.40 
  -3   1   9   42.50    6.80 
  -3   1   9   56.59    7.10 
   3   1  -9   40.40    6.00 
   2  -1  -9   34.80    6.30 
   2  -1  -9   40.40    8.30 
  -2  -1   9   40.00    6.80 
  -2  -1   9   39.20    6.10 
   2  -1  -9   33.50    4.70 
  -2  -1   9   31.00    4.80 
   2   1  -9   21.40    4.70 
   2   1  -9   32.70    7.50 
   2   1  -9   35.10    5.80 
  -2   1   9   29.40    5.40 
  -2   1   9   37.10    5.40 
  -2   1   9   38.00    4.60 
   1  -1  -9  108.49   12.50 
  -1  -1   9  116.29   10.50 
   1  -1  -9  106.89    9.70 
  -1  -1   9  100.29    9.70 
  -1  -1   9  127.29    8.50 
   1  -1  -9  108.09    9.90 
   1   1  -9   84.39    9.10 
  -1   1   9  114.99   10.50 
  -1   1   9  107.79   10.60 
  -1   1   9  116.59    9.00 
   1   1  -9   78.09   13.30 
   1   1  -9  121.99   13.90 
   0  -1   9  186.88   13.10 
   0  -1   9  214.58   16.90 
   0  -1   9  200.78   15.20 
   0  -1  -9  192.58   14.10 
   0  -1  -9  223.68   16.30 
   0  -1  -9  207.28   15.20 
   0   1   9  186.68   15.60 
   0   1  -9  183.08   13.90 
   0   1   9  202.48   14.30 
   0   1  -9  195.28   17.50 
   0   1   9  191.18   16.80 
   0   1  -9  172.98   15.00 
  -1  -1  -9   91.59    9.10 
   1  -1   9   67.69    7.90 
   1  -1   9   73.69   10.10 
  -1  -1  -9   87.19    7.30 
  -1  -1  -9   68.49    7.70 
   1  -1   9   75.99    6.80 
   1   1   9   86.19    8.20 
   1   1   9   79.99    8.80 
  -1   1  -9   76.99    7.20 
   1   1   9   80.69   10.60 
  -1   1  -9   74.79    8.10 
  -2  -1  -9  930.91   53.59 
  -2  -1  -9  952.10   50.29 
   2  -1   9  836.32   56.39 
  -2  -1  -9  764.32   51.59 
   2  -1   9  743.83   51.49 
   2   1   9  820.72   56.69 
  -2   1  -9  850.81   52.39 
  -2   1  -9  942.91   53.39 
   2   1   9  779.92   53.09 
   2   1   9  793.42   51.79 
   3  -1   9  490.95   32.30 
  -3  -1  -9  473.25   31.80 
   3  -1   9  472.35   37.30 
  -3  -1  -9  558.64   30.70 
   3   1   9  473.35   32.60 
   3   1   9  444.16   37.10 
  -3   1  -9  449.06   32.30 
  -4  -1  -9  263.27   19.00 
   4  -1   9  254.47   19.50 
   4  -1   9  259.77   25.30 
   4   1   9  242.98   25.20 
   4   1   9  269.07   20.70 
  -4   1  -9  246.88   19.10 
   4   1   9  248.28   20.90 
   5  -1   9   27.50    8.30 
  -5  -1  -9   33.50    5.50 
   5  -1   9   26.40    5.60 
  -5  -1  -9   18.50    4.40 
   5   1   9   12.60    7.10 
  -5   1  -9   24.80    5.20 
   5   1   9   34.60    7.70 
   5   1   9   27.70    5.40 
  -6  -1  -9    0.80    2.30 
   6  -1   9   10.50    6.70 
   6  -1   9    2.80    3.30 
   6   1   9    6.40    4.40 
   6   1   9    1.90    6.50 
   6   1   9   11.50    4.10 
   7  -1   9   30.60    7.10 
  -7  -1  -9   26.40    4.80 
   7  -1   9   15.20    8.50 
  -7   1  -9   30.60    5.60 
   7   1   9   33.50    7.80 
   7   1   9   10.10    6.00 
   7   1   9   25.20   10.00 
  -9  -2   9   21.10    8.90 
  -9  -2   9   17.60    3.90 
  -9  -2   9    6.70    4.70 
  -9  -2   9   18.10    6.40 
  -9   2   9    3.10    5.30 
  -9   2   9   11.40    3.40 
  -9   2   9   16.40    7.20 
   8  -2  -9   40.90   12.00 
  -8  -2   9   37.40    6.20 
  -8  -2   9   27.30    8.00 
  -8  -2   9   42.30    9.20 
  -8   2   9   36.80    6.10 
  -8   2   9   30.00    7.20 
  -8   2   9   42.30    9.10 
   7  -2  -9  226.18   22.10 
  -7  -2   9  239.68   17.70 
  -7  -2   9  212.88   22.30 
  -7  -2   9  213.78   19.80 
  -7   2   9  220.58   19.00 
  -7   2   9  236.38   20.60 
  -7   2   9  221.68   17.60 
  -6  -2   9  423.76   33.70 
  -6  -2   9  386.86   30.00 
   6  -2  -9  415.86   32.30 
  -6  -2   9  455.75   28.80 
  -6   2   9  416.16   28.70 
  -6   2   9  402.36   29.00 
  -6   2   9  422.56   30.00 
  -5  -2   9  163.98   16.50 
   5  -2  -9  169.88   16.40 
  -5  -2   9  164.48   18.80 
  -5  -2   9  175.28   15.70 
  -5  -2   9  154.58   13.90 
  -5   2   9  164.68   14.40 
   5   2  -9  203.88   27.70 
   5   2  -9  171.48   15.70 
  -5   2   9  178.48   16.10 
  -5   2   9  182.18   15.40 
  -4  -2   9  464.75   29.20 
  -4  -2   9  432.96   29.30 
   4  -2  -9  376.86   29.80 
  -4  -2   9  424.96   32.60 
   4  -2  -9  435.96   28.30 
   4  -2  -9  397.56   30.10 
  -4  -2   9  404.66   30.70 
   4   2  -9  444.56   30.70 
  -4   2   9  476.05   28.50 
  -4   2   9  436.66   29.50 
   4   2  -9  389.06   32.50 
   3  -2  -9 1608.74   94.89 
  -3  -2   9 1644.84   95.49 
  -3  -2   9 1589.34   96.89 
  -3  -2   9 1642.84   97.39 
   3  -2  -9 1539.05   96.39 
  -3  -2   9 1592.74   94.59 
   3  -2  -9 1487.25   96.19 
  -3   2   9 1832.02   94.39 
  -3   2   9 1590.54   96.19 
  -3   2   9 1780.72   94.69 
   3   2  -9 1517.35   96.69 
   3   2  -9 1523.65   99.49 
   2  -2  -9  471.25   35.10 
  -2  -2   9  531.85   34.50 
   2  -2  -9  449.26   34.00 
  -2  -2   9  520.35   32.80 
  -2  -2   9  512.45   34.90 
  -2  -2   9  618.14   36.10 
   2  -2  -9  513.05   34.00 
  -2   2   9  543.15   35.60 
  -2   2   9  542.85   34.40 
   2   2  -9  534.45   35.80 
  -2   2   9  589.64   33.40 
   2   2  -9  566.84   40.70 
  -1  -2   9  566.34   34.80 
   1  -2  -9  540.05   34.10 
  -1  -2   9  605.74   32.20 
   1  -2  -9  522.25   35.10 
   1  -2  -9  516.65   34.20 
  -1   2   9  531.85   36.10 
  -1   2   9  515.25   35.30 
   1   2  -9  529.35   38.30 
   1   2  -9  479.55   33.00 
   0  -2  -9   92.89    9.20 
   0  -2  -9   89.29    8.20 
   0  -2  -9   81.49   11.20 
   0  -2   9   94.29   10.00 
   0  -2   9   82.19    8.40 
   0   2   9   82.99   10.10 
   0   2   9   78.99    9.40 
   0   2   9   82.79    8.30 
   0   2  -9   87.29    9.40 
   1  -2   9  141.49   15.30 
  -1  -2  -9  188.18   14.50 
  -1  -2  -9  186.78   12.80 
  -1  -2  -9  152.38   13.50 
   1  -2   9  167.98   13.60 
  -1   2  -9  178.78   14.80 
  -1   2  -9  185.28   16.70 
   1   2   9  168.08   15.20 
   1   2   9  156.68   16.20 
   1   2   9  172.68   14.00 
  -2  -2  -9 1752.22  100.99 
   2  -2   9 1643.54  103.59 
  -2  -2  -9 1820.72   98.19 
  -2  -2  -9 1749.53   99.89 
  -2   2  -9 1597.04  100.29 
   2   2   9 1601.84   99.99 
   2   2   9 1570.24  101.29 
  -2   2  -9 1900.71  101.39 
   2   2   9 1527.95  103.89 
  -3  -2  -9 1266.07   66.69 
   3  -2   9 1073.89   67.09 
  -3  -2  -9 1123.19   67.99 
   3   2   9 1062.59   69.99 
   3   2   9 1073.99   68.89 
   3   2   9 1091.69   73.99 
  -3   2  -9 1100.49   68.49 
  -4  -2  -9  139.99   12.80 
   4  -2   9  132.49   17.20 
   4  -2   9  136.89   12.50 
  -4  -2  -9  158.38   12.60 
  -4   2  -9  142.69   13.10 
   4   2   9  162.08   18.40 
   4   2   9  140.39   14.10 
   4   2   9  147.69   14.80 
  -5  -2  -9  270.67   20.50 
   5  -2   9  315.47   21.30 
   5  -2   9  278.27   27.40 
  -5   2  -9  273.97   21.10 
   5   2   9  254.07   22.50 
   5   2   9  253.47   27.20 
   5   2   9  273.77   23.10 
  -6  -2  -9   43.90    6.50 
   6  -2   9   30.90   10.20 
   6  -2   9   38.50    6.60 
   6   2   9   21.60   10.20 
  -6   2  -9   57.79    6.90 
   6   2   9   35.20    9.20 
   6   2   9   29.30    7.60 
  -7  -2  -9   41.10   10.60 
  -7  -2  -9   47.10    8.90 
   7   2   9   42.70   10.40 
   7   2   9   38.60   11.80 
   7   2   9   57.49   14.30 
  -7   2  -9   43.70    6.90 
  -9  -3   9  148.69   13.30 
  -9  -3   9  118.09   16.00 
  -9  -3   9  175.68   17.70 
  -9  -3   9  147.49   19.30 
  -9   3   9  157.98   15.70 
  -9   3   9  153.38   13.60 
  -9   3   9  136.09   19.90 
  -8  -3   9   72.79    9.20 
  -8  -3   9   80.59   13.80 
   8  -3  -9   92.29    9.60 
  -8  -3   9   93.99   14.00 
  -8   3   9   81.89   11.70 
  -8   3   9   85.29    9.20 
  -8   3   9   92.09   11.40 
  -8   3   9   80.69   12.30 
  -7  -3   9   17.20    7.30 
  -7  -3   9   17.20    4.30 
   7  -3  -9   17.30    5.90 
  -7  -3   9   23.30    7.30 
  -7   3   9   22.90    6.10 
  -7   3   9   16.60    4.10 
  -7   3   9   18.60    6.10 
  -6  -3   9  235.68   23.40 
  -6  -3   9  240.38   18.40 
  -6  -3   9  214.88   19.40 
   6  -3  -9  206.68   19.50 
  -6   3   9  226.98   18.30 
  -6   3   9  244.88   17.80 
  -6   3   9  217.38   17.90 
  -5  -3   9  878.21   51.69 
  -5  -3   9  731.03   54.89 
   5  -3  -9  793.12   52.49 
  -5  -3   9  770.62   51.59 
  -5  -3   9  779.62   53.59 
  -5   3   9  916.11   50.49 
  -5   3   9  772.52   53.49 
  -4  -3   9 1003.00   65.99 
  -4  -3   9 1049.09   64.49 
   4  -3  -9 1014.90   63.09 
  -4  -3   9 1006.00   63.99 
   4  -3  -9 1031.90   64.89 
  -4  -3   9 1021.70   67.59 
  -4   3   9 1172.78   63.19 
   4   3  -9  978.10   67.19 
  -4   3   9 1115.29   62.29 
  -4   3   9 1046.30   65.19 
   3  -3  -9  219.78   20.10 
  -3  -3   9  255.57   20.00 
  -3  -3   9  239.88   18.80 
  -3  -3   9  236.58   18.40 
  -3  -3   9  257.47   22.20 
   3  -3  -9  224.28   19.10 
   3  -3  -9  238.38   18.80 
  -3   3   9  273.77   18.20 
   3   3  -9  262.17   21.00 
  -3   3   9  285.77   18.10 
  -3   3   9  249.38   20.10 
   3   3  -9  244.28   22.50 
  -2  -3   9   18.60    5.80 
   2  -3  -9   20.10    6.00 
  -2  -3   9   17.60    4.30 
   2  -3  -9   13.90    4.70 
  -2  -3   9   25.10    5.60 
   2  -3  -9   12.10    3.70 
  -2  -3   9   23.20    4.60 
  -2   3   9   14.20    4.40 
  -2   3   9   26.60    5.20 
   2   3  -9   22.10    5.20 
  -2   3   9   15.30    4.60 
   2   3  -9   21.80    7.00 
  -1  -3   9 1207.48   64.69 
   1  -3  -9  999.90   62.49 
  -1  -3   9 1066.89   63.69 
   1  -3  -9 1068.19   63.19 
   1  -3  -9 1015.10   63.29 
  -1   3   9  943.71   63.89 
  -1   3   9 1077.69   62.89 
   1   3  -9  974.00   66.89 
   1   3  -9 1031.30   65.59 
  -1   3   9 1034.10   65.49 
   0  -3   9  730.83   47.50 
   0  -3  -9  759.42   48.10 
   0  -3   9  798.72   49.00 
   0  -3  -9  823.12   46.80 
   0   3  -9  681.53   50.69 
   0   3  -9  758.02   49.80 
   0   3   9  699.63   49.50 
   0   3   9  813.72   50.59 
   0   3   9  810.32   48.10 
  -1  -3  -9  113.79    9.50 
  -1  -3  -9  112.69   10.70 
   1  -3   9  113.29   12.30 
   1  -3   9  104.59   10.10 
  -1  -3  -9  113.99   10.90 
   1   3   9   95.19   12.20 
   1   3   9  100.39   10.80 
  -1   3  -9   91.19   13.70 
   1   3   9  100.39   12.00 
  -1   3  -9  131.49   12.20 
  -2  -3  -9  635.94   41.90 
   2  -3   9  600.54   44.50 
  -2  -3  -9  729.33   40.60 
  -2  -3  -9  671.13   43.10 
   2   3   9  653.93   42.80 
   2   3   9  620.04   46.00 
  -2   3  -9  678.83   43.50 
  -2   3  -9  604.24   49.50 
   2   3   9  625.74   44.30 
  -3  -3  -9  176.98   14.30 
   3  -3   9  162.58   13.10 
   3  -3   9  160.88   17.50 
   3   3   9  136.29   15.10 
   3   3   9  138.69   14.50 
  -3   3  -9  158.38   14.60 
   4  -3   9  126.19   15.70 
  -4  -3  -9  105.89   11.00 
   4  -3   9  109.59   10.10 
   4   3   9  100.39   15.30 
  -4   3  -9  113.79   11.80 
   4   3   9  103.49   12.40 
  -5  -3  -9   32.60    6.40 
   5  -3   9   35.70    5.80 
   5  -3   9   36.70   10.20 
   5   3   9   28.60    7.70 
   5   3   9   39.70    8.40 
   5   3   9   19.20    7.90 
  -5   3  -9   32.10    6.10 
   6  -3   9   98.09    9.90 
  -6  -3  -9   85.39   10.00 
   6  -3   9   69.39   14.40 
  -6  -3  -9  107.59   13.50 
   6   3   9  131.99   28.60 
   6   3   9   94.89   12.80 
  -6   3  -9  108.89   11.10 
   6   3   9  112.39   13.90 
  -8  -4   9   39.90    9.00 
  -8  -4   9   47.20   11.50 
  -8  -4   9   45.30   11.20 
  -8  -4   9   47.00   11.40 
  -8   4   9   36.00    7.60 
  -8   4   9   35.20    6.80 
  -8   4   9   32.40    6.40 
  -7  -4   9   64.19   11.20 
  -7  -4   9   48.50   10.20 
  -7  -4   9   78.79   15.40 
   7  -4  -9   89.89   10.50 
  -7  -4   9   76.99    9.90 
  -7   4   9   80.99    8.70 
  -7   4   9   90.79    8.80 
  -7   4   9   81.29    9.80 
  -7   4   9   90.99   10.10 
   6  -4  -9  155.38   15.50 
  -6  -4   9  159.88   15.90 
  -6  -4   9  153.08   15.00 
   6  -4  -9  147.59   14.70 
  -6  -4   9  155.98   19.50 
  -6   4   9  206.08   15.00 
  -6   4   9  169.18   15.70 
  -5  -4   9  217.08   18.70 
  -5  -4   9  232.58   23.40 
   5  -4  -9  218.88   18.10 
  -5  -4   9  218.18   19.10 
  -5   4   9  224.58   19.40 
  -5   4   9  254.87   17.70 
  -5   4   9  228.58   15.80 
  -4  -4   9  137.89   17.10 
   4  -4  -9  111.99   15.10 
  -4  -4   9  121.49   12.30 
  -4  -4   9  136.69   12.80 
  -4   4   9  156.88   11.80 
  -4   4   9  107.29   10.10 
  -4   4   9  129.09   13.30 
   4   4  -9  127.49   14.10 
  -3  -4   9  492.15   36.70 
  -3  -4   9  509.65   34.10 
  -3  -4   9  507.65   34.10 
  -3  -4   9  512.75   32.60 
   3  -4  -9  473.05   32.20 
   3  -4  -9  506.45   32.70 
  -3   4   9  473.95   35.10 
   3   4  -9  483.35   35.90 
  -3   4   9  539.35   34.10 
  -3   4   9  451.75   31.50 
   2  -4  -9  919.21   60.49 
  -2  -4   9  981.40   61.09 
  -2  -4   9 1009.90   59.49 
  -2  -4   9 1025.90   62.39 
  -2  -4   9 1156.48   63.79 
   2  -4  -9 1023.20   61.79 
   2   4  -9 1013.20   66.79 
  -2   4   9  900.31   61.09 
   2   4  -9 1000.40   64.79 
  -2   4   9 1001.30   64.29 
   1  -4  -9  284.57   20.80 
   1  -4  -9  319.87   21.10 
   1  -4  -9  274.37   21.50 
  -1  -4   9  355.56   22.90 
  -1  -4   9  297.57   21.90 
   1   4  -9  263.47   23.30 
  -1   4   9  270.07   23.50 
   1   4  -9  289.07   25.10 
  -1   4   9  296.67   21.50 
  -1   4   9  255.67   21.60 
   0  -4   9  425.36   28.20 
   0  -4   9  373.86   26.90 
   0  -4  -9  364.06   27.20 
   0  -4  -9  435.76   28.00 
   0   4  -9  409.66   29.80 
   0   4   9  390.16   27.50 
   0   4   9  371.76   29.60 
   0   4  -9  378.56   30.70 
   0   4   9  345.37   28.30 
  -1  -4  -9 1266.97   70.39 
  -1  -4  -9 1178.58   70.89 
   1  -4   9 1185.98   72.19 
   1  -4   9 1074.59   69.49 
   1   4   9 1210.38   71.59 
  -1   4  -9  955.50   79.09 
   1   4   9 1055.69   72.99 
   1   4   9 1183.68   73.99 
  -1   4  -9 1221.88   73.49 
  -2  -4  -9  577.64   38.20 
  -2  -4  -9  641.54   39.40 
   2   4   9  532.85   41.40 
   2   4   9  539.45   40.60 
   2   4   9  575.74   39.20 
  -2   4  -9  529.75   39.40 
   3  -4   9  138.39   16.80 
  -3  -4  -9  152.28   14.20 
   3  -4   9  148.59   12.90 
  -3   4  -9  150.58   15.20 
   3   4   9  161.58   15.90 
   3   4   9  165.38   18.40 
   3   4   9  163.88   16.80 
   4  -4   9    9.30    5.20 
  -4  -4  -9   15.00    5.40 
   4  -4   9    4.80    3.20 
  -4  -4  -9    4.70    2.80 
   4   4   9    9.20    6.40 
   4   4   9   10.60    4.80 
  -4   4  -9   11.60    4.10 
   4   4   9    8.30    4.90 
  -5  -4  -9    2.80    3.70 
  -5  -4  -9    6.60    3.40 
   5  -4   9   11.40    3.90 
   5  -4   9   19.70    7.40 
   5   4   9    3.50    4.40 
   5   4   9   17.70    5.60 
   5   4   9    9.00    4.50 
  -5   4  -9   11.80    4.60 
  -6  -4  -9   27.10    7.00 
   6  -4   9   46.60   10.90 
  -6  -4  -9   30.30    7.50 
   6  -4   9   22.70    5.10 
   6   4   9   23.30    7.60 
   6   4   9   30.00    9.30 
   6   4   9   20.30    9.40 
  -6   4  -9   19.30    5.60 
  -8  -5   9  233.98   23.50 
  -8  -5   9  271.47   28.30 
  -8  -5   9  268.67   22.70 
  -8   5   9  256.97   22.20 
  -8   5   9  325.97   22.20 
   7  -5  -9   62.79    9.90 
  -7  -5   9   49.50    8.90 
  -7  -5   9   69.29   10.10 
  -7  -5   9   59.79   13.40 
  -7  -5   9   51.99   16.90 
  -7   5   9   61.99   10.10 
  -7   5   9   62.59    8.40 
   6  -5  -9   40.20    8.70 
  -6  -5   9   36.40    8.10 
  -6  -5   9   36.80    7.70 
  -6  -5   9   49.99    8.40 
  -6  -5   9   55.19   12.90 
  -6   5   9   53.99    7.60 
  -6   5   9   35.80    7.60 
  -5  -5   9  492.95   34.30 
   5  -5  -9  451.65   34.80 
  -5  -5   9  446.66   37.80 
  -5   5   9  427.56   34.20 
  -5   5   9  524.55   31.80 
  -4  -5   9   27.00    6.50 
  -4  -5   9   17.60    8.20 
  -4  -5   9   25.50    6.00 
  -4  -5   9   35.70    6.70 
  -4   5   9   29.70    6.90 
   4   5  -9   43.00    9.20 
  -4   5   9   26.10    5.30 
  -3  -5   9  154.38   17.80 
  -3  -5   9  178.98   14.40 
   3  -5  -9  150.98   16.80 
  -3  -5   9  174.78   15.90 
  -3  -5   9  163.28   14.80 
  -3   5   9  158.98   12.90 
  -3   5   9  175.68   14.10 
  -3   5   9  168.78   16.80 
   3   5  -9  176.68   17.90 
  -2  -5   9   62.19    9.10 
  -2  -5   9   89.49   11.70 
   2  -5  -9   73.89    8.40 
   2  -5  -9   80.89    9.10 
   2   5  -9   59.29   10.80 
  -2   5   9   78.19    8.60 
  -2   5   9   73.69   10.20 
  -2   5   9   95.69    9.70 
  -1  -5   9  113.79   12.20 
   1  -5  -9  138.49   11.30 
   1  -5  -9  122.19   12.10 
   1   5  -9  129.59   14.40 
  -1   5   9  109.69   11.80 
  -1   5   9  104.89   13.50 
  -1   5   9  115.69   12.10 
   0  -5   9  250.77   21.10 
   0  -5  -9  327.97   20.30 
   0  -5  -9  251.07   21.40 
   0  -5   9  257.27   28.70 
   0   5  -9  268.57   23.70 
   0   5   9  292.07   22.40 
   0   5   9  270.77   22.50 
   0   5   9  270.97   24.20 
  -1  -5  -9  199.78   20.00 
   1  -5   9  155.88   16.70 
  -1  -5  -9  164.48   16.30 
   1  -5   9  197.58   15.80 
  -1  -5  -9  189.88   15.90 
   1   5   9  187.98   18.40 
   1   5   9  184.38   17.10 
  -1   5  -9  213.48   19.00 
   1   5   9  199.28   19.40 
  -2  -5  -9   29.70    8.00 
  -2  -5  -9   15.40    4.70 
   2  -5   9   10.90    5.50 
  -2  -5  -9   22.90    5.80 
   2   5   9   12.10    5.40 
   2   5   9   30.90    8.30 
  -2   5  -9   26.40    6.80 
   2   5   9   17.10    5.00 
   3  -5   9   25.60    7.20 
   3  -5   9   15.50    4.50 
  -3  -5  -9   33.70    7.60 
  -3  -5  -9   23.40    5.60 
   3   5   9   23.50    7.20 
   3   5   9   20.50    6.80 
   3   5   9   11.50    5.20 
   4  -5   9  202.48   15.80 
  -4  -5  -9  226.68   21.60 
   4  -5   9  189.18   20.10 
  -4  -5  -9  205.68   17.80 
   4   5   9  192.98   20.30 
   4   5   9  185.78   19.10 
   4   5   9  188.08   22.00 
  -4   5  -9  181.18   18.70 
   5  -5   9   11.60    6.80 
   5  -5   9   30.00    5.50 
  -5  -5  -9   32.80    7.40 
  -5  -5  -9   16.00    5.80 
   5   5   9   21.20    6.80 
  -5   5  -9   17.90    5.90 
   5   5   9   29.30   10.20 
   7  -6  -9  118.99   15.90 
  -7  -6   9  119.09   14.60 
  -7  -6   9  132.69   18.70 
  -7  -6   9   89.49   13.10 
  -7   6   9  127.99   12.60 
  -7   6   9  129.79   14.10 
  -6  -6   9  307.07   28.20 
  -6  -6   9  312.47   25.10 
  -6  -6   9  281.27   24.50 
  -6  -6   9  286.27   29.00 
   6  -6  -9  301.67   26.30 
  -6   6   9  316.87   22.50 
  -6   6   9  283.77   25.30 
  -5  -6   9   35.30    7.90 
   5  -6  -9   16.80    6.80 
  -5  -6   9   21.40    7.40 
  -5  -6   9   32.20   10.90 
  -5  -6   9   33.30    7.50 
  -5   6   9   22.90    6.30 
  -5   6   9   25.90    5.50 
  -4  -6   9   12.00    5.60 
  -4  -6   9    2.90    4.00 
  -4  -6   9    6.40    4.10 
  -4  -6   9    2.00    3.50 
  -4  -6   9    8.20    7.40 
  -4   6   9    6.60    4.80 
  -4   6   9    7.70    3.20 
  -3  -6   9   20.50    6.90 
  -3  -6   9   21.10    8.40 
  -3  -6   9   10.60    4.20 
  -3  -6   9   12.70    4.50 
   3  -6  -9    7.50    6.30 
  -3  -6   9   16.00    4.70 
   3   6  -9   11.00    6.00 
  -3   6   9   12.30    4.90 
  -3   6   9   11.70    4.80 
  -2  -6   9  107.39   16.60 
  -2  -6   9  125.69   13.90 
  -2  -6   9  111.79   12.20 
   2  -6  -9  108.19   13.90 
  -2   6   9   93.09   10.90 
   2   6  -9  100.19   13.70 
  -2   6   9   99.59   13.50 
  -1  -6   9  415.26   27.20 
  -1  -6   9  285.67   34.80 
   1  -6  -9  364.36   23.60 
   1  -6  -9  368.26   30.40 
   1  -6  -9  353.36   26.70 
  -1   6   9  332.77   26.20 
  -1   6   9  340.87   29.40 
  -1   6   9  295.77   24.90 
   1   6  -9  367.06   30.30 
   0  -6   9  296.67   24.30 
   0  -6  -9  313.77   28.20 
   0  -6   9  336.57   24.50 
   0  -6  -9  369.36   22.30 
   0   6   9  324.27   25.40 
   0   6   9  307.37   27.60 
   0   6   9  250.07   23.70 
   0   6  -9  276.17   36.40 
  -1  -6  -9  770.42   56.59 
  -1  -6  -9  809.72   55.89 
   1  -6   9  741.33   50.19 
  -1  -6  -9  804.22   51.29 
   1  -6   9  767.22   49.40 
   1   6   9  739.03   54.09 
   1   6   9  674.03   50.99 
   1   6   9  787.32   51.49 
  -1   6  -9  747.93   53.59 
  -2  -6  -9   79.39   11.50 
   2  -6   9   57.39   10.90 
  -2  -6  -9   58.89   12.30 
  -2   6  -9   48.60    9.90 
   2   6   9   65.09   12.50 
   2   6   9   41.90    8.90 
   2   6   9   66.69   12.30 
   3  -6   9  118.99   14.40 
   3  -6   9   97.99   11.20 
  -3  -6  -9  133.29   13.80 
  -3  -6  -9  127.19   16.20 
  -3  -6  -9  140.39   16.50 
   3   6   9  126.69   14.70 
  -3   6  -9  119.79   15.10 
   3   6   9  101.49   15.10 
   4  -6   9   32.80    8.40 
  -4  -6  -9   33.90    9.00 
  -4  -6  -9   32.00    7.10 
  -4  -6  -9   29.90    8.30 
   4  -6   9   19.80    7.40 
   4   6   9   21.70    7.40 
  -4   6  -9   32.20    8.00 
  -5  -6  -9   50.49   13.20 
   5  -6   9   51.89   10.80 
  -5   6  -9   60.59   12.00 
   5   6   9   40.80   10.00 
  -6  -7   9   -0.30    3.40 
  -6  -7   9   12.70    8.10 
  -6  -7   9    5.70    4.90 
  -6   7   9    4.40    3.40 
  -6   7   9    5.50    4.50 
  -5  -7   9  112.69   15.30 
  -5  -7   9   75.19   10.70 
  -5  -7   9   60.49   16.00 
  -5  -7   9   86.99   11.40 
   5  -7  -9   51.89   12.20 
  -5   7   9   66.99   11.70 
  -5   7   9   64.09    8.70 
  -4  -7   9   94.39   15.50 
  -4  -7   9   90.09   12.10 
  -4  -7   9   85.89   14.80 
  -4  -7   9   93.49   10.90 
  -4   7   9  101.99   13.40 
  -4   7   9   88.79   10.50 
  -3  -7   9   23.40    6.20 
  -3  -7   9   32.50    6.10 
  -3  -7   9   32.60    5.90 
  -3  -7   9   25.60    8.50 
  -3  -7   9   22.00    8.10 
   3  -7  -9   35.80    8.30 
  -3   7   9   19.90    6.50 
   3   7  -9   24.90    7.90 
  -3   7   9   24.60    6.60 
  -2  -7   9   82.09   11.50 
  -2  -7   9   69.29   11.70 
   2  -7  -9   54.59   11.50 
  -2  -7   9   76.49   14.40 
  -2   7   9   71.59   13.00 
   2   7  -9   59.49   12.10 
  -2   7   9   61.59    9.50 
   1  -7  -9  139.19   18.60 
   1  -7  -9  152.68   12.90 
  -1  -7   9  144.09   15.90 
  -1  -7   9  193.78   16.30 
   1  -7  -9  163.78   14.20 
  -1   7   9  137.29   17.60 
  -1   7   9  158.58   15.80 
   1   7  -9  163.18   18.60 
   0  -7   9  416.36   31.00 
   0  -7  -9  477.15   37.60 
   0  -7  -9  414.46   31.60 
   0  -7  -9  429.26   36.30 
   0  -7   9  404.76   31.70 
   0   7   9  437.16   36.00 
   0   7   9  400.16   32.00 
   0   7  -9  453.25   35.50 
   1  -7   9  110.59   13.00 
  -1  -7  -9   98.69   16.80 
   1  -7   9   91.49   12.10 
  -1  -7  -9  108.49   11.30 
  -1  -7  -9  125.29   14.60 
  -1  -7  -9  106.99   13.80 
   1   7   9  114.69   13.70 
  -1   7  -9  122.89   14.20 
   1   7   9  115.19   15.70 
  -2  -7  -9    6.30    5.20 
  -2  -7  -9   24.40    6.10 
   2  -7   9   15.60    6.10 
   2   7   9   14.70    7.50 
  -2   7  -9   23.60    6.60 
   2   7   9   11.50    5.80 
   3  -7   9   14.80    6.30 
  -3  -7  -9   16.70    7.30 
  -3  -7  -9   19.20    6.70 
  -3  -7  -9   17.70    6.80 
   3  -7   9   14.80    5.10 
   3   7   9   22.10    8.70 
   3   7   9   16.20    5.80 
  -4  -8   9   40.50    7.80 
  -4  -8   9   29.30   10.80 
  -4  -8   9   47.90    9.80 
  -4   8   9   45.80    8.60 
  -3  -8   9    4.60    6.10 
   3  -8  -9    4.20    7.80 
  -3  -8   9    6.40    5.60 
  -3   8   9   11.70    5.10 
   2  -8  -9  243.68   26.50 
  -2  -8   9  281.77   24.20 
   2   8  -9  263.67   27.90 
  -2   8   9  246.38   25.90 
  -1  -8   9   75.89   12.00 
  -1  -8   9   66.89   10.10 
   1  -8  -9   62.69   13.40 
  -1   8   9   57.69   12.30 
   1   8  -9   51.99   12.90 
   0  -8  -9  179.98   22.50 
   0  -8  -9  207.38   14.00 
   0  -8   9  166.38   16.70 
   0  -8  -9  151.98   15.80 
   0  -8   9  193.28   17.90 
   0   8   9  136.59   19.70 
   0   8   9  176.58   18.10 
   0   8  -9  142.29   18.50 
   1  -8   9  100.19   12.30 
  -1  -8  -9   99.19   17.20 
  -1  -8  -9  101.79   10.90 
   1  -8   9   89.29   12.30 
  -1  -8  -9   90.59   13.10 
   1   8   9   99.79   13.00 
   1   8   9   76.29   15.00 
   2  -8   9    9.40    5.30 
  -2  -8  -9    9.10    7.50 
  -2  -8  -9    5.10    6.30 
   2   8   9   10.60    6.30 
   2   8   9   -7.10    6.60 
  -9   0  10   -1.40    5.50 
  -9   0  10    0.50    1.90 
  -9   0  10    1.70    4.50 
  -8   0  10  174.38   19.70 
  -8   0  10  174.28   14.70 
  -8   0  10  173.18   17.40 
  -7   0  10  150.98   15.60 
  -7   0  10  123.69   17.10 
  -7   0  10  159.48   13.20 
  -6   0  10  116.79   12.60 
  -6   0  10  114.09   15.20 
  -6   0  10  119.29   11.30 
  -5   0  10  678.23   45.10 
   5   0 -10  593.44   46.20 
  -5   0  10  689.03   43.30 
  -5   0  10  691.03   42.70 
   4   0 -10   66.19    8.50 
  -4   0  10   89.59   11.90 
  -4   0  10   63.49    9.10 
   4   0 -10   71.39   10.90 
  -4   0  10   74.39    9.00 
   4   0 -10   78.09    9.40 
  -3   0  10  488.65   28.80 
   3   0 -10  432.16   32.40 
   3   0 -10  432.96   29.80 
   3   0 -10  389.66   29.70 
  -3   0  10  447.56   29.90 
  -2   0  10  572.04   34.50 
   2   0 -10  431.86   33.30 
   2   0 -10  521.35   34.20 
  -2   0  10  531.75   34.40 
   2   0 -10  489.45   36.50 
  -2   0  10  560.44   32.20 
   1   0 -10    2.20    5.60 
  -1   0  10    1.90    1.70 
   1   0 -10    2.20    2.70 
  -1   0  10    1.80    2.30 
   1   0 -10   -1.40    1.10 
  -1   0  10   -1.90    1.60 
   0   0 -10  443.76   30.80 
   0   0 -10  445.36   29.60 
   0   0  10  492.85   31.50 
   0   0  10  446.76   32.70 
   0   0 -10  485.65   32.90 
   0   0  10  473.85   29.20 
  -1   0 -10  276.97   18.50 
  -1   0 -10  322.17   21.80 
   1   0  10  247.28   20.20 
   1   0  10  258.17   22.90 
  -1   0 -10  263.97   19.90 
   1   0  10  268.77   18.90 
   2   0  10  341.87   29.70 
  -2   0 -10  360.86   25.80 
  -2   0 -10  405.66   23.80 
   2   0  10  362.66   25.10 
   2   0  10  368.46   26.50 
   3   0  10  166.48   14.90 
   3   0  10  176.08   20.00 
  -3   0 -10  174.58   14.90 
  -3   0 -10  218.58   13.50 
   4   0  10   32.20    6.70 
   4   0  10   31.80   10.20 
  -4   0 -10   35.70    6.20 
   4   0  10   39.70    7.00 
  -4   0 -10   43.40    5.20 
  -5   0 -10  135.79    9.80 
   5   0  10  102.79   11.80 
   5   0  10  101.99   18.80 
  -5   0 -10   98.59   10.40 
   5   0  10   96.39   11.70 
   6   0  10   25.00   13.10 
   6   0  10   12.10    5.00 
   6   0  10    9.30    5.40 
  -6   0 -10   18.70    4.10 
  -9  -1  10   42.30    8.70 
  -9  -1  10   30.70    9.20 
  -9  -1  10   28.30    5.40 
  -9   1  10   46.20   10.60 
  -9   1  10   27.20    5.40 
  -9   1  10   35.10    8.40 
  -8  -1  10   93.59    9.60 
  -8  -1  10   89.49   12.10 
  -8  -1  10   89.09   14.60 
  -8   1  10   87.59   11.90 
  -8   1  10   86.69   13.90 
  -8   1  10   73.19    8.60 
  -7  -1  10   35.50    8.20 
  -7  -1  10   26.60    5.50 
  -7  -1  10   28.00    9.00 
  -7   1  10   25.00    8.50 
  -7   1  10   17.80    6.50 
  -7   1  10   24.10    5.20 
  -6  -1  10  140.09   17.50 
  -6  -1  10  137.19   13.90 
  -6  -1  10  128.79   12.10 
   6  -1 -10  122.79   15.20 
  -6   1  10  135.09   12.20 
  -6   1  10  150.98   13.70 
  -6   1  10  119.19   14.90 
  -5  -1  10  505.55   32.70 
  -5  -1  10  463.25   35.60 
  -5  -1  10  470.65   33.10 
  -5   1  10  502.95   32.90 
  -5   1  10  529.25   34.20 
  -5   1  10  472.55   34.80 
   5   1 -10  437.36   42.10 
  -4  -1  10 1579.54   97.79 
   4  -1 -10 1443.96   95.99 
   4  -1 -10 1611.04   95.09 
  -4  -1  10 1601.04   94.59 
  -4  -1  10 1723.13   95.39 
  -4  -1  10 1728.53   97.49 
   4  -1 -10 1496.85   97.69 
   4   1 -10 1488.45   99.29 
  -4   1  10 1691.23   94.29 
   4   1 -10 1571.34   96.29 
  -4   1  10 1657.73   95.49 
  -3  -1  10  426.16   27.50 
   3  -1 -10  323.57   25.00 
  -3  -1  10  388.86   24.90 
   3  -1 -10  310.07   25.80 
   3  -1 -10  370.06   27.90 
  -3  -1  10  349.47   25.50 
  -3   1  10  355.46   25.90 
   3   1 -10  359.76   29.10 
   3   1 -10  387.56   26.90 
   3   1 -10  305.97   25.20 
  -3   1  10  445.46   26.10 
  -3   1  10  417.36   24.80 
  -2  -1  10   65.39    8.00 
   2  -1 -10   55.09    9.90 
  -2  -1  10   58.79    6.20 
   2  -1 -10   58.39    6.90 
  -2  -1  10   70.59    7.70 
   2  -1 -10   58.79    7.90 
  -2   1  10   53.99    7.40 
   2   1 -10   59.19    7.30 
  -2   1  10   54.69    7.30 
  -2   1  10   64.39    6.40 
   2   1 -10   64.49   11.30 
   2   1 -10   43.00    6.60 
  -1  -1  10  134.99    9.30 
  -1  -1  10  129.89   11.40 
   1  -1 -10  101.89   10.30 
   1  -1 -10  105.39   10.80 
  -1  -1  10  140.69   12.20 
   1  -1 -10  112.49   13.50 
  -1   1  10  112.69   12.10 
  -1   1  10  138.89   10.20 
   1   1 -10  131.09   11.60 
  -1   1  10  114.09   12.00 
   1   1 -10  104.89   10.40 
   1   1 -10   99.99   14.30 
   0  -1  10  165.58   12.00 
   0  -1  10  166.68   14.10 
   0  -1 -10  176.68   13.30 
   0  -1  10  159.18   15.30 
   0  -1 -10  148.99   17.20 
   0   1  10  173.78   13.20 
   0   1 -10  167.58   13.00 
   0   1 -10  172.98   14.40 
   0   1  10  162.58   16.00 
   0   1 -10  176.08   17.30 
   0   1  10  179.88   15.00 
   1  -1  10  329.17   27.30 
  -1  -1 -10  357.86   24.70 
   1  -1  10  355.66   22.90 
  -1  -1 -10  372.06   23.20 
   1  -1  10  349.27   24.70 
  -1   1 -10  334.77   25.50 
  -1   1 -10  357.96   25.10 
   1   1  10  343.67   24.00 
   1   1  10  357.86   28.30 
   1   1  10  379.46   26.00 
  -1   1 -10  339.37   22.70 
   2  -1  10   28.80    9.20 
  -2  -1 -10   25.30    5.00 
   2  -1  10   33.80    4.90 
  -2  -1 -10   36.50    4.90 
   2  -1  10   24.80    5.40 
  -2   1 -10   24.10    5.20 
   2   1  10   25.20    6.00 
   2   1  10   24.30    5.40 
   2   1  10   31.60    8.80 
   3  -1  10   37.10    6.40 
   3  -1  10   43.20   10.00 
  -3  -1 -10   47.60    6.40 
   3   1  10   24.50   10.60 
  -3   1 -10   42.20    6.90 
   3   1  10   35.50    9.40 
   3   1  10   42.10    7.70 
  -4  -1 -10  219.38   17.70 
   4  -1  10  226.58   24.10 
   4  -1  10  209.58   18.10 
   4   1  10  220.88   18.60 
   4   1  10  202.88   23.40 
   4   1  10  241.58   20.00 
  -4   1 -10  232.78   18.10 
   5  -1  10   13.40    4.90 
  -5  -1 -10   13.40    4.10 
   5  -1  10   19.50    7.70 
   5   1  10    4.40    4.20 
   5   1  10   11.90    5.20 
  -5   1 -10   13.50    3.40 
   5   1  10   11.50    6.50 
  -6  -1 -10   37.10    6.70 
   6  -1  10   38.80    7.70 
   6  -1  10   37.50   17.10 
   6   1  10   54.29    9.10 
  -6   1 -10   41.50    7.40 
   6   1  10   62.69    9.60 
   6   1  10   36.00   11.10 
  -9  -2  10    7.40    2.80 
  -9  -2  10    5.60    5.90 
  -9  -2  10    5.60    4.40 
  -9   2  10    7.10    2.70 
  -9   2  10    5.70    4.30 
  -9   2  10    3.30    6.40 
  -8  -2  10  181.38   20.50 
  -8  -2  10  164.38   16.90 
  -8  -2  10  158.08   14.10 
  -8   2  10  149.59   13.80 
  -8   2  10  152.08   27.10 
  -8   2  10  162.78   16.20 
   7  -2 -10  322.77   28.90 
  -7  -2  10  362.76   25.10 
  -7  -2  10  326.77   30.00 
  -7  -2  10  323.67   26.70 
  -7   2  10  374.16   26.30 
  -7   2  10  327.17   24.90 
  -7   2  10  347.07   26.90 
  -6  -2  10   10.70    5.30 
  -6  -2  10   29.50    5.80 
   6  -2 -10   19.60    6.30 
  -6  -2  10    5.90    6.80 
  -6   2  10   23.40    7.00 
  -6   2  10   16.50    5.10 
  -6   2  10   20.30    4.80 
  -5  -2  10  151.28   18.30 
  -5  -2  10  160.18   15.10 
   5  -2 -10  149.99   15.90 
  -5  -2  10  168.98   14.50 
  -5   2  10  190.08   14.80 
  -5   2  10  146.79   17.00 
  -5   2  10  178.38   14.50 
  -4  -2  10   44.70    7.40 
  -4  -2  10   44.10    7.80 
  -4  -2  10   60.79    9.10 
   4  -2 -10   47.60    8.70 
  -4  -2  10   48.50   10.40 
   4  -2 -10   49.30    6.30 
  -4   2  10   47.70    7.80 
  -4   2  10   52.99    7.00 
  -4   2  10   52.99    7.00 
   4   2 -10   47.00    8.50 
  -3  -2  10  132.29   13.60 
   3  -2 -10  133.69   12.20 
  -3  -2  10  143.49   12.00 
   3  -2 -10  128.89   13.30 
  -3  -2  10  149.09   12.70 
  -3  -2  10  150.38   15.10 
   3  -2 -10  122.69   13.10 
  -3   2  10  142.49   13.20 
   3   2 -10  120.39   12.80 
   3   2 -10  117.29   14.80 
  -3   2  10  146.59   11.40 
  -3   2  10  136.19   11.90 
   2  -2 -10  284.47   22.40 
  -2  -2  10  326.47   22.70 
   2  -2 -10  280.17   23.80 
  -2  -2  10  321.27   20.60 
  -2  -2  10  378.76   23.90 
   2  -2 -10  292.77   21.90 
   2   2 -10  288.57   25.70 
  -2   2  10  299.17   22.50 
  -2   2  10  334.57   21.30 
  -2   2  10  303.27   23.30 
   2   2 -10  308.87   23.70 
  -1  -2  10  117.69   10.50 
  -1  -2  10  121.79    8.20 
  -1  -2  10  104.39   10.90 
   1  -2 -10  104.89   12.30 
   1  -2 -10  101.29   11.00 
   1  -2 -10  101.79   10.00 
   1   2 -10   84.89    8.70 
  -1   2  10   97.79   11.00 
  -1   2  10  110.59    9.50 
   1   2 -10   85.09   10.50 
  -1   2  10  107.79   11.00 
   1   2 -10   90.89   13.30 
   0  -2  10  500.35   32.60 
   0  -2 -10  582.74   33.60 
   0  -2 -10  478.95   32.40 
   0  -2  10  476.95   34.00 
   0   2 -10  421.36   34.10 
   0   2  10  475.15   34.90 
   0   2  10  467.95   34.00 
   0   2  10  510.15   32.20 
   0   2 -10  492.15   33.80 
  -1  -2 -10  382.26   23.60 
  -1  -2 -10  332.37   24.70 
   1  -2  10  360.66   27.80 
   1  -2  10  323.37   24.40 
   1   2  10  351.96   28.40 
  -1   2 -10  365.76   26.10 
   1   2  10  366.96   25.10 
   1   2  10  339.27   26.50 
  -2  -2 -10 1472.15   76.19 
  -2  -2 -10 1305.47   77.89 
   2  -2  10 1185.48   77.09 
   2  -2  10 1221.78   81.99 
  -2   2 -10 1315.27   79.09 
   2   2  10 1221.68   82.79 
   2   2  10 1258.07   78.19 
   2   2  10 1308.77   80.29 
  -3  -2 -10   56.99    7.70 
   3  -2  10   53.99   12.20 
   3  -2  10   60.69    7.70 
  -3  -2 -10   71.09    7.40 
   3   2  10   60.29   10.20 
   3   2  10   73.09   11.90 
   3   2  10   61.49    8.50 
  -3   2 -10   54.19    9.40 
   4  -2  10  200.98   16.20 
  -4  -2 -10  193.28   15.90 
   4  -2  10  192.28   21.20 
   4   2  10  184.28   18.20 
  -4   2 -10  188.48   16.50 
   4   2  10  182.48   20.90 
  -5  -2 -10   60.09    7.60 
   5  -2  10   66.39    8.70 
   5  -2  10   58.09   13.10 
   5   2  10   67.49   11.90 
   5   2  10   60.59   14.50 
  -5   2 -10   55.89    8.00 
   5   2  10   55.89    9.70 
   6  -2  10  120.29   23.30 
   6  -2  10  159.48   17.20 
  -6  -2 -10  141.99   13.40 
   6   2  10  150.18   16.30 
   6   2  10  138.89   19.90 
   6   2  10  160.78   16.50 
  -6   2 -10  143.69   13.70 
  -8  -3  10   51.39   10.10 
  -8  -3  10   58.59   14.30 
   8  -3 -10   62.49   12.20 
  -8  -3  10   42.00    9.50 
  -8   3  10   63.49   10.50 
  -8   3  10   74.59   11.70 
  -8   3  10   45.80    8.20 
  -7  -3  10   14.60    4.70 
   7  -3 -10    3.90    5.50 
  -7  -3  10   13.90    5.50 
  -7  -3  10   11.20    6.90 
  -7   3  10   15.80    5.50 
  -7   3  10    7.40    4.60 
  -7   3  10    8.60    3.70 
  -6  -3  10  464.35   34.20 
  -6  -3  10  449.46   37.80 
  -6  -3  10  493.75   33.20 
   6  -3 -10  430.56   34.70 
  -6   3  10  516.65   32.70 
  -6   3  10  441.66   33.20 
  -6   3  10  535.25   31.90 
   5  -3 -10  712.93   50.39 
  -5  -3  10  718.33   52.89 
  -5  -3  10  766.02   49.20 
  -5  -3  10  741.23   49.40 
  -5   3  10  763.32   50.09 
  -5   3  10  885.21   48.50 
  -4  -3  10  310.07   25.10 
  -4  -3  10  316.57   23.70 
  -4  -3  10  321.07   27.10 
   4  -3 -10  299.77   24.00 
  -4  -3  10  321.27   23.40 
  -4   3  10  365.56   22.60 
  -4   3  10  318.77   24.70 
   4   3 -10  310.27   25.60 
  -4   3  10  315.37   22.00 
  -3  -3  10  551.44   38.90 
   3  -3 -10  568.94   37.50 
  -3  -3  10  629.14   38.80 
  -3  -3  10  574.04   36.90 
   3  -3 -10  538.85   38.30 
  -3  -3  10  680.33   43.50 
  -3   3  10  617.64   37.10 
  -3   3  10  558.14   39.60 
  -3   3  10  538.15   37.10 
  -2  -3  10  824.92   53.29 
   2  -3 -10  800.72   53.19 
  -2  -3  10  908.91   51.09 
   2  -3 -10  761.72   53.39 
   2  -3 -10  843.62   52.99 
  -2  -3  10  907.21   53.79 
  -2   3  10  833.32   53.49 
   2   3 -10  878.71   56.09 
  -2   3  10  866.21   55.59 
  -2   3  10  916.41   52.49 
   1  -3 -10  484.15   31.40 
  -1  -3  10  463.75   31.40 
   1  -3 -10  433.66   30.30 
   1  -3 -10  443.46   31.30 
  -1  -3  10  534.55   32.50 
  -1   3  10  449.06   33.10 
  -1   3  10  413.46   31.90 
   1   3 -10  463.55   33.10 
  -1   3  10  457.85   30.50 
   0  -3  10   57.79    7.30 
   0  -3 -10   66.49    7.30 
   0  -3 -10   78.69    8.50 
   0  -3  10   61.69    8.90 
   0  -3 -10   49.20    7.30 
   0   3 -10   77.69    9.00 
   0   3  10   43.10    8.50 
   0   3  10   57.29   10.70 
   0   3  10   68.19    8.40 
  -1  -3 -10  559.74   33.80 
  -1  -3 -10  536.25   32.20 
   1  -3  10  467.95   32.60 
  -1  -3 -10  516.65   33.70 
   1   3  10  463.25   33.40 
   1   3  10  452.25   36.10 
  -1   3 -10  466.25   34.70 
   1   3  10  475.45   35.50 
   2  -3  10  167.18   17.50 
  -2  -3 -10  170.78   14.80 
   2  -3  10  173.58   14.30 
   2   3  10  167.58   15.70 
  -2   3 -10  175.08   16.10 
   2   3  10  163.08   16.50 
   2   3  10  165.38   18.40 
  -3  -3 -10  191.68   15.70 
   3  -3  10  161.78   14.70 
   3  -3  10  188.48   19.70 
   3   3  10  174.18   19.60 
  -3   3 -10  177.58   17.30 
   3   3  10  171.08   17.50 
   3   3  10  176.18   16.60 
   4  -3  10  211.68   22.10 
   4  -3  10  186.18   16.00 
  -4  -3 -10  219.68   17.10 
   4   3  10  193.28   18.20 
   4   3  10  186.78   21.60 
  -4   3 -10  178.78   16.90 
   5  -3  10   53.19   12.00 
  -5  -3 -10   69.89    9.40 
   5  -3  10   55.39    8.10 
   5   3  10   59.69   11.20 
  -5   3 -10   72.69    8.90 
   5   3  10   55.59   10.50 
   5   3  10   51.19   11.90 
  -6  -3 -10    9.60    4.60 
   6  -3  10    7.60    4.10 
   6   3  10    7.10    4.50 
   6   3  10   16.50    7.40 
  -6   3 -10    3.00    3.50 
  -8  -4  10   54.39    9.30 
  -8  -4  10   82.89   16.00 
  -8  -4  10   64.99   12.50 
   8  -4 -10   54.29    9.80 
  -8   4  10   75.59    9.70 
  -8   4  10   88.19    9.30 
  -8   4  10   73.59   10.00 
   7  -4 -10  183.78   16.70 
  -7  -4  10  182.28   16.00 
  -7  -4  10  159.88   20.10 
  -7  -4  10  145.79   17.00 
  -7   4  10  152.28   15.90 
  -7   4  10  198.38   14.00 
  -7   4  10  189.08   15.90 
   6  -4 -10  266.07   21.40 
  -6  -4  10  223.98   25.10 
  -6  -4  10  233.38   21.20 
  -6  -4  10  253.87   20.90 
  -6   4  10  245.08   21.60 
  -6   4  10  302.37   18.40 
  -5  -4  10   32.70    7.10 
   5  -4 -10   44.10    7.20 
  -5  -4  10   32.90   10.30 
  -5   4  10   47.60    8.30 
  -5   4  10   42.60    6.50 
  -5   4  10   40.50    5.70 
  -4  -4  10  168.68   19.40 
  -4  -4  10  184.68   15.60 
  -4  -4  10  182.18   15.90 
  -4  -4  10  197.48   17.20 
   4  -4 -10  166.28   15.10 
   4   4 -10  185.98   18.00 
  -4   4  10  152.68   16.30 
  -4   4  10  159.78   13.80 
  -4   4  10  199.28   14.70 
  -3  -4  10  449.95   30.30 
  -3  -4  10  439.26   31.90 
  -3  -4  10  442.76   30.20 
   3  -4 -10  418.36   28.80 
   3  -4 -10  399.06   28.90 
  -3  -4  10  407.56   27.80 
  -3   4  10  454.25   28.40 
   3   4 -10  374.66   31.40 
  -3   4  10  410.46   31.30 
  -3   4  10  374.86   27.90 
  -2  -4  10  426.46   27.60 
  -2  -4  10  359.16   22.90 
  -2  -4  10  356.16   25.70 
   2  -4 -10  333.07   24.80 
  -2  -4  10  347.47   24.70 
   2  -4 -10  309.17   24.60 
  -2   4  10  320.27   24.80 
  -2   4  10  364.46   24.80 
  -2   4  10  347.57   27.60 
   2   4 -10  332.47   27.90 
  -1  -4  10  306.37   22.90 
  -1  -4  10  344.87   23.90 
   1  -4 -10  269.07   22.30 
   1  -4 -10  303.47   22.30 
  -1   4  10  325.87   22.90 
  -1   4  10  281.27   23.30 
  -1   4  10  304.07   25.20 
   1   4 -10  316.77   25.50 
   0  -4  10  451.25   32.20 
   0  -4 -10  445.56   31.70 
   0  -4 -10  543.45   31.10 
   0  -4  10  428.16   30.90 
   0   4  10  449.66   34.20 
   0   4  10  479.65   32.00 
   0   4 -10  438.06   33.90 
   0   4  10  388.66   32.70 
   1  -4  10   36.00    8.40 
   1  -4  10   52.19    7.40 
  -1  -4 -10   60.69    7.80 
  -1  -4 -10   58.69    7.90 
   1   4  10   53.59    9.80 
   1   4  10   64.59   10.40 
   1   4  10   52.79    8.10 
  -1   4 -10   47.90    9.20 
   2  -4  10  263.67   23.00 
  -2  -4 -10  265.57   21.50 
   2  -4  10  230.38   19.50 
   2   4  10  227.18   20.60 
  -2   4 -10  248.28   21.80 
   2   4  10  281.77   23.80 
   2   4  10  263.37   27.60 
   3  -4  10   25.90    8.10 
  -3  -4 -10   14.30    4.50 
   3  -4  10   14.30    4.40 
   3   4  10   11.00    5.00 
   3   4  10   32.90    7.80 
   3   4  10   16.20    6.10 
  -3   4 -10   21.70    5.90 
   4  -4  10   43.90   10.60 
  -4  -4 -10   45.90    9.20 
  -4  -4 -10   42.10    7.40 
   4  -4  10   44.60    6.80 
   4   4  10   24.60    7.20 
   4   4  10   43.10    9.40 
   4   4  10   33.00   10.30 
  -4   4 -10   42.30    8.20 
   5  -4  10   21.40    8.40 
  -5  -4 -10   27.20    7.70 
  -5  -4 -10   11.90    4.80 
   5  -4  10   19.70    5.00 
   5   4  10   15.60    8.40 
   5   4  10   19.90    6.40 
   5   4  10   23.80    7.90 
  -5   4 -10   12.30    5.10 
   7  -5 -10   -3.70    4.60 
  -7  -5  10   -4.00    5.40 
  -7  -5  10    4.60    4.70 
  -7  -5  10    8.60    5.70 
  -7  -5  10    7.70    4.80 
  -7   5  10    4.30    3.30 
  -7   5  10    1.90    2.80 
  -6  -5  10   55.59    9.20 
  -6  -5  10   50.89   12.80 
  -6  -5  10   51.19   10.00 
   6  -5 -10   50.49   10.10 
  -6   5  10   80.39    8.90 
  -6   5  10   61.49   10.40 
  -5  -5  10  616.24   49.60 
  -5  -5  10  667.43   45.60 
   5  -5 -10  671.63   48.40 
  -5  -5  10  703.13   46.80 
  -5   5  10  807.12   44.70 
  -5   5  10  645.54   47.70 
  -4  -5  10   35.60    7.10 
  -4  -5  10   37.20    7.80 
  -4  -5  10   29.00    6.80 
  -4  -5  10   28.10    9.70 
   4  -5 -10   38.50    5.90 
   4  -5 -10   33.20    8.50 
  -4   5  10   44.90    6.70 
  -4   5  10   45.80    8.80 
  -3  -5  10  218.68   20.20 
  -3  -5  10  195.68   15.60 
  -3  -5  10  203.28   17.00 
  -3  -5  10  202.98   17.70 
   3  -5 -10  178.58   15.00 
   3   5 -10  168.78   18.90 
  -3   5  10  213.38   16.40 
  -3   5  10  177.38   15.10 
   2  -5 -10  346.77   25.60 
  -2  -5  10  410.06   27.80 
   2  -5 -10  301.27   24.00 
  -2  -5  10  381.06   26.80 
  -2   5  10  289.17   24.40 
   2   5 -10  348.57   29.20 
  -2   5  10  367.96   28.90 
  -2   5  10  377.36   25.70 
  -1  -5  10  160.18   14.30 
   1  -5 -10  116.19   12.90 
   1  -5 -10  143.99   12.80 
  -1  -5  10  155.18   16.50 
   1   5 -10  143.39   15.50 
  -1   5  10  113.49   13.10 
  -1   5  10  123.69   14.80 
  -1   5  10  138.19   13.60 
   0  -5  10  745.53   48.10 
   0  -5  10  788.92   49.20 
   0  -5 -10  696.03   48.20 
   0   5  10  758.42   49.00 
   0   5  10  780.92   52.49 
   0   5 -10  658.43   56.19 
   0   5  10  715.03   49.70 
  -1  -5 -10  383.06   30.00 
   1  -5  10  412.96   31.50 
   1  -5  10  415.96   29.40 
  -1  -5 -10  487.05   29.80 
  -1   5 -10  417.06   32.90 
   1   5  10  389.06   32.30 
   1   5  10  426.86   33.70 
   1   5  10  399.56   30.90 
  -2  -5 -10   62.39   10.10 
   2  -5  10   42.90    9.80 
   2  -5  10   57.89   13.10 
  -2  -5 -10   82.39   14.30 
   2   5  10   65.69    9.50 
   2   5  10   64.39   11.80 
   2   5  10   63.39   13.40 
  -2   5 -10   87.29   10.90 
   3  -5  10   -4.70    3.40 
  -3  -5 -10    7.90    6.30 
  -3  -5 -10   -0.60    2.90 
   3  -5  10    1.70    2.50 
   3   5  10   10.70    7.00 
  -3   5 -10    1.70    3.30 
   3   5  10   -5.20    2.80 
   3   5  10    7.80    5.70 
   4  -5  10   80.19    9.10 
  -4  -5 -10   81.29   10.40 
  -4  -5 -10   91.09   14.50 
   4  -5  10   57.29   12.20 
   4   5  10   61.19   13.50 
  -4   5 -10   82.59   11.20 
   4   5  10   71.89   12.90 
   4   5  10   75.39   11.40 
   5  -5  10   21.70    8.20 
  -5  -5 -10   20.50    6.40 
   5   5  10   22.90    6.80 
   5   5  10   17.50    8.20 
  -5   5 -10   20.70    6.10 
  -6  -6  10  250.07   21.20 
   6  -6 -10  227.18   22.40 
  -6  -6  10  216.48   25.20 
  -6  -6  10  206.88   20.10 
  -6   6  10  239.28   22.00 
  -6   6  10  235.08   20.80 
  -5  -6  10   25.30    6.30 
   5  -6 -10   22.40    7.20 
  -5  -6  10   17.70    9.60 
  -5  -6  10   25.10    8.30 
  -5   6  10   24.40    5.80 
  -5   6  10   32.90    7.90 
  -4  -6  10  106.59   11.60 
   4  -6 -10  112.79   15.10 
  -4  -6  10   98.29   16.10 
  -4  -6  10  113.79   13.10 
  -4  -6  10  102.69   12.70 
  -4  -6  10  102.29   16.30 
  -4   6  10  116.89   11.60 
  -4   6  10  110.39   13.80 
  -3  -6  10   35.40    7.70 
  -3  -6  10   60.89    8.00 
  -3  -6  10   39.00    8.20 
   3  -6 -10   53.39   10.80 
  -3  -6  10   54.99   10.80 
  -3   6  10   49.90   10.10 
   3   6 -10   58.89   10.40 
  -3   6  10   57.59    8.10 
  -2  -6  10  203.68   18.60 
   2  -6 -10  190.18   15.10 
   2  -6 -10  194.08   21.00 
  -2  -6  10  251.07   19.80 
  -2   6  10  160.68   15.10 
  -2   6  10  201.18   17.40 
   2   6 -10  203.98   21.10 
  -1  -6  10  320.57   24.90 
  -1  -6  10  355.86   25.20 
   1  -6 -10  306.07   22.20 
   1  -6 -10  340.87   28.60 
  -1   6  10  302.87   24.40 
  -1   6  10  262.57   23.00 
   1   6 -10  287.37   27.10 
  -1   6  10  329.87   28.00 
   0  -6 -10   15.90    5.20 
   0  -6 -10   12.50    6.30 
   0  -6  10   11.00    5.00 
   0  -6 -10   14.00    4.10 
   0  -6  10    9.70    4.70 
   0   6  10   10.70    5.10 
   0   6  10   10.10    5.40 
   0   6  10    5.70    5.40 
   0   6 -10   12.20    4.90 
   1  -6  10   84.59   12.10 
  -1  -6 -10   94.09   12.00 
   1  -6  10  104.89   11.50 
  -1  -6 -10   80.69   14.30 
  -1  -6 -10  109.89   11.00 
  -1   6 -10  118.59   14.00 
   1   6  10  101.29   14.00 
   1   6  10   99.49   12.90 
   1   6  10   95.59   12.60 
  -2  -6 -10   56.59    9.50 
  -2  -6 -10   47.50   10.40 
   2  -6  10   21.70   11.50 
   2  -6  10   60.49   11.40 
   2   6  10   43.30    8.80 
  -2   6 -10   63.29   11.40 
   2   6  10   59.19   12.20 
   2   6  10   55.99   11.40 
  -3  -6 -10   53.39    9.20 
  -3  -6 -10   61.59   12.40 
   3  -6  10   46.90    7.70 
   3  -6  10   51.69   10.70 
   3   6  10   35.00    9.40 
  -3   6 -10   41.80   12.60 
   3   6  10   37.60   10.50 
   4  -6  10   57.89   12.30 
  -4  -6 -10   70.59   14.90 
  -4  -6 -10   88.59   15.60 
   4   6  10   85.79   12.70 
   4   6  10   54.39   12.10 
  -5  -7  10  120.09   14.50 
  -5  -7  10  118.49   18.50 
   5  -7 -10  107.79   18.10 
  -5  -7  10  122.49   13.80 
  -5   7  10  135.89   13.10 
  -5   7  10  118.19   15.20 
   4  -7 -10   68.39   13.90 
  -4  -7  10   95.59   16.60 
  -4  -7  10   80.39   11.60 
  -4  -7  10  107.89   13.20 
  -4   7  10   95.89   13.70 
   3  -7 -10   71.99   13.40 
  -3  -7  10   67.69   12.20 
  -3  -7  10   43.40    9.10 
  -3  -7  10   45.40   11.70 
  -3   7  10   62.89    9.00 
  -3   7  10   42.30   10.40 
  -2  -7  10   32.30    7.90 
  -2  -7  10   60.99    9.90 
   2  -7 -10   26.80    9.60 
  -2   7  10   38.10    8.60 
  -2   7  10   57.99   10.10 
   2   7 -10   38.50   10.60 
  -1  -7  10   99.39   13.20 
   1  -7 -10   93.59   10.20 
  -1  -7  10  102.29   12.20 
   1  -7 -10   89.39   11.30 
   1  -7 -10   93.79   17.10 
  -1   7  10  127.59   15.90 
   1   7 -10   90.89   14.90 
  -1   7  10   99.59   12.50 
   0  -7 -10  315.77   30.70 
   0  -7 -10  358.76   23.10 
   0  -7 -10  312.97   26.40 
   0  -7  10  306.27   25.80 
   0  -7  10  304.57   25.80 
   0   7 -10  346.57   29.90 
   0   7  10  317.17   30.10 
   0   7  10  313.67   26.90 
   1  -7  10   24.50    6.90 
  -1  -7 -10   28.40    7.30 
   1  -7  10   17.40    5.80 
  -1  -7 -10   18.30    7.00 
  -1  -7 -10   31.80   10.40 
  -1  -7 -10   33.00    6.20 
  -1   7 -10   22.20    8.40 
   1   7  10   18.10    7.70 
  -2  -7 -10   19.90    6.60 
  -2  -7 -10   25.90    8.70 
   2  -7  10   17.70    6.50 
  -2  -7 -10   19.30    6.70 
   2   7  10   13.30    6.00 
   2   7  10    7.70    5.30 
   3  -7  10    7.40    4.70 
  -3  -7 -10   12.20    6.40 
  -3  -7 -10   -5.20    5.30 
   3   7  10    4.30    7.20 
   3   7  10   -2.00    5.70 
  -3  -8  10   66.79   12.50 
   3  -8 -10   62.09   13.50 
  -3  -8  10   65.39   14.30 
  -3   8  10   58.49   11.60 
  -3   8  10   76.99   10.50 
  -2  -8  10  122.09   15.70 
   2  -8 -10  138.29   19.80 
  -2  -8  10  149.09   16.60 
  -2   8  10  117.79   14.30 
  -2   8  10  145.29   18.40 
   2   8 -10  119.29   23.00 
   1  -8 -10   57.69   12.60 
  -1  -8  10   68.29    9.70 
  -1  -8  10   56.79   10.50 
  -1   8  10   37.60    9.90 
  -1   8  10   41.10    9.30 
   0  -8 -10   15.50    6.80 
   0  -8  10   13.80    6.90 
   0  -8 -10    3.90    8.20 
   0  -8  10   27.80    7.10 
   0   8  10   10.80    7.40 
   0   8  10   21.50    6.60 
  -9   0  11   78.09    9.30 
  -9   0  11   86.09   13.00 
  -9   0  11  109.69   15.30 
  -8   0  11  351.66   26.40 
  -8   0  11  354.86   31.00 
  -8   0  11  401.56   33.20 
  -7   0  11  234.48   23.70 
  -7   0  11  273.77   20.50 
  -7   0  11  266.07   21.80 
  -6   0  11  112.59   12.30 
  -6   0  11  108.29   11.20 
  -6   0  11   98.09   14.20 
  -5   0  11  345.87   25.90 
  -5   0  11  322.47   23.60 
  -5   0  11  282.37   29.40 
  -4   0  11  544.55   34.90 
   4   0 -11  483.15   34.50 
   4   0 -11  441.36   36.80 
  -4   0  11  591.74   35.50 
  -4   0  11  545.05   33.50 
   4   0 -11  432.16   36.00 
  -3   0  11  974.50   58.79 
   3   0 -11  833.32   58.19 
  -3   0  11 1071.89   56.89 
   3   0 -11  905.01   61.49 
   3   0 -11  898.51   58.49 
   2   0 -11  429.06   34.00 
  -2   0  11  459.05   31.60 
  -2   0  11  495.85   32.00 
   2   0 -11  460.35   31.60 
   2   0 -11  403.86   30.80 
  -2   0  11  511.45   29.40 
  -1   0  11  145.29   13.20 
   1   0 -11  126.19   15.90 
   1   0 -11  146.79   13.20 
  -1   0  11  134.29   13.80 
  -1   0  11  157.38   11.50 
   1   0 -11  146.79   12.70 
   0   0 -11  233.58   20.50 
   0   0  11  234.38   20.50 
   0   0 -11  235.38   18.40 
   0   0  11  258.27   19.10 
   0   0 -11  215.08   17.00 
   0   0  11  234.68   16.60 
   1   0  11   40.00    5.60 
  -1   0 -11   41.40    5.90 
  -1   0 -11   39.80    6.70 
   1   0  11   27.20    6.50 
  -2   0 -11  152.18   13.10 
   2   0  11  125.99   16.30 
  -2   0 -11  161.98   11.50 
   2   0  11  122.49   13.10 
   2   0  11  134.49   12.10 
  -3   0 -11   38.00    4.90 
  -3   0 -11   31.30    5.70 
   3   0  11   32.40    9.90 
   3   0  11   29.70    6.10 
   4   0  11   58.89   13.10 
  -4   0 -11   56.09    7.80 
   4   0  11   58.69    8.20 
   4   0  11   48.00    9.20 
  -5   0 -11  184.78   12.40 
   5   0  11  151.58   15.80 
   5   0  11  105.69   17.70 
   5   0  11  138.49   14.70 
  -5   0 -11  151.48   13.70 
   6   0  11   -2.50    5.90 
   6   0  11   -4.30    4.90 
  -6   0 -11    2.00    2.90 
  -8  -1  11   33.10   10.70 
  -8  -1  11   22.80    9.30 
  -8  -1  11   20.40    5.20 
  -8   1  11   25.20    8.50 
  -7  -1  11   85.79   11.90 
  -7  -1  11   98.89   15.50 
  -7  -1  11   92.79   10.20 
  -7   1  11   89.19   11.20 
  -7   1  11   75.99   12.90 
  -7   1  11   85.59   10.10 
  -6  -1  11  204.58   22.30 
  -6  -1  11  239.78   20.10 
  -6  -1  11  242.88   19.00 
  -6   1  11  247.38   21.10 
  -6   1  11  230.08   18.80 
  -6   1  11  238.98   19.30 
  -5  -1  11  328.07   30.70 
   5  -1 -11  343.77   29.00 
  -5  -1  11  370.56   29.10 
  -5  -1  11  368.36   26.30 
  -5   1  11  342.57   26.10 
  -5   1  11  403.96   27.10 
  -5   1  11  368.96   25.70 
  -4  -1  11  534.25   34.60 
  -4  -1  11  446.26   31.30 
   4  -1 -11  457.35   32.30 
   4  -1 -11  438.16   34.80 
  -4  -1  11  447.76   32.30 
  -4   1  11  509.65   33.20 
   4   1 -11  426.96   33.10 
  -4   1  11  555.94   32.80 
  -3  -1  11  400.86   25.90 
   3  -1 -11  374.36   29.60 
   3  -1 -11  326.97   27.40 
  -3  -1  11  407.66   27.90 
   3  -1 -11  354.56   29.10 
   3   1 -11  372.76   28.20 
  -3   1  11  438.96   27.70 
  -3   1  11  451.25   26.20 
   3   1 -11  396.36   31.70 
  -3   1  11  375.86   27.90 
   2  -1 -11  135.39   12.70 
  -2  -1  11  137.99   12.90 
   2  -1 -11  113.99   14.50 
   2  -1 -11  127.49   11.90 
  -2  -1  11  131.59   12.40 
  -2  -1  11  140.09   10.50 
   2   1 -11  113.49   11.60 
  -2   1  11  141.59   13.10 
  -2   1  11  130.99   12.70 
   2   1 -11  118.69   15.10 
   2   1 -11  129.59   12.80 
  -2   1  11  148.19   11.10 
  -1  -1  11  870.81   54.99 
   1  -1 -11  891.81   53.89 
  -1  -1  11  969.00   51.19 
   1  -1 -11  823.62   55.49 
   1   1 -11  862.61   54.49 
  -1   1  11  870.91   55.49 
  -1   1  11  848.02   54.69 
   1   1 -11  741.63   52.19 
  -1   1  11  897.11   52.09 
   1   1 -11  805.02   56.89 
   0  -1  11  345.77   24.40 
   0  -1 -11  344.17   25.60 
   0  -1 -11  337.67   24.20 
   0  -1 -11  296.07   23.40 
   0  -1  11  323.17   26.10 
   0  -1  11  334.07   21.70 
   0   1 -11  324.07   22.60 
   0   1  11  329.67   26.50 
   0   1  11  356.16   23.10 
   0   1  11  369.66   25.60 
   0   1 -11  302.67   28.90 
   1  -1  11  169.28   17.70 
   1  -1  11  157.78   14.20 
  -1  -1 -11  160.68   14.20 
   1  -1  11  172.78   12.80 
  -1   1 -11  154.88   12.60 
   1   1  11  178.78   15.70 
   1   1  11  164.38   17.40 
   1   1  11  169.08   13.80 
  -1   1 -11  175.48   14.80 
   2  -1  11  187.48   14.70 
  -2  -1 -11  192.38   16.10 
   2  -1  11  181.78   16.10 
  -2  -1 -11  215.78   14.50 
   2  -1  11  151.98   19.10 
   2   1  11  194.18   17.40 
   2   1  11  187.58   20.40 
   2   1  11  197.18   16.00 
  -2   1 -11  210.48   16.90 
   3  -1  11  249.48   20.90 
  -3  -1 -11  317.47   19.20 
   3  -1  11  271.67   26.70 
  -3  -1 -11  271.37   20.70 
   3   1  11  263.67   22.50 
   3   1  11  262.97   21.30 
   3   1  11  249.28   26.00 
  -3   1 -11  281.97   21.40 
  -4  -1 -11   20.10    4.60 
   4  -1  11   20.60    8.40 
   4  -1  11   12.40    4.70 
   4   1  11   23.70    7.70 
   4   1  11   22.10    5.60 
   4   1  11   11.80    5.30 
  -4   1 -11   29.00    5.40 
  -5  -1 -11   30.20    5.90 
   5  -1  11   32.40    9.70 
   5  -1  11   44.60    8.10 
   5   1  11   35.40    9.50 
   5   1  11   43.50    8.00 
   5   1  11   41.50    8.80 
  -5   1 -11   33.30    5.90 
   6  -1  11   30.10    9.70 
   6   1  11    3.30    5.30 
  -6   1 -11    7.40    3.50 
   6   1  11   13.90    7.80 
  -8  -2  11  201.88   24.40 
  -8  -2  11  258.57   23.50 
  -8   2  11  252.87   20.10 
  -8   2  11  223.58   21.60 
  -8   2  11  265.47   21.50 
  -7  -2  11  260.87   27.10 
  -7  -2  11  331.87   23.50 
  -7  -2  11  297.87   24.50 
  -7   2  11  307.37   24.40 
  -7   2  11  315.77   23.60 
  -7   2  11  280.87   22.80 
  -6  -2  11   30.30    9.90 
   6  -2 -11   18.30    6.30 
  -6  -2  11   25.90    6.80 
  -6  -2  11   28.40    5.80 
  -6   2  11   27.30    6.30 
  -6   2  11   20.70    5.30 
  -6   2  11   41.90    7.40 
  -5  -2  11   92.79   13.30 
  -5  -2  11   88.79   11.20 
  -5  -2  11   97.19   14.30 
  -5   2  11   82.89    9.70 
  -5   2  11   91.29   10.40 
  -5   2  11  109.79   10.40 
  -4  -2  11    7.30    3.80 
  -4  -2  11   13.40    4.10 
  -4  -2  11    9.90    6.10 
  -4  -2  11    7.70    4.20 
   4  -2 -11   11.10    4.60 
  -4   2  11    8.80    3.50 
  -4   2  11   12.20    3.80 
  -4   2  11    9.30    3.30 
   3  -2 -11  422.16   30.70 
  -3  -2  11  452.85   29.80 
   3  -2 -11  433.16   32.90 
  -3  -2  11  460.55   32.90 
  -3  -2  11  533.25   35.40 
  -3  -2  11  474.15   31.80 
  -3   2  11  458.55   32.70 
  -3   2  11  453.15   31.10 
  -3   2  11  510.95   31.70 
   3   2 -11  410.66   32.50 
  -2  -2  11  165.88   14.70 
   2  -2 -11  185.78   14.90 
   2  -2 -11  168.88   15.00 
  -2  -2  11  196.08   13.00 
  -2  -2  11  207.28   18.50 
   2  -2 -11  165.78   16.90 
  -2   2  11  158.08   15.00 
  -2   2  11  186.38   13.90 
  -2   2  11  172.58   15.90 
   2   2 -11  141.09   13.30 
   2   2 -11  158.98   15.60 
  -1  -2  11  136.79    9.60 
  -1  -2  11  124.79   13.00 
   1  -2 -11  121.69   11.70 
  -1  -2  11  170.18   19.90 
   1  -2 -11  127.69   11.90 
   1  -2 -11  123.39   13.90 
   1   2 -11  121.19   12.90 
  -1   2  11  136.69   13.20 
  -1   2  11  127.19   13.60 
   1   2 -11  108.29   10.40 
  -1   2  11  125.19   11.20 
   0  -2  11  501.75   33.10 
   0  -2 -11  461.75   32.60 
   0  -2 -11  484.35   31.60 
   0  -2  11  453.45   34.60 
   0  -2 -11  529.05   33.80 
   0   2  11  511.95   32.50 
   0   2  11  461.85   35.50 
   0   2  11  476.75   36.80 
   0   2 -11  487.05   34.60 
  -1  -2 -11  628.34   43.10 
   1  -2  11  573.34   43.90 
   1  -2  11  617.94   41.20 
  -1  -2 -11  716.23   40.00 
  -1   2 -11  646.64   42.80 
   1   2  11  642.64   41.30 
   1   2  11  593.54   45.10 
   1   2  11  624.04   43.40 
   2  -2  11  112.49   14.90 
   2  -2  11  105.19   10.90 
  -2  -2 -11  106.79   11.30 
  -2  -2 -11  121.89   11.30 
  -2   2 -11  105.29   11.80 
   2   2  11  104.69   15.10 
   2   2  11  122.19   12.10 
   2   2  11  116.79   13.00 
   3  -2  11    3.70    4.50 
  -3  -2 -11   19.40    4.60 
   3  -2  11   11.70    3.80 
   3   2  11    6.90    4.10 
  -3   2 -11   14.10    4.30 
   3   2  11   17.50    6.80 
   4  -2  11   48.80    8.30 
   4  -2  11   57.49   13.30 
  -4  -2 -11   54.39    7.80 
   4   2  11   57.69   10.50 
   4   2  11   50.19   11.80 
   4   2  11   56.99    9.80 
  -4   2 -11   67.39    8.90 
  -5  -2 -11   76.99    9.30 
   5  -2  11   73.79    9.70 
   5  -2  11   77.39   18.70 
   5   2  11   45.20    9.50 
   5   2  11   59.79   11.60 
  -5   2 -11   64.79    8.60 
   8  -3 -11    6.20   10.30 
  -8  -3  11   12.00    4.40 
  -8  -3  11    8.90    7.50 
  -8  -3  11    9.30    6.20 
  -8   3  11   13.70    5.50 
  -8   3  11   10.50    4.20 
  -8   3  11   23.90    6.60 
  -7  -3  11  177.78   16.20 
  -7  -3  11  195.18   18.30 
   7  -3 -11  190.58   19.70 
  -7  -3  11  144.89   21.00 
  -7   3  11  184.48   16.70 
  -7   3  11  164.08   16.30 
  -7   3  11  225.18   16.60 
  -6  -3  11   93.29   10.10 
   6  -3 -11   77.89   11.60 
  -6  -3  11   78.39   11.40 
  -6  -3  11   74.39   14.10 
  -6   3  11  104.79    9.80 
  -6   3  11   83.99   10.00 
  -6   3  11   74.99   10.00 
   5  -3 -11  149.99   16.50 
  -5  -3  11  164.68   15.30 
  -5  -3  11  152.98   19.00 
  -5  -3  11  172.58   15.90 
  -5   3  11  196.38   14.60 
  -5   3  11  206.68   15.30 
  -5   3  11  183.88   16.80 
   4  -3 -11   21.30    5.80 
  -4  -3  11   27.10    8.20 
  -4  -3  11   23.30    5.60 
  -4  -3  11   16.30    4.60 
  -4  -3  11   16.60    5.80 
  -4   3  11   29.30    5.60 
   4   3 -11   17.10    5.00 
  -4   3  11   35.90    5.40 
  -3  -3  11  180.68   16.50 
   3  -3 -11  144.69   14.50 
   3  -3 -11  143.29   13.10 
  -3  -3  11  142.99   14.50 
  -3  -3  11  160.98   14.10 
  -3  -3  11  140.79   12.50 
  -3   3  11  156.78   15.40 
  -3   3  11  168.08   13.10 
  -3   3  11  135.19   13.30 
   3   3 -11  139.29   16.70 
  -2  -3  11 1214.38   65.79 
  -2  -3  11 1027.60   64.39 
  -2  -3  11 1014.20   63.99 
   2  -3 -11 1008.70   65.59 
  -2  -3  11 1117.69   61.09 
   2  -3 -11  892.61   64.09 
   2   3 -11 1045.10   66.89 
  -2   3  11 1058.69   62.89 
  -2   3  11 1013.20   66.19 
  -2   3  11  947.61   64.19 
  -1  -3  11  313.37   26.70 
  -1  -3  11  369.36   25.20 
   1  -3 -11  313.07   23.30 
   1   3 -11  325.67   25.80 
  -1   3  11  293.07   25.20 
  -1   3  11  300.27   24.80 
   0  -3 -11   68.69    8.70 
   0  -3 -11   80.59    9.50 
   0  -3  11   66.89    8.30 
   0  -3  11   66.49   10.00 
   0   3  11   80.49   10.50 
   0   3  11   75.39   11.00 
   0   3 -11   89.99   14.70 
   1  -3  11   20.60    6.60 
  -1  -3 -11   17.60    4.50 
   1  -3  11   11.90    4.00 
  -1   3 -11   21.40    5.90 
   1   3  11   20.70    6.10 
   1   3  11   11.10    4.40 
   1   3  11   14.00    6.20 
   2  -3  11  182.08   15.60 
   2  -3  11  164.58   18.60 
  -2  -3 -11  198.98   16.50 
   2   3  11  230.38   19.90 
   2   3  11  183.68   16.80 
  -2   3 -11  200.78   18.00 
   2   3  11  179.08   20.30 
   3  -3  11  182.58   15.70 
  -3  -3 -11  202.78   16.40 
   3  -3  11  172.78   20.50 
   3   3  11  183.38   17.00 
   3   3  11  153.68   19.70 
   3   3  11  194.18   19.10 
  -3   3 -11  188.18   17.20 
  -4  -3 -11   47.60    7.70 
   4  -3  11   52.89    7.90 
   4  -3  11   53.89   12.70 
   4   3  11   42.20    8.90 
  -4   3 -11   38.30    7.40 
   4   3  11   50.29   13.10 
   5  -3  11   56.79   13.60 
   5  -3  11   83.19   10.00 
  -5  -3 -11   61.89   11.30 
  -5   3 -11   51.59    8.90 
   5   3  11   65.69   12.30 
   5   3  11   47.30   10.50 
   5   3  11   63.19   13.70 
   7  -4 -11  333.37   28.80 
   7  -4 -11  385.66   29.30 
  -7  -4  11  373.56   28.40 
  -7  -4  11  343.17   33.50 
  -7  -4  11  372.16   29.30 
  -7   4  11  316.47   29.40 
  -7   4  11  434.86   29.20 
  -7   4  11  402.36   25.40 
   6  -4 -11  125.79   14.40 
  -6  -4  11  143.89   18.90 
  -6  -4  11  138.49   14.70 
  -6  -4  11  151.18   14.20 
  -6   4  11  125.49   11.40 
  -6   4  11  140.89   14.20 
  -5  -4  11   11.20    8.30 
   5  -4 -11    8.30    4.80 
  -5  -4  11    6.50    3.70 
  -5  -4  11   16.30    5.40 
  -5   4  11   10.50    3.60 
  -5   4  11   14.90    4.50 
  -5   4  11   10.90    4.50 
  -4  -4  11   95.79   10.60 
  -4  -4  11   81.79   12.10 
   4  -4 -11   77.39   10.20 
  -4  -4  11  127.29   15.50 
  -4  -4  11   88.59   10.90 
  -4   4  11  100.89   12.00 
  -4   4  11   94.19   10.00 
  -4   4  11  108.09   10.20 
  -3  -4  11  257.57   20.90 
  -3  -4  11  270.47   19.10 
   3  -4 -11  231.38   20.00 
  -3  -4  11  325.27   23.90 
  -3  -4  11  269.37   21.00 
  -3   4  11  282.57   19.90 
   3   4 -11  255.57   22.90 
  -3   4  11  224.28   19.60 
  -3   4  11  243.98   22.50 
  -2  -4  11  231.08   18.60 
   2  -4 -11  190.78   18.20 
  -2  -4  11  265.37   20.10 
   2  -4 -11  220.18   18.10 
  -2   4  11  194.78   18.10 
  -2   4  11  236.68   17.90 
  -2   4  11  213.38   20.40 
   2   4 -11  218.38   20.60 
   1  -4 -11   32.70    6.50 
   1  -4 -11   36.70    7.40 
  -1  -4  11   33.10    7.10 
  -1  -4  11   35.30    7.50 
  -1   4  11   39.40    7.30 
  -1   4  11   21.80    6.10 
  -1   4  11   32.50    8.00 
   1   4 -11   26.60    6.70 
   0  -4 -11  110.99   11.80 
   0  -4  11  121.29   12.10 
   0  -4  11  122.29   13.30 
   0  -4 -11  115.19   11.70 
   0   4 -11  115.79   13.80 
   0   4  11  104.89   11.70 
   0   4  11   98.89   13.30 
   0   4  11  116.49   14.20 
   1  -4  11  131.39   13.40 
   1  -4  11  130.69   15.50 
  -1  -4 -11  167.38   14.60 
   1   4  11  148.49   16.90 
   1   4  11  154.08   16.40 
  -1   4 -11  162.98   16.40 
   1   4  11  143.69   14.60 
  -2  -4 -11    3.80    2.90 
   2  -4  11    4.40    4.70 
   2  -4  11   10.00    3.80 
   2   4  11   -3.60    3.00 
  -2   4 -11    8.50    3.80 
   2   4  11    0.40    3.70 
   2   4  11    3.20    3.10 
   3  -4  11   43.80    7.10 
  -3  -4 -11   44.50    7.80 
   3  -4  11   29.40    8.70 
   3   4  11   46.60    9.60 
  -3   4 -11   36.70    7.90 
   3   4  11   58.39   12.50 
   3   4  11   54.69   10.60 
  -4  -4 -11    3.20    3.60 
   4  -4  11    1.90    4.70 
   4  -4  11    5.10    3.20 
  -4   4 -11    8.60    3.90 
   4   4  11    2.70    3.40 
   4   4  11    5.50    5.70 
   4   4  11   -4.90    4.50 
   5  -4  11   67.29   14.80 
  -5  -4 -11   82.59   13.60 
   5   4  11   59.09   14.00 
  -7  -5  11   20.60    9.50 
  -7  -5  11   18.90    7.10 
  -7   5  11   27.20    5.90 
  -7   5  11   24.80    6.40 
   6  -5 -11   80.69   13.00 
  -6  -5  11  111.99   12.50 
  -6  -5  11  100.49   12.80 
  -6  -5  11   77.99   19.00 
  -6   5  11   99.99   12.50 
  -5  -5  11  212.08   18.80 
   5  -5 -11  212.18   21.10 
  -5  -5  11  246.48   20.10 
  -5  -5  11  209.28   23.30 
  -5   5  11  235.98   18.00 
  -5   5  11  200.68   16.00 
  -5   5  11  223.48   20.90 
  -4  -5  11   46.30   11.00 
   4  -5 -11   63.39    7.80 
  -4  -5  11   35.00    7.70 
  -4  -5  11   33.40    7.20 
  -4  -5  11   45.00    9.40 
  -4   5  11   46.30    7.20 
  -4   5  11   43.30    8.90 
  -4   5  11   44.70    9.30 
  -3  -5  11   66.69   11.60 
   3  -5 -11   58.19    7.80 
  -3  -5  11   59.49    9.70 
  -3  -5  11   56.19    7.70 
  -3  -5  11   65.59    8.90 
  -3   5  11   60.89   11.50 
  -3   5  11   46.80    7.50 
   3   5 -11   52.09   10.20 
  -3   5  11   54.39    9.00 
   2  -5 -11  131.79   13.30 
  -2  -5  11  144.69   14.00 
  -2   5  11  129.89   13.50 
  -2   5  11  143.19   13.60 
   2   5 -11  132.39   16.00 
  -2   5  11  150.98   16.30 
  -1  -5  11  174.38   15.90 
   1  -5 -11  141.09   14.50 
  -1  -5  11  160.48   14.90 
   1  -5 -11  164.18   14.80 
  -1   5  11  144.29   17.00 
   1   5 -11  142.49   16.90 
  -1   5  11  133.19   15.00 
  -1   5  11  164.78   15.20 
   0  -5  11   18.90    5.70 
   0  -5 -11   25.90    8.80 
   0  -5 -11   22.30    5.50 
   0  -5  11   13.80    4.80 
   0   5  11   20.50    5.90 
   0   5 -11   18.40    5.50 
   0   5  11   12.80    5.70 
   0   5  11   10.40    5.60 
   1  -5  11   47.80   10.10 
  -1  -5 -11   43.70    8.50 
   1  -5  11   54.79    8.90 
   1   5  11   44.30   10.10 
   1   5  11   43.80   10.50 
   1   5  11   46.00    8.90 
  -1   5 -11   51.89    9.20 
   2  -5  11   61.79    8.90 
  -2  -5 -11   78.69    9.70 
   2  -5  11   50.79   11.10 
  -2  -5 -11  100.39   13.30 
   2   5  11   70.09   14.10 
  -2   5 -11   65.49   11.10 
   2   5  11   74.79   10.70 
   2   5  11   55.99   11.40 
  -3  -5 -11   88.29   14.60 
  -3  -5 -11   94.09   11.00 
   3  -5  11   77.59   12.90 
   3  -5  11   84.39   10.00 
   3   5  11  122.99   13.60 
  -3   5 -11   62.49   11.80 
   3   5  11   86.59   13.80 
   3   5  11   46.20   12.40 
   4  -5  11   93.59   23.70 
  -4  -5 -11  134.29   15.90 
   4   5  11   74.99   14.80 
   4   5  11   83.99   12.20 
   4   5  11   86.59   16.70 
  -6  -6  11   55.89   10.70 
  -6  -6  11   49.00   13.40 
  -6  -6  11   51.89   10.30 
  -6   6  11   65.69    9.10 
  -6   6  11   74.69   12.30 
   5  -6 -11   50.69   10.80 
  -5  -6  11   44.30   11.60 
  -5  -6  11   60.69   10.70 
  -5  -6  11   37.50    8.20 
  -5  -6  11   44.80   11.40 
  -5   6  11   50.89   10.00 
  -5   6  11   48.30    9.20 
  -4  -6  11   58.49    9.80 
  -4  -6  11   76.49    9.70 
  -4  -6  11   87.99   14.10 
   4  -6 -11   60.09   11.70 
  -4   6  11   63.99   11.70 
  -4   6  11   63.19    9.00 
   3  -6 -11   70.99   12.10 
  -3  -6  11   46.90    8.90 
  -3  -6  11   57.99    8.90 
  -3  -6  11   72.39   12.20 
  -3   6  11   55.19   10.90 
  -3   6  11   43.20    8.60 
   2  -6 -11   46.80   10.60 
   2  -6 -11   34.50    6.70 
  -2  -6  11   51.59    8.70 
  -2   6  11   60.49    8.80 
   2   6 -11   37.10   12.00 
  -2   6  11   31.10    6.70 
  -2   6  11   37.60    9.10 
   1  -6 -11   47.50   11.20 
  -1  -6  11   37.60    7.70 
   1  -6 -11   33.80    7.00 
  -1  -6  11   30.80    7.20 
  -1   6  11   27.40    7.60 
   1   6 -11   24.00    6.80 
  -1   6  11   14.60    6.50 
  -1   6  11   35.40    7.60 
   0  -6 -11   90.29   15.90 
   0  -6  11  102.89   12.70 
   0  -6  11  104.89   11.80 
   0  -6 -11  107.09   12.30 
   0  -6 -11  116.79   11.50 
   0   6  11  109.69   15.40 
   0   6  11  107.39   12.90 
   0   6 -11   79.89   13.40 
  -1  -6 -11   87.99   11.80 
  -1  -6 -11   91.89   15.80 
   1  -6  11   85.19   10.70 
   1  -6  11   75.89   12.30 
   1   6  11   98.09   16.40 
   1   6  11   91.19   12.30 
  -1   6 -11  135.79   14.60 
  -2  -6 -11   14.00    6.20 
   2  -6  11    4.50    4.30 
  -2  -6 -11   -4.90    3.90 
   2  -6  11    1.00    4.30 
   2   6  11   -2.80    5.10 
   2   6  11    5.00    5.80 
  -2   6 -11   17.10    5.00 
  -3  -6 -11    6.00    5.80 
   3  -6  11    8.40    6.40 
   3   6  11   -5.70    6.30 
   3   6  11   14.50    5.20 
   3   6  11   13.20    7.50 
  -4  -7  11    8.40    4.70 
   4  -7 -11   14.70    8.80 
  -4  -7  11   18.50    8.20 
  -4   7  11   14.10    4.70 
  -4   7  11    1.00    4.60 
  -3  -7  11  148.89   16.20 
   3  -7 -11  134.59   19.00 
  -3   7  11  149.69   14.60 
  -3   7  11  128.79   17.70 
  -2  -7  11    8.70    4.70 
  -2  -7  11   15.40    5.90 
  -2   7  11    2.60    4.50 
   2   7 -11    8.20    6.60 
  -2   7  11    8.60    4.90 
  -1  -7  11   93.29   12.90 
   1  -7 -11   79.79   10.70 
  -1  -7  11  117.49   13.20 
   1  -7 -11  114.79   15.70 
   1   7 -11   90.39   14.70 
  -1   7  11  110.79   13.30 
  -1   7  11   70.29   14.60 
   0  -7  11   38.50    8.90 
   0  -7  11   35.40    7.80 
   0  -7 -11   61.59   14.10 
   0   7 -11   42.80   12.40 
   0   7  11   61.59   12.60 
   0   7  11   27.90    8.20 
  -1  -7 -11    4.60    6.60 
  -1  -7 -11   11.10    6.00 
   1  -7  11   14.80    5.70 
   1  -7  11   13.30    5.50 
   1   7  11   22.10    6.60 
   1   7  11   18.10    8.90 
  -8   0  12  177.68   20.70 
  -8   0  12  174.78   16.30 
  -8   0  12  214.88   19.00 
  -7   0  12   58.19    9.60 
  -7   0  12   71.89   13.10 
  -7   0  12   68.59   10.50 
  -6   0  12   18.80    6.20 
  -6   0  12   15.80    7.50 
  -6   0  12   17.30    4.90 
  -5   0  12   79.39    9.60 
  -5   0  12   63.29    9.10 
  -5   0  12   74.29   11.00 
  -4   0  12  179.48   16.70 
  -4   0  12  211.88   15.90 
  -4   0  12  199.78   21.90 
  -3   0  12   50.49    7.90 
   3   0 -12   49.99    8.60 
  -3   0  12   62.49    9.50 
  -3   0  12   55.49    6.70 
   3   0 -12   46.70    7.60 
   2   0 -12    7.90    3.80 
  -2   0  12    8.50    3.10 
   2   0 -12    2.70    2.70 
  -2   0  12    6.70    3.60 
  -2   0  12    9.20    3.70 
  -1   0  12  874.51   48.00 
  -1   0  12  788.62   50.69 
   1   0 -12  780.02   50.59 
  -1   0  12  636.14   60.09 
   0   0  12   10.90    4.00 
   0   0 -12   14.60    4.70 
   0   0 -12   10.90    4.20 
   0   0  12   11.50    3.40 
   0   0  12   12.10    5.40 
   1   0  12  183.58   16.30 
  -1   0 -12  170.98   13.80 
   1   0  12  163.48   18.10 
   1   0  12  162.68   13.90 
  -1   0 -12  179.48   15.40 
  -2   0 -12   10.40    4.10 
  -2   0 -12   11.10    3.60 
   2   0  12   10.60    4.10 
   2   0  12    3.00    4.40 
   2   0  12    8.20    3.50 
  -3   0 -12   -4.60    2.20 
   3   0  12    1.30    2.70 
  -3   0 -12    0.80    2.60 
   3   0  12    0.90    5.30 
   3   0  12    1.40    4.90 
   4   0  12   49.20    8.80 
  -4   0 -12   65.79    6.80 
   4   0  12   46.00   12.80 
   4   0  12   63.19    8.60 
  -4   0 -12   48.80    8.20 
   5   0  12   13.90    5.60 
   5   0  12   22.50    7.10 
   5   0  12   16.30    6.80 
  -5   0 -12   13.50    5.00 
  -8  -1  12   36.40    9.40 
  -8  -1  12   46.80   11.30 
  -8  -1  12   28.90    6.70 
  -8   1  12   37.50    7.30 
  -8   1  12   44.30    9.30 
  -8   1  12   38.70   10.50 
  -7  -1  12  227.78   19.20 
  -7  -1  12  236.28   23.50 
  -7  -1  12  242.58   20.60 
  -7   1  12  198.68   18.70 
  -7   1  12  237.58   19.90 
  -7   1  12  239.08   21.60 
  -6  -1  12  293.07   23.00 
  -6  -1  12  277.47   25.70 
  -6  -1  12  279.87   22.40 
  -6   1  12  336.17   24.20 
  -6   1  12  293.17   22.50 
  -6   1  12  255.87   22.30 
  -5  -1  12   90.39   10.40 
  -5  -1  12  103.09   13.40 
  -5  -1  12   83.49   10.20 
  -5   1  12  114.89   12.00 
  -5   1  12   83.49   10.40 
  -5   1  12   84.79    9.90 
   4  -1 -12  122.39   14.90 
  -4  -1  12  152.28   13.40 
  -4  -1  12  149.19   14.60 
  -4  -1  12  124.49   13.40 
  -4   1  12  141.49   13.00 
  -4   1  12  129.69   11.80 
  -4   1  12  116.39   12.80 
   3  -1 -12   72.99    8.70 
  -3  -1  12   74.59    7.70 
  -3  -1  12   73.59    9.50 
  -3  -1  12   79.39    9.10 
   3  -1 -12   57.49   10.80 
   3   1 -12   56.19    9.70 
  -3   1  12   66.89    9.00 
   3   1 -12   58.99    9.60 
  -3   1  12   69.19    8.70 
  -2  -1  12  721.13   38.90 
  -2  -1  12  670.43   42.10 
   2  -1 -12  582.84   43.60 
   2  -1 -12  535.45   41.10 
  -2  -1  12  670.33   42.50 
   2  -1 -12  563.24   40.90 
  -2   1  12  618.24   42.20 
  -2   1  12  691.23   39.60 
  -2   1  12  618.44   42.40 
   2   1 -12  591.34   42.20 
  -1  -1  12  371.86   28.20 
   1  -1 -12  358.06   26.50 
  -1  -1  12  384.86   27.20 
  -1  -1  12  401.76   24.10 
   1  -1 -12  347.47   25.80 
   1   1 -12  335.17   25.10 
   1   1 -12  369.16   27.20 
  -1   1  12  370.36   27.60 
  -1   1  12  366.86   28.40 
  -1   1  12  369.66   24.90 
   0  -1  12   16.60    5.80 
   0  -1  12   14.40    3.70 
   0  -1  12   22.30    5.20 
   0  -1 -12   16.60    4.80 
   0  -1 -12   17.40    5.10 
   0   1 -12   14.60    4.40 
   0   1 -12   13.00    4.20 
   0   1  12   23.60    4.70 
   0   1  12   12.90    5.70 
   0   1  12   18.00    5.50 
  -1  -1 -12  175.58   13.80 
   1  -1  12  158.98   13.10 
   1  -1  12  174.78   15.40 
  -1  -1 -12  178.18   15.90 
   1  -1  12  153.08   17.70 
  -1   1 -12  162.78   15.30 
  -1   1 -12  167.98   13.40 
   1   1  12  177.28   16.20 
   1   1  12  166.78   18.20 
   1   1  12  176.08   14.60 
   2  -1  12  166.08   14.20 
   2  -1  12  187.38   16.60 
   2  -1  12  149.88   19.30 
  -2  -1 -12  197.28   14.40 
  -2  -1 -12  185.38   15.80 
   2   1  12  178.48   20.20 
   2   1  12  182.78   17.30 
  -2   1 -12  195.48   16.60 
   2   1  12  180.18   15.40 
  -3  -1 -12   56.39    7.80 
   3  -1  12   47.90   11.20 
   3   1  12   41.20   10.50 
   3   1  12   44.00    8.20 
   3   1  12   56.79    9.90 
  -3   1 -12   49.80    8.60 
  -4  -1 -12   12.00    4.10 
   4  -1  12    8.00    5.60 
   4  -1  12   13.50    5.20 
   4   1  12    7.90    5.90 
   4   1  12   -0.40    3.90 
  -4   1 -12   11.50    3.60 
   4   1  12    6.70    4.30 
   5  -1  12   73.19   15.80 
   5  -1  12   66.09   14.40 
  -5   1 -12   57.19    9.30 
   5   1  12   58.09   14.10 
   5   1  12   50.69   12.70 
   5   1  12   70.19   10.50 
  -8  -2  12  103.09   14.00 
  -8  -2  12  113.69   12.10 
  -8  -2  12  118.39   17.70 
  -8   2  12  114.09   13.30 
  -8   2  12  109.59   14.00 
  -8   2  12   80.29   11.10 
  -7  -2  12    1.80    4.90 
  -7  -2  12   -1.10    5.80 
  -7  -2  12    0.30    2.90 
  -7   2  12    0.80    3.50 
  -7   2  12   -5.40    2.70 
  -7   2  12    2.30    4.50 
  -6  -2  12   13.20    5.20 
  -6  -2  12   14.50    4.50 
  -6  -2  12   21.10    8.60 
  -6   2  12   28.20    6.30 
  -6   2  12   13.30    4.70 
  -6   2  12   10.90    4.10 
  -5  -2  12  163.68   14.30 
  -5  -2  12  163.88   17.70 
  -5  -2  12  141.39   13.80 
   5  -2 -12  119.89   15.40 
  -5   2  12  162.38   13.40 
  -5   2  12  159.98   13.60 
  -5   2  12  122.69   13.90 
  -4  -2  12   23.90    5.40 
  -4  -2  12   26.10    6.30 
  -4  -2  12   38.40    8.80 
   4  -2 -12   34.40    8.00 
  -4   2  12   31.90    6.20 
  -4   2  12   36.10    6.20 
  -4   2  12   23.60    7.40 
  -3  -2  12   97.49   10.90 
   3  -2 -12   60.99    8.30 
  -3  -2  12   76.69   10.50 
  -3  -2  12   79.19    9.70 
   3  -2 -12   63.19   10.20 
  -3  -2  12   86.79    8.50 
   3   2 -12   85.29    9.60 
  -3   2  12   77.69   10.00 
  -3   2  12   78.79    8.30 
  -3   2  12   71.29    9.30 
   2  -2 -12  112.39   14.20 
  -2  -2  12  149.39   13.50 
   2  -2 -12  130.99   12.80 
  -2  -2  12  138.49   10.20 
  -2  -2  12  119.39   12.30 
  -2   2  12  117.19   12.90 
   2   2 -12  102.89   10.70 
  -2   2  12  106.79   12.70 
  -2   2  12  125.49   11.20 
   2   2 -12  117.09   13.20 
   1  -2 -12  367.76   28.60 
  -1  -2  12  412.96   23.90 
  -1  -2  12  383.66   27.20 
   1  -2 -12  365.06   26.80 
  -1  -2  12  357.66   28.10 
  -1   2  12  358.86   28.70 
   1   2 -12  404.26   28.90 
  -1   2  12  400.66   29.00 
   1   2 -12  313.17   24.80 
   0  -2 -12  242.28   20.30 
   0  -2  12  260.87   20.70 
   0  -2  12  262.37   23.10 
   0  -2  12  257.17   17.60 
   0   2  12  308.77   22.30 
   0   2  12  283.07   23.00 
   0   2 -12  270.37   22.20 
   0   2 -12  245.48   18.40 
   1  -2  12  106.19   13.90 
   1  -2  12  107.99   11.60 
  -1  -2 -12  105.19   10.90 
   1   2  12  121.09   13.30 
   1   2  12  104.49   14.80 
  -1   2 -12  112.89   12.50 
   2  -2  12    3.80    3.60 
   2  -2  12    3.30    3.30 
  -2  -2 -12    3.90    2.50 
  -2   2 -12   -2.90    2.90 
   2   2  12    5.00    4.10 
   2   2  12    8.70    3.90 
   2   2  12    1.80    4.30 
  -3  -2 -12   45.70    5.90 
   3  -2  12   15.80    7.50 
   3  -2  12   22.60    5.90 
   3   2  12   28.80    7.80 
  -3   2 -12   33.60    6.90 
   3   2  12   40.60   10.10 
   3   2  12   46.40    9.10 
   4  -2  12   49.50   11.80 
  -4  -2 -12   58.99    8.90 
   4  -2  12   47.80    8.30 
  -4   2 -12   57.49    9.40 
   4   2  12   62.19   15.10 
   4   2  12   41.90    8.40 
   4   2  12   35.80    8.80 
   5  -2  12   29.50    9.10 
   5   2  12   21.30    6.20 
   5   2  12   19.70    7.40 
  -7  -3  12   62.69   20.70 
  -7  -3  12  116.99   13.60 
   7  -3 -12   90.99   15.10 
  -7  -3  12  108.39   12.10 
  -7   3  12   94.09   15.30 
  -7   3  12  121.59   12.60 
  -7   3  12  127.89   11.60 
  -6  -3  12   18.10    8.90 
  -6  -3  12   17.60    6.10 
  -6  -3  12   25.60    6.10 
   6  -3 -12   14.90    6.30 
  -6   3  12   20.10    5.10 
  -6   3  12   28.00    6.30 
  -6   3  12   24.50    5.70 
  -5  -3  12   30.20    7.40 
   5  -3 -12   22.50    7.10 
  -5  -3  12   29.00    9.20 
  -5  -3  12   35.00    7.20 
  -5   3  12   52.19    7.10 
  -5   3  12   37.50    6.80 
  -5   3  12   45.30    7.80 
  -4  -3  12   68.29    8.80 
  -4  -3  12   85.99   12.60 
  -4  -3  12   72.99    9.40 
  -4   3  12   71.89    8.90 
  -4   3  12   67.59   11.30 
  -4   3  12   82.59    8.70 
  -3  -3  12  379.96   25.90 
  -3  -3  12  319.87   21.40 
   3  -3 -12  268.77   24.20 
  -3  -3  12  304.87   23.70 
  -3  -3  12  280.17   23.90 
   3   3 -12  289.57   25.50 
  -3   3  12  282.97   24.80 
  -3   3  12  286.57   23.20 
  -3   3  12  340.07   22.40 
   2  -3 -12   92.39   13.10 
  -2  -3  12  115.99   12.20 
  -2  -3  12  128.19    9.70 
   2  -3 -12  100.69   11.20 
  -2  -3  12  125.49   13.00 
  -2  -3  12  116.89   12.20 
  -2   3  12  103.09   10.80 
  -2   3  12  135.09   13.90 
  -2   3  12  113.29   12.70 
   2   3 -12  137.79   14.40 
   1  -3 -12   66.39    8.70 
  -1  -3  12   66.19    9.60 
  -1  -3  12   71.79    8.80 
   1  -3 -12   52.69    9.90 
  -1   3  12   61.29    8.50 
  -1   3  12   60.59   10.40 
  -1   3  12   58.09    9.70 
   1   3 -12   57.99   10.00 
   0  -3 -12   63.39    8.50 
   0  -3  12   68.59   10.60 
   0  -3  12   78.79    9.10 
   0   3  12   69.09    9.10 
   0   3 -12   70.09   11.30 
   0   3  12   59.79   11.00 
   0   3  12   56.49   11.80 
   1  -3  12  117.09   14.70 
  -1  -3 -12  111.79   11.90 
   1  -3  12  123.59   12.20 
   1   3  12  114.79   15.20 
   1   3  12  116.49   12.50 
   1   3  12  115.79   14.50 
  -1   3 -12  125.69   13.60 
   2  -3  12   75.59    9.40 
   2  -3  12   74.69   12.20 
  -2  -3 -12   76.19    9.20 
   2   3  12   54.19   11.00 
   2   3  12   61.19   12.90 
   2   3  12   74.99    9.70 
  -2   3 -12   78.99   10.30 
  -3  -3 -12   33.40    6.50 
   3  -3  12   31.90    8.90 
   3  -3  12   26.00    5.60 
   3   3  12    6.20    6.00 
  -3   3 -12   20.80    5.80 
   3   3  12   27.70    8.30 
   3   3  12   26.70    6.90 
   4  -3  12    5.00    4.50 
   4  -3  12   -8.20    4.90 
  -4  -3 -12    4.80    4.60 
  -4   3 -12   -0.20    3.70 
   4   3  12   -6.10    4.50 
   4   3  12   -6.10    5.80 
   4   3  12    2.80    4.00 
  -7  -4  12   96.39   12.60 
  -7  -4  12   83.29   16.70 
   7  -4 -12   92.69   14.70 
  -7  -4  12  103.79   17.70 
  -7   4  12   92.79    9.80 
  -7   4  12   95.59   11.60 
  -7   4  12  104.89   11.50 
   6  -4 -12   50.09    9.60 
  -6  -4  12   47.50   19.20 
  -6  -4  12   40.80    8.20 
  -6  -4  12   42.20    7.80 
  -6   4  12   44.40    8.70 
  -6   4  12   38.90    6.70 
  -5  -4  12  189.98   16.40 
  -5  -4  12  179.18   20.10 
  -5  -4  12  157.98   15.80 
   5  -4 -12  151.28   16.20 
  -5   4  12  196.38   15.10 
  -5   4  12  167.88   17.40 
  -5   4  12  143.39   13.90 
  -4  -4  12  243.28   19.30 
   4  -4 -12  216.88   20.50 
  -4  -4  12  285.07   23.90 
  -4  -4  12  262.27   20.90 
  -4   4  12  261.37   23.00 
  -4   4  12  287.27   19.70 
  -4   4  12  216.08   19.10 
  -3  -4  12   61.79   10.20 
   3  -4 -12   62.79    8.90 
  -3  -4  12   59.09    7.40 
  -3  -4  12   43.40    7.80 
   3   4 -12   67.99   12.50 
  -3   4  12   59.39    7.90 
  -3   4  12   51.19   10.50 
  -3   4  12   56.59    8.60 
  -2  -4  12   26.40    6.10 
  -2  -4  12   24.10    6.60 
   2  -4 -12   26.10    8.10 
  -2  -4  12   11.50    5.20 
   2   4 -12   29.70    7.60 
  -2   4  12   35.00    6.90 
  -2   4  12   17.80    5.70 
  -2   4  12   25.70    7.00 
   1  -4 -12   21.70    5.40 
   1  -4 -12   14.40    6.20 
  -1  -4  12    5.90    4.50 
  -1  -4  12   13.80    4.80 
  -1   4  12   21.80    5.90 
   1   4 -12   13.60    6.60 
  -1   4  12   23.80    5.20 
  -1   4  12   16.00    6.40 
   0  -4  12  161.08   17.00 
   0  -4 -12  173.98   16.10 
   0  -4  12  159.48   15.40 
   0   4  12  193.28   16.60 
   0   4  12  166.48   18.10 
   0   4  12  174.58   18.50 
   0   4 -12  170.18   17.60 
  -1  -4 -12   56.39    9.40 
   1  -4  12   65.09   12.50 
   1  -4  12   69.59    9.10 
   1   4  12   75.09   12.40 
  -1   4 -12   58.79    9.90 
   1   4  12   61.49    9.30 
   1   4  12   70.19   13.20 
   2  -4  12   94.99   11.20 
   2  -4  12  107.69   14.70 
  -2  -4 -12  107.59   12.10 
   2   4  12  115.49   12.70 
   2   4  12  122.69   16.00 
   2   4  12  116.69   15.10 
  -2   4 -12  131.79   14.30 
   3  -4  12   37.10    9.40 
   3  -4  12   32.70    6.50 
   3   4  12   37.80    8.30 
  -3   4 -12   17.90    6.00 
   3   4  12   27.80    9.60 
   3   4  12   24.60    8.20 
   4  -4  12   66.29   14.40 
   4   4  12  114.19   16.60 
   4   4  12   60.79   13.10 
   4   4  12   99.99   16.00 
  -6  -5  12  105.99   13.20 
  -6  -5  12  113.49   18.80 
  -6  -5  12  130.09   13.70 
   6  -5 -12   84.49   16.00 
  -6   5  12  121.59   12.30 
  -6   5  12  137.29   14.80 
   5  -5 -12   39.70    7.50 
  -5  -5  12   37.20    7.40 
  -5  -5  12   37.50    7.80 
  -5  -5  12   46.20   12.30 
  -5   5  12   34.10    8.00 
  -5   5  12   41.70    6.40 
   4  -5 -12   -0.40    3.60 
  -4  -5  12    5.10    3.90 
  -4  -5  12    4.00    5.60 
  -4  -5  12   -0.40    3.50 
  -4   5  12    5.30    3.20 
  -4   5  12    5.50    3.00 
  -4   5  12   -8.20    2.90 
  -3  -5  12  131.19   11.00 
   3  -5 -12  100.69   12.00 
  -3  -5  12  140.39   16.40 
  -3  -5  12  111.79   12.60 
  -3  -5  12  134.19   14.90 
  -3   5  12  106.09   14.80 
  -3   5  12  135.69   12.60 
  -3   5  12  105.19   12.00 
  -2  -5  12  105.99   11.70 
   2  -5 -12   88.29   11.50 
  -2  -5  12  108.69   12.50 
   2   5 -12   96.49   21.00 
  -2   5  12   60.49   15.80 
  -2   5  12   86.39   11.00 
  -2   5  12   84.29   11.40 
   1  -5 -12  108.99   13.40 
  -1  -5  12  106.19   13.10 
  -1  -5  12  140.89   14.70 
  -1   5  12  133.49   16.20 
  -1   5  12  138.19   13.90 
  -1   5  12  136.49   15.10 
   1   5 -12  145.09   16.60 
   0  -5 -12    4.20    4.10 
   0  -5  12   10.10    5.10 
   0  -5  12   14.80    5.20 
   0   5 -12   11.20    4.60 
   0   5  12   18.40    6.20 
   0   5  12   24.80    6.30 
   0   5  12    9.60    4.40 
   1  -5  12   20.90    6.60 
   1  -5  12   22.70    5.30 
  -1  -5 -12   29.40    6.80 
   1   5  12   17.00    5.50 
   1   5  12   11.50    6.00 
   1   5  12    5.90    4.90 
  -1   5 -12    2.70    5.30 
   2  -5  12   53.89    8.70 
   2  -5  12   50.79   11.30 
  -2  -5 -12   57.79    9.50 
  -2   5 -12   65.99   11.10 
   2   5  12   47.40   11.90 
   2   5  12   45.20   11.20 
   2   5  12   46.50    9.80 
  -3  -5 -12   37.50   10.80 
   3  -5  12   34.50   10.00 
   3  -5  12   52.69   10.10 
   3   5  12   44.80    9.10 
   3   5  12   37.50   11.40 
   3   5  12   21.20    9.90 
  -5  -6  12   67.89   10.70 
  -5  -6  12   55.79    9.60 
  -5  -6  12   55.29   13.30 
  -5   6  12   54.49   11.80 
  -5   6  12   71.59    9.10 
   4  -6 -12   51.49   11.10 
  -4  -6  12   43.20    8.60 
  -4  -6  12   35.30    8.50 
  -4  -6  12   46.70   10.60 
  -4   6  12   33.50    8.50 
  -4   6  12   40.40    7.50 
  -3  -6  12  169.68   16.50 
   3  -6 -12  154.18   20.00 
   3  -6 -12  160.28   14.20 
  -3   6  12  148.99   18.20 
  -3   6  12  145.99   16.80 
  -3   6  12  163.98   14.20 
   2  -6 -12   22.50    8.50 
   2  -6 -12   10.80    5.30 
  -2  -6  12   19.70    6.30 
  -2  -6  12   18.20    6.40 
   2   6 -12   13.60    6.90 
  -2   6  12   11.90    4.80 
  -2   6  12   27.10    7.30 
  -2   6  12   10.60    8.50 
  -1  -6  12   48.20    9.40 
  -1  -6  12   53.09   10.30 
   1  -6 -12   34.80   10.70 
   1  -6 -12   44.20    8.80 
  -1   6  12   67.79   14.70 
  -1   6  12   60.69   15.10 
   1   6 -12   62.99   12.10 
  -1   6  12   61.49    9.80 
   0  -6 -12  166.18   20.60 
   0  -6  12  142.79   14.80 
   0  -6  12  126.39   15.60 
   0   6  12  164.98   21.10 
   0   6 -12  159.58   18.10 
   0   6  12  127.79   16.20 
   0   6  12  140.49   17.50 
  -1  -6 -12   53.39   10.00 
  -1  -6 -12   74.89   14.90 
   1  -6  12   76.29   10.50 
   1  -6  12   63.49   12.50 
   1   6  12   65.59   14.10 
   1   6  12   67.39   11.60 
   1   6  12   67.49   12.90 
   2  -6  12   10.60    6.90 
  -2  -6 -12   17.80    7.40 
   2  -6  12   17.20    7.70 
   2   6  12   18.50    8.50 
   2   6  12    5.20    4.40 
   2   6  12   25.00    8.00 
  -3  -7  12   83.69   19.60 
   3  -7 -12  100.39   18.20 
   2  -7 -12  148.39   20.80 
  -2  -7  12  144.99   16.30 
  -2  -7  12  168.08   17.10 
  -2   7  12  164.88   20.40 
  -2   7  12  135.69   15.80 
  -1  -7  12  172.78   18.50 
   1  -7 -12  221.48   24.60 
  -1  -7  12  205.08   19.50 
  -1   7  12  184.88   19.10 
  -1   7  12  192.48   22.50 
  -7   0  13   26.40    6.00 
  -7   0  13   31.00    8.70 
  -6   0  13   62.49    9.20 
  -6   0  13   70.49    8.60 
  -6   0  13   70.59   11.50 
  -5   0  13  165.68   16.20 
  -5   0  13  180.28   15.80 
  -5   0  13  212.48   18.00 
  -4   0  13  157.98   22.40 
  -4   0  13  229.38   18.80 
  -4   0  13  221.08   16.60 
  -3   0  13   87.09   10.60 
  -3   0  13   91.29    8.70 
  -3   0  13   73.99    9.90 
   3   0 -13   61.09   10.10 
  -2   0  13   27.80    5.00 
  -2   0  13   24.70    6.60 
   2   0 -13   16.20    9.30 
  -2   0  13   14.50    5.20 
  -1   0  13   85.99    9.00 
  -1   0  13  109.79   13.20 
   1   0 -13   74.49   10.00 
  -1   0  13  104.19   11.60 
   1   0 -13   98.09   11.30 
   0   0  13  257.77   23.60 
   0   0  13  210.18   27.60 
   0   0 -13  255.47   19.60 
   0   0 -13  294.77   21.90 
   0   0  13  267.47   19.30 
   1   0  13  228.88   18.00 
   1   0  13  247.28   23.70 
   1   0  13  233.48   20.30 
  -1   0 -13  224.88   17.70 
  -1   0 -13  242.58   19.70 
   2   0  13   72.39   15.20 
  -2   0 -13   85.39   10.00 
   2   0  13   73.59   10.40 
   2   0  13   77.19    9.10 
  -2   0 -13   85.49    9.00 
  -3   0 -13   30.80    6.80 
   3   0  13   20.10    6.50 
   3   0  13   23.40    6.10 
   3   0  13    8.70    6.00 
  -3   0 -13   28.80    5.40 
   4   0  13    3.00    4.60 
   4   0  13    8.40    5.20 
   4   0  13    2.10    5.00 
  -7  -1  13  466.85   37.10 
  -7  -1  13  414.26   33.10 
  -7  -1  13  453.85   36.20 
  -7   1  13  517.75   35.30 
  -7   1  13  494.95   34.40 
  -7   1  13  479.55   39.40 
  -6  -1  13  104.59   12.20 
  -6  -1  13  118.29   15.30 
  -6  -1  13  133.29   13.10 
  -6   1  13  124.69   13.70 
  -6   1  13  127.79   12.70 
  -6   1  13  106.19   12.30 
  -5  -1  13   10.90    4.70 
  -5  -1  13   10.00    5.40 
  -5  -1  13    7.20    3.60 
  -5   1  13    8.50    3.90 
  -5   1  13   15.60    5.00 
  -5   1  13   16.90    5.10 
  -4  -1  13  413.26   27.10 
  -4  -1  13  443.36   30.30 
  -4  -1  13  371.56   30.70 
  -4   1  13  368.86   28.40 
  -4   1  13  429.76   27.30 
  -4   1  13  338.87   29.00 
  -3  -1  13  663.93   41.90 
  -3  -1  13  650.83   38.30 
  -3  -1  13  556.34   40.90 
  -3   1  13  652.93   38.80 
  -3   1  13  590.44   41.20 
  -3   1  13  562.44   41.60 
   3   1 -13  559.14   41.70 
  -2  -1  13  878.71   48.90 
  -2  -1  13  865.11   53.59 
   2  -1 -13  792.12   52.09 
  -2  -1  13  814.32   52.49 
   2   1 -13  706.63   50.59 
   2   1 -13  747.63   53.39 
  -2   1  13  748.23   52.89 
  -2   1  13  787.82   53.19 
  -2   1  13  881.81   49.99 
   1  -1 -13   32.70    6.10 
  -1  -1  13   33.20    7.20 
  -1  -1  13   29.60    8.00 
  -1  -1  13   44.30    5.60 
  -1   1  13   25.10    7.30 
   1   1 -13   25.00    6.40 
  -1   1  13   32.70    7.30 
   1   1 -13   37.60    8.30 
   0  -1 -13   61.29    8.80 
   0  -1  13   61.99   11.90 
   0  -1  13   78.79    9.60 
   0  -1  13   59.99    7.20 
   0   1  13   72.59    8.70 
   0   1  13   80.89   10.20 
   0   1  13   58.59   12.20 
   0   1 -13   60.09    8.00 
   0   1 -13   76.59    9.60 
   1  -1  13  149.49   15.40 
   1  -1  13  173.18   13.70 
  -1  -1 -13  187.18   15.80 
   1  -1  13  148.29   18.10 
   1   1  13  154.28   16.40 
  -1   1 -13  163.18   13.60 
   1   1  13  173.68   14.90 
   1   1  13  184.88   19.80 
  -2  -1 -13   45.90    7.20 
   2  -1  13   36.20    7.50 
   2  -1  13   21.10    8.50 
   2   1  13   38.60   10.50 
  -2   1 -13   55.59    7.40 
   2   1  13   37.60    8.10 
  -3  -1 -13   30.70    5.70 
   3  -1  13   20.70    8.90 
   3   1  13   13.70    6.10 
   3   1  13   16.60    5.50 
   3   1  13   34.30    9.50 
  -3   1 -13   17.40    5.20 
   4  -1  13   36.80    8.00 
   4  -1  13   35.00   10.70 
   4   1  13   46.90    9.60 
   4   1  13   27.90    9.00 
   4   1  13   32.40    7.60 
  -7  -2  13   60.79   12.10 
  -7  -2  13   82.49   20.70 
  -7  -2  13   49.20    9.80 
  -7   2  13   85.49   10.60 
  -7   2  13   71.99   10.00 
  -7   2  13   76.89   10.50 
  -6  -2  13    5.80    4.00 
  -6  -2  13   16.50    7.30 
  -6  -2  13    8.80    4.90 
  -6   2  13    7.80    3.80 
  -6   2  13    2.30    3.70 
  -6   2  13    9.50    4.50 
  -5  -2  13  103.99   11.20 
  -5  -2  13   98.39   11.40 
  -5  -2  13   89.19   13.40 
  -5   2  13  111.49   10.60 
  -5   2  13   93.99   12.40 
  -5   2  13   92.99   11.50 
  -4  -2  13  111.19   10.80 
  -4  -2  13   88.39   15.10 
  -4  -2  13  123.99   13.40 
  -4   2  13  114.19   10.70 
  -4   2  13  101.19   12.80 
  -4   2  13   77.79   11.50 
  -3  -2  13   13.30    4.90 
  -3  -2  13   14.50    5.40 
  -3  -2  13    7.70    4.30 
  -3  -2  13   13.10    3.70 
  -3   2  13   15.30    5.50 
  -3   2  13   15.20    4.20 
   2  -2 -13   76.29    9.30 
  -2  -2  13   89.39    7.70 
  -2  -2  13   66.69    9.80 
  -2  -2  13   75.79   10.40 
  -2   2  13   59.19   13.50 
   2   2 -13   73.59    9.60 
   2   2 -13   72.59   11.80 
  -2   2  13   76.49    8.80 
  -2   2  13   84.49   13.00 
  -1  -2  13  335.37   20.80 
   1  -2 -13  307.47   23.60 
  -1  -2  13  306.07   24.10 
  -1  -2  13  316.97   25.70 
  -1   2  13  333.27   23.10 
   1   2 -13  314.87   25.70 
   1   2 -13  267.47   21.70 
  -1   2  13  308.97   25.50 
  -1   2  13  311.27   26.30 
   0  -2  13  220.28   15.40 
   0  -2  13  193.38   20.30 
   0  -2  13  194.38   18.20 
   0  -2 -13  221.08   18.40 
   0   2 -13  204.78   16.20 
   0   2  13  208.28   21.10 
   0   2  13  228.68   18.10 
   0   2 -13  240.48   20.50 
   0   2  13  228.78   20.40 
   1  -2  13    9.60    5.60 
   1  -2  13    1.20    2.60 
  -1  -2 -13    7.40    3.90 
   1   2  13    1.90    4.60 
   1   2  13    4.20    3.70 
   1   2  13   11.30    4.60 
  -1   2 -13    5.50    4.00 
  -2  -2 -13   15.70    5.10 
   2  -2  13   16.90    6.90 
   2  -2  13   14.20    4.90 
   2   2  13   17.10    5.00 
  -2   2 -13   25.10    5.70 
   2   2  13   26.70    9.10 
   2   2  13   33.60    7.80 
   3  -2  13   33.30    6.80 
  -3  -2 -13   27.70    6.00 
   3   2  13   37.00    8.00 
   3   2  13   28.60    9.80 
  -3   2 -13   46.30    8.40 
   3   2  13   31.30    8.50 
   4  -2  13   33.40   10.90 
   4   2  13   26.70    9.10 
   4   2  13   34.50    7.80 
  -7  -3  13   77.69   15.20 
  -7  -3  13   71.89   10.00 
  -7   3  13   53.19    9.90 
  -7   3  13   87.39   10.00 
  -7   3  13   81.99    9.90 
  -6  -3  13  145.39   15.70 
  -6  -3  13  170.38   16.10 
  -6   3  13  202.48   17.50 
  -6   3  13  150.68   16.50 
  -6   3  13  185.68   15.40 
  -5  -3  13    8.30    6.50 
   5  -3 -13   11.10    5.80 
  -5  -3  13    7.30    4.30 
  -5  -3  13    3.80    3.50 
  -5   3  13   14.60    5.00 
  -5   3  13    3.70    3.10 
  -5   3  13    3.40    3.20 
   4  -3 -13   37.70    8.30 
  -4  -3  13   34.00    8.20 
  -4  -3  13   34.60    7.10 
  -4  -3  13   27.80    7.30 
  -4   3  13   21.60    6.00 
  -4   3  13   46.40    6.60 
  -4   3  13   22.20    6.00 
  -3  -3  13    2.80    2.70 
  -3  -3  13    7.70    5.20 
  -3  -3  13   -1.50    3.50 
  -3  -3  13   -1.30    2.90 
   3  -3 -13   -4.80    3.70 
  -3   3  13    3.80    3.70 
  -3   3  13    5.90    3.60 
  -3   3  13    2.90    3.00 
   3   3 -13    2.90    3.70 
  -2  -3  13   42.60    5.10 
  -2  -3  13   35.80    7.50 
  -2  -3  13   36.20    7.90 
  -2  -3  13   39.50    7.90 
  -2   3  13   31.10    7.10 
  -2   3  13   24.90    7.30 
  -2   3  13   30.70    6.10 
   2   3 -13   44.70   12.00 
   1  -3 -13    7.40    3.40 
  -1  -3  13   11.00    4.30 
  -1  -3  13    8.20    4.50 
   1   3 -13    6.90    4.90 
  -1   3  13    8.50    4.60 
  -1   3  13    4.90    3.20 
  -1   3  13    7.00    4.70 
   0  -3  13   16.30    5.80 
   0  -3 -13   22.60    5.20 
   0  -3  13    9.20    5.00 
   0   3  13    9.00    5.10 
   0   3  13   16.00    6.30 
   0   3 -13   30.10    6.90 
   0   3  13   23.30    5.70 
   1  -3  13   37.20    9.00 
  -1  -3 -13   56.09    8.50 
   1  -3  13   46.50    8.30 
   1   3  13   31.50    9.50 
   1   3  13   60.09    8.50 
   1   3  13   50.59   10.00 
  -1   3 -13   52.49    9.30 
   2  -3  13   54.59   12.30 
  -2  -3 -13   84.79    9.00 
   2  -3  13   53.89    9.40 
   2   3  13   54.09   11.20 
   2   3  13   66.19   13.90 
  -2   3 -13   58.29   10.30 
   2   3  13   50.39    9.20 
   3  -3  13   12.40    5.20 
   3  -3  13   15.50    6.70 
   3   3  13   12.10    6.30 
   3   3  13   11.40    5.10 
   3   3  13   15.80    6.50 
  -3   3 -13   15.80    6.10 
  -6  -4  13  108.69   12.30 
  -6  -4  13   60.49   13.30 
   6  -4 -13   75.89   13.40 
  -6  -4  13   86.89   12.10 
  -6   4  13  102.19   10.60 
  -6   4  13   79.39    9.80 
  -6   4  13   76.99   12.70 
  -5  -4  13   42.30    7.70 
  -5  -4  13   37.80    8.20 
   5  -4 -13   36.50    9.10 
  -5  -4  13   37.30   12.30 
  -5   4  13   42.50    9.00 
  -5   4  13   45.70    8.10 
  -4  -4  13    2.50    3.40 
  -4  -4  13   16.00    5.00 
   4  -4 -13   12.00    5.00 
  -4  -4  13   10.40    5.70 
  -4   4  13   10.50    4.30 
  -4   4  13   16.70    4.90 
  -4   4  13   -1.30    4.00 
  -3  -4  13   17.30    4.40 
  -3  -4  13   15.40    5.50 
  -3  -4  13   21.00    6.20 
   3  -4 -13   16.80    5.30 
  -3  -4  13   15.10    6.20 
  -3   4  13   10.70    4.70 
  -3   4  13   18.30    5.40 
  -3   4  13   20.50    6.00 
  -2  -4  13  134.59   14.30 
  -2  -4  13  104.29   12.70 
   2  -4 -13  126.79   14.40 
  -2   4  13  114.89   14.60 
   2   4 -13  124.59   15.70 
  -2   4  13  115.69   13.60 
  -2   4  13  142.79   13.10 
  -1  -4  13   74.79    9.60 
  -1  -4  13   57.39    9.70 
   1  -4 -13   47.00    9.30 
   1   4 -13   43.30    8.60 
  -1   4  13   59.09    9.00 
  -1   4  13   82.59   13.70 
   0  -4 -13   99.89   12.00 
   0  -4  13  123.39   12.90 
   0  -4  13  114.39   14.20 
   0   4 -13   91.69   12.70 
   0   4  13  118.99   12.80 
   0   4  13  113.49   14.70 
   0   4  13   97.59   14.30 
  -1  -4 -13   45.40    8.10 
   1  -4  13   43.50   10.40 
   1  -4  13   37.90    7.80 
   1   4  13   49.50   10.40 
   1   4  13   53.49    8.10 
  -1   4 -13   38.40    9.70 
   1   4  13   40.00   10.10 
   2  -4  13    9.80    5.50 
  -2  -4 -13   11.30    4.10 
   2  -4  13    5.30    6.90 
  -2   4 -13    0.70    4.50 
   2   4  13    7.70    6.10 
   2   4  13    7.40    5.40 
   2   4  13   13.70    5.00 
   3  -4  13   70.19   15.10 
   3   4  13   56.89   12.10 
  -5  -5  13    5.70    4.80 
  -5  -5  13    2.80    6.10 
  -5  -5  13    2.30    3.90 
   5  -5 -13    9.30    8.30 
  -5   5  13    6.80    4.60 
  -5   5  13    9.80    4.50 
  -5   5  13    8.00    3.70 
  -4  -5  13    2.50    4.10 
  -4  -5  13   13.20    5.70 
   4  -5 -13   16.30    6.20 
  -4  -5  13   14.20    4.60 
  -4   5  13    4.20    4.70 
  -4   5  13   13.10    4.60 
  -3  -5  13  120.89   13.50 
  -3  -5  13  132.89   11.00 
  -3   5  13  133.49   16.20 
  -3   5  13  109.29   13.00 
  -2  -5  13   83.69   10.90 
  -2  -5  13   57.29   10.70 
   2  -5 -13   60.49   10.70 
  -2   5  13   67.69    9.80 
  -2   5  13   61.49   12.30 
   2   5 -13   93.09   14.20 
  -2   5  13   72.39   10.90 
  -1  -5  13   11.00    4.80 
  -1  -5  13    2.60    3.30 
  -1   5  13    9.30    4.10 
  -1   5  13    9.70    5.40 
  -1   5  13   14.60    6.10 
   1   5 -13    5.30    6.50 
   0  -5  13   -3.80    3.80 
   0   5  13    1.70    5.00 
   0   5 -13   -0.80    4.80 
   0   5  13    3.50    3.70 
   0   5  13   14.50    5.70 
   1  -5  13    9.50    4.60 
   1  -5  13    5.60    4.70 
  -1  -5 -13    9.10    5.40 
   1   5  13   17.10    7.40 
   1   5  13    7.10    4.80 
   1   5  13   16.30    7.30 
   2  -5  13   -3.00    4.10 
   2  -5  13    2.60    5.60 
   2   5  13    7.60    4.80 
   2   5  13    9.80    6.40 
   2   5  13   -0.20    5.20 
  -3  -6  13  106.69   13.60 
  -3  -6  13   79.49   17.80 
   3  -6 -13   97.99   16.90 
  -3   6  13   88.89   15.10 
  -3   6  13   71.59   11.10 
  -3   6  13   86.89   10.60 
   2  -6 -13   38.30    8.80 
  -2  -6  13   38.00    8.20 
  -2  -6  13   37.10    8.30 
   2  -6 -13   30.30   11.10 
  -2   6  13   45.30    9.30 
  -2   6  13   47.00   11.00 
  -2   6  13   37.60    8.20 
   1  -6 -13   27.20    9.90 
  -1  -6  13   41.20    8.60 
  -1  -6  13   50.59    9.70 
  -1   6  13   28.50    9.10 
  -1   6  13   38.20    8.10 
   0  -6  13   23.90    8.00 
   0  -6 -13   17.60    9.50 
   0  -6  13   31.40    8.30 
   0   6  13   26.90    7.00 
   0   6  13   23.90    9.50 
   0   6  13   32.30    7.80 
  -7   0  14   11.40    5.40 
  -7   0  14   13.10    5.50 
  -7   0  14   10.30    6.20 
  -6   0  14   62.69   10.20 
  -6   0  14   54.49    9.40 
  -6   0  14   44.50    8.40 
  -5   0  14   84.29    9.90 
  -5   0  14  108.79   11.90 
  -5   0  14   56.89    9.90 
  -4   0  14  250.47   20.90 
  -4   0  14  261.17   18.50 
  -4   0  14  198.58   20.00 
  -3   0  14    1.20    2.70 
  -3   0  14    0.70    2.60 
  -3   0  14   -0.50    3.20 
   2   0 -14   12.60    4.70 
  -2   0  14   14.70    5.90 
  -2   0  14   11.20    3.80 
  -2   0  14   13.90    4.40 
  -1   0  14  273.57   25.30 
   1   0 -14  279.77   23.60 
  -1   0  14  302.47   24.20 
   0   0  14  175.38   16.50 
   0   0  14  139.49   17.20 
   0   0  14  147.39   13.30 
   0   0 -14  154.38   15.80 
   1   0  14   31.50    7.80 
   1   0  14   35.50    6.60 
  -1   0 -14   37.30    7.10 
   1   0  14   41.70    9.70 
   2   0  14   32.10   10.50 
   2   0  14   32.80    7.80 
  -2   0 -14   29.30    6.10 
   2   0  14   30.40    6.20 
   3   0  14  146.79   17.50 
   3   0  14  175.08   18.60 
   3   0  14  156.68   20.70 
  -7  -1  14   99.89   15.40 
  -7  -1  14   73.99   12.20 
  -7  -1  14   77.89   10.50 
  -7   1  14   95.79   12.20 
  -7   1  14   73.09   11.00 
  -6  -1  14   42.20    7.90 
  -6  -1  14   44.30    8.50 
  -6  -1  14   69.99   11.20 
  -6   1  14   43.90    8.20 
  -6   1  14   52.39    8.70 
  -5  -1  14    3.90    4.40 
  -5  -1  14    4.10    3.40 
  -5  -1  14    2.60    4.00 
  -5   1  14    7.10    3.60 
  -5   1  14    3.90    3.50 
  -5   1  14    1.40    2.80 
  -4  -1  14   85.49   11.30 
  -4  -1  14   69.29   11.60 
  -4  -1  14   85.19    9.20 
  -4   1  14   91.19   11.10 
  -4   1  14   64.89   10.10 
  -4   1  14   85.09    9.10 
  -3  -1  14   65.59    7.50 
  -3  -1  14   54.89    9.80 
  -3  -1  14   61.29    9.40 
  -3   1  14   58.29    7.90 
  -3   1  14   51.99   10.40 
  -3   1  14   47.90    9.60 
  -2  -1  14   17.10    6.50 
  -2  -1  14   17.30    4.20 
   2  -1 -14   13.30    4.90 
  -2  -1  14   17.80    5.30 
   2   1 -14   12.40    5.50 
  -2   1  14   25.60    7.20 
  -2   1  14   22.20    7.00 
  -2   1  14   17.80    4.50 
  -1  -1  14   78.89    9.90 
  -1  -1  14   64.49   10.80 
  -1  -1  14   72.39    7.80 
   1   1 -14   58.99    8.80 
  -1   1  14   55.69   11.50 
   1   1 -14   63.59   10.50 
  -1   1  14   59.49   10.50 
  -1   1  14   72.49    8.70 
   0  -1  14  104.09   14.50 
   0  -1  14  112.69   13.30 
   0  -1  14  121.89   11.10 
   0  -1 -14  116.69   13.00 
   0   1 -14  120.59   11.70 
   0   1  14  133.69   14.60 
   0   1  14  128.29   12.30 
   0   1  14  120.99   15.60 
   0   1 -14  112.29   13.40 
  -1  -1 -14    7.60    3.10 
   1  -1  14   -2.40    2.90 
   1  -1  14    2.20    4.30 
   1  -1  14   -3.40    2.50 
   1   1  14    8.60    5.60 
  -1   1 -14    3.70    3.20 
   1   1  14    4.80    3.30 
   1   1  14    4.50    3.80 
   2  -1  14  158.68   16.40 
  -2  -1 -14  171.68   15.50 
  -2   1 -14  156.18   15.40 
   2   1  14  154.58   14.60 
   2   1  14  132.29   18.20 
   2   1  14  147.89   16.80 
   3  -1  14   67.69   14.50 
   3   1  14   56.99    9.60 
   3   1  14   42.10   11.60 
   3   1  14   39.50    9.60 
  -6  -2  14   12.10    5.30 
  -6  -2  14   42.10   11.10 
  -6  -2  14   21.60    6.10 
  -6   2  14   17.50    5.10 
  -6   2  14   28.70    6.80 
  -6   2  14   17.30    5.60 
  -5  -2  14   35.70    6.80 
  -5  -2  14   46.70    9.50 
  -5  -2  14   22.70    6.50 
  -5   2  14   30.10    6.90 
  -5   2  14   26.10    5.80 
  -5   2  14   32.70    7.10 
  -4  -2  14   24.80    5.30 
  -4  -2  14   28.10    6.60 
  -4  -2  14   38.80    8.30 
  -4   2  14   26.80    6.40 
  -4   2  14   18.50    6.50 
  -4   2  14   24.90    5.90 
  -3  -2  14  112.99   12.40 
  -3  -2  14  104.49   12.50 
  -3   2  14  101.99   13.00 
  -3   2  14   83.99   11.90 
  -3   2  14  113.79   10.90 
  -2  -2  14  157.98   15.40 
  -2  -2  14  168.28   12.50 
  -2  -2  14  146.39   16.40 
  -2   2  14  163.48   17.10 
   2   2 -14  143.89   16.30 
  -2   2  14  129.09   15.90 
  -2   2  14  168.08   14.10 
  -1  -2  14  182.78   19.00 
   1  -2 -14  173.38   17.20 
  -1  -2  14  188.58   17.80 
  -1  -2  14  203.98   14.60 
  -1   2  14  180.78   19.60 
  -1   2  14  191.18   19.40 
   1   2 -14  208.48   19.30 
  -1   2  14  200.68   16.40 
   0  -2  14    7.00    5.80 
   0  -2  14    2.30    4.50 
   0  -2 -14    9.40    4.20 
   0   2  14   14.40    4.60 
   0   2  14    9.20    5.50 
   0   2 -14    7.00    5.70 
   0   2  14    7.00    4.60 
   1  -2  14   16.00    5.00 
  -1  -2 -14   33.10    6.70 
   1  -2  14   22.70    7.70 
  -1   2 -14    8.80    5.20 
   1   2  14   28.80    7.00 
   1   2  14   23.80    8.10 
   1   2  14   17.90    5.30 
  -2  -2 -14    6.00    3.50 
   2  -2  14    2.20    6.60 
   2  -2  14    1.90    4.20 
   2   2  14    7.60    5.90 
   2   2  14   11.70    4.10 
   2   2  14    1.50    5.10 
  -2   2 -14    3.60    4.50 
   3  -2  14   43.30   12.40 
   3   2  14   60.79   13.70 
   3   2  14   54.29    9.90 
   3   2  14   53.79   10.90 
  -6  -3  14    8.50    4.80 
  -6  -3  14    1.80    6.30 
  -6  -3  14    9.10    4.90 
  -6   3  14   14.00    4.60 
  -6   3  14   12.00    4.80 
  -6   3  14    4.20    4.00 
  -5  -3  14   79.49   12.50 
  -5  -3  14   64.89   10.60 
  -5  -3  14   55.79    8.80 
  -5   3  14   60.49    8.80 
  -5   3  14   61.99    9.30 
  -5   3  14   54.89   10.20 
  -4  -3  14   45.70    7.00 
  -4  -3  14   39.20    8.20 
  -4  -3  14   34.30    8.60 
  -4   3  14   33.70    6.20 
  -4   3  14   23.10    6.40 
  -4   3  14   36.90    8.30 
  -3  -3  14   81.49   10.80 
  -3  -3  14   85.59    8.40 
  -3  -3  14   83.19   10.90 
  -3   3  14   99.29   12.30 
  -3   3  14   69.59   10.40 
  -3   3  14   75.39    9.50 
  -2  -3  14   63.79   10.90 
  -2  -3  14   61.79   11.30 
  -2  -3  14   61.49    6.40 
  -2  -3  14   50.79    8.70 
  -2   3  14   62.19    8.60 
  -2   3  14   57.19   10.60 
   2   3 -14   63.29   11.50 
  -2   3  14   44.00    9.30 
  -1  -3  14    8.80    5.00 
   1  -3 -14    1.50    4.40 
  -1  -3  14    6.70    3.90 
  -1   3  14   13.10    5.60 
   1   3 -14   15.60    5.00 
  -1   3  14    8.90    5.30 
  -1   3  14    8.00    4.00 
   0  -3 -14   13.60    5.30 
   0  -3  14   13.20    5.90 
   0   3  14   21.10    7.20 
   0   3 -14   22.50    5.90 
   0   3  14   19.60    5.20 
   0   3  14   23.10    8.10 
   1  -3  14   57.29   14.90 
  -1  -3 -14   74.99   11.80 
   1  -3  14   77.29   10.70 
   1   3  14   95.89   13.20 
  -1   3 -14   78.89   13.30 
   1   3  14   81.49   10.70 
   1   3  14   85.99   13.60 
   2  -3  14   76.69   15.30 
   2   3  14   83.69   14.00 
   2   3  14   69.29   10.60 
  -5  -4  14    9.60    4.40 
  -5  -4  14    0.60    4.60 
  -5  -4  14    2.20    4.00 
  -5   4  14    2.30    3.40 
  -5   4  14   -5.40    3.70 
  -5   4  14    2.80    3.70 
  -4  -4  14   31.00    8.20 
  -4  -4  14   31.90    6.10 
  -4  -4  14   22.90    5.50 
  -4   4  14   10.20    5.40 
  -4   4  14   21.00    6.00 
  -4   4  14   23.40    5.50 
  -3  -4  14    8.00    3.90 
  -3  -4  14    5.50    4.50 
  -3  -4  14   11.20    3.30 
  -3  -4  14   -1.60    5.90 
  -3   4  14   10.90    4.70 
  -2  -4  14   97.19   11.80 
  -2  -4  14   93.19   20.90 
  -2   4  14   98.89   14.00 
   2   4 -14   76.69   13.20 
  -2   4  14   89.29   11.20 
  -2   4  14   82.29   12.50 
  -1  -4  14   30.90    7.80 
  -1  -4  14   21.60   10.40 
  -1   4  14   32.20    8.80 
  -1   4  14   20.40    6.50 
  -1   4  14   34.20    7.00 
   1   4 -14   26.50    7.50 
   0  -4  14   46.50   10.00 
   0  -4 -14   57.39    9.30 
   0   4  14   42.60   10.70 
   0   4  14   59.39   12.60 
   0   4 -14   80.29   13.10 
   0   4  14   53.39    9.90 
   1  -4  14   19.00    8.10 
   1  -4  14   14.00    6.20 
   1   4  14   35.60    9.90 
   1   4  14   35.90    9.00 
   1   4  14   35.70    7.90 
  -4  -5  14   87.49    9.20 
  -4  -5  14   72.89   10.40 
  -4  -5  14   87.49   13.80 
  -4   5  14   55.99   10.10 
  -4   5  14   64.59   12.40 
  -4   5  14   53.59    9.70 
  -3  -5  14  148.29   16.30 
  -3  -5  14  140.39   16.20 
  -3  -5  14  161.58   21.10 
   3  -5 -14  144.79   16.10 
  -3   5  14  132.79   17.50 
  -3   5  14  118.79   14.70 
  -3   5  14  140.09   14.20 
  -2  -5  14   75.59   11.50 
  -2  -5  14   73.09   11.90 
  -2   5  14   68.59   13.90 
  -2   5  14   78.39   10.40 
  -2   5  14   83.49   15.20 
  -1  -5  14    8.20    4.90 
  -1  -5  14    6.00    4.30 
  -1   5  14    7.60    4.80 
  -1   5  14    1.70    5.20 
   0  -5  14   15.70    5.90 
   0  -5  14    6.10    5.00 
   0   5  14   11.30    6.60 
   0   5  14    0.80    5.30 
   0   5  14    1.40    4.30 
  -6   0  15  153.98   15.80 
  -6   0  15  148.19   14.00 
  -6   0  15   92.89   20.00 
  -5   0  15   -5.20    2.10 
  -5   0  15   -2.20    2.80 
  -5   0  15    1.80    4.00 
  -4   0  15    0.50    3.00 
  -4   0  15    1.00    2.70 
  -4   0  15   -1.90    3.20 
  -3   0  15  607.04   43.40 
  -3   0  15  666.93   39.80 
  -3   0  15  561.74   43.20 
  -2   0  15  610.54   38.90 
  -2   0  15  580.24   43.60 
  -2   0  15  622.84   43.30 
  -1   0  15  353.26   27.60 
  -1   0  15  294.07   27.80 
   1   0 -15  329.27   26.80 
  -1   0  15  336.67   23.60 
   0   0  15   34.60    7.90 
   0   0 -15   22.90    5.90 
   0   0  15   32.60    6.00 
   0   0  15   28.30    8.20 
   1   0  15   27.10    9.20 
  -1   0 -15   15.90    5.60 
   1   0  15   21.50    7.00 
   1   0  15   13.80    5.00 
   2   0  15  165.18   18.20 
   2   0  15  159.68   15.50 
   2   0  15  176.68   21.10 
  -6  -1  15  138.09   15.00 
  -6  -1  15   97.49   14.40 
  -6  -1  15  132.69   15.40 
  -6   1  15  121.69   13.80 
  -6   1  15  106.99   15.00 
  -6   1  15  157.68   13.70 
  -5  -1  15   20.90    6.90 
  -5  -1  15   27.20    7.20 
  -5  -1  15   27.60    6.10 
  -5   1  15   21.00    5.80 
  -5   1  15   33.80    7.70 
  -4  -1  15  220.78   21.10 
  -4  -1  15  246.88   18.50 
  -4  -1  15  259.97   22.20 
  -4   1  15  219.68   21.60 
  -4   1  15  221.38   20.90 
  -4   1  15  263.77   19.10 
  -3  -1  15   57.79    7.50 
  -3  -1  15   58.19   14.00 
  -3  -1  15   49.40   10.10 
  -3   1  15   53.19    8.10 
  -3   1  15   63.79   11.30 
  -3   1  15   44.90    9.80 
  -2  -1  15   23.60    7.20 
  -2  -1  15   44.80    6.30 
  -2  -1  15   26.70    7.50 
  -2   1  15   40.20    9.50 
  -2   1  15   26.30    7.30 
  -2   1  15   38.70    6.90 
   1  -1 -15   42.30    8.50 
  -1  -1  15   31.20    9.30 
  -1  -1  15   41.80    8.90 
  -1   1  15   32.80    8.30 
  -1   1  15   35.20    6.40 
  -1   1  15   37.10    9.60 
   1   1 -15   32.70    8.80 
   0  -1 -15   30.00    7.20 
   0  -1  15   30.80   12.50 
   0  -1  15   25.70    5.20 
   0  -1  15   30.00    6.70 
   0   1 -15   28.80    6.90 
   0   1  15   33.70    8.10 
   0   1  15   31.50    6.30 
   0   1 -15   15.10    6.30 
   0   1  15   20.20    7.80 
   1  -1  15   29.60    8.80 
   1  -1  15   25.10    7.20 
   1  -1  15   30.90    6.10 
  -1  -1 -15   34.90    9.70 
  -1   1 -15   30.70    6.10 
   1   1  15   16.60    7.50 
   1   1  15   31.00    6.70 
   2  -1  15   18.30    7.70 
   2  -1  15   21.00    7.10 
   2   1  15   21.80    8.90 
   2   1  15   24.30    6.60 
   2   1  15   45.70   10.30 
  -5  -2  15   60.69    9.20 
  -5  -2  15   81.19   11.60 
  -5  -2  15   79.69   10.50 
  -5   2  15   53.69   11.00 
  -5   2  15   75.79    9.40 
  -5   2  15   61.49    9.80 
  -4  -2  15   12.50    5.70 
  -4  -2  15   15.00    6.70 
  -4  -2  15   25.40    5.40 
  -4   2  15   17.90    5.90 
  -4   2  15   13.80    6.10 
  -4   2  15   18.60    4.90 
  -3  -2  15  176.58   13.00 
  -3  -2  15  173.38   18.50 
  -3   2  15  122.49   15.90 
  -3   2  15  136.69   13.70 
  -3   2  15  146.69   17.20 
  -2  -2  15  104.49   15.00 
  -2  -2  15  130.79   11.50 
  -2  -2  15  113.29   13.60 
  -2   2  15  109.89   12.00 
  -2   2  15   96.39   14.00 
  -2   2  15  106.89   14.80 
  -1  -2  15   12.80    5.60 
  -1  -2  15   17.60    4.10 
   1   2 -15   12.80    4.50 
  -1   2  15   15.90    6.10 
  -1   2  15   13.60    6.20 
   1   2 -15   19.80    7.40 
  -1   2  15   14.40    4.30 
   0  -2 -15   18.90    6.30 
   0  -2  15   16.90    7.40 
   0  -2  15    8.50    5.30 
   0   2 -15   20.60    7.30 
   0   2  15   14.30    5.20 
   0   2  15   17.90    6.80 
   0   2  15    5.10    5.10 
   1  -2  15   11.20    6.20 
   1  -2  15    8.00    4.40 
   1   2  15   10.90    5.00 
   1   2  15    5.60    5.40 
  -5  -3  15   59.89   10.40 
  -4  -3  15   51.19   10.30 
  -4  -3  15   41.20    8.70 
  -4  -3  15   63.39    7.70 
  -4   3  15   50.69    7.90 
  -4   3  15   45.90    9.50 
  -4   3  15   35.30    8.20 
  -3  -3  15   41.70    8.70 
  -3  -3  15   49.10    9.00 
  -3  -3  15   44.20    6.20 
  -3   3  15   36.30    8.80 
  -3   3  15   29.50    8.00 
  -2  -3  15   24.20    4.70 
  -2  -3  15   17.80    6.70 
  -2  -3  15   39.40    8.30 
  -2  -3  15   36.40    8.10 
  -2   3  15   21.70    6.10 
  -2   3  15   27.50    8.00 
  -2   3  15   22.60    6.30 
  -1  -3  15   12.60    6.40 
  -1  -3  15   26.90    7.10 
   1   3 -15   24.90    8.20 
  -1   3  15   26.80    7.40 
  -1   3  15   13.50    6.00 
  -1   3  15   24.40    6.20 
   0  -3  15   33.40    9.10 
   0  -3 -15   44.40    8.30 
   0   3  15   51.19   10.90 
   0   3  15   32.70    7.20 
   0   3  15   38.70   10.60 
   1  -3  15    9.30    6.10 
   1  -3  15    5.80    5.40 
   1   3  15   30.80   11.70 
   1   3  15   -0.20    5.30 
   1   3  15   -0.80    4.20 
  -3  -4  15    4.30    4.60 
  -3  -4  15    5.10    4.70 
  -3   4  15    8.90    5.20 
  -3   4  15    8.50    6.30 
  -3   4  15   13.70    4.70 
  -2  -4  15    8.10    5.80 
  -2  -4  15   35.80    7.70 
  -2   4  15   20.10    7.60 
  -2   4  15   19.00    7.40 
  -2   4  15   15.50    6.10 
  -1  -4  15   16.20    6.70 
  -1  -4  15   24.40    7.70 
  -1   4  15   21.40    5.90 
  -1   4  15   22.00    8.00 
  -1   4  15   17.00    6.90 
  -4   0  16   34.80    6.50 
  -4   0  16   43.30    9.10 
  -3   0  16   55.79    8.30 
  -3   0  16   45.70   10.00 
  -3   0  16   71.09   18.70 
  -2   0  16   78.49   22.10 
  -2   0  16   72.59    9.40 
  -2   0  16   91.09   12.70 
  -1   0  16    3.60    3.20 
  -1   0  16   -3.10    4.50 
  -1   0  16    5.10    5.60 
   0   0  16  119.29   11.90 
   0   0  16  102.19   15.70 
   0   0  16   89.99   14.50 
  -4  -1  16  114.89   10.90 
  -4  -1  16   75.19   12.30 
  -4  -1  16   84.09   12.30 
  -4   1  16   98.39   13.10 
  -4   1  16  105.39   13.80 
  -3  -1  16   45.70    7.20 
  -3  -1  16   34.90    8.90 
  -3  -1  16   49.60    9.40 
  -3   1  16   33.10    8.30 
  -3   1  16   34.30    7.90 
  -3   1  16   44.70    7.50 
  -2  -1  16    6.90    5.60 
  -2  -1  16    5.20    3.20 
  -2  -1  16    3.40    5.20 
  -2   1  16    4.10    3.70 
  -2   1  16    3.40    4.20 
  -2   1  16   -4.30    4.40 
  -1  -1  16   85.19    8.80 
  -1  -1  16   48.00    9.90 
  -1  -1  16   58.29   12.60 
   1   1 -16   51.19   12.90 
  -1   1  16   64.89    9.40 
   0  -1  16   90.89   15.10 
   0  -1  16   89.69   10.70 
   0  -1  16   97.49   13.60 
   0   1  16  105.59   11.50 
   0   1  16   75.09   15.00 
   0   1  16  104.19   14.50 
  -3  -2  16   22.80    7.40 
  -3  -2  16   21.20    6.90 
  -3  -2  16   30.90    5.70 
  -3   2  16   19.80    6.50 
  -3   2  16   34.60    7.50 
  -3   2  16   19.80    7.30 
  -2  -2  16   32.50    8.50 
  -2  -2  16   33.00    7.70 
  -2  -2  16   34.20    5.60 
  -2   2  16   26.40    6.60 
  -2   2  16   39.20    8.60 
  -2   2  16   21.60    8.30 
  -1  -2  16   10.60    5.60 
  -1  -2  16    1.50    4.70 
  -1  -2  16   -0.20    3.40 
  -1   2  16    5.60    6.50 
  -1   2  16    3.90    4.50 
  -1   2  16    5.90    3.40 
   0   0   0    0.00    0.00 
  
_computing_structure_solution     'SHELXT 2014/5 (Sheldrick, 2014)' 
;
_shelx_hkl_checksum              38102
loop_
_space_group_symop_operation_xyz
'x, y, z'
'-x, y+1/2, -z'
loop_
_atom_site_label
_atom_site_type_symbol
_atom_site_fract_x
_atom_site_fract_y
_atom_site_fract_z
_atom_site_U_iso_or_equiv
_atom_site_adp_type
_atom_site_occupancy
_atom_site_site_symmetry_order
_atom_site_calc_flag
_atom_site_refinement_flags_posn
_atom_site_refinement_flags_adp
S1 S 0.11718(6) 0.75892(7) 0.58186(4) 0.03940(19) Uani 1 1 d . .
O1 O -0.0210(2) 0.7890(3) 0.49234(15) 0.0579(5) Uani 1 1 d . .
O2 O 0.1620(2) 0.8864(2) 0.66037(16) 0.0544(5) Uani 1 1 d . .
N1 N 0.0668(2) 0.5926(3) 0.64085(16) 0.0409(4) Uani 1 1 d . .
C1 C 0.2986(3) 0.7045(3) 0.53201(17) 0.0384(5) Uani 1 1 d . .
C2 C 0.2863(3) 0.6994(3) 0.42165(19) 0.0502(6) Uani 1 1 d . .
H2 H 0.1829 0.7197 0.3750 0.060 Uiso 1 1 calc R U
C3 C 0.4307(4) 0.6636(4) 0.3822(2) 0.0602(7) Uani 1 1 d . .
H3 H 0.4247 0.6591 0.3084 0.072 Uiso 1 1 calc R U
C4 C 0.5827(4) 0.6349(4) 0.4518(2) 0.0592(7) Uani 1 1 d . .
H4 H 0.6799 0.6139 0.4247 0.071 Uiso 1 1 calc R U
C5 C 0.5925(3) 0.6368(4) 0.5616(2) 0.0524(6) Uani 1 1 d . .
H5 H 0.6963 0.6150 0.6075 0.063 Uiso 1 1 calc R U
C6 C 0.4506(3) 0.6707(3) 0.60517(18) 0.0390(5) Uani 1 1 d . .
C7 C 0.4649(3) 0.6760(3) 0.72388(18) 0.0412(5) Uani 1 1 d . .
C8 C 0.6029(3) 0.7603(4) 0.7854(2) 0.0567(6) Uani 1 1 d . .
H8 H 0.6822 0.8104 0.7515 0.068 Uiso 1 1 calc R U
C9 C 0.6238(4) 0.7709(5) 0.8959(2) 0.0716(8) Uani 1 1 d . .
H9 H 0.7174 0.8264 0.9359 0.086 Uiso 1 1 calc R U
C10 C 0.5062(4) 0.6994(5) 0.9461(2) 0.0738(9) Uani 1 1 d . .
H10 H 0.5184 0.7082 1.0204 0.089 Uiso 1 1 calc R U
C11 C 0.3692(3) 0.6140(4) 0.88629(19) 0.0547(6) Uani 1 1 d . .
H11 H 0.2907 0.5645 0.9212 0.066 Uiso 1 1 calc R U
C12 C 0.3467(3) 0.6006(3) 0.77567(17) 0.0385(5) Uani 1 1 d . .
C13 C 0.2027(3) 0.4940(3) 0.71188(16) 0.0349(5) Uani 1 1 d . .
H13 H 0.2532 0.4205 0.6653 0.042 Uiso 1 1 calc R U
C14 C 0.1129(3) 0.3842(3) 0.77952(16) 0.0393(5) Uani 1 1 d . .
C15 C 0.1564(4) 0.2193(3) 0.79406(19) 0.0511(6) Uani 1 1 d . .
H15 H 0.2440 0.1766 0.7641 0.061 Uiso 1 1 calc R U
C16 C 0.0718(5) 0.1156(4) 0.8526(2) 0.0744(9) Uani 1 1 d . .
H16 H 0.1021 0.0039 0.8615 0.089 Uiso 1 1 calc R U
C17 C -0.0569(5) 0.1777(5) 0.8977(3) 0.0786(11) Uani 1 1 d . .
H17 H -0.1136 0.1082 0.9373 0.094 Uiso 1 1 calc R U
C18 C -0.1019(5) 0.3424(5) 0.8840(3) 0.0715(10) Uani 1 1 d . .
H18 H -0.1884 0.3846 0.9151 0.086 Uiso 1 1 calc R U
C19 C -0.0194(4) 0.4454(4) 0.8246(2) 0.0544(6) Uani 1 1 d . .
H19 H -0.0521 0.5564 0.8145 0.065 Uiso 1 1 calc R U
H1 H 0.002(4) 0.523(4) 0.591(2) 0.050(7) Uiso 1 1 d . .
loop_
_atom_site_aniso_label
_atom_site_aniso_U_11
_atom_site_aniso_U_22
_atom_site_aniso_U_33
_atom_site_aniso_U_23
_atom_site_aniso_U_13
_atom_site_aniso_U_12
S1 0.0361(3) 0.0381(3) 0.0460(3) 0.0062(2) 0.01321(19) 0.0064(2)
O1 0.0416(8) 0.0693(13) 0.0613(9) 0.0237(10) 0.0072(7) 0.0121(9)
O2 0.0631(11) 0.0393(9) 0.0677(11) -0.0061(8) 0.0297(9) 0.0046(8)
N1 0.0349(9) 0.0425(10) 0.0437(10) 0.0055(9) 0.0044(8) -0.0029(8)
C1 0.0377(10) 0.0358(10) 0.0437(11) 0.0020(8) 0.0130(8) 0.0022(8)
C2 0.0532(13) 0.0553(14) 0.0434(12) 0.0024(10) 0.0129(10) 0.0040(11)
C3 0.0759(18) 0.0634(17) 0.0489(14) -0.0019(12) 0.0306(13) 0.0036(14)
C4 0.0582(15) 0.0590(16) 0.0701(17) 0.0056(13) 0.0362(13) 0.0120(13)
C5 0.0402(11) 0.0550(15) 0.0655(15) 0.0055(12) 0.0190(10) 0.0055(11)
C6 0.0360(10) 0.0346(11) 0.0481(12) 0.0014(9) 0.0122(8) -0.0003(8)
C7 0.0356(10) 0.0404(11) 0.0458(12) -0.0017(9) 0.0045(8) -0.0018(9)
C8 0.0452(12) 0.0578(14) 0.0640(13) -0.0032(16) 0.0036(10) -0.0129(14)
C9 0.0648(16) 0.081(2) 0.0600(14) -0.0120(18) -0.0081(12) -0.0264(18)
C10 0.083(2) 0.091(2) 0.0413(13) -0.0145(14) -0.0015(13) -0.0255(18)
C11 0.0599(15) 0.0635(16) 0.0398(12) -0.0056(12) 0.0079(11) -0.0136(13)
C12 0.0391(10) 0.0379(11) 0.0371(10) -0.0024(9) 0.0043(8) -0.0018(9)
C13 0.0377(11) 0.0351(11) 0.0321(9) -0.0011(8) 0.0074(8) 0.0002(8)
C14 0.0447(12) 0.0418(12) 0.0312(10) -0.0028(9) 0.0071(8) -0.0079(10)
C15 0.0718(16) 0.0407(14) 0.0425(11) 0.0001(10) 0.0155(11) -0.0026(11)
C16 0.124(3) 0.0492(16) 0.0539(16) 0.0067(13) 0.0259(18) -0.0188(18)
C17 0.109(3) 0.079(2) 0.0550(17) 0.0031(16) 0.0339(18) -0.040(2)
C18 0.0716(19) 0.094(3) 0.0577(17) -0.0072(17) 0.0341(15) -0.0224(19)
C19 0.0575(15) 0.0586(16) 0.0523(14) -0.0018(12) 0.0232(12) -0.0046(12)
loop_
_atom_type_symbol
_atom_type_description
_atom_type_scat_dispersion_real
_atom_type_scat_dispersion_imag
_atom_type_scat_source
C C 0.0033 0.0016 'International Tables Vol C Tables 4.2.6.8 and 6.1.1.4'
H H 0.0000 0.0000 'International Tables Vol C Tables 4.2.6.8 and 6.1.1.4'
N N 0.0061 0.0033 'International Tables Vol C Tables 4.2.6.8 and 6.1.1.4'
O O 0.0106 0.0060 'International Tables Vol C Tables 4.2.6.8 and 6.1.1.4'
S S 0.1246 0.1234 'International Tables Vol C Tables 4.2.6.8 and 6.1.1.4'
loop_
_geom_angle_atom_site_label_1
_geom_angle_atom_site_label_2
_geom_angle_atom_site_label_3
_geom_angle
O2 S1 O1 118.51(12)
O2 S1 N1 108.63(11)
O1 S1 N1 106.16(11)
O2 S1 C1 108.76(11)
O1 S1 C1 108.63(11)
N1 S1 C1 105.37(10)
C13 N1 S1 119.64(14)
C13 N1 H1 109.5(18)
S1 N1 H1 109.9(17)
C2 C1 C6 122.6(2)
C2 C1 S1 118.58(17)
C6 C1 S1 118.86(16)
C3 C2 C1 118.7(2)
C3 C2 H2 120.6
C1 C2 H2 120.6
C4 C3 C2 120.2(2)
C4 C3 H3 119.9
C2 C3 H3 119.9
C3 C4 C5 120.5(2)
C3 C4 H4 119.7
C5 C4 H4 119.7
C4 C5 C6 121.4(2)
C4 C5 H5 119.3
C6 C5 H5 119.3
C5 C6 C1 116.6(2)
C5 C6 C7 120.5(2)
C1 C6 C7 122.88(19)
C8 C7 C12 119.0(2)
C8 C7 C6 118.0(2)
C12 C7 C6 123.00(19)
C9 C8 C7 121.2(3)
C9 C8 H8 119.4
C7 C8 H8 119.4
C10 C9 C8 119.7(2)
C10 C9 H9 120.2
C8 C9 H9 120.2
C9 C10 C11 119.9(2)
C9 C10 H10 120.1
C11 C10 H10 120.1
C10 C11 C12 121.4(3)
C10 C11 H11 119.3
C12 C11 H11 119.3
C11 C12 C7 118.9(2)
C11 C12 C13 120.6(2)
C7 C12 C13 120.31(18)
N1 C13 C14 106.09(17)
N1 C13 C12 113.79(18)
C14 C13 C12 114.92(17)
N1 C13 H13 107.2
C14 C13 H13 107.2
C12 C13 H13 107.2
C15 C14 C19 118.6(2)
C15 C14 C13 120.0(2)
C19 C14 C13 121.3(2)
C14 C15 C16 120.9(3)
C14 C15 H15 119.6
C16 C15 H15 119.6
C17 C16 C15 120.0(3)
C17 C16 H16 120.0
C15 C16 H16 120.0
C18 C17 C16 119.9(3)
C18 C17 H17 120.1
C16 C17 H17 120.1
C17 C18 C19 120.3(4)
C17 C18 H18 119.9
C19 C18 H18 119.9
C18 C19 C14 120.4(3)
C18 C19 H19 119.8
C14 C19 H19 119.8
loop_
_geom_bond_atom_site_label_1
_geom_bond_atom_site_label_2
_geom_bond_distance
S1 O2 1.4225(19)
S1 O1 1.4373(18)
S1 N1 1.622(2)
S1 C1 1.758(2)
N1 C13 1.493(3)
N1 H1 0.93(3)
C1 C2 1.385(3)
C1 C6 1.400(3)
C2 C3 1.383(4)
C2 H2 0.9300
C3 C4 1.372(4)
C3 H3 0.9300
C4 C5 1.381(4)
C4 H4 0.9300
C5 C6 1.391(3)
C5 H5 0.9300
C6 C7 1.489(3)
C7 C8 1.394(3)
C7 C12 1.398(3)
C8 C9 1.380(4)
C8 H8 0.9300
C9 C10 1.369(4)
C9 H9 0.9300
C10 C11 1.384(4)
C10 H10 0.9300
C11 C12 1.383(3)
C11 H11 0.9300
C12 C13 1.530(3)
C13 C14 1.513(3)
C13 H13 0.9800
C14 C15 1.372(4)
C14 C19 1.394(3)
C15 C16 1.383(4)
C15 H15 0.9300
C16 C17 1.373(5)
C16 H16 0.9300
C17 C18 1.372(6)
C17 H17 0.9300
C18 C19 1.377(4)
C18 H18 0.9300
C19 H19 0.9300
loop_
_geom_hbond_atom_site_label_D
_geom_hbond_atom_site_label_H
_geom_hbond_atom_site_label_A
_geom_hbond_distance_DH
_geom_hbond_distance_HA
_geom_hbond_distance_DA
_geom_hbond_angle_DHA
_geom_hbond_site_symmetry_A
N1 H1 O1 0.93(3) 2.17(3) 2.946(3) 140(2) 2_546
C13 H13 O1 0.98 2.66 3.165(3) 112.4 2_546
loop_
_geom_torsion_atom_site_label_1
_geom_torsion_atom_site_label_2
_geom_torsion_atom_site_label_3
_geom_torsion_atom_site_label_4
_geom_torsion
O2 S1 N1 C13 -72.38(19)
O1 S1 N1 C13 159.15(17)
C1 S1 N1 C13 44.03(19)
O2 S1 C1 C2 -129.8(2)
O1 S1 C1 C2 0.5(2)
N1 S1 C1 C2 113.9(2)
O2 S1 C1 C6 49.1(2)
O1 S1 C1 C6 179.42(18)
N1 S1 C1 C6 -67.2(2)
C6 C1 C2 C3 -1.6(4)
S1 C1 C2 C3 177.2(2)
C1 C2 C3 C4 -0.4(4)
C2 C3 C4 C5 1.8(5)
C3 C4 C5 C6 -1.2(5)
C4 C5 C6 C1 -0.7(4)
C4 C5 C6 C7 -178.6(3)
C2 C1 C6 C5 2.1(3)
S1 C1 C6 C5 -176.73(19)
C2 C1 C6 C7 180.0(2)
S1 C1 C6 C7 1.1(3)
C5 C6 C7 C8 44.5(3)
C1 C6 C7 C8 -133.2(3)
C5 C6 C7 C12 -135.5(3)
C1 C6 C7 C12 46.7(3)
C12 C7 C8 C9 -0.3(5)
C6 C7 C8 C9 179.7(3)
C7 C8 C9 C10 -0.8(6)
C8 C9 C10 C11 1.4(6)
C9 C10 C11 C12 -0.8(5)
C10 C11 C12 C7 -0.3(4)
C10 C11 C12 C13 175.0(3)
C8 C7 C12 C11 0.8(4)
C6 C7 C12 C11 -179.1(2)
C8 C7 C12 C13 -174.5(2)
C6 C7 C12 C13 5.5(3)
S1 N1 C13 C14 162.77(15)
S1 N1 C13 C12 35.4(2)
C11 C12 C13 N1 112.0(2)
C7 C12 C13 N1 -72.7(3)
C11 C12 C13 C14 -10.6(3)
C7 C12 C13 C14 164.7(2)
N1 C13 C14 C15 135.1(2)
C12 C13 C14 C15 -98.3(3)
N1 C13 C14 C19 -42.4(3)
C12 C13 C14 C19 84.3(3)
C19 C14 C15 C16 -0.3(4)
C13 C14 C15 C16 -177.8(2)
C14 C15 C16 C17 -0.4(5)
C15 C16 C17 C18 0.3(5)
C16 C17 C18 C19 0.6(6)
C17 C18 C19 C14 -1.3(5)
C15 C14 C19 C18 1.2(4)
C13 C14 C19 C18 178.6(2)
