#------------------------------------------------------------------------------
#$Date: 2019-11-24 08:38:38 +0200 (Sun, 24 Nov 2019) $
#$Revision: 237329 $
#$URL: file:///home/coder/svn-repositories/cod/cif/1/55/45/1554549.cif $
#------------------------------------------------------------------------------
#
# This file is available in the Crystallography Open Database (COD),
# http://www.crystallography.net/
#
# All data on this site have been placed in the public domain by the
# contributors.
#
data_1554549
loop_
_publ_author_name
'Liu, Xiong-Li'
'Yue, Jing'
'Chen, Shuang'
'Liu, Huan-Huan'
'Yang, Kai-Mo'
'Feng, Ting-Ting'
'Zhou, Ying'
_publ_section_title
;
 Thermal-mediated catalyst-free heterolytic cleavage of 3-halooxindoles:
 rapid access to 3-functionalized-2-oxindoles
;
_journal_issue                   2
_journal_name_full               'Organic Chemistry Frontiers'
_journal_page_first              256
_journal_paper_doi               10.1039/C8QO01222A
_journal_volume                  6
_journal_year                    2019
_chemical_formula_moiety         'C19 H16 N2 O'
_chemical_formula_sum            'C19 H16 N2 O'
_chemical_formula_weight         288.34
_space_group_crystal_system      triclinic
_space_group_IT_number           2
_space_group_name_Hall           '-P 1'
_space_group_name_H-M_alt        'P -1'
_atom_sites_solution_hydrogens   geom
_atom_sites_solution_primary     dual
_audit_creation_date             2018-01-22
_audit_creation_method
;
Olex2 1.2
(compiled 2017.08.10 svn.r3458 for OlexSys, GUI svn.r5381)
;
_audit_update_record
;
2018-11-04 deposited with the CCDC.
2018-12-05 downloaded from the CCDC.
;
_cell_angle_alpha                116.522(7)
_cell_angle_beta                 100.853(6)
_cell_angle_gamma                103.243(5)
_cell_formula_units_Z            2
_cell_length_a                   8.8020(5)
_cell_length_b                   9.9463(7)
_cell_length_c                   10.2130(8)
_cell_measurement_reflns_used    3261
_cell_measurement_temperature    100.00(10)
_cell_measurement_theta_max      28.8350
_cell_measurement_theta_min      2.4580
_cell_volume                     734.13(11)
_computing_cell_refinement       'CrysAlisPro 1.171.38.43f (Rigaku OD, 2015)'
_computing_data_collection       'CrysAlisPro 1.171.38.43f (Rigaku OD, 2015)'
_computing_data_reduction        'CrysAlisPro 1.171.38.43f (Rigaku OD, 2015)'
_computing_molecular_graphics    'Olex2 (Dolomanov et al., 2009)'
_computing_publication_material  'Olex2 (Dolomanov et al., 2009)'
_computing_structure_refinement  'ShelXL (Sheldrick, 2015)'
_computing_structure_solution    'ShelXT (Sheldrick, 2015)'
_diffrn_ambient_environment      N~2~
_diffrn_ambient_temperature      100.00(10)
_diffrn_detector                 'CCD plate'
_diffrn_detector_area_resol_mean 5.2684
_diffrn_detector_type            AtlasS2
_diffrn_measured_fraction_theta_full 1.000
_diffrn_measured_fraction_theta_max 0.835
_diffrn_measurement_details
;
List of Runs (angles in degrees, time in seconds):

  # Type    Start    End  Width  t~exp~   \w     \q     \k     \f   Frames
#--------------------------------------------------------------------------
  1  \w    -60.00  40.00   1.00    1.50    --   11.74 -57.00 150.00  100
  2  \w    -21.00  88.00   1.00    1.50    --   11.74  77.00  60.00  109
  3  \w    -16.00  85.00   1.00    1.50    --   11.74  57.00 -60.00  101
  4  \w     34.00  86.00   1.00    1.50    --   11.74-178.00 150.00   52
;
_diffrn_measurement_device       'four-circle diffractometer'
_diffrn_measurement_device_type  'SuperNova, Dual, Cu at zero, AtlasS2'
_diffrn_measurement_method       '\w scans'
_diffrn_orient_matrix_type
'CrysAlisPro convention (1999,Acta A55,543-557)'
_diffrn_orient_matrix_UB_11      -0.0666393000
_diffrn_orient_matrix_UB_12      -0.0634942000
_diffrn_orient_matrix_UB_13      -0.0667980000
_diffrn_orient_matrix_UB_21      -0.0511593000
_diffrn_orient_matrix_UB_22      0.0467735000
_diffrn_orient_matrix_UB_23      0.0174270000
_diffrn_orient_matrix_UB_31      0.0255692000
_diffrn_orient_matrix_UB_32      0.0325105000
_diffrn_orient_matrix_UB_33      -0.0448745000
_diffrn_radiation_monochromator  mirror
_diffrn_radiation_probe          x-ray
_diffrn_radiation_type           MoK\a
_diffrn_radiation_wavelength     0.71073
_diffrn_reflns_av_R_equivalents  0.0272
_diffrn_reflns_av_unetI/netI     0.0451
_diffrn_reflns_Laue_measured_fraction_full 1.000
_diffrn_reflns_Laue_measured_fraction_max 0.835
_diffrn_reflns_limit_h_max       11
_diffrn_reflns_limit_h_min       -11
_diffrn_reflns_limit_k_max       13
_diffrn_reflns_limit_k_min       -13
_diffrn_reflns_limit_l_max       13
_diffrn_reflns_limit_l_min       -11
_diffrn_reflns_number            7205
_diffrn_reflns_point_group_measured_fraction_full 1.000
_diffrn_reflns_point_group_measured_fraction_max 0.835
_diffrn_reflns_theta_full        25.242
_diffrn_reflns_theta_max         29.488
_diffrn_reflns_theta_min         2.364
_diffrn_source                   'micro-focus sealed X-ray tube'
_diffrn_source_type              'SuperNova (Mo) X-ray Source'
_exptl_absorpt_coefficient_mu    0.082
_exptl_absorpt_correction_T_max  1.00000
_exptl_absorpt_correction_T_min  0.48605
_exptl_absorpt_correction_type   multi-scan
_exptl_absorpt_process_details
;
CrysAlisPro 1.171.38.43f (Rigaku Oxford Diffraction, 2015)
Empirical absorption correction using spherical harmonics,
 implemented in SCALE3 ABSPACK scaling algorithm.
;
_exptl_crystal_colour            colourless
_exptl_crystal_colour_primary    colourless
_exptl_crystal_density_diffrn    1.304
_exptl_crystal_description       block
_exptl_crystal_F_000             304
_exptl_crystal_size_max          0.13
_exptl_crystal_size_mid          0.12
_exptl_crystal_size_min          0.11
_refine_diff_density_max         0.283
_refine_diff_density_min         -0.241
_refine_diff_density_rms         0.050
_refine_ls_extinction_method     none
_refine_ls_goodness_of_fit_ref   1.040
_refine_ls_hydrogen_treatment    constr
_refine_ls_matrix_type           full
_refine_ls_number_parameters     199
_refine_ls_number_reflns         3407
_refine_ls_number_restraints     0
_refine_ls_restrained_S_all      1.040
_refine_ls_R_factor_all          0.0591
_refine_ls_R_factor_gt           0.0480
_refine_ls_shift/su_max          0.000
_refine_ls_shift/su_mean         0.000
_refine_ls_structure_factor_coef Fsqd
_refine_ls_weighting_details
'w=1/[\s^2^(Fo^2^)+(0.0544P)^2^+0.2120P] where P=(Fo^2^+2Fc^2^)/3'
_refine_ls_weighting_scheme      calc
_refine_ls_wR_factor_gt          0.1137
_refine_ls_wR_factor_ref         0.1230
_reflns_Friedel_coverage         0.000
_reflns_number_gt                2774
_reflns_number_total             3407
_reflns_threshold_expression     'I > 2\s(I)'
_iucr_refine_instructions_details
;
TITL 71_a.res in P-1
    71.res
    created by SHELXL-2017/1 at 16:28:38 on 22-Jan-2018
REM Old TITL 71# in P-1
REM SHELXT solution in P-1
REM R1 0.119, Rweak 0.005, Alpha 0.037, Orientation as input
REM Formula found by SHELXT: C19 N2 O
CELL 0.71073 8.802 9.9463 10.213 116.522 100.853 103.243
ZERR 2 0.0005 0.0007 0.0008 0.007 0.006 0.005
LATT 1
SFAC C H N O
UNIT 38 32 4 2

L.S. 20
PLAN  20
BOND $H
list 4
fmap 2
ACTA
REM <olex2.extras>
REM <HklSrc "%.\\71.hkl">
REM </olex2.extras>

WGHT    0.054400    0.212000
FVAR       1.21568
O1    4    0.183075   -0.034052    0.576544    11.00000    0.01883    0.02195 =
         0.02801    0.01536    0.00984    0.00566
N1    3    0.467915    0.067231    0.667624    11.00000    0.01989    0.01953 =
         0.02329    0.01373    0.00800    0.00896
AFIX  43
H1    2    0.484411   -0.011523    0.674824    11.00000   -1.20000
AFIX   0
N2    3    0.115336    0.098881    0.354866    11.00000    0.01706    0.02244 =
         0.02169    0.01242    0.00784    0.00643
AFIX  43
H2    2    0.037065    0.069160    0.386281    11.00000   -1.20000
AFIX   0
C16   1    0.278795    0.182834    0.444900    11.00000    0.01582    0.01573 =
         0.02073    0.00964    0.00572    0.00622
C6    1    0.595902    0.208611    0.708904    11.00000    0.02063    0.01950 =
         0.01509    0.00826    0.00757    0.00759
C7    1    0.315603    0.070002    0.615183    11.00000    0.02008    0.01892 =
         0.01511    0.00914    0.00788    0.00798
C10   1    0.261931    0.484030    0.736581    11.00000    0.01539    0.02232 =
         0.02378    0.01294    0.00988    0.00869
C17   1    0.364314    0.207007    0.352569    11.00000    0.01812    0.02071 =
         0.02289    0.01347    0.00843    0.00760
AFIX  43
H17   2    0.477428    0.260949    0.383275    11.00000   -1.20000
AFIX   0
C8    1    0.339414    0.228767    0.613367    11.00000    0.01607    0.01804 =
         0.01955    0.01128    0.00726    0.00637
C1    1    0.526030    0.311208    0.682969    11.00000    0.01690    0.02269 =
         0.01630    0.01021    0.00636    0.00761
C2    1    0.628926    0.459174    0.717619    11.00000    0.02099    0.02145 =
         0.02360    0.01230    0.00730    0.00573
AFIX  43
H2A   2    0.584853    0.528700    0.700466    11.00000   -1.20000
AFIX   0
C19   1    0.095754    0.069575    0.207181    11.00000    0.02207    0.02455 =
         0.01859    0.01123    0.00353    0.00712
AFIX  43
H19   2   -0.003595    0.015133    0.124800    11.00000   -1.20000
AFIX   0
C15   1    0.200809    0.507818    0.614858    11.00000    0.01606    0.02201 =
         0.02115    0.01010    0.00558    0.00625
AFIX  43
H15   2    0.151503    0.420303    0.513998    11.00000   -1.20000
AFIX   0
C5    1    0.764737    0.248391    0.768652    11.00000    0.02105    0.02854 =
         0.01914    0.01193    0.00833    0.01301
AFIX  43
H5    2    0.808587    0.178407    0.785109    11.00000   -1.20000
AFIX   0
C14   1    0.213053    0.661174    0.643197    11.00000    0.01930    0.02646 =
         0.02740    0.01781    0.01007    0.01043
AFIX  43
H14   2    0.172063    0.675483    0.561378    11.00000   -1.20000
AFIX   0
C9    1    0.241101    0.317729    0.710647    11.00000    0.02031    0.02109 =
         0.02049    0.01201    0.01001    0.00937
AFIX  23
H9A   2    0.124419    0.251876    0.659477    11.00000   -1.20000
H9B   2    0.274234    0.326657    0.811170    11.00000   -1.20000
AFIX   0
C4    1    0.866243    0.397902    0.803105    11.00000    0.01681    0.03072 =
         0.02011    0.01004    0.00687    0.00684
AFIX  43
H4    2    0.980482    0.428431    0.843151    11.00000   -1.20000
AFIX   0
C3    1    0.800187    0.502564    0.778820    11.00000    0.02247    0.02364 =
         0.02393    0.01035    0.00825    0.00252
AFIX  43
H3    2    0.870489    0.602135    0.803485    11.00000   -1.20000
AFIX   0
C11   1    0.336835    0.617553    0.886179    11.00000    0.02850    0.02538 =
         0.02040    0.01280    0.00945    0.01091
AFIX  43
H11   2    0.379304    0.604033    0.968180    11.00000   -1.20000
AFIX   0
C18   1    0.247733    0.134316    0.201987    11.00000    0.02621    0.02524 =
         0.02211    0.01464    0.01056    0.01027
AFIX  43
H18   2    0.270520    0.131269    0.115610    11.00000   -1.20000
AFIX   0
C13   1    0.286205    0.792514    0.793097    11.00000    0.02385    0.01925 =
         0.03158    0.01388    0.01397    0.00897
AFIX  43
H13   2    0.293166    0.894690    0.812130    11.00000   -1.20000
AFIX   0
C12   1    0.349120    0.770914    0.914863    11.00000    0.03213    0.02224 =
         0.02232    0.00825    0.00997    0.00837
AFIX  43
H12   2    0.399380    0.858874    1.015413    11.00000   -1.20000
AFIX   0
HKLF 4




REM  71_a.res in P-1
REM R1 =  0.0480 for    2774 Fo > 4sig(Fo)  and  0.0591 for all    3407 data
REM    199 parameters refined using      0 restraints

END  
     
WGHT      0.0528      0.2153 

REM Highest difference peak  0.283,  deepest hole -0.241,  1-sigma level  0.050
Q1    1   0.3147  0.2107  0.5374  11.00000  0.05    0.28
Q2    1   0.5600  0.2794  0.7403  11.00000  0.05    0.26
Q3    1   0.4307  0.2832  0.6515  11.00000  0.05    0.25
Q4    1   0.3214  0.1551  0.6243  11.00000  0.05    0.23
Q5    1   0.5710  0.2456  0.6538  11.00000  0.05    0.22
Q6    1   0.3364  0.5518  0.8000  11.00000  0.05    0.21
Q7    1   0.2971  0.2846  0.6623  11.00000  0.05    0.20
Q8    1   0.8264  0.4210  0.7418  11.00000  0.05    0.19
Q9    1  -0.0720 -0.0160  0.1170  11.00000  0.05    0.19
Q10   1   0.5434  0.1400  0.6916  11.00000  0.05    0.19
Q11   1   0.6761  0.1990  0.6799  11.00000  0.05    0.18
Q12   1   0.6664  0.2364  0.7823  11.00000  0.05    0.18
Q13   1   0.7249  0.4612  0.7036  11.00000  0.05    0.18
Q14   1   0.8304  0.4657  0.8294  11.00000  0.05    0.17
Q15   1   0.3191  0.1797  0.2729  11.00000  0.05    0.17
Q16   1   0.7175  0.4814  0.7915  11.00000  0.05    0.17
Q17   1   0.1862  0.7056  0.7426  11.00000  0.05    0.16
Q18   1   0.0848 -0.0248  0.5371  11.00000  0.05    0.16
Q19   1   0.3094  1.0663  0.9241  11.00000  0.05    0.16
Q20   1   0.4576  0.5652  0.9783  11.00000  0.05    0.16

  REM The information below was added by Olex2.
  REM
  REM R1 = 0.0480 for 2774 Fo > 4sig(Fo) and 0.0591 for all 7205 data
  REM n/a parameters refined using n/a restraints
  REM Highest difference peak 0.28, deepest hole -0.24
  REM Mean Shift 0, Max Shift 0.000.

  REM +++ Tabular Listing of Refinement Information +++
  REM R1_all = 0.0591
  REM R1_gt = 0.0480
  REM wR_ref = 0.1230
  REM GOOF = 1.040
  REM Shift_max = 0.000
  REM Shift_mean = 0
  REM Reflections_all = 7205
  REM Reflections_gt = 2774
  REM Parameters = n/a
  REM Hole = -0.24
  REM Peak = 0.28
  REM Flack = n/a

  
;
_cod_data_source_file            c8qo01222a2.cif
_cod_data_source_block           71
_cod_original_cell_volume        734.13(10)
_cod_database_code               1554549
_shelx_shelxl_version_number     2017/1
_shelx_space_group_comment
;
The symmetry employed for this shelxl refinement is uniquely defined
by the following loop, which should always be used as a source of
symmetry information in preference to the above space-group names.
They are only intended as comments.
;
_reflns_odcompleteness_completeness 100.00
_reflns_odcompleteness_iscentric 1
_reflns_odcompleteness_theta     26.32
_olex2_refinement_description
;
1. Fixed Uiso
 At 1.2 times of:
  All C(H) groups, All C(H,H) groups, All N(H) groups
2.a Secondary CH2 refined with riding coordinates:
 C9(H9A,H9B)
2.b Aromatic/amide H refined with riding coordinates:
 N1(H1), N2(H2), C17(H17), C2(H2A), C19(H19), C15(H15), C5(H5), C14(H14),
 C4(H4), C3(H3), C11(H11), C18(H18), C13(H13), C12(H12)
;
_olex2_submission_special_instructions 'No special instructions were received'
_oxdiff_exptl_absorpt_empirical_details
;
Empirical correction (ABSPACK) includes:
- Absorption correction using spherical harmonics
- Frame scaling
- Detector area scaling
;
_oxdiff_exptl_absorpt_empirical_full_max 1.641
_oxdiff_exptl_absorpt_empirical_full_min 0.578
loop_
_space_group_symop_operation_xyz
'x, y, z'
'-x, -y, -z'
loop_
_atom_site_label
_atom_site_type_symbol
_atom_site_fract_x
_atom_site_fract_y
_atom_site_fract_z
_atom_site_U_iso_or_equiv
_atom_site_adp_type
_atom_site_occupancy
_atom_site_site_symmetry_order
_atom_site_calc_flag
_atom_site_refinement_flags_posn
O1 O 0.18307(12) -0.03405(12) 0.57654(12) 0.0218(3) Uani 1 1 d .
N1 N 0.46792(15) 0.06723(14) 0.66762(14) 0.0192(3) Uani 1 1 d .
H1 H 0.484411 -0.011523 0.674824 0.023 Uiso 1 1 calc R
N2 N 0.11534(15) 0.09888(14) 0.35487(14) 0.0198(3) Uani 1 1 d .
H2 H 0.037065 0.069160 0.386281 0.024 Uiso 1 1 calc R
C16 C 0.27879(17) 0.18283(16) 0.44490(17) 0.0172(3) Uani 1 1 d .
C6 C 0.59590(18) 0.20861(17) 0.70890(16) 0.0183(3) Uani 1 1 d .
C7 C 0.31560(17) 0.07000(17) 0.61518(16) 0.0173(3) Uani 1 1 d .
C10 C 0.26193(17) 0.48403(17) 0.73658(17) 0.0191(3) Uani 1 1 d .
C17 C 0.36431(18) 0.20701(17) 0.35257(17) 0.0192(3) Uani 1 1 d .
H17 H 0.477428 0.260949 0.383275 0.023 Uiso 1 1 calc R
C8 C 0.33941(17) 0.22877(16) 0.61337(16) 0.0169(3) Uani 1 1 d .
C1 C 0.52603(17) 0.31121(17) 0.68297(16) 0.0183(3) Uani 1 1 d .
C2 C 0.62893(18) 0.45917(18) 0.71762(17) 0.0221(3) Uani 1 1 d .
H2A H 0.584853 0.528700 0.700466 0.026 Uiso 1 1 calc R
C19 C 0.09575(19) 0.06958(18) 0.20718(17) 0.0224(3) Uani 1 1 d .
H19 H -0.003595 0.015133 0.124800 0.027 Uiso 1 1 calc R
C15 C 0.20081(17) 0.50782(18) 0.61486(18) 0.0204(3) Uani 1 1 d .
H15 H 0.151503 0.420303 0.513998 0.024 Uiso 1 1 calc R
C5 C 0.76474(18) 0.24839(19) 0.76865(17) 0.0219(3) Uani 1 1 d .
H5 H 0.808587 0.178407 0.785109 0.026 Uiso 1 1 calc R
C14 C 0.21305(18) 0.66117(18) 0.64320(18) 0.0219(3) Uani 1 1 d .
H14 H 0.172063 0.675483 0.561378 0.026 Uiso 1 1 calc R
C9 C 0.24110(18) 0.31773(17) 0.71065(17) 0.0191(3) Uani 1 1 d .
H9A H 0.124419 0.251876 0.659477 0.023 Uiso 1 1 calc R
H9B H 0.274234 0.326657 0.811170 0.023 Uiso 1 1 calc R
C4 C 0.86624(18) 0.39790(19) 0.80310(17) 0.0240(3) Uani 1 1 d .
H4 H 0.980482 0.428431 0.843151 0.029 Uiso 1 1 calc R
C3 C 0.80019(19) 0.50256(19) 0.77882(18) 0.0252(4) Uani 1 1 d .
H3 H 0.870489 0.602135 0.803485 0.030 Uiso 1 1 calc R
C11 C 0.33684(19) 0.61755(18) 0.88618(18) 0.0238(3) Uani 1 1 d .
H11 H 0.379304 0.604033 0.968180 0.029 Uiso 1 1 calc R
C18 C 0.24773(19) 0.13432(18) 0.20199(18) 0.0228(3) Uani 1 1 d .
H18 H 0.270520 0.131269 0.115610 0.027 Uiso 1 1 calc R
C13 C 0.28621(19) 0.79251(18) 0.79310(19) 0.0235(3) Uani 1 1 d .
H13 H 0.293166 0.894690 0.812130 0.028 Uiso 1 1 calc R
C12 C 0.3491(2) 0.77091(19) 0.91486(19) 0.0270(4) Uani 1 1 d .
H12 H 0.399380 0.858874 1.015413 0.032 Uiso 1 1 calc R
loop_
_atom_site_aniso_label
_atom_site_aniso_U_11
_atom_site_aniso_U_22
_atom_site_aniso_U_33
_atom_site_aniso_U_23
_atom_site_aniso_U_13
_atom_site_aniso_U_12
O1 0.0188(5) 0.0219(5) 0.0280(6) 0.0154(5) 0.0098(4) 0.0057(4)
N1 0.0199(6) 0.0195(6) 0.0233(6) 0.0137(5) 0.0080(5) 0.0090(5)
N2 0.0171(6) 0.0224(6) 0.0217(6) 0.0124(5) 0.0078(5) 0.0064(5)
C16 0.0158(7) 0.0157(7) 0.0207(7) 0.0096(6) 0.0057(6) 0.0062(5)
C6 0.0206(7) 0.0195(7) 0.0151(7) 0.0083(6) 0.0076(6) 0.0076(6)
C7 0.0201(7) 0.0189(7) 0.0151(7) 0.0091(6) 0.0079(6) 0.0080(6)
C10 0.0154(7) 0.0223(7) 0.0238(8) 0.0129(6) 0.0099(6) 0.0087(6)
C17 0.0181(7) 0.0207(7) 0.0229(7) 0.0135(6) 0.0084(6) 0.0076(6)
C8 0.0161(7) 0.0180(7) 0.0195(7) 0.0113(6) 0.0073(6) 0.0064(6)
C1 0.0169(7) 0.0227(7) 0.0163(7) 0.0102(6) 0.0064(5) 0.0076(6)
C2 0.0210(7) 0.0214(8) 0.0236(8) 0.0123(7) 0.0073(6) 0.0057(6)
C19 0.0221(8) 0.0245(8) 0.0186(7) 0.0112(6) 0.0035(6) 0.0071(6)
C15 0.0161(7) 0.0220(8) 0.0211(7) 0.0101(6) 0.0056(6) 0.0062(6)
C5 0.0211(7) 0.0285(8) 0.0191(7) 0.0119(6) 0.0083(6) 0.0130(6)
C14 0.0193(7) 0.0265(8) 0.0274(8) 0.0178(7) 0.0101(6) 0.0104(6)
C9 0.0203(7) 0.0211(7) 0.0205(7) 0.0120(6) 0.0100(6) 0.0094(6)
C4 0.0168(7) 0.0307(9) 0.0201(7) 0.0100(7) 0.0069(6) 0.0068(6)
C3 0.0225(8) 0.0236(8) 0.0239(8) 0.0103(7) 0.0082(6) 0.0025(6)
C11 0.0285(8) 0.0254(8) 0.0204(7) 0.0128(7) 0.0094(6) 0.0109(7)
C18 0.0262(8) 0.0252(8) 0.0221(8) 0.0146(7) 0.0106(6) 0.0103(6)
C13 0.0238(8) 0.0193(7) 0.0316(8) 0.0139(7) 0.0140(7) 0.0090(6)
C12 0.0321(9) 0.0222(8) 0.0223(8) 0.0082(7) 0.0100(7) 0.0084(7)
loop_
_atom_type_symbol
_atom_type_description
_atom_type_scat_dispersion_real
_atom_type_scat_dispersion_imag
_atom_type_scat_source
C C 0.0033 0.0016 'International Tables Vol C Tables 4.2.6.8 and 6.1.1.4'
H H 0.0000 0.0000 'International Tables Vol C Tables 4.2.6.8 and 6.1.1.4'
N N 0.0061 0.0033 'International Tables Vol C Tables 4.2.6.8 and 6.1.1.4'
O O 0.0106 0.0060 'International Tables Vol C Tables 4.2.6.8 and 6.1.1.4'
loop_
_geom_angle_atom_site_label_1
_geom_angle_atom_site_label_2
_geom_angle_atom_site_label_3
_geom_angle
C6 N1 H1 123.9
C7 N1 H1 123.9
C7 N1 C6 112.12(12)
C16 N2 H2 125.2
C16 N2 C19 109.57(12)
C19 N2 H2 125.2
N2 C16 C17 107.61(13)
N2 C16 C8 121.70(12)
C17 C16 C8 130.66(13)
C1 C6 N1 109.06(12)
C5 C6 N1 128.05(13)
C5 C6 C1 122.88(13)
O1 C7 N1 125.99(13)
O1 C7 C8 126.06(12)
N1 C7 C8 107.95(11)
C15 C10 C9 121.82(13)
C11 C10 C15 118.38(13)
C11 C10 C9 119.73(13)
C16 C17 H17 126.4
C16 C17 C18 107.30(13)
C18 C17 H17 126.4
C16 C8 C7 107.03(11)
C16 C8 C1 111.01(12)
C16 C8 C9 113.37(11)
C7 C8 C9 107.69(11)
C1 C8 C7 101.65(11)
C1 C8 C9 115.05(12)
C6 C1 C8 109.07(12)
C2 C1 C6 119.24(13)
C2 C1 C8 131.67(13)
C1 C2 H2A 120.5
C1 C2 C3 118.99(14)
C3 C2 H2A 120.5
N2 C19 H19 126.0
C18 C19 N2 108.09(13)
C18 C19 H19 126.0
C10 C15 H15 119.6
C14 C15 C10 120.71(14)
C14 C15 H15 119.6
C6 C5 H5 121.5
C6 C5 C4 117.04(14)
C4 C5 H5 121.5
C15 C14 H14 119.9
C13 C14 C15 120.15(14)
C13 C14 H14 119.9
C10 C9 C8 115.99(12)
C10 C9 H9A 108.3
C10 C9 H9B 108.3
C8 C9 H9A 108.3
C8 C9 H9B 108.3
H9A C9 H9B 107.4
C5 C4 H4 119.3
C5 C4 C3 121.33(14)
C3 C4 H4 119.3
C2 C3 H3 119.7
C4 C3 C2 120.51(14)
C4 C3 H3 119.7
C10 C11 H11 119.5
C12 C11 C10 121.03(14)
C12 C11 H11 119.5
C17 C18 H18 126.3
C19 C18 C17 107.44(13)
C19 C18 H18 126.3
C14 C13 H13 120.1
C14 C13 C12 119.76(14)
C12 C13 H13 120.1
C11 C12 H12 120.0
C13 C12 C11 119.96(15)
C13 C12 H12 120.0
loop_
_geom_bond_atom_site_label_1
_geom_bond_atom_site_label_2
_geom_bond_distance
O1 C7 1.2233(17)
N1 H1 0.8600
N1 C6 1.4107(18)
N1 C7 1.3582(18)
N2 H2 0.8600
N2 C16 1.3706(18)
N2 C19 1.3697(19)
C16 C17 1.379(2)
C16 C8 1.515(2)
C6 C1 1.399(2)
C6 C5 1.382(2)
C7 C8 1.5537(19)
C10 C15 1.400(2)
C10 C9 1.5137(19)
C10 C11 1.393(2)
C17 H17 0.9300
C17 C18 1.419(2)
C8 C1 1.5161(19)
C8 C9 1.552(2)
C1 C2 1.384(2)
C2 H2A 0.9300
C2 C3 1.398(2)
C19 H19 0.9300
C19 C18 1.367(2)
C15 H15 0.9300
C15 C14 1.393(2)
C5 H5 0.9300
C5 C4 1.392(2)
C14 H14 0.9300
C14 C13 1.386(2)
C9 H9A 0.9700
C9 H9B 0.9700
C4 H4 0.9300
C4 C3 1.392(2)
C3 H3 0.9300
C11 H11 0.9300
C11 C12 1.392(2)
C18 H18 0.9300
C13 H13 0.9300
C13 C12 1.390(2)
C12 H12 0.9300
loop_
_refln_index_h
_refln_index_k
_refln_index_l
_refln_F_squared_meas
_refln_F_squared_sigma
0 0 -1 4121.13 57.33
0 0 1 4209.42 57.32
0 0 1 4188.18 57.82
0 0 -1 4127.58 57.99
0 0 -2 8543.61 120.91
0 0 -2 8812.67 119.45
0 0 2 8794.2 120.37
0 0 2 8604.14 119.6
0 0 3 1092.74 24.21
0 0 3 1121.19 23.59
0 0 -3 1097.53 24.81
0 0 -3 1126.7 23.42
0 0 4 424.63 14.72
0 0 -4 419.51 15.55
0 0 4 413.48 14.3
0 0 4 418.88 14.83
0 0 -5 390.71 16.66
0 0 5 371.81 15.09
0 0 5 377.95 15.29
0 0 5 382.11 14.83
0 0 6 70.35 7.15
0 0 6 49.94 6.12
0 0 6 66.45 6.72
0 0 7 274.72 14.75
0 0 7 254.94 14.59
0 0 7 297.27 17.42
0 0 -7 272.59 16.44
0 0 8 12.02 3.75
0 0 8 26.83 5.81
0 0 8 19.99 4.29
0 0 9 48.42 6.68
0 0 9 40.12 7.61
0 0 10 122.3 13.87
0 0 10 107.49 10.55
0 0 11 47.71 9.26
0 -1 11 61.94 10.45
0 -1 10 -0.01 0.82
0 -1 10 3.57 2.25
0 -1 9 150.33 10.96
0 1 -9 141.34 11.98
0 -1 9 161.26 14.67
0 -1 8 745.59 24.73
0 1 -8 781.73 27.57
0 -1 7 53.01 6.12
0 -1 7 52.98 6.83
0 -1 7 52.61 7.15
0 -1 7 52 5.63
0 -1 6 316.11 15.6
0 -1 6 301.48 13.92
0 -1 6 312.76 13.17
0 -1 6 341.51 16.74
0 1 -6 343.12 14.79
0 -1 5 237.61 12.27
0 1 -5 244.83 11.11
0 -1 5 255.71 11.26
0 1 -5 246.87 12.08
0 -1 5 252.55 12.91
0 -1 4 2381.76 42.04
0 -1 4 2437.91 45.74
0 1 -4 2398.17 42.03
0 1 -4 2384.75 44.93
0 1 -3 2661.07 46.53
0 -1 3 2823.94 47.9
0 -1 3 2828.13 47.19
0 -1 3 2783.31 43.63
0 1 -3 2749.32 43.1
0 -1 2 3123.31 44.38
0 1 -2 3118.19 43.81
0 -1 2 3051.17 48.22
0 -1 1 1261.09 20.29
0 1 -1 1265.73 20.77
0 1 0 47.56 2.67
0 1 1 506.19 12.58
0 1 1 493.12 12.52
0 1 2 9.98 1.34
0 1 2 10.57 1.89
0 1 2 8.33 1.61
0 -1 -3 969.9 26.3
0 1 3 953.84 24.44
0 1 3 989.22 20.83
0 1 3 1036.57 25
0 1 4 7.3 1.82
0 1 4 9.17 2.48
0 1 4 7.15 1.99
0 -1 -4 6.52 2.25
0 1 5 331.26 15.49
0 1 5 341.17 13.52
0 -1 -6 20.75 4.53
0 1 6 24.18 4.29
0 1 6 15.08 3.21
0 1 7 31.56 4.91
0 1 7 41.17 6.04
0 1 8 78.36 8.88
0 1 8 54.55 6.89
0 1 8 79.22 10.01
0 1 9 27.35 6.27
0 1 9 6.79 2.88
0 1 10 9.52 3.4
0 1 10 17.68 5.64
0 -2 11 2.96 2.26
0 -2 10 3.51 3.24
0 -2 10 1.31 0.95
0 -2 9 245.5 17.87
0 2 -9 215.48 12.91
0 -2 9 233.95 12.61
0 -2 8 1.63 1.01
0 -2 8 0.8 1.17
0 -2 8 1.46 1.21
0 2 -7 421.43 15.46
0 -2 7 409.63 20.05
0 -2 7 421.07 20.18
0 -2 7 422.73 16.78
0 2 -6 -0.15 0.37
0 -2 6 0.23 0.61
0 2 -6 -1.03 1.01
0 -2 6 1.03 1.04
0 2 -5 810.03 24.2
0 -2 5 836.97 20.61
0 -2 5 856.18 25.8
0 -2 5 878.33 25.43
0 2 -5 859.01 18.84
0 2 -4 728.61 14.72
0 -2 4 720.97 20.6
0 -2 4 710.89 15.96
0 2 -4 692.88 20.19
0 -2 4 701.62 21.03
0 -2 3 1268.88 26.16
0 -2 3 1215.05 19.01
0 -2 3 1250.95 20.03
0 2 -2 22.7 2.35
0 -2 2 20.02 1.52
0 2 -2 18.19 1.37
0 -2 2 20.13 2.24
0 2 -2 19.9 2.37
0 2 -1 1163.36 20.83
0 2 -1 1204.94 21.08
0 -2 1 1203.34 21.33
0 -2 1 1238.25 21.32
0 2 -1 1195.34 20.89
0 -2 1 1192.68 21.75
0 -2 0 2.19 0.64
0 2 0 3.23 1
0 2 0 2 0.66
0 2 1 2145.38 39.16
0 2 2 39.77 4.35
0 2 2 32.13 1.95
0 -2 -2 42.54 4.77
0 2 3 172.38 10.18
0 2 3 167.63 6.29
0 -2 -4 304.56 16.38
0 2 4 280.16 14.21
0 2 5 4.9 1.83
0 2 5 8.07 1.79
0 -2 -5 6.67 2.93
0 2 6 59.03 7.44
0 2 6 48.77 5.06
0 2 7 52.89 7.28
0 2 8 73.18 9.22
0 2 8 70.14 9.61
0 2 9 29.22 6.67
0 2 9 22.86 5.35
0 2 10 -0.81 1.56
0 2 10 3.61 2.92
0 -3 12 27.13 7.23
0 -3 11 0.45 1.49
0 -3 10 62.48 5.83
0 -3 10 78.82 10.57
0 -3 9 29.05 3.88
0 -3 9 27.54 4.5
0 -3 9 41.47 7.26
0 -3 8 26.21 5.24
0 3 -8 32.3 3.72
0 -3 8 26.04 3.37
0 -3 8 24.27 3.89
0 -3 7 5.99 2.31
0 -3 7 5.49 1.12
0 3 -7 8.49 1.67
0 3 -7 6.75 2.31
0 -3 7 10.89 3.29
0 -3 7 7.5 1.99
0 -3 6 260.72 10.64
0 3 -6 248.23 8.5
0 -3 6 270.35 14.39
0 3 -6 232.56 13.51
0 -3 6 255.05 7.34
0 -3 6 250.08 14.67
0 3 -5 168.34 5.9
0 -3 5 171.02 5.46
0 3 -5 153.29 9.88
0 -3 5 149.78 9.71
0 -3 5 174.56 7.09
0 -3 4 1239.34 28.85
0 -3 4 1247 20.9
0 3 -4 1188 28.6
0 -3 4 1209.38 20.25
0 3 -4 1233.03 29.53
0 -3 3 64.29 5.02
0 -3 3 56.66 3.24
0 3 -3 57.8 5
0 3 -3 57.47 3.02
0 3 -3 63.18 4.96
0 -3 3 56.93 5.06
0 -3 2 257.66 8.78
0 3 -2 261.88 9.06
0 3 -2 251.24 7.99
0 -3 2 259.39 9.35
0 3 -2 243.43 9.19
0 -3 2 264.53 9.79
0 -3 1 202.07 8.84
0 3 -1 194.54 7.4
0 -3 1 206.21 7.16
0 -3 1 208.74 7.97
0 3 -1 204.61 7.02
0 3 -1 196.38 8.04
0 -3 0 604.35 17.78
0 3 0 569.18 16.72
0 3 0 563.1 14.96
0 3 1 242.72 10.36
0 3 1 228.65 10.8
0 3 2 334.44 14.55
0 3 3 50.01 5.91
0 -3 -3 51.93 6.86
0 -3 -4 31.01 5.64
0 3 4 26.67 4.66
0 3 5 80.04 8.58
0 3 6 31.49 5.87
0 3 7 72.06 9.32
0 3 8 21.33 5.58
0 3 8 9.47 3.7
0 3 9 5.73 2.48
0 3 9 3.18 2.01
0 -4 12 80.33 11.98
0 -4 11 6.52 3.98
0 -4 10 24.16 5.94
0 -4 10 21.58 2.79
0 4 -9 36.48 3.69
0 -4 9 36.66 2.94
0 -4 9 37.8 3.77
0 -4 9 42.77 7.13
0 -4 9 38.22 4.7
0 -4 8 254.95 11.49
0 -4 8 263.39 8.11
0 4 -8 275.47 9.72
0 -4 8 253.48 16.35
0 4 -7 7.69 2.7
0 -4 7 8.22 3.17
0 -4 7 7.83 1.85
0 -4 7 7.56 2.81
0 -4 7 9.13 1.31
0 -4 6 691.44 16.21
0 -4 6 673.62 23.43
0 -4 6 622.43 13.02
0 4 -6 657.22 23.62
0 -4 5 150.59 9.7
0 4 -5 142.89 9.8
0 -4 5 146.07 5.58
0 -4 5 136.95 5.44
0 -4 4 32.02 4.03
0 4 -4 35.05 4.28
0 -4 4 36.43 4.71
0 -4 4 31.43 2.88
0 4 -4 36.79 4.59
0 4 -4 32.27 2.57
0 -4 3 53.5 4.83
0 4 -3 54.45 3.74
0 4 -3 46.28 4.56
0 -4 3 53.08 4.25
0 4 -3 53.85 4.67
0 -4 3 50.28 4.96
0 4 -2 52.97 4.28
0 4 -2 54.79 4.26
0 -4 2 54.5 4.59
0 -4 2 54.94 4.49
0 4 -2 49.01 4.11
0 -4 2 61.37 5.07
0 -4 1 456.4 16.4
0 4 -1 455.07 12.07
0 4 -1 435.51 13.14
0 4 -1 442.84 14.91
0 -4 1 423.57 11.74
0 -4 1 447.85 13.94
0 4 0 557.69 18.27
0 4 0 530.36 15.95
0 -4 0 546.76 19.43
0 4 1 116.49 7.76
0 4 1 113.24 8.56
0 -4 -2 110.55 10.13
0 4 2 118.18 9.49
0 4 2 121.8 9.08
0 4 3 161.53 11.68
0 -4 -3 169.21 13.6
0 4 4 192.31 13.94
0 4 5 16.62 4.29
0 4 6 244.19 17.24
0 4 7 52.78 8.42
0 4 8 5.99 3.48
0 4 8 3.13 2.43
0 4 9 32.54 7.42
0 -5 12 2.14 2.56
0 -5 11 0.39 1.9
0 -5 10 23.22 2.16
0 -5 10 21.84 3.5
0 -5 9 50.62 7.66
0 -5 9 44.97 4.55
0 -5 9 44.57 2.71
0 -5 8 22.45 3.04
0 -5 8 18.15 1.83
0 -5 8 21.44 4.7
0 -5 7 165.34 13.28
0 -5 7 186.28 7.98
0 -5 7 158.63 11.97
0 5 -7 150.15 11.97
0 -5 7 167.48 6.28
0 -5 6 110.84 10.09
0 -5 6 113.36 5.29
0 5 -6 103.73 9.14
0 -5 6 103.62 8.97
0 -5 6 106.18 5.4
0 -5 5 86.06 8.15
0 -5 5 75.58 5.04
0 -5 5 74.65 7.02
0 5 -5 72.26 7.1
0 5 -5 77.37 4.48
0 5 -4 121.04 8.53
0 -5 4 128.4 8.67
0 5 -4 124.04 8.24
0 -5 4 134.6 9.36
0 -5 4 125.48 7.34
0 5 -4 124.27 6.31
0 -5 3 378.51 14.64
0 5 -3 353.98 14
0 -5 3 375.88 14.7
0 5 -3 379.96 13.7
0 -5 3 389.85 14.69
0 5 -3 373.6 12.85
0 5 -2 1448.62 31.58
0 -5 2 1465.47 30.67
0 5 -2 1441.91 30.19
0 -5 2 1467.76 31.97
0 5 -2 1392.19 29.89
0 -5 2 1446.82 34.67
0 -5 1 72.63 7.25
0 -5 1 73.2 6.99
0 5 -1 73.16 5.51
0 -5 1 75.25 5.89
0 5 -1 70.72 6.28
0 5 0 29.99 3.79
0 -5 0 30.5 5.25
0 5 0 22.47 3.95
0 -5 0 32.55 5.13
0 5 1 501.77 18.46
0 5 1 480.87 20
0 -5 -1 483.32 22.54
0 5 2 37.76 5.27
0 5 2 33.94 5.44
0 5 3 339.96 18.6
0 5 4 0.21 1.33
0 5 4 1.04 1.55
0 5 5 10.19 4.04
0 5 6 1.24 1.64
0 5 7 0.51 2.07
0 5 7 0.52 1.68
0 -6 12 34.4 8.05
0 -6 11 16.25 5.09
0 -6 10 6.72 1.73
0 -6 10 5.87 2.77
0 -6 9 17.39 1.81
0 -6 9 22.6 3
0 -6 9 20.27 4.94
0 -6 8 41.1 3.79
0 -6 8 35.74 3.07
0 -6 8 40.22 6.38
0 -6 7 301.45 9.84
0 6 -7 282.11 16.92
0 -6 7 265.63 9.96
0 -6 7 302.65 17.05
0 -6 6 521.96 23.12
0 6 -6 529.27 22.11
0 6 -6 524.57 21.22
0 -6 6 491.41 21.14
0 -6 6 510.1 15.75
0 6 -6 510.02 13.73
0 -6 6 531.23 13.95
0 6 -5 45.52 5.82
0 -6 5 53.4 5.13
0 -6 5 49.07 6.28
0 6 -5 52.16 4.33
0 -6 5 42.89 5.68
0 6 -4 189.97 11.29
0 -6 4 209.84 11.99
0 6 -4 186.9 9.2
0 6 -4 189.18 10.54
0 -6 4 197.67 10.87
0 6 -3 51.25 5.05
0 -6 3 52.42 6.06
0 -6 3 58.63 5.96
0 6 -3 58.39 5.53
0 -6 3 55.51 5.62
0 6 -3 52.03 5.41
0 -6 2 11.44 3.02
0 6 -2 9.18 2.36
0 -6 2 9.5 2.63
0 -6 2 9.69 2.39
0 -6 2 9.98 2.14
0 6 -2 10.64 2.22
0 -6 1 7.61 2.72
0 6 -1 12.64 3
0 -6 1 9.7 3.01
0 -6 1 5.59 1.76
0 6 -1 5.76 1.74
0 -6 0 2.84 2.17
0 6 0 1.1 1.32
0 6 0 2.12 1.27
0 6 1 217.96 12.44
0 6 1 209.67 13.9
0 6 2 7.73 2.7
0 6 2 6.55 2.92
0 6 3 8.74 3.49
0 6 3 5.42 2.65
0 6 4 19.14 5.08
0 6 5 102.2 11.98
0 6 6 41.25 7.85
0 -7 12 24.51 6.78
0 -7 11 107.64 12.93
0 -7 10 38.16 7.45
0 -7 9 -0.16 0.32
0 -7 9 0.57 0.55
0 -7 8 203.26 9.35
0 -7 8 233.25 8.95
0 -7 8 223.8 16.15
0 -7 7 276.64 10.08
0 7 -7 288.95 10.36
0 -7 7 267.62 11.88
0 -7 7 301.11 17.7
0 7 -6 396.89 13.25
0 7 -6 351.44 18.4
0 -7 6 394.17 19.33
0 7 -6 358.54 18.03
0 -7 6 342.75 14.66
0 -7 6 353.77 19.26
0 -7 5 1.89 1.33
0 -7 5 -0.11 0.75
0 7 -5 0.09 0.5
0 -7 5 0.59 0.95
0 7 -4 244.54 11.95
0 -7 4 272.17 14.75
0 -7 4 255.15 14.35
0 -7 3 4.48 1.82
0 7 -3 3.77 1.45
0 7 -3 3.87 1.56
0 -7 3 5.36 2.39
0 -7 3 3.62 1.79
0 -7 3 7.07 2.16
0 -7 2 20.06 4.52
0 7 -2 18.87 3.88
0 -7 2 26.3 5.07
0 7 -2 22.96 3.48
0 -7 2 22.31 3.77
0 7 -1 27.23 4.8
0 7 -1 30.13 4.16
0 7 0 1084.57 34.59
0 7 0 1062.55 29.2
0 7 1 160.43 13.15
0 7 1 155.19 10.88
0 7 2 144.64 13.16
0 7 3 244.32 17.83
0 7 4 667.98 31.76
0 7 5 55.72 9.25
0 -8 12 9.8 4.21
0 -8 11 6.47 3.45
0 -8 10 4.59 2.93
0 -8 9 49.96 8.25
0 -8 9 41.91 3.83
0 -8 8 1537.35 47.25
0 8 -8 1500.05 29.86
0 -8 8 1487.87 29.66
0 8 -7 283.91 11.74
0 -8 7 274.02 17.65
0 -8 7 251.83 13.31
0 -8 6 1073.46 34.84
0 8 -6 1060.11 26.61
0 8 -6 985.19 31.63
0 -8 6 1004.71 30.55
0 8 -5 624.13 20.62
0 -8 5 569.96 23.15
0 -8 5 598.46 24.43
0 -8 5 556.65 23.57
0 8 -5 560.93 21.56
0 -8 4 3.8 2.19
0 -8 4 1.96 1.77
0 -8 4 1.76 1.13
0 -8 4 3.37 2.34
0 8 -4 2.14 1.48
0 -8 3 175.81 11.72
0 8 -3 177.2 10.43
0 -8 2 20.8 4.09
0 8 -2 22.16 4.29
0 8 -2 18.98 3.36
0 8 -1 166.44 12.76
0 8 -1 131.98 9.09
0 8 0 22.76 4.92
0 8 0 21.14 3.86
0 8 1 92.68 10.64
0 8 2 41.01 7.31
0 8 3 43.59 7.8
0 -9 12 45.48 9.2
0 -9 11 166.56 17.54
0 -9 10 0.97 1.5
0 -9 9 455.66 14.82
0 9 -9 481.21 15.21
0 9 -8 48.26 4.75
0 -9 8 43.69 4.42
0 -9 8 41.45 7.41
0 -9 8 32.66 4.99
0 -9 7 2.03 1.79
0 -9 7 1.43 1.73
0 9 -7 1.32 1.25
0 -9 7 0.77 1.25
0 -9 6 1.62 1.61
0 -9 6 1.64 2.12
0 9 -6 -2.29 1.3
0 9 -6 -0.92 1.11
0 -9 6 0.11 1.23
0 -9 5 189.41 13.69
0 9 -5 181.62 11.99
0 -9 5 185.85 13.48
0 9 -5 209.02 12.5
0 -9 5 196.8 14.32
0 9 -4 3.97 1.84
0 -9 4 3.59 1.63
0 9 -3 298.86 16.71
0 -9 3 272.79 15.54
0 9 -2 34.47 5.88
0 9 -1 2.19 1.68
0 9 0 1.22 2.16
0 9 1 1.8 2.36
0 9 2 -1 1.55
0 -10 12 4.98 4.39
0 -10 11 47.44 9.63
0 -10 10 -1.17 1.6
0 -10 9 8.99 4.21
0 10 -8 24.23 3.75
0 -10 8 22.09 5.87
0 10 -7 11.09 2.86
0 -10 7 10.31 3.72
0 10 -6 119.13 9.74
0 -10 6 132.36 12.78
0 10 -5 9.84 2.84
0 -10 5 10.06 3.31
0 -10 4 -0.34 1.19
0 10 -4 3.25 2.08
0 10 -3 10.48 3.54
0 10 -2 55.53 7.97
0 10 -1 2.99 2.52
0 10 0 75.49 10.34
0 -11 11 2.05 2.76
0 -11 10 17.97 5.74
0 -11 9 33.01 7.97
0 -11 8 25.8 6.24
0 11 -8 24.1 4.28
0 -11 7 -0.84 1.63
0 11 -7 1.76 1.84
0 -11 6 145.38 13.72
0 11 -6 139.4 11.43
0 -11 5 99.65 10.73
0 11 -5 119.65 11
0 11 -4 7.79 2.7
0 11 -3 74.75 9.58
0 11 -2 2.89 1.39
0 -12 11 16.48 5.8
0 -12 10 39.79 8.73
0 -12 9 1.65 2.02
0 12 -7 29.79 5.37
0 12 -6 2.9 2.43
0 12 -5 4.3 2.34
0 12 -4 4.14 2.51
0 13 -6 4.53 2.51
-1 13 -5 46.87 7.76
-1 13 -6 3.91 2.66
1 -13 10 32 8.13
-1 12 -3 2.16 2.3
-1 12 -4 38.7 6.91
-1 12 -5 123.79 11.75
-1 12 -6 5.88 2.62
1 -12 6 2.68 2.57
-1 12 -7 34.96 5.62
1 -12 7 24.48 6.72
1 -12 8 19.39 6.26
1 -12 9 123.83 15.44
1 -12 10 282.99 24.51
1 -12 11 29.9 8.07
-1 11 -1 67.43 9.87
-1 11 -2 86.59 10.62
-1 11 -3 1.01 1.43
1 -11 4 5.91 2.58
-1 11 -4 4.48 2.38
1 -11 5 20.64 5.43
-1 11 -5 21.34 4.78
-1 11 -6 28.33 4.95
1 -11 6 25.28 6.23
-1 11 -7 25.4 4.22
1 -11 7 20.45 5.57
1 -11 8 44.79 8.79
1 -11 9 0.46 2.06
1 -11 10 100.4 14.23
1 -11 11 19.02 6.68
-1 10 1 27.24 6.37
-1 10 0 25.33 5.96
-1 10 -1 3.9 2.43
-1 10 -2 20.84 4.9
-1 10 -3 39.51 6.33
1 -10 3 31.32 6.09
-1 10 -4 27.72 4.77
1 -10 4 33.29 6.3
1 -10 5 57.89 8.7
-1 10 -5 71.63 7.64
-1 10 -6 6.99 2.15
1 -10 6 4.45 2.83
1 -10 6 10.33 3.72
-1 10 -7 74.98 6.73
1 -10 7 82.02 10.83
1 -10 8 288.25 21.31
-1 10 -8 297.16 12.47
1 -10 9 131.24 14.84
1 -10 10 43.07 9.49
1 -10 11 110.75 14.65
-1 9 2 37.21 7.58
-1 9 1 86.87 11.1
-1 9 0 242.39 17.64
-1 9 -1 21.9 4.32
-1 9 -1 17.04 4.57
-1 9 -2 57.86 7.61
1 -9 2 53.99 7.37
-1 9 -2 54.45 6.83
1 -9 3 17.66 4.06
-1 9 -3 20.47 4.23
-1 9 -3 27.61 4.95
1 -9 4 165.17 13.58
1 -9 4 169.28 13.3
-1 9 -4 167.48 12.17
-1 9 -4 169.18 11.91
-1 9 -4 190.34 12.28
-1 9 -5 47.43 6.61
1 -9 5 46 6.52
-1 9 -5 43.68 6.37
-1 9 -5 54.45 6
1 -9 5 55.12 7.97
-1 9 -6 287.75 13.18
1 -9 6 250.71 14.18
-1 9 -6 275.04 17.19
1 -9 6 279.66 18.88
-1 9 -7 1.23 1.41
1 -9 7 1.78 1.51
1 -9 7 1.95 1.93
-1 9 -7 1.28 1.01
1 -9 8 4.91 3.27
-1 9 -8 5.36 2.89
1 -9 8 1.07 0.61
1 -9 9 5.21 3.2
-1 9 -9 4.17 3.13
1 -9 10 22.66 6.2
1 -9 11 2.03 1.74
1 -9 12 39.17 8.7
-1 8 4 -0.02 1.38
-1 8 3 37.18 7.41
-1 8 2 85.91 10.74
-1 8 1 89.75 9.59
-1 8 1 101.48 11.22
-1 8 0 23.02 5.18
-1 8 0 20.12 4.31
-1 8 -1 167.97 12.9
-1 8 -2 65.94 5.95
-1 8 -2 67.47 7.61
1 -8 2 68.75 7.84
1 -8 3 710.34 27.5
1 -8 3 697.7 27.13
-1 8 -3 720.65 24.54
-1 8 -3 667.76 22.52
-1 8 -3 686.48 24.5
-1 8 -4 41.01 5.68
1 -8 4 50.43 6.38
-1 8 -4 55.42 5.96
-1 8 -4 54.95 6.58
1 -8 4 38.65 6.35
-1 8 -5 66.17 7.61
-1 8 -5 67.57 6.02
1 -8 5 62.39 6.68
-1 8 -5 58.22 7.05
1 -8 5 60.24 7.96
1 -8 5 59.22 7.54
-1 8 -6 7.08 2.96
1 -8 6 3.74 1.59
1 -8 6 8.21 3.16
-1 8 -6 5.5 1.6
-1 8 -7 55.56 7.72
-1 8 -7 65.54 4.66
1 -8 7 67.64 9.02
1 -8 7 59.77 4
1 -8 7 55.97 4.88
1 -8 8 27.49 2.05
1 -8 8 30.09 2.4
-1 8 -8 25.72 5.63
1 -8 9 19.44 5.34
-1 8 -9 16.81 4.63
1 -8 10 -0.3 1.61
-1 8 -10 1.16 2.38
1 -8 11 114.66 14.2
1 -8 12 6.63 3.81
-1 7 5 158.15 15.69
-1 7 4 2.74 2.56
-1 7 3 47.4 7.88
-1 7 2 44.04 6.89
-1 7 2 47.59 7.49
-1 7 1 50.14 7.36
-1 7 0 92.16 9.35
-1 7 -1 44.8 6.23
1 -7 1 33.85 5.86
-1 7 -1 38.1 3.82
1 -7 1 32.61 5.08
1 -7 2 2.1 1.96
1 -7 2 -1.81 1.33
-1 7 -2 2.58 1.56
-1 7 -2 0.55 0.8
1 -7 3 213.71 12.82
1 -7 3 198.26 13.06
-1 7 -3 217.86 11.7
-1 7 -3 203.77 11.44
1 -7 4 136.88 10.28
-1 7 -4 126.97 8.12
1 -7 4 134.06 10.88
1 -7 4 124.04 8.92
-1 7 -4 113.74 9.23
-1 7 -4 128.19 9.61
-1 7 -5 79.79 8.18
1 -7 5 84.25 8.72
-1 7 -5 95.82 8.85
-1 7 -5 83.42 5.85
1 -7 5 107.25 7.31
1 -7 5 85.76 8.97
-1 7 -6 434.02 20.8
-1 7 -6 423.96 12.54
1 -7 6 426.93 13.59
1 -7 6 444.92 21.79
-1 7 -6 412.02 20.13
-1 7 -7 228.19 7.28
1 -7 7 222.12 15.7
1 -7 7 207.5 6.41
-1 7 -7 222.88 15.43
1 -7 7 205.44 7.24
-1 7 -8 2.51 2.36
1 -7 8 1.38 1.31
-1 7 -9 12.16 4.06
1 -7 9 7.27 3.16
-1 7 -10 102.35 12.51
1 -7 10 94.64 11.92
1 -7 11 2.81 2.6
1 -7 12 -1.34 2.47
-1 6 7 3.72 2.06
-1 6 6 7.91 3.61
-1 6 5 0.94 1.86
-1 6 4 54 8.41
-1 6 3 361.21 20.68
-1 6 3 436.4 22.8
-1 6 2 419.09 21.33
-1 6 1 246.75 15.19
-1 6 0 207.58 7.5
1 -6 0 213.2 14.59
-1 6 0 227.53 13.68
-1 6 0 208.84 12.61
1 -6 1 30.77 4.65
-1 6 -1 24.29 4.03
-1 6 -1 22.62 3.77
1 -6 1 33.51 5.29
-1 6 -1 23.52 2.93
1 -6 2 5.59 2.16
1 -6 2 6.37 2.2
-1 6 -2 11.99 2.66
-1 6 -2 7.17 2.1
-1 6 -2 6.39 1.75
-1 6 -3 30.17 3.78
1 -6 3 29.41 4.6
1 -6 3 23.6 4.11
-1 6 -3 24.7 3.9
1 -6 3 31.41 4.2
-1 6 -3 28.18 3.96
1 -6 4 311.71 12.22
-1 6 -4 324.19 11.64
1 -6 4 331.65 16.21
-1 6 -4 290.7 14.38
-1 6 -5 -0.51 0.69
-1 6 -5 0.33 0.27
-1 6 -5 0.69 1.15
1 -6 5 -1.77 1.34
1 -6 5 0.29 0.76
1 -6 5 0.29 0.45
-1 6 -6 18.22 4.31
-1 6 -6 22.7 2.01
1 -6 6 25.93 5.11
1 -6 6 19.06 4.18
-1 6 -6 20.13 4.08
1 -6 6 17.23 1.89
1 -6 6 17.6 1.62
1 -6 7 3.77 2.2
-1 6 -7 2.28 1.98
1 -6 8 449.53 23.04
-1 6 -8 434.81 22.66
-1 6 -9 61.85 8.99
1 -6 9 46.94 7.68
1 -6 10 107.58 12.5
-1 6 -10 107.02 12.65
1 -6 11 -1.29 1.71
1 -6 12 7.88 4.18
-1 5 8 96.23 12.79
-1 5 7 7.31 3.88
-1 5 6 7.7 4.03
-1 5 5 0.3 1.24
-1 5 4 2.13 1.36
-1 5 4 0.49 1.06
-1 5 3 24.66 5.05
-1 5 3 33.12 5.75
1 -5 -2 22.25 4.8
-1 5 2 31.59 5.21
-1 5 1 110.68 3.85
-1 5 1 132.14 9.92
-1 5 1 121.92 9.7
1 -5 -1 143.66 11.57
-1 5 0 351.7 10.21
1 -5 0 357.51 16.99
-1 5 0 354.57 15.85
1 -5 0 372.78 15.99
-1 5 0 369.1 15.82
1 -5 1 55.99 5.96
-1 5 -1 66.19 6.1
-1 5 -1 62.08 5.91
-1 5 -1 72.49 4.99
1 -5 1 61.56 6.13
-1 5 -2 265.57 11.2
-1 5 -2 267.46 12.42
-1 5 -2 265.78 11.32
1 -5 2 258.96 13.04
1 -5 2 267 11.88
1 -5 3 227.17 11.53
-1 5 -3 217.43 11.08
-1 5 -3 231.43 11.57
1 -5 3 227.77 9.58
-1 5 -3 234.01 9.41
1 -5 3 247.11 12.75
-1 5 -4 592.51 13.97
1 -5 4 583.21 14.31
1 -5 4 593.24 21.1
-1 5 -4 559.84 20.05
1 -5 5 4.52 2.25
1 -5 5 1.97 0.61
-1 5 -5 3.83 1.7
1 -5 5 1.72 1.28
-1 5 -5 3.61 1.65
1 -5 5 1.5 0.45
-1 5 -5 3.14 0.73
1 -5 6 810.68 29.09
-1 5 -6 813.59 27.84
1 -5 6 837.07 28.23
-1 5 -6 791.16 28.05
-1 5 -7 68.37 8.14
1 -5 7 64.01 7.81
1 -5 8 16.36 4.3
-1 5 -8 13.35 4.02
1 -5 9 119.45 12.16
-1 5 -9 125.33 12.42
1 -5 10 88.86 11.36
1 -5 11 0.2 2.2
1 -5 12 4.58 2.96
-1 4 9 15.32 4.98
-1 4 9 12.66 4.94
-1 4 8 59.07 9.63
-1 4 7 25.62 6
-1 4 6 245 17.67
-1 4 5 38.41 6.41
-1 4 5 31.34 2.77
-1 4 4 210.06 14.27
-1 4 4 160.24 5.69
-1 4 3 459.47 20.55
1 -4 -3 489.01 23.04
-1 4 2 34.11 5.1
-1 4 2 23.48 4.32
-1 4 1 137.44 9.26
-1 4 1 127.69 9.24
1 -4 -1 136.25 9.98
-1 4 1 113.66 4.37
-1 4 0 14.77 2.96
-1 4 0 16.62 1.92
-1 4 0 15.98 2.89
1 -4 0 17.67 3.31
1 -4 0 14.64 2.84
1 -4 1 5039.21 81.33
-1 4 -1 5018.21 79.25
-1 4 -1 5078.62 80.66
1 -4 1 4924.63 79.49
-1 4 -1 5021.22 75.15
-1 4 -2 2090.38 41.02
1 -4 2 2174.2 42.71
-1 4 -2 2069.26 37
1 -4 2 2074.75 37.37
-1 4 -2 2117.78 39.46
1 -4 2 2111.85 39.91
1 -4 3 535.68 17.76
-1 4 -3 549.45 12.74
-1 4 -3 512.1 17.29
-1 4 -3 522.41 17.46
1 -4 3 517.73 17.96
1 -4 4 22.32 1.56
1 -4 4 16.37 1.16
1 -4 4 24.29 3.87
-1 4 -4 18.15 3.23
-1 4 -4 27.28 4.07
-1 4 -4 20.78 1.51
1 -4 4 23.47 3.74
-1 4 -5 368.87 16.71
1 -4 5 401.1 17.12
1 -4 6 533.02 21.56
-1 4 -6 514.75 21.09
1 -4 6 561.74 22.9
-1 4 -7 155.01 12.1
1 -4 7 134.63 11.83
1 -4 7 162.07 12.3
-1 4 -8 95.23 10.12
1 -4 8 78.95 9.2
-1 4 -8 85.53 4.53
1 -4 9 207.32 16.26
-1 4 -9 197.06 15.79
-1 4 -9 205.71 8.33
1 -4 10 173.18 15.88
1 -4 11 89.39 12.21
1 -4 12 -1.39 3.15
-1 3 10 10.88 4.62
-1 3 10 9.45 4.09
-1 3 9 5.38 3.56
-1 3 8 82.78 10.6
-1 3 7 172.96 14.64
-1 3 6 28.25 3.65
-1 3 6 25.28 5.44
-1 3 5 26.54 5.14
-1 3 5 38.4 5.96
-1 3 5 36.63 3.82
-1 3 4 103.31 5.8
-1 3 4 90.85 9.1
1 -3 -4 90.32 9.57
-1 3 4 109.6 9.61
-1 3 3 233.89 13.22
1 -3 -3 233.94 14.23
-1 3 3 214.61 12.89
-1 3 3 239.93 8
-1 3 2 196.71 11.35
-1 3 2 194.48 11.16
-1 3 1 1646.48 36.41
-1 3 1 1687.15 36.15
-1 3 1 1711.28 36.03
1 -3 -1 1660.09 37.32
1 -3 0 624.84 17.96
1 -3 0 616.25 17.8
-1 3 0 611.97 18
-1 3 0 590.79 17.28
-1 3 0 621.13 17.16
-1 3 -1 4860.02 72.62
1 -3 1 4875.26 76.23
-1 3 -1 4850.92 72.04
-1 3 -1 4821.02 71.47
-1 3 -1 4856.82 75.47
1 -3 1 4797.53 72.62
-1 3 -2 4781 75.07
1 -3 2 4807.18 68.28
1 -3 2 4841.4 74.64
-1 3 -2 4789.03 68.63
1 -3 2 4621.15 75.5
-1 3 -3 43.82 4.46
1 -3 3 42.67 4.42
-1 3 -3 38.02 4.21
-1 3 -3 39.94 1.77
-1 3 -4 525.24 18.48
1 -3 4 532.48 18.24
-1 3 -5 12.06 2.77
1 -3 5 12.04 2.67
-1 3 -5 12.78 1.21
1 -3 5 16.64 3.46
-1 3 -6 49.94 3.3
-1 3 -6 38.95 5.55
1 -3 6 43.71 2.24
1 -3 6 37.22 1.98
1 -3 6 47.01 6.35
1 -3 6 43.56 5.84
-1 3 -7 20.6 4.34
1 -3 7 23.56 4.81
1 -3 7 22.33 4.62
-1 3 -7 15.52 2.24
1 -3 7 16.87 1.84
1 -3 8 171.5 7
-1 3 -8 148.48 12.48
-1 3 -8 171.11 8.68
1 -3 8 174.44 13.82
-1 3 -9 1.74 1.41
1 -3 9 2.1 1
1 -3 9 1.49 1.69
1 -3 10 53.4 9.01
1 -3 11 3.04 2.73
-1 2 10 1.23 1.45
-1 2 10 1.92 3.09
-1 2 9 2.79 2.27
-1 2 8 1.65 1.53
-1 2 7 97.61 8.24
-1 2 7 109.84 10.78
-1 2 6 1.65 1.22
-1 2 6 2.25 1.92
-1 2 5 271.23 15.48
-1 2 5 276.34 12.14
-1 2 5 296.45 16.04
1 -2 -5 299.74 17.44
-1 2 4 276.35 14.63
-1 2 4 258.53 10.37
-1 2 3 282.04 13.82
1 -2 -3 302.59 14.81
-1 2 2 715.56 20.87
-1 2 1 1729.17 33.93
-1 2 1 1728.83 34.1
1 -2 0 8939.77 124.43
-1 2 0 8759.42 125.91
-1 2 0 8910.37 124.04
1 -2 0 8861.17 125.91
1 -2 1 27.7 2.94
-1 2 -1 31.88 2.2
1 -2 1 27.92 2.11
-1 2 -1 24.61 2.5
-1 2 -2 1899.46 35.32
1 -2 2 1966.43 35.47
1 -2 3 639.94 18.13
1 -2 3 621.8 17.83
-1 2 -3 644.31 18.19
1 -2 4 2630.78 49.57
-1 2 -4 2631.84 49.7
1 -2 4 2705.2 50.02
-1 2 -4 2657.72 50.29
1 -2 4 2525.28 36.64
-1 2 -4 2590.79 39.82
1 -2 5 559.26 20.02
-1 2 -5 526.72 19.14
-1 2 -5 512.25 14.24
1 -2 5 535.35 19.53
1 -2 5 519.45 11.91
-1 2 -6 24.9 4.33
1 -2 6 28.37 2.83
-1 2 -6 31.01 3.66
1 -2 6 25.9 4.51
1 -2 6 33.09 5.09
1 -2 7 604.38 16.83
-1 2 -7 626.03 24.33
1 -2 7 579.97 24.18
-1 2 -7 639.07 20.27
1 -2 7 652.62 26
1 -2 8 26.32 3.43
1 -2 8 31.54 6.02
-1 2 -8 26.23 5.21
1 -2 9 166.41 9.38
1 -2 9 167.5 14.88
-1 2 -9 147.87 11.02
1 -2 10 65.59 9.95
1 -2 11 8.32 4.29
-1 1 11 2.35 1.56
-1 1 10 56.07 9.59
-1 1 10 51.09 8.07
-1 1 9 19.85 4.89
-1 1 8 62.61 8.42
-1 1 8 38.7 6.02
-1 1 8 58.95 7.92
-1 1 7 13.65 3.45
-1 1 7 12.53 3.59
-1 1 7 7.16 2.69
-1 1 6 1.4 1.73
1 -1 -6 0.06 1.24
-1 1 6 1.33 0.92
-1 1 5 -0.27 0.64
-1 1 5 -0.48 0.68
-1 1 4 7.49 1.83
1 -1 -4 7.05 2.37
-1 1 4 9.7 2.6
1 -1 -3 351.83 14.54
-1 1 3 368.58 14.26
1 -1 -2 1955.57 37.51
-1 1 2 1960.3 37.12
-1 1 1 1833.49 32.11
1 -1 0 7.39 1.26
1 -1 0 5.6 0.9
1 -1 1 757.98 15.97
1 -1 2 560.89 14.18
-1 1 -2 543.67 14.28
-1 1 -2 538.12 9.8
1 -1 2 499.41 9
1 -1 2 542.71 14.09
-1 1 -2 549.42 14.25
-1 1 -3 -0.05 0.48
-1 1 -3 0.68 0.58
1 -1 3 1.5 0.54
1 -1 3 0.34 0.77
1 -1 3 1.26 0.84
-1 1 -4 97.06 7.01
1 -1 4 96.37 4.98
1 -1 4 93.64 7.1
-1 1 -4 91.53 6.03
1 -1 5 22.18 3.87
-1 1 -5 24.78 3.81
1 -1 5 28.66 4.25
-1 1 -5 21.36 3.27
1 -1 5 24.74 2.92
-1 1 -6 0.18 1.19
1 -1 6 1.64 1.32
1 -1 6 0.02 0.45
-1 1 -6 0.43 0.68
1 -1 6 1.23 1.31
1 -1 7 209.45 13.65
-1 1 -7 226.94 14.09
1 -1 7 252.71 15.84
1 -1 7 239.45 11.54
-1 1 -8 72.76 8.23
1 -1 8 66.31 6.4
1 -1 8 69.75 8.95
1 -1 9 201.26 16.72
1 -1 9 187.35 11.51
1 -1 10 1.49 1.49
1 -1 11 40.63 8.42
-1 0 11 7.03 2.94
-1 0 11 3.79 2.64
-1 0 10 42.57 8.29
-1 0 10 40.06 6.92
-1 0 9 1.62 2.72
-1 0 9 -0.42 1.5
-1 0 9 -0.64 2.39
-1 0 8 149.4 12.44
-1 0 8 150.68 12.36
-1 0 8 154.99 12.15
1 0 -7 128.34 10.91
-1 0 7 125.81 10.38
-1 0 7 138.06 11.26
-1 0 6 6.16 2.42
-1 0 6 1.24 1.05
-1 0 5 1602.45 36.39
1 0 -5 1608.13 37.71
-1 0 5 1591.06 37.74
-1 0 4 54.14 4.96
1 0 -4 51.13 5.13
-1 0 4 55.38 5.37
1 0 -3 9990.33 142.03
-1 0 3 9999 142.17
1 0 -2 1558.1 27.82
-1 0 2 1599.94 28.51
-1 0 1 38.89 2.41
1 0 0 1296.12 20
1 0 0 1308.11 20.87
-1 0 0 1295.73 20.8
1 0 1 65.48 3.32
-1 0 -1 65.42 3.15
1 0 1 59.15 2.86
-1 0 -1 61.72 3.28
1 0 2 395.72 11.51
-1 0 -2 367.54 10.66
1 0 2 391.27 10.26
-1 0 -2 385.96 11.13
-1 0 -3 107.89 6.29
1 0 3 115.54 6.35
-1 0 -3 107.24 6.63
1 0 3 111.61 6.89
1 0 3 107.78 5.69
-1 0 -4 290.01 13.36
-1 0 -4 324.29 12.57
1 0 4 300.71 11.31
1 0 4 285.8 11.77
1 0 4 337.08 13.91
1 0 5 394.48 17.18
1 0 5 356.8 13.7
1 0 5 366.16 14.81
-1 0 -5 386.59 17.03
-1 0 -5 368.96 14.95
1 0 6 52.92 6.08
1 0 6 51.95 6.71
1 0 6 53.75 5.59
-1 0 -6 55.12 6.02
-1 0 -7 608.88 26.01
1 0 7 606.01 21.57
1 0 7 642.42 26.58
1 0 8 194.27 15.38
1 0 8 215.56 13
1 0 9 3.17 1.79
1 0 9 1.86 2
1 0 10 89.06 11.99
1 0 11 7.26 3.5
-1 -1 11 2.14 2.42
-1 -1 11 -1.25 2.72
-1 -1 10 -0.71 1.12
-1 -1 10 0.66 1.2
-1 -1 10 1.22 2.24
-1 -1 9 156.13 13.21
1 1 -9 162.12 12.58
-1 -1 9 163.7 12.62
-1 -1 9 204.23 16.24
-1 -1 8 1.02 1.27
1 1 -8 -0.19 1.74
-1 -1 8 2 1.31
-1 -1 7 24.9 4.83
-1 -1 7 27.16 4.58
-1 -1 6 363.73 16.93
1 1 -6 375.77 15.16
-1 -1 6 379.03 16.63
1 1 -5 670.7 19.31
-1 -1 5 658.82 21.67
-1 -1 4 2002.32 37.78
-1 -1 4 2011.39 40.45
1 1 -4 1959.4 35.9
-1 -1 3 928.83 19.38
1 1 -3 921.95 18.86
-1 -1 2 2510.75 38.11
1 1 -2 2480.63 38.06
-1 -1 2 2504.2 37.45
1 1 -1 5314.08 73.42
1 1 0 23.81 2.09
1 1 1 83.89 3.78
-1 -1 -1 90.07 5.2
1 1 1 85.73 4.72
-1 -1 -2 389.6 13.46
-1 -1 -2 385.78 10.46
1 1 2 390.84 12.48
-1 -1 -2 415.66 14.13
-1 -1 -3 37.12 4.58
1 1 3 46.88 4.42
1 1 3 49.93 4.59
-1 -1 -3 43.25 3.63
1 1 4 89.81 6.91
1 1 4 113.97 8.05
-1 -1 -4 102.64 6.52
-1 -1 -5 8.63 2.76
1 1 5 8.2 2.35
1 1 5 7.18 2.57
-1 -1 -5 10.44 2.4
1 1 6 34.77 5.58
-1 -1 -6 26.01 5.47
1 1 6 26.62 4.36
1 1 7 1.33 2.11
1 1 7 -3.75 2.09
1 1 8 4.16 2.26
1 1 8 3.77 2.39
1 1 9 -0.07 1.28
1 1 9 -3.04 1.87
1 1 10 39.83 8.46
-1 -2 12 24.78 7.14
-1 -2 11 25.74 5.93
-1 -2 11 24.33 4.73
-1 -2 10 12.34 4.53
-1 -2 10 13.9 3.52
-1 -2 10 11.28 3.64
1 2 -9 181.44 11.63
-1 -2 9 181.58 15.2
-1 -2 9 177.4 13.08
-1 -2 8 425.8 21.77
-1 -2 8 423.37 19.23
-1 -2 7 349.13 18.02
-1 -2 7 349.78 18.29
-1 -2 7 337.8 16.03
1 2 -7 382.3 14.56
-1 -2 6 10.83 3.13
-1 -2 6 9.93 2.47
1 2 -6 12.98 2.2
-1 -2 5 455.75 17.94
-1 -2 5 486.65 15.19
1 2 -5 474.79 13.63
-1 -2 4 639.38 14.39
1 2 -4 673.51 15.42
-1 -2 4 681.82 16.06
-1 -2 3 461.26 11.22
-1 -2 3 462.61 11.49
1 2 -3 470.95 11.09
1 2 -2 1206.31 21.44
-1 -2 2 1158.68 21.75
-1 -2 2 1213.29 21.84
1 2 -1 932.6 18.81
-1 -2 1 922.38 19.35
1 2 0 67.31 4.53
-1 -2 -1 177.13 9.22
1 2 1 176.32 8.3
-1 -2 -2 412.58 16.37
-1 -2 -2 422.76 16.46
1 2 2 429.72 14.9
-1 -2 -2 411.42 9.75
1 2 3 10.67 2.52
-1 -2 -3 9.99 1.57
1 2 4 67.18 6.59
-1 -2 -4 58.53 7.47
1 2 5 17.87 3.58
1 2 5 20.15 3.92
-1 -2 -5 12.73 3.79
1 2 6 268.1 16.09
1 2 6 277.15 15.83
1 2 7 12.8 3.52
1 2 7 12 3.74
1 2 8 0.11 1.24
1 2 8 3.82 1.97
1 2 9 1.74 1.5
1 2 9 4.5 3.28
1 2 10 23.31 6.69
-1 -3 12 63.87 10.77
-1 -3 11 5.56 3.38
-1 -3 11 4.72 2.33
1 3 -10 31.7 4.67
-1 -3 10 45.58 8.03
-1 -3 10 40.27 6.63
-1 -3 9 8.28 2.02
-1 -3 9 9.29 2.9
-1 -3 9 8.71 3.07
-1 -3 8 83.54 5.44
-1 -3 8 96.58 9.87
1 3 -8 88.31 6.45
-1 -3 8 75.32 7.55
-1 -3 7 308.05 10.34
-1 -3 7 313.17 14.11
-1 -3 7 281.7 16.8
-1 -3 7 329.75 17.04
1 3 -7 343.92 12.22
-1 -3 6 258.88 8.9
1 3 -6 277.08 10.11
-1 -3 6 271.39 14.32
-1 -3 6 290.74 15.59
-1 -3 6 285.26 11.58
-1 -3 5 144.16 6.37
-1 -3 5 135.92 6.68
-1 -3 5 140.4 9.09
1 3 -4 5.79 1.17
-1 -3 4 5.46 1.17
-1 -3 4 4.53 1.13
-1 -3 4 4.97 1.86
-1 -3 4 7.35 1.84
-1 -3 3 0.68 0.46
-1 -3 3 0.53 0.68
-1 -3 3 1.06 0.57
-1 -3 2 458.56 11.18
1 3 -2 438.31 12.43
-1 -3 2 442.48 13.2
-1 -3 2 470.47 13.86
1 3 -2 437.13 10.96
1 3 -1 522.24 15.02
-1 -3 1 538.46 11.13
1 3 -1 532.11 10.22
1 3 0 0.68 0.48
1 3 0 1.6 1.07
1 3 1 5.57 1.88
-1 -3 -2 221.82 13.51
1 3 2 226.63 11.89
1 3 3 3.86 1.73
-1 -3 -3 2.96 2
1 3 4 43.22 5.93
1 3 5 23.39 4.33
1 3 5 26.79 4.89
1 3 6 207.02 14.34
1 3 6 186.63 14.01
1 3 7 228.96 16.36
1 3 7 254.47 17.24
1 3 8 0.38 2.2
1 3 8 2.63 2.22
1 3 9 35.3 6.98
-1 -4 12 63.57 10.52
-1 -4 11 180.32 16.79
-1 -4 11 126.5 11.14
-1 -4 10 1.44 0.89
-1 -4 10 1.11 1.78
-1 -4 9 453.97 19.2
-1 -4 9 430.1 13.3
1 4 -9 443.04 15.23
-1 -4 9 451.21 23.35
-1 -4 8 411.63 16.57
-1 -4 8 407.07 12.56
-1 -4 7 617.9 18.76
-1 -4 7 652.79 16.35
-1 -4 7 591.71 25.42
-1 -4 7 646.15 24.48
-1 -4 6 82.86 7.59
-1 -4 6 69.06 4.91
-1 -4 6 69.42 4.64
1 4 -5 124.57 6.08
-1 -4 5 123.8 6.35
-1 -4 5 132.44 8.78
-1 -4 5 125.9 6.42
-1 -4 4 74.98 6.69
-1 -4 4 67.91 4.86
-1 -4 4 68.37 5.59
1 4 -4 73.2 4.67
1 4 -3 352.07 11.7
-1 -4 3 376.98 12.96
-1 -4 3 365.93 11.97
-1 -4 3 373.12 14.03
1 4 -3 364.52 11.68
-1 -4 2 1268.04 27.01
-1 -4 2 1337 24.87
-1 -4 2 1296.39 29.9
1 4 -2 1235.26 23.19
1 4 -2 1291.07 27.6
1 4 -1 12.33 1.48
-1 -4 1 10.54 1.64
1 4 -1 10.45 2.26
-1 -4 1 12.05 1.65
-1 -4 1 13.31 2.77
1 4 0 457.47 11.86
1 4 0 442.97 16.38
-1 -4 0 414.26 9.25
-1 -4 -1 497.63 21.45
1 4 1 489.59 18.61
1 4 1 508.79 15.31
1 4 2 738.51 24.82
-1 -4 -2 744.63 28.43
-1 -4 -2 718.85 27.91
1 4 3 14.63 3.7
1 4 4 86.83 9.1
1 4 5 109.67 10.76
1 4 5 109.78 9.64
1 4 6 18.25 4.79
1 4 6 19.12 4.48
1 4 7 -1.03 2.42
1 4 7 -1.19 2.38
1 4 8 152.23 14.74
-1 -5 12 139.62 15.47
-1 -5 11 35.45 5.59
-1 -5 11 45.04 8.26
-1 -5 10 30.34 4.93
-1 -5 10 28.62 6.13
-1 -5 9 64.21 6.43
-1 -5 9 56.82 4.41
-1 -5 9 61.74 8.36
-1 -5 8 67.58 5.88
-1 -5 8 70.52 4.95
-1 -5 8 66.39 8.08
-1 -5 7 381.33 12.43
-1 -5 7 382.33 13.12
-1 -5 7 410.59 21.19
-1 -5 7 409.11 19.08
-1 -5 6 359.56 12.38
1 5 -6 358.65 11.79
-1 -5 6 391.48 17.21
-1 -5 6 374.78 18.79
-1 -5 6 370.11 12.32
1 5 -5 16.39 2.41
-1 -5 5 21.31 3.66
-1 -5 5 15.77 2.55
-1 -5 5 16.42 3.49
-1 -5 4 919.87 26.45
1 5 -4 836.24 21.11
-1 -5 4 872.77 23.16
-1 -5 4 875.04 23.27
1 5 -3 508.9 14.64
-1 -5 3 537.65 18.44
1 5 -3 519.52 16.49
-1 -5 3 506.64 15.76
-1 -5 3 528.7 17.72
-1 -5 2 1231.58 25.48
-1 -5 2 1292.74 32.87
1 5 -2 1209.38 29.22
1 5 -2 1182.46 23.25
-1 -5 2 1282.23 27.56
1 5 -1 332.49 9.77
-1 -5 1 351.86 17.28
-1 -5 1 328.25 10.48
1 5 -1 324.58 14.22
1 5 0 -0.2 0.88
1 5 0 0.95 0.61
-1 -5 0 0.13 1.24
1 5 1 88.27 6.4
1 5 1 92.27 8.38
1 5 2 291.14 13.82
1 5 2 291.09 16.17
1 5 3 44.28 5.87
1 5 3 46.93 6.82
1 5 4 81.1 9.42
1 5 4 84.2 8.88
1 5 5 7.62 3.39
1 5 5 4.7 2.12
1 5 6 3.62 2.18
1 5 7 32.83 6.87
-1 -6 12 41.19 8.29
-1 -6 11 -0.47 2.45
-1 -6 10 136.58 9.67
-1 -6 10 146.9 13.79
-1 -6 9 9 1.83
-1 -6 9 9.5 2.29
-1 -6 9 8.6 3.2
-1 -6 8 5.19 1.58
-1 -6 8 0.95 0.76
-1 -6 8 3.51 1.3
-1 -6 7 4.32 1.3
-1 -6 7 4.95 1.45
-1 -6 7 4.3 2.05
1 6 -7 4.91 1.43
-1 -6 6 295.94 12.57
-1 -6 6 299.88 17.14
1 6 -6 275.82 10.99
-1 -6 6 292.14 15.26
-1 -6 5 14.15 3
-1 -6 5 18.43 3.83
1 6 -5 19.6 3.02
-1 -6 5 16.58 3.1
1 6 -4 188.65 9.85
-1 -6 4 192.6 10.52
-1 -6 4 175.8 10.92
1 6 -4 163 8.94
-1 -6 3 42.15 4.89
1 6 -3 30.35 3.35
-1 -6 3 31.84 3.89
1 6 -3 38.01 4.62
-1 -6 3 33.61 4.99
1 6 -2 -0.43 0.86
-1 -6 2 0.31 0.72
-1 -6 2 2.16 1.8
1 6 -2 0.17 0.42
-1 -6 2 0.28 0.45
-1 -6 1 26.67 2.74
-1 -6 1 32.03 5.73
1 6 -1 31.81 4.67
1 6 -1 31.91 3.05
1 6 0 196.19 12.64
1 6 0 200.33 8.85
1 6 1 250.55 11.51
1 6 1 251.99 15.25
1 6 2 8.54 2.37
1 6 2 9.23 3.2
1 6 3 127.09 11.93
1 6 4 19.18 4.99
1 6 5 18.22 5.27
1 6 6 12.11 4.23
-1 -7 12 4.02 2.55
-1 -7 11 119.17 13.52
-1 -7 10 16.1 3.16
-1 -7 10 25.57 6.08
-1 -7 9 280.32 12.19
-1 -7 9 302.13 19.19
-1 -7 8 22.87 3.29
-1 -7 8 25.42 5.11
-1 -7 8 23.22 3.54
1 7 -7 92.85 6.48
-1 -7 7 90.15 6.59
-1 -7 7 82.02 7.03
-1 -7 7 83.37 8.93
-1 -7 6 89 7.79
1 7 -6 80.61 6.36
-1 -7 6 83.16 9.14
-1 -7 6 82.6 8.17
-1 -7 5 5.1 2
-1 -7 5 8.98 2.96
-1 -7 5 7.25 2.33
1 7 -5 6.34 1.88
1 7 -4 362.02 14.03
-1 -7 4 342.77 15.39
-1 -7 4 358.3 17.82
1 7 -4 378.39 15.84
-1 -7 3 501.76 17.22
1 7 -3 474.07 18.88
-1 -7 3 474.7 22.13
-1 -7 3 465.49 17.56
1 7 -3 481.7 14.95
-1 -7 2 14.59 2.57
1 7 -2 16.18 3.54
1 7 -2 15.43 2.28
1 7 -1 23.72 2.76
1 7 -1 26.46 4.7
1 7 0 26.87 3.24
1 7 0 23.51 4.81
1 7 1 520.9 17.45
1 7 1 559.52 24.92
1 7 2 6.74 3.32
1 7 3 35.13 6.67
1 7 4 94.5 11.48
-1 -8 12 3.12 3.18
-1 -8 11 64.02 9.97
-1 -8 10 12.15 4.2
-1 -8 10 12.77 2.68
-1 -8 9 11.84 4.34
-1 -8 9 7.91 2.27
-1 -8 8 35.3 4.96
1 8 -8 47.63 4.89
-1 -8 8 48.81 7.51
-1 -8 8 50.18 5.07
-1 -8 7 35.52 5.27
1 8 -7 35.74 4.43
-1 -8 7 40.7 6.34
1 8 -6 244.52 12.45
-1 -8 6 220.44 13.88
-1 -8 6 243.62 14.92
-1 -8 5 39.14 5.57
-1 -8 5 34.04 5.76
1 8 -5 41.18 5.24
-1 -8 5 31.28 5.47
-1 -8 4 249.57 13.3
-1 -8 4 236.2 13.68
1 8 -4 234.07 13.36
1 8 -4 203.07 10.51
-1 -8 3 36.46 4.74
1 8 -3 37.62 4.04
1 8 -3 40.64 5.69
-1 -8 3 42.08 4.99
1 8 -2 12.99 3.4
1 8 -2 13.54 2.23
1 8 -1 259.44 16.2
1 8 -1 245.22 9.42
1 8 0 122.07 11.52
1 8 1 72.71 9.5
1 8 2 61.37 9.13
1 8 3 179.28 16.12
-1 -9 12 113.95 14.41
-1 -9 11 11.37 4.4
-1 -9 10 347.96 23.37
1 9 -9 230.15 11.54
-1 -9 9 243.29 11.93
-1 -9 9 254.91 19.09
1 9 -8 363.66 15.13
-1 -9 8 344.15 20.77
-1 -9 8 354.88 15.08
-1 -9 8 302.3 16.75
1 9 -7 43.07 5.37
-1 -9 7 36.92 6.51
-1 -9 6 27.22 5.27
1 9 -6 28.44 4.42
-1 -9 5 17.46 4.16
-1 -9 5 11.7 3.27
1 9 -5 17.91 3.87
-1 -9 4 137.58 10.01
-1 -9 4 131.42 10.25
1 9 -4 110.41 7.79
1 9 -4 122.72 10.41
1 9 -3 195.01 13.7
1 9 -2 24.42 5.16
1 9 -1 193.03 14.97
1 9 0 22.61 5.48
1 9 1 19.73 5.37
-1 -10 12 68.52 11.71
-1 -10 11 2.91 3.24
-1 -10 10 22.25 6.39
1 10 -9 20.77 3.6
-1 -10 9 28.04 4.27
1 10 -8 -3.28 1.62
-1 -10 8 2.52 2.6
1 10 -7 1.55 1.13
-1 -10 7 2.33 1.47
-1 -10 6 58.91 7.95
1 10 -6 62.58 7.33
-1 -10 5 2.18 1.88
1 10 -5 3.88 2.02
1 10 -4 1.9 1.48
1 10 -3 92.73 10.14
1 10 -2 37.57 6.9
1 10 -1 32 6.53
-1 -11 12 9.78 4.6
-1 -11 11 40.61 9.1
-1 -11 10 5.69 3.1
-1 -11 9 5.97 3.64
-1 -11 8 102.71 12
1 11 -8 94.57 9.09
1 11 -7 31.51 5.44
1 11 -6 137.31 11.79
1 11 -5 104 10.64
1 11 -4 2.82 2.08
1 11 -3 55.21 8.31
1 11 -2 94.22 11.39
1 12 -8 2.52 2.06
1 12 -7 5.98 2.5
1 12 -6 -1.39 1.59
1 12 -5 104.81 11.43
-2 13 -4 1.58 1.44
-2 13 -5 48.64 7.77
2 -13 7 5.89 4.32
2 -13 8 -3.91 3.59
2 -13 9 54.68 11.12
-2 12 -2 79.78 10.78
-2 12 -3 9.7 3.47
2 -12 4 7.53 3.07
-2 12 -4 -0.06 1.55
-2 12 -5 5.59 2.46
2 -12 5 0.58 1.61
-2 12 -6 68.25 8.12
2 -12 6 67.39 11.02
2 -12 7 0.25 3.96
2 -12 8 66.75 11.53
2 -12 9 3.8 2.48
2 -12 10 88.09 13.98
-2 11 0 115.04 13.51
-2 11 -1 8.26 3.9
-2 11 -2 33.29 6.47
2 -11 3 0.4 1.3
-2 11 -3 1.22 1.81
2 -11 4 30.42 6.57
-2 11 -4 24.25 4.68
-2 11 -4 29.38 5.7
-2 11 -5 3.17 1.84
2 -11 5 -2.4 2.23
-2 11 -5 1.16 1.48
-2 11 -6 76.89 9.76
2 -11 6 70.78 10.87
-2 11 -6 84.08 8.21
-2 11 -7 -0.76 2.13
-2 11 -7 1.16 0.85
-2 11 -8 57.98 9.12
2 -11 8 52.15 9.59
-2 11 -9 14.1 4.83
2 -11 9 15.59 6.23
2 -11 10 4.04 3.26
-2 11 -10 -0.54 2.05
-2 10 1 36.53 7.44
-2 10 0 9.54 4.24
-2 10 -1 28.19 6.13
-2 10 -2 18.55 4.75
2 -10 2 5.01 3
-2 10 -3 93.47 9.84
2 -10 3 94.5 11.03
-2 10 -3 97.15 8.72
-2 10 -4 45.97 6.51
2 -10 4 52.97 8.52
-2 10 -4 58.49 7.22
2 -10 5 76.25 9.19
2 -10 5 90.21 11.34
-2 10 -5 83.48 8.09
-2 10 -5 79.11 9.22
-2 10 -6 33.91 4.74
2 -10 6 36.79 7.51
-2 10 -6 31.71 6.17
-2 10 -7 1.1 2.01
-2 10 -7 -0.49 1.28
2 -10 7 0.43 1.83
2 -10 8 3.72 3.2
-2 10 -8 -0.47 1.74
-2 10 -9 5.07 3.83
2 -10 9 2.3 2.72
2 -10 10 1.3 2.5
-2 10 -10 -0.34 1.95
2 -10 11 -1.74 2.37
-2 10 -11 -4.2 3.28
-2 9 3 108.38 13.51
-2 9 2 10.72 4.19
-2 9 1 74.95 10.18
-2 9 0 6.02 2.82
-2 9 -1 145.05 12.75
-2 9 -1 164.79 13.93
-2 9 -1 172.5 9.21
-2 9 -2 21.77 4.76
2 -9 2 33.69 6.24
-2 9 -2 24.82 4.01
-2 9 -2 36.49 6.11
2 -9 3 375.3 21.81
-2 9 -3 388.08 20.34
-2 9 -3 374.36 17.37
-2 9 -3 427.28 19.83
2 -9 4 57.89 8.59
-2 9 -4 50.22 6.61
-2 9 -4 50.96 6.25
2 -9 4 42.33 6.42
2 -9 5 9.34 2.99
-2 9 -5 8.41 2.31
2 -9 5 5.94 2.6
-2 9 -5 5.09 2.33
2 -9 6 204.47 16.94
-2 9 -6 230.6 16.16
2 -9 6 219.18 12.12
-2 9 -6 202.24 10.3
2 -9 7 203.44 17.29
2 -9 7 204.73 9.37
-2 9 -7 199.01 15.76
-2 9 -7 209.08 8.91
2 -9 8 1.71 1.51
-2 9 -8 -1.23 1.69
-2 9 -9 1.29 2.81
2 -9 9 1.86 2.83
-2 9 -10 31.35 7.21
2 -9 10 33.03 7.78
-2 9 -11 1.38 1.89
2 -9 11 1.68 3.01
-2 8 4 28.38 6.89
-2 8 3 7.76 3.95
-2 8 2 170.89 15.6
-2 8 1 0.8 1.57
-2 8 1 0.37 1.24
-2 8 0 428.18 13.18
-2 8 0 408.48 21.92
-2 8 -1 166.99 13
-2 8 -1 156.74 12.59
-2 8 -1 152.17 8.84
2 -8 1 156.62 12.92
2 -8 2 451.71 22.49
-2 8 -2 439.09 17.39
2 -8 2 455.71 22.52
-2 8 -2 458.69 21.57
-2 8 -2 463.21 20.69
-2 8 -3 1.24 1.02
-2 8 -3 0.15 1.22
2 -8 3 0.98 1.44
-2 8 -3 -0.81 1.28
2 -8 3 0.93 1.55
-2 8 -4 95.17 8.93
2 -8 4 94.25 10.39
2 -8 4 92.61 8.44
-2 8 -4 78.52 8.53
-2 8 -4 92.55 7.72
-2 8 -5 92.17 9.37
2 -8 5 99.23 7.81
-2 8 -5 89.37 6.74
2 -8 5 98.98 10.65
2 -8 6 311.3 19.67
2 -8 6 350.33 12.76
-2 8 -6 324.63 11.35
-2 8 -6 319.43 18.61
2 -8 7 145.53 13.95
-2 8 -7 127.63 12.22
-2 8 -7 135.03 5.45
2 -8 8 13.76 4.68
-2 8 -8 21.05 5.35
-2 8 -9 42.1 7.82
2 -8 9 40.93 8.03
-2 8 -10 85.05 11.72
2 -8 10 83.43 11.99
2 -8 11 54.13 9.89
-2 8 -11 51.17 9.55
-2 7 6 22.99 6.53
-2 7 5 13.91 5.49
-2 7 4 10.36 3.62
-2 7 3 12.93 4
-2 7 2 563.87 27.4
-2 7 2 618.07 28.02
-2 7 1 4.86 1.22
-2 7 1 3.91 1.84
-2 7 1 6.3 3.1
-2 7 0 8.95 1.89
-2 7 0 13.33 3.71
-2 7 0 10.44 3.2
2 -7 1 24.27 4.67
-2 7 -1 14.29 3.42
-2 7 -1 21.2 3.26
-2 7 -1 20.32 4.2
2 -7 1 15.6 3.99
2 -7 2 53.32 7.09
2 -7 2 66.72 7.43
-2 7 -2 62.19 6.76
-2 7 -2 55.24 5.84
-2 7 -2 69.16 7.78
2 -7 3 80.84 9.02
-2 7 -3 80.38 8.24
-2 7 -3 67.27 6.93
2 -7 3 84.96 7.73
-2 7 -3 76.39 6.89
2 -7 4 190.89 14.1
-2 7 -4 193.88 12.68
-2 7 -4 204.91 10.32
2 -7 4 218.5 11.35
-2 7 -4 203.91 13.44
-2 7 -5 88.5 5.64
2 -7 5 97.5 6.32
2 -7 5 95.82 9.9
-2 7 -5 97.86 9.38
-2 7 -5 96.1 9.37
-2 7 -6 27.45 5.33
2 -7 6 26.58 5.48
-2 7 -6 24.66 2.22
-2 7 -7 65.42 8.61
2 -7 7 92.11 10.54
2 -7 8 78.49 10.29
-2 7 -8 71.66 9.44
2 -7 9 330.58 22.21
-2 7 -9 319.59 21.57
2 -7 10 0.62 1.93
-2 7 -10 -0.14 2.89
-2 7 -11 89.24 12.6
2 -7 11 76.21 11.68
-2 6 7 2.68 3.02
-2 6 6 276.11 20.79
-2 6 5 4.03 2.76
-2 6 4 37.85 7
-2 6 3 412.68 22.17
-2 6 3 343.12 21.36
-2 6 2 149.83 12.97
-2 6 2 117.13 5.12
-2 6 2 147.91 12.51
-2 6 1 180.9 13.56
2 -6 -1 183.76 14.26
-2 6 1 173.5 7.5
-2 6 1 179.93 13.51
2 -6 0 999.15 31.92
-2 6 0 909.74 22.41
2 -6 0 1011.22 32.88
-2 6 0 962.46 30.49
2 -6 1 2228.11 52.39
-2 6 -1 2320.02 44.51
2 -6 1 2383.69 52.9
-2 6 -1 2339.79 50.14
-2 6 -2 1.71 1.07
-2 6 -2 2.09 1.35
2 -6 2 -0.51 1.53
2 -6 3 51.17 6.53
-2 6 -3 52.07 5.83
2 -6 3 50.89 5.19
-2 6 -3 39.13 4.32
-2 6 -4 11.92 2.01
2 -6 4 10.98 2.03
2 -6 4 17.73 3.94
-2 6 -4 11.99 2.98
-2 6 -4 13 3.15
2 -6 5 1138.72 35.58
2 -6 5 1052.89 19.05
-2 6 -5 1099.9 33.7
-2 6 -5 1179.29 20.74
-2 6 -5 1111.7 33.88
-2 6 -6 362.94 19.24
-2 6 -6 364.36 19.28
2 -6 6 371.15 19.87
2 -6 7 0.52 0.77
-2 6 -7 2.46 1.8
-2 6 -8 11.31 3.67
2 -6 8 15.16 4.36
-2 6 -9 7.1 3.22
2 -6 9 -0.09 1.71
-2 6 -10 22.39 5.87
2 -6 10 16.21 5.29
2 -6 11 4.99 2.83
-2 6 -11 -1.99 3.46
-2 5 8 39.95 8.29
-2 5 7 -1.93 2.06
-2 5 6 100.04 11.88
-2 5 5 18.02 4.79
-2 5 5 15.16 1.99
-2 5 4 283.09 18.59
-2 5 4 284.8 18.48
-2 5 4 269.48 8.95
-2 5 4 272.24 19.13
-2 5 3 23 4.87
-2 5 3 15.86 4.2
-2 5 3 20.83 4.6
-2 5 2 -0.11 1.7
-2 5 2 2.43 1.5
2 -5 -2 1.47 2.19
-2 5 1 4.82 2.07
-2 5 1 3.55 1.81
2 -5 -1 7.01 2.59
-2 5 0 3.98 1.81
-2 5 0 7.75 2.4
-2 5 0 3.65 1.45
2 -5 0 5.98 2.23
2 -5 0 10.29 2.83
-2 5 -1 1209.14 30.52
-2 5 -1 1226.69 33.15
-2 5 -1 1241.9 28.2
-2 5 -1 1209.68 29.39
2 -5 1 1243.47 33.74
2 -5 1 1218.37 31.34
-2 5 -2 2477.22 46.13
2 -5 2 2490.66 46.98
-2 5 -2 2507.34 51.89
2 -5 2 2377.75 52.44
-2 5 -2 2472.99 48.11
2 -5 3 144.76 7.21
2 -5 3 135.57 10.24
-2 5 -3 137.68 9.29
-2 5 -3 137.81 7.03
-2 5 -4 367.11 9.66
2 -5 4 333.78 8.46
-2 5 -4 386.74 17.02
2 -5 4 322.77 16.48
-2 5 -5 112.31 9.62
2 -5 5 95.8 9.12
-2 5 -5 105.02 9.31
-2 5 -6 69.82 8.16
-2 5 -6 77.1 8.54
2 -5 6 73.79 8.25
2 -5 6 74.93 8.42
2 -5 7 18.26 4.3
-2 5 -7 24.43 5.15
-2 5 -8 21.31 5.15
2 -5 8 16.47 4.66
2 -5 9 0.41 1.9
-2 5 -9 4.21 2.4
2 -5 10 12.16 4.53
-2 5 -10 8.39 3.97
-2 5 -11 38.15 8.31
2 -5 11 53.38 9.46
-2 4 9 39.8 8.28
-2 4 8 43.85 8.76
-2 4 7 37.47 7.43
-2 4 6 324.42 20.37
-2 4 6 301.98 19.9
-2 4 5 4.71 2.33
-2 4 5 2.33 1.14
-2 4 5 2.26 1.85
-2 4 4 0.82 0.81
-2 4 4 1.73 1.65
-2 4 4 -0.29 1.29
-2 4 4 3.07 2.35
-2 4 3 41.28 6.65
-2 4 3 35.9 5.61
2 -4 -3 36.09 6.11
-2 4 2 5.18 2.17
-2 4 1 160.72 11.01
2 -4 -1 159.8 10.76
-2 4 1 161.43 10.37
2 -4 0 581.86 21.01
-2 4 0 576.57 20.99
2 -4 0 615.97 20.41
2 -4 1 1114.8 30.41
-2 4 -1 1122.48 30.42
-2 4 -1 1196.41 26.56
2 -4 1 1195.78 27.6
-2 4 -2 39.04 4.42
2 -4 2 52.7 5.78
-2 4 -2 46.23 3.6
-2 4 -2 46.3 5.16
2 -4 2 44.72 3.79
-2 4 -3 52.56 5.49
2 -4 3 59.15 6.23
2 -4 3 48.83 2.78
-2 4 -3 52.28 5.61
-2 4 -3 60.07 3.61
-2 4 -4 1096.53 30.44
2 -4 4 1085.53 30.83
2 -4 5 3.15 1.66
2 -4 5 2.52 1.3
2 -4 6 563.28 23.64
2 -4 6 596.24 24.19
-2 4 -6 613.12 24.44
2 -4 7 147.33 12.14
-2 4 -7 136.65 11.66
-2 4 -8 3.86 1.57
2 -4 8 2.22 2.19
-2 4 -8 0.5 0.4
-2 4 -9 8.7 3.36
2 -4 9 13.27 4.31
-2 4 -10 67.12 9.85
2 -4 10 48.74 8.65
2 -4 11 301.38 23.11
-2 3 10 2.8 2.19
-2 3 9 75.7 11.04
-2 3 8 28.52 6.3
-2 3 8 36.75 7.17
-2 3 7 90.27 8.07
-2 3 7 127.84 12.61
-2 3 7 116.25 12.44
-2 3 6 1.18 1.34
-2 3 6 1.11 1.96
-2 3 6 3.18 2.37
-2 3 5 36.6 6.18
-2 3 5 27.2 3.77
-2 3 4 93.4 9.15
2 -3 -4 101.33 9.94
-2 3 3 61.41 6.81
-2 3 2 373.1 16.2
-2 3 2 396.11 17.75
-2 3 1 128.62 9.03
2 -3 -1 133.99 8.74
-2 3 1 125.02 8.29
2 -3 0 1532.54 35.18
-2 3 0 1569.61 35.58
-2 3 0 1632.09 32.71
2 -3 0 1495.63 32.21
2 -3 1 528.14 17.89
-2 3 -1 516.92 17.49
-2 3 -1 557.35 14.56
2 -3 1 550.65 14.48
2 -3 2 483.66 16.94
-2 3 -2 481.85 11.03
2 -3 2 453.05 10.21
-2 3 -2 470.71 16.01
-2 3 -3 0.11 0.89
-2 3 -3 1.1 0.31
-2 3 -4 8.78 2.37
2 -3 4 6.47 2.09
-2 3 -5 444.45 19
-2 3 -5 450.97 19.05
2 -3 5 435.54 18.44
-2 3 -5 395.68 9.23
2 -3 6 101.61 9.27
-2 3 -6 83.2 4.69
-2 3 -6 83.26 8.53
-2 3 -7 222.29 9.32
2 -3 7 222.1 14.9
-2 3 -7 227.6 14.9
2 -3 7 206.97 5.73
-2 3 -8 38.42 4.25
2 -3 8 45.03 2.87
-2 3 -8 52.12 7.62
2 -3 8 41.01 6.72
-2 3 -9 44.61 7.68
2 -3 9 46.06 3.22
2 -3 9 49.42 8.2
-2 3 -10 39.68 7.6
2 -3 10 38.03 7.86
2 -3 11 11 4.84
-2 2 11 7.02 3.82
-2 2 10 8.9 4.14
-2 2 9 23.3 5.98
-2 2 9 14.74 4.77
-2 2 8 173.41 15.02
-2 2 8 157.78 12.22
-2 2 7 0.1 0.92
-2 2 7 1.28 1.58
-2 2 6 104.58 10.63
-2 2 6 101.61 8.31
-2 2 5 105.29 9.96
2 -2 -5 108.21 10.33
-2 2 5 97.64 7.52
-2 2 4 26.23 4.49
-2 2 3 1668.77 40.07
-2 2 2 550.07 18.58
-2 2 2 586.45 20.18
-2 2 1 2114.95 40.09
2 -2 -1 2091.34 40.49
2 -2 0 112.18 7.16
2 -2 0 110.21 5.71
-2 2 0 116.39 5.96
2 -2 1 97.23 6.45
-2 2 -1 91.33 4.22
2 -2 1 86.84 3.89
-2 2 -2 583.57 10.88
-2 2 -2 605.34 17.56
-2 2 -2 594.95 11.34
2 -2 2 610.87 18.02
2 -2 3 429.63 8.55
-2 2 -3 441.96 15.64
2 -2 3 433.26 15.88
-2 2 -3 443.86 9.13
-2 2 -4 137.04 9.49
2 -2 4 146.18 9.45
2 -2 4 145.4 4.58
-2 2 -4 124.11 5.92
-2 2 -4 151.81 9.65
2 -2 5 55.6 6.28
-2 2 -5 54.99 4.6
2 -2 5 57.37 3.21
-2 2 -5 47.94 5.92
2 -2 6 235.83 14.27
-2 2 -6 226.58 11.06
-2 2 -6 247.67 14.45
2 -2 6 253.22 8.3
-2 2 -7 1373.23 33.99
-2 2 -7 1372.01 39.61
2 -2 7 1397.9 27.13
2 -2 7 1373.64 40.69
2 -2 8 2.15 1
-2 2 -8 2.34 1.77
2 -2 8 1.07 1.86
2 -2 9 91.58 6.3
-2 2 -9 103.96 11.28
2 -2 9 93.26 11.28
2 -2 10 31.75 6.95
2 -2 11 24.56 6.35
-2 1 11 1.52 1.64
-2 1 11 10.77 4.29
-2 1 10 -0.58 2.36
-2 1 10 0.44 1.72
-2 1 9 -6.72 3.16
-2 1 9 0.17 1.27
-2 1 8 28.18 5.27
-2 1 8 29.48 6.38
-2 1 7 100.82 9.23
-2 1 7 102.32 10.57
-2 1 6 39.24 5.29
-2 1 6 32.69 5.71
2 -1 -6 36.38 6.05
-2 1 5 2618.46 56.42
2 -1 -4 897.52 26.96
-2 1 4 896.48 26.76
2 -1 -3 679.12 20.64
-2 1 3 679.66 20.72
-2 1 2 4769.52 75.22
2 -1 -1 4515.12 69.11
2 -1 -1 4624.72 73.41
2 -1 0 1131.41 20.98
-2 1 0 1208.41 25.37
2 -1 0 1192.6 25.19
-2 1 0 1184.59 21.44
-2 1 -1 4.71 0.85
2 -1 1 5.53 0.99
2 -1 1 5.43 1.41
-2 1 -1 5.05 1.3
-2 1 -2 15.12 1.62
2 -1 2 14.93 1.54
2 -1 2 12.74 2.21
-2 1 -2 18.06 2.57
-2 1 -3 45.38 4.71
2 -1 3 44.22 2.95
2 -1 3 46.07 4.57
-2 1 -3 48.6 3.57
-2 1 -3 49.11 4.9
2 -1 4 8.06 1.43
-2 1 -4 6.14 1.58
-2 1 -4 6.55 1.78
2 -1 4 4.43 1.71
-2 1 -5 115.56 8.27
2 -1 5 123.65 9.46
2 -1 5 119.15 6.31
-2 1 -5 107.32 8.56
-2 1 -6 8.92 2.79
2 -1 6 8.72 1.9
-2 1 -6 7.41 2.42
2 -1 6 7.99 2.77
-2 1 -7 132.05 10.93
2 -1 7 122.15 11.13
2 -1 7 130.18 7.96
-2 1 -7 118.68 10.21
-2 1 -8 103.39 10.29
-2 1 -8 102.4 10.19
2 -1 8 118.2 8.15
2 -1 8 112.41 11.52
2 -1 9 5.94 1.87
2 -1 9 4.95 2.77
2 -1 10 35.24 7.62
2 -1 11 2.74 2.85
-2 0 11 1.33 1.24
-2 0 11 3.26 3.37
-2 0 11 0.86 1.38
-2 0 10 0.21 1.75
-2 0 10 12.41 4.33
-2 0 9 3.5 2.07
-2 0 8 642.22 28.07
-2 0 8 570.94 24.96
2 0 -7 2.53 2
-2 0 7 1.09 0.88
-2 0 7 1.58 1.09
2 0 -6 3379.67 65.4
-2 0 6 3253.06 67.21
-2 0 6 3467.24 66.05
-2 0 5 1733.06 41.31
2 0 -5 1810.24 39.7
2 0 -4 706.91 20.47
-2 0 4 700.72 21.37
-2 0 3 811.01 20.74
2 0 -3 785.38 19.94
-2 0 2 5028.59 76.11
-2 0 1 1878.06 31.4
-2 0 1 1836.78 33.27
2 0 0 8069.76 113.53
-2 0 0 8111.45 113.25
2 0 0 8208.74 111.5
-2 0 0 8124.56 111.86
2 0 1 61.81 3.68
-2 0 -1 69.54 4.19
-2 0 -1 66.22 3.91
2 0 1 72.6 4.44
2 0 2 558.25 15.38
2 0 2 575.62 13.98
-2 0 -2 568.19 15.61
-2 0 -2 593.34 15.45
-2 0 -3 340.1 13.13
2 0 3 386.35 13.61
2 0 3 354.94 11.42
-2 0 -3 365.92 13.13
-2 0 -4 61.19 5.78
-2 0 -4 56.2 5.54
-2 0 -4 52.87 5.6
2 0 4 54.11 5.55
2 0 4 64.02 4.94
-2 0 -5 251.2 12.9
2 0 5 233.78 13.14
2 0 5 254.39 11.22
-2 0 -6 2.68 1.72
2 0 6 0.87 0.73
-2 0 -6 -0.78 0.98
2 0 6 1.95 1.51
2 0 7 91.05 9.69
-2 0 -7 99.7 9.07
-2 0 -7 85.31 9.83
2 0 7 89.07 7.51
2 0 8 58.85 6.47
2 0 8 58.7 8.39
2 0 9 9.41 3.67
2 0 9 12.78 3.23
2 0 10 6.91 3.76
-2 -1 12 42.99 8.42
-2 -1 11 44.85 8.69
-2 -1 11 35.02 7.07
-2 -1 11 29.94 6.06
-2 -1 10 546.26 27.36
-2 -1 9 73.32 9.31
2 1 -8 581.35 22.49
-2 -1 8 578.25 25.2
2 1 -7 646.72 22.54
-2 -1 7 617.15 24.64
-2 -1 7 663.38 25.14
-2 -1 6 409.82 18.27
-2 -1 6 379.12 16.98
-2 -1 5 20.84 3.42
2 1 -5 22.53 3.25
-2 -1 4 114.76 7.06
2 1 -4 125.22 7.02
-2 -1 3 13.49 2.03
-2 -1 3 9.4 1.78
2 1 -3 12.57 1.93
2 1 -2 2336.93 38.22
-2 -1 2 2303.71 37.96
-2 -1 2 2336.34 38.76
2 1 -1 956.38 19.37
-2 -1 1 962.25 18.52
2 1 0 223.83 6.53
-2 -1 0 213.57 8.13
2 1 0 227.73 8.11
-2 -1 0 224.26 6.09
-2 -1 -1 481.09 11.6
2 1 1 486.68 11.83
-2 -1 -1 502.02 14.7
2 1 1 462.23 13.46
2 1 2 44.18 4.12
2 1 2 47.8 3.87
-2 -1 -2 43.4 4.64
2 1 3 662.03 19
2 1 3 670.8 19.14
-2 -1 -3 677.03 18.53
-2 -1 -3 675.06 21.68
2 1 4 278.55 12.99
2 1 4 270.26 12.2
-2 -1 -4 261.08 11.84
-2 -1 -5 160.06 12.55
2 1 5 161.04 11.02
2 1 5 165.17 10.19
-2 -1 -5 161.07 9.66
-2 -1 -6 16.16 3.34
2 1 6 22.18 3.91
2 1 6 19.84 4.17
2 1 7 12.54 3.03
2 1 7 10.3 3.54
2 1 8 8.03 2.62
2 1 8 14.58 4.56
2 1 9 71.96 8.38
2 1 9 65.61 9.82
2 1 10 7.61 3.64
-2 -2 12 -1.04 2.22
-2 -2 12 -6.51 3.6
-2 -2 11 0.73 2.68
-2 -2 11 6.58 3.53
-2 -2 10 2.88 2.1
-2 -2 10 2.43 2.49
-2 -2 9 529.74 24.17
2 2 -9 497.59 20.2
2 2 -8 102.18 8.07
-2 -2 8 88.06 8.95
-2 -2 7 38.37 6.03
-2 -2 7 37.9 5.29
-2 -2 6 148.8 8.27
-2 -2 6 149.78 10.96
2 2 -6 145.76 8.27
-2 -2 6 136.42 8.97
-2 -2 5 2289.14 40.14
-2 -2 5 2215.57 42.3
2 2 -5 2203.38 41.07
-2 -2 4 144.42 6.81
-2 -2 4 150.88 7.57
2 2 -3 95.99 5.34
-2 -2 3 102.02 5.64
-2 -2 3 107.87 5.93
2 2 -2 2.14 0.78
-2 -2 2 4.69 1.26
2 2 -1 0.42 0.62
2 2 0 47.02 4.1
-2 -2 0 44.55 4.32
2 2 1 4.69 0.94
2 2 1 5.79 1.65
-2 -2 -1 5.07 1.81
2 2 2 227.17 8.76
2 2 2 227.97 10.9
-2 -2 -2 231.68 8.68
-2 -2 -3 7.27 1.73
2 2 3 8.49 2.28
2 2 3 10.79 2.15
-2 -2 -3 9.11 2.81
-2 -2 -3 9.08 2.72
2 2 4 169.26 10.15
2 2 4 167.14 10.53
-2 -2 -4 163.44 12.84
-2 -2 -4 157.54 8.16
2 2 5 62.95 6.81
2 2 5 51.16 6.18
-2 -2 -5 54.07 5.14
2 2 6 46.88 6.36
2 2 6 58.22 7.25
2 2 7 1.31 1.11
2 2 7 -0.22 0.88
2 2 8 58.57 8.6
2 2 8 44.26 7.02
2 2 9 3.2 2.58
2 2 9 0.07 2.74
-2 -3 12 48.91 8.1
-2 -3 12 70.68 11.19
-2 -3 11 16.93 4.98
-2 -3 11 18.54 5.99
-2 -3 10 29.31 6.42
-2 -3 10 15.69 2.85
-2 -3 10 17.76 4.72
2 3 -10 17.75 3.67
-2 -3 9 17.13 4.59
-2 -3 9 22.46 3.21
-2 -3 9 19.08 4.28
2 3 -9 18.5 3.37
-2 -3 8 70.91 5.48
-2 -3 8 65.13 7.03
-2 -3 8 70.25 8.41
-2 -3 7 3.46 1.34
-2 -3 7 3.73 2.2
-2 -3 7 5.26 1.63
2 3 -7 4.62 1.51
-2 -3 6 321.28 12.76
-2 -3 6 322.29 11.37
-2 -3 5 31.39 3.4
-2 -3 5 25.57 3.23
2 3 -4 900.97 20.67
-2 -3 4 923.52 21.71
-2 -3 4 909.23 21.32
-2 -3 3 542.45 14.28
-2 -3 3 506 15.24
2 3 -3 525.24 14.81
2 3 -2 169.49 8.01
-2 -3 2 164.87 5.34
-2 -3 2 163.76 8.38
2 3 -1 1.25 0.87
2 3 0 341.8 13.27
2 3 1 19.28 3.22
2 3 1 16.52 1.7
-2 -3 -1 18.48 3.6
-2 -3 -2 108.06 9.52
2 3 2 92.43 7.53
-2 -3 -2 82.23 4.4
2 3 2 98.77 5.64
-2 -3 -3 24.84 5.18
2 3 3 25.72 4.32
-2 -3 -3 27.95 2.62
-2 -3 -3 29.82 5.67
2 3 3 29.51 3.72
2 3 4 2.88 1.31
2 3 4 1.11 1.03
2 3 5 37.75 5.72
2 3 5 29.53 4.83
2 3 6 -0.34 1.16
2 3 6 0.01 0.97
2 3 7 14.68 4.28
2 3 7 9.63 3.56
2 3 8 147.52 13.53
-2 -4 12 82.74 11.99
-2 -4 11 115.26 11.49
-2 -4 11 121.09 13.57
-2 -4 10 1.74 1.12
2 4 -10 -0.98 1.3
-2 -4 10 0.48 0.96
-2 -4 10 1.25 1.71
-2 -4 9 61.09 5.27
-2 -4 9 65.54 7.28
-2 -4 9 74.37 9.18
-2 -4 8 55.21 4.91
-2 -4 8 63.75 7.88
-2 -4 8 51.96 5.89
-2 -4 7 76.03 6.33
-2 -4 7 73.31 7.81
-2 -4 7 85.26 6.03
-2 -4 7 65.49 8.16
-2 -4 6 120.66 7.47
-2 -4 6 126.29 7.42
-2 -4 6 112.13 8.8
-2 -4 6 121.64 10.39
2 4 -5 1.38 0.81
-2 -4 5 3.53 1.33
-2 -4 5 3.48 1.42
-2 -4 5 3.15 1.23
2 4 -4 506.93 15.27
-2 -4 4 503.25 15.8
-2 -4 4 532.94 16.64
-2 -4 4 503 19.11
-2 -4 3 21.7 2.39
2 4 -3 20.51 3
-2 -4 3 18.95 3.03
-2 -4 2 1285.49 21.54
2 4 -2 1326.32 29.83
-2 -4 2 1350.7 31.95
2 4 -1 57.82 5.48
2 4 0 75.81 6.7
-2 -4 0 82.74 7.97
2 4 1 199.77 6.68
2 4 1 226.18 12.36
2 4 1 214.02 7.99
-2 -4 -1 231.16 14.62
2 4 2 55.84 6.51
2 4 2 56.04 4.33
2 4 3 13.44 3.35
2 4 3 12.38 2.39
2 4 4 32.88 5.49
2 4 4 29.29 4.33
2 4 5 466.71 22.67
2 4 5 461.82 19.81
2 4 6 2.45 2.09
2 4 6 0.63 1.57
2 4 7 124.86 12.67
2 4 8 15.92 4.95
-2 -5 12 31.38 7.36
-2 -5 11 100.41 10.13
-2 -5 11 104.15 12.49
-2 -5 10 6.4 2.62
-2 -5 10 6.37 1.86
-2 -5 10 7.88 3.33
-2 -5 9 217.29 15.7
-2 -5 9 225.16 12.77
-2 -5 9 229.64 10.8
-2 -5 8 222.78 10.69
-2 -5 8 222.63 14.88
-2 -5 8 220.04 11.45
-2 -5 7 29.72 3.91
-2 -5 7 37.73 4.3
-2 -5 7 38.5 5.72
2 5 -6 1.77 1.06
-2 -5 6 0.56 0.77
-2 -5 6 1.15 1.08
-2 -5 6 0.92 0.84
-2 -5 5 265.86 12.49
-2 -5 5 290.73 15.48
-2 -5 5 303.07 13.1
2 5 -5 270.95 11.43
2 5 -4 298.02 12.38
-2 -5 4 324.93 14.09
-2 -5 4 303.07 11.67
-2 -5 3 46.44 3.72
2 5 -3 34.51 4.22
-2 -5 3 37.53 5.01
-2 -5 3 43.37 4.89
2 5 -2 335.66 14.28
-2 -5 2 349.16 12.98
-2 -5 2 348.49 16.5
-2 -5 1 3.61 1.1
-2 -5 1 2.06 1.55
2 5 0 1.46 0.95
-2 -5 0 0.55 0.36
2 5 1 71.63 4.41
2 5 1 69.89 7.46
2 5 1 67.37 3.64
2 5 2 233.45 10.7
2 5 2 199.59 8.52
2 5 2 228.91 14.25
2 5 3 32.42 3.97
2 5 3 26.28 4.09
2 5 3 20.64 4.49
2 5 4 13.11 3.99
2 5 4 7.51 2.11
2 5 5 9.57 3.47
2 5 6 55.44 8.6
-2 -6 12 24.49 6.25
-2 -6 11 10.79 3.08
-2 -6 11 5.23 3.18
-2 -6 10 -0.79 1.22
-2 -6 10 0.7 1.28
-2 -6 9 6.4 2.17
-2 -6 9 1.57 0.77
-2 -6 9 7.14 2.82
-2 -6 8 51.4 7.11
-2 -6 8 50.87 5.28
-2 -6 8 53.64 5.56
-2 -6 7 3.33 1.52
2 6 -7 4.91 1.69
-2 -6 7 2.76 1.87
-2 -6 7 3.03 1.39
-2 -6 6 9.43 2.46
2 6 -6 8.59 2.12
-2 -6 6 8.72 2.57
-2 -6 6 5.2 2.47
-2 -6 5 93.45 8.75
-2 -6 5 88.39 7.12
2 6 -5 87.37 6.88
-2 -6 5 90.44 7.82
-2 -6 4 97.03 6.69
2 6 -4 95.35 7.46
-2 -6 4 94.2 8.5
-2 -6 3 60.08 4.4
2 6 -3 49.42 5.6
-2 -6 3 60.57 5.94
-2 -6 3 50.25 6.54
2 6 -2 489.72 19.19
-2 -6 2 485.85 16.09
-2 -6 1 988.7 21.79
2 6 -1 999.82 30.03
2 6 0 27.31 4.74
2 6 1 147.53 5.8
2 6 1 139.72 5.07
2 6 1 158.53 12.13
2 6 2 31.45 3.12
2 6 2 28.3 5.35
2 6 3 184.58 14.56
2 6 4 14.52 4.48
2 6 5 12.93 4.17
-2 -7 12 89.09 12.22
-2 -7 11 29.06 6.72
-2 -7 10 454.61 24.86
-2 -7 10 438.82 18.3
-2 -7 9 88.01 7.53
-2 -7 9 64.07 6.28
-2 -7 9 84.14 9.96
2 7 -8 788.09 22.88
-2 -7 8 775.91 29.43
-2 -7 8 732.11 22.85
-2 -7 7 31.48 4.35
2 7 -7 27.77 3.98
-2 -7 7 27.77 4.78
-2 -7 7 25.28 4.24
-2 -7 6 528.76 24.01
-2 -7 6 585.48 21.78
2 7 -6 575.34 19.82
-2 -7 6 549.3 21.82
2 7 -5 16.59 3.23
-2 -7 5 10.51 3.12
-2 -7 5 15.96 3.2
-2 -7 5 17.74 3.96
-2 -7 4 14.79 2.71
2 7 -4 16.26 3.3
2 7 -3 50.88 6.18
-2 -7 3 52.36 5.69
-2 -7 3 60.33 4.48
2 7 -2 262.16 14.88
-2 -7 2 240.22 11.02
-2 -7 1 276.49 8.98
2 7 -1 322.4 17.14
2 7 0 224.53 14.93
2 7 1 19.7 4.6
2 7 2 10.38 3.64
2 7 3 80.09 10.15
2 7 4 261.23 19.37
-2 -8 12 -2.82 2.61
-2 -8 11 108.02 13.13
-2 -8 10 1.32 1.68
-2 -8 10 2.64 1.42
-2 -8 9 12.93 3.37
-2 -8 9 11.46 3.94
-2 -8 9 15.51 3.26
2 8 -8 497.5 18.63
-2 -8 8 518.03 24.23
-2 -8 8 441.51 19.98
-2 -8 8 505.03 19.14
2 8 -7 266.13 13.58
-2 -8 7 290.32 16.56
-2 -8 6 89.38 8.43
2 8 -6 82.52 7.68
-2 -8 5 60.08 6.3
-2 -8 5 61.62 7.55
2 8 -5 63.65 6.94
-2 -8 4 207.89 10.24
2 8 -4 214.55 13.41
-2 -8 3 27.6 4.25
2 8 -3 26.3 4.82
2 8 -2 72.21 8.28
2 8 -1 7.57 3.17
2 8 0 0.43 2.1
2 8 1 21.93 5.29
2 8 2 0.03 2.12
-2 -9 12 52.72 10.01
-2 -9 11 281.03 21.86
-2 -9 10 13.55 4.58
-2 -9 10 12.75 3.28
2 9 -9 14.13 3.16
-2 -9 9 17.89 4.79
-2 -9 9 15.45 3.32
2 9 -8 6.92 2.25
-2 -9 8 3.72 2.47
-2 -9 8 0.64 1.24
-2 -9 7 68.1 8.07
2 9 -7 70.67 7.43
-2 -9 6 120.6 10.09
2 9 -6 112.68 9.7
-2 -9 5 74.75 7
-2 -9 5 62.36 7.96
2 9 -5 79.97 8.47
2 9 -4 22.62 4.6
2 9 -3 0.53 0.89
2 9 -2 0.35 1.35
2 9 -1 49.37 7.63
2 9 0 5.26 2.84
-2 -10 12 7.94 2.94
-2 -10 11 6.86 3.23
-2 -10 10 5.27 2.78
-2 -10 9 17.65 4.97
2 10 -9 20.2 4
-2 -10 9 21.2 4.17
2 10 -8 0.37 0.85
-2 -10 8 3.32 2.38
2 10 -7 6.74 2.71
-2 -10 7 9.31 3.19
2 10 -6 15.38 3.89
2 10 -5 22.01 4.86
2 10 -4 34.33 6.08
2 10 -3 0.15 1.38
2 10 -2 6.78 2.92
2 10 -1 12.21 3.87
-2 -11 12 47.98 9.98
-2 -11 11 111.27 14.42
2 11 -9 37.28 5.78
2 11 -8 -0.2 1.02
2 11 -7 0.35 1.28
2 11 -6 79.06 9.43
2 11 -5 20.13 5.02
2 11 -4 108.46 11.63
2 12 -8 206.76 15.27
2 12 -7 89.28 10.34
2 12 -6 2.63 1.73
-3 13 -4 113.89 12.27
3 -13 5 23.45 7.04
-3 13 -5 33.25 6.24
3 -13 6 72.77 12.36
-3 13 -7 28.88 7.07
3 -13 7 18.98 6.28
3 -13 8 195.97 21.08
-3 13 -8 193.82 18.49
-3 12 -2 0.69 2.32
3 -12 3 11.09 4.2
-3 12 -3 5.61 2.77
-3 12 -4 16.85 4.61
3 -12 4 16.97 5.22
-3 12 -5 37.17 6.27
3 -12 5 42.84 9.29
-3 12 -5 42.83 7.11
3 -12 6 9.51 3.92
-3 12 -6 7.54 3.59
3 -12 7 -0.98 2.89
-3 12 -7 0.64 1.75
3 -12 8 25.06 7.79
-3 12 -8 20.35 5.9
-3 12 -9 27.99 7.22
3 -12 9 16.42 6.68
-3 11 0 8.32 3.58
-3 11 -1 -2.37 2.48
3 -11 2 11.7 4.24
-3 11 -2 9.03 3.43
-3 11 -3 1.17 0.95
3 -11 3 3.28 2.34
-3 11 -3 2.14 1.94
-3 11 -4 16.21 4.21
3 -11 4 9.25 4.09
-3 11 -4 17.24 4.3
-3 11 -5 3.25 2.24
-3 11 -5 9.38 2.96
3 -11 5 5.81 2.54
-3 11 -6 4.65 2.57
-3 11 -6 3.42 1.7
3 -11 6 3.22 2.1
-3 11 -7 18.07 5.26
3 -11 7 14.7 5.3
-3 11 -8 6.35 3.18
3 -11 8 7.38 4.54
3 -11 9 1.47 2.3
-3 11 -9 15.24 5.51
-3 11 -10 -0.43 4.08
3 -11 10 3.97 2.48
-3 10 2 4.97 3.91
-3 10 1 36.6 7.76
-3 10 0 2.77 2.22
-3 10 -1 184.94 10.79
-3 10 -1 223.1 17.17
-3 10 -2 205.61 12.74
-3 10 -2 222.44 16.11
3 -10 2 197.1 16.87
-3 10 -3 9.95 2.78
3 -10 3 6.47 2.77
-3 10 -3 5.12 2.54
-3 10 -4 -0.32 1.05
3 -10 4 -0.99 2.53
-3 10 -4 3.66 1.99
3 -10 4 -1.39 2.27
-3 10 -5 18.68 4.42
-3 10 -5 28.15 4.7
3 -10 5 29.95 5.24
3 -10 5 28.02 6.74
-3 10 -6 29.51 6.16
-3 10 -6 34.78 4.54
3 -10 6 43.64 8.54
3 -10 7 4.04 3.03
-3 10 -7 1.95 1.38
-3 10 -8 69.08 10.34
3 -10 8 39.7 8.35
-3 10 -9 46.17 8.76
3 -10 9 44.6 9.54
3 -10 10 433.85 30.52
-3 10 -10 395.31 27.47
-3 9 3 2.98 2.81
-3 9 2 208.12 17.99
-3 9 1 63.86 9.55
-3 9 0 91.87 10.84
-3 9 0 75.51 6.27
-3 9 -1 439.34 17.77
-3 9 -1 429.3 22.75
3 -9 1 462.62 25.23
3 -9 2 328.76 21.07
-3 9 -2 291.65 15.45
-3 9 -2 320.14 18.37
-3 9 -3 21.93 4.64
3 -9 3 26.03 6.22
-3 9 -3 23.08 4.71
3 -9 3 19.48 4.81
-3 9 -4 20.41 4.54
3 -9 4 23.57 6.45
3 -9 4 25 4.68
-3 9 -4 17.98 3.74
-3 9 -5 33.84 6.06
3 -9 5 28.56 6.52
-3 9 -5 27.14 4.16
3 -9 5 35.63 5.14
-3 9 -6 8.76 2.12
3 -9 6 8.55 4.04
-3 9 -6 14.11 4.35
3 -9 6 9.38 2.2
3 -9 7 48.55 8.66
-3 9 -7 55.63 3.7
-3 9 -7 52.51 8.52
-3 9 -8 10.38 4.2
3 -9 8 11.82 4.51
3 -9 9 5.63 3.89
-3 9 -9 9.45 4.23
-3 9 -10 0.97 2
3 -9 10 -1.5 2.04
-3 9 -11 6.03 3.07
3 -9 11 -0.97 1.69
-3 8 4 11.54 4.51
-3 8 3 238.44 18.98
-3 8 2 1.03 1.85
-3 8 1 104.55 6.81
-3 8 1 107.08 11.73
-3 8 0 36.72 4.53
-3 8 0 43.31 6.98
-3 8 -1 632.37 21.66
-3 8 -1 607.59 27.68
-3 8 -1 651.98 26.55
3 -8 1 638 28.7
-3 8 -2 12.51 3.28
3 -8 2 11.54 3.86
-3 8 -2 19.48 4.18
-3 8 -2 17.52 4.84
3 -8 2 14.3 3.87
3 -8 3 154.65 14.04
-3 8 -3 171.4 12.18
3 -8 3 181.31 12.59
-3 8 -3 180.11 11.83
-3 8 -4 69.66 8.11
3 -8 4 63.02 6.68
3 -8 4 64.04 8.93
-3 8 -4 57.14 6.03
3 -8 5 979.04 37.71
-3 8 -5 915.39 33.63
-3 8 -5 980.33 24.95
3 -8 6 9.89 3.92
-3 8 -6 9.9 1.71
3 -8 7 306.11 21.25
-3 8 -7 301.68 19.97
-3 8 -8 31.14 6.76
3 -8 8 30.74 6.81
-3 8 -9 24.35 6.35
3 -8 9 12.94 5.06
-3 8 -10 -0.81 1.39
3 -8 10 4.87 2.96
3 -8 11 194.51 19.92
-3 8 -11 204.57 19.92
-3 7 6 -0.33 2.02
-3 7 5 156.09 15.79
-3 7 4 2.96 2.76
-3 7 3 0.78 2.1
-3 7 3 0.59 0.58
-3 7 2 198.74 15.68
-3 7 2 170.81 8.36
-3 7 1 5.42 1.82
-3 7 1 5.13 2.84
-3 7 1 2.67 1.93
-3 7 1 2.14 2.01
-3 7 0 376.09 19.59
-3 7 0 353.99 20.53
3 -7 0 363.98 20.43
3 -7 0 374.34 20.84
-3 7 0 357.36 18.56
-3 7 0 374.17 14.99
3 -7 1 246.32 16.7
-3 7 -1 268.26 15.66
-3 7 -1 282.01 17.64
3 -7 1 275.09 16.36
-3 7 -1 263.13 13.31
3 -7 2 23.48 4.42
-3 7 -2 29.08 4.59
-3 7 -2 24.31 4.3
3 -7 2 24.03 5.16
-3 7 -2 27.31 5.47
-3 7 -3 270.78 16.65
3 -7 3 261.58 17.34
-3 7 -3 267.01 14.96
3 -7 3 269.9 13.78
-3 7 -3 258.8 13.08
-3 7 -4 17.88 2.96
3 -7 4 10.81 3.6
3 -7 4 18.32 3.01
-3 7 -4 7.35 2.59
-3 7 -4 14.17 3.55
3 -7 5 -0.37 1.07
-3 7 -5 0.44 0.7
3 -7 5 -0.13 0.39
-3 7 -5 -1.2 2
3 -7 6 556.08 27.08
-3 7 -6 526.94 9.88
-3 7 -7 15.39 4.52
3 -7 7 12.96 4.18
3 -7 8 51.97 8.76
-3 7 -8 50.84 8.47
3 -7 9 110.11 13.35
-3 7 -9 100.82 12.41
-3 7 -10 50.38 9.57
3 -7 10 31.42 7.26
-3 7 -11 -0.11 1.73
3 -7 11 1.72 1.65
-3 6 7 38.5 8.25
-3 6 6 4.49 3.21
-3 6 5 10.16 4.06
-3 6 5 2.81 2.24
-3 6 4 335.74 21.75
-3 6 4 351.27 21.69
-3 6 3 44.29 7.3
-3 6 3 39.02 7.03
-3 6 2 977.24 36.95
-3 6 2 975.99 34.52
-3 6 2 969.47 33.98
-3 6 1 0.52 1.06
-3 6 1 1.08 1.17
-3 6 1 0.78 0.84
3 -6 -1 0.65 1.25
-3 6 0 30.9 5.51
3 -6 0 36.18 6.48
-3 6 0 24.1 5.24
-3 6 0 32.58 5.38
3 -6 0 25.42 5.03
3 -6 1 68.41 8.18
-3 6 -1 72.78 7.37
-3 6 -1 72.29 8.46
-3 6 -1 67.63 6.5
-3 6 -1 80.23 7.34
3 -6 1 80.37 7.84
-3 6 -2 21.19 3.82
-3 6 -2 17.17 3.09
3 -6 2 20.99 4.5
-3 6 -2 22.84 4.59
3 -6 2 18.74 3.57
-3 6 -2 18.42 3.47
-3 6 -3 69.65 5.89
3 -6 3 69.21 5.86
3 -6 3 58.53 7.67
-3 6 -3 57.71 7.29
-3 6 -3 77.27 7.7
3 -6 4 64.19 8.06
-3 6 -4 60.59 7.41
3 -6 4 66.33 4.18
-3 6 -4 81.87 8.65
-3 6 -4 71.84 5.09
-3 6 -5 25.42 5.07
-3 6 -5 22.87 1.94
3 -6 5 21.46 4.75
-3 6 -5 21.3 4.68
3 -6 6 311.94 19.33
-3 6 -6 344 19.63
-3 6 -7 13.62 4.49
3 -6 7 8.62 3.12
-3 6 -8 655.43 30.59
3 -6 8 701.81 32.21
-3 6 -9 109.31 12.78
3 -6 9 116.85 13.42
-3 6 -10 17.01 5.62
3 -6 10 15.1 5.43
-3 6 -11 6.67 4.11
3 -6 11 7.35 3.91
-3 5 8 5.65 3.26
-3 5 7 133.53 14.7
-3 5 7 126.67 14.5
-3 5 6 23.01 6.03
-3 5 6 23.14 6.05
-3 5 5 36.51 4.49
-3 5 5 27.53 6.14
-3 5 5 35.58 6.76
-3 5 4 372.62 21.28
-3 5 4 349.47 20.63
-3 5 3 2.52 1.32
-3 5 3 10.25 3.49
-3 5 2 95.07 10.33
3 -5 -2 101.36 10.28
-3 5 2 96.48 9.47
-3 5 1 7.85 2.94
-3 5 1 3.66 1.86
3 -5 -1 5.94 2.25
3 -5 0 2503.65 57.15
-3 5 0 2623.89 53.08
3 -5 0 2512.97 53.88
3 -5 1 94.01 8.95
-3 5 -1 93.19 7.29
3 -5 1 88.48 7.42
3 -5 2 439.56 20.12
-3 5 -2 413.69 17.25
-3 5 -2 412.3 14.27
3 -5 2 428.21 15.04
-3 5 -3 45.07 6.09
-3 5 -3 44.49 3.65
3 -5 3 45.65 3.55
3 -5 3 44.21 6.29
-3 5 -3 46.74 5.83
3 -5 4 104.39 9.97
-3 5 -4 127.45 10.34
-3 5 -4 126.45 10.29
-3 5 -4 111.73 5.28
-3 5 -5 0.4 1.01
3 -5 5 -0.01 0.88
-3 5 -5 0.1 0.74
-3 5 -6 12.51 3.49
3 -5 6 14.19 3.92
3 -5 7 148.96 13.32
-3 5 -7 161.25 13.79
-3 5 -8 165.63 14.76
3 -5 8 181.16 15.51
-3 5 -9 771.6 34.22
3 -5 9 741.17 34.3
-3 5 -10 -0.83 2.19
3 -5 10 -0.77 1.49
-3 5 -11 244.65 20.82
3 -5 11 233.86 21.18
-3 4 9 12.76 4.83
-3 4 8 10.03 4.27
-3 4 8 7.13 3.76
-3 4 7 94.76 11.76
-3 4 7 76.33 10.78
-3 4 6 40.49 5.23
-3 4 6 50.24 8.37
-3 4 5 14.5 4.33
-3 4 4 185.71 14.03
-3 4 4 194.29 15.84
-3 4 3 490.97 21.82
3 -4 -3 463.5 22.19
-3 4 3 444.36 23.24
3 -4 -2 168.91 12.33
-3 4 2 167.73 11.69
3 -4 -1 4.09 1.94
3 -4 -1 2.89 1.4
-3 4 1 1.45 1.41
3 -4 0 753.44 25.97
-3 4 0 746.65 26.09
-3 4 0 751.72 22.69
3 -4 0 762.56 23.35
3 -4 1 209.55 12.86
-3 4 -1 205.88 9.89
3 -4 1 223.72 10.18
-3 4 -2 67.74 4.78
3 -4 2 71.94 7.43
3 -4 2 67.15 4.53
3 -4 3 123.51 9.8
-3 4 -3 111.2 8.86
-3 4 -3 99.65 4.75
3 -4 4 512.92 21.5
-3 4 -4 484.95 9.28
-3 4 -5 121.68 10.41
-3 4 -5 129.35 10.67
3 -4 5 106.8 9.78
-3 4 -6 9.41 3.15
3 -4 6 14.07 3.95
-3 4 -7 11.31 3.67
3 -4 7 8.75 3.51
-3 4 -8 104.15 11.35
3 -4 8 97.03 11.13
-3 4 -8 81.64 4.19
-3 4 -9 2.09 1.67
3 -4 9 3.81 2.82
-3 4 -10 -3.52 1.93
3 -4 10 1.26 2.31
3 -4 11 130.76 15.71
-3 4 -11 78.08 11.64
-3 3 10 7.26 4.43
-3 3 9 36.97 8.36
-3 3 9 40.11 7.94
-3 3 8 4.96 3.22
-3 3 8 2.92 2.04
-3 3 7 6.96 3.31
-3 3 7 7.49 2.59
-3 3 6 56.6 6.51
-3 3 6 60.71 8.79
-3 3 5 4.17 2.2
3 -3 -4 419.68 20.78
-3 3 4 389.13 19.88
-3 3 3 97.32 9.03
-3 3 2 3.4 1.77
3 -3 -2 8.22 2.38
-3 3 1 626.23 22.87
-3 3 1 596.26 19.93
3 -3 -1 631.29 20.31
3 -3 0 907.58 26.8
-3 3 0 855.8 22.24
3 -3 1 86.19 7.61
3 -3 1 84.68 5.16
-3 3 -1 93.69 5.68
3 -3 2 350.05 15.91
-3 3 -2 350.95 15.49
-3 3 -2 381.87 10.64
3 -3 3 105.54 8.68
-3 3 -3 110.8 8.54
-3 3 -3 114.11 4.41
-3 3 -3 107.64 4.64
-3 3 -3 118.25 8.95
-3 3 -4 18.11 3.73
-3 3 -4 24.83 2
-3 3 -4 24.72 1.95
3 -3 4 20.02 3.95
-3 3 -4 21.27 3.99
-3 3 -5 243.72 14.51
-3 3 -5 201.09 7.92
-3 3 -5 245.62 14.54
3 -3 5 238.57 14.48
-3 3 -6 6.71 2.68
-3 3 -6 3.09 2.06
3 -3 6 7.43 2.83
-3 3 -6 3.87 1.32
3 -3 6 5.64 0.9
-3 3 -7 31.97 5.99
3 -3 7 34.3 2.38
-3 3 -7 29.44 3.69
3 -3 7 44.13 6.87
3 -3 8 135.74 5.32
-3 3 -8 169.55 14.35
3 -3 8 161.43 14.18
-3 3 -8 149.08 9.18
-3 3 -9 27.34 6.23
3 -3 9 36.47 7.23
-3 3 -10 -2.38 2.09
3 -3 10 -0.93 2.74
3 -3 11 7.36 3.89
-3 2 11 6.7 3.68
-3 2 10 3.58 2.11
-3 2 10 -2.15 2.52
-3 2 9 13.19 4.36
-3 2 9 8.46 4.15
-3 2 8 19.47 4.19
-3 2 8 21.38 5.94
-3 2 7 56.47 6.98
-3 2 7 73.55 9.6
-3 2 6 253.62 17.27
-3 2 5 35.82 6.18
3 -2 -5 39.58 6.05
-3 2 4 26.78 4.81
3 -2 -4 30.53 4.9
-3 2 3 607.58 21.9
-3 2 2 628.26 20.72
3 -2 -2 602.38 19.32
-3 2 1 781.41 21.25
3 -2 -1 803.82 20.9
3 -2 -1 762.79 24.05
3 -2 0 417.86 16.28
-3 2 0 433.54 16.71
3 -2 0 430.17 12.66
-3 2 0 419.8 13.6
-3 2 -1 0.58 0.49
3 -2 1 0.01 0.6
-3 2 -1 0.13 0.5
-3 2 -1 0.64 0.54
3 -2 2 1003.86 27.18
-3 2 -2 1018.22 26.45
-3 2 -2 1003.7 19.59
-3 2 -2 990.01 19.19
3 -2 3 10.82 1.48
-3 2 -3 9.63 1.47
-3 2 -3 10.65 2.58
3 -2 3 8.24 2.25
-3 2 -3 9.62 2.33
3 -2 4 1080.16 20.45
3 -2 4 1072.51 30.7
-3 2 -4 1073.56 31.2
-3 2 -4 1072.19 22.32
-3 2 -4 1146.12 31.11
-3 2 -5 667.78 17.89
3 -2 5 681.39 24.83
-3 2 -5 667.73 24.9
-3 2 -5 665.78 19.44
3 -2 5 679.43 15.32
-3 2 -5 732.87 25.67
-3 2 -6 26.26 3.92
3 -2 6 20.51 4.45
3 -2 6 23.91 2.57
-3 2 -6 19.14 4.33
-3 2 -7 363.17 19.81
3 -2 7 392.92 20.98
-3 2 -7 384.3 17.3
3 -2 7 366.25 11.75
-3 2 -8 4.4 2.93
3 -2 8 3.88 1.29
3 -2 8 5.85 2.9
-3 2 -9 3.11 2.12
3 -2 9 -0.04 1.35
-3 2 -10 0.38 1.55
3 -2 10 -0.6 2.14
3 -2 11 40.38 8.65
-3 1 11 2.74 2.47
-3 1 11 -2.67 3.31
-3 1 10 28.22 6.81
-3 1 9 66.97 9.75
-3 1 8 481.6 25.51
-3 1 7 1540.67 42.15
-3 1 7 1622.86 47.18
-3 1 6 513.23 23.63
3 -1 -6 516.38 22.41
-3 1 5 823.74 28.15
3 -1 -5 830.61 27.25
-3 1 4 992.64 29.07
-3 1 3 152.89 9.48
-3 1 2 626.39 18.37
-3 1 2 606.42 20.42
-3 1 1 1681.59 36.71
-3 1 1 1743.48 33
3 -1 -1 1615.73 31.65
3 -1 -1 1730.11 36.33
3 -1 0 9.41 2.22
-3 1 0 7.82 1.53
-3 1 0 10.41 2.23
-3 1 0 8.36 1.59
3 -1 1 759.65 16.88
3 -1 1 800.91 21.63
-3 1 -1 770.44 20.71
-3 1 -1 776.28 17.1
3 -1 2 82.13 4.63
-3 1 -2 78.74 4.68
3 -1 2 88.67 6.79
-3 1 -2 69.37 5.72
-3 1 -3 242.14 12.56
-3 1 -3 252.59 12.14
3 -1 3 254.37 8.82
-3 1 -3 250.53 9.79
3 -1 3 258.99 12.41
-3 1 -4 22.23 3.9
3 -1 4 24.07 2.7
-3 1 -4 27.35 4.32
3 -1 4 25.19 4.02
-3 1 -4 27.78 3.52
-3 1 -5 858.26 24.61
-3 1 -5 896.73 28.92
3 -1 5 919.73 28.54
3 -1 5 876.47 20.88
-3 1 -5 862.34 26.08
-3 1 -6 113.1 10.19
3 -1 6 108.6 6.81
3 -1 6 104.66 9.75
3 -1 7 309.27 18.41
-3 1 -7 296.82 17.44
-3 1 -7 270.36 16.63
3 -1 7 317.49 12.81
3 -1 8 64.64 9.06
-3 1 -8 73.9 9.02
3 -1 8 70.96 6.2
-3 1 -9 15.21 4.42
3 -1 9 5.68 2.45
3 -1 10 3.39 2.52
-3 0 12 6.06 3.8
-3 0 11 230.77 19.58
-3 0 10 80.71 11.01
-3 0 9 167.34 14.92
-3 0 8 544.2 26.05
-3 0 7 25.47 4.84
-3 0 7 28.29 5.31
3 0 -7 27.97 4.85
-3 0 6 140.63 11.04
3 0 -6 174.22 11.49
-3 0 5 686.73 23.72
-3 0 4 107.2 7.94
3 0 -4 102.12 7.33
-3 0 3 526.29 17.29
3 0 -3 516.49 16.21
-3 0 2 404.55 13.32
-3 0 2 387.88 14.76
-3 0 1 5880.35 90.55
3 0 -1 5936.19 86.9
-3 0 1 5862.1 87.26
-3 0 1 5903.53 86.36
3 0 -1 5806.1 90.11
3 0 0 103.18 6.28
-3 0 0 95.7 5.9
3 0 0 77.7 4.94
-3 0 0 81.28 5.06
3 0 1 427.51 13.73
3 0 1 396.75 12.13
-3 0 -1 396.03 12.64
-3 0 -1 404.12 12.49
3 0 2 1659.38 34.32
-3 0 -2 1670.17 33.5
3 0 2 1638.84 31.3
-3 0 -2 1677.81 33.17
-3 0 -3 12.99 2.53
-3 0 -3 16.23 2.85
-3 0 -3 11.84 2.6
3 0 3 14.85 2.83
3 0 3 14.78 2.38
-3 0 -4 341.27 15.43
3 0 4 336.42 15.07
3 0 4 348.42 12.86
-3 0 -4 348.64 15.25
-3 0 -5 2.6 1.45
-3 0 -5 4.46 2.07
3 0 5 1.55 1
3 0 5 3.3 1.18
-3 0 -6 104.35 9.43
-3 0 -6 79.62 9.16
3 0 6 91.07 7.17
3 0 6 92.77 9.24
-3 0 -7 19.73 4.19
3 0 7 23.47 4.87
3 0 7 26.83 4.19
-3 0 -8 -0.67 1.53
3 0 8 1.49 1.22
3 0 8 0.99 0.98
3 0 9 41.91 7.85
3 0 10 98.71 13.06
-3 -1 12 93.89 12.38
-3 -1 11 6.03 3.39
-3 -1 10 651.01 30.96
-3 -1 9 389.09 22.33
-3 -1 8 722.13 28.82
3 1 -8 730.94 25.99
-3 -1 7 264.18 16.18
3 1 -7 273.99 14.06
-3 -1 7 248.76 15.03
-3 -1 6 0.98 1.54
3 1 -6 0.39 0.82
-3 -1 5 2.19 1.41
-3 -1 4 143.49 8.3
-3 -1 4 127.71 8.04
3 1 -4 122.84 7.48
-3 -1 3 21.76 2.89
-3 -1 3 25.67 3.35
3 1 -2 927.93 20.97
-3 -1 2 909.88 21.71
-3 -1 2 874.8 22.23
-3 -1 1 23.46 2.76
3 1 -1 20.22 2.54
-3 -1 0 12.65 1.73
3 1 0 12.77 1.9
3 1 0 13.33 2.22
-3 -1 0 13.13 2.24
3 1 1 12.35 2.02
3 1 1 11.27 2.06
-3 -1 -1 13.45 2.55
-3 -1 -1 9.74 1.65
3 1 2 435.43 14.08
3 1 2 424.57 14.58
-3 -1 -2 471.2 16.96
3 1 3 49.12 4.89
-3 -1 -3 45.78 4.96
3 1 3 52.59 5.1
-3 -1 -4 53.52 6.67
3 1 4 49.95 5.49
-3 -1 -4 63.34 6.3
-3 -1 -4 54.38 7.21
3 1 4 52.19 5.35
3 1 5 0.47 1.24
-3 -1 -5 0.15 0.7
-3 -1 -5 1.6 1.64
3 1 5 -0.07 1.03
3 1 6 10.39 2.74
-3 -1 -6 9.42 2.67
3 1 6 8.12 2.82
3 1 7 0.15 1.28
-3 -1 -7 1.08 1.5
3 1 7 3.93 2.08
3 1 8 49 6.59
3 1 8 54.72 8.35
3 1 9 17.33 5.75
-3 -2 12 5.37 3.18
-3 -2 12 6 3.3
-3 -2 11 124.03 14.05
-3 -2 11 126.08 13.24
-3 -2 10 57.46 8.54
-3 -2 9 1.43 2.13
-3 -2 8 27.37 4.27
-3 -2 8 20.42 4.38
3 2 -8 19.08 3.62
-3 -2 7 83.93 7.01
-3 -2 7 82.61 9.05
-3 -2 7 65.31 7.06
3 2 -7 71.22 6.64
-3 -2 6 30.87 3.92
-3 -2 6 25.98 4
-3 -2 5 0.44 0.81
-3 -2 5 0.09 0.51
-3 -2 4 2.72 1.13
-3 -2 4 1.75 1.09
3 2 -3 96.45 6.07
-3 -2 3 95.69 6.29
-3 -2 3 102.39 6.67
3 2 -2 103.02 6.28
-3 -2 2 98.3 5.67
-3 -2 1 203.32 6.3
3 2 -1 215.99 9.53
3 2 0 1941.09 30.8
-3 -2 0 1905.46 29.63
3 2 1 124.21 5.77
3 2 1 124.49 7.85
3 2 2 84.97 6.8
3 2 2 82.78 5.39
-3 -2 -2 102.03 8.76
3 2 3 11.02 2.56
-3 -2 -3 13.2 2.56
3 2 3 13.75 2.55
-3 -2 -3 8.36 2.72
-3 -2 -4 168.89 13.37
3 2 4 183.69 10.58
3 2 4 175.58 11.12
-3 -2 -4 185.41 10.07
-3 -2 -5 317.45 14.02
3 2 5 320.59 15.83
3 2 5 333.81 16.34
3 2 6 2.98 2.16
-3 -2 -6 1.71 0.81
3 2 6 1.45 1.25
3 2 7 162.41 13.33
3 2 7 153.48 12.18
3 2 8 7.36 3.25
-3 -3 12 26.74 6.69
-3 -3 12 31.03 6.46
-3 -3 11 -0.06 1.63
-3 -3 11 1.92 1.68
-3 -3 10 152.58 9.72
-3 -3 10 152.47 14.35
-3 -3 10 154.67 13.1
-3 -3 9 87.76 7.03
-3 -3 9 79.07 8.64
3 3 -9 97.79 8.18
-3 -3 8 184.52 9.97
-3 -3 8 158.93 11.54
3 3 -8 187.74 10.97
-3 -3 7 1.63 1.14
-3 -3 7 1.4 0.82
-3 -3 7 0.62 0.82
-3 -3 6 142.33 9.19
-3 -3 6 151.6 8.64
-3 -3 5 180.54 9.3
-3 -3 5 175.69 9.85
3 3 -4 16.26 2.6
-3 -3 4 20.82 3.1
-3 -3 4 22.31 3.43
-3 -3 3 764.67 21.38
3 3 -3 741.64 20.19
3 3 -2 152.4 8.46
-3 -3 2 153.9 5.83
3 3 -1 410.6 15.02
3 3 0 695.15 21.3
-3 -3 0 713.71 23.55
3 3 1 629.76 13.55
3 3 1 673.53 21.55
-3 -3 -1 657.64 24.23
-3 -3 -2 93.4 6.01
3 3 2 104.35 5.78
-3 -3 -2 89.96 9.28
-3 -3 -3 211.06 9.47
3 3 3 204.45 12.37
3 3 3 206.29 9.82
-3 -3 -4 156.09 8.07
3 3 4 152.37 9.55
3 3 4 164.32 11.65
3 3 5 100.83 8.64
3 3 5 110.93 10.03
3 3 6 19.98 4.49
3 3 6 19.95 4.06
3 3 7 90.75 10.1
3 3 8 148.69 13.61
-3 -4 12 9.13 3.65
-3 -4 12 8.53 4.51
-3 -4 11 74.61 10.66
-3 -4 11 100.88 10.89
-3 -4 10 -1.17 1.7
-3 -4 10 -0.07 0.71
-3 -4 10 -0.03 1.7
-3 -4 9 286.23 13.01
-3 -4 9 293.99 16.08
-3 -4 9 320.06 19.27
-3 -4 8 442.45 16.42
-3 -4 8 438.55 21.08
-3 -4 8 428.6 18.17
-3 -4 7 22.94 4.36
-3 -4 7 17.43 3.07
-3 -4 7 28.24 4.21
-3 -4 6 229.23 14.81
-3 -4 6 253.21 11.9
-3 -4 6 218.06 12.45
-3 -4 6 248.71 12.31
-3 -4 5 24.52 3.64
-3 -4 5 25.45 3.81
3 4 -5 23.44 3.34
-3 -4 5 24.43 3.76
-3 -4 4 472.18 14.89
3 4 -4 435.14 15.41
-3 -4 4 480.72 17.36
3 4 -3 157.24 9.17
-3 -4 3 177.57 6.69
-3 -4 3 167.97 10.18
3 4 -2 36.97 4.52
-3 -4 2 42.86 5.37
-3 -4 1 12.15 3.08
3 4 -1 12.18 2.76
3 4 0 161.29 10.29
-3 -4 0 142.15 11.17
3 4 1 50.44 6
3 4 2 0.52 0.81
-3 -4 -2 -0.05 0.36
3 4 2 0.53 0.41
3 4 3 254.28 10.51
3 4 3 259.52 15.16
3 4 4 159.4 12.46
3 4 4 169.63 9.88
3 4 5 10.12 3.88
3 4 6 240.16 17.1
3 4 7 36.03 6.85
-3 -5 12 2.03 2.43
-3 -5 12 0.81 2.18
-3 -5 11 -0.1 1.38
-3 -5 11 -2.07 2.62
-3 -5 10 1.85 1.06
-3 -5 10 4.18 2
-3 -5 9 22.96 3.78
-3 -5 9 28.34 4.59
-3 -5 9 29.44 5.66
-3 -5 8 46.27 5.68
-3 -5 8 60.34 7.66
-3 -5 8 49.06 5.44
-3 -5 7 103 8.03
-3 -5 7 109.41 8.38
-3 -5 7 110.25 9.58
3 5 -6 215.74 11.05
-3 -5 6 223.3 12.47
-3 -5 6 207.7 11.71
-3 -5 6 186.72 11.04
-3 -5 6 206.51 14.24
-3 -5 5 623.18 24.32
3 5 -5 638.48 20.19
-3 -5 5 679.27 20.48
-3 -5 5 670.27 22.32
3 5 -4 196.7 10.9
-3 -5 4 197.44 8.6
-3 -5 4 203.54 12.14
-3 -5 3 21.52 1.92
-3 -5 3 27.21 4.53
3 5 -3 18.14 3.27
3 5 -2 448.82 17.96
-3 -5 2 466.36 20.62
3 5 -1 158.14 10.74
3 5 0 83.06 8.03
3 5 1 32.44 5.21
-3 -5 -1 24.81 2.25
3 5 2 175.96 6.92
3 5 2 195.76 6.5
3 5 2 189.51 13.32
3 5 3 398.57 20.57
3 5 4 101.8 10.67
3 5 5 18.65 4.77
3 5 6 11.33 4.06
-3 -6 12 106.6 13.51
-3 -6 11 -1.18 1.43
-3 -6 11 3.37 2.67
-3 -6 10 221.84 13.69
-3 -6 10 212.75 16.62
-3 -6 9 143.29 12.73
-3 -6 9 137.51 9.79
-3 -6 9 131.3 10.07
-3 -6 8 107.47 10.28
-3 -6 8 98.86 8.38
-3 -6 8 90.72 8.02
-3 -6 7 2.12 0.88
3 6 -7 1.9 1.33
-3 -6 7 4.34 2.26
-3 -6 7 1.6 1.51
3 6 -6 5.15 1.95
-3 -6 6 5.82 2.05
-3 -6 6 2.76 1.5
-3 -6 5 231.37 10.92
3 6 -5 225.7 12.25
-3 -6 5 221.45 13.55
-3 -6 5 218.83 14
-3 -6 4 750.03 18.33
-3 -6 4 701.36 24.87
3 6 -4 726.35 23.89
3 6 -3 116.94 9.22
-3 -6 2 114.67 7.93
3 6 -2 119.96 9.67
3 6 -1 184.31 12.51
-3 -6 1 174.23 8.72
-3 -6 0 259.06 8.37
3 6 0 305.66 16.7
3 6 1 55.84 7.31
3 6 2 12.63 3.87
3 6 3 -0.51 1.71
3 6 4 57.83 8.62
-3 -7 13 75.99 11.8
-3 -7 12 128.06 14.44
-3 -7 11 104.01 12.38
-3 -7 11 101.34 9.82
-3 -7 10 14.26 3.49
-3 -7 10 15.56 4.25
-3 -7 9 67.57 8.83
-3 -7 9 66.27 7.15
3 7 -8 3.33 1.56
-3 -7 8 3.16 1.45
-3 -7 8 1.69 1.49
3 7 -7 304.71 14.74
-3 -7 7 340.26 16.99
-3 -7 7 317.58 15.98
3 7 -6 23.07 4.01
-3 -7 6 25.8 4.11
-3 -7 5 195.88 10.07
-3 -7 5 168.63 12.55
3 7 -5 188.85 11.94
-3 -7 4 414.56 11.75
-3 -7 4 411.63 18.67
3 7 -3 48.61 6.39
-3 -7 2 141.52 8.74
3 7 -2 150.95 11.68
3 7 -1 363.51 19.02
3 7 0 4.82 2.64
3 7 1 63.25 8.5
3 7 2 16.33 4.55
3 7 3 6.09 2.72
-3 -8 13 9.02 4.96
-3 -8 12 60.66 10.15
-3 -8 11 9.54 2.74
-3 -8 11 10.18 4.15
-3 -8 10 147.5 11.23
-3 -8 10 173.24 15.31
3 8 -9 887.42 28.23
-3 -8 9 863.52 33.53
-3 -8 9 840.91 28.15
3 8 -8 10.33 2.8
-3 -8 8 7.31 2.64
-3 -8 8 8.85 2.43
3 8 -7 241.1 13.85
-3 -8 7 291.75 15.73
-3 -8 6 104.04 8.43
3 8 -6 92.4 8.69
-3 -8 5 56.19 5.04
3 8 -5 62.9 7.39
-3 -8 5 54.81 7.24
-3 -8 4 45.19 6.22
3 8 -4 57.22 7.13
3 8 -3 92.8 9.52
3 8 -2 55.95 7.7
3 8 -1 10.62 3.52
3 8 0 2.85 2.07
3 8 1 37.13 6.76
-3 -9 12 5.33 2.28
-3 -9 11 11.29 4.55
-3 -9 10 7.77 3.49
-3 -9 10 4.92 1.86
3 9 -9 66.31 7.48
-3 -9 9 70.3 9.28
-3 -9 9 69.76 7.79
3 9 -8 54.33 6.73
-3 -9 8 40.44 6.36
-3 -9 8 40.87 6.23
-3 -9 7 174.21 12.32
3 9 -7 191.79 13.18
3 9 -6 2.61 1.58
3 9 -5 31.47 5.58
3 9 -4 99.16 10.19
3 9 -3 10.58 3.68
3 9 -2 57.04 8.15
3 9 -1 -0.81 1.36
-3 -10 12 4.95 3.41
-3 -10 11 14.17 4.99
-3 -10 10 17.65 5.19
3 10 -9 20.12 4.42
-3 -10 9 14.53 3.59
3 10 -8 89.17 9.2
3 10 -7 1.82 1.79
3 10 -6 129.03 11.78
3 10 -5 31.53 6.04
3 10 -4 48.85 7.62
3 10 -3 101.52 11.31
3 11 -9 60.66 7.95
-3 -11 9 48.25 7.79
3 11 -8 207.19 15.05
3 11 -7 20.19 4.78
3 11 -6 88.61 10.5
3 11 -5 83.55 10.36
3 12 -8 9.38 4.19
-4 13 -3 491.94 27.34
4 -13 4 11.48 5.24
-4 13 -4 6.01 3.11
4 -13 5 73.45 12.65
-4 13 -6 63.35 9.82
4 -13 6 85.98 13.87
-4 13 -7 12.84 4.49
4 -13 7 10.32 5.18
-4 13 -8 26.93 7.05
-4 12 -1 1.83 2.61
-4 12 -2 4.52 3.16
4 -12 3 9.79 4.58
-4 12 -3 0.36 2.1
-4 12 -4 17.04 4.57
4 -12 4 15.98 6.36
-4 12 -4 18.75 4.88
-4 12 -5 12.82 4.42
-4 12 -5 7.29 2.78
4 -12 5 11.92 5.47
4 -12 6 140.51 17.39
-4 12 -6 115.15 13.03
-4 12 -7 45.21 8.62
4 -12 7 57.93 11.33
-4 12 -8 6.96 3.57
4 -12 8 1.93 4.31
-4 11 0 54.22 9.39
-4 11 -1 9.17 4.09
-4 11 -2 205.98 13.89
-4 11 -2 219.69 17.13
4 -11 2 236.75 20.48
-4 11 -3 18.73 4.52
4 -11 3 24.23 6.55
-4 11 -3 23.25 5.33
4 -11 4 96.97 13.57
-4 11 -4 75.16 9.56
-4 11 -4 92.05 9.86
-4 11 -5 -1.06 1.55
4 -11 5 -1.7 3.39
-4 11 -5 1.54 1.93
-4 11 -6 2.3 1.64
4 -11 6 -1.52 1.69
4 -11 7 100.41 14.13
-4 11 -7 74.02 10.55
-4 11 -8 15.56 5.37
4 -11 8 6.24 4.24
-4 11 -9 60.13 10.81
4 -11 9 53.76 11.37
-4 10 2 14.99 4.96
-4 10 1 97.71 12.52
-4 10 0 0.67 1.53
-4 10 -1 44.63 6
4 -10 1 37.09 7.82
-4 10 -1 36.45 6.81
-4 10 -2 33.84 5.61
4 -10 2 39.29 8.05
-4 10 -2 31.01 6.06
-4 10 -3 33.3 5.84
-4 10 -3 32.98 5.93
4 -10 3 31.27 7.28
-4 10 -4 5.21 3
4 -10 4 4.05 3.38
-4 10 -4 4.17 2.02
4 -10 5 104.34 13.67
-4 10 -5 123.67 9.66
-4 10 -5 115.62 12.2
-4 10 -6 2.35 1.03
-4 10 -6 2.35 2.9
4 -10 6 2.93 2.95
4 -10 7 235.36 21.21
-4 10 -7 276.72 20.71
4 -10 8 108.16 14.47
-4 10 -8 105.07 13.48
4 -10 9 13.28 5.46
-4 10 -9 8.82 4.09
4 -10 10 122.96 16.69
-4 10 -10 122.72 15.57
-4 9 3 96.3 12.67
-4 9 2 73.15 10.83
-4 9 1 1.83 0.98
-4 9 1 1.69 1.31
-4 9 0 24.35 5.32
-4 9 0 26.54 4.46
-4 9 -1 173.05 11.93
-4 9 -1 159.15 13.58
4 -9 1 162.45 15.58
4 -9 2 172.02 16.05
-4 9 -2 172.26 12.57
-4 9 -2 168.82 13.3
-4 9 -3 79.54 9.03
4 -9 3 72.86 10.58
4 -9 3 66.87 8.39
-4 9 -3 79.47 8.51
4 -9 4 100.22 12.53
-4 9 -4 114.05 11.37
4 -9 4 93.24 8.86
-4 9 -4 96.04 8.65
-4 9 -5 -0.07 1.42
4 -9 5 0.62 1.16
-4 9 -5 0.4 0.97
4 -9 5 -0.21 1.26
-4 9 -6 20.3 2.87
-4 9 -6 22.86 5.9
4 -9 6 20.21 5.87
4 -9 7 101.14 13.32
-4 9 -7 99.93 12.15
-4 9 -8 9.71 4.37
4 -9 8 8.99 4.17
-4 9 -9 25.92 6.97
4 -9 9 21.91 6.42
-4 9 -10 25.35 6.88
4 -9 10 8.81 5.04
-4 8 5 9.87 3.96
-4 8 4 190.72 17.97
-4 8 3 110.97 13.03
-4 8 2 102.92 12
-4 8 2 89.81 6.99
-4 8 2 85.52 10.56
-4 8 1 8.44 2.51
-4 8 1 13.24 4.13
-4 8 1 9.88 3.71
-4 8 0 22.31 4.05
4 -8 0 34.12 7.13
-4 8 0 26.51 5.4
-4 8 0 25.54 5.58
-4 8 -1 274.06 16.88
-4 8 -1 248.39 14.51
-4 8 -1 288.1 16.64
4 -8 1 270.45 19.41
-4 8 -2 3.34 1.94
4 -8 2 1.49 1.84
-4 8 -2 4.58 2.41
4 -8 2 1.67 1.15
4 -8 3 223.46 17.72
4 -8 3 272.53 15.29
-4 8 -3 244.3 15.58
-4 8 -3 252.87 14.34
4 -8 4 158.69 15.08
-4 8 -4 171.28 13.59
4 -8 4 184.92 10.67
-4 8 -4 158.37 10.28
4 -8 5 164.13 15.43
4 -8 5 165.7 7.46
-4 8 -5 190.83 9.67
-4 8 -5 179.3 14.69
-4 8 -6 51.93 8.31
-4 8 -6 65.26 3.97
4 -8 6 71.57 10.44
-4 8 -7 16.96 5.03
4 -8 7 17.45 5.42
4 -8 8 532.51 30.97
-4 8 -8 531.57 29.47
-4 8 -9 25.99 6.83
4 -8 9 24.77 6.69
-4 8 -10 69.54 11.43
4 -8 10 63.14 11.28
-4 7 6 0.63 1.71
-4 7 5 -0.42 2.51
-4 7 5 5.75 3.33
-4 7 4 130.05 13.93
-4 7 4 132.55 14.01
-4 7 3 32.17 6.6
-4 7 3 40.5 7.35
-4 7 2 106.35 11.45
-4 7 2 97.92 10.9
-4 7 1 0.56 0.92
-4 7 1 -0.41 1.21
4 -7 0 334.56 19.33
-4 7 0 346.11 18.35
4 -7 0 344.42 21.34
4 -7 1 80.51 9.94
-4 7 -1 74.99 7.7
4 -7 1 72.89 8.35
-4 7 -1 66.66 7.33
-4 7 -2 0.48 1.41
4 -7 2 0.86 1.41
-4 7 -2 1.07 0.91
4 -7 2 0.06 0.93
-4 7 -2 1.83 1.59
-4 7 -3 75.24 7.23
4 -7 3 87.43 10.5
-4 7 -3 91.4 9.37
-4 7 -3 84.35 6.81
4 -7 3 79.93 7.11
4 -7 4 74.83 9.83
-4 7 -4 83.17 9.42
4 -7 4 87.04 5.82
-4 7 -4 88.13 6.85
-4 7 -5 47.19 7.25
4 -7 5 57.52 8.75
-4 7 -5 48.72 4.05
4 -7 6 8.95 3.46
-4 7 -6 11.63 4.1
-4 7 -7 30.77 6.97
4 -7 7 25.57 6.39
4 -7 8 267.89 20.96
-4 7 -8 261.11 20.2
4 -7 9 204.12 19.14
-4 7 -9 201.48 18.26
-4 7 -10 79.07 12.11
4 -7 10 70.41 11.9
-4 7 -11 40.8 9.12
-4 6 7 42.03 8.67
-4 6 7 43.63 8.97
-4 6 6 -0.77 2.03
-4 6 6 1.74 2.76
-4 6 5 20.93 5.5
-4 6 5 30.9 7.24
-4 6 4 17.43 4.74
-4 6 3 551.94 26.67
-4 6 2 29.92 5.74
-4 6 1 285.69 19.23
-4 6 1 272.83 16.27
4 -6 -1 266.35 16.94
-4 6 0 1112.01 38.64
-4 6 0 1118.28 33.39
4 -6 0 1127.24 34.84
4 -6 0 1119.38 38.53
4 -6 1 428.66 22.59
-4 6 -1 443.44 22.78
-4 6 -1 434.74 18.23
4 -6 1 451.2 19.21
4 -6 2 1.16 1.8
-4 6 -2 1.87 1.64
-4 6 -2 3.27 1.59
4 -6 2 2.41 1.43
4 -6 3 414.18 22.18
-4 6 -3 406.76 21.05
-4 6 -3 406.45 19.86
-4 6 -3 415.76 14.46
4 -6 3 420.85 14.03
-4 6 -4 0.41 1.44
4 -6 4 0.92 1.95
-4 6 -4 0.57 0.68
4 -6 4 0.04 0.34
4 -6 5 225.06 16.64
-4 6 -5 218.08 6.24
-4 6 -5 228.11 15.96
-4 6 -5 218.56 7.33
4 -6 6 147.29 14.03
-4 6 -6 158.25 13.86
4 -6 7 236.2 18.37
-4 6 -7 223.61 17.83
-4 6 -8 25.33 6.11
4 -6 8 20.27 6.03
4 -6 9 108.49 13.6
-4 6 -9 100.25 13.03
4 -6 10 98.61 13.71
-4 6 -10 97.01 13.18
-4 6 -11 62.68 10.98
-4 5 8 12.71 4.76
-4 5 8 23.3 6.38
-4 5 7 31.51 7.02
-4 5 7 31.42 7.74
-4 5 6 2.5 2.81
-4 5 5 498.94 26.43
-4 5 4 156.91 13.89
-4 5 3 157.51 13.18
-4 5 2 278.67 18.86
-4 5 2 299.92 17.23
4 -5 -2 262.07 16.69
4 -5 -1 43.86 6.84
-4 5 1 44.16 6.25
-4 5 1 46.76 7.33
4 -5 -1 32.04 5.48
4 -5 0 362.46 19.7
-4 5 0 353.73 19.81
-4 5 0 390.57 17.33
4 -5 0 371.11 17.06
4 -5 1 77.99 8.85
-4 5 -1 51.61 7.31
-4 5 -1 58.84 5.96
4 -5 1 67.02 6.38
4 -5 2 272.73 16.93
-4 5 -2 249.31 15.88
-4 5 -2 276.4 12.01
4 -5 2 286.56 11.46
-4 5 -3 139.41 11.13
4 -5 3 135.84 11.96
-4 5 -3 134.88 11.32
-4 5 -3 132.64 7.05
4 -5 3 125.5 5.91
-4 5 -4 146.37 5.71
4 -5 4 135.07 11.97
-4 5 -4 149.33 12.02
-4 5 -4 151.84 12.14
-4 5 -4 124.73 5.64
4 -5 5 94.34 10.35
-4 5 -5 108.52 10.89
-4 5 -5 85.6 3.11
-4 5 -6 392.17 21.97
4 -5 6 418.08 23.1
-4 5 -7 2.57 1.8
4 -5 7 9.2 4.07
4 -5 8 352.33 23.13
-4 5 -8 349.29 22.56
-4 5 -9 12.53 4.16
4 -5 9 11.22 4.61
-4 5 -10 100.5 13.1
4 -5 10 107.98 14.16
-4 5 -11 105.37 14.18
-4 4 9 10.37 4.24
-4 4 9 13.05 5.47
-4 4 8 130.35 14.71
-4 4 8 160.27 16.67
-4 4 7 1.32 1.56
-4 4 6 158.71 14.95
-4 4 5 193.83 15.55
-4 4 4 17.07 4.55
-4 4 3 79.64 9.88
-4 4 3 82.36 8.91
4 -4 -3 78.71 8.83
-4 4 2 420.16 21.94
-4 4 2 404.93 19.01
4 -4 -2 417.5 19.3
-4 4 1 429.4 18.35
4 -4 -1 426.31 18.02
4 -4 -1 423.96 20.9
4 -4 0 400.73 19.69
-4 4 0 411.43 16.56
4 -4 0 427.87 16.35
4 -4 1 312.74 17.03
-4 4 -1 286.22 12.39
4 -4 1 270.37 11.5
-4 4 -2 37.24 3.84
4 -4 2 26.32 4.84
4 -4 2 29.25 3
-4 4 -3 158.17 6.53
4 -4 3 156.46 12.15
-4 4 -3 160.98 11.77
-4 4 -3 149.04 6.97
-4 4 -4 34.04 2.87
-4 4 -4 41.69 2.85
-4 4 -4 39.43 6.11
4 -4 4 40.78 6.35
-4 4 -4 35.3 5.65
4 -4 5 237.75 16.1
-4 4 -5 250.63 16.39
-4 4 -5 255.47 15.85
-4 4 -5 232.61 7.48
-4 4 -5 247.75 7.16
-4 4 -6 27.8 5.53
-4 4 -6 23.73 2.38
-4 4 -6 24.68 2.1
4 -4 6 27.09 5.47
4 -4 7 353.22 21.34
-4 4 -7 358.58 21.93
-4 4 -7 306.03 9.78
-4 4 -8 5.15 2.82
4 -4 8 1.83 2.51
-4 4 -9 331.48 22.84
4 -4 9 335.57 23.33
-4 4 -10 6.07 3.2
4 -4 10 5.7 3.7
-4 4 -11 135.49 15.69
-4 3 10 27.2 7.3
-4 3 10 23 6.87
-4 3 9 46.05 9
-4 3 8 7.5 3.69
-4 3 7 11.69 3.66
-4 3 6 39.94 7.19
-4 3 5 24.55 5.45
-4 3 4 171.35 13.02
4 -3 -4 167.1 12.75
-4 3 4 148.38 13.77
-4 3 3 508.38 21.69
4 -3 -3 526.89 22.03
-4 3 3 513.76 24.5
-4 3 2 250.91 13.79
4 -3 -2 250.63 13.37
4 -3 -1 23.76 4.73
-4 3 1 24.31 3.91
4 -3 -1 27.23 3.93
4 -3 0 112.7 9.5
-4 3 0 92.15 7.05
4 -3 0 92.75 6.56
4 -3 1 707.13 24.99
-4 3 -1 694.33 24.58
-4 3 -1 669.63 18.92
4 -3 1 663.67 17.14
4 -3 2 233.3 13.94
-4 3 -2 226.61 8.52
-4 3 -2 226.86 13.18
-4 3 -2 215.97 9.14
4 -3 3 666.11 24.93
-4 3 -3 686.48 24.14
-4 3 -3 676.8 15.68
-4 3 -3 647.81 16.12
4 -3 4 74.48 8.19
-4 3 -4 80.56 8.49
-4 3 -4 80.53 8.15
-4 3 -4 68.68 4.32
-4 3 -4 69.27 4.4
-4 3 -5 5.99 2.48
-4 3 -5 8.18 1.63
4 -3 5 7.86 2.89
-4 3 -5 7.15 2.76
-4 3 -6 0.1 1.24
4 -3 6 -0.13 0.34
-4 3 -6 0.22 0.52
4 -3 6 -1.02 1.59
4 -3 7 2.04 0.57
-4 3 -7 6.09 2.67
-4 3 -7 1.65 0.91
4 -3 7 4.29 2.21
-4 3 -8 0.8 1.97
4 -3 8 2.63 1.99
-4 3 -9 53.62 9.21
4 -3 9 65.04 10.17
-4 3 -10 -0.22 1.66
4 -3 10 3.32 2.92
-4 3 -11 5.1 3.37
-4 2 11 0.73 1.64
-4 2 11 0.33 2.23
-4 2 10 0.76 3.21
-4 2 9 110.6 13.49
-4 2 8 30.18 6.76
-4 2 7 25.8 5.85
-4 2 6 14.87 3.89
-4 2 5 238.54 15.68
4 -2 -5 272.7 16.19
-4 2 4 223.54 14.03
4 -2 -4 207.64 13.26
-4 2 4 195.28 15.24
-4 2 3 380.91 17.28
-4 2 2 43.14 6.03
4 -2 -2 48.07 5.35
-4 2 1 242.35 13.97
-4 2 1 263.29 11.98
4 -2 -1 250 10.96
4 -2 -1 251.17 14.08
4 -2 0 67.15 6.88
-4 2 0 69.76 5.27
-4 2 0 74.85 7.4
-4 2 0 65.62 5.56
4 -2 0 73.78 5.33
4 -2 1 587.84 21.6
-4 2 -1 608.75 16.05
-4 2 -1 605.6 21.37
-4 2 -1 582.89 16.36
4 -2 2 1811.26 42.37
-4 2 -2 1775.06 40.6
-4 2 -2 1725.86 32.3
-4 2 -2 1774.47 33.07
4 -2 3 39.59 3.57
-4 2 -3 39.43 5.26
-4 2 -3 41.86 3.68
4 -2 3 36.19 5.35
4 -2 4 392.37 11.99
4 -2 4 415.86 19.32
-4 2 -4 354.17 18.17
-4 2 -4 375.09 13.09
-4 2 -4 379.85 17.83
4 -2 5 88.17 5.39
4 -2 5 90.42 9.15
-4 2 -5 84.83 9.07
-4 2 -5 92.71 9.19
-4 2 -5 90.85 6.58
4 -2 6 553.06 15.3
4 -2 6 531.62 24.24
-4 2 -6 554.95 25.03
-4 2 -7 12.35 3.72
4 -2 7 12.58 2.18
4 -2 7 17.29 4.61
-4 2 -8 179.52 15.18
4 -2 8 166.06 15.07
4 -2 8 174.32 8.62
-4 2 -9 20.71 5.27
4 -2 9 20.02 5.66
-4 2 -10 -3.46 2.94
4 -2 10 10.42 4.64
-4 1 12 1.36 1.95
-4 1 11 143.94 16.13
-4 1 10 323.81 23.3
-4 1 9 2.94 2.45
-4 1 8 420.84 24.17
-4 1 7 49.55 7.54
4 -1 -6 57.52 7.19
-4 1 6 44.86 6.74
-4 1 5 105 9.89
4 -1 -5 118.03 9.52
-4 1 4 254.53 14.25
-4 1 3 37.22 5.54
-4 1 3 44.91 5.27
-4 1 2 11.34 2.92
-4 1 2 9.15 2.28
4 -1 -2 13.53 2.54
-4 1 1 75.73 7.17
-4 1 1 85.03 6.03
-4 1 1 76.82 5.92
4 -1 -1 80.15 5.76
4 -1 -1 78.54 7.27
4 -1 0 384.69 15.94
-4 1 0 418.8 16.47
-4 1 0 398.38 13.02
-4 1 0 392.48 13.57
4 -1 1 1444.7 28.77
4 -1 1 1351 33.73
-4 1 -1 1362.95 32.61
-4 1 -1 1402.98 28.81
4 -1 2 4.18 1.26
4 -1 2 1.18 1.09
-4 1 -2 3.21 1.2
-4 1 -2 4.91 1.39
4 -1 3 18.59 2.63
-4 1 -3 20.48 3.04
4 -1 3 19.55 3.63
-4 1 -3 18.76 3.51
4 -1 4 167.74 11.52
-4 1 -4 148.75 11.27
-4 1 -4 163.46 11.12
-4 1 -4 159.76 9.54
4 -1 4 163.7 8.22
-4 1 -5 3.13 1.77
4 -1 5 3.54 1.19
4 -1 5 3.39 2.14
4 -1 6 116.57 10.87
-4 1 -6 102.01 10.35
4 -1 6 112.04 7.32
-4 1 -6 95.7 9.33
-4 1 -7 1.66 1.89
4 -1 7 0.83 0.97
4 -1 7 3.2 1.89
-4 1 -8 38.84 6.79
4 -1 8 38.16 4.62
4 -1 8 41.14 7.52
-4 1 -9 1.4 1.57
4 -1 9 0.8 1.74
4 -1 10 89.48 12.81
-4 0 12 68.4 11.28
-4 0 11 331.93 24.04
-4 0 10 12.46 5.03
-4 0 9 111.11 12.51
-4 0 8 11.59 3.89
-4 0 7 207.86 14.84
-4 0 6 33.54 5.5
4 0 -6 36.62 5.16
-4 0 5 7.68 2.54
4 0 -5 5.67 2.07
-4 0 4 162.48 10.45
-4 0 3 222.31 11.3
-4 0 3 232.13 13.25
-4 0 2 2255.07 47.23
-4 0 2 2211.65 43.3
4 0 -1 337.18 12.56
-4 0 1 317.52 13.79
-4 0 1 349.61 12.65
-4 0 1 315.72 12.43
4 0 -1 327.97 13.72
4 0 0 9.25 2.05
4 0 0 14 2.76
-4 0 0 7.99 1.88
-4 0 0 14.17 2.69
4 0 1 22.35 3
4 0 1 22.68 3.45
-4 0 -1 22.19 3.17
-4 0 -1 20.97 3.07
4 0 2 145.11 9.16
4 0 2 140.62 7.83
-4 0 -2 134.98 8.34
-4 0 -2 154.63 8.93
4 0 3 288.59 13.99
4 0 3 309.7 12.37
-4 0 -3 331.03 14.51
4 0 4 242.83 13.51
-4 0 -4 239.39 13.93
4 0 4 246.22 11.39
-4 0 -4 237.31 13.37
-4 0 -5 14.11 3.63
-4 0 -5 10.13 3.12
-4 0 -5 7.34 2.86
4 0 5 13.05 2.69
4 0 5 13.86 3.48
-4 0 -6 -1.49 1.87
4 0 6 -2.69 1.35
4 0 6 1.23 1.43
-4 0 -7 10.77 3.39
4 0 7 11.26 2.92
4 0 7 8.55 3.57
4 0 8 5.61 2.04
4 0 8 9.16 3.78
4 0 9 2.03 1.78
-4 -1 12 52.51 9.67
-4 -1 11 -0.5 1.71
-4 -1 10 276.53 19.91
-4 -1 9 7.9 3.37
-4 -1 8 122.29 11.44
-4 -1 7 96.63 9.5
4 1 -7 109.81 9.1
-4 -1 6 0.58 1.3
-4 -1 6 0.44 1.01
4 1 -6 0.07 0.69
-4 -1 5 18.12 3.55
-4 -1 5 7.79 2.34
4 1 -5 13.84 2.88
-4 -1 4 569.2 18.97
-4 -1 4 519 18.73
-4 -1 3 1206.36 29.03
-4 -1 3 1149.84 30.84
-4 -1 2 108.63 7.67
4 1 -2 111.16 7.08
-4 -1 2 118.95 7.63
-4 -1 1 1506.23 31.34
4 1 -1 1526.79 31.83
4 1 0 556.75 16.39
-4 -1 0 545.29 15.17
4 1 0 525.26 16.79
4 1 1 452.61 15.14
4 1 1 478.49 15.94
-4 -1 -1 434.8 13.65
-4 -1 -2 -0.2 0.38
-4 -1 -2 0.32 0.69
4 1 2 0.5 0.71
4 1 2 0.86 0.94
4 1 3 204.03 11.19
4 1 3 222.69 11.4
-4 -1 -3 230.55 13.71
4 1 4 501.92 18.48
-4 -1 -4 456.51 19.26
4 1 4 476.66 18.92
-4 -1 -4 485.86 21.82
4 1 5 212.01 13.34
-4 -1 -5 221.77 13.67
4 1 5 234.47 12.87
-4 -1 -6 13.81 3.52
4 1 6 10.41 3.27
4 1 6 10.84 3.09
4 1 7 21.31 4.86
4 1 7 22.58 4.35
-4 -2 12 18.04 5.36
-4 -2 11 140.99 14.43
-4 -2 10 6.44 2.89
-4 -2 9 425.78 22.13
-4 -2 8 284.67 14.88
-4 -2 8 244.48 15.57
-4 -2 7 185.25 11.32
-4 -2 7 161.18 11.62
4 2 -7 170.05 10.96
-4 -2 6 4.98 1.9
-4 -2 6 4.22 1.89
4 2 -6 7.34 2.32
-4 -2 5 18.84 3.16
-4 -2 5 16.43 3.19
-4 -2 4 333.95 13.79
-4 -2 4 322.19 14.12
4 2 -3 656.28 19.43
-4 -2 3 633.99 20.14
-4 -2 3 606.18 20.48
4 2 -2 -0.19 0.68
-4 -2 2 -0.05 0.48
-4 -2 1 354.13 10.46
4 2 -1 356.57 13.98
-4 -2 1 374.35 15.05
-4 -2 0 140.17 5.68
4 2 0 134.3 8.51
-4 -2 0 158.91 10.01
4 2 0 135.94 6.33
4 2 1 49.02 4.13
4 2 1 52.25 5.5
-4 -2 -1 40.03 5.38
4 2 2 2.81 1.32
4 2 2 0.86 1
-4 -2 -2 0.82 1.25
-4 -2 -3 30.98 4.36
4 2 3 27.78 3.87
4 2 3 27.68 4.32
-4 -2 -4 13.26 3.1
4 2 4 14.56 3.08
4 2 4 20.97 3.86
-4 -2 -5 114.65 9.04
4 2 5 107.31 9.23
4 2 5 103.3 9.27
4 2 6 129.56 11.11
4 2 6 139.52 11.31
4 2 7 10.06 3.21
-4 -3 12 -0.69 1.63
-4 -3 12 2.53 3.04
-4 -3 11 6.5 3.14
-4 -3 10 7.16 2.69
-4 -3 9 128.82 11.41
-4 -3 8 -0.14 0.77
-4 -3 8 0.43 1.19
-4 -3 7 60.51 6.02
-4 -3 7 66.85 7.22
-4 -3 6 811.07 24.12
-4 -3 6 777.25 25.41
4 3 -5 415.86 16.19
-4 -3 5 373.76 15.41
-4 -3 5 386.43 16.39
-4 -3 4 312.68 13.84
-4 -3 4 307.5 14.2
4 3 -3 411.5 15.48
-4 -3 3 412.65 16.5
-4 -3 3 443.91 15.18
-4 -3 2 0.05 0.91
4 3 -2 -0.12 0.52
-4 -3 2 1.74 0.66
4 3 -1 14.57 2.95
-4 -3 1 16.01 3.33
-4 -3 0 0.84 0.62
4 3 0 2.45 1.2
4 3 1 190.07 6.65
4 3 1 193.07 11.61
4 3 2 166.92 7.9
4 3 2 162.71 11.06
4 3 3 1047.15 25.68
-4 -3 -3 961.83 26.1
4 3 3 991.34 30.91
-4 -3 -4 2.57 1.38
4 3 4 2.3 1.41
4 3 4 2.53 1.07
4 3 5 640.49 26.15
4 3 6 22.75 5.12
4 3 7 16.43 4.59
-4 -4 12 19.16 5.6
-4 -4 12 23.21 5.73
-4 -4 11 95.73 12.05
-4 -4 11 80.46 9.95
-4 -4 10 100.77 11.54
-4 -4 10 91.46 9.82
-4 -4 9 218.22 14.31
-4 -4 8 182.99 11.15
-4 -4 8 192.61 12.76
-4 -4 7 159.97 10.24
-4 -4 7 152.62 10.99
4 4 -6 9.45 2.51
-4 -4 6 7.85 2.37
-4 -4 6 11.01 2.81
4 4 -5 159.31 9.75
-4 -4 5 157.7 10.3
-4 -4 5 162.45 10.72
4 4 -4 55.74 5.72
-4 -4 4 57.59 6.27
-4 -4 3 591.9 15.35
4 4 -3 549.59 19.61
-4 -4 3 555.33 13.06
-4 -4 3 554.65 21.18
-4 -4 2 0.55 0.82
4 4 -2 0.96 1.28
4 4 -1 529.67 20.13
4 4 0 14.98 3.24
4 4 1 595.57 22.85
4 4 2 63.39 3.63
-4 -4 -2 72.74 5.69
4 4 2 79.23 8.25
4 4 2 56.58 3.62
4 4 3 254.64 15.65
4 4 4 63.69 8.14
4 4 5 1.72 2.29
4 4 6 -0.31 2.15
-4 -5 12 -0.5 1.48
-4 -5 12 -1.37 3.38
-4 -5 11 0.31 2.11
-4 -5 11 1.59 1.72
-4 -5 10 248.04 18.12
-4 -5 10 237.77 15.63
-4 -5 9 117.32 11.67
-4 -5 9 115.59 10.18
-4 -5 8 183.1 13.47
-4 -5 8 187.04 12.56
-4 -5 7 43.63 6.14
-4 -5 7 49.65 6.4
4 5 -6 6.86 2.1
-4 -5 6 12.26 3.27
-4 -5 6 5.57 2.23
4 5 -5 3.12 1.57
-4 -5 5 1.79 0.69
-4 -5 4 19.26 2.4
4 5 -4 14.97 3.35
4 5 -3 16.57 3.59
4 5 -2 2.94 1.51
4 5 -1 45.97 5.95
4 5 0 390.54 18.77
4 5 1 143.1 11.56
4 5 2 167.95 13.03
4 5 3 2.5 1.52
4 5 4 -0.07 1.36
4 5 5 21.67 5.41
-4 -6 12 43.08 7.35
-4 -6 12 57.83 9.76
-4 -6 11 185.99 16.64
-4 -6 11 159.32 13.26
-4 -6 10 57.16 7.43
-4 -6 10 61.74 8.99
-4 -6 9 41.98 6.21
-4 -6 9 38.21 6.64
-4 -6 8 182.69 13.41
-4 -6 8 152.44 11.57
4 6 -7 414.98 17.92
-4 -6 7 406 18.8
-4 -6 7 392.2 18.81
4 6 -6 39.55 5.23
-4 -6 6 29.19 4.35
-4 -6 5 40.79 4.04
-4 -6 5 31.51 5.5
4 6 -5 35.99 5.13
-4 -6 4 39.43 2.44
-4 -6 4 34.62 2.7
4 6 -3 164.02 11.69
4 6 -2 525.79 22.22
4 6 -1 68.92 7.91
4 6 0 191.71 13.85
4 6 1 6.34 2.55
4 6 2 18.08 4.81
4 6 3 48.19 7.77
-4 -7 13 9.09 4.69
-4 -7 12 50.74 9.32
-4 -7 11 17.2 4.17
-4 -7 11 22.6 5.67
-4 -7 10 28.8 5.44
-4 -7 10 25.74 5.93
-4 -7 9 1.64 1.49
-4 -7 9 0.42 1.58
4 7 -8 0.31 1.27
-4 -7 8 1.26 1.23
-4 -7 8 1.08 1.6
4 7 -7 520.28 21.26
-4 -7 7 515.41 20.84
-4 -7 7 542.95 23.26
4 7 -6 35.87 5.39
-4 -7 6 32.12 4.25
-4 -7 5 78.9 5.21
4 7 -5 77.98 8.22
-4 -7 4 13.63 3.82
4 7 -4 10.6 3.07
-4 -7 3 25.4 4.44
4 7 -3 38.4 6.11
4 7 -2 0.19 0.91
4 7 -1 58.58 7.79
4 7 0 8.82 3.2
4 7 1 -1.82 1.95
4 7 2 55.27 8.64
-4 -8 13 15.95 5.76
-4 -8 12 57.58 9.79
-4 -8 11 3.17 2.4
-4 -8 11 2.97 2.66
-4 -8 10 68.99 8.25
-4 -8 10 63.9 9.19
4 8 -9 69.08 7.93
-4 -8 9 68.76 8.85
-4 -8 9 71.06 8.34
4 8 -8 258.25 15.32
-4 -8 8 249.76 15.38
-4 -8 8 275.31 16.92
-4 -8 7 55.79 6.35
4 8 -7 48.38 6.48
-4 -8 6 49.82 4.98
4 8 -6 50.04 6.93
4 8 -5 -0.74 1.12
4 8 -4 10.52 3.63
4 8 -3 18.91 4.76
4 8 -2 81.61 9.69
4 8 -1 2.96 1.96
4 8 0 -1.69 2.4
-4 -9 13 7.95 4.56
-4 -9 12 13.06 4.8
-4 -9 11 1.69 2.32
-4 -9 10 40.97 7.3
-4 -9 10 58.29 7.65
4 9 -9 81.51 8.92
-4 -9 9 69.53 8.78
-4 -9 9 64.38 8.42
4 9 -8 64.2 7.92
-4 -9 8 72.94 9.26
4 9 -7 1.87 1.5
4 9 -6 75.1 8.91
4 9 -5 139.6 12.48
4 9 -4 129.51 12.25
4 9 -3 110.69 11.65
4 9 -2 23.54 5.64
4 10 -10 -1.76 1.27
-4 -10 10 0.83 2.49
4 10 -9 2.6 1.8
-4 -10 9 1.81 1.28
4 10 -8 4.63 2.49
4 10 -7 1.14 1.26
4 10 -6 2.19 1.31
4 10 -5 24.46 5.61
4 10 -4 32.77 6.58
4 11 -9 33.2 6.15
-4 -11 9 31.27 7.03
4 11 -8 -0.98 1.23
4 11 -7 6.43 3.1
-5 13 -3 113.17 12.97
5 -13 3 143.36 18.02
5 -13 4 17.27 7.15
5 -13 5 -2.04 2.44
-5 13 -6 49.85 9.02
-5 13 -7 191.67 18.5
-5 12 -1 39.29 7.87
-5 12 -2 160.91 15.45
5 -12 2 166.46 18.69
5 -12 3 22.89 7.2
-5 12 -3 11.86 4.14
-5 12 -4 17.71 5.01
5 -12 4 20.4 6.73
-5 12 -4 13.09 4.23
5 -12 5 139.46 17.67
-5 12 -5 126.98 13.96
-5 12 -6 29.61 6.95
5 -12 6 31.75 8.88
-5 12 -7 38.38 8.3
5 -12 7 25.25 7.61
-5 12 -8 48.87 9.89
-5 11 0 4.7 3.55
-5 11 -1 43.38 7.86
-5 11 -2 -0.54 2.05
-5 11 -2 -0.39 1.39
-5 11 -3 9.84 3.65
5 -11 3 11.68 5.16
-5 11 -3 7.7 3.53
-5 11 -4 2.08 2.11
-5 11 -4 2.44 2.43
5 -11 4 2.64 3.78
-5 11 -5 0.17 2.68
5 -11 5 -4.73 3.41
-5 11 -5 -0.41 1.03
-5 11 -6 1.84 1.95
5 -11 6 -6.51 4
-5 11 -7 3.71 2.13
5 -11 7 6.45 4
-5 11 -8 11.4 4.54
5 -11 8 1.54 2.41
-5 10 2 11.13 4.75
-5 10 1 3.19 2.03
-5 10 0 80.23 8.39
-5 10 0 99.06 12.08
-5 10 -1 148.76 12.07
-5 10 -1 166.67 14.96
5 -10 1 153.97 16.78
5 -10 2 8.61 4.57
-5 10 -2 6.3 2.53
-5 10 -2 9.51 3.48
-5 10 -3 -0.3 1.38
5 -10 3 -0.54 2.84
-5 10 -3 2.39 2.12
-5 10 -4 90.02 10.78
-5 10 -4 72.5 8.28
-5 10 -5 15.62 4.85
5 -10 5 22.54 6.99
-5 10 -5 27.55 4.53
-5 10 -6 3.94 2.47
5 -10 6 15.14 5.79
-5 10 -7 0.68 2.94
5 -10 7 -9.37 4.54
-5 10 -8 89.37 12.79
5 -10 8 87.66 13.6
-5 10 -9 110.02 14.71
5 -10 9 96.39 14.78
-5 9 3 -0.31 1.88
-5 9 2 -0.73 2
-5 9 2 0.06 2.15
-5 9 1 17.43 3.7
-5 9 1 15.06 4.42
-5 9 1 15.89 4.99
-5 9 0 88.27 10.79
-5 9 0 100.8 9.42
-5 9 0 87.16 10.25
-5 9 -1 11.31 3.1
5 -9 1 17.87 5.38
-5 9 -1 19.61 4.65
-5 9 -1 18.78 4.49
5 -9 2 82 11.77
-5 9 -2 79.78 9.14
-5 9 -2 80.98 9.28
5 -9 3 68.29 10.74
-5 9 -3 47.14 6.68
-5 9 -3 53.39 7.81
5 -9 3 47.45 6.75
5 -9 4 94.57 12.73
-5 9 -4 98.36 11.06
5 -9 4 104.21 8.79
-5 9 -4 101.95 9.01
-5 9 -5 13.5 2.96
-5 9 -5 12.5 4.14
5 -9 5 10.93 4.36
-5 9 -6 -0.97 2.28
5 -9 6 6.81 3.78
-5 9 -7 8.08 4.86
5 -9 7 5.05 3.41
-5 9 -8 -0.62 2.63
5 -9 8 2.4 3.06
-5 9 -9 5.76 4.08
5 -9 9 11.08 5.9
-5 8 5 144.23 16.44
-5 8 5 166.53 17.35
-5 8 4 7.3 4.04
-5 8 4 6.29 4
-5 8 3 1.06 1.74
-5 8 3 2.45 2.3
-5 8 2 0.31 1.68
-5 8 2 0.69 2.19
-5 8 1 43.83 7.61
-5 8 1 32.3 6.26
-5 8 0 333.16 19.31
5 -8 0 369.87 24.31
5 -8 1 237.1 19.14
-5 8 -1 242.61 15.38
-5 8 -1 207.89 14.17
-5 8 -2 2.5 1.88
5 -8 2 4.6 2.65
-5 8 -2 7.05 2.42
-5 8 -2 3.84 1.53
5 -8 2 6.84 2.97
-5 8 -3 25.47 4.56
5 -8 3 39.21 7.8
-5 8 -3 35.03 4.98
5 -8 3 41.61 5.72
-5 8 -3 40.24 6.66
-5 8 -4 335.42 15.59
5 -8 4 340.08 23.56
-5 8 -4 336.04 20.65
5 -8 4 321.69 13.14
5 -8 5 1181.36 46.37
-5 8 -5 1283.75 44.16
-5 8 -5 1262.96 29.84
-5 8 -6 5.57 1.13
5 -8 6 -0.3 2.58
-5 8 -7 82.8 11.42
5 -8 7 64.28 10.68
-5 8 -8 32.11 7.48
5 -8 8 31.92 7.81
-5 8 -9 4.95 3.05
5 -8 9 8.3 3.71
-5 8 -10 15.54 5.88
-5 7 6 48.11 9.38
-5 7 6 64.98 10.88
-5 7 5 46.21 8.9
-5 7 5 43.15 8.52
-5 7 4 13.33 4.73
-5 7 3 202.29 16.7
-5 7 2 1.96 1.61
-5 7 1 54.59 7.71
-5 7 0 91.61 9.54
5 -7 0 116.94 12.79
5 -7 1 109.14 12.42
-5 7 -1 93.9 9.02
5 -7 1 93.32 9.5
-5 7 -2 58.99 6.49
5 -7 2 62.62 9.63
5 -7 2 66.81 7.08
5 -7 3 264.69 19.51
-5 7 -3 218.28 15.8
-5 7 -3 250.01 12.48
5 -7 3 271.99 12.56
5 -7 4 77.31 10.62
-5 7 -4 91.44 10.38
5 -7 4 86.31 5.39
-5 7 -5 17.82 2.23
-5 7 -5 15.81 4.63
-5 7 -5 16.73 2.62
5 -7 5 20.53 5.68
-5 7 -6 41.5 7.76
5 -7 6 38.57 7.78
-5 7 -7 40.97 8.1
5 -7 7 52.36 9.39
-5 7 -8 18.78 5.71
5 -7 8 5.75 3.87
-5 7 -9 -1.5 2.1
5 -7 9 0.74 2.97
-5 7 -10 14.33 5.96
5 -7 10 9.96 4.72
-5 6 7 10.05 4.33
-5 6 7 18.88 6.02
-5 6 6 4.86 3.5
-5 6 5 21.89 6.08
-5 6 4 377.64 23.33
-5 6 3 25.02 5.69
-5 6 2 146.71 12.93
5 -6 -1 47.5 8.14
-5 6 1 69.62 8.42
-5 6 0 353.63 18.11
5 -6 0 374.3 18.54
5 -6 0 341.32 21.49
5 -6 1 -0.59 1.97
-5 6 -1 1.37 1.44
5 -6 1 0.37 1.05
5 -6 2 11.5 4.05
-5 6 -2 17.18 3.35
5 -6 2 15.34 3
5 -6 3 151.75 14.13
-5 6 -3 166.44 13.4
-5 6 -3 147.83 8.86
5 -6 3 141.81 7.58
-5 6 -4 225.19 8.92
5 -6 4 214.86 17
-5 6 -4 246.69 16.99
-5 6 -4 215.12 9.49
-5 6 -5 62.62 3.64
-5 6 -5 63.86 8.95
-5 6 -5 50.24 3.16
5 -6 5 63.5 9.43
-5 6 -6 79.72 10.43
5 -6 6 72.21 10.38
5 -6 7 791.37 36.5
-5 6 -7 830.4 36.49
-5 6 -8 47.93 9.18
5 -6 8 43.39 8.64
5 -6 9 229.21 20.91
-5 6 -9 258.9 21.95
-5 6 -10 25.17 6.92
5 -6 10 13.19 4.74
-5 5 8 8.88 4.41
-5 5 7 3.02 3.2
-5 5 6 4.98 3.45
-5 5 5 125.42 13.62
-5 5 4 37.46 6.92
-5 5 3 197.79 15.26
-5 5 2 12.44 3.53
5 -5 -1 1.47 1.87
-5 5 1 4.67 2.43
-5 5 1 4.75 2.16
5 -5 -1 2.8 1.8
5 -5 0 0.15 0.93
-5 5 0 -0.92 1.88
-5 5 0 -0.98 1.34
5 -5 0 0.7 1.04
5 -5 1 184.93 14.82
-5 5 -1 209.61 15.57
-5 5 -1 191.63 11.53
5 -5 1 229.65 11.65
5 -5 2 23.02 5.21
5 -5 2 27.82 3.49
-5 5 -2 24.52 5.2
-5 5 -2 22.97 3.58
-5 5 -3 1059.48 23.28
5 -5 3 1111.12 38.55
-5 5 -3 1031.74 25.39
5 -5 4 302.93 19.68
-5 5 -4 319.39 10.23
-5 5 -4 324.65 19.27
-5 5 -4 266.69 10.28
5 -5 5 611.67 28.98
-5 5 -5 646.52 28.67
-5 5 -5 582.05 14.38
-5 5 -5 626.02 13.94
-5 5 -6 246.85 18.31
-5 5 -6 228.59 6.05
5 -5 7 104.71 12.6
-5 5 -7 102.67 12.3
-5 5 -8 28.81 6.9
5 -5 8 42.12 8.03
-5 5 -9 26.13 6.82
5 -5 9 17.43 6.1
-5 5 -10 2.75 2.48
5 -5 10 3.25 2.51
-5 4 9 8.77 4.31
-5 4 8 13.79 5.47
-5 4 7 17.52 5.39
-5 4 6 184.16 16.73
-5 4 5 15.02 4.61
-5 4 4 53.81 8.19
-5 4 3 22.99 4.92
-5 4 2 2.21 2.41
-5 4 2 -0.34 1.34
5 -4 -2 -0.83 1.27
-5 4 1 600.11 27.05
-5 4 1 603.03 23.09
5 -4 -1 623.97 22.2
5 -4 -1 603.79 26.71
5 -4 0 526.93 24.31
-5 4 0 560.07 25.29
-5 4 0 519.1 20.07
5 -4 0 549.94 18.93
5 -4 1 0.2 1.13
-5 4 -1 3.94 2.28
-5 4 -1 2.04 1.24
5 -4 1 1.21 0.6
5 -4 2 188.56 14.22
-5 4 -2 203.96 9.12
-5 4 -2 192.76 13.93
-5 4 -2 210 10.31
-5 4 -3 18.84 2.57
5 -4 3 19.75 4.82
-5 4 -3 18.77 4.3
-5 4 -3 20.03 2.96
-5 4 -4 9.91 3.52
5 -4 4 13.92 4.24
-5 4 -4 12.8 1.97
-5 4 -4 11.49 2.12
5 -4 5 118.03 12
-5 4 -5 106.13 11.18
-5 4 -5 102.94 5.83
-5 4 -5 101.76 5.65
5 -4 6 302.53 20
-5 4 -6 309.78 20.02
-5 4 -6 265.95 10.83
-5 4 -6 290.04 9.87
-5 4 -6 257.27 9.55
-5 4 -7 3.4 2.21
5 -4 7 4.78 3.07
-5 4 -7 0.79 0.64
-5 4 -8 57.67 9.44
5 -4 8 50.24 8.98
-5 4 -9 -1.74 3.05
5 -4 9 -0.69 2.46
-5 4 -10 8.53 3.82
5 -4 10 19.6 6.54
-5 3 10 2.25 3.08
-5 3 9 222.91 20.2
-5 3 8 11.54 4.44
-5 3 7 6.68 3.28
-5 3 6 17.94 5.12
-5 3 5 5.98 2.52
-5 3 4 120.37 11.28
-5 3 3 39.99 7.12
-5 3 3 57.79 7.31
5 -3 -3 58.28 7.04
-5 3 2 11.7 3.59
-5 3 2 14.5 3.49
5 -3 -2 14.19 3.05
-5 3 1 194.35 14.27
-5 3 1 194.26 12.01
5 -3 -1 216.07 11.41
5 -3 -1 222.28 15.07
5 -3 0 597.08 24.66
-5 3 0 597.58 24.97
-5 3 0 582.04 19.77
5 -3 0 557.41 17.87
5 -3 1 61.5 7.63
-5 3 -1 62.73 5.15
-5 3 -1 59.24 7.31
-5 3 -1 57.49 5.69
-5 3 -2 50.37 6.57
-5 3 -2 46.26 4.27
5 -3 2 42.75 6.3
-5 3 -2 48.1 4.72
5 -3 3 9.93 3.35
-5 3 -3 6.15 1.52
-5 3 -3 4.17 2.06
-5 3 -3 9.68 2.03
5 -3 4 111.59 10.8
-5 3 -4 116.94 11.01
-5 3 -4 94.09 9.38
-5 3 -4 101.43 6.31
-5 3 -4 103.89 6.47
5 -3 5 229.92 16.23
-5 3 -5 227.8 16.3
-5 3 -5 231.21 9.98
-5 3 -5 220.35 10.22
-5 3 -6 2.73 1.43
-5 3 -6 2.03 1.54
-5 3 -6 0.3 1.07
5 -3 6 3.36 2.76
5 -3 7 12.32 2.16
5 -3 7 17.3 5.01
-5 3 -7 12.07 4.23
-5 3 -8 1.74 2.03
5 -3 8 -1.54 2.03
-5 3 -9 -0.32 2.38
5 -3 9 4.76 4.04
-5 3 -10 22.26 6.73
5 -3 10 27.21 7.2
-5 2 10 2.98 2.43
-5 2 9 45.96 9.04
-5 2 8 271.21 20.59
-5 2 7 164.74 15.08
-5 2 6 18.95 4.97
-5 2 5 20.13 4.85
-5 2 4 69.73 8.07
5 -2 -4 78.86 7.99
-5 2 4 74.03 9.39
-5 2 3 170.17 13.54
-5 2 3 176.87 12.24
5 -2 -3 192.14 11.62
-5 2 2 202.15 13.99
-5 2 2 226.14 12.81
5 -2 -2 234.97 12.13
-5 2 1 217.9 14.44
-5 2 1 237.62 12.51
5 -2 -1 220.54 11.15
5 -2 -1 229.75 14.28
5 -2 0 4.49 2.17
-5 2 0 7.1 2.71
-5 2 0 5.17 1.79
-5 2 -1 39.69 4.18
5 -2 1 31.49 5.14
-5 2 -1 36.95 4.23
-5 2 -1 33.19 5.13
5 -2 2 216.15 13.96
-5 2 -2 214.83 13.09
-5 2 -2 218.8 9.98
-5 2 -2 220.33 10.31
5 -2 3 60.14 5.15
5 -2 3 67.24 7.9
-5 2 -3 64.47 7.17
-5 2 -3 67.94 5.53
5 -2 4 62.84 5.18
5 -2 4 61.22 7.68
-5 2 -4 63.02 7.56
-5 2 -4 48.68 7.12
-5 2 -4 67.76 5.85
5 -2 5 218.93 9.94
5 -2 5 234.68 15.94
-5 2 -5 208.21 15.24
5 -2 6 112 7.02
5 -2 6 93.42 10.55
-5 2 -6 104.53 11.48
-5 2 -6 103.17 9.24
5 -2 7 39.42 4.24
-5 2 -7 38.21 7.49
-5 2 -8 22.85 5.9
5 -2 8 21.5 5.59
-5 2 -9 31.71 7.31
5 -2 9 25.34 6.78
5 -2 10 4.37 3.47
-5 1 11 102.07 13.68
-5 1 10 9.91 4.61
-5 1 9 48.44 8.62
-5 1 8 58.56 9.11
-5 1 7 359.94 21.52
-5 1 6 227.24 16.03
-5 1 5 83.54 8.96
5 -1 -5 72.67 7.63
-5 1 5 69.73 9.67
-5 1 4 47.93 7.36
5 -1 -4 48.95 5.9
-5 1 4 39.18 5.7
-5 1 3 2191.95 51.17
-5 1 3 2119.46 45.89
5 -1 -3 2194.14 43.5
-5 1 2 903.99 30.2
-5 1 2 911.85 26.72
5 -1 -2 849.79 24.59
-5 1 1 1911.61 45.67
-5 1 1 1877.22 40.51
5 -1 -1 1889.18 44.91
5 -1 0 450.94 18.94
-5 1 0 406.6 17.72
-5 1 0 440.95 15.86
5 -1 1 4.73 1.61
5 -1 1 4.83 2.05
-5 1 -1 1.23 0.76
-5 1 -1 4.18 1.48
5 -1 2 44.15 5.82
5 -1 2 40 4.31
-5 1 -2 31.67 4.68
5 -1 3 19.14 2.97
5 -1 3 28.05 4.88
-5 1 -3 23.72 4.18
5 -1 4 479.06 21.63
5 -1 4 487.54 16.4
-5 1 -4 488.75 22.79
-5 1 -4 506.92 21.51
-5 1 -4 467.19 18.6
5 -1 5 1091.1 35.74
5 -1 5 1107.85 27.5
-5 1 -5 1120.14 36.86
-5 1 -5 1025.47 31.47
-5 1 -6 9.65 2.96
-5 1 -6 6.8 2.89
5 -1 6 8.93 2.24
5 -1 6 13.55 4.13
5 -1 7 336.26 20.91
-5 1 -7 339.16 21.02
5 -1 7 304.22 13.86
5 -1 8 285.94 20.63
-5 1 -8 271.48 19.24
5 -1 9 45.69 9.19
-5 0 12 41.03 8.67
-5 0 11 13.01 5.02
-5 0 10 30.41 6.98
-5 0 9 182.17 16.01
-5 0 8 -0.9 1.34
-5 0 7 1.54 1.79
-5 0 6 87.89 9.45
-5 0 5 42.84 6.12
5 0 -5 38.77 5.33
-5 0 4 120.54 9.67
5 0 -4 111.32 8.61
-5 0 4 113.2 10.72
-5 0 3 1232.08 35.72
-5 0 3 1264.83 32.86
-5 0 2 152.4 11.04
-5 0 2 180.16 10.07
-5 0 2 173 10.17
5 0 -1 93.33 7.05
-5 0 1 88.17 7.65
-5 0 1 83.86 6.76
-5 0 1 77.87 6.63
5 0 -1 84.48 7.47
5 0 0 10.21 2.4
5 0 0 5.77 2.08
-5 0 0 11.87 2.61
-5 0 0 11.68 2.5
5 0 1 2.85 1.37
5 0 1 2.03 1.18
-5 0 -1 4.79 1.71
-5 0 -1 4.38 1.6
5 0 2 49.08 5.86
5 0 2 44.6 4.76
-5 0 -2 54.43 5.76
-5 0 -2 50.34 5.63
5 0 3 166.36 9.7
-5 0 -3 168.21 10.85
-5 0 -3 187.28 11.79
5 0 4 195.26 12.98
-5 0 -4 156.72 12.3
5 0 4 202.77 11.07
-5 0 -4 194.11 12.96
5 0 5 63.4 7.79
-5 0 -5 55.87 7.53
5 0 5 67.81 6.61
-5 0 -5 57.84 7.64
5 0 6 50.59 5.93
-5 0 -6 49.25 7.52
5 0 6 52.52 7.6
5 0 7 145.62 13.52
-5 0 -7 142.1 12.93
5 0 7 144.28 10.35
-5 -1 13 5.84 3.31
-5 -1 12 67.7 10.93
-5 -1 11 49.18 9.03
-5 -1 10 211.21 17.55
-5 -1 9 4.02 2.54
-5 -1 8 173.65 14.29
-5 -1 7 1.13 0.94
-5 -1 6 114.76 10.3
-5 -1 6 95.4 9.32
5 1 -6 84.39 8
-5 -1 5 30.62 4.94
-5 -1 5 23.02 4.51
-5 -1 4 73.45 6.92
-5 -1 4 61.57 6.6
-5 -1 4 54.47 7.45
-5 -1 3 34.75 4.56
-5 -1 3 34.61 5.18
-5 -1 3 36.88 4.88
5 1 -2 10.93 2.51
-5 -1 2 8.69 2.41
-5 -1 2 14.39 2.88
-5 -1 2 11.81 2.76
5 1 -1 2.03 1.25
-5 -1 1 0.43 0.46
-5 -1 1 0.51 0.57
5 1 0 444.07 16.27
5 1 0 448.49 16.5
-5 -1 0 435.07 15.04
-5 -1 0 488.5 18.22
5 1 1 61.76 5.94
5 1 1 58.8 5.82
-5 -1 -1 60.58 5.25
-5 -1 -1 65.54 6.7
5 1 2 197.27 11.18
5 1 2 202.52 11.39
-5 -1 -2 192.85 10.46
-5 -1 -2 184.5 12.25
5 1 3 0.66 0.97
5 1 3 1.89 1.14
-5 -1 -4 13.4 3.68
5 1 4 13.75 3.08
5 1 4 9.53 2.78
-5 -1 -5 2.69 1.81
5 1 5 1.69 1.66
5 1 5 2.29 1.86
-5 -1 -6 17.07 4.3
5 1 6 13.31 3.32
5 1 6 6.42 2.31
5 1 7 43.73 6.21
-5 -2 13 2.64 2.56
-5 -2 12 50.81 9.62
-5 -2 11 -0.14 1.78
-5 -2 10 64.31 9.17
-5 -2 9 12.39 4.02
-5 -2 8 273.88 17.45
-5 -2 7 7.41 2.78
-5 -2 6 359.23 16.69
-5 -2 6 313.64 16.92
-5 -2 5 15.6 3.26
-5 -2 5 17.08 3.75
-5 -2 4 98.33 8.12
-5 -2 4 96.11 8.32
-5 -2 4 112.81 9.68
-5 -2 3 40.04 5.32
5 2 -3 35.54 4.62
-5 -2 3 37.53 5.07
-5 -2 3 32.39 4.5
5 2 -2 9.69 2.33
-5 -2 2 12.44 2.45
-5 -2 2 13.84 3.04
5 2 -1 685.64 21.94
-5 -2 1 727.17 18.13
-5 -2 1 683.77 23.35
5 2 0 125.98 8.98
-5 -2 0 112.48 5.98
-5 -2 0 124.54 9.72
5 2 0 119.68 6.91
5 2 1 325.03 12.51
5 2 1 311.59 14.86
5 2 2 -0.06 0.67
5 2 2 2.02 1.48
5 2 3 123.55 8.85
-5 -2 -3 125.77 10.03
5 2 3 131.18 10.05
-5 -2 -4 -0.76 0.79
5 2 4 1.07 1.06
5 2 4 1.06 1.88
5 2 5 56.1 7.03
5 2 6 18.9 4.4
5 2 7 34.07 6
-5 -3 13 14.04 5.83
-5 -3 12 13.3 4.37
-5 -3 11 23.95 5.48
-5 -3 10 71.73 9.55
-5 -3 9 21.18 4.91
-5 -3 8 39.85 6.36
-5 -3 7 -0.68 1.29
-5 -3 6 121.14 10.14
5 3 -5 29.97 4.62
-5 -3 5 33.13 4.89
-5 -3 5 24.58 4.56
5 3 -4 35.45 4.92
-5 -3 4 45.18 5.69
-5 -3 4 44.11 5.73
-5 -3 4 50.61 6.12
-5 -3 3 30.64 4.05
5 3 -3 31.41 4.47
-5 -3 3 32.71 4.92
-5 -3 2 339 10.44
5 3 -2 345.76 15.41
-5 -3 1 9.64 1.06
5 3 -1 16.56 3.45
5 3 0 450.03 18.87
5 3 1 33.14 5.08
5 3 1 25.02 2.34
5 3 2 553.21 15.96
5 3 2 542.26 22.19
-5 -3 -3 4.17 1.7
5 3 3 5.99 2.29
5 3 4 1.34 1.1
5 3 5 26.45 5.36
5 3 6 -0.05 1.71
-5 -4 13 9.1 4.05
-5 -4 12 97.47 13.17
-5 -4 12 104.19 12.35
-5 -4 11 0.67 2.49
-5 -4 10 27.75 5.83
-5 -4 9 29.28 5.59
-5 -4 8 11.25 3.47
-5 -4 7 3.79 2.29
5 4 -6 81.65 7.94
-5 -4 6 82.86 8.45
5 4 -5 26.46 4.29
-5 -4 5 25.63 4.68
5 4 -4 2.16 1.52
-5 -4 4 2.59 1.22
-5 -4 3 60.35 3.96
5 4 -3 61.59 6.75
-5 -4 3 55.74 3.57
5 4 -2 452.37 19.37
5 4 -1 66.34 7.36
5 4 0 233.55 14.18
5 4 1 69.39 8
-5 -4 -2 55.81 5.91
5 4 2 59.28 7.56
5 4 3 78.17 9.03
5 4 4 -0.02 1.76
5 4 5 0.33 1.16
-5 -5 12 3.4 2.56
-5 -5 12 1.96 2.31
-5 -5 11 63.6 9.99
-5 -5 11 27.27 6
-5 -5 10 4.38 1.99
-5 -5 10 4.76 2.68
-5 -5 9 -1.16 1.8
-5 -5 9 0.92 2.16
-5 -5 8 249.3 15.83
-5 -5 8 232.55 15.37
-5 -5 7 174.63 12.23
-5 -5 7 188.21 13.61
5 5 -6 106.03 9.09
-5 -5 6 106.28 8.63
-5 -5 6 111.11 10.22
5 5 -5 70.19 7.31
-5 -5 5 75.8 6.21
-5 -5 4 -0.41 0.63
-5 -5 4 -0.26 0.46
5 5 -3 543.01 22.22
5 5 -2 164.95 12.01
5 5 -1 0.74 1.28
5 5 0 0.24 1.14
5 5 1 14.9 3.82
5 5 2 29.3 5.75
5 5 3 51 7.85
5 5 4 22.38 5.26
-5 -6 12 39.73 7.38
-5 -6 12 47.19 8.91
-5 -6 11 25.22 5.42
-5 -6 11 21.3 5.85
-5 -6 10 139.7 13.73
-5 -6 10 137.28 12.55
-5 -6 9 158.73 13.62
-5 -6 9 152.97 12.92
-5 -6 8 92.71 9.48
-5 -6 8 102.95 10.3
5 6 -7 13.18 3.44
-5 -6 7 6.13 2.7
-5 -6 7 13.54 3.14
5 6 -6 16.09 3.81
-5 -6 6 22.28 3.62
-5 -6 6 24.52 4.86
5 6 -5 55.4 6.79
-5 -6 5 50.12 4.08
-5 -6 5 57.35 5.27
5 6 -4 52.48 6.81
5 6 -3 301.59 17.19
5 6 -2 500.27 22.79
5 6 -1 147.8 12.41
5 6 0 232.63 16.07
5 6 1 0.85 1.46
5 6 2 16.11 4.56
-5 -7 12 25.66 5.64
-5 -7 12 32.35 7.48
-5 -7 11 178.95 16.32
-5 -7 11 162.85 14.13
-5 -7 10 296.75 19.87
-5 -7 10 262.81 17.62
-5 -7 9 206.67 15.28
-5 -7 9 214.56 15.37
5 7 -8 204.82 14.1
-5 -7 8 191.29 13.44
-5 -7 8 205.47 15.18
5 7 -7 49.1 6.76
-5 -7 7 43.92 5.42
-5 -7 7 40.46 6.78
5 7 -6 195.78 13.63
-5 -7 6 186.68 9.4
5 7 -5 43.05 6.46
5 7 -4 4.81 2.19
5 7 -3 100.01 10.31
5 7 -2 36.8 6.38
5 7 -1 262.3 17.62
5 7 0 14.25 4.16
-5 -8 13 19.45 6.54
-5 -8 12 24.03 6.25
-5 -8 11 0.69 1.89
-5 -8 11 1.94 2.01
-5 -8 10 44.82 7.79
-5 -8 10 50.83 7.79
5 8 -9 76.59 9.05
-5 -8 9 66.78 8.4
-5 -8 9 68.07 9
5 8 -8 25.15 5.02
-5 -8 8 31.82 6.18
5 8 -7 4.5 2.28
5 8 -6 29.09 5.52
5 8 -5 1.29 1.42
5 8 -4 95.83 10.56
5 8 -3 50.28 7.77
5 8 -2 -0.45 2.19
-5 -9 11 5.52 3.24
-5 -9 10 12.75 4.43
5 9 -9 44.57 7.06
-5 -9 9 40.99 7.25
5 9 -8 5.46 2.87
-5 -9 8 7.25 3.67
5 9 -7 19.42 4.88
5 9 -6 43.05 7.16
5 9 -5 0.84 1.38
5 9 -4 16.5 4.61
5 10 -10 25.72 5.77
-5 -10 10 18.32 5.33
5 10 -9 9.31 3.46
-5 -10 9 5.33 1.68
5 10 -8 53.11 8.05
-5 -10 8 50.52 9.02
5 10 -7 24.12 5.53
-6 13 -5 10.05 4.31
-6 13 -6 19.71 5.95
-6 12 -1 71.6 10.89
6 -12 2 85.84 13.87
-6 12 -2 86.03 11.44
-6 12 -3 6.17 2.54
-6 12 -3 15.07 4.5
6 -12 3 11.09 5.41
-6 12 -4 6.12 2.23
6 -12 4 1.19 3.95
-6 12 -5 120.68 14.77
6 -12 5 70.5 13.14
-6 12 -6 118.34 14.58
-6 11 0 26.34 6.47
-6 11 -1 39.5 6.51
-6 11 -1 57.01 9
-6 11 -2 187.55 15.39
-6 11 -2 225.08 17.64
6 -11 2 238.4 22.84
-6 11 -3 2.13 1.62
-6 11 -3 7.85 3.48
-6 11 -4 3.99 1.83
6 -11 4 4.84 3.92
-6 11 -4 0.7 1.91
-6 11 -5 6.46 3.96
6 -11 5 -0.21 2.01
-6 11 -6 71.02 11.27
6 -11 6 71.91 12.96
6 -11 7 121.69 17.09
-6 11 -7 136.77 16.06
-6 10 2 2.81 1.85
-6 10 1 27.62 6.66
-6 10 1 30.19 6.81
-6 10 0 61.5 8
-6 10 0 66.31 9.4
-6 10 0 63.66 9.94
-6 10 -1 6.04 3.42
6 -10 1 9.37 4.57
-6 10 -1 13.09 4.2
-6 10 -1 12.48 3.83
-6 10 -2 194.16 15.74
-6 10 -2 191.19 15.64
6 -10 2 242.44 22.22
-6 10 -3 3.33 2.04
-6 10 -3 9.67 3.77
6 -10 3 9.9 4.38
-6 10 -4 16.4 5.37
6 -10 4 8.72 4.55
-6 10 -4 7.52 2.93
-6 10 -5 35.57 7.31
6 -10 5 26.3 7.85
-6 10 -6 -1.63 2.02
6 -10 6 -0.92 1.66
-6 10 -7 -4.75 3.32
6 -10 7 4.74 3.19
-6 10 -8 16.32 5.54
6 -10 8 18.71 6.86
-6 9 3 36.76 8.2
-6 9 3 41.54 8.28
-6 9 2 167.53 16.5
-6 9 2 180.26 16.7
-6 9 1 51.29 8.64
-6 9 1 22.81 5.8
-6 9 0 112.23 12.26
-6 9 0 94.5 10.8
6 -9 0 112.66 14.64
-6 9 -1 21.16 4.99
-6 9 -1 26.87 5.76
6 -9 1 35.46 8.41
-6 9 -1 24.59 5.16
-6 9 -2 6.4 2.88
-6 9 -2 8.37 3.29
6 -9 2 15.02 5.55
-6 9 -2 9.02 3.02
-6 9 -3 12.37 4.21
6 -9 3 14.1 6.05
-6 9 -3 8.4 2.46
-6 9 -3 9.73 3.09
6 -9 3 7.52 2.93
-6 9 -4 15.21 4.88
6 -9 4 15.15 5.85
-6 9 -4 18.08 4.09
-6 9 -5 0.45 1.56
6 -9 5 1.58 2.66
-6 9 -5 1.52 1.52
-6 9 -6 26.26 6.85
6 -9 6 10.25 4.17
-6 9 -7 60.86 10.75
6 -9 7 51.87 10.61
-6 9 -8 94.51 13.94
6 -9 8 82.06 13.64
-6 8 4 5.4 3.23
-6 8 4 1.82 2.68
-6 8 3 105.02 12.89
-6 8 2 38.44 7.44
-6 8 1 -0.67 1.62
6 -8 0 75.23 11.41
-6 8 0 66.43 8.71
6 -8 1 6.35 4.14
-6 8 -1 8.14 3.06
6 -8 2 165.89 16.87
-6 8 -2 213.85 16.32
-6 8 -2 186.01 12.92
6 -8 2 189.13 13.23
6 -8 3 377.34 25.8
-6 8 -3 432.94 24.14
-6 8 -3 391.13 17.68
6 -8 3 361.26 16.31
-6 8 -4 26.44 6.16
6 -8 4 18.66 5.94
-6 8 -4 27.25 4.08
6 -8 4 24.58 3.37
-6 8 -5 541.34 18.8
6 -8 5 493.17 30.42
-6 8 -5 563.66 29.83
6 -8 6 127.2 15.48
-6 8 -6 115.74 13.7
-6 8 -7 23.26 6.8
6 -8 7 11.55 4.51
-6 8 -8 7.43 3.15
6 -8 8 13.1 5.64
-6 8 -9 7.65 3.6
6 -8 9 -0.96 2.11
-6 7 6 3.51 3.61
-6 7 5 57.04 9.98
-6 7 4 84.52 11.58
-6 7 3 133.56 13.99
-6 7 2 2.37 2.16
-6 7 1 35.87 6.46
-6 7 0 76.08 8.94
6 -7 0 79.75 11.39
6 -7 1 362.39 24.03
-6 7 -1 355.62 18.67
6 -7 1 343.63 18.03
6 -7 2 355.87 23.92
-6 7 -2 380.87 18.06
6 -7 2 379.35 17.15
-6 7 -3 43.55 7.66
-6 7 -3 50.59 5.85
6 -7 3 48.4 8.67
6 -7 3 43.47 4.76
6 -7 4 85.34 11.96
-6 7 -4 77.28 10.77
-6 7 -4 78.79 6.53
6 -7 5 90.02 12.44
-6 7 -5 91.95 11.72
-6 7 -5 93.02 5.72
-6 7 -6 55 9.49
6 -7 6 52.29 9.64
-6 7 -7 2.8 2.15
6 -7 7 10.35 4.52
-6 7 -8 10.01 5.08
6 -7 8 13.96 5.32
-6 7 -9 1.37 2.27
6 -7 9 -5.65 3.61
-6 6 7 100.09 14.01
-6 6 6 137.37 15.79
-6 6 5 174.31 16.93
-6 6 4 6.22 3.38
-6 6 3 289.38 20.08
-6 6 2 7.18 3.57
6 -6 -1 4.46 3.04
-6 6 1 7.12 2.59
6 -6 0 46.98 8.32
6 -6 0 50.19 6.63
-6 6 0 38.69 6.21
6 -6 1 161.51 15.22
-6 6 -1 153.37 11.47
6 -6 1 156.72 10.92
6 -6 2 473.13 26.72
-6 6 -2 463.08 18.88
6 -6 2 441.98 16.62
-6 6 -3 68.46 6.45
6 -6 3 72.23 10.29
6 -6 4 165.29 15.78
-6 6 -4 152.64 7.89
-6 6 -4 156.4 14.46
-6 6 -4 151.26 8.78
-6 6 -5 22.2 2.58
-6 6 -5 20.31 5.51
6 -6 5 18.87 5.54
-6 6 -5 17.53 2.51
-6 6 -6 22.53 6.06
6 -6 6 21.63 5.86
-6 6 -7 58.56 9.97
6 -6 7 63.93 10.54
-6 6 -8 6.24 4.43
6 -6 8 8.94 4.81
-6 6 -9 -0.81 1.94
6 -6 9 1.99 1.75
-6 5 8 47.12 9.96
-6 5 7 15.22 4.86
-6 5 6 19.59 5.97
-6 5 5 229.81 18.92
-6 5 4 63.29 9.51
-6 5 3 36.56 6.87
-6 5 2 70.61 8.93
-6 5 1 50.74 7.05
6 -5 -1 59.83 7.26
6 -5 -1 65.49 9.51
6 -5 0 4.15 2.94
-6 5 0 1.99 1.66
6 -5 0 0.29 0.98
6 -5 1 35.42 6.88
-6 5 -1 30.24 4.9
6 -5 1 27.9 4.03
6 -5 2 338.22 21.55
-6 5 -2 293.31 14.43
6 -5 3 103.62 11.75
-6 5 -3 96.09 7.42
6 -5 4 417.15 24.63
-6 5 -4 385.95 22.96
-6 5 -4 388.74 13.07
-6 5 -4 390.37 14.62
6 -5 5 593.16 30.4
-6 5 -5 607.02 29.57
-6 5 -5 580.7 15.81
-6 5 -5 611.92 17.21
6 -5 6 27.33 6.61
-6 5 -6 23.16 2.72
-6 5 -7 34.37 7.67
6 -5 7 24.14 6.58
-6 5 -8 21.46 6.44
6 -5 8 27.93 7.35
-6 5 -9 3.78 1.77
6 -5 9 14.03 5.55
-6 4 8 366.3 26.22
-6 4 7 183.36 17.75
-6 4 6 3.77 2.97
-6 4 5 153.19 14.63
-6 4 4 210.49 16.38
-6 4 3 361.77 20.86
-6 4 2 139.2 11.91
6 -4 -2 165.16 11.94
-6 4 1 472.01 21.28
6 -4 -1 472.79 19.73
6 -4 -1 437.93 23.84
6 -4 0 24.61 5.6
-6 4 0 19.51 4.93
-6 4 0 24.68 4.43
6 -4 0 18.74 3.34
6 -4 1 575.15 27.07
-6 4 -1 540.52 17.6
-6 4 -1 620.4 27.8
-6 4 -1 576.99 20.96
6 -4 2 103.47 11.28
-6 4 -2 102.01 7.99
6 -4 3 305.33 19.74
-6 4 -3 318.99 13.67
-6 4 -4 40.1 4.11
-6 4 -4 36.72 4.23
6 -4 4 36.02 7.02
-6 4 -5 0.42 1.44
-6 4 -5 2.33 1.21
6 -4 5 1.04 1.28
-6 4 -5 2.21 1.18
6 -4 6 177.66 16.14
-6 4 -6 159.84 15.21
-6 4 -6 185.53 9.08
-6 4 -7 48.69 8.69
6 -4 7 47.9 8.59
-6 4 -8 22.6 6.64
6 -4 8 16.96 5.52
-6 4 -9 70.09 11.36
6 -4 9 90.45 12.91
-6 3 9 7.45 3.02
-6 3 8 100.18 13.28
-6 3 7 82.7 11.75
-6 3 6 20.05 5.72
-6 3 5 8.7 3.8
-6 3 4 140.01 12.73
-6 3 3 258.76 16.62
-6 3 2 26.38 5.63
6 -3 -2 44.32 5.77
-6 3 2 41.24 6.45
-6 3 1 20.06 3.51
6 -3 -1 23.59 5
-6 3 1 25.33 5.38
-6 3 1 25.54 4.56
6 -3 -1 25.94 4.13
-6 3 0 40.39 4.65
-6 3 0 59.58 8.16
6 -3 0 50.34 7.45
-6 3 0 44.32 5.88
6 -3 1 207.98 15.23
-6 3 -1 216.29 10.74
-6 3 -1 191.2 14.37
-6 3 -1 204.81 11.85
6 -3 2 1.28 1.49
-6 3 -2 2.7 1.91
-6 3 -2 2.9 1.12
6 -3 3 487.65 24.33
-6 3 -3 474.69 22.4
-6 3 -3 464.48 16.86
6 -3 4 138.54 12.9
-6 3 -4 152.21 8.96
-6 3 -5 0.3 2.44
6 -3 5 -0.73 1.46
-6 3 -5 1.13 0.99
6 -3 6 162.21 14.92
-6 3 -6 172.45 15.81
-6 3 -6 173.34 9.98
-6 3 -7 31.86 7.22
6 -3 7 36.41 7.53
-6 3 -8 19 6.02
6 -3 8 8.65 4.67
-6 3 -9 3.62 3.09
6 -3 9 6.75 3.33
-6 2 10 0.47 2.7
-6 2 9 2.72 2.8
-6 2 8 0.38 2.24
-6 2 7 15.36 5.12
-6 2 6 114.14 12.34
-6 2 5 26.9 5.63
-6 2 4 161.34 13.04
-6 2 3 68.44 8.98
-6 2 3 69.54 7.89
6 -2 -3 78.81 7.71
-6 2 2 -1.3 1.51
-6 2 2 0.24 0.71
-6 2 2 0.56 1.47
6 -2 -2 -0.06 0.82
-6 2 1 226.16 15.5
-6 2 1 242.98 12.43
-6 2 1 239.59 13.44
6 -2 -1 227.4 15.31
-6 2 0 22.66 3.56
6 -2 0 26.91 5.12
-6 2 0 22.31 4.89
-6 2 0 28.58 4.5
6 -2 1 158.28 12.79
-6 2 -1 188.16 13.16
-6 2 -1 196.83 10.58
-6 2 -1 173.15 10.45
6 -2 2 4.27 2.63
-6 2 -2 2.49 1.38
-6 2 -2 3.34 1.7
-6 2 -2 1.11 1.39
-6 2 -3 2.38 1.35
6 -2 3 2.65 1.49
6 -2 3 -0.05 1.37
-6 2 -3 2.25 1.13
-6 2 -3 1.15 1.22
6 -2 4 0.92 1.07
-6 2 -4 1.82 1.38
6 -2 4 2.31 2.24
-6 2 -5 2.5 1.83
6 -2 5 -1.29 0.98
-6 2 -5 0.84 1.06
6 -2 5 -0.68 1.12
6 -2 6 3.36 1.43
-6 2 -6 5.06 3.37
6 -2 6 2.16 1.8
-6 2 -7 31.93 7.1
6 -2 7 28.75 6.38
-6 2 -8 27.46 6.42
6 -2 8 29.35 6.86
6 -2 9 -1.31 3.59
-6 1 11 6.98 3.84
-6 1 10 0.44 1.71
-6 1 9 85.1 11.87
-6 1 8 26.72 6.55
-6 1 7 251.64 18.45
-6 1 6 446.5 23.7
-6 1 5 469.04 22.97
-6 1 4 46.66 7.53
-6 1 4 33.45 5.64
-6 1 3 283.2 17.9
-6 1 3 322.6 16.65
6 -1 -3 308.77 15.2
-6 1 2 177.17 13.68
-6 1 2 181.85 11.19
-6 1 2 179.65 11.81
-6 1 1 36.6 4.86
6 -1 -1 40.77 6.03
-6 1 1 46.48 6.69
-6 1 1 33.29 4.8
6 -1 0 72.69 8.04
-6 1 0 82.96 8.28
-6 1 0 88.45 7.31
-6 1 0 75.41 7
6 -1 1 19.06 3.54
6 -1 1 18.8 4.19
-6 1 -1 21.36 4.25
-6 1 -1 20.65 3.61
-6 1 -1 22.25 3.74
6 -1 2 75.42 8.35
6 -1 2 80.82 6.96
-6 1 -2 80.74 8.01
-6 1 -2 88.2 7.47
6 -1 3 5.42 1.78
-6 1 -3 6.29 2.2
6 -1 3 4.91 2.36
-6 1 -3 4.7 1.9
6 -1 4 44.45 5.08
-6 1 -4 29.13 5.69
6 -1 4 42.66 6.65
-6 1 -4 32.95 5.09
-6 1 -4 35.12 5.88
6 -1 5 214.71 15.76
6 -1 5 239.67 12.2
-6 1 -5 247.78 17.44
6 -1 6 180.34 15.05
6 -1 6 183.38 10.86
-6 1 -6 179.78 15.47
-6 1 -7 -0.19 2.44
6 -1 7 3.33 2.82
-6 0 11 4.36 2.9
-6 0 10 16.41 5.39
-6 0 9 16.53 5.31
-6 0 8 16.35 5
-6 0 7 14.96 4.34
-6 0 6 20.96 4.93
-6 0 5 69.08 9.49
-6 0 5 60.02 7.92
-6 0 4 576.96 26.43
-6 0 4 577.22 23.88
-6 0 3 440.02 21.6
-6 0 3 468.69 19.29
-6 0 3 431.19 19.03
-6 0 2 895.81 30.89
-6 0 2 967.72 28.12
-6 0 2 863.76 27.33
6 0 -1 12.09 2.99
6 0 -1 14.2 3.38
-6 0 1 15.83 3.32
-6 0 1 10.56 2.91
-6 0 1 14.73 3.27
6 0 0 37.51 5.48
6 0 0 37.64 5.09
-6 0 0 33.58 5.09
-6 0 0 26.12 4.37
-6 0 0 27.52 4.46
6 0 1 45.88 6.09
6 0 1 44.84 5.46
-6 0 -1 44.65 5.43
-6 0 -1 55.67 6.22
6 0 2 115.16 9.83
6 0 2 112.7 8.5
-6 0 -2 115.95 9.07
-6 0 -2 108.74 9.2
6 0 3 393.37 19.28
6 0 3 421.14 17.18
-6 0 -3 369.59 17.58
6 0 4 483.62 22.45
6 0 4 540.52 20.06
-6 0 -4 496.44 24.06
-6 0 -5 0.2 1.53
6 0 5 2.07 1.08
-6 0 -6 3.07 2.26
6 0 6 3.23 2.02
6 0 6 3.71 2.26
-6 -1 12 30.42 7.61
-6 -1 11 37.46 7.99
-6 -1 10 185.59 16.95
-6 -1 9 65.59 9.56
-6 -1 8 58.22 8.6
-6 -1 7 66.94 8.52
-6 -1 6 328.5 18.51
-6 -1 5 181.18 13.01
-6 -1 5 163.45 14.9
-6 -1 4 133.77 12.06
-6 -1 4 120.25 9.96
-6 -1 3 282.99 16.65
-6 -1 3 289.06 15.32
6 1 -2 146.92 10.1
-6 -1 2 128.04 9.88
-6 -1 2 131.53 10.08
6 1 -1 138.45 9.9
-6 -1 1 162.8 9.99
6 1 0 67.35 6.72
-6 -1 0 52.62 5.41
6 1 0 72.08 6.95
6 1 1 235.26 12.87
6 1 1 223.07 12.4
-6 -1 -1 202.41 10.85
-6 -1 -2 38.55 4.83
6 1 2 39.61 5.66
6 1 2 44.83 5.69
6 1 3 63.15 7.18
6 1 3 70.84 7.32
6 1 4 153.19 11.86
-6 -1 -4 165.63 13.34
-6 -1 -5 2.89 1.95
6 1 5 0.43 1.32
6 1 6 17.61 4.07
-6 -2 13 59.35 10.97
-6 -2 12 36.96 7.99
-6 -2 11 202.97 18.03
-6 -2 10 7 3.38
-6 -2 9 34.47 6.9
-6 -2 8 53.43 7.93
-6 -2 7 186.79 14.51
-6 -2 6 262.99 16.34
-6 -2 5 76.98 8.3
-6 -2 5 80.09 9.48
-6 -2 4 334.35 18.5
-6 -2 4 300.52 16.64
6 2 -3 10.75 2.94
-6 -2 3 12.48 3.32
-6 -2 3 11.35 2.99
6 2 -2 41.29 5.44
-6 -2 2 41.53 4.81
6 2 -1 306.5 15.09
-6 -2 1 315.44 12.24
6 2 0 227.94 13.18
-6 -2 0 215.29 9.51
6 2 1 3.36 1.31
6 2 1 6.72 2.38
6 2 2 0.46 0.78
6 2 2 1.01 1
-6 -2 -3 -0.37 1.83
6 2 3 2.91 1.04
6 2 4 56.38 7.31
-6 -2 -4 34.79 5.92
6 2 5 4.11 2.39
6 2 6 71.41 8.77
-6 -3 13 2.59 3.32
-6 -3 12 4.62 3.14
-6 -3 11 14.42 4.78
-6 -3 10 9.64 3.9
-6 -3 9 143.03 13.4
-6 -3 8 82.55 9.86
-6 -3 7 21.39 4.85
-6 -3 6 39.54 6.34
-6 -3 5 0.04 1.86
-6 -3 5 0.53 1.47
-6 -3 4 208.99 13.47
6 3 -4 168.35 11.56
-6 -3 4 179.12 12.83
-6 -3 3 1143.82 28.7
6 3 -3 1133.87 32.5
6 3 -2 59.4 6.93
-6 -3 2 51.83 4.14
6 3 -1 1317.92 35.14
-6 -3 1 1091.33 20.28
6 3 0 405.51 19.15
6 3 1 123.93 10.51
6 3 2 8.19 2.82
6 3 3 86.22 9.28
6 3 4 -0.25 1.45
6 3 5 1.38 1.29
-6 -4 13 146.28 15.94
-6 -4 12 72.69 10.77
-6 -4 11 5.68 3.3
-6 -4 10 11.63 4.46
-6 -4 9 50.81 7.99
-6 -4 8 30.29 5.92
-6 -4 7 410.81 21.37
-6 -4 6 97.51 9.95
-6 -4 6 90.14 9.78
6 4 -5 1014.98 31.78
-6 -4 5 1051.17 35.02
-6 -4 5 1041.63 33.65
-6 -4 4 857.8 25.06
6 4 -4 828.19 28.03
-6 -4 3 31.78 2.72
6 4 -3 36.92 5.56
6 4 -2 11.2 3.1
6 4 -1 1.53 1.11
6 4 0 103.94 9.97
6 4 1 121.75 11.17
6 4 2 0.08 1.08
6 4 3 69.51 8.92
6 4 4 33.91 6.48
-6 -5 13 57.14 9.8
-6 -5 12 30.02 7.46
-6 -5 12 29.92 6.68
-6 -5 11 23.76 6.12
-6 -5 11 16.64 4.98
-6 -5 10 70.25 9.79
-6 -5 10 53.32 8.29
-6 -5 9 1.94 2.39
-6 -5 8 28.49 5.96
-6 -5 7 27.09 5.67
-6 -5 6 23.58 4.13
6 5 -6 12.49 3.61
-6 -5 6 17.4 3.89
-6 -5 6 22.17 5.14
-6 -5 5 57.16 6.24
6 5 -5 56.23 7.15
-6 -5 5 56.51 5.16
-6 -5 5 54.14 7.76
-6 -5 4 22.1 1.94
-6 -5 4 27.86 2.03
6 5 -3 -0.32 1.11
6 5 -2 204.72 14.33
6 5 -1 26.22 5.24
6 5 0 241.6 16.3
6 5 1 2.39 1.4
6 5 2 0.47 2.27
-6 -6 12 164.36 17.21
-6 -6 12 133.26 14.37
-6 -6 11 170.29 16.43
-6 -6 11 143.71 14.24
-6 -6 10 10.58 4.08
-6 -6 10 7.56 3.34
-6 -6 9 23.37 5.44
-6 -6 9 22.05 5.07
-6 -6 8 212.3 14.47
-6 -6 8 195.91 15.53
6 6 -7 14.08 3.83
-6 -6 7 12.8 3.88
-6 -6 7 15.59 3.65
6 6 -6 2.73 2.29
-6 -6 6 4.44 1.5
-6 -6 6 7.4 3.12
6 6 -5 3.78 2.83
6 6 -4 0.48 1.51
6 6 -3 47.18 7.01
6 6 -2 315.19 19.02
6 6 -1 1.48 1.38
6 6 0 16.96 4.56
6 6 1 2.93 2.18
-6 -7 12 6.64 2.82
-6 -7 12 11.52 4.94
-6 -7 11 39.36 7.65
-6 -7 11 38.71 7.63
-6 -7 10 191.45 15.6
-6 -7 10 161.25 14.86
-6 -7 9 5.6 3.43
-6 -7 9 6.85 2.81
6 7 -8 25.3 5.37
-6 -7 8 23.83 5.54
6 7 -7 70.26 8.68
-6 -7 7 82.75 10.6
6 7 -6 10.02 3.09
6 7 -5 -0.07 1.37
6 7 -4 64.31 8.58
6 7 -3 6.98 2.99
6 7 -2 52.58 8
6 7 -1 34.23 6.6
-6 -8 11 27.5 6.47
-6 -8 10 188.9 16.37
-6 -8 9 17.08 5
6 8 -8 24.06 5.41
-6 -8 8 28.13 6.57
6 8 -7 27.58 5.72
-6 -8 7 35.32 7.26
6 8 -6 26.16 5.5
6 8 -5 33.18 6.46
6 8 -4 70.5 9.5
-6 -9 11 0.37 1.53
-6 -9 10 26.67 6.24
6 9 -9 42.03 7.3
-6 -9 9 36.98 7.42
6 9 -8 5.14 2.87
-6 -9 8 0.67 2.03
6 9 -7 7.41 3.44
-7 12 -2 2.7 2.8
-7 12 -3 3.74 3.46
-7 12 -4 -1.08 3.44
-7 12 -5 105.5 14.1
-7 11 0 0.8 1.41
-7 11 -1 2.51 3.16
7 -11 1 -1.46 3.05
-7 11 -1 4.12 2.8
-7 11 -2 5.33 2.39
-7 11 -2 4.53 3.11
7 -11 2 3.4 3.6
-7 11 -3 58.44 8.7
-7 11 -3 66.98 10.2
7 -11 3 58.03 11.74
-7 11 -4 62.92 10.22
7 -11 4 70.8 13.06
-7 11 -5 2.12 2.77
7 -11 5 -0.68 2.44
-7 11 -6 21.55 6.3
-7 10 2 12.56 4.69
-7 10 1 31.96 7.55
-7 10 1 33.6 6.33
-7 10 1 39.57 7.96
-7 10 0 5.83 2.92
-7 10 0 2.6 2.58
-7 10 0 0.7 2.3
-7 10 -1 -1.89 1.25
7 -10 1 -4.2 3.38
-7 10 -1 0.07 1.76
-7 10 -1 -0.24 2.06
-7 10 -2 1.17 2.37
7 -10 2 -1.74 2.52
-7 10 -2 4.63 2.61
-7 10 -2 -0.55 2.02
-7 10 -3 41.03 6.91
-7 10 -3 45.18 8.75
7 -10 3 52.8 10.9
-7 10 -3 36.16 6.04
-7 10 -4 38.82 8.28
7 -10 4 48.63 10.42
-7 10 -5 26.26 6.69
7 -10 5 18.4 6.74
-7 10 -6 0.67 2.16
7 -10 6 2.06 3.41
-7 10 -7 22.26 6.68
-7 9 3 8.01 3.87
-7 9 2 28.28 6.69
-7 9 1 43.23 8.08
7 -9 0 56.8 10.88
-7 9 0 47.89 7.96
7 -9 1 9.44 4.65
-7 9 -1 9.55 3.29
-7 9 -2 13.36 3.92
7 -9 2 13.36 5.61
-7 9 -2 8.26 2.99
7 -9 3 129.46 16.5
-7 9 -3 129.68 14.27
-7 9 -3 126.61 10.77
-7 9 -4 85.36 12.1
7 -9 4 71.86 12.41
-7 9 -5 0.6 2.57
7 -9 5 -5.05 3.57
-7 9 -6 55.3 10.18
7 -9 6 61.56 11.63
-7 9 -7 55.07 10.59
7 -9 7 32.56 8.36
-7 8 4 24.97 6.91
-7 8 3 2.5 2.45
-7 8 2 35.19 7.52
-7 8 1 4.62 2.77
7 -8 0 78.62 12.36
-7 8 0 90.25 10.51
7 -8 1 28.31 7.13
-7 8 -1 13.72 3.99
7 -8 2 32.95 8.11
-7 8 -2 30.32 5.47
7 -8 3 134.61 16.14
-7 8 -3 124.09 13.9
-7 8 -3 104.27 9.33
-7 8 -4 96.83 12.44
-7 8 -4 78.68 7.36
7 -8 4 77.03 12.58
7 -8 5 119.5 15.5
-7 8 -5 93.71 12.63
7 -8 6 107.9 15.23
-7 8 -6 98.53 13.65
-7 8 -7 61.89 11.16
7 -8 7 53.87 10.65
-7 8 -8 9.27 3.85
7 -8 8 4.63 3.9
-7 7 5 129.49 15.61
-7 7 4 39 8.07
-7 7 3 119.95 13.63
-7 7 2 148.57 14.63
-7 7 1 158.31 14.25
7 -7 -1 139.64 15.94
7 -7 0 2.12 1.6
-7 7 0 2.09 2.48
7 -7 1 11.39 4.61
-7 7 -1 4.94 2
-7 7 -2 505.49 22.11
7 -7 2 484.71 19.46
-7 7 -3 19.45 3.29
7 -7 3 29.85 7.48
-7 7 -3 26.07 4.42
7 -7 4 488.04 30.48
-7 7 -4 475.28 27.94
-7 7 -4 484.58 18.56
7 -7 5 190.54 18.97
-7 7 -5 212.83 18.91
-7 7 -6 38.92 8.48
7 -7 6 28.12 7.22
-7 7 -7 72.15 12.18
7 -7 7 55.42 10.8
-7 7 -8 78.61 12.68
7 -7 8 92.78 14.24
-7 6 6 1.33 2.92
-7 6 5 65.83 11.14
-7 6 4 382.81 25.19
-7 6 3 8.52 4.11
-7 6 2 145.99 13.86
-7 6 1 679.03 29.39
7 -6 -1 671.92 34.32
7 -6 0 23.22 6.22
-7 6 0 18.32 4.25
7 -6 1 659.56 33.51
-7 6 -1 623.95 25.39
7 -6 1 634.12 23.12
-7 6 -2 1.23 0.81
7 -6 2 1.05 2.3
-7 6 -2 2.19 1.15
7 -6 3 106.13 13.21
-7 6 -3 91.22 7.03
-7 6 -3 127.1 9.68
7 -6 4 93.17 12.77
-7 6 -4 97.39 12.35
-7 6 -4 78.53 7.02
-7 6 -5 2.91 2.94
7 -6 5 6.03 3.8
-7 6 -5 3.05 1.3
-7 6 -6 0.81 2.37
7 -6 6 -0.61 2.69
-7 6 -7 3.04 3.35
7 -6 7 1.25 2.24
-7 6 -8 9.74 4.31
7 -6 8 11.61 5.03
-7 5 7 0.32 1.57
-7 5 6 159.52 17.04
-7 5 5 -4.32 2.96
-7 5 4 7.96 3.93
-7 5 3 63.76 9.44
-7 5 2 267.18 18.43
-7 5 1 236.66 16.34
7 -5 -1 257.42 19.83
7 -5 0 390.72 24.53
-7 5 0 415.03 20.72
7 -5 0 392.49 18.28
-7 5 -1 29.89 3.95
7 -5 1 28.6 6.6
-7 5 -1 32.45 5.7
7 -5 2 269.56 20.29
-7 5 -2 263.14 12.37
-7 5 -2 251.96 14.5
-7 5 -3 69.1 6.12
-7 5 -3 72.82 7.28
7 -5 3 75.74 10.85
7 -5 4 142.22 15.09
-7 5 -4 147.72 9.59
-7 5 -5 56.44 9.54
-7 5 -5 62.29 5.83
7 -5 5 56.53 9.59
-7 5 -6 20.91 6.03
7 -5 6 23.83 6.28
-7 5 -7 12.33 4.6
7 -5 7 18.61 6.03
-7 5 -8 16.34 5.82
7 -5 8 1.23 2.46
-7 4 8 2.45 3.84
-7 4 7 1.82 1.72
-7 4 6 85.32 11.97
-7 4 5 6.81 3.08
-7 4 4 225.04 17.75
-7 4 3 29.19 5.92
-7 4 2 191.08 14.92
-7 4 1 111.76 10.73
7 -4 -1 105.06 12.09
7 -4 0 407.38 23.92
-7 4 0 427.34 20
-7 4 -1 2.11 1.2
7 -4 1 0.73 2.21
-7 4 -1 2.18 1.44
-7 4 -2 2.66 1.23
7 -4 2 2.21 1.04
-7 4 -2 4.19 1.12
-7 4 -3 2.05 1.06
-7 4 -3 4.56 1.94
-7 4 -4 44.3 4.86
-7 4 -4 41.96 5.13
7 -4 4 52.94 9.1
-7 4 -5 43.62 8.25
-7 4 -5 37.25 4.99
7 -4 5 48.2 8.54
-7 4 -6 0.83 3.24
7 -4 6 1.5 2.69
-7 4 -7 3.55 2.67
7 -4 7 0.08 2.11
-7 4 -8 91 13.16
7 -4 8 104.59 13.98
-7 3 9 161.75 17.96
-7 3 8 1.71 1.78
-7 3 7 -2.51 3.26
-7 3 6 89.93 12.06
-7 3 5 12.16 4.4
-7 3 4 131.42 12.95
-7 3 3 -0.1 1.57
-7 3 2 2.97 1.6
-7 3 1 198.65 13.96
7 -3 -1 216.98 16.77
7 -3 0 183.44 15.11
-7 3 0 159 10.27
-7 3 0 162.48 12.08
7 -3 1 78.81 9.93
-7 3 -1 82.23 7.31
-7 3 -1 95.73 8.67
7 -3 2 22.47 5.62
-7 3 -2 26.34 3.99
-7 3 -2 29.31 4.7
7 -3 3 138.75 13.59
-7 3 -3 131.77 9.14
-7 3 -3 149.44 10.19
-7 3 -4 1.42 1.17
-7 3 -4 0.06 0.68
-7 3 -5 -0.16 1.69
7 -3 5 2.36 2.11
-7 3 -5 -0.45 0.81
-7 3 -6 2.11 2.8
7 -3 6 1.18 2.99
-7 3 -7 22.52 6.45
7 -3 7 26.65 6.79
-7 3 -8 -7.76 3.98
7 -3 8 -1.24 1.9
-7 2 10 21.95 6.61
-7 2 9 11.68 4.91
-7 2 8 165.03 17.11
-7 2 7 8.74 3.04
-7 2 6 3.08 1.56
-7 2 5 39.23 7.21
-7 2 4 16.2 4.78
-7 2 3 19.5 4.76
-7 2 2 104.52 11.39
-7 2 2 103.86 10.09
-7 2 1 86.62 10.27
-7 2 1 79.42 8.2
7 -2 -1 81.38 9.87
7 -2 0 4.7 2.44
-7 2 0 4.39 1.84
-7 2 0 3.36 1.84
-7 2 0 1.86 1.34
7 -2 1 71.32 9.08
-7 2 -1 64.63 8.17
-7 2 -1 67.76 6.78
-7 2 -1 74.29 7.44
7 -2 2 79.31 9.73
-7 2 -2 66.78 8.2
-7 2 -2 69.51 6.91
-7 2 -2 58.22 6.59
7 -2 3 599.84 28.07
-7 2 -3 602.09 22.09
-7 2 -3 674.44 23.52
7 -2 4 163.71 14.47
-7 2 -4 163.81 11.31
7 -2 5 440.75 17.99
7 -2 5 406.65 24.04
-7 2 -5 447.58 25.82
-7 2 -6 12.06 4.66
7 -2 6 10.79 4.23
-7 2 -7 32.13 7.58
7 -2 7 23.62 6.35
-7 1 10 41.42 9.08
-7 1 9 4.2 3.16
-7 1 8 76.89 11.13
-7 1 7 2.37 2.77
-7 1 6 82.65 10.33
-7 1 5 38.28 6.7
-7 1 4 68.57 8.48
-7 1 3 198.31 15.99
-7 1 3 200.9 14.15
-7 1 2 293.85 18.88
-7 1 2 316.66 17.36
-7 1 1 614.19 26.14
-7 1 1 575.61 23.01
7 -1 -1 633.81 26.58
7 -1 0 0.59 1.1
-7 1 0 0.89 1.25
-7 1 0 0.46 1.3
7 -1 1 136.11 12.02
-7 1 -1 123.64 10.48
-7 1 -1 134.87 10.37
7 -1 2 123.35 11.62
7 -1 2 143.44 10.29
-7 1 -2 104.69 9.77
-7 1 -2 138.78 10.6
7 -1 3 0.54 1.49
7 -1 3 -0.17 0.99
-7 1 -3 2.64 1.99
7 -1 4 86.9 10.21
7 -1 4 94.64 8.17
-7 1 -4 75.17 10.16
7 -1 5 60.74 6.59
-7 1 -5 53.88 8.69
7 -1 5 57.36 8.46
-7 1 -6 2.86 2.43
7 -1 6 4.32 2.33
-7 0 11 17.86 6.34
-7 0 10 8.89 4.58
-7 0 9 9.96 3.88
-7 0 8 7.57 3.59
-7 0 7 166 15.1
-7 0 6 101.52 11.01
-7 0 5 103.15 10.6
-7 0 4 460.5 25.22
-7 0 4 514.69 23.35
-7 0 3 914.97 34.81
-7 0 3 907.83 30.87
-7 0 2 219.07 15.33
-7 0 2 241.56 14.6
-7 0 1 299.96 16.64
-7 0 1 330.14 16.98
7 0 -1 321.79 17.48
7 0 0 196.84 12.66
-7 0 0 156.08 11.23
-7 0 0 203.84 13.35
7 0 0 198.71 13.63
7 0 1 406.08 19.95
7 0 1 413.23 18.4
-7 0 -1 402.44 18.1
7 0 2 36.66 5.23
7 0 2 49.37 6.89
-7 0 -2 43.76 5.87
7 0 3 0.65 1.41
7 0 3 -0.48 1.85
7 0 4 0.89 1.14
-7 0 -4 -0.31 1.35
7 0 4 3.98 2.11
7 0 5 8.84 2.57
-7 0 -5 11.12 4.27
-7 -1 11 48.27 9.68
-7 -1 10 -1.43 2.42
-7 -1 9 44.06 8.19
-7 -1 8 30.75 6.76
-7 -1 7 -0.32 1.28
-7 -1 6 44.7 7.21
-7 -1 5 0.93 1.88
-7 -1 5 3.95 2.57
-7 -1 4 164.25 14.37
-7 -1 4 162.65 12.62
-7 -1 3 -0.35 1.26
-7 -1 3 0.47 1.69
7 1 -2 79.96 8.11
-7 -1 2 66.14 7.47
-7 -1 2 83.31 8.81
7 1 -1 398.85 18.55
-7 -1 1 388.84 17.08
-7 -1 1 449.61 20.91
7 1 0 133.43 10.32
-7 -1 0 117.39 8.69
7 1 0 144.09 10.66
7 1 1 180.84 11.94
7 1 1 171.77 12.03
-7 -1 -1 168.87 10.49
7 1 2 61.54 7.24
7 1 2 64.27 7.28
7 1 3 24.82 4.66
-7 -1 -4 2.87 2.54
7 1 4 -1.21 1.74
7 1 5 62.85 7.75
-7 -2 12 59.73 10.47
-7 -2 11 21.41 6.29
-7 -2 10 56.66 9.74
-7 -2 9 137.73 14.41
-7 -2 8 55.3 8.59
-7 -2 7 356.72 21.54
-7 -2 6 59.1 8.15
-7 -2 5 175.74 15.22
-7 -2 5 191.62 14.35
-7 -2 4 163.21 13.65
-7 -2 4 152.28 12.56
7 2 -3 45.74 6.28
-7 -2 3 43.35 6.13
-7 -2 3 35.96 6.22
7 2 -2 181.6 12.38
-7 -2 2 152.5 9.85
-7 -2 2 157.15 12.8
7 2 -1 17.12 3.76
-7 -2 1 18.19 3.07
7 2 0 -0.55 1.3
-7 -2 0 1.95 1.33
7 2 1 2.92 1.56
7 2 2 40.38 6.13
-7 -2 -3 2.47 1.2
7 2 3 -0.21 1.5
7 2 4 9 3.15
7 2 5 1.71 1.77
-7 -3 12 1.44 1.75
-7 -3 11 2.92 3.39
-7 -3 10 41.82 8.06
-7 -3 9 6.96 3.63
-7 -3 8 148.61 14.04
-7 -3 7 1.49 1.52
-7 -3 6 342.48 20
-7 -3 6 301.12 20.3
-7 -3 5 13.92 4.29
-7 -3 5 15.35 4.22
7 3 -4 463.93 21.39
-7 -3 4 503.58 21.79
-7 -3 4 459.41 23.12
-7 -3 3 47.09 5.25
7 3 -3 38.05 5.94
-7 -3 3 48.17 7.36
7 3 -2 117.92 10.36
-7 -3 2 96.91 5.94
7 3 -1 3.66 2.13
7 3 0 14.87 3.66
7 3 1 11.35 3.2
7 3 2 9.84 3.4
7 3 3 8.91 3.24
7 3 4 157.02 13.87
-7 -4 12 2.58 3.14
-7 -4 11 0.84 2.27
-7 -4 10 17.89 5.38
-7 -4 9 4.79 2.32
-7 -4 8 276.03 19.32
-7 -4 7 360.23 21.53
-7 -4 6 10.87 3.86
-7 -4 6 9.81 3.44
7 4 -5 361.1 19.28
-7 -4 5 372.73 21.32
7 4 -4 242.81 15.55
-7 -4 4 277.62 18.27
7 4 -3 22.36 4.7
7 4 -2 5.31 2.49
7 4 -1 7.32 3.17
7 4 0 0.93 1.71
7 4 1 2.88 2.08
7 4 2 88.02 10.24
-7 -5 12 6.18 3.35
-7 -5 12 7.22 4.05
-7 -5 11 -0.86 2.39
-7 -5 11 2.96 2.07
-7 -5 10 -0.03 1.85
-7 -5 9 196.03 16.99
-7 -5 8 279.51 19.52
-7 -5 7 8.11 3.47
7 5 -6 135.74 12.17
-7 -5 6 118.8 8.88
-7 -5 6 127.67 12.99
7 5 -5 7.22 3.21
-7 -5 5 4.04 2.61
7 5 -4 62.29 8.22
7 5 -3 76.74 9.16
7 5 -2 4.39 2.04
7 5 -1 14.39 4.1
7 5 0 -5.41 2.67
7 5 1 11.81 4.39
-7 -6 12 -2.22 2.35
-7 -6 12 -2.18 3.52
-7 -6 11 5.15 3
-7 -6 11 9.61 4.31
-7 -6 10 2.23 1.46
-7 -6 10 1.09 1.79
-7 -6 9 91.24 10.26
-7 -6 9 85.48 11.21
-7 -6 8 29.94 6.58
7 6 -7 34.66 6.39
-7 -6 7 33.98 6.86
7 6 -6 19.96 4.92
-7 -6 6 14.46 4.86
7 6 -5 2.43 2
-7 -6 5 0.95 2.2
7 6 -4 0.3 1.34
7 6 -3 264.15 17.91
7 6 -2 68.68 9.35
7 6 -1 127.93 12.91
-7 -7 12 0.45 2.67
-7 -7 11 15.15 5.49
-7 -7 10 2.15 1.48
-7 -7 9 38.94 7.95
7 7 -8 -6.27 2.97
-7 -7 8 1.73 1.94
7 7 -7 5.76 3.09
-7 -7 7 4.11 2.78
7 7 -6 124.63 12.45
-7 -7 6 162.1 15.83
7 7 -5 21.35 5.28
7 7 -4 1.57 1.81
-7 -8 10 7.1 3.7
-7 -8 9 6.17 2.99
-7 -8 8 82.24 11.74
-7 -8 7 77.11 11.51
-8 12 -3 130.39 15.43
-8 11 0 1.45 1.62
-8 11 0 0.61 1.85
-8 11 -1 28.57 6.92
-8 11 -1 20.15 6.01
-8 11 -2 19.84 5.6
-8 11 -2 26.35 6.81
-8 11 -3 11.25 4.54
-8 11 -4 -3.41 2.93
-8 10 1 11.75 4.57
-8 10 0 0.23 1.62
-8 10 -1 3.27 1.87
8 -10 1 6.45 3.82
-8 10 -1 0.72 1.34
-8 10 -2 -11.73 4.68
8 -10 2 -5.92 3.95
-8 10 -3 6.31 2.41
8 -10 3 21.05 7.56
-8 10 -4 3.05 3.11
8 -10 4 2.14 2.04
-8 10 -5 69.48 11.91
-8 9 3 74.61 11.81
-8 9 2 281.77 22.15
-8 9 1 10.53 4.32
-8 9 0 299.34 20.91
8 -9 0 347.6 28.14
8 -9 1 78.95 13.22
-8 9 -1 54.94 8.38
8 -9 2 4.68 3.18
-8 9 -2 8.74 3.29
-8 9 -3 27.4 7.38
8 -9 3 17.38 6.18
-8 9 -4 27.31 7.27
8 -9 4 20.83 6.98
-8 9 -5 28.3 8.05
8 -9 5 26.55 7.58
-8 9 -6 32.19 8.44
8 -9 6 42.99 10.62
-8 8 4 11.34 5.37
-8 8 3 79.31 11.94
-8 8 2 10.84 5.74
-8 8 1 7.31 3.69
8 -8 0 31.46 7.94
-8 8 0 30.01 6.36
8 -8 1 5.24 3.68
-8 8 -1 0.01 1.22
8 -8 2 11.09 5.61
-8 8 -2 23.79 5.02
8 -8 3 255.9 23.3
-8 8 -3 262.64 16.15
-8 8 -4 20.79 6.26
8 -8 4 35.71 8.74
8 -8 5 321.65 26.83
-8 8 -5 304.82 24.61
-8 8 -6 66.65 11.85
8 -8 6 74.5 13.08
-8 7 5 266.38 23.27
-8 7 4 92.38 12.93
-8 7 3 45.58 8.81
-8 7 2 0.7 1.37
-8 7 1 34.93 6.88
8 -7 0 91.95 13.49
-8 7 0 97.61 11.18
8 -7 1 166.96 18
-8 7 -1 186.08 14.54
8 -7 2 0.98 2.4
-8 7 -2 2.1 1.67
8 -7 3 111.03 14.82
-8 7 -3 112.99 10.11
-8 7 -4 -0.02 2.25
8 -7 4 -1.07 2.31
-8 7 -5 8.45 4.37
8 -7 5 19.8 6.59
-8 7 -6 2.4 3.16
8 -7 6 4.77 3.7
8 -7 7 4.65 2.6
-8 6 6 -1.4 3.22
-8 6 5 62.55 11.1
-8 6 4 246.62 20.91
-8 6 3 1.85 2.22
-8 6 2 207.06 17.5
8 -6 -1 12.07 5.07
-8 6 1 7.68 3.58
-8 6 0 206.78 15.83
8 -6 0 198.71 18.89
8 -6 1 69.45 11.16
-8 6 -1 53.99 7.67
8 -6 2 78.43 12.16
-8 6 -2 66.98 7.97
8 -6 3 44.86 9.36
-8 6 -3 50.49 6.61
8 -6 4 275.14 23.01
-8 6 -4 227.4 20.05
-8 6 -4 259.87 14.52
8 -6 5 135.19 16.29
-8 6 -5 131.06 15.55
-8 6 -6 107.9 14.76
8 -6 6 106.02 14.65
-8 6 -7 36.05 8.61
8 -6 7 29.31 8
-8 5 7 27.81 7.4
-8 5 6 126.57 15.7
-8 5 5 265.1 22.02
-8 5 4 0.11 2.11
-8 5 3 137.51 14.39
-8 5 2 40.24 7.34
-8 5 1 434.66 23.75
8 -5 -1 488.03 29.15
-8 5 0 122.74 11.92
8 -5 0 124.34 14.34
8 -5 1 28.2 6.73
-8 5 -1 38.62 6.33
8 -5 2 -0.13 2.33
-8 5 -2 -1.52 1.36
8 -5 3 3.18 2.77
-8 5 -3 0.45 0.73
-8 5 -4 52.94 6.43
8 -5 4 72.25 11.36
-8 5 -5 49.11 9.45
8 -5 5 46.35 9.38
-8 5 -6 9.62 4.31
8 -5 6 4.2 3.43
-8 5 -7 13.07 5.36
8 -5 7 15.15 5.72
-8 4 7 28.64 7.43
-8 4 6 4.57 3.12
-8 4 5 142.48 15.38
-8 4 4 49.65 9.02
-8 4 3 335.84 21.89
-8 4 2 178.36 15.11
8 -4 -1 6.88 3.27
-8 4 1 7.33 2.7
8 -4 0 57.8 9.54
-8 4 0 66.93 8.3
8 -4 1 95.89 12.2
-8 4 -1 105.84 10.03
8 -4 2 4.42 2.73
-8 4 -2 5.7 2.17
8 -4 3 1.61 2.28
-8 4 -3 4.13 2.34
8 -4 4 0.82 1.48
-8 4 -4 3.54 2.03
-8 4 -5 70.72 11.27
8 -4 5 65.16 10.57
-8 4 -6 11.94 5.31
8 -4 6 13.05 4.84
-8 4 -7 -11.53 4.87
8 -4 7 -0.18 2.08
-8 3 8 7.13 4.44
-8 3 7 16.47 5.47
-8 3 6 0.96 2.39
-8 3 5 4.35 2.83
-8 3 4 -4 2.59
-8 3 3 37.51 7.01
-8 3 2 59.75 8.37
8 -3 -1 31.95 6.63
-8 3 1 32.18 5.78
-8 3 0 119.21 11.05
8 -3 0 108.96 12.41
8 -3 1 0.68 2.02
-8 3 -1 1.58 1.91
8 -3 2 14.47 4.68
-8 3 -2 13.92 3.72
8 -3 3 14.88 4.94
-8 3 -3 15.79 3.63
8 -3 4 -1.04 2.35
-8 3 -4 3.1 1.97
-8 3 -5 2.01 2.25
8 -3 5 -0.43 2.04
-8 3 -6 3.15 2.9
8 -3 6 -0.83 2.27
-8 3 -7 22.21 6.26
8 -3 7 31.96 7.98
-8 2 9 28.2 7.77
-8 2 8 12.27 4.96
-8 2 7 199.12 18.46
-8 2 6 6.41 3.22
-8 2 5 79.76 10.83
-8 2 4 134.41 13.14
-8 2 3 141.77 12.91
-8 2 2 121.44 11.54
-8 2 1 88.41 9.67
8 -2 -1 73.53 9.93
-8 2 0 610.21 25
8 -2 0 624.43 29.39
8 -2 1 631.77 29.61
-8 2 -1 592.03 24.38
8 -2 2 3.58 3.24
-8 2 -2 1.93 1.52
8 -2 3 67.44 9.72
-8 2 -3 76.24 8.22
8 -2 4 97.8 12.02
-8 2 -4 106.14 9.86
-8 2 -5 16.52 5.48
8 -2 5 10.41 4.28
-8 2 -5 13.69 3.57
-8 2 -6 1.5 1.91
-8 1 9 110.91 14.39
-8 1 8 66.25 10.99
-8 1 7 69.08 10.87
-8 1 6 123.31 13.46
-8 1 5 30.48 6.48
-8 1 4 0.79 1.98
-8 1 3 245.42 17.06
-8 1 2 70.73 8.8
8 -1 -1 40.5 6.92
-8 1 1 52.55 7.34
-8 1 1 54.77 8.1
8 -1 0 42.58 6.9
-8 1 0 40.27 6.56
-8 1 0 43.97 6.51
8 -1 1 21.81 5.14
-8 1 -1 22.59 4.73
8 -1 2 55.2 8.21
-8 1 -2 60.19 7.63
8 -1 3 36.96 5.94
8 -1 3 38.63 7.02
-8 1 -3 43.35 6.6
8 -1 4 86.81 8.58
8 -1 4 77.31 10.21
-8 1 -4 85.25 11.48
-8 1 -4 68.37 8.5
-8 1 -5 87.37 12.06
-8 0 10 94.32 13.58
-8 0 9 1.73 2.1
-8 0 8 3.17 2.89
-8 0 7 28.67 6.41
-8 0 6 0.84 2.61
-8 0 5 270.9 18.56
-8 0 4 353.61 20.88
-8 0 3 412.7 24.29
-8 0 3 440.7 22.62
-8 0 2 544.11 25.86
-8 0 2 583.01 25.52
-8 0 1 34.41 5.83
-8 0 1 32.41 5.8
8 0 0 93.61 9.37
-8 0 0 62.57 7.52
-8 0 0 80.98 9.21
8 0 0 85.04 9.44
8 0 1 14.77 3.83
8 0 1 15.37 3.94
-8 0 -1 16.81 4.23
8 0 2 39.29 5.99
8 0 2 36.2 6.28
8 0 3 114.38 10.11
8 0 4 6.63 2.66
-8 0 -4 15.07 4.89
-8 -1 10 10.05 4.66
-8 -1 9 19.38 5.96
-8 -1 8 -1.18 2.06
-8 -1 7 126.86 13.86
-8 -1 6 107.8 11.97
-8 -1 5 50.68 8.32
-8 -1 4 0.63 2.01
-8 -1 4 3.59 2.41
-8 -1 3 51.31 7.7
-8 -1 3 40.6 6.73
-8 -1 2 135.27 11.26
-8 -1 2 147.64 12.85
8 1 -1 5 2.48
-8 -1 1 2.44 1.24
8 1 0 9.57 3.22
-8 -1 0 11.42 3.91
8 1 1 17.41 3.99
8 1 2 -0.4 1.09
8 1 3 2.68 1.93
8 1 4 38.66 6.61
-8 -2 11 49.14 9.7
-8 -2 10 8.94 4.64
-8 -2 9 -2.12 2.63
-8 -2 8 34.42 7.51
-8 -2 7 4.36 2.43
-8 -2 6 499.72 26.13
-8 -2 5 469.59 27.21
-8 -2 5 520.77 26.08
-8 -2 4 0.82 1.95
-8 -2 4 1.2 1.56
8 2 -3 5.06 2.33
-8 -2 3 4.56 2.92
8 2 -2 189.15 13.94
-8 -2 2 186.83 15.07
8 2 -1 179.42 13.42
-8 -2 1 194.15 15.76
8 2 0 23.53 5.14
8 2 1 60.23 7.88
8 2 2 15.14 4.04
8 2 3 60.19 8.35
8 2 4 10.99 3.52
-8 -3 11 22.3 6.6
-8 -3 10 -2.1 3.9
-8 -3 9 275 21.59
-8 -3 8 273.58 20.54
-8 -3 7 160.86 15.16
-8 -3 6 271.63 19.34
-8 -3 5 27.08 6.21
8 3 -4 40.24 6.88
-8 -3 4 38.03 6.87
8 3 -3 112.13 11.15
-8 -3 3 117.06 12.36
8 3 -2 0.95 1.02
-8 -3 2 -0.64 1.75
8 3 -1 37.72 6.42
8 3 0 1.97 1.84
8 3 1 -0.66 2.07
8 3 2 15.26 4.22
-8 -4 11 77.99 12.16
-8 -4 10 412.85 27.31
-8 -4 9 10.51 4.19
-8 -4 8 97.51 12.18
-8 -4 7 8.76 3.75
-8 -4 6 2.37 1.94
8 4 -5 268.02 18
-8 -4 5 295.21 20.42
8 4 -4 61.1 8.48
-8 -4 4 71.26 10.14
8 4 -3 6.57 2.61
-8 -4 3 6.91 3.62
8 4 -2 1.36 1.63
8 4 -1 -0.92 1.65
8 4 0 8.2 3.34
-8 -5 10 9.15 4.34
-8 -5 9 32.27 7.24
-8 -5 8 1.8 1.82
-8 -5 7 108.33 12.86
8 5 -6 5.02 3.01
-8 -5 6 5.89 3.82
8 5 -5 62.21 8.77
-8 -5 5 59.81 9.29
8 5 -4 19.21 4.85
-8 -5 4 25.68 6.54
8 5 -3 26.59 5.75
8 5 -2 -4.71 2.53
-8 -6 9 1.15 2.3
-8 -6 8 0.6 2.27
-8 -6 7 14.39 4.7
8 6 -6 -1.05 2.24
-8 -6 6 0.17 1.93
8 6 -5 8.26 3.56
-8 -6 5 2.87 2.75
-9 11 -1 -2.1 3.19
-9 10 1 1.67 2.55
-9 10 0 -1.32 2.46
-9 10 -2 1.83 2.18
-9 10 -3 19.75 6.35
-9 9 2 21.48 6.49
-9 9 1 22.82 6.17
9 -9 0 13.11 6.56
-9 9 0 5.7 3.08
9 -9 1 73.81 13.76
-9 9 -1 65.56 9.53
9 -9 2 54.24 11.36
-9 9 -3 54.04 10.25
9 -9 3 50.69 11.35
-9 8 3 109.88 14.78
-9 8 2 7.62 3.81
-9 8 1 54.74 9.33
9 -8 0 10.21 4.83
-9 8 0 2.12 1.93
9 -8 1 55.07 11.21
-9 8 -1 28.2 6.32
9 -8 2 98.02 14.78
-9 8 -2 77.86 9.82
9 -8 3 17.38 6.64
-9 8 -4 3.17 2.92
9 -8 4 -0.18 1.65
9 -8 5 1.36 1.76
-9 7 4 84.27 13.11
-9 7 3 26.52 7.08
-9 7 2 -0.03 1.89
-9 7 1 61.33 9.65
9 -7 0 8.25 4.27
-9 7 0 11.02 4.36
9 -7 1 24.92 7.94
-9 7 -1 25.92 5.72
9 -7 2 88.65 14.07
-9 7 -2 77.26 9.44
9 -7 3 20.04 7.15
-9 7 -4 103.32 14.41
9 -7 4 87.37 14.37
-9 7 -5 29.06 8.03
9 -7 5 32.86 8.79
-9 6 5 183.39 19.45
-9 6 4 26.9 7.4
-9 6 3 367.62 25.55
-9 6 2 143.89 15.18
9 -6 -1 2.05 2.96
-9 6 1 -0.1 1.65
9 -6 0 64.11 11.34
-9 6 0 42.49 7.53
9 -6 1 88.77 13.24
-9 6 -1 75.24 9.74
9 -6 2 144.72 17.12
-9 6 -2 150.65 13.06
9 -6 3 -2.05 2.61
-9 6 -3 3.39 1.93
-9 6 -4 1.64 2.2
9 -6 4 -0.48 1.96
-9 6 -5 20.26 6.54
9 -6 5 19.26 6.35
9 -6 6 1.7 3.14
-9 5 6 67.77 12.1
-9 5 5 55.07 10.11
-9 5 4 170.69 17.56
-9 5 3 2.68 2.99
-9 5 2 55.01 9.26
-9 5 1 79.56 10.63
9 -5 -1 114.72 14.79
-9 5 0 118.78 12.61
9 -5 0 129.28 15.64
9 -5 1 14.2 5.27
-9 5 -1 9.66 3.27
9 -5 2 44.77 9.44
-9 5 -2 46.89 7.15
9 -5 3 14.78 5.58
-9 5 -3 14.93 3.84
9 -5 4 18.28 6.58
-9 5 -5 37.05 8.83
9 -5 5 22.32 6.72
9 -5 6 63.59 11.71
-9 4 7 16.34 6.35
-9 4 6 230.85 21.29
-9 4 5 0.02 2.07
-9 4 4 92.93 12.64
-9 4 3 -0.33 1.71
-9 4 2 -0.76 1.99
9 -4 -1 24.86 6.45
-9 4 1 26.03 6.06
9 -4 0 44.26 8.99
-9 4 0 45.84 7.45
9 -4 1 62.24 10.4
-9 4 -1 47.24 7.43
9 -4 2 122.87 14.68
-9 4 -2 119.57 11.25
9 -4 3 21.61 6.26
-9 4 -3 30.82 5.83
9 -4 4 20.97 6.58
-9 4 -5 1.05 2.19
9 -4 5 2.44 4.15
9 -4 6 23.89 7.14
-9 3 7 13.57 5.08
-9 3 6 56.73 10.76
-9 3 5 8.25 3.83
-9 3 4 44.09 8.32
-9 3 3 11.29 4.03
-9 3 2 2.59 2.96
9 -3 -1 63.59 10.21
-9 3 1 60.13 8.91
9 -3 0 48.31 8.85
-9 3 0 45.07 7.43
9 -3 1 33.29 7.21
-9 3 -1 47.87 7.19
9 -3 2 2.69 2.54
-9 3 -2 7.16 2.78
9 -3 3 3.83 3.36
-9 3 -3 2.63 2.06
9 -3 4 5.22 3.77
-9 3 -5 129.71 16.06
9 -3 5 93.24 12.92
-9 2 8 0.65 2.2
-9 2 7 199.43 19.7
-9 2 6 17.28 5.58
-9 2 5 37.43 8
-9 2 4 23.44 5.87
-9 2 3 234.03 17.84
-9 2 2 131.95 12.83
-9 2 1 -0.42 1.37
9 -2 0 39.19 7.78
-9 2 0 34.49 6.13
9 -2 1 -0.04 1.48
-9 2 -1 4.79 2.23
9 -2 2 1.34 2.23
-9 2 -2 3.15 2.74
9 -2 3 256.24 20.02
-9 2 -3 271.06 17.2
-9 2 -4 4.34 2.16
9 -2 4 4.66 3.63
-9 2 -4 4.52 2.5
-9 2 -5 0.38 1.76
-9 1 8 44.41 9.16
-9 1 7 94.09 13.03
-9 1 6 93.18 12.28
-9 1 5 129.76 13.93
-9 1 4 261.55 19.04
-9 1 3 124.24 12.83
-9 1 2 97.29 10.82
-9 1 1 11.83 3.67
9 -1 0 17.27 4.81
-9 1 0 15.76 4.82
9 -1 1 23.45 5.64
-9 1 -1 26.14 5.52
9 -1 2 23.42 5.63
-9 1 -2 22.08 4.6
-9 1 -3 38.25 6.8
-9 1 -4 106.88 14.09
-9 1 -4 94.88 10.79
-9 0 9 -0.17 2.36
-9 0 8 81.95 12.56
-9 0 7 175.35 17.39
-9 0 6 212.01 18.57
-9 0 5 7.73 4.27
-9 0 4 477.44 25.81
-9 0 3 184.01 15.58
-9 0 2 137.21 13.1
-9 0 1 44.02 7.46
-9 0 0 53.24 8.15
-9 0 -1 10.4 4.01
9 0 2 17.74 4.38
-9 0 -2 16.79 4.81
9 0 3 1.85 2.25
-9 0 -3 3.02 2.75
-9 0 -4 12.09 4.55
-9 -1 9 3.98 2.86
-9 -1 8 14.27 5.14
-9 -1 7 98.01 12.59
-9 -1 6 18.24 5.28
-9 -1 5 2.21 1.98
-9 -1 4 66.63 9.62
-9 -1 3 -0.71 1.36
-9 -1 2 3.2 1.84
-9 -1 1 0.36 2.28
9 1 0 7.13 3.12
-9 -1 0 10.08 4.03
9 1 1 51.52 7.68
-9 -1 -1 45.62 8.24
9 1 2 25.07 5.43
-9 -1 -2 22.49 5.68
9 1 3 -0.29 1.71
-9 -2 9 81.46 12.13
-9 -2 8 294.89 23.3
-9 -2 7 20.01 5.7
-9 -2 6 9.45 4.22
-9 -2 5 5.12 3.11
-9 -2 4 2.19 2.19
-9 -2 3 1.11 1.51
9 2 -2 12.3 4.06
-9 -2 2 9.16 3.91
9 2 -1 15.24 4.48
-9 -2 1 16.4 5.14
9 2 0 51.42 7.89
-9 -2 0 69.32 10.42
9 2 1 20.03 4.68
9 2 2 28.83 6.03
-9 -3 9 3.73 3.08
-9 -3 8 14.2 5.13
-9 -3 7 -1.2 1.42
-9 -3 6 13.09 4.72
-9 -3 5 11.58 4.3
-9 -3 4 0.26 1.98
9 3 -3 9.78 4.04
-9 -3 3 12.49 4.5
9 3 -2 73.28 9.63
-9 -3 2 117.03 13.63
9 3 -1 38.29 6.9
-9 -3 1 60.11 10
9 3 0 64.17 9.12
-9 -4 8 11.35 4.46
-9 -4 7 22.14 6.41
-9 -4 6 5.47 2.76
-9 -4 5 3.84 3.09
9 4 -4 24.81 6.02
-9 -4 4 20.73 6.01
9 4 -3 47.12 7.9
-9 -4 3 28.12 6.97
-10 9 1 25.37 7.42
-10 9 0 14.74 5.36
-10 8 2 4.66 2.29
-10 8 1 27.78 7.18
-10 8 0 38.29 8.04
-10 8 -1 210.06 17.81
-10 7 3 27 7.3
-10 7 2 -1.58 2.28
-10 7 1 1.74 2.34
10 -7 0 8.53 5.04
-10 7 0 5.33 2.88
10 -7 1 79.41 13.75
-10 7 -1 85.6 11.04
10 -7 2 2.39 3.03
10 -7 3 27.7 8.29
-10 6 4 15.76 5.41
-10 6 3 9.16 4.45
-10 6 2 75.65 11.53
-10 6 1 21.23 5.77
10 -6 0 14.94 6.02
-10 6 0 12.8 4.82
10 -6 1 16.34 5.68
-10 6 -1 13.32 3.85
10 -6 2 41.01 9.53
-10 6 -2 40.69 7.28
10 -6 3 68.8 12.53
10 -6 4 86.27 14.31
-10 5 5 16.81 6.09
-10 5 4 94.18 13.57
-10 5 3 12.71 5.47
-10 5 2 11 4.83
-10 5 1 41.88 8.13
10 -5 0 4.39 3.18
-10 5 0 1.37 2.59
10 -5 1 0.35 2.5
-10 5 -1 -0.61 1.83
10 -5 2 2.03 2.16
-10 5 -2 5.19 2.75
10 -5 3 2.99 2.63
10 -5 4 -0.39 2.97
10 -5 5 9.47 4.98
-10 4 5 124.16 15.75
-10 4 4 66.31 11.3
-10 4 3 8.79 3.79
-10 4 2 29.34 6.91
-10 4 1 90.09 11.52
10 -4 0 68.48 11.67
-10 4 0 76.2 10.38
10 -4 1 -2.42 2.68
-10 4 -1 2.53 2.33
10 -4 2 9.82 4.26
-10 4 -2 13.6 3.96
10 -4 3 16.16 5.76
10 -4 4 21.42 6.53
-10 3 6 4.83 2.63
-10 3 5 72.55 11.66
-10 3 4 200.92 18.93
-10 3 3 100.98 12.83
-10 3 2 19.5 5.44
-10 3 1 127.64 13.47
10 -3 0 3.52 2.26
-10 3 0 1.29 2.1
10 -3 1 4.3 3.21
-10 3 -1 1.17 2.42
10 -3 2 18.68 6.03
-10 3 -2 11.42 3.79
10 -3 3 15.18 5.34
-10 2 6 82.1 12.49
-10 2 5 204.65 19.28
-10 2 4 61.77 10.1
-10 2 3 3.73 3.27
-10 2 2 104.46 12.39
-10 2 1 42.77 7.65
-10 2 0 102.86 11.8
10 -2 0 94.3 12.36
10 -2 1 59.95 9.86
-10 2 -1 58.23 8.59
10 -2 2 110.97 13.44
-10 2 -2 128.46 12.74
-10 1 7 111.37 14.9
-10 1 6 104.22 13.59
-10 1 5 49.4 9.63
-10 1 4 168.75 16.29
-10 1 3 44.04 8.28
-10 1 2 8.09 3.85
-10 1 1 3.39 2.81
-10 1 0 1.8 1.49
-10 1 -1 0.72 1.33
-10 1 -2 0.67 1.48
-10 1 -3 -1.03 1.55
-10 0 7 0.96 2.3
-10 0 6 47.84 9.21
-10 0 5 146.9 15.54
-10 0 4 71.87 10.49
-10 0 3 33.65 7.24
-10 0 2 71.33 10.06
-10 0 1 33.08 7.05
-10 0 0 3.67 2.54
-10 0 -1 15.59 4.99
-10 0 -2 15.53 4.71
-10 -1 7 15.43 5.19
-10 -1 6 10.15 4.75
-10 -1 5 30.77 6.88
-10 -1 4 37.57 7.82
-10 -1 3 19.43 5.43
-10 -1 2 93.26 12.31
-10 -1 1 81.66 11.36
-10 -1 0 16.41 5.4
10 1 1 34.19 6.86
-10 -2 6 39.62 8.38
-10 -2 5 11.7 5
-10 -2 4 2.65 2.51
-10 -2 3 220.78 19.19
-10 -2 2 65.94 10.5
-11 8 1 4.79 3.63
-11 7 2 49.63 10.04
-11 7 1 -2.13 3.24
-11 7 0 140.72 15.71
-11 6 2 10.82 4.34
-11 6 1 118.12 14.59
11 -6 0 113.35 16.8
-11 6 0 97.41 12.98
-11 5 3 71.6 11.81
-11 5 2 22.66 6.4
-11 5 1 89.28 12.31
11 -5 0 1.01 2.9
-11 5 0 8.95 3.73
11 -5 1 9.92 4.77
-11 5 -1 10.71 4.15
11 -5 2 -9.45 4.74
-11 4 4 2.15 2.08
-11 4 3 3.17 1.61
-11 4 2 14.65 5.54
-11 4 1 -1.47 3.09
11 -4 0 83.46 13.46
-11 4 0 74.29 10.7
11 -4 1 23.82 7.14
-11 4 -1 25.47 6.18
11 -4 2 -0.73 3.05
-11 3 4 -0.06 1.47
-11 3 3 3.21 3.58
-11 3 2 12.95 5.03
-11 3 1 2 1.65
-11 3 0 -1.78 2.72
11 -3 1 35.2 8.61
-11 3 -1 25.19 6.9
-11 2 4 2.18 2.25
-11 2 3 7 3.91
-11 2 2 8.92 4.72
-11 2 1 153.21 15.87
-11 2 0 149.1 15.21
-11 2 -1 11.46 4.4
-11 1 4 2.65 2.46
-11 1 3 4.69 3.59
-11 1 2 18.67 5.84
-11 1 1 140.08 15.19
-11 1 0 3.92 2.56
-11 1 -1 224.6 19.11
