#------------------------------------------------------------------------------
#$Date: 2019-11-24 14:37:13 +0200 (Sun, 24 Nov 2019) $
#$Revision: 238186 $
#$URL: file:///home/coder/svn-repositories/cod/cif/1/55/48/1554896.cif $
#------------------------------------------------------------------------------
#
# This file is available in the Crystallography Open Database (COD),
# http://www.crystallography.net/
#
# All data on this site have been placed in the public domain by the
# contributors.
#
data_1554896
loop_
_publ_author_name
'Shemet, Andrej'
'Sarlah, David'
'Carreira, Erick M.'
_publ_section_title
;
 Stereochemical studies of the opening of chloro vinyl epoxides: cyclic
 chloronium ions as intermediates.
;
_journal_issue                   8
_journal_name_full               'Organic letters'
_journal_page_first              1878
_journal_page_last               1881
_journal_paper_doi               10.1021/acs.orglett.5b00558
_journal_volume                  17
_journal_year                    2015
_chemical_absolute_configuration ad
_chemical_formula_moiety         'C13 H15 Br Cl N O3'
_chemical_formula_sum            'C13 H15 Br Cl N O3'
_chemical_formula_weight         348.62
_chemical_name_systematic
'((2S,3S)-3-((R)-1-chloropropyl)oxiran-2-yl)methyl (4-bromophenyl)carbamate'
_space_group_crystal_system      monoclinic
_space_group_IT_number           4
_space_group_name_Hall           'P 2yb'
_space_group_name_H-M_alt        'P 1 21 1'
_atom_sites_solution_hydrogens   geom
_atom_sites_solution_primary     direct
_audit_creation_date             2013-07-17
_audit_creation_method
;
  Olex2 1.2
  (compiled Apr  9 2013 14:10:59, GUI svn.r4458)
;
_cell_angle_alpha                90
_cell_angle_beta                 115.380(2)
_cell_angle_gamma                90
_cell_formula_units_Z            2
_cell_length_a                   12.2792(11)
_cell_length_b                   4.9357(3)
_cell_length_c                   13.4763(12)
_cell_measurement_reflns_used    1621
_cell_measurement_temperature    100
_cell_measurement_theta_max      25.91
_cell_measurement_theta_min      3.05
_cell_volume                     737.92(10)
_computing_cell_refinement       'Bruker SAINT'
_computing_data_collection       'Bruker APEX2'
_computing_data_reduction        'Bruker SAINT'
_computing_molecular_graphics
;
O. V. Dolomanov, L. J. Bourhis, R. J. Gildea, J. A. K. Howard and H. Puschmann,
OLEX2: a complete structure solution, refinement and analysis program.
J. Appl. Cryst. (2009). 42, 339-341.
;
_computing_publication_material
;
O. V. Dolomanov, L. J. Bourhis, R. J. Gildea, J. A. K. Howard and H. Puschmann,
OLEX2: a complete structure solution, refinement and analysis program.
J. Appl. Cryst. (2009). 42, 339-341.
;
_computing_structure_refinement  'SHELXL-97 (Sheldrick, 2008)'
_computing_structure_solution    'SHELXS-97 (Sheldrick, 2008)'
_diffrn_ambient_temperature      100.0
_diffrn_detector                 'Bruker APEX2 area detector'
_diffrn_detector_area_resol_mean 8.33
_diffrn_detector_type            'CCD area detector'
_diffrn_measured_fraction_theta_full 0.985
_diffrn_measured_fraction_theta_max 0.984
_diffrn_measurement_device       'kappa-stage diffractometer'
_diffrn_measurement_device_type  'Bruker Kappa Apex2 Duo'
_diffrn_measurement_method       '\w and \f scans'
_diffrn_radiation_monochromator  'focusing graphite'
_diffrn_radiation_probe          x-ray
_diffrn_radiation_type           MoK\a
_diffrn_radiation_wavelength     0.71073
_diffrn_radiation_xray_symbol    K-L~3~
_diffrn_reflns_av_R_equivalents  0.0456
_diffrn_reflns_av_unetI/netI     0.0936
_diffrn_reflns_Laue_measured_fraction_full 0.985
_diffrn_reflns_Laue_measured_fraction_max 0.984
_diffrn_reflns_limit_h_max       14
_diffrn_reflns_limit_h_min       -14
_diffrn_reflns_limit_k_max       5
_diffrn_reflns_limit_k_min       -3
_diffrn_reflns_limit_l_max       16
_diffrn_reflns_limit_l_min       -16
_diffrn_reflns_number            4478
_diffrn_reflns_point_group_measured_fraction_full 0.854
_diffrn_reflns_point_group_measured_fraction_max 0.846
_diffrn_reflns_theta_full        25.242
_diffrn_reflns_theta_max         25.674
_diffrn_reflns_theta_min         2.967
_diffrn_source                   'sealed tube'
_diffrn_standards_number         0
_exptl_absorpt_coefficient_mu    2.969
_exptl_absorpt_correction_T_max  0.7455
_exptl_absorpt_correction_T_min  0.5882
_exptl_absorpt_correction_type   multi-scan
_exptl_absorpt_process_details
;
SADABS-2008/1 (Bruker,2008) was used for absorption correction.
wR2(int) was 0.0683 before and 0.0583 after correction.
The Ratio of minimum to maximum transmission is 0.7890.
The \l/2 correction factor is 0.0000.
;
_exptl_crystal_colour            colourless
_exptl_crystal_colour_primary    colourless
_exptl_crystal_density_diffrn    1.569
_exptl_crystal_description       needle
_exptl_crystal_F_000             352
_exptl_crystal_size_max          0.32
_exptl_crystal_size_mid          0.03
_exptl_crystal_size_min          0.01
_refine_diff_density_max         0.605
_refine_diff_density_min         -0.976
_refine_diff_density_rms         0.113
_refine_ls_abs_structure_details
;
 Flack x determined using 597 quotients [(I+)-(I-)]/[(I+)+(I-)]
 (Parsons and Flack (2004), Acta Cryst. A60, s61).
;
_refine_ls_abs_structure_Flack   0.048(12)
_refine_ls_extinction_method     none
_refine_ls_goodness_of_fit_ref   1.062
_refine_ls_hydrogen_treatment    constr
_refine_ls_matrix_type           full
_refine_ls_number_parameters     173
_refine_ls_number_reflns         2361
_refine_ls_number_restraints     1
_refine_ls_restrained_S_all      1.062
_refine_ls_R_factor_all          0.0720
_refine_ls_R_factor_gt           0.0486
_refine_ls_shift/su_max          0.000
_refine_ls_shift/su_mean         0.000
_refine_ls_structure_factor_coef Fsqd
_refine_ls_weighting_details
;
 w=1/[\s^2^(Fo^2^)+(0.0357P)^2^]
 where P=(Fo^2^+2Fc^2^)/3
;
_refine_ls_weighting_scheme      calc
_refine_ls_wR_factor_gt          0.0994
_refine_ls_wR_factor_ref         0.1074
_reflns_Friedel_coverage         0.530
_reflns_Friedel_fraction_full    0.684
_reflns_Friedel_fraction_max     0.669
_reflns_number_gt                1835
_reflns_number_total             2361
_reflns_threshold_expression     'I > 2\s(I)'
_cod_data_source_file            ol5b00558_si_006.cif
_cod_data_source_block           mo_ca080713_0ma
_cod_database_code               1554896
_olex2_refinement_description
;
1. Fixed Uiso
 At 1.2 times of:
  All C(H) groups, All C(H,H) groups, All N(H) groups
 At 1.5 times of:
  All C(H,H,H) groups
2.a Ternary CH refined with riding coordinates:
 C3(H3), C4(H4), C5(H5)
2.b Secondary CH2 refined with riding coordinates:
 C2(H2A,H2B), C6(H6A,H6B)
2.c Aromatic/amide H refined with riding coordinates:
 N1(H1), C9(H9), C10(H10), C12(H12), C13(H13)
2.d Idealised Me refined as rotating group:
 C1(H1A,H1B,H1C)
;
_shelx_estimated_absorpt_t_max   0.971
_shelx_estimated_absorpt_t_min   0.450
_shelx_res_file
;
TITL mo_ca080713_0ma in P2(1)
CELL 0.71073 12.2792 4.9357 13.4763 90 115.38 90
ZERR 2 0.0011 0.0003 0.0012 0 0.002 0
LATT -1
SYMM -X,0.5+Y,-Z
 
SFAC C H N O Cl Br
UNIT 26 30 2 6 2 2
 
L.S. 20
PLAN  -10 0 0
SIZE 0.01 0.03 0.32
TEMP -173.15
HTAB
BOND $H
CONF
fmap 2
acta
REM <HKL>D:/SMoCC_Strukturen/ca080713/work/mo_ca080713_0ma.hkl</HKL>
 
WGHT    0.035700
FVAR       0.20140
BR1   6    0.993197    0.741610    0.886651    11.00000    0.04069    0.04611 =
         0.01129   -0.00384    0.00586   -0.00290
CL1   5    0.727196    1.326840   -0.167271    11.00000    0.04094    0.02786 =
         0.02804   -0.00015    0.01727   -0.00245
O1    4    0.739083    0.815312    0.216059    11.00000    0.03286    0.02568 =
         0.00911   -0.00086    0.00373    0.00144
O2    4    0.760034    1.130604    0.345454    11.00000    0.04171    0.01794 =
         0.02400   -0.00089    0.01136   -0.00507
O3    4    0.570251    0.818863   -0.037986    11.00000    0.03760    0.02701 =
         0.01443   -0.00140    0.00804   -0.00620
N1    3    0.799621    0.683653    0.388945    11.00000    0.03460    0.01467 =
         0.01421   -0.00268    0.00783   -0.00037
AFIX  43
H1    2    0.796395    0.522466    0.359902    11.00000   -1.20000
AFIX   0
C1    1    0.518741    1.032096   -0.381465    11.00000    0.04824    0.07652 =
         0.01940    0.00041    0.00754    0.01519
AFIX 137
H1A   2    0.570554    1.172895   -0.389683    11.00000   -1.50000
H1B   2    0.438845    1.040824   -0.443522    11.00000   -1.50000
H1C   2    0.554483    0.853687   -0.379868    11.00000   -1.50000
AFIX   0
C2    1    0.506781    1.077194   -0.274227    11.00000    0.04082    0.04701 =
         0.00962    0.00225    0.00501    0.00853
AFIX  23
H2A   2    0.471668    1.258731   -0.276086    11.00000   -1.20000
H2B   2    0.450368    0.941091   -0.268777    11.00000   -1.20000
AFIX   0
C3    1    0.626532    1.056739   -0.172617    11.00000    0.02650    0.02693 =
         0.01851    0.00440    0.00799   -0.00156
AFIX  13
H3    2    0.665314    0.879956   -0.174640    11.00000   -1.20000
AFIX   0
C4    1    0.610492    1.070468   -0.069475    11.00000    0.02398    0.02120 =
         0.01611    0.00196    0.00402   -0.00021
AFIX  13
H4    2    0.572799    1.240501   -0.058403    11.00000   -1.20000
AFIX   0
C5    1    0.687661    0.929451    0.028959    11.00000    0.03913    0.02437 =
         0.01291    0.00487    0.00799   -0.00218
AFIX  13
H5    2    0.757543    0.831232    0.026207    11.00000   -1.20000
AFIX   0
C6    1    0.706954    1.039067    0.138446    11.00000    0.03172    0.02849 =
         0.00982    0.00882    0.00409    0.00294
AFIX  23
H6A   2    0.772401    1.175403    0.163268    11.00000   -1.20000
H6B   2    0.632441    1.127693    0.133437    11.00000   -1.20000
AFIX   0
C7    1    0.766261    0.895718    0.320553    11.00000    0.02976    0.02289 =
         0.01135   -0.00418    0.00586   -0.00288
C8    1    0.840343    0.697400    0.506087    11.00000    0.02408    0.01751 =
         0.01710   -0.00644    0.00582   -0.01105
C9    1    0.922396    0.510013    0.568739    11.00000    0.03420    0.01864 =
         0.02079   -0.00259    0.00720    0.00092
AFIX  43
H9    2    0.949230    0.374914    0.534129    11.00000   -1.20000
AFIX   0
C10   1    0.967584    0.513440    0.682829    11.00000    0.03348    0.01722 =
         0.01407   -0.00740   -0.00165   -0.00567
AFIX  43
H10   2    1.024426    0.382161    0.726660    11.00000   -1.20000
AFIX   0
C11   1    0.926491    0.716429    0.730606    11.00000    0.01885    0.03656 =
         0.00571    0.00248   -0.00031   -0.00039
C12   1    0.796280    0.893777    0.553680    11.00000    0.02521    0.02204 =
         0.01143   -0.00139   -0.00118    0.00268
AFIX  43
H12   2    0.736262    1.018559    0.509274    11.00000   -1.20000
AFIX   0
C13   1    0.842413    0.903378    0.668581    11.00000    0.03952    0.02822 =
         0.01188   -0.00186    0.01069   -0.00316
AFIX  43
H13   2    0.815525    1.038575    0.703110    11.00000   -1.20000
AFIX   0
HKLF 4
 
REM  mo_ca080713_0ma in P2(1)
REM R1 =  0.0486 for    1835 Fo > 4sig(Fo)  and  0.0720 for all    2361 data
REM    173 parameters refined using      1 restraints
 
END  
     
WGHT      0.0355      0.0000 

REM Instructions for potential hydrogen bonds
EQIV $1 x, y-1, z
HTAB N1 O2_$1
EQIV $2 -x+1, y+1/2, -z
HTAB C4 O3_$2
HTAB C6 O3_$2
HTAB C12 O2
EQIV $3 x, y, z+1
HTAB C13 Cl1_$3

REM Highest difference peak  0.605,  deepest hole -0.976,  1-sigma level  0.113
Q1    1   1.1188  0.7974  0.8826  11.00000  0.05    0.57
Q2    1   0.9486  0.7271  0.8027  11.00000  0.05    0.51
Q3    1   0.9525  0.9026  0.8422  11.00000  0.05    0.43
Q4    1   0.8614  0.6961  0.8771  11.00000  0.05    0.42
Q5    1   1.1367  0.7224  0.9562  11.00000  0.05    0.41
Q6    1   1.0404  0.7931  0.9581  11.00000  0.05    0.41
Q7    1   1.1037  0.6568  0.8614  11.00000  0.05    0.41
Q8    1   0.8771  0.8426  0.8978  11.00000  0.05    0.40
Q9    1   0.7773  0.8389  0.1079  11.00000  0.05    0.40
Q10   1   0.8442  1.3023 -0.1832  11.00000  0.05    0.39

REM The information below was added by Olex2.
REM
REM R1 = 0.0486 for 1835 Fo > 4sig(Fo) and 0.0720 for all 4481 data
REM n/a parameters refined using n/a restraints
REM Highest difference peak 0.61, deepest hole -0.98
REM Mean Shift 0, Max Shift 0.

REM +++ Tabular Listing of Refinement Information +++
REM R1_all = 0.0720
REM R1_gt = 0.0486
REM wR_ref = 0.1074
REM GOOF = 1.062
REM Shift_max = 0
REM Shift_mean = 0
REM Reflections_all = 4481
REM Reflections_gt = 1835
REM Parameters = n/a
REM Hole = 0.61
REM Peak = -0.98
REM Flack = n/a

;
_shelx_space_group_comment
;
The symmetry employed for this shelxl refinement is uniquely defined
by the following loop, which should always be used as a source of
symmetry information in preference to the above space-group names.
They are only intended as comments.
;
_shelxl_version_number           2013-2
loop_
_space_group_symop_operation_xyz
'x, y, z'
'-x, y+1/2, -z'
loop_
_atom_site_label
_atom_site_type_symbol
_atom_site_fract_x
_atom_site_fract_y
_atom_site_fract_z
_atom_site_U_iso_or_equiv
_atom_site_adp_type
_atom_site_occupancy
_atom_site_site_symmetry_order
_atom_site_calc_flag
_atom_site_refinement_flags_posn
_atom_site_refinement_flags_adp
Br1 Br 0.99320(9) 0.7416(2) 0.88665(6) 0.0345(3) Uani 1 1 d . .
Cl1 Cl 0.7272(2) 1.3268(4) -0.16727(18) 0.0314(6) Uani 1 1 d . .
O1 O 0.7391(5) 0.8153(11) 0.2161(4) 0.0244(16) Uani 1 1 d . .
O2 O 0.7600(6) 1.1306(13) 0.3455(5) 0.0288(17) Uani 1 1 d . .
O3 O 0.5703(6) 0.8189(12) -0.0380(4) 0.0274(17) Uani 1 1 d . .
N1 N 0.7996(6) 0.6837(14) 0.3889(5) 0.0221(19) Uani 1 1 d . .
H1 H 0.7964 0.5225 0.3599 0.026 Uiso 1 1 calc R U
C1 C 0.5187(10) 1.032(3) -0.3815(8) 0.050(3) Uani 1 1 d . .
H1A H 0.5706 1.1729 -0.3897 0.076 Uiso 1 1 calc R U
H1B H 0.4388 1.0408 -0.4435 0.076 Uiso 1 1 calc R U
H1C H 0.5545 0.8537 -0.3799 0.076 Uiso 1 1 calc R U
C2 C 0.5068(9) 1.077(2) -0.2742(7) 0.035(3) Uani 1 1 d . .
H2A H 0.4717 1.2587 -0.2761 0.041 Uiso 1 1 calc R U
H2B H 0.4504 0.9411 -0.2688 0.041 Uiso 1 1 calc R U
C3 C 0.6265(8) 1.057(2) -0.1726(7) 0.025(2) Uani 1 1 d . .
H3 H 0.6653 0.8800 -0.1746 0.029 Uiso 1 1 calc R U
C4 C 0.6105(8) 1.0705(19) -0.0695(6) 0.022(2) Uani 1 1 d . .
H4 H 0.5728 1.2405 -0.0584 0.026 Uiso 1 1 calc R U
C5 C 0.6877(10) 0.9295(19) 0.0290(7) 0.027(2) Uani 1 1 d . .
H5 H 0.7575 0.8312 0.0262 0.032 Uiso 1 1 calc R U
C6 C 0.7070(9) 1.0391(19) 0.1384(6) 0.025(2) Uani 1 1 d . .
H6A H 0.7724 1.1754 0.1633 0.030 Uiso 1 1 calc R U
H6B H 0.6324 1.1277 0.1334 0.030 Uiso 1 1 calc R U
C7 C 0.7663(8) 0.896(2) 0.3206(7) 0.022(2) Uani 1 1 d . .
C8 C 0.8403(7) 0.697(2) 0.5061(6) 0.021(2) Uani 1 1 d . .
C9 C 0.9224(9) 0.5100(18) 0.5687(7) 0.026(2) Uani 1 1 d . .
H9 H 0.9492 0.3749 0.5341 0.031 Uiso 1 1 calc R U
C10 C 0.9676(9) 0.5134(18) 0.6828(7) 0.026(2) Uani 1 1 d . .
H10 H 1.0244 0.3822 0.7267 0.031 Uiso 1 1 calc R U
C11 C 0.9265(7) 0.716(2) 0.7306(5) 0.022(2) Uani 1 1 d . .
C12 C 0.7963(8) 0.8938(19) 0.5537(7) 0.023(2) Uani 1 1 d . .
H12 H 0.7363 1.0186 0.5093 0.027 Uiso 1 1 calc R U
C13 C 0.8424(9) 0.9034(19) 0.6686(7) 0.027(2) Uani 1 1 d . .
H13 H 0.8155 1.0386 0.7031 0.032 Uiso 1 1 calc R U
loop_
_atom_site_aniso_label
_atom_site_aniso_U_11
_atom_site_aniso_U_22
_atom_site_aniso_U_33
_atom_site_aniso_U_23
_atom_site_aniso_U_13
_atom_site_aniso_U_12
Br1 0.0407(5) 0.0461(7) 0.0113(4) -0.0038(6) 0.0059(3) -0.0029(6)
Cl1 0.0409(15) 0.0279(17) 0.0280(11) -0.0002(10) 0.0173(11) -0.0025(11)
O1 0.033(4) 0.026(4) 0.009(2) -0.001(3) 0.004(2) 0.001(3)
O2 0.042(4) 0.018(4) 0.024(3) -0.001(3) 0.011(3) -0.005(3)
O3 0.038(4) 0.027(5) 0.014(3) -0.001(3) 0.008(3) -0.006(3)
N1 0.035(4) 0.015(5) 0.014(3) -0.003(3) 0.008(3) 0.000(3)
C1 0.048(8) 0.077(9) 0.019(5) 0.000(6) 0.008(5) 0.015(7)
C2 0.041(7) 0.047(7) 0.010(4) 0.002(4) 0.005(4) 0.009(5)
C3 0.027(5) 0.027(6) 0.019(4) 0.004(4) 0.008(4) -0.002(4)
C4 0.024(5) 0.021(6) 0.016(4) 0.002(4) 0.004(4) 0.000(4)
C5 0.039(6) 0.024(6) 0.013(4) 0.005(4) 0.008(4) -0.002(5)
C6 0.032(6) 0.028(6) 0.010(4) 0.009(4) 0.004(4) 0.003(5)
C7 0.030(6) 0.023(6) 0.011(4) -0.004(4) 0.006(4) -0.003(4)
C8 0.024(5) 0.018(6) 0.017(4) -0.006(4) 0.006(3) -0.011(4)
C9 0.034(6) 0.019(6) 0.021(5) -0.003(4) 0.007(5) 0.001(5)
C10 0.033(6) 0.017(6) 0.014(4) -0.007(4) -0.002(4) -0.006(4)
C11 0.019(4) 0.037(6) 0.006(3) 0.002(5) 0.000(3) 0.000(6)
C12 0.025(6) 0.022(6) 0.011(4) -0.001(4) -0.001(4) 0.003(4)
C13 0.040(7) 0.028(6) 0.012(4) -0.002(4) 0.011(5) -0.003(5)
loop_
_atom_type_symbol
_atom_type_description
_atom_type_scat_dispersion_real
_atom_type_scat_dispersion_imag
_atom_type_scat_source
C C 0.0033 0.0016 'International Tables Vol C Tables 4.2.6.8 and 6.1.1.4'
H H 0.0000 0.0000 'International Tables Vol C Tables 4.2.6.8 and 6.1.1.4'
N N 0.0061 0.0033 'International Tables Vol C Tables 4.2.6.8 and 6.1.1.4'
O O 0.0106 0.0060 'International Tables Vol C Tables 4.2.6.8 and 6.1.1.4'
Cl Cl 0.1484 0.1585 'International Tables Vol C Tables 4.2.6.8 and 6.1.1.4'
Br Br -0.2901 2.4595 'International Tables Vol C Tables 4.2.6.8 and 6.1.1.4'
loop_
_geom_angle_atom_site_label_1
_geom_angle_atom_site_label_2
_geom_angle_atom_site_label_3
_geom_angle
C7 O1 C6 113.2(6)
C5 O3 C4 59.3(5)
C7 N1 H1 117.3
C7 N1 C8 125.4(8)
C8 N1 H1 117.3
H1A C1 H1B 109.5
H1A C1 H1C 109.5
H1B C1 H1C 109.5
C2 C1 H1A 109.5
C2 C1 H1B 109.5
C2 C1 H1C 109.5
C1 C2 H2A 109.0
C1 C2 H2B 109.0
H2A C2 H2B 107.8
C3 C2 C1 113.1(8)
C3 C2 H2A 109.0
C3 C2 H2B 109.0
Cl1 C3 H3 108.7
C2 C3 Cl1 111.6(7)
C2 C3 H3 108.7
C4 C3 Cl1 107.0(7)
C4 C3 C2 111.9(8)
C4 C3 H3 108.7
O3 C4 C3 115.4(7)
O3 C4 H4 115.7
C3 C4 H4 115.7
C5 C4 O3 59.5(5)
C5 C4 C3 122.8(9)
C5 C4 H4 115.7
O3 C5 H5 115.9
O3 C5 C6 116.7(8)
C4 C5 O3 61.2(6)
C4 C5 H5 115.9
C4 C5 C6 120.0(8)
C6 C5 H5 115.9
O1 C6 C5 108.4(7)
O1 C6 H6A 110.0
O1 C6 H6B 110.0
C5 C6 H6A 110.0
C5 C6 H6B 110.0
H6A C6 H6B 108.4
O2 C7 O1 123.1(8)
O2 C7 N1 126.3(7)
N1 C7 O1 110.6(8)
C9 C8 N1 117.7(8)
C9 C8 C12 121.1(8)
C12 C8 N1 121.1(8)
C8 C9 H9 119.5
C8 C9 C10 121.0(8)
C10 C9 H9 119.5
C9 C10 H10 121.1
C9 C10 C11 117.8(9)
C11 C10 H10 121.1
C10 C11 Br1 119.1(7)
C13 C11 Br1 119.0(7)
C13 C11 C10 121.9(7)
C8 C12 H12 120.7
C8 C12 C13 118.6(9)
C13 C12 H12 120.7
C11 C13 C12 119.5(8)
C11 C13 H13 120.2
C12 C13 H13 120.2
loop_
_geom_bond_atom_site_label_1
_geom_bond_atom_site_label_2
_geom_bond_distance
Br1 C11 1.906(7)
Cl1 C3 1.798(9)
O1 C6 1.454(10)
O1 C7 1.360(9)
O2 C7 1.218(10)
O3 C4 1.465(11)
O3 C5 1.441(11)
N1 H1 0.8800
N1 C7 1.338(11)
N1 C8 1.439(9)
C1 H1A 0.9800
C1 H1B 0.9800
C1 H1C 0.9800
C1 C2 1.530(12)
C2 H2A 0.9900
C2 H2B 0.9900
C2 C3 1.524(12)
C3 H3 1.0000
C3 C4 1.487(12)
C4 H4 1.0000
C4 C5 1.437(12)
C5 H5 1.0000
C5 C6 1.492(11)
C6 H6A 0.9900
C6 H6B 0.9900
C8 C9 1.362(12)
C8 C12 1.393(12)
C9 H9 0.9500
C9 C10 1.393(11)
C10 H10 0.9500
C10 C11 1.397(13)
C11 C13 1.370(13)
C12 H12 0.9500
C12 C13 1.403(11)
C13 H13 0.9500
loop_
_geom_torsion_atom_site_label_1
_geom_torsion_atom_site_label_2
_geom_torsion_atom_site_label_3
_geom_torsion_atom_site_label_4
_geom_torsion
Br1 C11 C13 C12 177.4(7)
Cl1 C3 C4 O3 -158.3(6)
Cl1 C3 C4 C5 -89.5(9)
O3 C4 C5 C6 -105.9(10)
O3 C5 C6 O1 84.0(10)
N1 C8 C9 C10 178.9(8)
N1 C8 C12 C13 -177.8(8)
C1 C2 C3 Cl1 66.4(11)
C1 C2 C3 C4 -173.6(9)
C2 C3 C4 O3 79.1(10)
C2 C3 C4 C5 147.8(9)
C3 C4 C5 O3 -102.2(9)
C3 C4 C5 C6 151.8(9)
C4 O3 C5 C6 111.2(9)
C4 C5 C6 O1 154.6(8)
C5 O3 C4 C3 114.6(9)
C6 O1 C7 O2 2.4(12)
C6 O1 C7 N1 -177.6(7)
C7 O1 C6 C5 176.0(8)
C7 N1 C8 C9 -148.6(9)
C7 N1 C8 C12 32.1(13)
C8 N1 C7 O1 176.6(7)
C8 N1 C7 O2 -3.4(15)
C8 C9 C10 C11 -0.4(14)
C8 C12 C13 C11 -1.8(14)
C9 C8 C12 C13 3.0(14)
C9 C10 C11 Br1 -176.3(7)
C9 C10 C11 C13 1.6(15)
C10 C11 C13 C12 -0.5(15)
C12 C8 C9 C10 -1.9(14)
loop_
_refln_index_h
_refln_index_k
_refln_index_l
_refln_F_squared_meas
_refln_F_squared_sigma
0 -1 0 0.62 0.45
0 -1 0 -0.06 0.42
0 1 0 0.53 0.48
0 -2 0 79.53 5.5
0 -2 0 76.97 5.5
0 2 0 85.37 5.51
0 2 0 84.1 5.52
-1 3 0 3.75 0.79
-1 3 0 2.46 0.82
1 -3 0 3.42 0.73
1 -3 0 4.01 0.72
-1 2 0 103.94 7.08
-1 2 0 108.05 7.08
1 -2 0 101.71 7.07
-1 1 0 98.77 6.68
-1 1 0 99.37 6.69
1 -1 0 96.97 6.68
1 -1 0 100.05 6.7
-1 -1 0 90.04 6.15
-1 -1 0 91.36 6.15
1 1 0 91.87 6.16
1 1 0 92.05 6.15
-2 4 0 64.69 4.56
-2 4 0 65.49 4.53
-2 3 0 2.15 0.91
-2 3 0 2.62 0.96
-2 2 0 48.34 3.72
-2 2 0 46.04 3.73
2 -2 0 59.28 3.77
2 -2 0 56.55 3.68
-2 1 0 100.96 6.96
-2 1 0 102.78 6.97
2 -1 0 105.76 6.98
2 -1 0 99.34 6.94
-2 0 0 4.04 0.85
2 0 0 3.49 0.9
2 0 0 3.52 0.84
-2 -1 0 94.91 6.29
-2 -1 0 91.77 6.3
2 1 0 91.82 6.29
2 1 0 92.47 6.32
-2 -2 0 57.12 3.23
2 2 0 40.71 3.24
2 2 0 41.3 3.21
-3 5 0 2.53 1.09
-3 4 0 36.43 2.81
-3 3 0 13.01 1.48
-3 3 0 14.92 1.49
-3 2 0 43.87 3.06
-3 2 0 42.54 3.06
3 -2 0 38.45 3.02
3 -2 0 40.19 3.12
-3 1 0 29.44 2.41
-3 1 0 30.82 2.4
3 -1 0 29.29 2.45
-3 0 0 81.24 5.61
3 0 0 81.78 5.6
3 0 0 80.5 5.63
-3 -1 0 29.35 2.2
-3 -1 0 28.97 2.2
3 1 0 28.59 2.31
3 1 0 26.61 2.18
-3 -2 0 37.49 2.76
-3 -2 0 36.24 2.77
3 2 0 39.36 2.75
3 2 0 40.77 2.84
-3 -3 0 11.78 1.13
-3 -3 0 11.26 1.15
3 3 0 12.03 1.1
3 3 0 11.36 1.21
-4 5 0 4.3 1.41
-4 4 0 8.19 1.45
-4 3 0 2.76 1.26
-4 3 0 2.57 1.2
-4 2 0 97.78 6.46
-4 2 0 93.51 6.45
4 -2 0 88.16 6.48
-4 1 0 26.23 2.31
-4 1 0 25.19 2.25
4 -1 0 28.27 2.33
-4 0 0 383.03 26.17
4 0 0 386.12 26.16
4 0 0 400.07 26.19
-4 -1 0 28.78 2.14
-4 -1 0 24.17 2.1
4 1 0 25.42 2.21
4 1 0 23.69 2.1
-4 -2 0 83 5.89
4 2 0 85.27 5.92
4 2 0 88.34 5.88
-4 -3 0 3.07 0.95
4 3 0 3.74 1.03
4 3 0 3.03 0.88
-5 5 0 2.68 1.53
-5 4 0 13.09 1.75
-5 3 0 8.73 1.46
5 -3 0 6.02 1.63
-5 2 0 63.99 4.8
5 -2 0 70.87 4.88
-5 1 0 0.91 1.31
-5 1 0 2.72 1.22
5 -1 0 2.78 1.33
-5 0 0 74.83 5.1
-5 0 0 69.25 5.06
5 0 0 71.72 5.05
5 0 0 71.25 5.13
-5 -1 0 2.63 1.16
5 1 0 0.95 1.27
5 1 0 2.5 1.09
-5 -2 0 63.35 4.26
5 2 0 56.13 4.24
5 2 0 59.9 4.29
-5 -3 0 6.6 1.19
5 3 0 5.99 1.1
5 3 0 5.32 1.33
5 4 0 7.25 1.18
-6 5 0 -0.11 1.64
-6 4 0 25.58 2.43
-6 3 0 7.82 1.51
-6 3 0 7.42 1.55
6 -3 0 7.37 1.83
-6 2 0 14.59 1.87
6 -2 0 19.12 2.06
-6 1 0 16.26 1.88
6 -1 0 15.68 1.9
-6 0 0 11.68 1.55
6 0 0 9.23 1.64
-6 -1 0 14.54 1.71
6 1 0 14.12 1.82
-6 -2 0 19.59 1.77
6 2 0 13.66 1.68
6 2 0 15.13 1.88
-6 -3 0 4.63 1.34
6 3 0 4.32 1.45
6 4 0 23.57 2.16
-7 5 0 0.51 1.67
-7 4 0 8.83 1.8
-7 3 0 0.32 1.51
7 -3 0 1.24 1.84
-7 2 0 72.47 5.12
7 -2 0 68.7 5.22
-7 1 0 24.83 2.35
7 -1 0 24.45 2.46
-7 0 0 51.3 3.88
7 0 0 51.58 3.94
-7 -1 0 22.97 2.15
7 1 0 21.16 2.29
-7 -2 0 62.76 4.83
7 2 0 71.37 4.91
7 3 0 -0.29 1.56
7 4 0 6.61 1.58
-8 4 0 3.44 1.84
-8 3 0 4.06 1.71
8 -3 0 5.99 2.08
-8 2 0 18.89 2.13
8 -2 0 15.35 2.3
-8 1 0 0.18 1.52
8 -1 0 1.88 1.69
-8 0 0 40.55 3.18
8 0 0 35.4 3.2
-8 -1 0 -0.29 1.47
8 1 0 1.29 1.61
-8 -2 0 22.27 2.28
8 2 0 18.65 2.38
8 3 0 4.17 1.78
8 4 0 2.28 1.7
-9 4 0 3.99 2.01
-9 3 0 3.75 1.81
9 -3 0 3.78 2.22
-9 2 0 13.95 2.05
9 -2 0 9.96 2.27
-9 1 0 1.58 1.66
9 -1 0 -1.39 1.8
-9 0 0 -0.33 1.7
9 0 0 1.26 1.78
-9 -1 0 1.04 1.72
9 1 0 0.15 1.74
-9 -2 0 13.02 2.06
9 2 0 10.2 2.03
9 3 0 2.34 1.93
9 4 0 4.48 2.02
-10 4 0 3.74 2.15
-10 3 0 3.82 1.94
10 -3 0 5.24 2.45
-10 2 0 2.32 1.91
10 -2 0 5.46 2.23
-10 1 0 9.3 1.94
10 -1 0 6.19 2.18
-10 0 0 13.26 2.07
10 0 0 7.47 2.15
-10 -1 0 7.87 2.02
10 1 0 5.07 2
-10 -2 0 6.71 2.04
10 2 0 0.91 2.04
10 3 0 3.77 2.15
10 4 0 -0.72 2.17
-11 3 0 0.58 2.04
-11 2 0 10.59 2.28
11 -2 0 11.45 2.55
-11 1 0 -0.53 1.9
11 -1 0 -0.47 2.25
-11 0 0 14.3 2.17
11 0 0 6.83 2.27
-11 -1 0 2.17 2
11 1 0 -0.84 2.13
11 2 0 4.96 2.25
11 3 0 1.14 2.24
-12 2 0 2.77 2.12
12 -2 0 3.53 2.6
-12 1 0 2.39 2.07
12 -1 0 0.95 2.45
-12 0 0 6.64 2.13
12 0 0 4.86 2.4
-12 -1 0 4.22 2.11
12 1 0 0.29 2.27
12 2 0 2.29 2.35
-13 1 0 2.12 2.24
13 -1 0 1.1 2.59
-13 0 0 2.73 2.23
13 0 0 2.97 2.62
-13 -1 0 1.12 2.22
13 1 0 3.44 2.58
13 0 1 -0.24 2.64
-13 0 -1 0.32 2.26
12 2 1 -0.85 2.48
12 1 1 3.48 2.5
-12 -1 -1 4.98 2.26
12 0 1 3.31 2.45
-12 0 -1 -0.96 2.15
12 -1 1 9.46 2.63
-12 1 -1 5.95 2.2
12 -2 1 0.44 2.62
-12 2 -1 0.71 2.12
11 3 1 4.43 2.49
11 2 1 1.35 2.35
11 1 1 1.24 2.26
-11 -1 -1 1.7 2.05
11 0 1 1.48 2.28
-11 0 -1 1.06 1.98
11 -1 1 1.44 2.33
-11 1 -1 -1.11 2.02
11 -2 1 2.98 2.48
-11 2 -1 3.19 1.99
-11 3 -1 8.23 2.39
10 3 1 4.83 2.3
10 2 1 0.01 2.18
10 1 1 14.29 2.54
-10 -1 -1 24.41 2.51
10 0 1 25.06 2.92
-10 0 -1 23.1 2.63
10 -1 1 26 3.07
-10 1 -1 28.29 2.8
10 -2 1 -0.82 2.3
-10 2 -1 2 1.87
10 -3 1 7.68 2.65
-10 3 -1 9.36 2.27
9 4 1 4.03 1.97
9 3 1 4.9 2.07
9 2 1 7.19 2.01
-9 -2 -1 8.8 1.89
9 1 1 31.18 3.22
-9 -1 -1 39.12 3.15
9 0 1 -1.99 1.87
-9 0 -1 0.51 1.7
9 -1 1 34.36 3.23
-9 1 -1 30.84 2.99
9 -2 1 9.42 2.32
-9 2 -1 8.9 1.91
9 -3 1 6.95 2.45
-9 3 -1 6.99 2.09
-9 4 -1 4.12 2.04
8 4 1 4.32 1.72
8 3 1 23.92 2.64
8 2 1 4.55 1.87
-8 -2 -1 11.22 1.82
8 1 1 5.41 1.74
-8 -1 -1 2.25 1.63
8 0 1 0.22 1.67
-8 0 -1 3.35 1.56
8 -1 1 0.74 1.84
-8 1 -1 5.33 1.63
8 -2 1 15.69 2.26
-8 2 -1 7.46 1.83
8 -3 1 32.29 3.17
-8 3 -1 27.54 2.84
-8 4 -1 7.13 1.93
7 4 1 4 1.49
7 3 1 -0.98 1.54
7 2 1 9.42 1.78
-7 -2 -1 12.6 1.77
7 1 1 7.03 1.61
7 0 1 43.96 3.63
-7 0 -1 47.67 3.56
7 -1 1 13.34 2.03
-7 1 -1 16.58 1.9
7 -2 1 14.83 2.18
-7 2 -1 14.45 1.91
7 -3 1 0.98 1.97
-7 3 -1 0.78 1.67
-7 4 -1 4.02 1.76
-7 5 -1 6.98 1.96
6 4 1 0.53 1.22
6 3 1 30.9 2.45
-6 -3 -1 24.7 2.33
6 2 1 12.53 1.45
6 2 1 8.1 1.59
-6 -2 -1 12.57 1.6
6 1 1 52.19 3.73
-6 -1 -1 46.72 3.7
6 0 1 2.33 1.45
-6 0 -1 5.05 1.36
6 -1 1 47.64 4.01
-6 1 -1 56.66 3.92
6 -2 1 14.69 2.02
-6 2 -1 14.54 1.78
6 -3 1 34.15 3.16
-6 3 -1 35.5 2.97
-6 4 -1 2.1 1.62
-6 5 -1 -1.38 1.7
5 3 1 14.38 1.52
5 3 1 13.79 1.58
-5 -3 -1 13.02 1.46
5 2 1 11.49 1.47
5 2 1 7.89 1.25
-5 -2 -1 14.79 1.49
5 1 1 97.93 6.75
-5 -1 -1 96.42 6.74
5 0 1 13.88 1.77
5 0 1 13.86 1.62
-5 0 -1 14.55 1.74
5 -1 1 101.15 7.07
-5 1 -1 101.29 7.02
-5 1 -1 100.91 7.03
5 -2 1 18.97 1.94
-5 2 -1 13.53 1.66
-5 2 -1 13.65 1.7
-5 3 -1 17.13 1.95
-5 4 -1 4.8 1.55
-5 5 -1 1.62 1.62
4 3 1 44.2 3.41
4 3 1 45.32 3.4
-4 -3 -1 54.5 3.39
4 2 1 31.83 2.41
4 2 1 34.43 2.49
-4 -2 -1 29.91 2.46
4 1 1 15.12 1.7
4 1 1 14.18 1.69
-4 -1 -1 17.68 1.76
-4 -1 -1 19.49 1.72
4 0 1 0.49 0.94
4 0 1 2.7 1.28
-4 0 -1 3.76 1.19
4 -1 1 21.62 2.13
-4 1 -1 17.38 1.86
4 -2 1 32.21 2.96
-4 2 -1 39.23 2.86
-4 3 -1 50.88 3.75
-4 4 -1 7.16 1.58
-4 5 -1 19.26 2.18
3 3 1 34.07 2.4
-3 -3 -1 33.28 2.4
3 2 1 46.58 3.15
3 2 1 47.53 3.13
-3 -2 -1 41.35 3.12
-3 -2 -1 41.12 3.14
3 1 1 77.57 5.49
3 1 1 78.46 5.47
-3 -1 -1 78.81 5.49
-3 -1 -1 82.4 5.47
3 0 1 67 4.67
3 0 1 65.62 4.61
-3 0 -1 64.77 4.62
3 -1 1 89.36 6.21
-3 1 -1 90.41 6.18
-3 1 -1 87.6 6.17
3 -2 1 42.26 3.72
-3 2 -1 52.47 3.67
-3 2 -1 54.31 3.68
-3 3 -1 37.04 2.86
-3 3 -1 36.2 2.85
-3 4 -1 1.5 1.31
-3 5 -1 2.4 1.3
2 2 1 92.19 6.15
2 2 1 86.33 6.16
-2 -2 -1 91.46 6.15
-2 -2 -1 93.72 6.15
2 1 1 92.52 6.19
2 1 1 92.38 6.2
-2 -1 -1 89.99 6.18
-2 -1 -1 88.82 6.2
2 0 1 54.35 3.81
2 0 1 53.36 3.75
-2 0 -1 51.58 3.74
2 -1 1 100.2 7.23
-2 1 -1 108.29 7.22
-2 1 -1 107.67 7.21
2 -2 1 98.93 6.8
-2 2 -1 101.3 6.82
-2 2 -1 98.33 6.83
-2 3 -1 62.18 4.5
-2 3 -1 65.98 4.52
-2 4 -1 2.61 1.18
-2 5 -1 3.3 1.09
1 1 1 61.04 4.35
1 1 1 61.05 4.33
-1 -1 -1 65.15 4.32
-1 -1 -1 67.53 4.34
1 0 1 8.23 0.91
1 0 1 5.85 0.82
-1 0 -1 7.32 0.8
1 -1 1 67.72 4.55
-1 1 -1 64.83 4.6
-1 1 -1 65.41 4.57
1 -2 1 80.6 5.23
-1 2 -1 73.66 5.27
-1 2 -1 74.03 5.26
1 -3 1 12.35 1.3
-1 3 -1 14.71 1.42
-1 3 -1 15.75 1.45
-1 4 -1 14.9 1.47
-1 4 -1 14.5 1.52
0 -1 1 16.72 1.38
0 -1 1 16.91 1.36
0 -2 1 86.86 5.89
0 -2 1 81.57 5.88
0 2 -1 91.24 5.9
0 -3 1 41 2.76
0 -3 1 42.81 2.77
0 3 -1 36.84 2.81
0 3 -1 34.48 2.78
0 4 -1 22.87 1.81
0 4 -1 22.48 1.81
-1 2 1 58.54 3.95
-1 2 1 59.89 3.96
1 -2 -1 55.31 3.95
-1 1 1 352.17 24.11
-1 1 1 354.46 24.11
1 -1 -1 362.88 24.11
1 -1 -1 370.67 24.11
-1 -1 1 353.98 23.05
-1 -1 1 352.03 23.05
1 1 -1 337.1 23.05
1 1 -1 333.07 23.05
-1 -2 1 48.61 3.54
-1 -2 1 50.18 3.55
1 2 -1 54.55 3.56
1 2 -1 51.44 3.53
-1 -3 1 7.59 0.94
-1 -3 1 7.66 0.91
-2 4 1 19.28 1.58
-2 3 1 67.71 4.55
-2 3 1 68.41 4.53
2 -3 -1 61.6 4.53
-2 2 1 86.32 5.98
-2 2 1 88.62 6
2 -2 -1 89.48 5.99
2 -2 -1 86.59 5.98
-2 1 1 384.37 24.49
-2 1 1 379.25 24.49
2 -1 -1 349.55 24.49
2 -1 -1 348.43 24.49
-2 0 1 71.8 4.87
-2 0 1 71.86 4.88
2 0 -1 70.38 4.88
2 0 -1 71.86 4.88
-2 -1 1 334.92 22.9
-2 -1 1 339.53 22.9
2 1 -1 344.77 22.9
2 1 -1 347.35 22.9
-2 -2 1 84.2 5.61
-2 -2 1 81.63 5.61
2 2 -1 81.77 5.61
2 2 -1 82 5.61
-2 -3 1 51.39 3.78
-2 -3 1 52.89 3.79
2 3 -1 56.82 3.8
2 3 -1 59.57 3.79
-3 4 1 15.13 1.53
-3 3 1 15.23 1.55
-3 3 1 16 1.51
-3 2 1 42.99 3.48
-3 2 1 44.5 3.51
3 -2 -1 53.8 3.52
3 -2 -1 53.87 3.49
-3 1 1 152.65 10.55
-3 1 1 151.14 10.56
3 -1 -1 164.38 10.56
-3 0 1 952.82 65.9
-3 0 1 1000 65.91
3 0 -1 982.7 65.82
3 0 -1 997.53 65.84
-3 -1 1 164.94 10.27
-3 -1 1 155.71 10.26
3 1 -1 142.34 10.27
3 1 -1 145.01 10.26
-3 -2 1 49.19 3.12
-3 -2 1 47.39 3.14
3 2 -1 39.43 3.15
3 2 -1 39.83 3.12
-3 -3 1 17.1 1.34
3 3 -1 12.65 1.35
3 3 -1 15.73 1.34
-4 5 1 5.39 1.24
-4 4 1 19.42 1.87
-4 3 1 12.85 1.42
-4 3 1 10.66 1.38
4 -3 -1 12.67 1.53
-4 2 1 132.88 9.05
-4 2 1 135.94 9.04
4 -2 -1 129.31 9.05
-4 1 1 76.39 5.6
-4 1 1 74.57 5.57
4 -1 -1 89.55 5.6
-4 0 1 91.45 6.4
4 0 -1 93.71 6.44
4 0 -1 93.59 6.38
-4 -1 1 83.24 5.35
-4 -1 1 81.4 5.35
4 1 -1 73.74 5.36
4 1 -1 70.77 5.4
-4 -2 1 121.34 8.32
-4 -2 1 121.61 8.32
4 2 -1 124.39 8.34
4 2 -1 122.34 8.31
-4 -3 1 7.05 1.03
4 3 -1 10.09 1.13
4 3 -1 7.52 1.19
-5 5 1 -0.3 1.36
-5 4 1 42.16 3.23
-5 3 1 15.88 1.7
-5 3 1 13.79 1.6
5 -3 -1 11.65 1.67
-5 2 1 42.29 3.37
5 -2 -1 47.57 3.42
-5 1 1 24.21 2.06
5 -1 -1 19.47 2.2
-5 0 1 21.36 2
5 0 -1 20.39 2.1
-5 -1 1 17.93 1.91
5 1 -1 21.3 2.09
5 1 -1 21.92 1.84
-5 -2 1 41.6 3.02
5 2 -1 39.73 3.12
5 2 -1 40.33 3.03
-5 -3 1 11.39 1.48
5 3 -1 13.48 1.66
5 3 -1 14.49 1.44
5 4 -1 33.35 2.64
-6 5 1 -0.25 1.55
-6 4 1 27.71 2.5
-6 3 1 6.85 1.43
6 -3 -1 4.92 1.59
-6 2 1 9.37 1.6
6 -2 -1 13.78 1.71
-6 1 1 54.58 3.85
-6 1 1 50.93 3.83
6 -1 -1 49.76 3.92
-6 0 1 16.36 1.66
6 0 -1 12.59 1.74
6 0 -1 12.06 1.58
-6 -1 1 45.48 3.65
6 1 -1 53.29 3.74
6 2 -1 8.46 1.55
6 2 -1 6.3 1.23
-6 -3 1 3.32 1.29
6 3 -1 5.38 1.47
6 3 -1 5.03 1.23
6 4 -1 24.01 2.32
-7 5 1 2.81 1.61
-7 4 1 5.18 1.64
-7 3 1 4.87 1.57
7 -3 -1 6.41 1.81
-7 2 1 26.53 2.31
7 -2 -1 19.65 2.38
-7 1 1 7.41 1.47
7 -1 -1 6.55 1.56
-7 0 1 181.91 12.19
7 0 -1 175.97 12.2
7 1 -1 7.2 1.54
7 1 -1 5.88 1.24
-7 -2 1 22.52 2.21
7 2 -1 25.05 2.34
-7 -3 1 7.05 1.49
7 3 -1 3.2 1.56
7 4 -1 0.59 1.56
-8 4 1 2.87 1.74
-8 3 1 5.73 1.77
8 -3 -1 10.77 2.05
-8 2 1 29.1 2.66
8 -2 -1 28.58 2.83
-8 1 1 1.11 1.47
8 -1 -1 1.95 1.59
-8 0 1 76.75 5.49
-8 -1 1 2.03 1.39
8 1 -1 0.73 1.56
-8 -2 1 29.8 2.63
8 2 -1 29.58 2.6
8 2 -1 29.42 2.71
8 3 -1 4.63 1.83
8 4 -1 2.73 1.72
-9 4 1 11.15 2.12
-9 3 1 3.67 1.82
9 -3 -1 1.75 2.13
-9 2 1 9.17 1.82
9 -2 -1 6.54 2.03
9 -1 -1 8.1 1.87
9 0 -1 9.76 1.88
-9 -1 1 14.3 1.86
9 1 -1 8.65 1.97
-9 -2 1 10.18 1.75
9 2 -1 2.28 1.89
9 3 -1 3.11 1.9
9 4 -1 7.97 2
-10 4 1 7.38 2.19
-10 3 1 3.24 1.93
10 -3 -1 2.94 2.33
-10 2 1 5.14 1.87
10 -2 -1 8.07 2.23
-10 1 1 0.83 1.81
10 -1 -1 0.37 1.92
-10 0 1 1.7 1.73
10 0 -1 0.81 1.88
-10 -1 1 1.16 1.74
10 1 -1 1.76 1.88
-10 -2 1 8.44 1.88
10 2 -1 3.02 1.98
10 3 -1 5.22 2.08
10 4 -1 1.98 2.09
-11 3 1 -0.09 1.99
-11 2 1 3.17 1.93
11 -2 -1 2.99 2.34
-11 1 1 -0.53 1.89
11 -1 -1 0.69 2.13
-11 0 1 15.56 2.22
11 0 -1 7.94 2.22
-11 -1 1 -1.71 1.87
11 1 -1 0.14 2.02
-11 -2 1 2.66 1.96
11 2 -1 3.3 2.08
11 3 -1 -0.43 2.13
-12 3 1 0.42 2.08
-12 2 1 10.99 2.25
12 -2 -1 7.21 2.64
-12 1 1 -0.23 2.01
12 -1 -1 3.02 2.28
-12 0 1 7.87 2.14
12 0 -1 2.65 2.28
-12 -1 1 -0.54 2.11
12 1 -1 0.56 2.15
12 2 -1 3.98 2.25
12 3 -1 -2.95 2.3
-13 2 1 0.04 2.21
13 -2 -1 3.04 2.66
-13 1 1 0.8 2.13
13 -1 -1 1.36 2.52
-13 0 1 1.61 2.16
13 0 -1 0.41 2.39
-13 -1 1 1.14 2.19
13 1 -1 3.23 2.46
13 2 -1 -0.58 2.43
12 1 2 5.26 2.62
-12 -1 -2 6.65 2.32
12 0 2 2.39 2.55
-12 0 -2 5.58 2.22
12 -1 2 6.43 2.66
-12 1 -2 7.35 2.27
11 2 2 2.74 2.43
11 1 2 2.64 2.38
-11 -1 -2 2.48 2.13
11 0 2 -0.06 2.37
-11 0 -2 1.89 2.03
11 -1 2 1.44 2.4
-11 1 -2 5 2.05
11 -2 2 5.04 2.8
-11 2 -2 4.17 2.23
10 3 2 9.08 2.37
10 2 2 3.53 2.26
10 1 2 13.41 2.46
-10 -1 -2 15.45 2.35
10 0 2 -1.32 2.14
-10 0 -2 2.38 1.92
10 -1 2 13.22 2.62
-10 1 -2 20.32 2.41
10 -2 2 5.18 2.53
-10 2 -2 1.32 1.98
-10 3 -2 6.49 2.27
9 4 2 3.15 1.99
9 3 2 10.67 2.24
9 2 2 -0.77 2.06
-9 -2 -2 2.16 1.87
9 1 2 27.72 3.04
-9 -1 -2 31.38 2.9
9 0 2 1.25 2.01
-9 0 -2 1.12 1.81
9 -1 2 33.24 3.25
-9 1 -2 32.18 2.99
9 -2 2 -0.64 2.3
-9 2 -2 0.73 1.85
-9 3 -2 11.35 2.29
-9 4 -2 1.34 2.08
8 4 2 5.3 1.8
8 3 2 15.02 2.18
8 2 2 4.66 1.97
-8 -2 -2 10.55 1.85
8 1 2 22.15 2.46
-8 -1 -2 17.03 2.22
8 0 2 22.46 2.61
-8 0 -2 25.1 2.46
8 -1 2 17.6 2.48
-8 1 -2 21.27 2.28
8 -2 2 13.09 2.43
-8 2 -2 10.56 2.01
-8 3 -2 22.14 2.59
-8 4 -2 3.41 1.97
7 3 2 9.65 1.78
7 2 2 4.48 1.7
-7 -2 -2 4.12 1.51
7 1 2 29.58 2.82
-7 -1 -2 31.12 2.68
7 0 2 14.52 2.1
-7 0 -2 18.45 2
7 -1 2 33.28 2.98
-7 1 -2 30.14 2.79
7 -2 2 6.86 2.08
-7 2 -2 4.71 1.69
-7 3 -2 12.8 2.07
-7 4 -2 0.06 1.81
6 3 2 23.68 2.24
6 2 2 21.15 2.22
-6 -2 -2 22.26 2.09
6 1 2 64.9 4.86
6 1 2 63.77 4.77
-6 -1 -2 71.08 4.8
6 0 2 -0.27 1.52
-6 0 -2 2.02 1.34
6 -1 2 74.67 5.15
-6 1 -2 65.63 5.03
6 -2 2 25.66 2.69
-6 2 -2 24.16 2.44
-6 3 -2 25.76 2.53
-6 4 -2 3.02 1.67
-6 5 -2 2.65 1.82
5 3 2 36.42 2.76
5 3 2 36.9 2.77
-5 -3 -2 34.29 2.67
5 2 2 3.84 1.1
5 2 2 2.48 1.3
-5 -2 -2 4.29 1.14
5 1 2 102.64 6.68
-5 -1 -2 88.74 6.6
5 0 2 0.53 1.41
5 0 2 0.36 1.22
-5 0 -2 0.16 1.24
5 -1 2 94.81 7.05
-5 1 -2 105.59 6.99
5 -2 2 6.35 1.79
-5 2 -2 5.28 1.5
-5 3 -2 41.36 3.29
-5 4 -2 4.08 1.61
-5 5 -2 -0.65 1.73
4 3 2 6.63 1.03
4 3 2 4.83 1.11
-4 -3 -2 7.37 0.96
4 2 2 16.82 1.64
4 2 2 16.62 1.53
-4 -2 -2 15.43 1.54
4 1 2 16.6 1.92
4 1 2 16.1 1.79
-4 -1 -2 21.05 1.76
4 0 2 17.47 1.86
-4 0 -2 14.08 1.76
4 -1 2 26.3 2.22
-4 1 -2 18.21 2.01
-4 1 -2 17.34 2.05
-4 2 -2 21.73 2.13
-4 3 -2 7.42 1.53
-4 4 -2 9.57 1.75
-4 5 -2 26.61 2.61
3 3 2 33.02 2.36
3 2 2 0.16 0.95
3 2 2 0.23 0.8
-3 -2 -2 2.09 0.78
-3 -2 -2 1.74 0.87
3 1 2 52.11 3.39
3 1 2 51.23 3.33
-3 -1 -2 38.96 3.32
-3 -1 -2 40.94 3.3
3 0 2 10.37 1.42
3 0 2 14.22 1.64
-3 0 -2 15.01 1.46
3 -1 2 43.51 3.89
-3 1 -2 58.97 3.81
-3 2 -2 1.15 1.19
-3 3 -2 37.66 2.96
-3 3 -2 38.13 2.97
-3 4 -2 1.61 1.42
-3 5 -2 5.94 1.54
2 2 2 27.26 1.99
-2 -2 -2 26.34 2
-2 -2 -2 27.08 1.99
2 1 2 180.91 12.09
2 1 2 181.49 12.11
-2 -1 -2 180.18 12.1
-2 -1 -2 175.13 12.08
2 0 2 65.89 4.83
2 0 2 72.38 4.92
-2 0 -2 70.26 4.84
-2 1 -2 201.6 13.64
-2 1 -2 202.36 13.65
-2 2 -2 31.53 2.68
-2 2 -2 34.34 2.61
2 -3 2 38.57 2.97
-2 3 -2 40.67 3.02
-2 3 -2 39.12 3.02
-2 4 -2 19.03 1.94
-2 5 -2 5.19 1.35
1 1 2 186.34 12.25
-1 -1 -2 177.91 12.26
-1 -1 -2 182.71 12.25
1 0 2 37.7 2.77
-1 0 -2 38.09 2.76
-1 1 -2 204.76 13.69
-1 1 -2 201.47 13.71
1 -2 2 16.45 1.55
1 -2 2 17.01 1.59
-1 2 -2 16 1.67
-1 2 -2 15.18 1.75
1 -3 2 48.08 3.29
-1 3 -2 44.99 3.37
-1 3 -2 43.57 3.36
-1 4 -2 6.48 1.25
-1 5 -2 4.77 1.2
0 1 2 44.15 3.19
0 1 2 43.74 3.19
0 -1 -2 51.19 3.19
0 0 2 9.36 1.08
0 0 2 10.46 1.04
0 0 -2 10.02 1.09
0 -1 2 55.7 3.71
0 1 -2 49.8 3.75
0 -2 2 0.17 0.9
0 -2 2 0.95 0.88
0 2 -2 -0.45 0.98
0 -3 2 87.3 5.71
0 3 -2 82.27 5.75
0 3 -2 79.94 5.72
0 4 -2 8.46 1.3
0 4 -2 8.3 1.21
-1 1 2 63.13 3.97
-1 1 2 61.93 3.98
1 -1 -2 53.83 3.97
1 -1 -2 53.86 3.97
-1 0 2 47.15 3.22
-1 0 2 46.06 3.21
1 0 -2 45.88 3.22
-1 -1 2 48.46 3.86
-1 -1 2 51.47 3.85
1 1 -2 61.09 3.88
1 1 -2 61.15 3.87
-1 -2 2 29.4 2.13
-1 -2 2 29.08 2.12
1 2 -2 26.73 2.12
1 2 -2 26.45 2.17
-1 -3 2 63 4.17
1 3 -2 56.8 4.18
1 4 -2 3.19 1.05
1 4 -2 3.05 1.06
-2 3 2 37.66 2.41
2 -3 -2 31.15 2.42
-2 2 2 41.6 2.91
-2 2 2 41.87 2.94
2 -2 -2 43.15 2.95
2 -2 -2 39.8 2.91
-2 1 2 408.12 26.57
-2 1 2 417.93 26.57
2 -1 -2 373.1 26.57
2 -1 -2 387.12 26.57
-2 0 2 1.91 0.71
-2 0 2 0.96 0.78
2 0 -2 0.2 0.78
-2 -1 2 371.66 25.63
-2 -1 2 358.23 25.62
2 1 -2 398.5 25.63
2 1 -2 400.81 25.63
-2 -2 2 40.27 2.93
-2 -2 2 39.13 2.94
2 2 -2 41.75 2.97
2 2 -2 41.4 2.93
-2 -3 2 30.55 2.59
2 3 -2 39.2 2.66
2 3 -2 37.67 2.59
2 4 -2 -0.43 0.88
-3 4 2 1.65 0.8
-3 4 2 2.89 0.89
-3 3 2 40.92 2.94
-3 3 2 37.18 2.92
3 -3 -2 44.87 2.96
-3 2 2 5.19 0.94
-3 2 2 5.39 1
3 -2 -2 3.72 0.92
3 -2 -2 6.75 1.09
-3 1 2 91.36 5.86
-3 1 2 91.96 5.87
3 -1 -2 78.52 5.89
3 -1 -2 80.48 5.86
-3 0 2 25.07 2.05
-3 0 2 25.2 2.03
3 0 -2 24.94 2.07
3 0 -2 26.96 2.05
-3 -1 2 77.37 5.73
-3 -1 2 79.14 5.75
3 1 -2 90.1 5.76
3 1 -2 88.17 5.75
-3 -2 2 5.97 1.01
-3 -2 2 5.68 0.96
3 2 -2 3.36 0.97
3 2 -2 4.5 0.96
-3 -3 2 44.82 2.84
3 3 -2 35.83 2.85
3 3 -2 37.13 2.83
3 4 -2 1.16 0.86
-4 4 2 2.55 1.12
-4 3 2 32.12 2.47
-4 3 2 30.41 2.44
4 -3 -2 32.79 2.48
-4 2 2 13.53 1.47
-4 2 2 13.23 1.51
4 -2 -2 14.13 1.56
-4 1 2 121.25 8.42
-4 1 2 118.03 8.43
4 -1 -2 132.02 8.46
-4 0 2 76.61 5.31
4 0 -2 76.74 5.29
4 0 -2 75.5 5.34
-4 -1 2 128.22 8.44
4 1 -2 121.71 8.45
4 1 -2 122.47 8.46
-4 -2 2 10.61 1.23
4 2 -2 11.75 1.37
4 2 -2 12.15 1.33
-4 -3 2 30.47 2.21
4 3 -2 28.39 2.24
4 3 -2 28.32 2.26
4 4 -2 1.15 1.09
-5 5 2 6.63 1.35
-5 4 2 2.5 1.25
-5 3 2 69.7 4.92
-5 3 2 68.97 4.93
5 -3 -2 71.06 4.96
-5 2 2 83.61 5.65
-5 2 2 79.72 5.65
5 -2 -2 79.64 5.69
-5 1 2 135.95 9.48
-5 1 2 147.42 9.51
5 -1 -2 135.06 9.54
-5 0 2 105.43 7.46
5 0 -2 112.36 7.51
-5 -1 2 134.33 9.52
5 1 -2 139.91 9.51
5 1 -2 145.29 9.54
-5 -2 2 78.02 5.44
5 2 -2 78.1 5.47
5 2 -2 78.71 5.44
-5 -3 2 65.26 4.52
5 3 -2 61.95 4.51
5 3 -2 65.38 4.55
5 4 -2 2.13 1.34
-6 5 2 1.82 1.42
-6 4 2 3.51 1.4
-6 3 2 23.08 2.07
6 -3 -2 20.46 2.21
-6 2 2 18.25 2.01
6 -2 -2 23.34 2.1
-6 1 2 137.02 9.51
-6 1 2 136.95 9.5
6 -1 -2 143.21 9.53
-6 0 2 49.42 3.57
6 0 -2 46.81 3.52
6 0 -2 46.62 3.66
-6 -1 2 144.88 9.88
6 1 -2 144.63 9.92
-6 -2 2 21.4 1.81
6 2 -2 18.23 2
6 2 -2 19.06 1.83
-6 -3 2 20.12 1.95
6 3 -2 21.59 2.11
6 3 -2 20.39 1.94
6 4 -2 4.06 1.54
-7 5 2 8.46 1.71
-7 4 2 8.87 1.68
-7 3 2 18.29 1.95
7 -3 -2 13.83 2.09
-7 2 2 30.79 2.61
7 -2 -2 29.12 2.69
-7 1 2 20.2 2.22
7 -1 -2 27.84 2.35
-7 0 2 2.3 1.27
7 0 -2 0.1 1.54
-7 -1 2 27.55 2.13
7 1 -2 20.44 2.29
7 1 -2 18.64 2.05
-7 -2 2 27.77 2.35
7 2 -2 26.64 2.51
-7 -3 2 12.47 1.68
7 3 -2 17.55 1.98
7 4 -2 3.9 1.57
-8 5 2 8.67 1.83
-8 4 2 3.48 1.63
-8 3 2 5.05 1.64
8 -3 -2 2.56 1.88
-8 2 2 13.15 1.8
8 -2 -2 8.07 1.85
-8 1 2 3.64 1.4
8 -1 -2 3.56 1.66
-8 0 2 0.37 1.33
8 0 -2 2.79 1.58
-8 -1 2 5.35 1.47
8 1 -2 4.74 1.67
-8 -2 2 14.58 1.72
8 2 -2 10.96 1.93
8 2 -2 9.96 1.69
-8 -3 2 3.36 1.52
8 3 -2 5.23 1.73
8 4 -2 1.7 1.68
-9 4 2 1.64 1.75
-9 3 2 12.31 1.95
9 -3 -2 6.97 2.19
-9 2 2 8.73 1.85
9 -2 -2 6.36 1.94
-9 1 2 67.67 4.96
-9 0 2 37.36 3.08
9 0 -2 36.13 3.18
-9 -1 2 60.85 4.62
9 1 -2 63.19 4.67
-9 -2 2 7.86 1.67
9 2 -2 7.4 1.88
9 3 -2 7.89 1.9
9 4 -2 0.61 1.9
-10 4 2 3.62 1.95
-10 3 2 5.53 1.95
10 -3 -2 4.7 2.31
-10 2 2 1.08 1.82
10 -2 -2 -0.22 2
-10 1 2 26.36 2.64
-10 0 2 12.98 1.89
10 0 -2 5.51 2.07
-10 -1 2 26.49 2.56
10 1 -2 23.7 2.66
-10 -2 2 -0.39 1.62
10 2 -2 3.28 1.82
10 3 -2 4.63 2.06
10 4 -2 -0.4 1.97
-11 3 2 7.07 2.13
-11 2 2 2.13 1.94
11 -2 -2 4.49 2.24
-11 1 2 4.03 1.89
11 -1 -2 1.65 2.04
-11 0 2 2.33 1.84
11 0 -2 0.24 2.02
-11 -1 2 4.76 1.86
11 1 -2 3.13 2.1
-11 -2 2 3.96 1.84
11 2 -2 1.36 2.1
11 3 -2 3.01 2.11
-12 3 2 4 2.23
-12 2 2 2.83 2.04
12 -2 -2 3.83 2.4
-12 1 2 2.25 2.1
12 -1 -2 1.5 2.2
-12 0 2 4.92 2.02
12 0 -2 1.62 2.18
-12 -1 2 4.95 2
12 1 -2 -2.46 2.1
12 3 -2 1.49 2.26
-13 2 2 2 2.16
13 -2 -2 0.48 2.62
-13 1 2 4.84 2.19
13 -1 -2 1.12 2.45
-13 0 2 0.9 2.21
13 0 -2 2.76 2.34
-13 -1 2 1.98 2.13
13 1 -2 2.55 2.31
13 2 -2 2.04 2.33
-14 1 2 -0.12 2.24
14 -1 -2 -0.42 2.55
-14 0 2 0.55 2.32
14 0 -2 0.66 2.54
-14 -1 2 1.02 2.34
14 1 -2 -1.64 2.46
12 0 3 1.06 2.79
-12 0 -3 1.67 2.35
11 2 3 2.53 2.6
11 1 3 3.42 2.52
-11 -1 -3 1.73 2.15
11 0 3 21.15 3.17
-11 0 -3 26.25 2.91
11 -1 3 4.18 2.74
-11 1 -3 6.2 2.27
-11 2 -3 3.87 2.36
10 3 3 3.33 2.42
10 2 3 3.64 2.4
10 1 3 2.78 2.22
-10 -1 -3 1.85 1.97
10 0 3 8.33 2.41
-10 0 -3 8.6 2.12
10 -1 3 2.19 2.51
-10 1 -3 -0.6 2.04
10 -2 3 8.15 2.72
-10 2 -3 3.78 2.25
-10 3 -3 0.35 2.22
9 3 3 2.69 2.21
9 2 3 5.28 2.13
9 1 3 0.36 2.07
-9 -1 -3 4.96 1.82
9 0 3 0.6 2.08
-9 0 -3 0.99 1.8
9 -1 3 2.88 2.32
-9 1 -3 5.74 1.93
9 -2 3 12.25 2.64
-9 2 -3 7.15 2.23
-9 3 -3 4.19 2.1
8 3 3 3.77 1.97
8 2 3 36.01 3.12
-8 -2 -3 32.28 3
8 1 3 25.77 2.81
-8 -1 -3 27.96 2.66
8 0 3 30.11 2.97
-8 0 -3 29.1 2.79
8 -1 3 27.33 2.95
-8 1 -3 25.74 2.68
8 -2 3 36.49 3.62
-8 2 -3 37.16 3.31
-8 3 -3 3.55 1.97
-8 4 -3 5.57 2.1
7 3 3 11.49 1.94
7 2 3 26.3 2.6
-7 -2 -3 26.67 2.47
7 1 3 19.11 2.37
-7 -1 -3 21 2.2
7 0 3 26.23 2.74
-7 0 -3 28.61 2.56
7 -1 3 23.44 2.65
-7 1 -3 20.55 2.38
7 -2 3 31.7 3.1
-7 2 -3 26.06 2.76
-7 3 -3 11.24 2.06
-7 4 -3 0.93 1.84
6 3 3 19.53 2.09
6 2 3 15.21 1.92
-6 -2 -3 17.14 1.82
6 1 3 14.07 1.96
-6 -1 -3 17.45 1.84
6 0 3 14.82 2.01
-6 0 -3 15.42 1.86
6 -1 3 23.31 2.45
-6 1 -3 16.65 2.15
-6 2 -3 14.7 2.05
-6 3 -3 18.67 2.29
-6 4 -3 2.65 1.77
5 2 3 13.43 1.65
5 2 3 12.7 1.48
-5 -2 -3 10.14 1.42
5 1 3 68.39 4.66
-5 -1 -3 60.16 4.56
5 0 3 19.8 2.18
-5 0 -3 18.44 1.96
5 -1 3 67.94 5.34
-5 1 -3 76.94 5.25
-5 2 -3 16.28 1.99
-5 3 -3 28.35 2.66
-5 4 -3 8.43 1.88
-5 5 -3 -0.27 1.88
4 3 3 3.06 0.97
-4 -3 -3 4.36 0.96
4 2 3 56.22 3.86
4 2 3 53.36 3.79
-4 -2 -3 49.64 3.77
4 1 3 88.1 6.1
4 1 3 88.18 6.17
-4 -1 -3 87.79 6.09
4 0 3 5.67 1.39
4 0 3 12.86 1.69
-4 0 -3 10.22 1.48
4 -1 3 106.43 7.43
-4 1 -3 105.57 7.37
-4 2 -3 61.26 4.48
-4 3 -3 5.94 1.6
-4 3 -3 6.11 1.54
-4 4 -3 7.98 1.76
-4 5 -3 3.05 1.86
3 3 3 34.9 2.64
-3 -3 -3 38.08 2.61
3 2 3 7.22 1.14
-3 -2 -3 11.77 1.17
3 1 3 43.45 3.39
3 1 3 43.97 3.47
-3 -1 -3 50.53 3.37
3 0 3 188.9 12.77
-3 0 -3 186.9 12.73
-3 1 -3 47.44 3.65
-3 1 -3 49.91 3.67
-3 2 -3 11.26 1.58
-3 3 -3 40.14 3.19
-3 4 -3 6.92 1.68
-3 5 -3 3.41 1.65
-2 -2 -3 8.8 1.03
-2 -2 -3 7.66 1
2 1 3 17.42 1.64
-2 -1 -3 18.48 1.62
-2 -1 -3 17 1.71
2 0 3 9.46 1.26
-2 0 -3 9.76 1.31
-2 1 -3 8.5 1.26
-2 2 -3 2.82 1.22
2 -3 3 39.91 2.91
-2 3 -3 34.38 2.94
-2 4 -3 23.89 2.34
-2 5 -3 5.83 1.55
1 2 3 50.97 3.27
1 2 3 49.41 3.25
-1 -2 -3 45.53 3.28
-1 -2 -3 42.77 3.26
1 1 3 113.83 7.37
-1 -1 -3 102.78 7.39
-1 -1 -3 108.96 7.37
1 0 3 65.29 4.56
-1 0 -3 64.65 4.56
-1 1 -3 119.03 8.14
1 -2 3 49.04 3.71
-1 2 -3 52.84 3.74
-1 2 -3 51.66 3.78
-1 3 -3 31.22 2.48
-1 3 -3 27.67 2.46
-1 4 -3 5.42 1.36
-1 5 -3 8.37 1.46
0 1 3 122.47 8.01
0 1 3 120.45 8
0 -1 -3 112.31 8
0 0 3 20.58 1.77
0 0 3 21.13 1.8
0 0 -3 21.66 1.84
0 -1 3 119.09 8.47
0 1 -3 130.25 8.49
0 -2 3 60.83 4.47
0 -2 3 62.18 4.47
0 2 -3 68.78 4.53
0 -3 3 23.78 2.2
0 3 -3 32.33 2.28
0 4 -3 18.75 1.8
0 5 -3 4.28 1.28
1 -2 -3 45.3 3.09
-1 1 3 32.26 2.64
-1 1 3 32.21 2.65
1 -1 -3 46.47 2.65
-1 0 3 20.55 1.76
-1 0 3 21.73 1.75
1 0 -3 20.9 1.81
1 1 -3 30.63 2.44
1 1 -3 31.39 2.35
-1 -2 3 47.14 3.41
-1 -2 3 50.05 3.43
1 2 -3 47.04 3.47
1 2 -3 46.48 3.42
-1 -3 3 57.1 3.7
1 3 -3 47 3.72
1 4 -3 11.66 1.45
1 5 -3 6.35 1.28
-2 2 3 52.1 3.82
-2 2 3 53.05 3.83
2 -2 -3 59.62 3.85
2 -2 -3 57.44 3.82
-2 1 3 126.8 8.65
-2 1 3 126.01 8.66
2 -1 -3 128.93 8.66
2 -1 -3 130.59 8.66
-2 0 3 0.49 0.85
-2 0 3 1.53 0.92
2 0 -3 -0.56 0.95
-2 -1 3 132.86 8.57
2 1 -3 122.12 8.57
2 1 -3 123.49 8.56
-2 -2 3 56.92 3.85
-2 -2 3 57.45 3.86
2 2 -3 52.88 3.85
2 2 -3 50.11 3.87
-2 -3 3 34.11 2.56
2 3 -3 34.58 2.6
2 3 -3 32.79 2.54
2 4 -3 16.84 1.7
2 5 -3 3.78 1.05
-3 3 3 48.86 3.39
-3 3 3 48.99 3.38
3 -3 -3 47.64 3.41
-3 2 3 36.31 2.61
-3 2 3 39.03 2.64
3 -2 -3 34.54 2.68
3 -2 -3 33.04 2.61
-3 1 3 89.16 6.14
-3 1 3 92.52 6.13
3 -1 -3 88.23 6.14
3 -1 -3 89.01 6.14
-3 0 3 59.1 4.17
-3 0 3 60.21 4.21
3 0 -3 59.55 4.2
3 0 -3 59.08 4.18
-3 -1 3 86.5 6.05
3 1 -3 90.82 6.08
3 1 -3 87.03 6.05
-3 -2 3 30.8 2.53
-3 -2 3 31.61 2.56
3 2 -3 36.01 2.56
3 2 -3 35.77 2.63
-3 -3 3 47.03 3.56
3 3 -3 53.46 3.61
3 3 -3 49.61 3.56
3 4 -3 1.63 1.05
3 5 -3 3.29 1.01
-4 4 3 5.76 1.08
-4 3 3 26.17 2.11
-4 3 3 27.23 2.12
4 -3 -3 27 2.15
-4 2 3 108.51 7.17
-4 2 3 106.97 7.15
4 -2 -3 98.72 7.19
-4 1 3 101.54 6.74
-4 1 3 104.08 6.76
4 -1 -3 91.48 6.77
4 -1 -3 96.45 6.74
-4 0 3 45.56 3.31
4 0 -3 45.2 3.33
-4 -1 3 92.59 6.73
4 1 -3 100.64 6.74
4 1 -3 101.36 6.75
-4 -2 3 96.99 6.91
4 2 -3 102.02 6.91
4 2 -3 103.23 6.91
-4 -3 3 25.26 2.04
4 3 -3 25.4 2.07
4 3 -3 24.51 2.08
4 4 -3 3.35 1.08
-5 4 3 12.21 1.51
-5 3 3 21.79 2.09
-5 3 3 22.36 2.06
5 -3 -3 27.62 2.12
-5 2 3 21.75 2.03
-5 2 3 21.87 1.99
5 -2 -3 24.75 2.11
-5 1 3 34.11 2.53
-5 1 3 34.76 2.5
5 -1 -3 26.48 2.64
-5 0 3 16.14 1.75
5 0 -3 19.51 1.84
-5 -1 3 28.35 2.53
5 1 -3 35.15 2.61
5 1 -3 34.09 2.52
-5 -2 3 24.04 1.91
5 2 -3 20.91 1.96
5 2 -3 20.88 1.94
-5 -3 3 26.64 1.89
5 3 -3 19.58 1.9
5 3 -3 18.89 1.92
5 4 -3 7.35 1.24
-6 5 3 3.83 1.36
-6 4 3 5.41 1.32
-6 3 3 19.3 1.97
-6 3 3 20.8 2.04
6 -3 -3 20.17 2.07
-6 2 3 44.09 3.28
6 -2 -3 41.79 3.3
-6 1 3 78.98 5.46
-6 1 3 80.15 5.5
6 -1 -3 75.19 5.56
-6 0 3 5.09 1.21
6 0 -3 3.97 1.35
6 0 -3 2.67 1.16
-6 -1 3 69.49 5.27
6 1 -3 80.6 5.33
-6 -2 3 41.74 3.05
6 2 -3 39.3 3.1
-6 -3 3 18.48 1.78
6 3 -3 17.73 1.88
6 3 -3 16.98 1.81
6 4 -3 5.14 1.39
-7 5 3 2.91 1.5
-7 4 3 0.61 1.36
-7 3 3 50.15 3.63
7 -3 -3 43 3.67
-7 2 3 10.29 1.35
-7 2 3 9.12 1.49
7 -2 -3 5.66 1.59
-7 1 3 87.14 6.16
7 -1 -3 88.53 6.24
-7 0 3 58.26 4.39
7 0 -3 62.46 4.49
-7 -1 3 82.6 5.93
7 1 -3 85.4 5.99
7 1 -3 86.27 5.95
-7 -2 3 9.01 1.39
7 2 -3 6.75 1.47
-7 -3 3 39.54 3.08
7 3 -3 40.96 3.19
7 4 -3 2.39 1.69
-8 5 3 4.48 1.64
-8 4 3 1.16 1.55
-8 3 3 58.17 4.51
8 -3 -3 61.82 4.6
-8 2 3 6.98 1.53
8 -2 -3 4.17 1.75
-8 1 3 32.93 2.76
8 -1 -3 31.94 2.87
-8 0 3 7.32 1.47
8 0 -3 7.3 1.74
-8 -1 3 29.32 2.66
8 1 -3 33.4 2.84
-8 -2 3 3.01 1.44
8 2 -3 5.35 1.42
8 2 -3 6.62 1.73
-8 -3 3 55.48 3.98
8 3 -3 50.91 4.09
8 4 -3 0.45 1.79
-9 4 3 2.4 1.74
-9 3 3 13.95 2.08
9 -3 -3 12.07 2.29
-9 2 3 4.65 1.65
9 -2 -3 0.87 1.84
-9 1 3 38.92 3.27
9 -1 -3 40.66 3.36
-9 0 3 17.17 1.95
9 0 -3 12.2 2.09
-9 -1 3 39.36 3.21
9 1 -3 39.38 3.38
-9 -2 3 5.2 1.53
9 2 -3 1.62 1.82
9 3 -3 10.42 2.09
9 4 -3 -0.64 1.75
-10 4 3 -0.42 1.86
-10 3 3 5.44 1.93
10 -3 -3 4.96 2.22
-10 2 3 -0.75 1.72
10 -2 -3 1.67 1.99
-10 1 3 22.28 2.37
-10 0 3 1.11 1.61
10 0 -3 1.43 1.85
-10 -1 3 19.5 2.34
10 1 -3 20.95 2.49
-10 -2 3 3.69 1.67
10 2 -3 2.99 1.92
10 3 -3 3.35 1.93
10 4 -3 0.18 1.9
-11 3 3 5.88 2.04
-11 2 3 1.14 1.91
11 -2 -3 -0.44 2.11
-11 1 3 12.57 1.97
11 -1 -3 4.84 2.19
11 0 -3 10.81 2.11
-11 -1 3 10.94 2
11 1 -3 9.64 2.19
-11 -2 3 1.86 1.76
11 2 -3 1.06 1.95
11 3 -3 0.54 1.96
-12 3 3 -0.03 2.08
-12 2 3 0.28 2.05
12 -2 -3 -2.3 2.29
-12 1 3 5.13 1.97
12 -1 -3 2.68 2.2
-12 0 3 0.27 1.9
12 0 -3 4.72 2.27
-12 -1 3 3.95 1.86
12 1 -3 0.28 2.09
-12 -2 3 -0.65 1.81
12 2 -3 0.69 2.05
12 3 -3 2.98 2.3
-13 2 3 2.34 2.17
13 -2 -3 0.43 2.53
-13 1 3 5.08 2.2
13 -1 -3 5.78 2.43
-13 0 3 -0.5 1.99
13 0 -3 0.08 2.28
-13 -1 3 7 2.11
13 1 -3 1.15 2.34
13 2 -3 -0.33 2.28
-14 1 3 5.08 2.37
14 -1 -3 2.59 2.57
-14 0 3 1.4 2.23
14 0 -3 0.53 2.47
-14 -1 3 3.1 2.22
14 1 -3 1.18 2.49
11 1 4 3.54 2.69
11 0 4 15.52 2.91
-11 0 -4 8.28 2.52
-11 1 -4 -0.93 2.34
10 2 4 11.09 2.73
10 1 4 7.88 2.57
-10 -1 -4 4.14 2.22
10 0 4 26.57 3.17
-10 0 -4 23.2 2.93
-10 1 -4 9.34 2.34
-10 2 -4 9.32 2.41
9 2 4 10.73 2.43
9 1 4 10.62 2.43
-9 -1 -4 5.65 2.1
9 0 4 15.04 2.67
-9 0 -4 16.09 2.39
9 -1 4 8.78 2.55
-9 1 -4 5.84 2.16
-9 2 -4 9.89 2.34
-9 3 -4 3.06 2.25
8 2 4 5.49 2.1
8 1 4 3.28 2.12
-8 -1 -4 1.55 1.8
8 0 4 57.93 4.57
-8 0 -4 55.17 4.43
8 -1 4 3.17 2.3
-8 1 -4 2.11 1.93
-8 2 -4 6.43 2.12
-8 3 -4 4.53 2.12
7 2 4 19.85 2.32
-7 -2 -4 16.18 2.1
7 1 4 4.59 1.97
-7 -1 -4 4.8 1.69
7 0 4 48.06 3.92
-7 0 -4 45.65 3.76
-7 1 -4 4.46 1.84
-7 2 -4 18.36 2.41
-7 3 -4 5.84 2.04
-7 4 -4 8.67 2.16
-6 -2 -4 35.62 2.93
6 1 4 21.79 2.3
-6 -1 -4 18.41 2.11
6 0 4 41.35 3.54
-6 0 -4 42.16 3.38
-6 1 -4 18.15 2.23
-6 2 -4 35.06 3.1
-6 3 -4 3.21 1.84
-6 4 -4 18.96 2.45
-5 -2 -4 48.75 3.62
5 1 4 7.46 1.68
5 1 4 7.13 1.42
-5 -1 -4 9.47 1.48
5 0 4 46.88 3.7
-5 0 -4 45.27 3.56
-5 1 -4 8.95 1.67
-5 2 -4 49.12 3.85
-5 3 -4 -0.59 1.63
-5 4 -4 20.04 2.41
-5 5 -4 -1.9 1.96
4 2 4 47.99 3.69
-4 -2 -4 53.39 3.68
-4 -1 -4 21.52 2
-4 0 -4 51.27 3.83
-4 1 -4 20.26 2.1
-4 2 -4 52.22 3.97
-4 3 -4 4.52 1.67
-4 4 -4 17.13 2.19
-4 5 -4 0.78 1.93
3 3 4 4.04 0.99
3 3 4 4.37 0.96
-3 -3 -4 4.15 0.93
3 2 4 70.83 4.89
-3 -2 -4 69.4 4.88
3 1 4 6.02 1.26
-3 -1 -4 8.17 1.25
3 0 4 218.5 14.93
-3 0 -4 223.24 14.93
-3 1 -4 9.27 1.52
-3 2 -4 80.77 5.72
3 -3 4 4.68 1.58
-3 3 -4 5.94 1.61
-3 4 -4 8.77 1.88
-3 5 -4 2.1 1.77
2 2 4 40.18 2.76
-2 -2 -4 35.04 2.76
2 1 4 5.51 1.2
-2 -1 -4 8.58 1.31
-2 -1 -4 5.93 1.19
-2 1 -4 9.99 1.53
-2 1 -4 8.48 1.43
-2 2 -4 45.08 3.45
2 -3 4 15.55 1.75
-2 3 -4 11.91 1.76
-2 4 -4 28.1 2.62
-2 5 -4 10.25 1.81
1 2 4 65.38 4.63
1 2 4 64.61 4.61
-1 -2 -4 69.53 4.65
-1 -2 -4 69.8 4.63
1 1 4 63.07 4.33
1 1 4 61.29 4.32
-1 -1 -4 58.6 4.35
-1 -1 -4 62.21 4.3
1 0 4 23.57 2
-1 0 -4 24.49 2.11
1 -1 4 65.79 4.61
-1 1 -4 63.22 4.6
1 -2 4 76.12 5.25
-1 2 -4 72.71 5.27
1 -3 4 -0.19 1.19
-1 3 -4 1.91 1.4
-1 4 -4 26.34 2.39
-1 5 -4 1.09 1.42
0 2 4 33.5 2.58
0 2 4 34.31 2.61
0 -2 -4 41.75 2.6
0 1 4 82.12 5.66
0 1 4 83.86 5.67
0 -1 -4 81.8 5.67
0 0 4 170.99 11.6
0 0 4 169.06 11.6
0 0 -4 174.54 11.61
0 -1 4 85.15 6.02
0 1 -4 88.96 6.06
0 -2 4 44.62 3.02
0 2 -4 34.88 3.07
0 -3 4 22 1.97
0 3 -4 22.07 2.03
0 4 -4 11.63 1.64
0 5 -4 4.6 1.42
-1 2 4 66.45 4.18
-1 2 4 65.95 4.17
1 -2 -4 53.63 4.16
1 -2 -4 58 4.19
-1 1 4 11.44 1.26
-1 1 4 10.85 1.21
1 -1 -4 10.29 1.16
1 -1 -4 11.93 1.25
-1 0 4 234.04 15.76
-1 0 4 235.91 15.76
1 0 -4 232.56 15.77
-1 -1 4 13.06 1.49
1 1 -4 12.4 1.39
1 1 -4 13.61 1.51
-1 -2 4 57.85 4.59
1 2 -4 70.68 4.64
1 2 -4 67.48 4.59
-1 -3 4 22.94 1.86
1 3 -4 19.25 1.95
1 4 -4 2.62 1.29
1 5 -4 6.44 1.46
-2 2 4 38.69 2.69
-2 2 4 41.02 2.68
2 -2 -4 35.92 2.67
2 -2 -4 34.94 2.69
-2 1 4 5.24 0.94
-2 1 4 5.31 0.99
2 -1 -4 3.11 0.92
2 -1 -4 4.68 0.98
-2 0 4 23.46 1.98
-2 0 4 25.62 2.02
2 0 -4 21.68 2.02
-2 -1 4 4.53 1.11
2 1 -4 5.28 1.15
2 1 -4 5.85 1.2
-2 -2 4 36.45 2.87
2 2 -4 38.44 2.85
2 2 -4 39.89 2.94
-2 -3 4 1.01 1.02
2 3 -4 -0.03 1.03
2 3 -4 0.55 1.16
2 4 -4 26.76 2.33
2 5 -4 14.14 1.74
-3 3 4 14.46 1.3
-3 3 4 16.67 1.31
3 -3 -4 12.39 1.35
-3 2 4 50.52 3.89
-3 2 4 50.42 3.89
3 -2 -4 59.84 3.89
3 -2 -4 62.25 3.91
-3 1 4 42.01 3.09
-3 1 4 42.57 3.06
3 -1 -4 43.01 3.06
3 -1 -4 41.33 3.07
-3 0 4 6.12 1.07
-3 0 4 5.61 1.11
3 0 -4 5.17 1.18
-3 -1 4 39.75 3.09
3 1 -4 43.63 3.15
3 1 -4 42.13 3.07
-3 -2 4 59.5 3.81
3 2 -4 50.38 3.85
3 2 -4 48.73 3.8
-3 -3 4 12.89 1.58
3 3 -4 17.54 1.57
3 3 -4 15.29 1.69
3 4 -4 44.13 3.35
3 5 -4 1.15 1.14
-4 4 4 8.35 1.09
-4 3 4 22.49 1.83
-4 3 4 22.17 1.82
4 -3 -4 20.66 1.9
-4 2 4 77.28 5.42
-4 2 4 78.71 5.42
4 -2 -4 79.55 5.46
-4 1 4 30.84 2.51
-4 1 4 29.05 2.55
4 -1 -4 35.62 2.53
4 -1 -4 35.22 2.54
-4 0 4 271.05 18.03
4 0 -4 264.73 18.03
-4 -1 4 36.16 2.54
4 1 -4 29.9 2.51
4 1 -4 31.89 2.6
-4 -2 4 73.72 5.25
4 2 -4 75.46 5.25
4 2 -4 76.69 5.29
-4 -3 4 18.92 1.8
4 3 -4 20.31 1.82
4 3 -4 19.42 1.86
4 4 -4 8.91 1.36
4 5 -4 1.22 1.16
-5 4 4 4.32 1.07
-5 3 4 14.66 1.6
-5 3 4 13.42 1.62
5 -3 -4 18.96 1.75
-5 2 4 48.42 3.5
-5 2 4 44.64 3.45
5 -2 -4 50.71 3.59
-5 1 4 17.63 1.83
-5 1 4 18.42 1.8
5 -1 -4 23.76 1.91
-5 0 4 136.2 9.07
5 0 -4 129.6 9.07
-5 -1 4 25.78 2.01
5 1 -4 18.6 2.05
-5 -2 4 48.05 3.48
5 2 -4 46.88 3.52
-5 -3 4 17.67 1.64
5 3 -4 14.41 1.7
5 3 -4 14.02 1.69
5 4 -4 4.32 1.27
5 5 -4 6.67 1.32
-6 4 4 10.17 1.47
-6 3 4 2.68 1.17
-6 3 4 3.4 1.33
6 -3 -4 0.94 1.4
-6 2 4 29.89 2.35
6 -2 -4 24.55 2.47
-6 1 4 8.63 1.24
-6 1 4 9.81 1.39
6 -1 -4 13.47 1.56
-6 0 4 36.59 2.86
6 0 -4 37.57 2.96
6 1 -4 7.11 1.32
6 1 -4 5.64 1.22
-6 -2 4 24.69 2.23
6 2 -4 28.34 2.29
-6 -3 4 1.86 1.12
6 3 -4 2.48 1.23
6 3 -4 3.16 1.23
6 4 -4 5.59 1.37
6 5 -4 4.4 1.45
-7 5 4 0.32 1.37
-7 4 4 8.23 1.56
7 -3 -4 11.7 1.83
-7 2 4 27.66 2.45
7 -2 -4 27.27 2.55
-7 1 4 100.72 6.93
7 -1 -4 98.44 6.99
-7 0 4 9.97 1.49
7 0 -4 11.15 1.63
-7 -1 4 91.34 6.61
7 1 -4 98.79 6.64
-7 -2 4 22.94 2.11
7 2 -4 24.84 2.22
-7 -3 4 15.13 1.83
7 3 -4 19.16 1.89
7 4 -4 6.96 1.59
7 5 -4 1.24 1.71
-8 5 4 1.63 1.58
-8 4 4 1.66 1.58
-8 3 4 2.83 1.62
8 -3 -4 1.54 1.78
-8 2 4 49.45 3.77
8 -2 -4 48.93 3.87
-8 1 4 4.47 1.4
8 -1 -4 7.46 1.73
-8 0 4 22.43 2.15
8 0 -4 24.47 2.4
-8 -1 4 6.1 1.38
8 1 -4 3.76 1.5
-8 -2 4 47.16 3.58
8 2 -4 46.38 3.65
-8 -3 4 -0.4 1.34
8 3 -4 0.15 1.51
8 4 -4 0.77 1.61
8 5 -4 1.03 1.85
-9 4 4 3.07 1.77
-9 3 4 6.3 1.88
9 -3 -4 7.88 2.07
-9 2 4 43.06 3.54
9 -2 -4 46.7 3.7
-9 1 4 0.93 1.45
9 -1 -4 5.95 1.83
-9 0 4 19.73 2.17
9 0 -4 21.32 2.41
-9 -1 4 5.75 1.58
9 1 -4 2.89 1.79
-9 -2 4 44.3 3.46
9 2 -4 44.92 3.63
9 3 -4 4.5 1.89
9 4 -4 -0.34 1.82
-10 4 4 5.82 2.01
-10 3 4 16.04 2.33
10 -3 -4 13.78 2.41
-10 2 4 11.14 1.9
10 -2 -4 10.52 2.22
-10 1 4 6.75 1.67
10 -1 -4 5 2.01
-10 0 4 7.47 1.71
10 0 -4 6.49 2.05
-10 -1 4 6.98 1.73
10 1 -4 8.81 2.07
-10 -2 4 10.63 1.79
10 2 -4 10.03 2.09
10 3 -4 9.14 2.09
10 4 -4 1.19 1.97
-11 4 4 -0.21 2.07
-11 3 4 4.96 2.1
-11 2 4 12.66 2.09
11 -2 -4 10.44 2.34
-11 1 4 37.59 3.36
11 -1 -4 41.9 3.57
-11 0 4 12.57 2.02
11 0 -4 11.29 2.27
-11 -1 4 40.96 3.58
11 1 -4 45.38 3.8
-11 -2 4 9.51 1.91
11 2 -4 9.03 2.29
11 3 -4 4.77 2.13
11 4 -4 0.76 2.03
-12 3 4 3.51 2.13
-12 2 4 4.15 2.02
12 -2 -4 4.93 2.36
-12 1 4 4.04 1.93
12 -1 -4 7.19 2.35
-12 0 4 1.74 1.88
12 0 -4 2.21 2.1
-12 -1 4 3.86 1.88
12 1 -4 2.79 2.18
-12 -2 4 1.83 1.85
12 2 -4 1.91 2.18
12 3 -4 2.63 2.15
-13 2 4 -2.55 2.11
13 -2 -4 -2.05 2.42
-13 1 4 0.15 2.02
13 -1 -4 -0.29 2.35
-13 0 4 -1.75 1.88
13 0 -4 -2.98 2.39
-13 -1 4 -0.42 1.93
13 1 -4 0.56 2.2
13 2 -4 -1.25 2.16
-14 1 4 4.15 2.22
14 -1 -4 2.81 2.57
-14 0 4 1.58 2.15
14 0 -4 0.03 2.48
-14 -1 4 4.54 2.18
14 1 -4 1.63 2.52
-10 0 -5 4.33 2.32
-10 1 -5 1.9 2.27
-10 2 -5 4.99 2.38
-9 -1 -5 11.26 2.3
-9 0 -5 -1.79 2.07
-9 1 -5 12.49 2.38
-9 2 -5 4.36 2.25
-9 3 -5 1.61 2.28
-8 -1 -5 21.4 2.57
-8 0 -5 0.74 1.93
-8 1 -5 21.65 2.65
-8 2 -5 5.62 2.18
-8 3 -5 5.83 2.27
-7 -1 -5 11.8 1.99
-7 0 -5 10.28 2
-7 1 -5 12.51 2.14
-7 2 -5 13.56 2.28
-7 3 -5 3.77 1.97
-7 4 -5 10.7 2.33
-6 -2 -5 29.99 2.62
-6 -1 -5 19.75 2.21
-6 0 -5 78.55 5.7
-6 1 -5 21.49 2.41
-6 2 -5 39.98 3.47
-6 3 -5 8.67 2.03
-6 4 -5 2.3 2.02
-5 -2 -5 8.4 1.49
-5 -1 -5 9.92 1.59
-5 0 -5 64.28 4.71
-5 1 -5 13.82 1.95
-5 2 -5 9 1.89
-5 3 -5 11.9 2.11
-5 4 -5 5.23 1.98
4 2 5 14.23 1.86
-4 -2 -5 21.29 1.81
-4 -1 -5 38.04 2.98
-4 0 -5 4.76 1.42
-4 1 -5 33.42 2.87
-4 2 -5 17.42 2.08
-4 3 -5 15.62 2.15
-4 4 -5 24.58 2.63
-4 5 -5 1.34 2
3 3 5 7.41 1.15
3 2 5 59.45 4.2
-3 -2 -5 57.81 4.19
-3 -1 -5 24.65 2.13
-3 0 -5 72.07 5.12
-3 1 -5 26.37 2.4
-3 2 -5 64.32 4.75
3 -3 5 12.19 1.91
-3 3 -5 11.89 1.89
-3 4 -5 23.25 2.55
-3 5 -5 8.44 2.07
2 3 5 6.74 0.98
2 3 5 7.26 0.96
-2 -3 -5 6.96 0.93
2 2 5 74.61 4.95
2 2 5 71.23 4.94
-2 -2 -5 66.67 4.93
2 1 5 46.04 3.26
-2 -1 -5 41.86 3.28
2 0 5 174.82 11.99
-2 0 -5 178.53 12.01
-2 1 -5 49.89 3.77
2 -2 5 77.06 5.43
-2 2 -5 74.99 5.42
2 -3 5 9.78 1.72
-2 3 -5 12.68 1.82
-2 4 -5 13.95 2.03
-2 5 -5 0.44 1.76
1 2 5 41.6 3.25
1 2 5 43.62 3.29
-1 -2 -5 52.33 3.27
1 1 5 30.25 2.31
1 1 5 29 2.31
-1 -1 -5 25.21 2.29
1 0 5 190.3 12.55
-1 0 -5 179.32 12.52
1 -1 5 27.25 2.49
-1 1 -5 29.97 2.49
1 -2 5 57.62 3.98
-1 2 -5 50.04 4.01
1 -3 5 11.24 1.75
-1 3 -5 16.39 1.83
-1 3 -5 15.27 1.9
-1 4 -5 17.84 2.08
-1 5 -5 0.65 1.66
0 2 5 37.04 2.72
0 2 5 33.8 2.7
0 -2 -5 41.42 2.72
0 1 5 12.18 1.48
0 1 5 12.16 1.48
0 -1 -5 16.1 1.49
0 0 5 48.7 3.57
0 0 5 48.28 3.52
0 0 -5 50.15 3.63
0 -1 5 17.14 1.75
0 -1 5 17.46 1.79
0 1 -5 18.86 1.89
0 -2 5 44.63 3.05
0 2 -5 34.2 3.08
0 -3 5 16.18 1.7
0 3 -5 12.38 1.73
0 4 -5 19.2 2.11
0 5 -5 4.04 1.57
-1 2 5 130.12 8.63
-1 2 5 138.34 8.63
1 -2 -5 114.07 8.63
-1 1 5 15.24 1.47
-1 1 5 14.36 1.49
1 -1 -5 13.17 1.4
1 -1 -5 15.6 1.48
-1 0 5 156.37 10.49
-1 0 5 153.03 10.48
1 0 -5 154.44 10.5
-1 -1 5 15.44 1.68
1 1 -5 14.72 1.77
-1 -2 5 116.59 8.59
1 2 -5 134.81 8.62
-1 -3 5 7.55 1.36
1 3 -5 7.61 1.48
1 4 -5 19.79 2.02
1 5 -5 2.1 1.47
-2 2 5 104.46 6.87
-2 2 5 101.67 6.87
2 -2 -5 97.53 6.87
2 -2 -5 100.93 6.88
-2 1 5 7.07 1.07
-2 1 5 8.51 1.11
2 -1 -5 4.18 1.15
2 -1 -5 3.53 1.02
-2 0 5 139.98 9.79
-2 0 5 147.3 9.81
2 0 -5 146.1 9.82
-2 -1 5 5.69 1.19
2 1 -5 7.2 1.34
-2 -2 5 98.47 7.01
2 2 -5 105.52 7.05
-2 -3 5 11.43 1.43
2 3 -5 9.59 1.51
2 4 -5 15.57 1.81
2 5 -5 -0.84 1.43
-3 3 5 2.5 0.86
-3 3 5 2.05 0.86
3 -3 -5 2.17 0.98
-3 2 5 46.14 3.25
-3 2 5 45.14 3.28
-3 1 5 12.18 1.21
-3 1 5 11.64 1.28
3 -1 -5 7.5 1.3
3 -1 -5 7.25 1.24
-3 0 5 20.77 1.86
-3 0 5 21.4 1.94
3 0 -5 23.29 2.02
-3 -1 5 10.18 1.37
3 1 -5 9.98 1.43
-3 -2 5 62.78 3.91
3 2 -5 44.67 3.91
-3 -3 5 2.51 1.18
3 3 -5 2.35 1.31
3 3 -5 2.62 1.12
3 4 -5 23.88 2.28
3 5 -5 0.7 1.39
-4 3 5 3.83 1.05
-4 3 5 4.21 1
4 -3 -5 5.32 1.2
-4 2 5 38.31 2.74
-4 2 5 38.5 2.79
4 -2 -5 34.89 2.8
-4 1 5 15.74 1.72
-4 1 5 16.06 1.64
4 -1 -5 16.82 1.69
4 -1 -5 18.14 1.62
-4 0 5 126.09 8.6
4 0 -5 126.11 8.62
-4 -1 5 19.54 1.8
4 1 -5 16.42 1.91
-4 -2 5 34.41 2.74
4 2 -5 36.12 2.82
-4 -3 5 5.13 1.2
4 3 -5 1.92 1.16
4 3 -5 4.2 1.38
4 4 -5 4.16 1.41
4 5 -5 1.94 1.21
-5 4 5 18.38 1.69
-5 3 5 8.85 1.3
-5 3 5 7.97 1.14
5 -3 -5 5.49 1.37
-5 2 5 67.91 4.68
-5 2 5 70.88 4.69
5 -2 -5 60.15 4.71
-5 1 5 12.92 1.37
-5 1 5 12.45 1.4
5 -1 -5 10.84 1.45
-5 0 5 73.5 4.84
-5 0 5 66.07 4.83
5 0 -5 67.66 4.82
5 0 -5 66.18 4.83
-5 -1 5 13.75 1.43
5 1 -5 8.62 1.42
5 1 -5 11.44 1.51
-5 -2 5 57.21 4.51
5 2 -5 69.76 4.55
-5 -3 5 6.66 1.31
5 3 -5 6.04 1.43
5 4 -5 19.19 1.92
5 5 -5 -0.31 1.33
-6 4 5 27.97 2.34
-6 3 5 5.44 1.16
-6 3 5 5.61 1.38
6 -3 -5 4.15 1.49
-6 2 5 40.31 3.23
6 -2 -5 47.5 3.38
-6 1 5 29.27 2.37
6 -1 -5 29.22 2.46
-6 0 5 40.58 3.16
6 0 -5 42.54 3.19
-6 -1 5 31.5 2.6
6 1 -5 33.55 2.67
6 1 -5 31.84 2.62
-6 -2 5 44.2 3.25
6 2 -5 41.53 3.29
-6 -3 5 5.07 1.28
6 3 -5 2.59 1.38
6 4 -5 24.4 2.27
6 5 -5 0.56 1.39
-7 4 5 26.66 2.4
-7 3 5 0.4 1.4
7 -3 -5 2.38 1.6
-7 2 5 18.62 1.95
-7 1 5 -0.43 1.15
7 -1 -5 0.02 1.39
-7 0 5 59.01 4.26
7 0 -5 59.19 4.34
-7 -1 5 -0.12 1.12
7 1 -5 0.72 1.26
7 2 -5 17.9 2.01
7 2 -5 20.46 1.96
-7 -3 5 3.9 1.3
7 3 -5 1.11 1.4
7 4 -5 20.41 2.15
7 5 -5 5.45 1.68
-8 5 5 -0.67 1.5
-8 4 5 0.37 1.56
-8 3 5 2.07 1.58
8 -3 -5 1.86 1.88
-8 2 5 31.56 2.66
8 -2 -5 29.16 2.9
-8 1 5 2.19 1.19
8 -1 -5 3 1.56
-8 0 5 120.42 8.37
8 0 -5 121.56 8.41
-8 -1 5 3.36 1.29
8 1 -5 3.24 1.45
-8 -2 5 24.41 2.36
8 2 -5 28.82 2.48
-8 -3 5 -0.35 1.33
8 3 -5 -0.22 1.46
8 4 -5 1.44 1.7
8 5 -5 -0.78 1.72
-9 4 5 10.77 1.95
-9 3 5 2.96 1.69
9 -3 -5 1.45 1.99
-9 2 5 34.74 2.83
9 -2 -5 28.05 3.03
-9 1 5 1.14 1.39
9 -1 -5 2.73 1.78
-9 0 5 78.99 5.76
9 0 -5 83.22 5.88
-9 -1 5 1.03 1.41
9 1 -5 1.1 1.61
-9 -2 5 29.61 2.83
9 2 -5 34.61 2.95
-9 -3 5 2.5 1.53
9 3 -5 3.62 1.72
9 4 -5 6.51 1.86
-10 4 5 9.47 2.06
-10 3 5 0.59 1.83
-10 2 5 8.45 1.82
10 -2 -5 9.68 2.13
-10 1 5 1.25 1.56
10 -1 -5 -0.65 1.93
-10 0 5 3.54 1.6
10 0 -5 2.66 1.98
-10 -1 5 0.94 1.44
10 1 -5 -0.73 1.8
-10 -2 5 9.77 1.65
10 2 -5 6.77 1.95
10 3 -5 -2.35 1.79
10 4 -5 5.48 2.1
-11 4 5 4.15 2.09
-11 3 5 5.64 2.07
-11 2 5 8.98 1.93
11 -2 -5 10.27 2.24
-11 1 5 1.04 1.71
11 -1 -5 2.38 2.06
-11 0 5 3.35 1.73
11 0 -5 4.26 2.11
-11 -1 5 0.68 1.69
11 1 -5 0.25 2.05
-11 -2 5 15.34 2.02
11 2 -5 9.2 2.34
11 3 -5 2.62 2.12
11 4 -5 2.84 2.2
-12 3 5 2.56 2.19
-12 2 5 9.93 2.07
12 -2 -5 10.36 2.51
-12 1 5 0.21 1.82
12 -1 -5 2.07 2.17
-12 0 5 34.83 3.25
12 0 -5 36.19 3.5
-12 -1 5 -0.28 1.8
12 1 -5 0.98 2.26
-12 -2 5 11.96 2.02
12 2 -5 7.99 2.43
12 3 -5 1.35 2.3
-13 2 5 7.07 2.11
13 -2 -5 3.4 2.46
-13 1 5 1.51 1.91
13 -1 -5 -1.47 2.26
-13 0 5 22.26 2.51
13 0 -5 10.52 2.61
-13 -1 5 4.45 2.06
13 1 -5 0.18 2.33
-13 -2 5 6.54 2.09
13 2 -5 5.97 2.4
-14 2 5 1.52 2.19
14 -2 -5 -3.83 2.55
-14 1 5 4.73 2.16
14 -1 -5 1.55 2.61
-14 0 5 2.82 2.1
14 0 -5 -2.92 2.3
-14 -1 5 4.12 2.14
14 1 -5 -1.11 2.37
14 2 -5 0.78 2.36
-10 0 -6 2.9 2.32
-10 1 -6 3.4 2.39
-9 0 -6 2.16 2.14
-9 1 -6 6.56 2.32
-9 2 -6 0.03 2.28
-8 -1 -6 13.29 2.21
-8 0 -6 -0.18 1.96
-8 1 -6 16.68 2.55
-8 2 -6 -2.11 2.14
-8 3 -6 19.76 2.75
-7 -1 -6 4.13 1.83
-7 0 -6 6.63 1.94
-7 1 -6 5.48 2.05
-7 2 -6 -2.17 2.02
-7 3 -6 6.36 2.26
-6 -1 -6 21.79 2.34
-6 0 -6 -0.48 1.67
-6 1 -6 26.25 2.75
-6 2 -6 4.24 1.92
-6 3 -6 14.75 2.45
-6 4 -6 2.17 2.11
-5 -2 -6 4.66 1.45
-5 -1 -6 64.73 4.75
-5 0 -6 0.87 1.58
-5 1 -6 64.54 4.83
-5 2 -6 10.77 1.99
-5 3 -6 22.27 2.64
-5 4 -6 -0.18 1.92
4 3 6 33.35 2.69
-4 -2 -6 10.53 1.6
-4 -1 -6 74.23 5.29
-4 0 -6 5.86 1.55
-4 1 -6 81.94 5.87
-4 2 -6 9.02 1.95
4 -3 6 30.07 3.08
-4 3 -6 36.56 3.06
-4 4 -6 5.29 2.05
3 3 6 14.04 1.55
3 2 6 17.99 1.91
3 2 6 17.47 1.86
-3 -2 -6 17.03 1.83
-3 -1 -6 17.27 1.88
-3 0 -6 17.25 1.93
-3 1 -6 18.41 2.1
3 -2 6 20.01 2.28
-3 2 -6 19.37 2.23
3 -3 6 20.95 2.35
-3 3 -6 18.64 2.3
-3 4 -6 2 1.95
-3 5 -6 22.09 2.65
2 3 6 28.36 2.2
2 2 6 11.93 1.42
2 2 6 10.48 1.42
-2 -2 -6 10.34 1.41
2 1 6 22.48 2.28
-2 -1 -6 27.98 2.24
2 0 6 27.91 2.5
-2 0 -6 27.86 2.46
-2 1 -6 21.53 2.17
2 -2 6 11.71 1.83
-2 2 -6 12.7 1.81
2 -3 6 40.21 3.07
-2 3 -6 31.7 3.12
-2 4 -6 -0.86 1.8
-2 5 -6 5.99 2.01
1 3 6 41.08 2.91
1 3 6 40.14 2.92
1 2 6 4.2 1.09
1 2 6 5.24 1.07
-1 -2 -6 5.55 1.07
1 1 6 179.92 12.22
1 1 6 177.62 12.23
-1 -1 -6 183.34 12.23
1 0 6 1.44 1.19
1 0 6 0.83 1.25
-1 0 -6 -0.33 1.24
1 -1 6 193.71 12.91
-1 1 -6 185.77 12.91
1 -2 6 4.18 1.48
-1 2 -6 8.34 1.56
1 -3 6 43.05 3.51
-1 3 -6 46.94 3.58
-1 4 -6 6.48 1.79
-1 5 -6 3.74 1.88
0 3 6 20.59 1.6
0 3 6 21.01 1.61
0 -3 -6 17.85 1.65
0 2 6 15.1 1.49
0 2 6 15.49 1.55
0 -2 -6 17.29 1.54
0 1 6 121.78 8.28
0 1 6 119.06 8.28
0 -1 -6 122.54 8.27
0 0 6 7.51 1.35
0 0 6 6.5 1.26
0 0 -6 8.52 1.44
0 -1 6 132.81 8.84
0 1 -6 124.63 8.86
0 -2 6 18.46 1.9
0 2 -6 16.48 1.99
0 -3 6 21.64 2.21
0 3 -6 23.32 2.26
0 4 -6 13.64 1.99
0 5 -6 10.79 1.88
-1 3 6 33.82 2.5
1 -3 -6 35.23 2.5
-1 2 6 38.49 2.75
-1 2 6 39.1 2.76
1 -2 -6 34.39 2.76
-1 1 6 43.02 3.06
-1 1 6 43.45 3.07
1 -1 -6 36.66 3.08
-1 0 6 61.19 4.41
1 0 -6 61.8 4.43
-1 -1 6 38.76 3.3
1 1 -6 46.73 3.36
1 1 -6 44.5 3.24
-1 -2 6 35.26 2.92
1 2 -6 39.29 3.02
-1 -3 6 35.67 2.79
1 3 -6 32.48 2.88
1 4 -6 3.81 1.6
1 5 -6 15.2 2.01
-2 3 6 23.07 1.83
-2 3 6 24.37 1.85
2 -3 -6 24.82 1.89
-2 2 6 22.29 1.87
-2 2 6 21.67 1.87
2 -2 -6 24.13 1.92
-2 1 6 22.79 2.13
-2 1 6 24.24 2.13
2 -1 -6 29.94 2.17
-2 0 6 434.33 29
2 0 -6 429.44 29.01
-2 -1 6 33.55 2.35
2 1 -6 24.85 2.41
2 1 -6 23.77 2.23
-2 -2 6 23.75 2.13
2 2 -6 24.51 2.24
-2 -3 6 23.2 2.1
2 3 -6 22.78 2.21
2 4 -6 3.34 1.5
2 5 -6 6.01 1.65
-3 3 6 17.38 1.45
-3 3 6 17.18 1.47
3 -3 -6 12.57 1.58
-3 2 6 12.2 1.34
-3 2 6 11.67 1.42
3 -2 -6 15.26 1.44
-3 1 6 167.21 11.18
-3 1 6 163.7 11.17
3 -1 -6 163.68 11.18
-3 0 6 9.93 1.4
3 0 -6 9.74 1.44
-3 -1 6 160.99 10.82
3 1 -6 162.3 10.84
3 1 -6 153.88 10.81
-3 -2 6 16.39 1.73
3 2 -6 15.12 1.75
-3 -3 6 14.72 1.73
3 3 -6 16.78 1.84
3 4 -6 16.87 2.04
3 5 -6 5.67 1.68
-4 3 6 28.25 2.19
-4 3 6 26.19 2.16
4 -3 -6 28.72 2.32
-4 2 6 14.67 1.54
-4 2 6 14.32 1.47
4 -2 -6 14.55 1.51
-4 1 6 23.16 1.93
-4 1 6 21.58 1.94
4 -1 -6 20.74 1.99
-4 0 6 18.49 1.85
-4 0 6 20.98 1.88
4 0 -6 17.65 1.96
-4 -1 6 17.7 1.93
4 1 -6 21.57 2.07
4 1 -6 21.51 1.93
-4 -2 6 13.69 1.72
4 2 -6 17.82 1.87
-4 -3 6 29.92 2.45
4 3 -6 27.21 2.53
4 4 -6 14.04 1.9
4 5 -6 4.93 1.55
-5 4 6 2.37 1.09
-5 3 6 20.07 1.87
-5 3 6 17.33 1.82
5 -3 -6 22.33 2.08
-5 2 6 31.71 2.57
-5 2 6 34.96 2.64
5 -2 -6 34.73 2.66
-5 1 6 4.21 1.11
5 -1 -6 7.63 1.26
-5 0 6 44.38 3.31
-5 0 6 43.5 3.31
5 0 -6 44.88 3.34
5 1 -6 2.69 1.33
5 1 -6 2.64 1.19
-5 -2 6 31.4 2.58
5 2 -6 34.19 2.73
5 2 -6 30.63 2.6
-5 -3 6 21.36 2.06
5 3 -6 19.88 2.16
5 4 -6 2.14 1.48
5 5 -6 5.24 1.58
-6 4 6 1.55 1.28
-6 3 6 16.78 1.71
6 -3 -6 10.19 1.87
-6 2 6 24.26 2.21
6 -2 -6 27.79 2.34
-6 1 6 46.89 3.34
6 -1 -6 42.64 3.36
-6 0 6 76.63 5.24
6 0 -6 71.82 5.26
-6 -1 6 42.62 3.35
6 1 -6 45.96 3.39
-6 -2 6 24.75 2.2
6 2 -6 24.8 2.28
6 2 -6 22.93 2.17
-6 -3 6 12.56 1.7
6 3 -6 12.67 1.75
6 4 -6 1.8 1.5
6 5 -6 0.25 1.48
-7 4 6 5.27 1.55
-7 3 6 7.57 1.55
7 -3 -6 3.98 1.76
-7 2 6 4.18 1.25
7 -2 -6 9.52 1.59
-7 1 6 41.79 3.24
7 -1 -6 44.64 3.34
-7 0 6 0.46 1.15
7 0 -6 0.46 1.25
-7 -1 6 45.51 3.43
7 1 -6 44.63 3.47
7 2 -6 3.81 1.44
-7 -3 6 3.92 1.43
7 3 -6 6.4 1.55
7 4 -6 4.27 1.55
7 5 -6 1.01 1.59
-8 4 6 5.76 1.77
-8 3 6 11.59 1.8
8 -3 -6 8.79 2
-8 2 6 9.43 1.57
8 -2 -6 6.76 1.9
-8 1 6 14.33 1.86
8 -1 -6 19.14 2.09
-8 0 6 -0.86 1.15
8 0 -6 2.5 1.44
-8 -1 6 18.78 1.91
8 1 -6 16.04 2
-8 -2 6 6.7 1.45
8 2 -6 4.37 1.54
-8 -3 6 10.18 1.58
8 3 -6 7 1.65
8 4 -6 3.44 1.67
8 5 -6 1.43 1.83
-9 4 6 9.16 1.98
-9 3 6 5.02 1.74
-9 2 6 33.24 2.84
9 -2 -6 31.54 3.11
-9 1 6 4.09 1.35
9 -1 -6 5.01 1.74
-9 0 6 34.83 2.99
9 0 -6 36.53 3.13
-9 -1 6 5.67 1.5
9 1 -6 7.45 1.65
-9 -2 6 28.91 2.63
9 2 -6 30.67 2.75
-9 -3 6 8.07 1.64
9 3 -6 5.24 1.75
9 4 -6 2.77 1.92
-10 4 6 -0.52 1.95
-10 3 6 6.82 1.84
-10 2 6 6.78 1.73
10 -2 -6 3.14 2.13
-10 1 6 32.73 2.97
10 -1 -6 35.94 3.27
-10 0 6 37.43 3.07
10 0 -6 35.69 3.25
-10 -1 6 36.01 2.96
10 1 -6 30.07 3.07
-10 -2 6 4.82 1.74
10 2 -6 3.54 1.92
10 3 -6 3.05 1.91
10 4 -6 -0.22 1.95
-11 4 6 5.8 2.15
-11 3 6 3.44 1.9
-11 2 6 4.57 1.76
11 -2 -6 2.58 2.15
-11 1 6 9.31 1.88
11 -1 -6 8.68 2.25
-11 0 6 6.38 1.78
11 0 -6 2.16 2.14
-11 -1 6 9.2 1.72
11 1 -6 6.88 2.12
-11 -2 6 0.81 1.59
11 2 -6 0.25 1.97
11 3 -6 1.99 2
11 4 -6 1.2 2.24
-12 3 6 5.68 2.12
-12 2 6 -0.33 1.82
12 -2 -6 0.25 2.2
-12 1 6 2.03 1.85
12 -1 -6 1.29 2.23
-12 0 6 7.27 1.94
12 0 -6 7.33 2.33
-12 -1 6 1.3 1.81
12 1 -6 -0.55 2.23
-12 -2 6 2.19 1.85
12 2 -6 0.39 2.3
12 3 -6 4.09 2.32
-13 2 6 3.97 2.04
13 -2 -6 5.03 2.59
-13 1 6 5.87 2.03
13 -1 -6 4.1 2.35
-13 0 6 7.48 2.08
13 0 -6 2.01 2.38
-13 -1 6 5.69 2.02
13 1 -6 3.35 2.41
-13 -2 6 2.03 1.97
13 2 -6 1.74 2.45
-14 2 6 -0.98 2.09
14 -2 -6 2.37 2.64
-14 1 6 5.76 2.07
14 -1 -6 0.76 2.44
-14 0 6 2.26 2.11
14 0 -6 -2.07 2.39
-14 -1 6 6.54 2.2
14 1 -6 0.92 2.55
14 2 -6 -2.47 2.46
-9 0 -7 1.63 2.28
-9 1 -7 3.84 2.36
-8 0 -7 0.98 2.07
-8 1 -7 27.01 3.04
-8 2 -7 5.91 2.3
-7 -1 -7 20.42 2.46
-7 0 -7 -0.2 1.94
-7 1 -7 21.15 2.68
-7 2 -7 6.61 2.18
-7 3 -7 2.91 2.32
6 3 7 16.54 2.12
-6 -1 -7 3.33 1.67
-6 0 -7 3.4 1.86
-6 1 -7 2.11 1.86
-6 2 -7 10.84 2.33
6 -3 7 23.77 2.87
-6 3 -7 21.87 2.84
5 3 7 10.07 1.75
-5 -1 -7 6.96 1.68
-5 0 -7 -0.25 1.61
-5 1 -7 9.9 1.94
-5 2 -7 3.42 1.99
5 -3 7 10.58 2.36
-5 3 -7 9.88 2.19
-5 4 -7 3.86 2.18
4 3 7 14.92 1.84
4 2 7 10.79 1.75
-4 -2 -7 9.88 1.67
-4 -1 -7 43.31 3.45
-4 0 -7 17.27 2.13
-4 1 -7 58.43 4.48
4 -2 7 8.35 2.08
-4 2 -7 12.13 2.06
4 -3 7 15.21 2.37
-4 3 -7 17.81 2.34
-4 4 -7 1.73 2.13
3 3 7 11.14 1.51
3 2 7 17.6 1.96
-3 -2 -7 18.2 1.98
3 1 7 53.34 3.9
-3 -1 -7 48.87 3.86
-3 0 -7 17.28 2.04
3 -1 7 52.79 4.23
-3 1 -7 56.82 4.2
3 -2 7 22.69 2.49
-3 2 -7 20 2.41
3 -3 7 19.25 2.33
-3 3 -7 14.56 2.3
-3 4 -7 3.72 2.08
2 3 7 49.35 3.56
2 2 7 15.72 1.74
2 2 7 16.25 1.81
-2 -2 -7 16.81 1.85
2 1 7 24.32 2.35
-2 -1 -7 27.72 2.37
2 0 7 24.19 2.31
-2 0 -7 23.59 2.3
2 -1 7 25.63 2.54
-2 1 -7 27.23 2.52
2 -2 7 17.98 2.24
-2 2 -7 20.35 2.29
2 -3 7 65.72 4.73
-2 3 -7 59.6 4.79
-2 4 -7 4.77 2
-2 5 -7 7.77 2.17
1 3 7 50.74 3.61
1 2 7 0.3 1.06
1 2 7 0.41 1.13
-1 -2 -7 2.81 1.13
1 1 7 100.4 6.8
-1 -1 -7 95.52 6.82
1 0 7 1.52 1.3
-1 0 -7 2.78 1.36
1 -1 7 98.27 7.06
-1 1 -7 103.32 7.08
1 -2 7 4.44 1.53
-1 2 -7 0.79 1.58
1 -3 7 51.35 4.1
-1 3 -7 55.01 4.15
-1 4 -7 8.42 2.01
-1 5 -7 5.64 2.1
0 3 7 28.25 2.2
0 2 7 1.71 1.14
0 2 7 2.84 1.04
0 -2 -7 1.72 1.07
0 1 7 69.65 4.56
0 -1 -7 58.33 4.56
0 0 7 12.93 1.59
0 0 7 10.51 1.52
0 0 -7 13.18 1.63
0 -1 7 65.46 4.92
0 1 -7 71.23 4.94
0 -2 7 2.3 1.48
0 2 -7 3.46 1.53
0 -3 7 27.13 2.58
0 3 -7 28.06 2.61
0 4 -7 3.26 1.84
0 5 -7 6.85 1.94
-1 3 7 30.95 2.31
-1 3 7 30.21 2.35
-1 2 7 13.06 1.43
-1 2 7 13.01 1.45
1 -2 -7 12.26 1.42
-1 1 7 41.16 3.13
-1 1 7 41.19 3.11
1 -1 -7 43.21 3.17
-1 0 7 60.54 4.36
-1 0 7 60.27 4.39
1 0 -7 61.44 4.43
-1 -1 7 49.72 3.54
1 1 -7 43.15 3.56
-1 -2 7 17.14 1.89
1 2 -7 16.3 1.99
-1 -3 7 37.48 2.9
1 3 -7 31.71 2.99
1 4 -7 6.34 1.8
1 5 -7 3.59 1.75
-2 3 7 52.43 3.7
-2 3 7 50.67 3.7
2 -3 -7 54.87 3.71
-2 2 7 6.89 1.14
-2 2 7 6.23 1.12
2 -2 -7 6.8 1.21
-2 1 7 43.8 3.3
-2 1 7 43.62 3.29
2 -1 -7 46.44 3.33
-2 0 7 18.34 1.79
-2 0 7 18.2 1.78
2 0 -7 16.8 1.86
-2 -1 7 48.58 3.58
2 1 -7 46.2 3.63
-2 -2 7 7.8 1.43
2 2 -7 6.44 1.52
-2 -3 7 56.73 4.04
2 3 -7 51.82 4.11
2 4 -7 6.66 1.72
2 5 -7 6.54 1.81
-3 3 7 35.72 2.61
-3 3 7 33.99 2.59
-3 2 7 0.89 0.99
-3 2 7 -0.04 1.05
3 -2 -7 1.52 1.09
-3 1 7 235.89 15.74
3 -1 -7 230.58 15.75
-3 0 7 13.95 1.65
-3 0 7 13.56 1.72
3 0 -7 17.7 1.74
-3 -1 7 237.71 16.02
3 1 -7 235.89 16.03
-3 -2 7 0.83 1.3
3 2 -7 2.89 1.4
-3 -3 7 27.19 2.57
3 3 -7 32.59 2.64
3 4 -7 1.06 1.64
3 5 -7 5.87 1.75
-4 3 7 45.88 3.31
-4 3 7 47.55 3.33
4 -3 -7 43.44 3.37
-4 2 7 2.69 1.11
-4 2 7 1.68 1.03
4 -2 -7 -0.03 1.06
-4 1 7 119.45 7.79
4 -1 -7 107.44 7.81
-4 0 7 -0.81 1.11
-4 0 7 0.19 1.2
4 0 -7 0.22 1.3
-4 -1 7 103.2 7.63
4 1 -7 118.36 7.68
-4 -2 7 1.68 1.25
4 2 -7 2.9 1.42
-4 -3 7 47.48 3.6
4 3 -7 48.5 3.6
4 3 -7 44.75 3.65
4 4 -7 5.81 1.67
4 5 -7 4.76 1.74
-5 4 7 0.43 1.05
-5 3 7 24.28 2.22
5 -3 -7 29.09 2.37
-5 2 7 24.62 2.09
-5 2 7 24.06 2.05
5 -2 -7 23.29 2.09
-5 1 7 35.28 2.74
-5 0 7 17.63 1.72
5 0 -7 16.05 1.87
-5 -1 7 49.95 3.39
5 1 -7 38.74 3.43
-5 -2 7 21.7 2.15
5 2 -7 24.22 2.27
-5 -3 7 33.86 2.62
5 3 -7 26.28 2.7
5 4 -7 -0.61 1.63
5 5 -7 10.82 1.86
-6 4 7 0.02 1.26
-6 3 7 18.98 1.91
6 -3 -7 14.7 2.1
-6 2 7 19.31 1.83
6 -2 -7 20.01 1.99
-6 1 7 59.89 4.48
-6 1 7 62.05 4.45
6 -1 -7 64.55 4.49
-6 0 7 1.28 1.13
6 0 -7 0.65 1.31
-6 -1 7 63.89 4.59
6 1 -7 63.8 4.63
-6 -2 7 21.81 2.06
6 2 -7 20.01 2.18
-6 -3 7 16.19 1.96
6 3 -7 17.95 2.03
6 4 -7 -1.37 1.6
6 5 -7 3.63 1.66
-7 4 7 -1.97 1.41
-7 3 7 29.85 2.49
7 -3 -7 25.06 2.74
-7 2 7 0.11 1.21
7 -2 -7 -0.16 1.45
-7 1 7 63.27 4.34
7 -1 -7 56.66 4.37
-7 0 7 1.37 1.2
7 0 -7 0.68 1.26
-7 -1 7 63.02 4.51
7 1 -7 60.79 4.49
-7 -2 7 -0.46 1.35
7 2 -7 0.05 1.38
-7 -3 7 26.61 2.44
7 3 -7 23.93 2.37
7 4 -7 -0.54 1.65
7 5 -7 3.01 1.68
-8 4 7 1.66 1.61
-8 3 7 14.22 1.9
-8 2 7 6.32 1.44
8 -2 -7 6.03 1.74
-8 1 7 22.94 2.12
8 -1 -7 23.26 2.3
-8 0 7 3.58 1.28
8 0 -7 2.93 1.41
-8 -1 7 23.39 2.27
8 1 -7 24.32 2.33
-8 -2 7 7.02 1.54
8 2 -7 3.84 1.59
-8 -3 7 10.19 1.7
8 3 -7 9.34 1.79
8 4 -7 -0.12 1.63
-9 4 7 -0.04 1.75
-9 3 7 9.26 1.83
-9 2 7 1.41 1.52
9 -2 -7 0.67 1.93
-9 1 7 3.58 1.47
9 -1 -7 4.75 1.81
-9 0 7 0.76 1.29
9 0 -7 1.18 1.55
-9 -1 7 7.34 1.51
9 1 -7 3.82 1.67
-9 -2 7 1.5 1.47
9 2 -7 1.9 1.61
-9 -3 7 11.67 1.76
9 3 -7 7.71 1.87
9 4 -7 1.75 1.81
-10 4 7 -0.78 1.91
-10 3 7 4.48 1.84
-10 2 7 0.82 1.62
10 -2 -7 0.42 2.01
-10 1 7 33.19 2.82
10 -1 -7 32.37 3.1
-10 0 7 1.22 1.57
10 0 -7 0.48 1.82
-10 -1 7 28.99 2.78
10 1 -7 32.94 2.88
-10 -2 7 2.78 1.56
10 2 -7 0.9 1.72
10 3 -7 3.66 1.85
10 4 -7 -1.59 2.04
-11 4 7 -0.68 2.14
-11 3 7 7.6 1.97
-11 2 7 0.69 1.68
11 -2 -7 -1.71 2.22
-11 1 7 32.56 3
11 -1 -7 34.42 3.38
-11 0 7 0.48 1.56
11 0 -7 -1.12 1.87
-11 -1 7 32.52 3.04
11 1 -7 34.76 3.2
-11 -2 7 0.23 1.77
11 2 -7 -0.89 1.98
11 3 -7 3.52 2.04
11 4 -7 -0.86 2.08
-12 3 7 5.58 2.04
-12 2 7 -0.36 1.8
12 -2 -7 -3.78 2.24
-12 1 7 1.38 1.8
12 -1 -7 0.37 2.26
-12 0 7 2.21 1.87
12 0 -7 0.73 2.26
-12 -1 7 1.55 1.66
12 1 -7 0.7 2.14
-12 -2 7 0.06 1.69
12 2 -7 0.94 2.15
12 3 -7 4.88 2.24
-13 2 7 0.95 1.97
13 -2 -7 -2.09 2.34
-13 1 7 6.14 2.02
13 -1 -7 4.42 2.44
-13 0 7 6.05 1.99
13 0 -7 2.81 2.4
-13 -1 7 9.3 2.08
13 1 -7 3.17 2.47
-13 -2 7 0.94 2.02
13 2 -7 -1.96 2.47
-14 2 7 1.42 1.99
14 -2 -7 -0.55 2.54
-14 1 7 4.54 2.12
14 -1 -7 4.84 2.51
-14 0 7 0.17 2.05
14 0 -7 -0.97 2.57
-14 -1 7 3.57 2.11
14 1 -7 2.35 2.58
14 2 -7 0.83 2.55
-8 0 -8 5.61 2.19
-8 1 -8 3.76 2.21
-7 0 -8 37.11 3.42
-7 1 -8 0.6 2.15
-7 2 -8 7.59 2.44
6 3 8 1.04 1.72
-6 -1 -8 10.9 2.07
-6 0 -8 55.07 4.38
-6 1 -8 12.36 2.37
-6 2 -8 24.3 2.95
6 -3 8 -0.69 2.36
-6 3 -8 -0.13 2.19
5 3 8 2.6 1.62
5 2 8 18.52 2.24
-5 -1 -8 13.36 2.04
-5 0 -8 -0.26 1.78
-5 1 -8 15.29 2.34
5 -2 8 24.49 2.92
-5 2 -8 25.01 2.89
5 -3 8 1.42 2.14
-5 3 -8 2.7 2.07
4 3 8 4.77 1.56
4 2 8 6.45 1.72
4 1 8 17.86 2.29
-4 -1 -8 22.21 2.29
4 0 8 22.97 2.46
-4 0 -8 20.63 2.45
4 -1 8 21.46 2.53
-4 1 -8 20.57 2.47
4 -2 8 13.48 2.31
-4 2 -8 8.66 2.12
4 -3 8 4.61 2.14
-4 3 -8 5.14 2.1
-4 4 -8 9.17 2.41
3 3 8 13.7 1.73
3 2 8 38.51 2.96
-3 -2 -8 32.45 3.01
3 1 8 5.98 1.75
-3 -1 -8 7.94 1.69
3 0 8 22.19 2.42
-3 0 -8 22.5 2.4
3 -1 8 6.5 2
-3 1 -8 12.39 1.94
3 -2 8 31.22 3.28
-3 2 -8 42.36 3.3
3 -3 8 13.18 2.32
-3 3 -8 17.54 2.4
-3 4 -8 3.11 2.1
2 3 8 4.04 1.27
2 2 8 56.31 3.83
-2 -2 -8 45.54 3.86
2 1 8 1.65 1.5
-2 -1 -8 5.58 1.57
2 0 8 74.33 5.5
-2 0 -8 77.44 5.51
2 -1 8 7.85 1.73
-2 1 -8 3.43 1.67
2 -2 8 53.08 4.27
-2 2 -8 56.63 4.32
2 -3 8 1.54 1.84
-2 3 -8 4.7 1.99
-2 4 -8 1.61 2.05
1 3 8 2.59 1.11
1 2 8 28.07 2.46
1 2 8 27.41 2.41
-1 -2 -8 30.51 2.43
1 1 8 16.44 1.77
1 1 8 12.75 1.71
-1 -1 -8 11.37 1.76
1 0 8 12.32 1.78
-1 0 -8 14.59 1.88
1 -1 8 10.34 1.86
-1 1 -8 18.46 2.03
1 -2 8 36.56 2.93
-1 2 -8 29.22 2.97
1 -3 8 1.03 1.7
-1 3 -8 1.27 1.83
-1 4 -8 19.77 2.58
0 3 8 1.4 1.08
0 2 8 56.87 4.19
0 2 8 57.43 4.24
0 -2 -8 61.52 4.23
0 1 8 39.47 3
0 -1 -8 36.9 2.99
0 0 8 15.61 2.04
0 0 -8 22.75 2.08
0 -1 8 36.36 2.99
0 1 -8 35.14 3.03
0 -2 8 70.92 4.88
0 2 -8 60.78 4.88
0 -3 8 3 1.69
0 3 -8 1.12 1.77
0 4 -8 20.56 2.54
0 5 -8 0.64 2
-1 3 8 24.39 2.03
-1 2 8 103.93 7.14
-1 2 8 106.85 7.16
1 -2 -8 100.83 7.15
-1 1 8 36.92 2.92
1 -1 -8 38.16 2.96
-1 0 8 99.48 6.77
1 0 -8 94.26 6.78
-1 -1 8 42.56 3.31
1 1 -8 41.09 3.36
-1 -2 8 114.02 7.96
1 2 -8 114.24 7.98
-1 -3 8 28.37 2.55
1 3 -8 24.17 2.66
1 4 -8 10.87 2.01
1 5 -8 0.76 1.89
-2 3 8 30.42 2.36
-2 2 8 28.14 2.27
-2 2 8 28.43 2.26
2 -2 -8 25.87 2.36
-2 1 8 8.04 1.37
2 -1 -8 12.94 1.51
-2 0 8 32.31 2.63
2 0 -8 31.28 2.68
-2 -1 8 13.96 1.64
2 1 -8 6.53 1.68
-2 -2 8 22.03 2.31
2 2 -8 28.44 2.48
-2 -3 8 33.07 2.83
2 3 -8 32.2 2.95
2 4 -8 1.6 1.77
2 5 -8 5.04 1.88
-3 3 8 7.21 1.16
-3 2 8 13.75 1.57
-3 2 8 12.65 1.59
3 -2 -8 14.12 1.62
-3 1 8 23.47 1.94
3 -1 -8 16.77 1.97
-3 0 8 3.45 1.27
3 0 -8 2.22 1.35
-3 -1 8 17.96 2.08
3 1 -8 25.29 2.22
-3 -2 8 15.07 1.86
3 2 -8 15.47 1.96
-3 -3 8 6.09 1.63
3 3 -8 6.57 1.75
3 4 -8 18.8 2.21
3 5 -8 6.58 1.88
-4 3 8 7.68 1.2
-4 2 8 23.15 2.14
-4 2 8 23.21 2.07
4 -2 -8 25.6 2.13
-4 1 8 75.05 5.05
4 -1 -8 67.26 5.07
-4 0 8 51.92 3.82
4 0 -8 51.35 3.9
-4 -1 8 66.64 5.07
4 1 -8 75.01 5.11
-4 -2 8 27.76 2.34
4 2 -8 21.46 2.37
-4 -3 8 7.88 1.62
4 3 -8 7.13 1.78
4 4 -8 8.29 1.87
4 5 -8 1.54 1.79
-5 4 8 -0.02 1.15
-5 3 8 25.67 2.15
-5 2 8 90.69 6.08
5 -2 -8 83.86 6.1
-5 1 8 19.3 1.87
-5 1 8 19.89 1.9
5 -1 -8 16.47 1.93
-5 0 8 101.43 7.14
5 0 -8 104.42 7.17
-5 -1 8 18.77 1.99
5 1 -8 20.18 2.14
-5 -2 8 85.32 6.32
5 2 -8 94.43 6.38
-5 -3 8 31.9 2.66
5 3 -8 27.27 2.76
5 4 -8 2.39 1.75
5 5 -8 2.81 1.71
-6 4 8 3.59 1.38
-6 3 8 7.35 1.43
-6 2 8 6.4 1.3
6 -2 -8 5.85 1.38
-6 1 8 49.34 3.76
6 -1 -8 52.38 3.8
-6 0 8 46.93 3.52
6 0 -8 46.6 3.59
-6 -1 8 51.5 3.77
6 1 -8 48.99 3.86
-6 -2 8 10.2 1.57
6 2 -8 7.18 1.73
-6 -3 8 10.59 1.72
6 3 -8 8.95 1.86
6 4 -8 4.26 1.66
6 5 -8 7.21 1.76
-7 4 8 5.85 1.58
-7 3 8 23.88 2.19
-7 2 8 3.62 1.26
-7 2 8 4.2 1.37
7 -2 -8 8.34 1.58
-7 1 8 37.5 2.78
7 -1 -8 30.62 2.81
-7 0 8 3.86 1.3
7 0 -8 1.4 1.32
-7 -1 8 31.06 2.78
7 1 -8 36.61 2.89
-7 -2 8 9.71 1.58
7 2 -8 4.31 1.63
-7 -3 8 26.05 2.43
7 3 -8 23.19 2.51
7 4 -8 5.28 1.69
-8 4 8 3.17 1.64
-8 3 8 9.98 1.75
-8 2 8 26.63 2.37
8 -2 -8 23.88 2.58
-8 1 8 53.49 4.03
8 -1 -8 55.71 4.11
-8 0 8 11.55 1.59
8 0 -8 7.85 1.61
-8 -1 8 57.46 4.1
8 1 -8 51.6 4.13
-8 -2 8 22.95 2.35
8 2 -8 23.52 2.42
-8 -3 8 5.47 1.64
8 3 -8 5.74 1.74
8 4 -8 -0.05 1.8
-9 4 8 1.42 1.74
-9 3 8 7.84 1.78
-9 2 8 4.49 1.49
9 -2 -8 4.3 1.85
-9 1 8 6.72 1.43
9 -1 -8 6.29 1.7
-9 0 8 31.87 2.81
9 0 -8 35 2.91
-9 -1 8 10.59 1.67
9 1 -8 5.62 1.71
-9 -2 8 4.15 1.6
9 2 -8 1.73 1.68
-9 -3 8 10.16 1.84
9 3 -8 4.24 1.85
9 4 -8 1.15 1.83
-10 4 8 0.84 1.88
-10 3 8 6.72 1.87
-10 2 8 2.97 1.67
10 -2 -8 2.66 2.14
-10 1 8 4.34 1.61
10 -1 -8 6.84 1.98
-10 0 8 0.56 1.39
10 0 -8 -1.28 1.65
-10 -1 8 4.38 1.58
10 1 -8 3.71 1.81
-10 -2 8 3.41 1.62
10 2 -8 -1.08 1.81
10 3 -8 4.41 1.94
10 4 -8 2.24 1.92
-11 3 8 3.06 1.85
-11 2 8 0.74 1.68
11 -2 -8 1.12 2.19
-11 1 8 18.46 2.01
11 -1 -8 9.64 2.29
-11 0 8 1.25 1.71
11 0 -8 1.31 2.04
-11 -1 8 14.94 2.07
11 1 -8 8.72 2.25
-11 -2 8 0.99 1.71
11 2 -8 -0.06 1.86
11 3 -8 2.48 1.92
-12 3 8 0.8 1.99
-12 2 8 4.34 1.81
12 -2 -8 3.21 2.47
-12 1 8 7.32 1.88
12 -1 -8 1.02 2.32
-12 0 8 8.43 1.82
12 0 -8 6.6 2.2
-12 -1 8 4.15 1.87
12 1 -8 5.16 2.16
-12 -2 8 4.07 1.96
12 2 -8 6.13 2.22
12 3 -8 2.37 2.22
-13 2 8 1.48 1.93
13 -2 -8 0.53 2.42
-13 1 8 2.09 1.89
13 -1 -8 -1.24 2.4
-13 0 8 1.96 1.95
13 0 -8 2.76 2.47
-13 -1 8 -0.47 1.73
13 1 -8 0.73 2.28
-13 -2 8 0.88 1.83
13 2 -8 0.3 2.31
-14 2 8 2.54 2.1
-14 1 8 -1.66 1.99
14 -1 -8 4.87 2.65
-14 0 8 0.18 2.02
14 0 -8 1.07 2.53
-14 -1 8 1.41 2.06
14 1 -8 -1.16 2.56
-14 -2 8 2.23 2.13
14 2 -8 -1.85 2.62
-7 0 -9 13.77 2.47
-7 1 -9 -1.11 2.22
6 2 9 14.22 2.22
6 1 9 -0.11 1.93
-6 0 -9 16.55 2.46
6 -1 9 0.5 2.27
-6 1 -9 -0.32 2.1
6 -2 9 14.63 2.84
-6 2 -9 21.52 2.79
5 3 9 4.79 1.78
5 2 9 9.09 1.98
5 1 9 10.7 2.1
-5 -1 -9 11.39 2.01
5 0 9 23.46 2.74
-5 0 -9 25.76 2.72
5 -1 9 12.95 2.48
-5 1 -9 16.5 2.4
5 -2 9 9.34 2.54
-5 2 -9 13.37 2.42
5 -3 9 4.34 2.4
-5 3 -9 6.2 2.35
4 3 9 4.54 1.69
4 2 9 10.93 1.91
4 1 9 10.08 1.94
-4 -1 -9 9.63 1.9
4 0 9 52.22 4.21
-4 0 -9 53.01 4.19
4 -1 9 8.08 2.25
-4 1 -9 11.29 2.12
4 -2 9 14.35 2.49
-4 2 -9 15.78 2.43
4 -3 9 4.82 2.27
-4 3 -9 4.66 2.26
3 3 9 3.49 1.49
3 2 9 18.82 2.15
3 1 9 18.51 2.26
-3 -1 -9 21.21 2.39
3 0 9 32.39 2.95
-3 0 -9 30.73 2.96
3 -1 9 21.89 2.56
-3 1 -9 21.62 2.59
3 -2 9 23.33 2.78
-3 2 -9 27.35 2.88
3 -3 9 4.99 2.16
-3 3 -9 4.34 2.19
-3 4 -9 20.36 2.8
2 3 9 -0.72 1.36
2 2 9 43.92 3.48
2 1 9 13.93 2.01
-2 -1 -9 15.22 2.06
2 0 9 24.86 2.47
-2 0 -9 22.08 2.51
2 -1 9 17.79 2.34
-2 1 -9 20.05 2.38
2 -2 9 42.91 3.69
-2 2 -9 45.02 3.75
2 -3 9 1.82 2.02
-2 3 -9 6.4 2.06
-2 4 -9 18.52 2.62
1 3 9 9.71 1.46
1 2 9 4.42 1.44
-1 -2 -9 9.66 1.57
1 1 9 17.64 2.18
-1 -1 -9 23.39 2.25
1 0 9 129.96 9.05
-1 0 -9 130.72 9.07
1 -1 9 23.18 2.45
-1 1 -9 21.94 2.48
1 -2 9 10.31 1.92
-1 2 -9 3.21 1.88
1 -3 9 10.79 2.09
-1 3 -9 12.74 2.22
-1 4 -9 14.7 2.51
0 3 9 0.48 1.2
0 2 9 15.53 1.77
0 -2 -9 15.85 1.84
0 1 9 12.1 1.67
0 -1 -9 11.43 1.73
0 0 9 21.41 2.23
0 0 -9 22.44 2.31
0 -1 9 16.47 2
0 1 -9 13.83 2.04
0 -2 9 17.08 2.29
0 2 -9 23.26 2.41
0 -3 9 -1.02 1.71
0 3 -9 -1.83 1.88
0 4 -9 12.01 2.35
-1 3 9 39.8 3.02
-1 2 9 32.85 2.5
1 -2 -9 28.19 2.55
-1 1 9 8.85 1.49
-1 1 9 10 1.49
1 -1 -9 9.03 1.59
-1 0 9 93.24 6.44
1 0 -9 89.28 6.46
-1 -1 9 11.99 1.76
1 1 -9 10.43 1.88
-1 -2 9 31.23 2.84
1 2 -9 32.57 2.95
-1 -3 9 45.16 3.6
1 3 -9 42.29 3.68
1 4 -9 11.46 2.18
-2 3 9 6.07 1.26
-2 2 9 47.85 3.55
-2 2 9 47.46 3.53
2 -2 -9 46.86 3.55
-2 1 9 1.99 1.25
-2 1 9 3.35 1.21
2 -1 -9 2.85 1.35
-2 0 9 47.01 3.57
2 0 -9 46.4 3.62
-2 -1 9 2.38 1.44
2 1 -9 3.15 1.62
-2 -2 9 49.95 3.8
2 2 -9 46.71 3.85
-2 -3 9 7.17 1.75
2 3 -9 7.15 1.93
2 4 -9 17.83 2.43
-3 3 9 13.36 1.54
-3 2 9 69.44 5.15
-3 2 9 72.37 5.16
3 -2 -9 77.43 5.21
-3 1 9 22.5 2.12
-3 1 9 23.1 2.15
3 -1 -9 23.44 2.2
-3 0 9 73.9 5.29
3 0 -9 74.08 5.32
-3 -1 9 23.53 2.28
3 1 -9 24.66 2.41
-3 -2 9 76.69 5.38
3 2 -9 71.62 5.43
-3 -3 9 17.35 2.12
3 3 -9 14.72 2.21
3 4 -9 18.74 2.4
3 5 -9 2.82 1.93
-4 4 9 7.71 1.27
-4 3 9 4.06 1.22
-4 2 9 57.13 4.39
4 -2 -9 65.38 4.47
-4 1 9 9.04 1.44
-4 1 9 8.69 1.46
4 -1 -9 9.01 1.59
-4 0 9 21.49 2.17
4 0 -9 24.27 2.29
-4 -1 9 9.67 1.59
4 1 -9 7.13 1.68
-4 -2 9 64.15 4.53
4 2 -9 57.12 4.57
-4 -3 9 5.29 1.7
4 3 -9 6.83 1.85
4 4 -9 10.65 2.06
4 5 -9 -0.26 1.81
-5 4 9 3.03 1.25
-5 3 9 8.29 1.33
-5 2 9 61.25 4.02
5 -2 -9 47.76 4.06
-5 1 9 3.66 1.28
5 -1 -9 3.35 1.48
-5 0 9 99.85 7.02
5 0 -9 101.39 7.06
-5 -1 9 2.97 1.41
5 1 -9 3.27 1.57
-5 -2 9 44.63 3.95
5 2 -9 60.29 4.07
-5 -3 9 12.86 1.86
5 3 -9 9.83 1.99
5 4 -9 3.54 1.85
-6 4 9 4.42 1.4
-6 3 9 1.92 1.21
-6 2 9 54.76 3.88
6 -2 -9 49.47 3.93
-6 1 9 0.03 1.22
6 -1 -9 0.97 1.35
-6 0 9 33 2.78
6 0 -9 35.03 2.93
-6 -1 9 0.48 1.34
6 1 -9 0.88 1.54
-6 -2 9 49.26 4.04
6 2 -9 57.69 4.14
-6 -3 9 0.74 1.54
6 3 -9 1.8 1.8
6 4 -9 3.05 1.86
-7 4 9 7.92 1.66
-7 3 9 5.28 1.5
-7 2 9 36.56 3.17
7 -2 -9 45.4 3.29
-7 1 9 3.44 1.32
7 -1 -9 3.17 1.44
-7 0 9 21.67 2.14
7 0 -9 21.25 2.27
-7 -1 9 4.13 1.44
7 1 -9 2 1.58
-7 -2 9 48.89 3.56
7 2 -9 40.75 3.63
-7 -3 9 7.17 1.7
7 3 -9 6.11 1.78
7 4 -9 6.41 1.87
-8 4 9 5.14 1.69
-8 3 9 8.09 1.59
-8 2 9 55.88 4.35
8 -2 -9 63.74 4.51
-8 1 9 11.51 1.61
8 -1 -9 10.35 1.77
-8 0 9 21.95 2.2
8 0 -9 22.04 2.32
-8 -1 9 12.72 1.79
8 1 -9 9.32 1.79
-8 -2 9 60.76 4.49
8 2 -9 57.87 4.52
-8 -3 9 6.92 1.78
8 3 -9 5.81 1.77
8 4 -9 5.68 1.94
-9 4 9 2.95 1.81
-9 3 9 1.93 1.68
-9 2 9 10.25 1.73
9 -2 -9 8.97 2.03
-9 1 9 10.17 1.57
9 -1 -9 7.62 1.76
-9 0 9 75.34 5.41
9 0 -9 73.93 5.45
-9 -1 9 10.01 1.75
9 1 -9 7.42 1.78
-9 -2 9 12.7 1.89
9 2 -9 7.73 1.89
-9 -3 9 2.38 1.73
9 3 -9 0.95 1.84
9 4 -9 2.85 1.94
-10 4 9 3.96 1.9
-10 3 9 11.21 2
-10 2 9 12.56 1.87
10 -2 -9 13.15 2.22
-10 1 9 0.92 1.47
10 -1 -9 0.15 1.75
-10 0 9 9.02 1.69
10 0 -9 8.8 1.94
-10 -1 9 -1.21 1.51
10 1 -9 -0.95 1.67
-10 -2 9 12.11 1.93
10 2 -9 9.43 1.98
10 3 -9 4.19 1.91
10 4 -9 0.32 2
-11 3 9 -0.31 1.82
-11 2 9 7.08 1.9
11 -2 -9 9.33 2.43
-11 1 9 3.91 1.71
11 -1 -9 5.09 2.1
-11 0 9 -0.79 1.56
11 0 -9 0.62 1.82
-11 -1 9 4.76 1.68
11 1 -9 4.49 1.96
-11 -2 9 6.61 1.8
11 2 -9 4.28 2.01
11 3 -9 1.64 2.08
-12 3 9 2.86 1.97
-12 2 9 3.79 1.84
12 -2 -9 2.24 2.39
-12 1 9 4.36 1.67
12 -1 -9 2 2.14
-12 0 9 12.73 2.12
12 0 -9 11.13 2.39
-12 -1 9 5.01 1.93
12 1 -9 0.96 2.18
-12 -2 9 3.07 2
12 2 -9 2.5 2.29
12 3 -9 -1.26 2.3
-13 2 9 2.29 1.91
13 -2 -9 -1.72 2.59
-13 1 9 2.31 1.91
13 -1 -9 0.7 2.48
-13 0 9 8.76 1.96
13 0 -9 11.01 2.47
-13 -1 9 -0.08 1.91
13 1 -9 0.05 2.26
-13 -2 9 1.98 2
13 2 -9 1.31 2.31
-14 1 9 0.51 1.99
14 -1 -9 0.29 2.56
-14 0 9 0.18 2.05
14 0 -9 -1.13 2.62
-14 -1 9 -0.12 2.19
14 1 -9 -0.47 2.65
6 1 10 9.85 2.21
6 0 10 1.18 2.2
-6 0 -10 4.02 2.11
6 -1 10 13.48 2.68
-6 1 -10 17.04 2.65
5 2 10 10.27 2.09
5 1 10 20.52 2.53
5 0 10 16.93 2.52
-5 0 -10 19.46 2.5
5 -1 10 16.89 2.64
5 -2 10 8.96 2.61
-5 2 -10 15.14 2.59
4 3 10 13.01 1.98
4 2 10 13.85 2.13
4 1 10 20.24 2.44
-4 -1 -10 21.9 2.62
4 0 10 16.41 2.49
-4 0 -10 23.27 2.57
4 -1 10 21.93 2.97
-4 1 -10 31.81 3.05
4 -2 10 13.49 2.57
-4 2 -10 17.18 2.62
4 -3 10 11.89 2.6
-4 3 -10 12.68 2.68
3 3 10 8.68 1.74
3 2 10 8.18 1.86
3 1 10 6.05 1.9
-3 -1 -10 8.46 1.96
3 0 10 1.04 1.87
-3 0 -10 1.41 1.85
3 -1 10 7.76 2.16
-3 1 -10 6.84 2.08
3 -2 10 10.43 2.35
-3 2 -10 10.24 2.37
3 -3 10 9.66 2.4
-3 3 -10 14.11 2.54
2 3 10 9.62 1.69
2 2 10 18.34 2.15
2 1 10 19.51 2.3
-2 -1 -10 20.33 2.44
2 0 10 7.48 1.88
-2 0 -10 5.99 1.92
2 -1 10 21.98 2.77
-2 1 -10 32.66 2.96
2 -2 10 17.69 2.56
-2 2 -10 21.66 2.64
2 -3 10 9.44 2.36
-2 3 -10 11.41 2.37
1 3 10 12.05 1.66
1 2 10 19.17 2.11
1 1 10 27.6 2.69
-1 -1 -10 30.72 2.79
1 0 10 83.32 5.89
-1 0 -10 78.09 5.89
1 -1 10 29.54 2.85
-1 1 -10 28.85 2.9
1 -2 10 21.55 2.59
-1 2 -10 23.04 2.65
1 -3 10 18.99 2.54
-1 3 -10 17.43 2.53
-1 4 -10 6.61 2.32
0 3 10 12.54 1.65
0 2 10 17.42 1.96
0 -2 -10 17.76 2.11
0 1 10 53.74 4.39
0 -1 -10 64.8 4.5
0 0 10 6.73 1.65
0 0 -10 4.14 1.71
0 -1 10 62 4.44
0 1 -10 52.57 4.41
0 -2 10 21.94 2.61
0 2 -10 25.36 2.65
0 -3 10 10.16 2.14
0 3 -10 12.44 2.27
0 4 -10 12.47 2.48
-1 3 10 11.43 1.59
-1 2 10 16.16 1.87
1 -2 -10 19.31 2.01
-1 1 10 14.88 1.75
1 -1 -10 7.4 1.77
-1 0 10 2.8 1.55
1 0 -10 2.65 1.67
-1 -1 10 6.65 1.72
-1 -2 10 22.7 2.5
1 2 -10 21.44 2.57
-1 -3 10 12.11 2.19
1 3 -10 11.24 2.26
1 4 -10 12 2.33
-2 3 10 3.56 1.32
-2 2 10 1.74 1.32
2 -2 -10 4.02 1.45
-2 1 10 17.87 1.94
2 -1 -10 19.07 2.06
-2 0 10 91.33 6.57
2 0 -10 94.74 6.61
-2 -1 10 20.25 2.24
2 1 -10 19.32 2.36
-2 -2 10 2.8 1.65
2 2 -10 -0.01 1.8
-2 -3 10 2.43 1.76
2 3 -10 3.75 1.98
2 4 -10 3.34 2.1
-3 3 10 17 1.8
-3 2 10 41.9 3.04
3 -2 -10 35.12 3.13
-3 1 10 47.09 3.64
3 -1 -10 49.1 3.71
-3 0 10 64.4 4.7
3 0 -10 63.89 4.76
-3 -1 10 53.66 3.95
3 1 -10 48.93 4.01
-3 -2 10 34.91 3.24
3 2 -10 43.79 3.4
-3 -3 10 17.02 2.3
3 3 -10 19.77 2.44
3 4 -10 4.4 2.11
-4 3 10 22.59 2.11
-4 2 10 7.02 1.5
4 -2 -10 9.86 1.67
-4 1 10 21.37 2.22
4 -1 -10 26.38 2.37
-4 0 10 4.25 1.47
4 0 -10 0.18 1.55
-4 -1 10 28.02 2.48
4 1 -10 22.82 2.58
-4 -2 10 12.72 1.87
4 2 -10 5.9 1.97
-4 -3 10 22.36 2.48
4 3 -10 21.85 2.58
4 4 -10 15.94 2.39
-5 4 10 15.89 1.7
-5 3 10 12.91 1.64
-5 2 10 15.52 1.93
5 -2 -10 20.95 2.06
-5 1 10 11.29 1.63
5 -1 -10 9.55 1.73
-5 0 10 17.59 1.96
5 0 -10 17.27 2.15
-5 -1 10 13.29 1.86
5 1 -10 12.95 2
-5 -2 10 23.01 2.35
5 2 -10 19.2 2.44
-5 -3 10 20.42 2.26
5 3 -10 14.84 2.34
5 4 -10 17.69 2.39
-6 4 10 6.41 1.54
-6 3 10 2.64 1.3
-6 2 10 33.79 2.84
6 -2 -10 35 2.9
-6 1 10 16.87 1.84
6 -1 -10 13.62 1.93
-6 0 10 113.18 8.04
6 0 -10 118.47 8.1
-6 -1 10 15.15 1.91
6 1 -10 14.3 2.05
-6 -2 10 33.81 3.02
6 2 -10 36.47 3.15
-6 -3 10 1.65 1.69
6 3 -10 2.05 1.85
6 4 -10 4.83 1.99
-7 4 10 1.61 1.54
-7 3 10 3.3 1.35
-7 2 10 19.44 2.14
7 -2 -10 23.1 2.32
-7 1 10 49.84 3.67
7 -1 -10 44.73 3.74
-7 0 10 58.66 4.49
7 0 -10 63.19 4.58
-7 -1 10 42.72 3.62
7 1 -10 49.95 3.75
-7 -2 10 21.22 2.31
7 2 -10 21.26 2.54
-7 -3 10 3.12 1.75
7 3 -10 6.43 1.96
7 4 -10 4.61 1.85
-8 4 10 7.79 1.74
-8 3 10 0.15 1.53
-8 2 10 2.26 1.4
8 -2 -10 4.86 1.69
-8 1 10 3.64 1.49
8 -1 -10 3.79 1.64
-8 0 10 15.88 1.92
8 0 -10 10.57 1.92
-8 -1 10 6.83 1.6
8 1 -10 2.71 1.73
-8 -2 10 3.47 1.67
8 2 -10 5.11 1.83
-8 -3 10 2.87 1.7
8 3 -10 0.95 1.86
8 4 -10 5.38 1.92
-9 4 10 3.95 1.83
-9 3 10 12.2 1.83
-9 2 10 7.14 1.58
9 -2 -10 8.22 1.92
-9 1 10 2.96 1.48
9 -1 -10 -0.47 1.67
-9 0 10 8.16 1.66
9 0 -10 5.99 1.77
-9 -1 10 1.57 1.57
9 1 -10 0.36 1.74
-9 -2 10 7.29 1.78
9 2 -10 4.89 1.7
9 3 -10 12.86 2.18
9 4 -10 5.25 2.06
-10 3 10 5.11 1.88
-10 2 10 21.49 2.42
10 -2 -10 24.97 2.81
-10 1 10 9.46 1.7
10 -1 -10 9.43 2.03
-10 0 10 46.37 3.66
10 0 -10 44.61 3.73
-10 -1 10 12.51 1.93
10 1 -10 9.68 2.01
-10 -2 10 28.06 2.69
10 2 -10 23.93 2.79
10 3 -10 0.55 1.92
-11 3 10 0.36 1.82
-11 2 10 20.47 2.37
11 -2 -10 23.02 2.79
-11 1 10 7.7 1.75
11 -1 -10 6.44 1.98
-11 0 10 3.61 1.66
11 0 -10 4.75 1.98
-11 -1 10 7.37 1.77
11 1 -10 4.32 1.9
11 2 -10 10.39 2.11
11 3 -10 -0.19 2
-12 3 10 -2.58 1.88
-12 2 10 -0.14 1.87
12 -2 -10 2.73 2.48
-12 1 10 -1.19 1.73
12 -1 -10 0.37 2.19
-12 0 10 10.29 2.02
12 0 -10 7.57 2.31
-12 -1 10 -0.03 1.69
12 1 -10 -1.48 2.01
-12 -2 10 0.3 1.79
12 2 -10 -0.69 2.08
12 3 -10 -1.53 2.18
-13 2 10 4.6 1.96
-13 1 10 2.38 1.72
13 -1 -10 2.01 2.32
-13 0 10 3.1 1.92
13 0 -10 4.96 2.35
-13 -1 10 3.04 2.06
13 1 -10 4.08 2.43
-13 -2 10 4.97 2.16
13 2 -10 4.29 2.45
-14 1 10 2.68 2.06
14 -1 -10 1.57 2.69
-14 0 10 1.51 1.83
14 0 -10 0.7 2.44
-14 -1 10 2.08 2.03
14 1 -10 -0.9 2.41
5 1 11 9.37 2.17
5 0 11 -0.5 2.07
-5 0 -11 -0.61 2.07
5 -1 11 14.89 2.6
-5 1 -11 13.75 2.63
4 2 11 2 1.92
4 1 11 23.12 2.62
4 0 11 1.04 2.05
-4 0 -11 0.81 1.99
4 -1 11 25.82 3.03
-4 1 -11 24.12 3.01
4 -2 11 -1.28 2.32
-4 2 -11 -0.98 2.27
3 3 11 9.73 1.99
3 2 11 3.02 1.81
3 1 11 42.34 3.63
-3 -1 -11 43.38 3.75
3 0 11 3.79 2.03
-3 0 -11 3.44 2.06
3 -1 11 44.12 3.81
-3 1 -11 41.76 3.86
3 -2 11 7.04 2.29
-3 2 -11 7.32 2.38
3 -3 11 18.67 2.84
-3 3 -11 15.84 2.79
2 3 11 9.55 1.81
2 2 11 2.33 1.72
2 1 11 41.52 3.48
-2 -1 -11 38.53 3.54
2 0 11 -0.63 1.82
-2 0 -11 -1.56 1.86
2 -1 11 39.15 3.56
-2 1 -11 39.68 3.58
2 -2 11 -1.35 2.16
-2 2 -11 1.3 2.12
2 -3 11 13.37 2.5
-2 3 -11 13.17 2.58
1 3 11 19.5 2.1
1 2 11 13.1 2
1 1 11 10.53 1.94
-1 -1 -11 9.03 1.97
1 0 11 9.87 2.01
-1 0 -11 10.6 2.08
1 -1 11 12.14 2.18
-1 1 -11 9.79 2.15
1 -2 11 16.28 2.43
-1 2 -11 15.44 2.48
1 -3 11 25.32 3
-1 3 -11 26.32 3.03
0 3 11 25.47 2.35
0 2 11 0.47 1.47
0 1 11 33.84 2.92
0 -1 -11 30.08 3
0 0 11 0.33 1.65
0 0 -11 -0.27 1.77
0 -1 11 33.41 3.07
0 1 -11 31.06 3.05
0 -2 11 0.29 1.87
0 2 -11 2.81 2.03
0 -3 11 25.93 2.93
0 3 -11 24.21 2.97
0 4 -11 1.7 2.38
-1 3 11 18.5 1.98
-1 2 11 6.35 1.54
-1 1 11 59.9 4.33
1 -1 -11 54.06 4.38
-1 0 11 19.65 2.31
1 0 -11 18.81 2.4
-1 -1 11 61.5 4.67
1 1 -11 60.03 4.7
-1 -2 11 5.34 1.98
1 2 -11 8.59 2.14
-1 -3 11 21.15 2.62
1 3 -11 21.59 2.79
1 4 -11 2.84 2.29
-2 3 11 18.08 1.93
-2 2 11 2.55 1.44
-2 1 11 34.42 3
2 -1 -11 38.62 3.12
-2 0 11 5.63 1.65
2 0 -11 5.24 1.79
-2 -1 11 37.53 3.21
2 1 -11 37.11 3.31
-2 -2 11 4.48 1.84
2 2 -11 2.95 1.96
-2 -3 11 24.4 2.67
2 3 -11 22.71 2.84
2 4 -11 0.54 2.21
-3 3 11 10.4 1.61
-3 2 11 35.92 2.91
3 -2 -11 35.25 3.02
-3 1 11 35.88 3.2
3 -1 -11 44.93 3.32
-3 0 11 7.44 1.67
3 0 -11 7.04 1.85
-3 -1 11 46.86 3.47
3 1 -11 36.86 3.53
-3 -2 11 33.48 3.14
3 2 -11 37.75 3.28
-3 -3 11 9.13 2.07
3 3 -11 8.43 2.22
3 4 -11 1.25 2.15
-4 3 11 24.14 2.23
-4 2 11 5.79 1.51
4 -2 -11 5.47 1.67
-4 1 11 33.33 2.61
4 -1 -11 24.61 2.76
-4 0 11 -0.14 1.45
4 0 -11 -0.75 1.68
-4 -1 11 25.41 2.69
4 1 -11 31.29 2.81
-4 -2 11 8.78 1.89
4 2 -11 5.53 1.99
-4 -3 11 22.89 2.64
4 3 -11 25.26 2.75
4 4 -11 1.25 2.16
-5 4 11 0.79 1.33
-5 3 11 10.75 1.62
-5 2 11 11.01 1.67
5 -2 -11 7.2 1.77
-5 1 11 33.42 2.99
5 -1 -11 40.1 3.15
-5 0 11 0.13 1.47
5 0 -11 -0.01 1.68
-5 -1 11 37.55 3.21
5 1 -11 38.84 3.37
-5 -2 11 9.05 1.9
5 2 -11 8.8 2.11
-5 -3 11 12.07 2.15
5 3 -11 15.87 2.36
5 4 -11 1.4 2.07
-6 4 11 0.61 1.38
-6 3 11 11.62 1.69
-6 2 11 11.89 1.7
6 -2 -11 4.96 1.77
-6 1 11 24.39 2.36
-6 0 11 3.95 1.56
6 0 -11 0.59 1.71
-6 -1 11 32.39 2.69
6 1 -11 23.02 2.79
-6 -2 11 10.73 1.96
6 2 -11 12.36 2.16
-6 -3 11 19.49 2.31
6 3 -11 16.24 2.44
6 4 -11 3.25 2.05
-7 4 11 3.27 1.62
-7 3 11 16.49 1.93
-7 2 11 5.84 1.52
7 -2 -11 5.76 1.71
-7 1 11 42.71 3.54
7 -1 -11 47.31 3.67
-7 0 11 -0.27 1.51
7 0 -11 1.56 1.73
-7 -1 11 44.65 3.58
7 1 -11 43.67 3.73
-7 -2 11 6.07 1.8
7 2 -11 7.36 2.05
-7 -3 11 17.34 2.25
7 3 -11 17.37 2.48
7 4 -11 6.67 2.08
-8 4 11 1.13 1.65
-8 3 11 8.42 1.67
-8 2 11 2.3 1.54
8 -2 -11 4.86 1.75
-8 1 11 54.16 4.08
8 -1 -11 52.41 4.1
-8 0 11 2.2 1.51
8 0 -11 -0.38 1.76
-8 -1 11 51.32 4.1
8 1 -11 54.75 4.19
-8 -2 11 6.9 1.76
8 2 -11 2.88 1.92
-8 -3 11 10.24 1.96
8 3 -11 6.84 1.98
8 4 -11 2.41 2.01
-9 3 11 3.7 1.74
-9 2 11 2.86 1.54
9 -2 -11 5.9 1.9
-9 1 11 17.01 2.03
9 -1 -11 13.14 2.07
-9 0 11 -0.25 1.55
9 0 -11 2.8 1.79
9 1 -11 9.37 1.96
-9 -2 11 6.63 1.84
9 2 -11 1.06 1.89
-9 -3 11 3.52 1.88
9 3 -11 2.85 1.89
-10 3 11 2.95 1.63
-10 2 11 5.43 1.65
10 -2 -11 6.44 2
-10 1 11 5.13 1.62
10 -1 -11 5.57 1.88
-10 0 11 36.43 3.15
10 0 -11 35.74 3.26
-10 -1 11 8.93 1.87
10 1 -11 5.09 1.93
-10 -2 11 6.48 1.81
10 2 -11 6.83 2.02
10 3 -11 3.66 2.04
-11 3 11 2.42 1.9
-11 2 11 3.79 1.82
-11 1 11 6.29 1.7
11 -1 -11 8.34 2.12
-11 0 11 3.34 1.67
11 0 -11 2.91 1.89
-11 -1 11 11.92 2.01
11 1 -11 6.46 2.08
-11 -2 11 3.03 1.85
11 2 -11 1.2 1.99
11 3 -11 -0.32 2.01
-12 2 11 2.59 1.76
-12 1 11 9.44 2.04
12 -1 -11 8.37 2.39
-12 0 11 -1.11 1.65
12 0 -11 0.35 2.06
-12 -1 11 4.27 1.83
12 1 -11 5.62 2.2
-12 -2 11 1.73 1.86
12 2 -11 -0.61 2.01
-13 2 11 2.3 2.01
-13 1 11 4.4 1.93
13 -1 -11 3.31 2.37
-13 0 11 2.09 1.99
13 0 -11 2.58 2.35
-13 -1 11 2.28 1.92
13 1 -11 1.07 2.12
-13 -2 11 3.2 1.97
13 2 -11 1.1 2.23
-14 1 11 3.34 1.87
14 -1 -11 -2.16 2.47
-14 0 11 3.29 2.05
14 0 -11 5.59 2.49
-14 -1 11 0.95 2.16
14 1 -11 3.21 2.54
4 1 12 11.49 2.27
4 0 12 14.25 2.56
-4 0 -12 21.71 2.75
4 -1 12 9.85 2.42
-4 1 -12 7.19 2.48
3 2 12 10.12 2.15
3 1 12 19.15 2.59
3 0 12 6.45 2.14
-3 0 -12 8.56 2.24
3 -1 12 22.39 2.92
-3 1 -12 22.71 2.93
3 -2 12 14.21 2.75
-3 2 -12 16.29 2.76
2 2 12 14.02 2.21
2 1 12 19.94 2.53
2 0 12 36.38 3.36
-2 0 -12 35.24 3.41
2 -1 12 22.77 2.95
-2 1 -12 24.57 2.92
2 -2 12 17.33 2.76
-2 2 -12 19.86 2.78
1 3 12 12.15 1.91
1 2 12 13.84 2.12
1 1 12 6.96 1.97
-1 -1 -12 7.83 2.12
1 0 12 15.21 2.39
-1 0 -12 18.09 2.46
1 -1 12 9.98 2.22
-1 1 -12 4.65 2.14
1 -2 12 15.78 2.57
-1 2 -12 15.52 2.54
1 -3 12 17.61 2.74
-1 3 -12 15.47 2.8
0 3 12 9.8 1.76
0 2 12 8.71 1.82
0 1 12 33.47 3.07
0 -1 -12 33.2 3.2
0 0 12 9.18 2.02
0 0 -12 6.91 2.1
0 -1 12 32.9 3.25
0 1 -12 35.2 3.34
0 -2 12 11.18 2.33
0 2 -12 10.39 2.35
0 -3 12 17.09 2.65
0 3 -12 14.32 2.71
-1 3 12 11.58 1.77
-1 2 12 8.48 1.73
-1 1 12 56.88 4.33
1 -1 -12 55.8 4.42
-1 0 12 0.47 1.77
1 0 -12 2.55 1.98
-1 -1 12 60.19 4.67
1 1 -12 58.94 4.73
-1 -2 12 14.59 2.39
1 2 -12 14.21 2.51
-1 -3 12 13.6 2.44
1 3 -12 11.28 2.52
-2 3 12 17.11 1.97
-2 2 12 18 2.08
-2 1 12 4.22 1.64
2 -1 -12 7.35 1.86
-2 0 12 19.46 2.34
2 0 -12 20.99 2.49
-2 -1 12 6.31 1.92
2 1 -12 4.79 2.05
-2 -2 12 19.44 2.54
2 2 -12 20.47 2.65
-2 -3 12 23.01 2.76
2 3 -12 23.21 2.93
-3 3 12 15.88 1.94
-3 2 12 9.6 1.71
-3 1 12 6.31 1.75
3 -1 -12 9.98 1.93
-3 0 12 11.82 1.94
3 0 -12 10.28 2.11
-3 -1 12 11.85 2.02
3 1 -12 9.56 2.14
-3 -2 12 9.52 2.07
3 2 -12 8.58 2.26
-3 -3 12 20.57 2.67
3 3 -12 20.64 2.78
3 4 -12 -1.89 2.23
-4 3 12 9.41 1.67
-4 2 12 -0.59 1.44
-4 1 12 45.6 3.41
4 -1 -12 38.33 3.54
-4 0 12 9.84 1.9
4 0 -12 13.73 2.14
-4 -1 12 42.86 3.68
4 1 -12 46.4 3.76
-4 -2 12 3.7 1.95
4 2 -12 2 2.03
-4 -3 12 13.44 2.26
4 3 -12 10.01 2.43
4 4 -12 2.08 2.35
-5 3 12 6.13 1.61
-5 2 12 10.66 1.72
-5 1 12 85.83 6.09
5 -1 -12 84.56 6.17
-5 0 12 7.12 1.73
5 0 -12 4.19 1.91
-5 -1 12 87.44 6.48
5 1 -12 92.97 6.59
-5 -2 12 14.21 2.25
5 2 -12 16.64 2.5
-5 -3 12 5.94 2.02
5 3 -12 7.32 2.29
5 4 -12 3.26 2.28
-6 4 12 3.78 1.52
-6 3 12 10.2 1.73
-6 2 12 1.53 1.56
-6 1 12 4.45 1.6
6 -1 -12 5.43 1.89
-6 0 12 11.18 1.86
6 0 -12 10.71 2.08
-6 -1 12 11.09 1.89
6 1 -12 2.98 2.03
-6 -2 12 3 1.8
6 2 -12 -1.3 2.03
-6 -3 12 21.73 2.45
6 3 -12 14.06 2.55
6 4 -12 4.19 2.2
-7 3 12 10.31 1.74
-7 2 12 2.84 1.59
-7 1 12 3.52 1.56
7 -1 -12 3.96 1.76
-7 0 12 1.79 1.59
7 0 -12 3.47 1.91
-7 -1 12 2.51 1.69
7 1 -12 2.39 1.98
-7 -2 12 2.24 1.8
7 2 -12 2.29 2.04
-7 -3 12 17.35 2.25
7 3 -12 9.74 2.38
-8 3 12 8.69 1.68
-8 2 12 1.72 1.61
-8 1 12 30.54 2.79
8 -1 -12 30.11 2.95
-8 0 12 -0.06 1.61
8 0 -12 2.79 1.84
-8 -1 12 27.01 2.84
8 1 -12 33.81 3.04
-8 -2 12 0.94 1.77
8 2 -12 0.14 2.03
-8 -3 12 8.02 1.99
8 3 -12 8.62 2.19
-9 3 12 4.39 1.79
-9 2 12 3.91 1.63
-9 1 12 18.99 2.28
9 -1 -12 23.42 2.57
-9 0 12 29.63 2.85
9 0 -12 30.87 2.94
-9 -1 12 23.05 2.37
9 1 -12 15.76 2.45
-9 -2 12 3.68 1.81
9 2 -12 4.81 2.06
-9 -3 12 6.78 1.97
9 3 -12 4.69 2.11
-10 3 12 7.93 1.94
-10 2 12 0.08 1.58
-10 1 12 6.12 1.81
10 -1 -12 8.26 2.05
-10 0 12 19.31 2.24
10 0 -12 12.5 2.27
-10 -1 12 7.9 1.88
10 1 -12 5.9 2.06
-10 -2 12 -1.22 1.82
10 2 -12 1.63 1.8
10 3 -12 6.52 2.18
-11 3 12 1.86 1.72
-11 2 12 -0.77 1.78
-11 1 12 7.88 1.82
11 -1 -12 8.6 2.23
-11 0 12 0.05 1.75
11 0 -12 -1.47 1.93
-11 -1 12 11.3 2.02
11 1 -12 5.97 2.06
-11 -2 12 -0.01 1.89
11 2 -12 0.76 2.01
11 3 -12 2.48 2.14
-12 2 12 -0.42 1.87
-12 1 12 20.12 2.47
12 -1 -12 25.94 2.86
-12 0 12 -0.25 1.72
12 0 -12 -2.31 2.13
-12 -1 12 21.72 2.38
12 1 -12 11.42 2.4
-12 -2 12 -0.47 1.88
12 2 -12 0.29 2.08
-13 1 12 0.15 1.98
13 -1 -12 3.27 2.47
-13 0 12 -0.02 1.87
13 0 -12 1.75 2.2
-13 -1 12 4.44 1.94
13 1 -12 0.94 2.25
3 0 13 7.89 2.32
-3 0 -13 10.9 2.39
2 1 13 3.89 2.06
2 0 13 23.71 3.06
-2 0 -13 34.37 3.27
2 -1 13 5.16 2.24
-2 1 -13 4.03 2.28
1 2 13 21.62 2.56
1 1 13 -0.77 1.96
1 0 13 42.36 3.76
-1 0 -13 42.05 3.86
1 -1 13 -1.09 2.1
-1 1 -13 1.03 2.15
1 -2 13 35.11 3.58
-1 2 -13 31.3 3.56
0 2 13 20.66 2.4
0 1 13 2.1 1.91
0 0 13 27.02 2.91
0 0 -13 25.1 3
0 -1 13 0.89 2.09
0 1 -13 0.71 2.21
0 -2 13 26.8 3.14
0 2 -13 28.23 3.23
-1 3 13 3.74 1.64
-1 2 13 13.46 2.06
-1 1 13 5.44 1.86
1 -1 -13 3.71 2.02
-1 0 13 24.23 2.69
1 0 -13 19.15 2.8
-1 -1 13 5 2.11
1 1 -13 5.64 2.25
-1 -2 13 20.81 2.74
1 2 -13 16.83 2.79
-1 -3 13 3.53 2.27
1 3 -13 3.32 2.38
-2 3 13 0.86 1.54
-2 2 13 26.32 2.57
-2 1 13 6.89 1.84
2 -1 -13 6.58 2.05
-2 0 13 53.54 4.24
2 0 -13 52.89 4.37
-2 -1 13 8.54 2.1
2 1 -13 6.9 2.21
-2 -2 13 31.58 3.2
2 2 -13 33.19 3.3
-2 -3 13 1.2 2.11
2 3 -13 -0.15 2.31
-3 3 13 1.43 1.56
-3 2 13 25.34 2.48
-3 1 13 6.32 1.79
3 -1 -13 6.53 1.92
-3 0 13 38.31 3.32
3 0 -13 37.1 3.44
-3 -1 13 9.05 2.07
3 1 -13 9.73 2.29
-3 -2 13 27.06 2.98
3 2 -13 28.29 3.1
-3 -3 13 7.98 2.36
3 3 -13 3.9 2.41
-4 3 13 3.48 1.57
-4 2 13 14.79 1.97
-4 1 13 5.03 1.72
4 -1 -13 6.64 2
-4 0 13 4.81 1.84
4 0 -13 6.6 2.06
-4 -1 13 8.62 2.02
4 1 -13 3 2.08
-4 -2 13 24.27 2.76
4 2 -13 20.61 2.82
-4 -3 13 5.37 2.2
4 3 -13 6.7 2.43
-5 3 13 8.75 1.76
-5 2 13 14.72 1.98
-5 1 13 9.79 1.78
5 -1 -13 6.92 2.01
-5 0 13 17.07 2.16
5 0 -13 13.78 2.36
-5 -1 13 6.3 1.97
5 1 -13 9.14 2.26
-5 -2 13 18.62 2.53
5 2 -13 18.59 2.75
-5 -3 13 7.7 2.22
5 3 -13 12.87 2.54
-6 3 13 1.71 1.57
-6 2 13 27.79 2.62
-6 1 13 2.05 1.62
6 -1 -13 1.21 1.9
-6 0 13 49.85 3.96
6 0 -13 49.89 4.1
-6 -1 13 1.11 1.81
6 1 -13 4.81 2.15
-6 -2 13 27.8 3.07
6 2 -13 36.36 3.3
-6 -3 13 1.85 1.98
6 3 -13 1.18 2.27
-7 3 13 0.73 1.59
-7 2 13 25.01 2.54
-7 1 13 5.04 1.72
7 -1 -13 2.5 1.9
-7 0 13 26.49 2.66
7 0 -13 26.13 2.96
-7 -1 13 4.58 1.86
7 1 -13 1.06 2.08
-7 -2 13 24.56 2.78
7 2 -13 25.64 3.03
-7 -3 13 3.55 2.01
7 3 -13 4.01 2.28
-8 3 13 2.04 1.61
-8 2 13 14.43 2.02
-8 1 13 14.83 2.02
8 -1 -13 11.74 2.17
-8 0 13 1.54 1.67
8 0 -13 -1.16 1.89
-8 -1 13 16.63 2.25
8 1 -13 13.98 2.41
-8 -2 13 25.83 2.61
8 2 -13 15.9 2.73
-8 -3 13 1.09 1.99
8 3 -13 0.7 2.2
-9 3 13 3.3 1.67
-9 2 13 7.27 1.85
-9 1 13 4 1.72
9 -1 -13 3.3 1.95
-9 0 13 4.53 1.81
9 0 -13 2.18 2.06
-9 -1 13 2.86 1.85
9 1 -13 2.31 2.06
-9 -2 13 8.12 2.04
9 2 -13 5.06 2.09
-9 -3 13 4.64 2.01
9 3 -13 5.15 2.19
-10 2 13 9.53 1.89
-10 1 13 -0.83 1.7
10 -1 -13 0.25 1.92
-10 0 13 19.32 2.31
10 0 -13 15.17 2.39
-10 -1 13 -0.92 1.83
10 1 -13 1.01 1.91
-10 -2 13 11.71 2.23
10 2 -13 11.5 2.3
-11 2 13 3.98 1.81
-11 1 13 -0.01 1.7
11 -1 -13 -2.86 2.01
-11 0 13 3.36 1.85
11 0 -13 1.66 1.98
-11 -1 13 1.25 1.9
11 1 -13 -0.61 2.02
-11 -2 13 1.87 1.9
11 2 -13 2.62 2.18
-12 2 13 3.28 2
-12 1 13 5.48 1.86
12 -1 -13 5.39 2.32
-12 0 13 2.04 1.83
12 0 -13 3.35 2.13
-12 -1 13 4.58 2
12 1 -13 2.45 2.15
-12 -2 13 4.41 2.07
12 2 -13 3.34 2.25
-13 1 13 4.32 2.09
13 -1 -13 1.12 2.56
-13 0 13 7.99 2.02
13 0 -13 7.52 2.43
-13 -1 13 3.73 2.02
13 1 -13 5.72 2.4
1 1 14 9.12 2.31
1 0 14 26.15 3.12
-1 0 -14 25.98 3.16
1 -1 14 14.34 2.63
-1 1 -14 10.23 2.63
0 2 14 18.58 2.45
0 1 14 24.55 2.9
0 0 14 23.84 3.05
0 0 -14 34.4 3.35
0 -1 14 32.01 3.43
0 1 -14 29.54 3.45
0 -2 14 20.16 2.98
0 2 -14 20.1 3.06
-1 2 14 11.39 2.14
-1 1 14 8.96 2.12
-1 0 14 11.38 2.31
1 0 -14 12.82 2.49
-1 -1 14 9.92 2.45
1 1 -14 12.37 2.59
-1 -2 14 21.47 2.92
1 2 -14 17.74 2.95
-2 2 14 20.81 2.42
-2 1 14 2.26 1.87
-2 0 14 24.6 2.92
2 0 -14 33.25 3.2
-2 -1 14 1.73 2.06
2 1 -14 0.97 2.25
-2 -2 14 31.09 3.15
2 2 -14 21.63 3.19
-3 2 14 23.47 2.46
-3 1 14 3.23 1.83
3 -1 -14 5.85 2.11
-3 0 14 46.28 3.84
3 0 -14 44.1 3.94
-3 -1 14 4.36 2.1
3 1 -14 2.32 2.28
-3 -2 14 27.45 3.11
3 2 -14 27.99 3.21
-4 3 14 5.98 1.74
-4 2 14 14.17 2.03
-4 1 14 22.34 2.49
4 -1 -14 21.2 2.7
-4 0 14 22.28 2.68
4 0 -14 28.17 2.97
-4 -1 14 19.5 2.58
4 1 -14 18.65 2.73
-4 -2 14 15.88 2.55
4 2 -14 14.84 2.66
-4 -3 14 5.77 2.33
4 3 -14 6.38 2.56
-5 3 14 3.13 1.64
-5 2 14 15.57 2.09
-5 1 14 -0.72 1.65
5 -1 -14 1.58 1.99
-5 0 14 17.28 2.31
5 0 -14 15.2 2.54
-5 -1 14 2.81 1.96
5 1 -14 -0.24 2.24
-5 -2 14 23.82 2.75
5 2 -14 16.24 2.84
-5 -3 14 -0.23 2.16
5 3 -14 2.36 2.49
-6 3 14 0.2 1.64
-6 2 14 12.43 2
-6 1 14 0.96 1.7
6 -1 -14 0.88 1.95
-6 0 14 27.8 2.74
6 0 -14 26.37 2.99
-6 -1 14 1.04 1.92
6 1 -14 2.03 2.22
-6 -2 14 18.38 2.57
6 2 -14 16.43 2.75
-6 -3 14 1.44 2.1
6 3 -14 1.49 2.45
-7 3 14 0.55 1.69
-7 2 14 22.4 2.41
-7 1 14 5.19 1.78
7 -1 -14 0.62 2.01
-7 0 14 34.54 3.21
7 0 -14 37.9 3.45
-7 -1 14 1.89 1.88
7 1 -14 1.63 2.16
-7 -2 14 22.32 2.67
7 2 -14 19.43 2.85
-7 -3 14 2.25 2.12
7 3 -14 0.94 2.35
-8 2 14 3.9 1.79
-8 1 14 7.24 1.86
8 -1 -14 6.35 2.05
-8 0 14 9.62 2.02
8 0 -14 7.87 2.23
-8 -1 14 8.24 2.03
8 1 -14 5.71 2.32
-8 -2 14 3.92 2.02
8 2 -14 1.41 2.35
-9 2 14 5.22 1.86
-9 1 14 0.13 1.75
9 -1 -14 -0.42 1.95
-9 0 14 11.84 2.07
9 0 -14 11.38 2.3
-9 -1 14 2.03 1.86
9 1 -14 -1.24 2.08
-9 -2 14 6.48 2.09
9 2 -14 9.54 2.35
-10 2 14 11.04 2.05
-10 1 14 4.31 1.86
10 -1 -14 5.18 2.14
-10 0 14 15.51 2.22
10 0 -14 8.94 2.16
-10 -1 14 4.17 1.98
10 1 -14 5.75 2.27
-10 -2 14 12.54 2.3
10 2 -14 10.64 2.48
-11 1 14 1.28 1.87
11 -1 -14 -0.55 2.17
-11 0 14 3.57 1.92
11 0 -14 1.42 2.13
-11 -1 14 0.42 1.93
11 1 -14 2.32 2.19
-12 1 14 0.76 1.83
12 -1 -14 0.6 2.24
-12 0 14 0.83 1.97
12 0 -14 1.09 2.24
-12 -1 14 2.43 2.02
12 1 -14 0.12 2.16
-1 1 15 25.52 2.95
-1 0 15 7.62 2.31
1 0 -15 5.41 2.44
-1 -1 15 25.78 3.17
1 1 -15 23.25 3.19
-2 1 15 22.87 2.74
-2 0 15 -0.57 2.01
2 0 -15 1.8 2.3
-2 -1 15 34.52 3.56
2 1 -15 33.32 3.62
-3 2 15 2.92 1.85
-3 1 15 12.73 2.25
-3 0 15 7.95 2.24
3 0 -15 7.99 2.43
-3 -1 15 17.76 2.68
3 1 -15 14.83 2.81
-3 -2 15 1.03 2.3
3 2 -15 2.51 2.5
-4 2 15 8.13 1.91
-4 1 15 25.48 2.72
-4 0 15 12.49 2.26
4 0 -15 10.13 2.47
-4 -1 15 25.73 3.01
4 1 -15 27.62 3.15
-4 -2 15 9.75 2.46
4 2 -15 6.26 2.64
-5 2 15 6.24 1.83
-5 1 15 19.11 2.36
-5 0 15 8.81 2.12
5 0 -15 9.48 2.42
-5 -1 15 25.29 3.01
5 1 -15 29.02 3.29
-5 -2 15 9.41 2.42
5 2 -15 10.36 2.71
-6 2 15 5.73 1.84
-6 1 15 9.72 2.03
-6 0 15 0.03 1.86
6 0 -15 1.91 2.19
-6 -1 15 14.06 2.38
6 1 -15 10.9 2.58
-6 -2 15 9.89 2.35
6 2 -15 4.64 2.54
-7 2 15 10.32 2
-7 1 15 9.17 1.96
-7 0 15 18.01 2.45
7 0 -15 19.82 2.69
-7 -1 15 10.43 2.19
7 1 -15 8.34 2.49
-7 -2 15 12.86 2.43
7 2 -15 12.43 2.7
-8 2 15 5.9 1.91
-8 1 15 14.21 2.19
-8 0 15 9.8 2.1
8 0 -15 7.74 2.34
-8 -1 15 12.63 2.27
8 1 -15 10.12 2.6
-8 -2 15 9.65 2.28
8 2 -15 4.62 2.56
-9 2 15 3.7 1.9
-9 1 15 7.01 1.96
-9 0 15 7.21 2.04
9 0 -15 5.22 2.22
-9 -1 15 11.94 2.19
9 1 -15 5.54 2.34
-9 -2 15 8.22 2.2
9 2 -15 2.52 2.38
-10 1 15 -0.41 1.83
-10 0 15 1.36 1.98
10 0 -15 2.92 2.21
-10 -1 15 0.42 1.97
10 1 -15 -0.09 2.28
-11 0 15 9.8 2.11
11 0 -15 9.45 2.38
-4 0 16 -0.2 2.14
4 0 -16 0.01 2.37
-5 1 16 25.38 2.74
-5 0 16 0.11 2.03
5 0 -16 1.68 2.41
-5 -1 16 30.1 3.23
5 1 -16 29.12 3.49
-6 1 16 21.26 2.57
-6 0 16 8.51 2.16
6 0 -16 7.57 2.45
-6 -1 16 25.18 3.04
6 1 -16 29.25 3.39
-7 1 16 7.9 2
-7 0 16 0.95 1.99
7 0 -16 2.5 2.32
-7 -1 16 10.28 2.3
7 1 -16 8.44 2.61
-8 1 16 6.59 1.97
-8 0 16 1.75 1.97
8 0 -16 0.37 2.35
-8 -1 16 15.31 2.45
8 1 -16 9.96 2.73
-9 0 16 0.37 1.93
9 0 -16 2.03 2.22
