#------------------------------------------------------------------------------
#$Date: 2022-09-20 11:32:02 +0300 (Tue, 20 Sep 2022) $
#$Revision: 277994 $
#$URL: file:///home/coder/svn-repositories/cod/cif/1/55/40/1554076.cif $
#------------------------------------------------------------------------------
#
# This file is available in the Crystallography Open Database (COD),
# http://www.crystallography.net/
#
# All data on this site have been placed in the public domain by the
# contributors.
#
data_1554076
loop_
_publ_author_name
'Szell, Patrick M. J.'
'Bryce, David L.'
_publ_section_title
;
 35Cl Solid-State NMR and Computational Study of Chlorine Halogen Bond
 Donors in Single-Component Crystalline Chloronitriles
;
_journal_issue                   20
_journal_name_full               'The Journal of Physical Chemistry C'
_journal_page_first              11121
_journal_paper_doi               10.1021/acs.jpcc.6b02806
_journal_volume                  120
_journal_year                    2016
_chemical_formula_sum            'C7 H3 Cl2 N'
_chemical_formula_weight         172.00
_space_group_crystal_system      monoclinic
_space_group_IT_number           14
_space_group_name_Hall           '-P 2ybc'
_space_group_name_H-M_alt        'P 1 21/c 1'
_atom_sites_solution_hydrogens   geom
_audit_creation_method           SHELXL-2014/7
_cell_angle_alpha                90
_cell_angle_beta                 91.073(4)
_cell_angle_gamma                90
_cell_formula_units_Z            4
_cell_length_a                   3.8642(2)
_cell_length_b                   13.7861(7)
_cell_length_c                   13.8809(7)
_cell_measurement_reflns_used    3349
_cell_measurement_temperature    200(2)
_cell_measurement_theta_max      28.29
_cell_measurement_theta_min      2.96
_cell_volume                     739.34(7)
_computing_cell_refinement       'APEX II, Bruker (2009)'
_computing_data_collection       'APEX II, Bruker (2009)'
_computing_data_reduction        'XPREP, Bruker (2009)'
_computing_molecular_graphics    'SHELXTL, Bruker (2004)'
_computing_publication_material  'SHELXTL, Bruker (2004)'
_computing_structure_refinement  'SHELXL-2014/7 (Sheldrick, 2014)'
_computing_structure_solution    'SHELXS-03 (Sheldrick, 2003)'
_diffrn_ambient_temperature      200(2)
_diffrn_measured_fraction_theta_full 0.989
_diffrn_measured_fraction_theta_max 0.982
_diffrn_measurement_device_type  'Bruker APEX-II CCD'
_diffrn_measurement_method       '\f and \w scans'
_diffrn_radiation_type           MoK\a
_diffrn_radiation_wavelength     0.71073
_diffrn_reflns_av_R_equivalents  0.0256
_diffrn_reflns_av_unetI/netI     0.0274
_diffrn_reflns_Laue_measured_fraction_full 0.989
_diffrn_reflns_Laue_measured_fraction_max 0.982
_diffrn_reflns_limit_h_max       5
_diffrn_reflns_limit_h_min       -5
_diffrn_reflns_limit_k_max       18
_diffrn_reflns_limit_k_min       -18
_diffrn_reflns_limit_l_max       18
_diffrn_reflns_limit_l_min       -18
_diffrn_reflns_number            6083
_diffrn_reflns_point_group_measured_fraction_full 0.989
_diffrn_reflns_point_group_measured_fraction_max 0.982
_diffrn_reflns_theta_full        25.242
_diffrn_reflns_theta_max         28.326
_diffrn_reflns_theta_min         2.082
_exptl_absorpt_coefficient_mu    0.789
_exptl_absorpt_correction_T_max  0.7457
_exptl_absorpt_correction_T_min  0.5236
_exptl_absorpt_correction_type   multi-scan
_exptl_absorpt_process_details   'SADABS, Bruker (2003)'
_exptl_crystal_colour            colourless
_exptl_crystal_density_diffrn    1.545
_exptl_crystal_density_meas      ?
_exptl_crystal_description       block
_exptl_crystal_F_000             344
_exptl_crystal_size_max          0.230
_exptl_crystal_size_mid          0.180
_exptl_crystal_size_min          0.140
_refine_diff_density_max         0.330
_refine_diff_density_min         -0.287
_refine_diff_density_rms         0.058
_refine_ls_extinction_method     none
_refine_ls_goodness_of_fit_ref   1.043
_refine_ls_hydrogen_treatment    constr
_refine_ls_matrix_type           full
_refine_ls_number_parameters     91
_refine_ls_number_reflns         1807
_refine_ls_number_restraints     0
_refine_ls_restrained_S_all      1.043
_refine_ls_R_factor_all          0.0432
_refine_ls_R_factor_gt           0.0367
_refine_ls_shift/su_max          0.000
_refine_ls_shift/su_mean         0.000
_refine_ls_structure_factor_coef Fsqd
_refine_ls_weighting_details
'w=1/[\s^2^(Fo^2^)+(0.0711P)^2^+0.0393P] where P=(Fo^2^+2Fc^2^)/3'
_refine_ls_weighting_scheme      calc
_refine_ls_wR_factor_gt          0.1018
_refine_ls_wR_factor_ref         0.1083
_reflns_Friedel_coverage         0.000
_reflns_number_gt                1532
_reflns_number_total             1807
_reflns_threshold_expression     'I > 2\s(I)'
_cod_data_source_file            jp6b02806_si_003.cif
_cod_data_source_block           db143
_cod_depositor_comments
;
The following automatic conversions were performed:

data item '_exptl_crystal_density_meas' value 'n/a' was changed to
'?' -- the value is perceived as not measured.

Automatic conversion script
Id: cif_fix_values 6909 2019-04-08 15:41:33Z antanas 

2022-09-15
Z value and formula fixed to values more according to usual
chemical conventions.                 miguel
;
_cod_original_formula_sum            'C28 H12 Cl8 N4'
_cod_original_formula_weight         688.02
_cod_original_formula_units_Z            1
_cod_original_sg_symbol_H-M      'P 21/c'
_cod_database_code               1554076
_shelx_shelxl_version_number     2014/7
_shelx_space_group_comment
; 
The symmetry employed for this shelxl refinement is uniquely defined 
by the following loop, which should always be used as a source of 
symmetry information in preference to the above space-group names. 
They are only intended as comments. 
;
_shelx_estimated_absorpt_t_min   0.839
_shelx_estimated_absorpt_t_max   0.898
_shelx_res_file
; 
  
    db143.res created by SHELXL-2014/7 
  
  
TITL db143 in P2(1)/c 
CELL 0.71073   3.86420  13.78610  13.88090  90.0000  91.0726  90.0000 
ZERR    1.00   0.00020   0.00070   0.00070   0.0000   0.0038   0.0000 
LATT  1 
SYMM -X, 0.5+Y, 0.5-Z 
SFAC C H N CL 
UNIT 28 12 4 8 
LIST 0 
TEMP -73.150 
SIZE 0.14 0.18 0.23 
  
L.S. 80 
ACTA 
CONF 
BOND 
FMAP 2 
PLAN 5 
  
OMIT    -1   2   2 
OMIT    -1   2   8 
OMIT    -1   2   4 
OMIT    -1   2   5 
OMIT    -1   2   6 
OMIT     1   6   6 
OMIT    -1  12   8 
OMIT    -2   1  16 
OMIT     0   7   5 
OMIT    -1  14   9 
OMIT    -2  14   7 
OMIT     2   3   0 
OMIT    -1  13   5 
OMIT    -2   2   2 
OMIT    -2  12   3 
OMIT     1   3   3 
OMIT    -2   2  12 
OMIT    -1   1   9 
  
WGHT    0.071100    0.039300 
FVAR       0.23009 
CL1   4    0.466777    0.149073    0.154307    11.00000    0.05872    0.03950 = 
         0.05405   -0.00044    0.00519    0.00348 
CL2   4   -0.093093    0.361460    0.435796    11.00000    0.06495    0.08721 = 
         0.03926   -0.01116    0.00895   -0.00388 
N1    3    0.263254    0.583928    0.073086    11.00000    0.10341    0.04683 = 
         0.07083    0.00303    0.01647    0.00444 
C1    1    0.219832    0.428304    0.172580    11.00000    0.04299    0.03838 = 
         0.04594   -0.00007   -0.00147   -0.00415 
C2    1    0.334776    0.340171    0.136407    11.00000    0.04140    0.04156 = 
         0.03819   -0.00051    0.00081   -0.00497 
AFIX  43 
H2A   2    0.421532    0.335121    0.073018    11.00000   -1.20000 
AFIX   0 
C3    1    0.317988    0.260242    0.196169    11.00000    0.03793    0.03623 = 
         0.04086   -0.00225   -0.00154   -0.00202 
C4    1    0.188588    0.264918    0.288529    11.00000    0.04301    0.04642 = 
         0.03760    0.00340   -0.00133   -0.00571 
AFIX  43 
H4A   2    0.179595    0.208899    0.328261    11.00000   -1.20000 
AFIX   0 
C5    1    0.072839    0.354023    0.320937    11.00000    0.03893    0.05620 = 
         0.03536   -0.00585   -0.00016   -0.00516 
C6    1    0.085816    0.435947    0.264879    11.00000    0.04091    0.04333 = 
         0.04971   -0.00933   -0.00215   -0.00201 
AFIX  43 
H6A   2    0.005384    0.496437    0.288409    11.00000   -1.20000 
AFIX   0 
C7    1    0.244316    0.516040    0.114747    11.00000    0.06440    0.04328 = 
         0.05506   -0.00421    0.00750    0.00020 
HKLF 4 
  
REM  db143 in P2(1)/c 
REM R1 =  0.0367 for    1532 Fo > 4sig(Fo)  and  0.0432 for all    1807 data 
REM     91 parameters refined using      0 restraints 
  
END 
  
WGHT      0.0711      0.0393 
  
REM Highest difference peak  0.330,  deepest hole -0.287,  1-sigma level  0.058 
Q1    1  -0.0074  0.3601  0.3700  11.00000  0.05    0.33 
Q2    1   0.1310  0.3691  0.4509  11.00000  0.05    0.31 
Q3    1   0.4505  0.1474  0.2158  11.00000  0.05    0.27 
Q4    1   0.7607  0.1498  0.1574  11.00000  0.05    0.25 
Q5    1  -0.3385  0.3565  0.4641  11.00000  0.05    0.24 
;
_shelx_res_checksum              895
_shelx_hkl_file
; 
  -1   0   0   17.72    0.63 
   2   0   0    3.12    0.14 
  -2   0   0    3.15    0.15 
  -3   0   0    8.35    0.35 
   3   0   0    7.92    0.33 
   4   0   0    0.01    0.05 
  -4   0   0   -0.15    0.06 
   5   0   0    3.13    0.21 
  -1  -1   0   88.96    3.05 
  -1   1   0   85.40    3.05 
   1   1   0   90.22    3.05 
   2  -1   0   39.55    1.40 
  -2  -1   0   41.13    1.40 
  -2   1   0   38.66    1.40 
   2   1   0   39.36    1.40 
   3  -1   0    0.00    0.04 
  -3  -1   0    0.03    0.05 
  -3   1   0    0.01    0.06 
   3   1   0    0.04    0.04 
   4  -1   0    1.16    0.12 
  -4  -1   0    1.06    0.14 
   4   1   0    1.15    0.12 
  -4   1   0    1.32    0.16 
   5  -1   0    0.06    0.07 
   5   1   0    0.09    0.07 
   0   2   0   36.83    1.28 
  -1  -2   0   28.31    0.97 
  -1   2   0   26.13    0.97 
   1   2   0   28.04    0.97 
   2  -2   0    5.10    0.22 
  -2  -2   0    5.58    0.23 
   2   2   0    5.61    0.22 
  -2   2   0    5.37    0.23 
  -2   2   0    5.14    0.22 
   3  -2   0   -0.02    0.04 
  -3  -2   0    0.04    0.05 
  -3   2   0    0.02    0.07 
   3   2   0    0.00    0.04 
  -4  -2   0    0.29    0.09 
   4  -2   0    0.23    0.07 
  -4   2   0    0.34    0.10 
   4   2   0    0.31    0.07 
   5  -2   0    0.24    0.09 
   5   2   0    0.19    0.07 
   0   3   0    0.01    0.01 
  -1  -3   0   58.37    2.03 
  -1   3   0   60.86    2.04 
   1   3   0   57.41    2.03 
  -1   3   0   56.85    2.03 
   2  -3   0    0.58    0.06 
  -2  -3   0    0.63    0.06 
   2   3   0    0.68    0.07 
  -2   3   0    0.68    0.08 
   2   3   0    0.66    0.06 
  -2   3   0    0.42    0.06 
  -3  -3   0    1.43    0.12 
   3  -3   0    1.40    0.11 
  -3   3   0    1.57    0.13 
  -3   3   0    1.77    0.15 
   3   3   0    1.54    0.11 
  -4  -3   0    0.42    0.09 
   4  -3   0    0.53    0.09 
   4   3   0    0.43    0.07 
  -4   3   0    0.51    0.12 
   5  -3   0    0.64    0.12 
   5   3   0    0.78    0.11 
   0   4   0  390.67   13.53 
   1  -4   0    0.00    0.02 
   1   4   0    0.00    0.01 
  -1   4   0    0.03    0.03 
  -1   4   0    0.01    0.02 
   1   4   0    0.02    0.02 
  -2  -4   0   91.96    3.23 
   2  -4   0   94.33    3.22 
   2   4   0   91.26    3.23 
  -2   4   0   91.71    3.23 
   2   4   0   94.38    3.22 
  -2   4   0   91.76    3.23 
   3  -4   0    4.58    0.21 
  -3  -4   0    4.23    0.22 
  -3   4   0    4.14    0.22 
   3   4   0    4.30    0.20 
  -3   4   0    4.69    0.24 
  -4  -4   0    0.13    0.08 
   4  -4   0    0.22    0.07 
   4   4   0    0.16    0.06 
  -5  -4   0    1.27    0.18 
   5  -4   0    1.40    0.17 
   5   4   0    1.33    0.14 
   0   5   0    0.00    0.02 
   0   5   0    0.00    0.02 
   1  -5   0   14.51    0.51 
  -1   5   0   13.33    0.52 
   1   5   0   13.81    0.52 
   1   5   0   13.83    0.51 
  -1   5   0   14.82    0.53 
   2  -5   0   70.22    2.45 
  -2  -5   0   68.87    2.45 
  -2   5   0   69.55    2.46 
  -2   5   0   69.68    2.46 
   2   5   0   71.45    2.44 
   2   5   0   69.67    2.45 
  -3  -5   0    0.07    0.05 
   3  -5   0    0.08    0.05 
   3   5   0    0.04    0.04 
   3   5   0    0.01    0.05 
  -3   5   0    0.07    0.07 
  -3   5   0   -0.02    0.05 
   4  -5   0    2.01    0.16 
  -4  -5   0    1.92    0.16 
   4   5   0    2.36    0.15 
   0   6   0   37.68    1.35 
   0   6   0   38.23    1.35 
   1  -6   0   22.05    0.75 
  -1   6   0   18.45    0.75 
   1   6   0   20.37    0.75 
  -1   6   0   20.89    0.76 
   1   6   0   21.44    0.74 
   2  -6   0   60.91    2.09 
  -2  -6   0   58.94    2.09 
   2   6   0   58.00    2.08 
  -2   6   0   60.87    2.11 
   2   6   0   58.64    2.10 
  -2   6   0   58.76    2.10 
  -3  -6   0    1.11    0.11 
   3  -6   0    1.00    0.10 
   3   6   0    1.04    0.10 
  -3   6   0    1.42    0.14 
  -3   6   0    1.12    0.13 
   3   6   0    0.97    0.11 
  -4  -6   0    0.05    0.06 
   4  -6   0    0.03    0.06 
   4   6   0    0.12    0.06 
   0   7   0    0.02    0.03 
   1  -7   0    0.22    0.04 
   1   7   0    0.18    0.04 
  -1   7   0    0.16    0.05 
  -1   7   0    0.26    0.05 
   1   7   0    0.16    0.04 
   2  -7   0    0.05    0.04 
  -2  -7   0    0.02    0.03 
   2   7   0    0.09    0.05 
  -2   7   0    0.03    0.04 
  -2   7   0    0.02    0.04 
   3  -7   0    3.44    0.19 
  -3  -7   0    3.62    0.20 
   3   7   0    3.57    0.20 
  -3   7   0    3.49    0.22 
   3   7   0    3.42    0.18 
  -3   7   0    3.50    0.21 
  -4  -7   0    0.02    0.06 
   4  -7   0    0.00    0.06 
   4   7   0    0.00    0.05 
   0   8   0   50.71    1.79 
   0   8   0   49.82    1.79 
   1  -8   0    0.05    0.03 
  -1   8   0    0.02    0.04 
  -1   8   0    0.06    0.04 
   1   8   0    0.02    0.03 
   1   8   0    0.02    0.03 
   2  -8   0    2.33    0.14 
  -2  -8   0    2.47    0.14 
  -2   8   0    2.28    0.15 
  -2   8   0    2.66    0.17 
   2   8   0    2.48    0.15 
   2   8   0    2.48    0.13 
  -3  -8   0    0.16    0.06 
   3  -8   0    0.07    0.05 
  -3   8   0    0.05    0.06 
   3   8   0    0.18    0.05 
   3   8   0    0.14    0.07 
  -3   8   0    0.38    0.08 
   4  -8   0    0.06    0.06 
  -4  -8   0    0.04    0.07 
   4   8   0    0.00    0.05 
   0   9   0    0.04    0.04 
   0   9   0   -0.01    0.04 
   1  -9   0    0.70    0.07 
   1   9   0    0.63    0.08 
  -1   9   0    0.53    0.08 
   1   9   0    0.69    0.07 
  -1   9   0    0.47    0.08 
   2  -9   0   21.86    0.82 
  -2  -9   0   21.73    0.83 
   2   9   0   21.32    0.81 
  -2   9   0   22.41    0.85 
  -2   9   0   22.94    0.84 
   2   9   0   22.03    0.83 
   3  -9   0    0.05    0.05 
  -3  -9   0   -0.02    0.05 
   3   9   0    0.07    0.04 
  -3   9   0    0.02    0.07 
   3   9   0    0.05    0.06 
  -3   9   0    0.05    0.06 
  -4  -9   0    0.40    0.09 
   4  -9   0    0.45    0.10 
   4   9   0    0.33    0.08 
   0  10   0  135.98    4.82 
   0  10   0  140.42    4.83 
   1 -10   0    4.36    0.20 
   1  10   0    4.02    0.21 
  -1  10   0    4.02    0.21 
  -1  10   0    4.32    0.23 
  -2 -10   0   16.36    0.65 
   2 -10   0   16.39    0.64 
  -2  10   0   17.31    0.68 
  -2  10   0   16.28    0.65 
   2  10   0   16.96    0.66 
   2  10   0   16.37    0.63 
  -3 -10   0    1.55    0.14 
   3 -10   0    1.75    0.14 
  -3  10   0    1.81    0.18 
   3  10   0    1.45    0.12 
   3  10   0    1.66    0.15 
  -4 -10   0   -0.05    0.07 
   4 -10   0    0.03    0.07 
   4  10   0    0.03    0.05 
   4  10   0   -0.05    0.07 
  -4  10   0   -0.10    0.09 
   0  11   0    0.11    0.06 
   0  11   0    0.01    0.06 
   1 -11   0   20.66    0.78 
  -1  11   0   21.25    0.81 
   1  11   0   20.94    0.80 
  -1  11   0   20.43    0.80 
  -2 -11   0    0.72    0.09 
   2 -11   0    0.55    0.08 
   2  11   0    0.48    0.09 
  -2  11   0    0.53    0.09 
  -2  11   0    0.62    0.11 
   2  11   0    0.51    0.07 
  -3 -11   0    0.24    0.08 
   3 -11   0    0.16    0.07 
  -3  11   0    0.08    0.08 
   3  11   0    0.26    0.09 
   3  11   0    0.25    0.06 
  -4 -11   0   -0.10    0.06 
   4 -11   0    0.03    0.08 
   4  11   0   -0.01    0.06 
   4  11   0    0.00    0.09 
  -4  11   0    0.01    0.10 
   0  12   0   18.09    0.72 
   0  12   0   18.18    0.71 
   1 -12   0    5.20    0.24 
   1  12   0    4.88    0.25 
  -1  12   0    4.45    0.25 
  -1  12   0    4.86    0.27 
  -2 -12   0    2.17    0.15 
   2 -12   0    1.78    0.14 
  -2  12   0    1.87    0.18 
   2  12   0    1.96    0.16 
  -2  12   0    1.98    0.16 
   2  12   0    1.82    0.13 
   3 -12   0    0.01    0.06 
  -3 -12   0    0.01    0.06 
   3  12   0   -0.04    0.04 
  -3  12   0    0.03    0.08 
   3  12   0    0.05    0.08 
   0  13   0    0.07    0.06 
   0  13   0   -0.04    0.05 
   1 -13   0    0.19    0.06 
  -1  13   0    0.24    0.08 
   1  13   0    0.11    0.06 
  -1  13   0    0.26    0.08 
   2 -13   0    0.05    0.05 
  -2 -13   0    0.07    0.06 
  -2  13   0    0.01    0.08 
  -2  13   0    0.10    0.06 
   2  13   0    0.01    0.05 
   2  13   0    0.02    0.06 
   3 -13   0    0.03    0.06 
  -3 -13   0   -0.01    0.06 
   3  13   0   -0.04    0.05 
   3  13   0    0.00    0.07 
  -3  13   0   -0.12    0.08 
   0  14   0   31.94    1.20 
   0  14   0   31.70    1.20 
   1 -14   0    0.10    0.06 
  -1  14   0    0.12    0.08 
   1  14   0    0.15    0.07 
  -1  14   0    0.08    0.06 
   2 -14   0    3.57    0.22 
  -2 -14   0    3.42    0.22 
  -2  14   0    3.91    0.23 
   2  14   0    3.71    0.23 
  -2  14   0    3.50    0.26 
   3 -14   0    1.60    0.17 
  -3 -14   0    1.59    0.17 
   3  14   0    1.89    0.15 
  -3  14   0    2.11    0.23 
   3  14   0    1.88    0.19 
   0  15   0    0.10    0.07 
   1 -15   0    0.18    0.07 
   1  15   0    0.17    0.08 
  -1  15   0    0.19    0.07 
  -1  15   0    0.16    0.08 
   2 -15   0    0.57    0.11 
  -2 -15   0    0.78    0.12 
  -2  15   0    0.49    0.12 
   2  15   0    0.73    0.12 
   0  16   0    2.00    0.17 
   1 -16   0    4.37    0.25 
  -1  16   0    4.45    0.28 
   1  16   0    3.89    0.26 
  -1  16   0    3.97    0.25 
   2 -16   0    1.30    0.15 
  -2 -16   0    1.36    0.15 
  -2  16   0    1.01    0.17 
   2  16   0    1.37    0.17 
   0  17   0    0.05    0.08 
   1 -17   0    0.18    0.08 
   1  17   0   -0.05    0.07 
  -1  17   0    0.11    0.08 
   0  18   0    1.75    0.19 
   1 -18   0    0.15    0.07 
  -1  18   0    0.10    0.08 
   5   0  -1   -0.11    0.06 
   4   0  -1   -0.10    0.05 
  -4   0   1   -0.02    0.08 
   3   0  -1    0.03    0.04 
  -3   0   1    0.00    0.06 
   2   0  -1   -0.05    0.02 
  -2   0   1    0.00    0.03 
  -1   0   1    0.05    0.02 
  -1   0  -1    0.05    0.03 
  -2   0  -1   -0.06    0.03 
   2   0   1   -0.03    0.03 
  -3   0  -1    0.10    0.07 
   3   0   1   -0.06    0.04 
  -4   0  -1    0.02    0.07 
   4   0   1   -0.04    0.05 
   5   0   1   -0.06    0.06 
   5  -1  -1    0.61    0.11 
   5   1  -1    0.38    0.09 
  -4  -1   1    4.13    0.24 
   4  -1  -1    3.80    0.22 
   4   1  -1    3.63    0.21 
  -4   1   1    4.46    0.26 
   3  -1  -1    0.23    0.05 
  -3  -1   1    0.21    0.07 
  -3   1   1    0.08    0.07 
   3   1  -1    0.14    0.05 
   2  -1  -1   37.08    1.29 
  -2  -1   1   36.39    1.29 
  -2   1   1   36.59    1.29 
   2   1  -1   36.39    1.29 
  -2   1   1   36.18    1.29 
  -1  -1   1   24.21    0.85 
   1   1  -1   24.42    0.85 
   0   1   1    7.43    0.26 
  -1  -1  -1  181.61    6.12 
  -1   1  -1  171.14    6.09 
  -2  -1  -1  114.31    4.03 
   2  -1   1  118.00    4.02 
  -2   1  -1  114.24    4.03 
   2   1   1  117.36    4.02 
   3  -1   1   10.66    0.44 
  -3  -1  -1   11.35    0.46 
   3   1   1   11.13    0.44 
  -3   1  -1   12.15    0.47 
   4  -1   1    0.10    0.06 
  -4  -1  -1    0.06    0.08 
  -4   1  -1    0.08    0.08 
   4   1   1    0.14    0.06 
   5  -1   1    0.56    0.10 
   5   1   1    0.43    0.09 
   5  -2  -1    0.13    0.08 
   5   2  -1    0.17    0.07 
  -4  -2   1   14.12    0.56 
   4  -2  -1   13.30    0.55 
   4   2  -1   14.05    0.55 
  -3  -2   1    0.90    0.10 
   3  -2  -1    0.76    0.09 
  -3   2   1    0.75    0.10 
   3   2  -1    0.71    0.08 
   2  -2  -1   73.50    2.59 
  -2  -2   1   75.25    2.59 
   2   2  -1   74.16    2.59 
  -2   2   1   73.71    2.59 
   2   2  -1   74.41    2.59 
  -2   2   1   74.64    2.59 
  -1  -2   1  179.27    6.01 
   1   2  -1  177.12    6.02 
  -1   2   1  164.76    5.99 
   0   2  -1   57.98    1.99 
   0   2   1   56.73    1.98 
  -1  -2  -1  380.94   13.05 
   1   2   1  378.79   13.03 
  -1   2  -1  370.04   13.02 
   2  -2   1    2.74    0.14 
  -2  -2  -1    3.08    0.15 
  -2   2  -1    2.97    0.16 
  -2   2  -1    2.87    0.14 
   2   2   1    3.16    0.14 
  -3  -2  -1   17.52    0.67 
   3  -2   1   17.36    0.65 
  -3   2  -1   17.94    0.68 
   3   2   1   16.91    0.65 
   4  -2   1    0.17    0.06 
  -4  -2  -1    0.02    0.07 
  -4   2  -1    0.00    0.08 
   4   2   1   -0.05    0.04 
   5  -2   1    0.59    0.11 
  -5  -2  -1    0.66    0.14 
   5   2   1    0.70    0.11 
   5  -3  -1   -0.01    0.07 
   5   3  -1    0.04    0.06 
   4  -3  -1    1.26    0.14 
  -4  -3   1    1.43    0.15 
   4   3  -1    1.53    0.13 
  -3  -3   1    1.47    0.12 
   3  -3  -1    1.27    0.11 
  -3   3   1    1.54    0.14 
  -3   3   1    1.28    0.12 
   3   3  -1    1.54    0.11 
  -2  -3   1   28.58    1.03 
   2  -3  -1   28.87    1.03 
  -2   3   1   28.07    1.03 
  -2   3   1   29.32    1.03 
   2   3  -1   28.27    1.03 
   2   3  -1   29.58    1.03 
   1   3  -1   37.84    1.32 
  -1   3   1   39.14    1.33 
  -1   3   1   36.18    1.32 
   0   3  -1  386.92   12.73 
   0   3   1  346.78   12.67 
  -1  -3  -1    3.32    0.14 
  -1   3  -1    3.37    0.15 
  -1   3  -1    3.28    0.15 
   2  -3   1   14.74    0.54 
  -2  -3  -1   14.35    0.54 
   2   3   1   15.01    0.53 
   2   3   1   14.50    0.55 
  -2   3  -1   14.58    0.55 
  -2   3  -1   14.31    0.55 
  -3  -3  -1   20.02    0.77 
   3  -3   1   20.31    0.76 
  -3   3  -1   20.64    0.78 
   3   3   1   20.44    0.75 
   4  -3   1    3.00    0.18 
  -4  -3  -1    3.08    0.20 
  -4   3  -1    3.09    0.22 
   4   3   1    3.06    0.18 
  -5  -3  -1    2.31    0.21 
   5  -3   1    2.16    0.19 
   5   3   1    2.33    0.17 
   5  -4  -1    0.14    0.09 
   5   4  -1    0.20    0.08 
  -4  -4   1    4.53    0.25 
   4  -4  -1    4.70    0.25 
   4   4  -1    4.78    0.24 
  -3  -4   1    6.30    0.28 
   3  -4  -1    6.19    0.28 
  -3   4   1    6.19    0.29 
   3   4  -1    6.45    0.27 
  -3   4   1    6.41    0.29 
  -2  -4   1   15.17    0.56 
   2  -4  -1   16.29    0.56 
  -2   4   1   15.23    0.57 
  -2   4   1   14.12    0.57 
   2   4  -1   14.98    0.56 
   2   4  -1   15.07    0.56 
   1  -4  -1    4.58    0.18 
  -1   4   1    4.33    0.19 
   1   4  -1    4.54    0.18 
   1   4  -1    4.61    0.19 
  -1   4   1    4.55    0.19 
   0   4   1    6.86    0.27 
   0   4  -1    7.30    0.27 
   1  -4   1   47.74    1.58 
  -1  -4  -1   43.88    1.58 
  -1   4  -1   45.42    1.60 
  -1   4  -1   46.13    1.60 
   1   4   1   43.33    1.59 
  -2  -4  -1    8.00    0.32 
   2  -4   1    8.57    0.32 
   2   4   1    8.16    0.31 
  -2   4  -1    7.77    0.33 
   2   4   1    7.93    0.32 
  -2   4  -1    8.10    0.34 
   3  -4   1    5.64    0.26 
  -3  -4  -1    5.77    0.27 
  -3   4  -1    5.59    0.27 
   3   4   1    5.78    0.25 
  -3   4  -1    6.28    0.30 
   4  -4   1    0.03    0.06 
  -4  -4  -1   -0.06    0.06 
  -4   4  -1    0.15    0.08 
   4   4   1    0.09    0.05 
   5  -4   1   -0.01    0.07 
  -5  -4  -1   -0.05    0.08 
   5   4   1    0.05    0.06 
  -4  -5   1    0.29    0.08 
   4  -5  -1    0.16    0.08 
   4   5  -1    0.27    0.07 
  -3  -5   1    0.09    0.05 
   3  -5  -1    0.12    0.06 
   3   5  -1    0.05    0.04 
  -3   5   1    0.02    0.07 
  -3   5   1    0.01    0.05 
   3   5  -1    0.00    0.05 
  -2  -5   1    0.21    0.04 
   2  -5  -1    0.20    0.04 
   2   5  -1    0.26    0.05 
  -2   5   1    0.29    0.06 
  -2   5   1    0.26    0.05 
   2   5  -1    0.52    0.06 
   1  -5  -1    8.62    0.30 
  -1   5   1    6.61    0.30 
   1   5  -1    8.18    0.30 
   1   5  -1    7.82    0.31 
  -1   5   1    7.80    0.31 
   0   5  -1    6.89    0.27 
   0   5   1    6.44    0.26 
   0   5  -1    7.09    0.27 
   1  -5   1    0.51    0.05 
  -1   5  -1    0.41    0.05 
  -1   5  -1    0.41    0.06 
   1   5   1    0.38    0.05 
   1   5   1    0.37    0.04 
   2  -5   1    2.77    0.14 
  -2  -5  -1    2.72    0.14 
   2   5   1    2.90    0.15 
   2   5   1    2.65    0.13 
  -2   5  -1    3.12    0.17 
  -2   5  -1    2.53    0.16 
  -3  -5  -1    0.07    0.05 
   3  -5   1    0.07    0.05 
   3   5   1    0.03    0.04 
  -3   5  -1    0.01    0.05 
  -3   5  -1    0.03    0.07 
  -4  -5  -1    0.16    0.08 
   4  -5   1    0.19    0.07 
   4   5   1    0.22    0.06 
  -4   5  -1    0.29    0.10 
  -4  -6   1    3.26    0.20 
   4  -6  -1    3.01    0.20 
   4   6  -1    2.98    0.18 
  -3  -6   1    0.49    0.08 
   3  -6  -1    0.33    0.07 
  -3   6   1    0.50    0.09 
   3   6  -1    0.55    0.09 
  -3   6   1    0.47    0.09 
   3   6  -1    0.43    0.07 
   2  -6  -1   21.46    0.80 
  -2  -6   1   21.55    0.81 
   2   6  -1   22.10    0.80 
   2   6  -1   22.18    0.81 
  -2   6   1   22.43    0.81 
  -2   6   1   22.25    0.82 
   1  -6  -1    6.31    0.26 
  -1   6   1    6.56    0.27 
   1   6  -1    6.86    0.27 
  -1   6   1    6.64    0.28 
   1   6  -1    6.51    0.26 
   0   6  -1   16.26    0.60 
   0   6  -1   16.28    0.60 
   0   6   1   15.38    0.59 
   0   6   1   16.51    0.59 
   1  -6   1   64.59    2.28 
  -1   6  -1   64.66    2.29 
  -1   6  -1   67.66    2.30 
   1   6   1   64.16    2.29 
   1   6   1   65.21    2.27 
   2  -6   1    7.21    0.29 
  -2  -6  -1    7.25    0.30 
   2   6   1    7.02    0.28 
  -2   6  -1    6.70    0.31 
   2   6   1    6.87    0.30 
  -2   6  -1    7.10    0.31 
  -3  -6  -1    6.27    0.29 
   3  -6   1    6.17    0.28 
   3   6   1    6.09    0.29 
  -3   6  -1    6.59    0.31 
   3   6   1    6.05    0.27 
  -3   6  -1    6.21    0.30 
   4  -6   1    0.08    0.06 
  -4  -6  -1    0.03    0.06 
   4   6   1    0.03    0.05 
   4  -7  -1    1.30    0.15 
  -4  -7   1    1.23    0.14 
   4   7  -1    1.35    0.13 
   3  -7  -1    0.08    0.05 
  -3  -7   1    0.05    0.05 
   3   7  -1    0.07    0.06 
   3   7  -1    0.00    0.04 
  -3   7   1   -0.05    0.05 
  -3   7   1    0.12    0.06 
  -2  -7   1   20.33    0.74 
   2  -7  -1   19.57    0.73 
  -2   7   1   18.66    0.74 
   2   7  -1   20.25    0.74 
   2   7  -1   19.84    0.73 
  -2   7   1   20.23    0.76 
   1  -7  -1   39.21    1.42 
  -1   7   1   38.79    1.43 
   1   7  -1   41.41    1.43 
   1   7  -1   41.16    1.42 
  -1   7   1   40.39    1.44 
   0   7  -1  158.55    5.41 
   0   7  -1  154.33    5.40 
   0   7   1  159.06    5.40 
   0   7   1  150.92    5.40 
   1  -7   1   11.84    0.44 
  -1   7  -1   11.58    0.45 
   1   7   1   11.56    0.45 
  -1   7  -1   11.50    0.46 
   1   7   1   11.34    0.43 
   2  -7   1    6.12    0.25 
  -2  -7  -1    5.57    0.25 
   2   7   1    5.88    0.26 
  -2   7  -1    5.76    0.27 
  -2   7  -1    5.67    0.27 
   2   7   1    5.75    0.24 
  -3  -7  -1   10.58    0.45 
   3  -7   1    9.60    0.44 
   3   7   1   11.04    0.43 
   3   7   1   11.23    0.46 
  -3   7  -1   11.10    0.47 
  -3   7  -1   11.29    0.47 
  -4  -7  -1    1.40    0.15 
   4  -7   1    1.68    0.15 
   4   7   1    1.65    0.13 
   4  -8  -1    6.33    0.32 
  -4  -8   1    5.99    0.31 
   4   8  -1    6.15    0.30 
   3  -8  -1    5.68    0.27 
  -3  -8   1    5.68    0.28 
  -3   8   1    6.02    0.31 
   3   8  -1    5.85    0.27 
   3   8  -1    5.79    0.29 
   2  -8  -1    7.46    0.31 
  -2  -8   1    7.50    0.32 
   2   8  -1    7.58    0.33 
  -2   8   1    7.32    0.33 
  -2   8   1    7.64    0.34 
   2   8  -1    7.56    0.31 
   1  -8  -1   15.50    0.57 
   1   8  -1   15.83    0.57 
   1   8  -1   15.31    0.59 
  -1   8   1   15.38    0.60 
  -1   8   1   15.00    0.58 
   0   8   1   20.92    0.75 
   0   8  -1   20.40    0.76 
   0   8   1   19.47    0.75 
   0   8  -1   20.28    0.76 
   1  -8   1   50.93    1.81 
   1   8   1   51.21    1.80 
  -1   8  -1   50.91    1.83 
   1   8   1   50.33    1.82 
  -1   8  -1   53.15    1.83 
   2  -8   1    0.08    0.04 
  -2  -8  -1    0.03    0.04 
   2   8   1    0.03    0.05 
  -2   8  -1    0.06    0.05 
   2   8   1    0.04    0.03 
  -2   8  -1    0.03    0.05 
  -3  -8  -1    7.59    0.35 
   3  -8   1    7.32    0.34 
   3   8   1    7.85    0.36 
   3   8   1    7.66    0.33 
  -3   8  -1    8.32    0.38 
  -3   8  -1    8.41    0.37 
   4  -8   1    0.06    0.06 
  -4  -8  -1    0.03    0.07 
   4   8   1    0.15    0.07 
  -4  -9   1    0.22    0.09 
   4  -9  -1    0.08    0.07 
   4   9  -1    0.19    0.09 
   4   9  -1    0.24    0.07 
  -4   9   1    0.20    0.10 
   3  -9  -1    1.11    0.12 
  -3  -9   1    1.46    0.13 
   3   9  -1    1.13    0.11 
   3   9  -1    1.41    0.14 
  -3   9   1    1.23    0.16 
   2  -9  -1    0.02    0.04 
  -2   9   1    0.02    0.04 
   2   9  -1    0.02    0.05 
  -2   9   1    0.02    0.05 
   2   9  -1    0.06    0.04 
   1  -9  -1    1.42    0.10 
   1   9  -1    1.26    0.10 
  -1   9   1    1.36    0.12 
  -1   9   1    1.10    0.10 
   1   9  -1    1.39    0.09 
   0   9   1    1.94    0.13 
   0   9   1    2.01    0.13 
   0   9  -1    2.03    0.14 
   0   9  -1    2.08    0.13 
   1  -9   1    1.47    0.10 
  -1   9  -1    0.96    0.10 
   1   9   1    1.21    0.10 
   1   9   1    0.93    0.11 
  -1   9  -1    1.53    0.13 
  -2  -9  -1    6.81    0.30 
   2  -9   1    6.98    0.30 
  -2   9  -1    6.64    0.31 
   2   9   1    6.52    0.31 
  -2   9  -1    6.81    0.33 
   2   9   1    6.77    0.28 
   3  -9   1   -0.04    0.04 
  -3  -9  -1    0.01    0.05 
   3   9   1   -0.03    0.06 
  -3   9  -1   -0.07    0.06 
  -3   9  -1    0.04    0.06 
   3   9   1    0.04    0.04 
   4  -9   1    1.86    0.17 
  -4  -9  -1    1.83    0.17 
   4   9   1    2.05    0.15 
   4 -10  -1    0.35    0.10 
  -4 -10   1    0.27    0.09 
   4  10  -1    0.49    0.12 
  -4  10   1    0.27    0.11 
   4  10  -1    0.36    0.08 
   3 -10  -1    0.52    0.09 
  -3 -10   1    0.59    0.09 
   3  10  -1    0.53    0.10 
  -3  10   1    0.58    0.11 
   3  10  -1    0.50    0.08 
   2 -10  -1    0.81    0.10 
   2  10  -1    1.02    0.11 
   2  10  -1    0.90    0.09 
  -2  10   1    1.04    0.11 
  -2  10   1    1.05    0.13 
   1 -10  -1    0.02    0.04 
  -1  10   1    0.06    0.05 
  -1  10   1    0.06    0.05 
   1  10  -1    0.02    0.03 
   1  10  -1    0.08    0.05 
   0  10  -1   -0.01    0.06 
   0  10   1    0.15    0.06 
   0  10  -1    0.27    0.06 
   0  10   1    0.25    0.06 
   1 -10   1    0.55    0.08 
   1  10   1    0.65    0.09 
  -1  10  -1    0.73    0.09 
  -1  10  -1    0.59    0.09 
   2 -10   1    1.84    0.13 
  -2 -10  -1    1.75    0.13 
   2  10   1    1.69    0.12 
   2  10   1    1.88    0.14 
  -2  10  -1    1.60    0.14 
  -2  10  -1    1.72    0.16 
   3 -10   1    0.64    0.10 
  -3 -10  -1    0.59    0.10 
  -3  10  -1    0.72    0.13 
   3  10   1    0.67    0.12 
   3  10   1    0.56    0.08 
  -3  10  -1    0.70    0.11 
  -4 -10  -1    0.13    0.08 
   4 -10   1    0.19    0.09 
   4  10   1    0.21    0.07 
  -4  10  -1   -0.06    0.09 
   4 -11  -1    0.36    0.10 
  -4 -11   1    0.45    0.11 
   4  11  -1    0.40    0.12 
  -4  11   1    0.51    0.13 
   4  11  -1    0.32    0.09 
  -3 -11   1    0.05    0.06 
   3 -11  -1    0.08    0.06 
   3  11  -1    0.01    0.06 
   3  11  -1    0.04    0.05 
  -3  11   1   -0.07    0.07 
   2 -11  -1    0.02    0.05 
   2  11  -1    0.02    0.04 
  -2  11   1    0.03    0.06 
   2  11  -1    0.00    0.04 
  -2  11   1    0.07    0.05 
   1 -11  -1    0.66    0.09 
   1  11  -1    0.64    0.09 
  -1  11   1    0.54    0.10 
  -1  11   1    0.97    0.10 
   0  11   1   36.76    1.34 
   0  11  -1   35.72    1.34 
   0  11   1   37.05    1.34 
   0  11  -1   36.92    1.34 
   1 -11   1    0.21    0.06 
   1  11   1    0.10    0.06 
  -1  11  -1    0.05    0.05 
  -1  11  -1    0.12    0.07 
   2 -11   1    3.22    0.18 
  -2 -11  -1    3.10    0.19 
   2  11   1    3.19    0.20 
  -2  11  -1    3.33    0.20 
  -2  11  -1    3.16    0.22 
   2  11   1    3.19    0.17 
  -3 -11  -1    1.93    0.16 
   3 -11   1    1.76    0.15 
  -3  11  -1    2.20    0.17 
  -3  11  -1    2.04    0.21 
   3  11   1    1.85    0.14 
   3  11   1    1.91    0.17 
   4 -11   1    0.41    0.10 
   4  11   1    0.48    0.09 
   3 -12  -1    2.40    0.18 
  -3 -12   1    2.75    0.19 
   3  12  -1    2.63    0.17 
  -3  12   1    2.52    0.23 
   3  12  -1    2.49    0.20 
   2 -12  -1   15.56    0.63 
   2  12  -1   15.96    0.65 
  -2  12   1   16.08    0.67 
   2  12  -1   16.05    0.62 
  -2  12   1   16.04    0.64 
   1 -12  -1   10.57    0.44 
   1  12  -1   10.82    0.46 
  -1  12   1   11.24    0.46 
  -1  12   1   10.51    0.47 
   0  12   1    3.56    0.21 
   0  12  -1    3.41    0.20 
   0  12   1    3.50    0.21 
   0  12  -1    3.76    0.22 
   1 -12   1   37.74    1.38 
   1  12   1   36.94    1.39 
  -1  12  -1   37.63    1.41 
  -1  12  -1   39.50    1.40 
   2 -12   1    3.36    0.20 
  -2 -12  -1    3.26    0.20 
  -2  12  -1    3.25    0.23 
   2  12   1    3.41    0.18 
  -2  12  -1    3.50    0.21 
   2  12   1    3.41    0.21 
   3 -12   1    0.26    0.08 
  -3 -12  -1    0.23    0.08 
  -3  12  -1    0.21    0.10 
   3  12   1    0.22    0.09 
   3  12   1    0.16    0.07 
  -3 -13   1   -0.02    0.05 
   3 -13  -1    0.02    0.06 
  -3  13   1   -0.03    0.08 
   3  13  -1    0.03    0.07 
   3  13  -1   -0.07    0.05 
   2 -13  -1    1.72    0.14 
   2  13  -1    1.65    0.15 
  -2  13   1    1.83    0.19 
   2  13  -1    1.99    0.14 
   1 -13  -1    9.59    0.40 
   1  13  -1    8.82    0.41 
  -1  13   1    9.38    0.41 
  -1  13   1    8.88    0.43 
   0  13   1    0.87    0.12 
   0  13  -1    1.04    0.11 
   0  13   1    0.96    0.13 
   1 -13   1    2.94    0.18 
  -1  13  -1    3.20    0.20 
  -1  13  -1    2.84    0.21 
   1  13   1    2.91    0.20 
  -2 -13  -1   10.47    0.47 
   2 -13   1   10.73    0.46 
  -2  13  -1   10.68    0.48 
   2  13   1   10.79    0.48 
  -2  13  -1   10.82    0.50 
  -3 -13  -1    4.01    0.25 
   3 -13   1    3.59    0.23 
  -3  13  -1    4.32    0.29 
   3  13   1    3.81    0.22 
   3  13   1    3.80    0.26 
  -3 -14   1    0.67    0.12 
   3 -14  -1    0.69    0.12 
   3  14  -1    0.53    0.12 
   3  14  -1    0.84    0.11 
  -3  14   1    0.83    0.15 
   2 -14  -1    0.71    0.10 
   2  14  -1    0.77    0.12 
  -2  14   1    0.76    0.14 
   1 -14  -1    1.86    0.15 
  -1  14   1    1.56    0.17 
   1  14  -1    1.93    0.16 
  -1  14   1    1.90    0.15 
   0  14   1    1.01    0.14 
   0  14   1    0.60    0.11 
   0  14  -1    0.62    0.10 
   1 -14   1   -0.04    0.05 
   1  14   1    0.08    0.07 
  -1  14  -1    0.02    0.05 
  -1  14  -1    0.06    0.07 
   2 -14   1    3.48    0.22 
  -2 -14  -1    3.70    0.23 
  -2  14  -1    3.61    0.26 
   2  14   1    3.59    0.24 
  -2  14  -1    3.36    0.22 
  -3 -14  -1    0.83    0.14 
   3 -14   1    0.88    0.13 
  -3  14  -1    0.79    0.16 
   3  14   1    0.80    0.11 
   3  14   1    0.56    0.13 
   2 -15  -1    0.28    0.08 
   2  15  -1    0.28    0.09 
  -2  15   1    0.24    0.10 
   1 -15  -1    0.60    0.10 
  -1  15   1    0.59    0.12 
   1  15  -1    0.72    0.12 
  -1  15   1    0.56    0.11 
   0  15   1    0.80    0.12 
   0  15  -1    0.96    0.12 
   0  15   1    0.89    0.13 
   1 -15   1    0.05    0.06 
  -1  15  -1    0.09    0.07 
   1  15   1    0.20    0.08 
  -1  15  -1    0.41    0.10 
   2 -15   1    1.39    0.15 
  -2 -15  -1    1.26    0.15 
  -2  15  -1    1.77    0.17 
  -2  15  -1    1.55    0.19 
   2  15   1    1.36    0.17 
   2 -16  -1    0.73    0.12 
   2  16  -1    0.79    0.13 
  -2  16   1    0.75    0.15 
   1 -16  -1    5.19    0.28 
  -1  16   1    5.32    0.32 
  -1  16   1    5.18    0.29 
   1  16  -1    4.83    0.29 
   0  16   1    3.03    0.23 
   0  16  -1    3.40    0.22 
   0  16   1    3.19    0.22 
   1 -16   1    1.36    0.15 
   1  16   1    1.19    0.16 
  -1  16  -1    1.55    0.16 
  -2 -16  -1    0.53    0.11 
   2 -16   1    0.60    0.11 
   2  16   1    0.68    0.13 
  -2  16  -1    0.73    0.13 
   1 -17  -1    0.09    0.07 
  -1  17   1    0.11    0.08 
   1  17  -1    0.03    0.07 
  -1  17   1   -0.02    0.09 
   0  17  -1    1.62    0.17 
   0  17   1    1.34    0.16 
   1 -17   1    2.40    0.19 
   1  17   1    2.55    0.22 
  -1  17  -1    2.52    0.20 
   1 -18  -1    0.83    0.13 
  -1  18   1    0.62    0.15 
   0 -18  -1    3.49    0.23 
   0  18   1    3.43    0.25 
   0  18  -1    3.68    0.25 
   1 -18   1    0.68    0.12 
  -1  18  -1    0.75    0.14 
   5   0  -2    0.19    0.08 
   4   0  -2    0.95    0.11 
  -3   0   2    5.93    0.26 
   3   0  -2    5.54    0.26 
  -2   0   2    9.43    0.36 
   2   0  -2    9.68    0.37 
  -2   0   2    9.60    0.36 
  -1   0   2  533.48   18.38 
   1   0  -2  532.94   18.39 
   0   0  -2  111.85    3.87 
  -1   0  -2  217.21    7.51 
  -2   0  -2   10.73    0.43 
   2   0   2   11.62    0.42 
   3   0   2    0.37    0.06 
  -3   0  -2    0.47    0.09 
   4   0   2    0.24    0.06 
  -4   0  -2    0.40    0.10 
  -5   0  -2    0.16    0.10 
   5   0   2    0.23    0.08 
   5  -1  -2   -0.03    0.07 
   5   1  -2   -0.05    0.06 
   4  -1  -2    4.49    0.24 
   4   1  -2    4.83    0.24 
  -3  -1   2    5.04    0.23 
   3  -1  -2    4.59    0.22 
   3   1  -2    4.72    0.22 
  -3   1   2    4.73    0.23 
  -2  -1   2   33.63    1.19 
   2  -1  -2   33.10    1.19 
   2   1  -2   33.46    1.19 
  -2   1   2   33.16    1.19 
  -2   1   2   34.42    1.19 
  -1  -1   2   26.21    0.92 
   1   1  -2   26.28    0.92 
   0  -1  -2   10.88    0.38 
  -1  -1  -2 1000.00   36.64 
  -1   1  -2  992.15   34.40 
  -2  -1  -2    5.14    0.22 
   2  -1   2    4.83    0.20 
   2   1   2    4.94    0.20 
  -2   1  -2    5.07    0.23 
  -3  -1  -2    5.81    0.28 
   3  -1   2    5.50    0.25 
  -3   1  -2    6.01    0.28 
   3   1   2    5.35    0.24 
  -4  -1  -2    0.55    0.11 
   4  -1   2    0.44    0.08 
  -4   1  -2    0.57    0.12 
   4   1   2    0.65    0.09 
   5  -1   2    0.09    0.07 
  -5  -1  -2    0.16    0.10 
   5   1   2    0.07    0.08 
  -5   1  -2    0.07    0.10 
   5  -2  -2    0.13    0.08 
   5   2  -2    0.08    0.07 
  -4  -2   2    0.16    0.08 
   4  -2  -2    0.32    0.08 
   4   2  -2    0.28    0.07 
   3  -2  -2    6.09    0.28 
  -3  -2   2    7.00    0.29 
   3   2  -2    6.38    0.28 
  -3   2   2    6.46    0.29 
   2  -2  -2    0.02    0.03 
  -2  -2   2    0.04    0.03 
   2   2  -2    0.12    0.03 
  -2   2   2    0.13    0.03 
   2   2  -2    0.08    0.03 
  -2   2   2    0.03    0.03 
  -1   2   2    0.03    0.02 
   1   2  -2    0.05    0.02 
   0   2  -2   30.02    1.06 
   0   2   2   30.32    1.05 
  -1  -2  -2   71.40    2.48 
   1   2   2   72.35    2.48 
  -1   2  -2   70.46    2.49 
  -2  -2  -2   36.46    1.32 
   2  -2   2   37.58    1.31 
   2   2   2   38.27    1.31 
  -2   2  -2   36.52    1.33 
  -3  -2  -2    5.14    0.25 
   3  -2   2    4.84    0.23 
  -3   2  -2    5.89    0.28 
   3   2   2    4.77    0.22 
   4  -2   2    1.12    0.12 
  -4  -2  -2    1.35    0.15 
  -4   2  -2    1.51    0.17 
   4   2   2    1.36    0.12 
  -5  -2  -2    0.10    0.10 
   5  -2   2    0.01    0.07 
   5  -3  -2    2.32    0.19 
   5   3  -2    1.84    0.17 
  -4  -3   2    2.45    0.18 
   4  -3  -2    2.79    0.18 
   4   3  -2    2.59    0.17 
  -3  -3   2    0.05    0.05 
   3  -3  -2    0.09    0.05 
  -3   3   2   -0.08    0.06 
   3   3  -2    0.06    0.04 
  -3   3   2   -0.12    0.05 
  -2  -3   2   18.73    0.68 
   2  -3  -2   18.10    0.68 
   2   3  -2   18.88    0.68 
  -2   3   2   18.39    0.68 
  -2   3   2   19.21    0.69 
   2   3  -2   18.89    0.68 
   1   3  -2    4.21    0.17 
   1   3  -2    4.55    0.17 
  -1   3   2    3.80    0.16 
   0   3   2   22.07    0.76 
   0   3  -2   21.45    0.77 
  -1  -3  -2   73.32    2.53 
   1   3   2   73.22    2.53 
  -1   3  -2   71.91    2.54 
  -1   3  -2   72.23    2.53 
  -2  -3  -2    8.30    0.35 
   2  -3   2    9.01    0.34 
  -2   3  -2    8.52    0.36 
   2   3   2    9.37    0.33 
  -2   3  -2    8.48    0.35 
   3  -3   2   18.88    0.73 
  -3  -3  -2   19.99    0.75 
   3   3   2   19.67    0.73 
  -3   3  -2   20.47    0.77 
  -4  -3  -2    0.04    0.07 
   4  -3   2    0.09    0.06 
  -4   3  -2    0.23    0.10 
   4   3   2    0.19    0.06 
   5  -3   2   -0.07    0.06 
  -5  -3  -2   -0.04    0.09 
   5  -4  -2   -0.03    0.08 
   5   4  -2    0.10    0.07 
   4  -4  -2    4.20    0.24 
  -4  -4   2    4.35    0.24 
   4   4  -2    4.62    0.23 
   3  -4  -2   14.33    0.56 
  -3  -4   2   14.53    0.56 
  -3   4   2   14.99    0.58 
  -3   4   2   14.59    0.57 
   3   4  -2   14.74    0.56 
   3   4  -2   14.06    0.56 
   2  -4  -2    3.17    0.15 
  -2  -4   2    3.03    0.14 
  -2   4   2    3.25    0.16 
   2   4  -2    3.07    0.15 
  -2   4   2    2.83    0.15 
   1  -4  -2  124.28    4.13 
  -1   4   2  107.67    4.13 
   1   4  -2  122.67    4.13 
  -1   4   2  120.57    4.15 
   1   4  -2  121.97    4.14 
   0   4  -2   74.24    2.55 
   0   4   2   72.32    2.54 
   1  -4   2    2.11    0.10 
  -1  -4  -2    1.94    0.10 
  -1   4  -2    2.01    0.11 
   1   4   2    1.98    0.10 
  -1   4  -2    1.94    0.11 
   2  -4   2   10.24    0.39 
  -2  -4  -2   10.08    0.40 
   2   4   2   10.34    0.38 
  -2   4  -2   10.25    0.41 
  -2   4  -2    9.84    0.40 
   2   4   2   10.32    0.40 
   3  -4   2    7.03    0.30 
  -3  -4  -2    7.09    0.32 
  -3   4  -2    7.38    0.34 
   3   4   2    6.95    0.30 
  -4  -4  -2    0.02    0.07 
   4  -4   2   -0.02    0.05 
  -4   4  -2   -0.01    0.07 
   4   4   2   -0.01    0.04 
  -4  -5   2    3.39    0.21 
   4  -5  -2    3.57    0.22 
   4   5  -2    3.64    0.20 
   3  -5  -2    1.44    0.12 
  -3  -5   2    1.54    0.12 
   3   5  -2    1.46    0.12 
  -3   5   2    1.38    0.13 
   3   5  -2    1.42    0.11 
  -2  -5   2   10.41    0.40 
   2  -5  -2   10.34    0.40 
  -2   5   2   10.48    0.41 
   2   5  -2   10.33    0.40 
   2   5  -2   10.61    0.41 
  -2   5   2   10.59    0.42 
   1  -5  -2  298.26    9.98 
   1   5  -2  295.46   10.00 
   1   5  -2  292.48    9.98 
  -1   5   2  291.22   10.00 
  -1   5   2  269.33   10.00 
   0   5   2   33.25    1.13 
   0   5   2   30.49    1.12 
   0   5  -2   31.44    1.13 
   1  -5   2  124.06    4.28 
  -1  -5  -2  122.54    4.28 
   1   5   2  120.49    4.29 
  -1   5  -2  124.47    4.30 
  -1   5  -2  127.54    4.30 
   1   5   2  122.45    4.27 
  -2  -5  -2    0.74    0.07 
   2  -5   2    0.77    0.07 
   2   5   2    0.72    0.06 
  -2   5  -2    0.58    0.08 
  -2   5  -2    0.73    0.10 
   2   5   2    0.79    0.08 
   3  -5   2   25.22    0.95 
  -3  -5  -2   24.79    0.96 
  -3   5  -2   27.19    0.98 
  -3   5  -2   26.32    0.96 
   3   5   2   25.18    0.93 
  -4  -5  -2    1.28    0.15 
   4  -5   2    1.32    0.14 
  -4   5  -2    1.67    0.17 
   4   5   2    1.22    0.12 
   4  -6  -2    1.60    0.16 
  -4  -6   2    1.80    0.16 
   4   6  -2    1.67    0.14 
   3  -6  -2    5.28    0.26 
  -3  -6   2    5.50    0.25 
  -3   6   2    5.47    0.28 
   3   6  -2    5.38    0.26 
   3   6  -2    5.32    0.25 
  -2  -6   2    9.77    0.38 
   2  -6  -2    9.86    0.38 
   2   6  -2   10.00    0.38 
   2   6  -2   10.09    0.37 
  -2   6   2    9.22    0.39 
  -2   6   2    8.40    0.38 
   1  -6  -2   35.44    1.25 
  -1   6   2   33.31    1.25 
   1   6  -2   36.71    1.26 
  -1   6   2   34.99    1.26 
   1   6  -2   35.66    1.24 
   0   6   2   17.01    0.64 
   0   6  -2   17.39    0.64 
   0   6   2   17.95    0.64 
  -1  -6  -2    8.99    0.35 
   1  -6   2    9.47    0.35 
   1   6   2    9.06    0.35 
   1   6   2    8.98    0.36 
  -1   6  -2    9.48    0.37 
  -1   6  -2    9.38    0.37 
  -2  -6  -2    1.02    0.09 
   2  -6   2    1.00    0.08 
  -2   6  -2    0.81    0.10 
  -2   6  -2    0.96    0.11 
   2   6   2    0.91    0.09 
   2   6   2    0.92    0.07 
  -3  -6  -2    3.93    0.21 
   3  -6   2    3.60    0.20 
  -3   6  -2    3.83    0.22 
  -3   6  -2    4.16    0.24 
   3   6   2    3.81    0.19 
   4  -6   2   -0.01    0.06 
  -4  -6  -2    0.01    0.06 
   4   6   2    0.04    0.05 
  -4   6  -2    0.05    0.08 
   4  -7  -2   -0.11    0.06 
  -4  -7   2    0.04    0.06 
   4   7  -2    0.09    0.06 
  -3  -7   2    0.02    0.05 
   3  -7  -2    0.09    0.05 
   3   7  -2    0.03    0.04 
   3   7  -2    0.03    0.05 
  -3   7   2   -0.12    0.05 
   2  -7  -2    2.06    0.12 
  -2  -7   2    2.04    0.12 
  -2   7   2    1.64    0.12 
  -2   7   2    1.85    0.14 
   2   7  -2    2.00    0.12 
   2   7  -2    2.03    0.13 
   1  -7  -2   17.50    0.65 
  -1   7   2   17.13    0.65 
   1   7  -2   18.43    0.66 
   1   7  -2   18.21    0.65 
  -1   7   2   17.45    0.67 
   0   7   2   13.85    0.50 
   0   7   2   13.27    0.50 
   0   7  -2   12.55    0.50 
   1  -7   2    1.18    0.08 
  -1   7  -2    1.16    0.10 
  -1   7  -2    1.43    0.10 
   1   7   2    1.04    0.07 
   1   7   2    1.37    0.09 
   2  -7   2    1.58    0.10 
  -2  -7  -2    1.58    0.11 
  -2   7  -2    1.22    0.12 
   2   7   2    1.33    0.11 
  -2   7  -2    1.42    0.12 
   2   7   2    1.43    0.09 
  -3  -7  -2    2.35    0.17 
   3  -7   2    2.97    0.16 
   3   7   2    2.57    0.15 
  -3   7  -2    2.64    0.20 
   3   7   2    2.68    0.18 
  -3   7  -2    2.67    0.18 
  -4  -7  -2   -0.04    0.06 
   4  -7   2   -0.08    0.05 
   4   7   2    0.01    0.05 
  -4   7  -2    0.21    0.09 
  -4  -8   2   -0.06    0.05 
   4  -8  -2    0.03    0.07 
   4   8  -2    0.11    0.06 
   4   8  -2    0.03    0.07 
   3  -8  -2    1.49    0.13 
  -3  -8   2    1.46    0.13 
   3   8  -2    1.47    0.13 
  -3   8   2    1.46    0.16 
   3   8  -2    1.51    0.12 
   2  -8  -2    1.38    0.10 
   2   8  -2    1.23    0.10 
  -2   8   2    0.95    0.12 
  -2   8   2    0.89    0.10 
   2   8  -2    1.27    0.09 
   1  -8  -2   24.79    0.91 
   1   8  -2   25.92    0.92 
  -1   8   2   24.41    0.91 
   1   8  -2   25.64    0.91 
  -1   8   2   24.71    0.93 
   0   8  -2    0.66    0.07 
   0   8   2    0.83    0.09 
   0   8   2    0.76    0.08 
   1  -8   2    5.96    0.25 
   1   8   2    5.78    0.25 
  -1   8  -2    5.51    0.27 
   1   8   2    5.54    0.23 
  -1   8  -2    6.02    0.26 
   2  -8   2    0.67    0.08 
  -2  -8  -2    0.68    0.08 
   2   8   2    0.67    0.09 
   2   8   2    0.63    0.07 
  -2   8  -2    0.69    0.10 
  -2   8  -2    0.65    0.09 
  -3  -8  -2    4.17    0.22 
   3  -8   2    3.94    0.21 
   3   8   2    3.85    0.23 
   3   8   2    3.99    0.20 
  -3   8  -2    4.14    0.24 
  -3   8  -2    4.44    0.25 
   4  -8   2    0.86    0.12 
  -4  -8  -2    0.73    0.12 
   4   8   2    0.96    0.11 
   4  -9  -2    1.12    0.14 
  -4  -9   2    1.09    0.14 
   4   9  -2    1.03    0.15 
  -4   9   2    0.94    0.15 
   4   9  -2    1.01    0.12 
   3  -9  -2    1.60    0.14 
  -3  -9   2    1.89    0.14 
   3   9  -2    1.65    0.13 
  -3   9   2    1.88    0.17 
   3   9  -2    1.93    0.15 
   2  -9  -2    6.81    0.30 
  -2   9   2    7.08    0.33 
   2   9  -2    6.94    0.31 
   2   9  -2    6.93    0.30 
  -2   9   2    6.94    0.31 
   1  -9  -2   35.08    1.28 
   1   9  -2   36.28    1.27 
  -1   9   2   36.43    1.29 
   1   9  -2   36.09    1.29 
  -1   9   2   34.44    1.30 
   0   9  -2    1.82    0.12 
   0   9   2    1.87    0.12 
   0   9   2    1.84    0.13 
   1  -9   2   93.43    3.26 
   1   9   2   93.07    3.27 
  -1   9  -2   94.17    3.28 
  -1   9  -2   94.00    3.28 
   1   9   2   91.50    3.26 
   2  -9   2    1.29    0.11 
  -2  -9  -2    1.11    0.11 
  -2   9  -2    1.15    0.14 
   2   9   2    1.12    0.10 
  -2   9  -2    1.30    0.13 
   2   9   2    1.12    0.11 
   3  -9   2    3.18    0.19 
  -3  -9  -2    3.35    0.20 
  -3   9  -2    3.47    0.23 
  -3   9  -2    3.67    0.22 
   3   9   2    3.26    0.18 
   3   9   2    3.28    0.21 
   4  -9   2    0.10    0.07 
  -4  -9  -2    0.22    0.09 
   4   9   2    0.08    0.05 
  -4 -10   2    0.43    0.10 
   4 -10  -2    0.66    0.12 
  -4  10   2    0.66    0.14 
   4  10  -2    0.59    0.10 
   4  10  -2    0.53    0.12 
   3 -10  -2    4.42    0.24 
  -3 -10   2    4.22    0.24 
  -3  10   2    4.50    0.27 
   3  10  -2    4.38    0.23 
   3  10  -2    4.61    0.25 
   2 -10  -2    2.94    0.16 
   2  10  -2    2.74    0.17 
  -2  10   2    2.68    0.19 
   2  10  -2    2.97    0.16 
  -2  10   2    2.65    0.17 
   1 -10  -2   13.64    0.54 
   1  10  -2   13.99    0.56 
  -1  10   2   13.26    0.56 
   1  10  -2   14.15    0.54 
  -1  10   2   15.34    0.56 
   0  10   2   13.94    0.55 
   0  10   2   14.03    0.55 
   0  10  -2   13.94    0.56 
   1 -10   2    0.34    0.06 
   1  10   2    0.34    0.08 
   1  10   2    0.28    0.06 
  -1  10  -2    0.39    0.08 
  -1  10  -2    0.30    0.07 
  -2 -10  -2    2.72    0.17 
   2 -10   2    2.99    0.17 
  -2  10  -2    2.78    0.18 
   2  10   2    2.85    0.16 
   2  10   2    2.98    0.18 
  -2  10  -2    2.96    0.20 
   3 -10   2    1.60    0.14 
  -3 -10  -2    1.53    0.14 
   3  10   2    1.82    0.16 
  -3  10  -2    1.81    0.16 
  -3  10  -2    1.56    0.18 
   3  10   2    1.54    0.12 
  -4 -10  -2   -0.07    0.06 
   4 -10   2    0.05    0.07 
   4  10   2   -0.05    0.05 
   4 -11  -2    0.96    0.14 
  -4 -11   2    1.04    0.15 
   4  11  -2    1.08    0.15 
   4  11  -2    1.17    0.14 
  -4  11   2    1.36    0.21 
   3 -11  -2   -0.01    0.05 
  -3 -11   2   -0.02    0.05 
   3  11  -2    0.02    0.07 
  -3  11   2   -0.04    0.07 
   3  11  -2    0.04    0.05 
   2 -11  -2    0.68    0.09 
  -2  11   2    0.91    0.13 
   2  11  -2    0.89    0.11 
   2  11  -2    0.77    0.09 
   1 -11  -2    1.99    0.13 
  -1  11   2    1.95    0.14 
  -1  11   2    1.73    0.16 
   1  11  -2    2.09    0.15 
   0  11   2   29.60    1.09 
   0  11  -2   28.84    1.09 
   0  11   2   29.20    1.08 
   1 -11   2   50.80    1.79 
  -1  11  -2   51.15    1.81 
   1  11   2   49.08    1.80 
  -1  11  -2   49.35    1.82 
   2 -11   2    0.13    0.05 
  -2 -11  -2    0.11    0.06 
   2  11   2    0.10    0.05 
  -2  11  -2    0.19    0.07 
   2  11   2    0.15    0.07 
  -2  11  -2    0.08    0.06 
  -3 -11  -2    1.32    0.14 
   3 -11   2    1.39    0.14 
  -3  11  -2    1.61    0.19 
  -3  11  -2    1.70    0.15 
   3  11   2    1.55    0.16 
   3  11   2    1.22    0.12 
   4 -11   2    0.12    0.08 
   4  11   2    0.16    0.07 
  -3 -12   2    0.22    0.08 
   3 -12  -2    0.25    0.08 
   3  12  -2    0.25    0.09 
   3  12  -2    0.24    0.07 
  -3  12   2    0.27    0.11 
   2 -12  -2    1.92    0.14 
   2  12  -2    1.87    0.15 
   2  12  -2    2.00    0.13 
  -2  12   2    1.65    0.17 
   1 -12  -2    2.76    0.16 
  -1  12   2    2.78    0.17 
   1  12  -2    2.64    0.17 
  -1  12   2    2.58    0.19 
   0  12   2    2.84    0.18 
   0  12  -2    3.07    0.18 
   0  12   2    2.97    0.20 
   1 -12   2    3.77    0.21 
  -1  12  -2    3.64    0.24 
   1  12   2    4.23    0.23 
  -1  12  -2    4.40    0.23 
  -2 -12  -2    2.08    0.17 
   2 -12   2    2.22    0.16 
   2  12   2    2.36    0.18 
  -2  12  -2    2.31    0.17 
  -2  12  -2    2.28    0.20 
   3 -12   2    0.47    0.10 
  -3 -12  -2    0.77    0.12 
   3  12   2    0.50    0.12 
  -3  12  -2    0.78    0.13 
   3  12   2    0.64    0.09 
  -3 -13   2    0.19    0.08 
   3 -13  -2    0.03    0.06 
   3  13  -2    0.08    0.07 
   3  13  -2    0.13    0.09 
  -3  13   2    0.13    0.10 
   2 -13  -2    0.58    0.10 
   2  13  -2    0.82    0.12 
  -2  13   2    0.74    0.13 
   2  13  -2    0.79    0.10 
   1 -13  -2    2.15    0.15 
  -1  13   2    1.90    0.18 
   1  13  -2    2.55    0.17 
  -1  13   2    2.20    0.16 
   0  13   2    0.23    0.08 
   0  13   2    0.29    0.08 
   0  13  -2    0.33    0.07 
   1 -13   2    3.96    0.22 
  -1  13  -2    4.27    0.24 
   1  13   2    3.74    0.23 
   2 -13   2    2.87    0.18 
  -2 -13  -2    2.56    0.19 
  -2  13  -2    2.79    0.22 
  -2  13  -2    2.58    0.20 
   2  13   2    2.83    0.21 
  -3 -13  -2    3.87    0.25 
   3 -13   2    3.70    0.24 
   3  13   2    4.20    0.27 
   3  13   2    3.76    0.22 
  -3  13  -2    4.43    0.26 
   3 -14  -2    0.65    0.12 
  -3 -14   2    0.77    0.12 
  -3  14   2    0.83    0.16 
   3  14  -2    0.89    0.14 
   3  14  -2    0.60    0.10 
   2 -14  -2    1.08    0.13 
  -2  14   2    0.86    0.14 
   2  14  -2    0.81    0.12 
   1 -14  -2    3.87    0.22 
   1  14  -2    4.01    0.24 
  -1  14   2    4.04    0.23 
  -1  14   2    4.24    0.26 
   0  14  -2    0.41    0.09 
   0  14   2    0.40    0.09 
   0  14   2    0.44    0.09 
   1 -14   2    0.58    0.10 
  -1  14  -2    0.68    0.12 
   1  14   2    0.59    0.11 
  -2 -14  -2    0.25    0.08 
   2 -14   2    0.33    0.09 
   2  14   2    0.33    0.10 
  -2  14  -2    0.39    0.09 
  -3 -14  -2   -0.03    0.07 
   3 -14   2    0.09    0.07 
   3  14   2    0.17    0.10 
   3  14   2    0.15    0.07 
   2 -15  -2    3.03    0.20 
  -2  15   2    3.53    0.26 
   2  15  -2    3.09    0.22 
   1 -15  -2    4.16    0.23 
  -1  15   2    4.46    0.25 
  -1  15   2    4.20    0.27 
   1  15  -2    4.01    0.25 
   0  15  -2    1.47    0.14 
   0  15   2    1.36    0.16 
   0  15   2    1.32    0.14 
   1 -15   2   10.60    0.47 
   1  15   2   10.32    0.48 
  -1  15  -2   11.19    0.49 
   2 -15   2    2.26    0.18 
  -2 -15  -2    2.00    0.18 
   2  15   2    2.19    0.20 
  -2  15  -2    2.19    0.19 
   2 -16  -2    1.88    0.17 
  -2  16   2    1.68    0.21 
   2  16  -2    1.92    0.18 
   1 -16  -2    1.25    0.14 
   1  16  -2    1.16    0.15 
  -1  16   2    1.09    0.16 
   0  16   2    0.00    0.07 
   0  16   2    0.13    0.08 
   0  16  -2    0.09    0.06 
   1 -16   2    0.25    0.09 
   1  16   2    0.30    0.10 
  -1  16  -2    0.17    0.08 
  -2 -16  -2    0.08    0.08 
   2 -16   2   -0.04    0.07 
  -2  16  -2    0.01    0.07 
   2  16   2    0.20    0.10 
   1 -17  -2    1.01    0.14 
   1  17  -2    0.96    0.14 
  -1  17   2    0.94    0.15 
   0 -17  -2    1.36    0.15 
   0  17   2    1.28    0.17 
   0  17  -2    1.30    0.16 
   0  17   2    1.25    0.17 
   1 -17   2    0.21    0.08 
  -1  17  -2    0.25    0.09 
   1  17   2    0.20    0.10 
   0 -18  -2   -0.01    0.06 
   0  18  -2   -0.07    0.07 
   0  18   2   -0.01    0.07 
   5   0  -3   -0.04    0.07 
   4   0  -3    0.03    0.06 
  -3   0   3    0.00    0.05 
   3   0  -3   -0.01    0.05 
   2   0  -3    0.02    0.03 
  -2   0   3    0.05    0.03 
  -2   0   3    0.00    0.03 
   1   0  -3    0.02    0.01 
  -1   0   3    0.01    0.01 
   0   0  -3    0.02    0.02 
   0   0  -3    0.03    0.02 
  -1   0  -3   -0.03    0.03 
  -2   0  -3   -0.04    0.04 
   3   0   3   -0.01    0.04 
  -3   0  -3   -0.08    0.06 
   4   0   3   -0.02    0.05 
  -4   0  -3    0.02    0.08 
  -5   0  -3    0.08    0.09 
   5  -1  -3    0.30    0.09 
   5   1  -3    0.41    0.10 
   4  -1  -3    0.10    0.06 
   4   1  -3    0.10    0.06 
   3  -1  -3   36.10    1.33 
  -3  -1   3   37.68    1.33 
   3   1  -3   36.86    1.33 
  -3   1   3   37.91    1.33 
  -2  -1   3    0.66    0.06 
  -2  -1   3    0.74    0.06 
   2  -1  -3    0.73    0.07 
  -2   1   3    0.64    0.07 
   2   1  -3    0.75    0.06 
  -2   1   3    0.62    0.06 
   2   1  -3    0.75    0.06 
   1   1  -3   14.72    0.52 
   0  -1  -3    1.54    0.06 
   0  -1  -3    1.39    0.08 
  -1  -1  -3   27.60    0.96 
  -1   1  -3   26.58    0.96 
  -2  -1  -3  147.96    5.13 
  -2   1  -3  147.66    5.13 
  -3  -1  -3    8.62    0.37 
   3  -1   3    7.73    0.33 
  -3   1  -3    8.81    0.37 
   3   1   3    7.63    0.33 
  -4  -1  -3    1.19    0.16 
   4  -1   3    1.34    0.12 
   4   1   3    1.25    0.12 
  -4   1  -3    1.70    0.17 
  -5  -1  -3   -0.03    0.09 
  -5   1  -3    0.06    0.09 
   5  -2  -3    3.06    0.21 
   5   2  -3    2.53    0.19 
   4  -2  -3    1.15    0.12 
   4   2  -3    0.93    0.11 
   3  -2  -3   21.19    0.81 
  -3  -2   3   21.71    0.80 
  -3   2   3   22.60    0.81 
   3   2  -3   21.44    0.80 
   2  -2  -3    0.05    0.03 
   2   2  -3    0.12    0.03 
  -2   2   3    0.24    0.04 
   2   2  -3    0.07    0.03 
  -2   2   3    0.09    0.03 
  -1   2   3   34.68    1.18 
   1   2  -3   32.07    1.17 
   0  -2  -3    2.18    0.08 
   0  -2  -3    1.96    0.10 
   0   2  -3    1.85    0.10 
   0   2   3    2.19    0.09 
  -1  -2  -3   41.81    1.46 
  -1   2  -3   41.20    1.46 
  -2  -2  -3   15.11    0.56 
  -2   2  -3   14.60    0.57 
  -3  -2  -3   28.68    1.06 
   3  -2   3   28.07    1.04 
  -3   2  -3   30.00    1.07 
   3   2   3   28.06    1.03 
   4  -2   3    2.91    0.18 
  -4  -2  -3    2.97    0.21 
  -4   2  -3    3.29    0.23 
   4   2   3    3.03    0.18 
  -5  -2  -3    0.49    0.13 
  -5   2  -3    0.36    0.13 
   5  -3  -3    0.17    0.09 
   5   3  -3    0.30    0.09 
   4  -3  -3    2.91    0.18 
   4   3  -3    2.51    0.17 
   3  -3  -3   34.69    1.27 
  -3  -3   3   35.14    1.26 
   3   3  -3   33.94    1.26 
  -3   3   3   36.15    1.27 
  -2  -3   3    0.01    0.02 
   2  -3  -3   -0.04    0.03 
  -2   3   3    0.04    0.03 
   2   3  -3    0.00    0.02 
   2   3  -3    0.05    0.03 
  -2   3   3    0.00    0.03 
   1  -3  -3  170.97    5.76 
  -1   3   3  168.12    5.77 
   1   3  -3  159.00    5.76 
   1   3  -3  169.00    5.76 
   0  -3  -3   89.91    3.12 
   0  -3  -3   91.20    3.11 
   0   3  -3   87.93    3.13 
   0   3   3   91.22    3.11 
  -1  -3  -3    2.81    0.12 
   1   3   3    2.66    0.13 
  -1   3  -3    2.68    0.14 
   2  -3   3   83.32    2.94 
  -2  -3  -3   81.68    2.96 
  -2   3  -3   89.03    2.98 
  -3  -3  -3    2.55    0.17 
   3  -3   3    2.71    0.15 
  -3   3  -3    2.57    0.20 
   3   3   3    2.52    0.14 
   4  -3   3    3.54    0.21 
  -4  -3  -3    3.76    0.24 
  -4   3  -3    4.11    0.26 
   4   3   3    3.95    0.20 
  -5  -3  -3    0.09    0.09 
  -5   3  -3    0.03    0.10 
   4  -4  -3    0.60    0.10 
   4   4  -3    0.62    0.09 
   3  -4  -3   -0.06    0.05 
  -3  -4   3    0.02    0.05 
   3   4  -3    0.20    0.06 
  -3   4   3   -0.02    0.04 
   3   4  -3    0.09    0.04 
   2  -4  -3    6.77    0.28 
  -2  -4   3    6.79    0.27 
   2   4  -3    7.01    0.28 
  -2   4   3    6.41    0.27 
   2   4  -3    6.89    0.28 
  -2   4   3    7.16    0.29 
   1  -4  -3    1.88    0.09 
   1   4  -3    1.98    0.10 
   1   4  -3    1.92    0.09 
  -1   4   3    1.74    0.09 
  -1   4   3    2.05    0.11 
   0   4  -3  101.14    3.59 
   0   4   3  100.98    3.58 
   0   4   3  108.21    3.59 
   1  -4   3   44.25    1.52 
  -1  -4  -3   42.33    1.52 
   1   4   3   42.99    1.52 
  -1   4  -3   43.76    1.54 
   2  -4   3    0.54    0.06 
  -2  -4  -3    0.82    0.08 
   2   4   3    0.54    0.07 
  -2   4  -3    0.56    0.08 
   3  -4   3    2.28    0.14 
  -3  -4  -3    2.43    0.16 
  -3   4  -3    2.25    0.19 
   3   4   3    2.28    0.13 
  -4  -4  -3    3.49    0.22 
   4  -4   3    3.17    0.20 
  -4   4  -3    3.28    0.24 
   4   4   3    3.22    0.18 
  -4  -5   3    0.19    0.08 
   4  -5  -3    0.23    0.08 
   4   5  -3    0.35    0.08 
  -3  -5   3    0.15    0.06 
   3  -5  -3    0.08    0.05 
  -3   5   3   -0.06    0.05 
   3   5  -3    0.15    0.05 
   3   5  -3    0.12    0.06 
  -2  -5   3    4.94    0.21 
   2  -5  -3    4.73    0.21 
  -2   5   3    4.79    0.23 
   2   5  -3    5.03    0.21 
  -2   5   3    4.15    0.20 
   2   5  -3    4.84    0.21 
   1  -5  -3    4.86    0.20 
  -1   5   3    4.80    0.22 
  -1   5   3    4.96    0.20 
   1   5  -3    5.23    0.21 
   0   5   3    1.06    0.06 
   0   5   3    1.14    0.08 
   0   5  -3    1.19    0.08 
  -1  -5  -3    0.28    0.04 
   1  -5   3    0.21    0.03 
   1   5   3    0.22    0.04 
  -1   5  -3    0.42    0.06 
   2  -5   3    3.00    0.14 
  -2  -5  -3    2.92    0.15 
  -2   5  -3    2.92    0.17 
   2   5   3    2.86    0.16 
  -3  -5  -3    4.78    0.25 
   3  -5   3    5.49    0.24 
   3   5   3    5.02    0.23 
  -3   5  -3    5.22    0.29 
   4  -5   3    0.01    0.06 
  -4  -5  -3    0.07    0.08 
  -4   5  -3    0.20    0.10 
   4   5   3    0.17    0.06 
   4  -6  -3    0.51    0.10 
  -4  -6   3    0.53    0.10 
   4   6  -3    0.52    0.09 
   3  -6  -3    5.57    0.27 
  -3  -6   3    5.96    0.27 
  -3   6   3    5.78    0.29 
   3   6  -3    6.02    0.27 
   3   6  -3    5.44    0.26 
   2  -6  -3    0.16    0.05 
  -2   6   3    0.22    0.06 
  -2   6   3    0.23    0.05 
   2   6  -3    0.53    0.06 
   2   6  -3    0.30    0.06 
   1  -6  -3   13.24    0.49 
  -1   6   3   13.36    0.51 
   1   6  -3   13.41    0.50 
   1   6  -3   13.24    0.49 
   0   6   3   93.15    3.19 
   0   6   3   93.53    3.20 
   0   6  -3   88.49    3.20 
   1  -6   3   72.27    2.49 
  -1  -6  -3   71.10    2.50 
  -1   6  -3   72.28    2.52 
   1   6   3   72.08    2.49 
   1   6   3   69.73    2.50 
   2  -6   3    0.05    0.03 
  -2  -6  -3    0.03    0.04 
  -2   6  -3    0.08    0.06 
   2   6   3   -0.04    0.03 
   2   6   3    0.01    0.02 
   3  -6   3    2.67    0.16 
  -3  -6  -3    3.14    0.18 
   3   6   3    2.66    0.15 
  -3   6  -3    3.08    0.21 
   4  -6   3    1.21    0.13 
  -4  -6  -3    0.94    0.14 
  -4   6  -3    1.27    0.17 
  -4  -7   3    1.63    0.15 
   4  -7  -3    1.57    0.16 
   4   7  -3    1.75    0.14 
  -3  -7   3   18.35    0.70 
   3  -7  -3   17.62    0.70 
   3   7  -3   17.91    0.69 
  -3   7   3   18.71    0.72 
   3   7  -3   18.29    0.70 
   2  -7  -3    3.78    0.18 
  -2   7   3    3.66    0.20 
   2   7  -3    3.70    0.17 
   2   7  -3    3.79    0.19 
  -2   7   3    3.45    0.18 
   1  -7  -3   43.55    1.57 
  -1   7   3   45.11    1.58 
  -1   7   3   44.25    1.60 
   1   7  -3   46.33    1.59 
   1   7  -3   43.95    1.57 
   0   7  -3   40.17    1.45 
   0   7   3   41.32    1.44 
   0   7   3   40.17    1.44 
   1  -7   3   26.66    0.95 
  -1  -7  -3   26.16    0.96 
   1   7   3   25.77    0.96 
  -1   7  -3   27.67    0.98 
   2  -7   3   28.47    1.02 
  -2  -7  -3   28.24    1.03 
  -2   7  -3   29.37    1.05 
   2   7   3   28.07    1.04 
   2   7   3   26.98    1.01 
  -3  -7  -3   -0.01    0.05 
   3  -7   3    0.04    0.05 
   3   7   3    0.02    0.04 
   3   7   3    0.05    0.06 
  -3   7  -3    0.06    0.07 
   4  -7   3    2.53    0.19 
  -4  -7  -3    2.71    0.20 
  -4   7  -3    3.03    0.22 
  -4  -8   3    0.02    0.07 
   4  -8  -3   -0.07    0.06 
   4   8  -3    0.10    0.08 
   4   8  -3    0.21    0.07 
  -4   8   3    0.00    0.09 
  -3  -8   3    1.21    0.12 
   3  -8  -3    1.00    0.12 
   3   8  -3    1.15    0.11 
   3   8  -3    1.21    0.12 
  -3   8   3    0.96    0.14 
   2  -8  -3    1.61    0.12 
  -2   8   3    1.44    0.14 
   2   8  -3    1.49    0.12 
   2   8  -3    1.63    0.11 
   1  -8  -3    0.03    0.03 
  -1   8   3    0.00    0.03 
   1   8  -3    0.04    0.04 
   1   8  -3   -0.02    0.02 
  -1   8   3    0.03    0.04 
   0   8  -3   21.43    0.82 
   0   8   3   22.42    0.81 
   0   8   3   22.30    0.81 
   1  -8   3   25.46    0.93 
  -1  -8  -3   25.45    0.93 
  -1   8  -3   26.87    0.95 
   1   8   3   24.16    0.92 
   1   8   3   25.68    0.93 
  -2  -8  -3    1.11    0.10 
   2  -8   3    1.11    0.10 
   2   8   3    1.03    0.08 
  -2   8  -3    0.84    0.12 
   2   8   3    1.07    0.11 
  -3  -8  -3    5.02    0.26 
   3  -8   3    5.32    0.25 
  -3   8  -3    5.40    0.29 
   3   8   3    5.04    0.27 
   3   8   3    5.05    0.23 
   4  -8   3    0.94    0.12 
  -4  -8  -3    1.01    0.14 
  -4   8  -3    1.54    0.18 
  -4  -9   3    0.05    0.07 
   4  -9  -3    0.12    0.07 
   4   9  -3    0.17    0.07 
   4   9  -3    0.21    0.09 
  -4   9   3    0.12    0.09 
   3  -9  -3    1.88    0.15 
  -3  -9   3    2.06    0.15 
   3   9  -3    1.90    0.15 
  -3   9   3    2.02    0.19 
   3   9  -3    1.98    0.14 
   2  -9  -3    3.00    0.17 
   2   9  -3    3.07    0.16 
   2   9  -3    2.94    0.18 
  -2   9   3    2.90    0.20 
   1  -9  -3    4.29    0.20 
  -1   9   3    4.11    0.22 
   1   9  -3    4.50    0.20 
  -1   9   3    4.57    0.21 
   1   9  -3    4.14    0.21 
   0   9  -3    4.83    0.23 
   0   9   3    4.85    0.23 
   0   9   3    5.12    0.24 
   1  -9   3    7.40    0.30 
   1   9   3    7.00    0.31 
   1   9   3    7.40    0.30 
  -1   9  -3    6.93    0.32 
  -2  -9  -3   11.16    0.45 
   2  -9   3   10.66    0.44 
   2   9   3   11.36    0.46 
  -2   9  -3   10.92    0.47 
   2   9   3   10.43    0.42 
   3  -9   3    0.04    0.05 
  -3  -9  -3    0.06    0.06 
  -3   9  -3    0.10    0.07 
   3   9   3    0.05    0.04 
   3   9   3    0.05    0.07 
  -4  -9  -3    0.33    0.10 
   4  -9   3    0.57    0.11 
  -4   9  -3    0.57    0.12 
  -4 -10   3    0.01    0.07 
   4 -10  -3    0.07    0.07 
   4  10  -3    0.03    0.06 
   4  10  -3   -0.01    0.07 
  -4  10   3    0.01    0.09 
  -3 -10   3    0.09    0.06 
   3 -10  -3    0.06    0.06 
   3  10  -3   -0.03    0.06 
  -3  10   3   -0.08    0.06 
   3  10  -3    0.01    0.04 
   2 -10  -3    0.19    0.05 
   2  10  -3    0.19    0.05 
  -2  10   3    0.22    0.08 
   2  10  -3    0.19    0.06 
   1 -10  -3    0.10    0.05 
  -1  10   3    0.06    0.05 
   1  10  -3    0.08    0.04 
   1  10  -3    0.08    0.05 
  -1  10   3    0.06    0.05 
   0  10   3    2.70    0.17 
   0  10   3    2.39    0.15 
   0  10  -3    2.70    0.16 
   1 -10   3   21.01    0.80 
  -1  10  -3   22.12    0.82 
   1  10   3   21.00    0.81 
   2 -10   3    2.89    0.16 
  -2 -10  -3    2.78    0.17 
   2  10   3    2.64    0.15 
   2  10   3    2.72    0.18 
  -2  10  -3    2.55    0.18 
   3 -10   3    0.37    0.08 
  -3 -10  -3    0.29    0.08 
   3  10   3    0.31    0.06 
  -3  10  -3    0.44    0.10 
   3  10   3    0.34    0.09 
   4 -10   3    0.65    0.12 
  -4 -10  -3    0.69    0.13 
   4 -11  -3    0.00    0.07 
  -4 -11   3    0.08    0.08 
   4  11  -3    0.07    0.06 
  -4  11   3   -0.01    0.09 
   4  11  -3   -0.03    0.08 
   3 -11  -3    4.41    0.24 
  -3 -11   3    4.76    0.25 
   3  11  -3    4.57    0.24 
  -3  11   3    4.83    0.29 
   3  11  -3    4.40    0.26 
   2 -11  -3    0.02    0.04 
  -2  11   3    0.04    0.06 
   2  11  -3    0.08    0.05 
   2  11  -3    0.03    0.05 
   1 -11  -3   31.44    1.21 
  -1  11   3   31.32    1.23 
  -1  11   3   35.36    1.22 
   1  11  -3   34.89    1.24 
   0  11  -3    9.10    0.39 
   0  11   3    8.59    0.37 
   0  11   3    8.27    0.38 
   1 -11   3    1.79    0.13 
   1  11   3    1.49    0.14 
  -1  11  -3    1.44    0.14 
  -2 -11  -3    8.05    0.37 
   2 -11   3    8.01    0.35 
   2  11   3    8.39    0.38 
  -2  11  -3    8.41    0.38 
   2  11   3    7.94    0.34 
   3 -11   3    0.13    0.07 
  -3 -11  -3    0.11    0.07 
   3  11   3    0.15    0.06 
   3  11   3    0.24    0.09 
  -3  11  -3    0.18    0.08 
   4 -11   3    0.75    0.12 
   3 -12  -3    3.11    0.21 
  -3 -12   3    3.34    0.21 
   3  12  -3    3.10    0.20 
  -3  12   3    3.68    0.26 
   3  12  -3    3.61    0.23 
   2 -12  -3    0.66    0.09 
   2  12  -3    0.60    0.10 
   2  12  -3    0.48    0.08 
  -2  12   3    0.56    0.11 
   1 -12  -3    0.81    0.10 
  -1  12   3    0.59    0.10 
  -1  12   3    0.87    0.10 
   1  12  -3    0.84    0.11 
   0  12  -3    0.07    0.05 
   0  12   3    0.07    0.05 
   0  12   3    0.03    0.06 
   1 -12   3    0.92    0.11 
  -1  12  -3    1.17    0.12 
   1  12   3    0.83    0.12 
  -2 -12  -3   -0.05    0.05 
   2 -12   3   -0.01    0.05 
   2  12   3    0.06    0.07 
  -2  12  -3    0.07    0.07 
   3 -12   3    6.43    0.32 
  -3 -12  -3    6.50    0.34 
   3  12   3    6.24    0.30 
   3  12   3    6.76    0.35 
  -3  12  -3    7.17    0.35 
  -3 -13   3    5.60    0.30 
   3 -13  -3    5.41    0.29 
   3  13  -3    5.25    0.28 
   3  13  -3    5.33    0.31 
  -3  13   3    5.89    0.35 
   2 -13  -3    4.49    0.24 
  -2  13   3    4.18    0.27 
   2  13  -3    4.45    0.23 
   2  13  -3    4.36    0.25 
   1 -13  -3    5.26    0.26 
   1  13  -3    5.37    0.28 
  -1  13   3    5.40    0.27 
  -1  13   3    4.94    0.28 
   0  13   3    3.80    0.23 
   0  13   3    3.85    0.22 
   0  13  -3    4.22    0.23 
   1 -13   3    2.81    0.18 
  -1  13  -3    2.54    0.18 
   1  13   3    2.84    0.19 
  -2 -13  -3   12.56    0.55 
   2 -13   3   12.52    0.53 
  -2  13  -3   12.84    0.56 
   2  13   3   13.49    0.56 
  -3 -13  -3    1.11    0.15 
   3 -13   3    0.78    0.12 
   3  13   3    1.05    0.16 
   3  13   3    1.17    0.12 
  -3  13  -3    1.19    0.15 
   3 -14  -3   -0.03    0.06 
  -3 -14   3    0.06    0.07 
   3  14  -3    0.13    0.09 
  -3  14   3   -0.06    0.08 
   3  14  -3    0.17    0.06 
   2 -14  -3    0.14    0.06 
   2  14  -3   -0.06    0.05 
  -2  14   3   -0.01    0.07 
   2  14  -3   -0.01    0.06 
   1 -14  -3    0.07    0.06 
  -1  14   3    0.00    0.06 
   1  14  -3    0.11    0.06 
   0  14  -3    2.83    0.19 
   0  14   3    2.87    0.20 
   0  14   3    3.13    0.21 
   1 -14   3   -0.05    0.05 
   1  14   3    0.08    0.07 
  -1  14  -3   -0.09    0.04 
   2 -14   3    1.80    0.16 
  -2 -14  -3    1.72    0.16 
  -2  14  -3    1.79    0.17 
   2  14   3    1.77    0.18 
   3 -14   3    0.37    0.10 
  -3  14  -3    0.21    0.08 
   3  14   3    0.30    0.12 
   2 -15  -3    0.03    0.06 
   2  15  -3    0.04    0.07 
  -2  15   3    0.10    0.08 
   1 -15  -3    0.78    0.11 
  -1  15   3    0.82    0.14 
   1  15  -3    1.10    0.13 
   0 -15  -3    0.09    0.06 
   0  15   3    0.09    0.07 
   0  15   3    0.11    0.07 
   0  15  -3    0.05    0.06 
   1 -15   3    0.11    0.07 
   1  15   3    0.06    0.07 
  -1  15  -3    0.21    0.08 
  -2 -15  -3    0.67    0.12 
   2 -15   3    0.60    0.11 
   2  15   3    0.80    0.14 
  -2  15  -3    0.92    0.14 
   2 -16  -3    0.61    0.11 
   2  16  -3    0.56    0.12 
  -2  16   3    0.52    0.13 
   1 -16  -3    0.07    0.06 
  -1  16   3    0.00    0.08 
   1  16  -3    0.08    0.07 
   0 -16  -3    0.00    0.06 
   0  16   3   -0.03    0.07 
   0  16   3    0.00    0.07 
   0  16  -3    0.02    0.05 
   1 -16   3    1.22    0.15 
  -1  16  -3    1.64    0.16 
   1  16   3    1.32    0.17 
  -2 -16  -3    0.39    0.10 
   2 -16   3    0.30    0.09 
  -2  16  -3    0.33    0.10 
   2  16   3    0.24    0.10 
   1 -17  -3    0.76    0.12 
   1  17  -3    1.01    0.14 
  -1  17   3    0.73    0.14 
   0 -17  -3    3.70    0.24 
   0  17   3    4.03    0.26 
   0  17  -3    4.23    0.26 
   0  17   3    3.79    0.27 
   1 -17   3    5.70    0.31 
  -1  17  -3    5.65    0.32 
   1  17   3    5.70    0.33 
   0 -18  -3    0.59    0.11 
   5   0  -4    0.11    0.08 
   4   0  -4    0.57    0.09 
   3   0  -4   19.53    0.73 
  -2   0   4  114.29    3.88 
  -2   0   4  107.32    3.86 
   2   0  -4  112.88    3.87 
  -1   0   4  282.52    9.75 
   0   0  -4  177.44    6.01 
   0   0  -4  170.82    6.02 
  -1   0  -4   14.90    0.55 
   2   0   4  143.87    5.01 
  -2   0  -4  146.12    5.04 
  -3   0  -4    4.88    0.26 
  -4   0  -4    8.66    0.41 
  -5   0  -4   -0.01    0.09 
   5  -1  -4    2.11    0.18 
   5   1  -4    1.97    0.18 
   4  -1  -4    0.09    0.06 
   4   1  -4    0.15    0.07 
  -3  -1   4    2.69    0.15 
   3  -1  -4    2.16    0.15 
   3   1  -4    2.36    0.15 
  -2  -1   4   31.46    1.12 
  -2  -1   4   31.27    1.11 
   2  -1  -4   32.22    1.12 
   2   1  -4   31.81    1.12 
  -2   1   4   32.71    1.13 
   2   1  -4   31.03    1.11 
  -2   1   4   29.60    1.11 
  -1  -1   4   15.35    0.56 
  -1   1   4   16.06    0.57 
   1   1  -4   14.88    0.54 
   0  -1  -4  251.99    8.83 
   0  -1  -4  259.93    8.83 
   0   1  -4  251.37    8.85 
   0   1  -4  260.33    8.83 
  -1  -1  -4   10.03    0.38 
  -2  -1  -4    2.32    0.14 
   2  -1   4    2.02    0.11 
  -2   1  -4    2.12    0.14 
   2   1   4    2.15    0.11 
  -3  -1  -4    1.07    0.14 
  -3   1  -4    1.02    0.14 
  -4  -1  -4   -0.07    0.08 
  -4   1  -4    0.01    0.08 
  -5  -1  -4    0.58    0.14 
  -5   1  -4    0.44    0.13 
   5  -2  -4    0.32    0.10 
   5   2  -4    0.43    0.10 
   4  -2  -4    0.19    0.07 
   4   2  -4    0.01    0.05 
  -3  -2   4    0.01    0.05 
   3  -2  -4   -0.02    0.04 
  -3   2   4    0.06    0.04 
   3   2  -4    0.10    0.05 
  -2  -2   4    0.07    0.03 
  -2  -2   4    0.08    0.03 
   2  -2  -4    0.04    0.04 
   2   2  -4    0.05    0.03 
  -2   2   4    0.07    0.03 
  -2   2   4    0.10    0.04 
   2   2  -4    0.07    0.03 
  -1  -2   4    0.36    0.04 
   1   2  -4    0.38    0.04 
   1   2  -4    0.38    0.03 
  -1   2   4    0.42    0.05 
   0  -2  -4    0.30    0.04 
   0  -2  -4    0.44    0.03 
   0   2  -4    0.32    0.04 
  -1  -2  -4    2.53    0.12 
  -1   2  -4    2.47    0.13 
  -2  -2  -4   73.02    2.55 
   2  -2   4   72.21    2.52 
   2   2   4   72.74    2.52 
  -2   2  -4   72.07    2.55 
  -3  -2  -4    0.14    0.07 
  -3   2  -4    0.15    0.09 
  -4  -2  -4    1.48    0.17 
  -4   2  -4    1.58    0.18 
   4  -3  -4    2.00    0.16 
   4   3  -4    1.80    0.15 
  -3  -3   4    5.63    0.25 
   3  -3  -4    5.33    0.25 
   3   3  -4    5.45    0.24 
  -3   3   4    5.69    0.26 
   3   3  -4    5.31    0.25 
  -2  -3   4    0.04    0.03 
   2  -3  -4    0.01    0.03 
  -2  -3   4    0.03    0.02 
  -2   3   4   -0.05    0.03 
   2   3  -4   -0.01    0.02 
   2   3  -4    0.04    0.03 
  -1  -3   4    2.56    0.12 
   1  -3  -4    2.77    0.12 
   1   3  -4    2.53    0.12 
   1   3  -4    2.64    0.12 
  -1   3   4    2.93    0.13 
   0  -3  -4  167.34    5.66 
   0  -3  -4  162.12    5.65 
   0   3   4  167.20    5.64 
   0   3  -4  152.81    5.66 
   0   3   4  168.62    5.66 
  -1  -3  -4    7.91    0.31 
  -1   3  -4    7.88    0.32 
  -2  -3  -4    8.13    0.34 
  -2   3  -4    8.41    0.35 
   2   3   4    8.23    0.31 
   3  -3   4   12.78    0.50 
  -3  -3  -4   12.98    0.53 
  -3   3  -4   13.61    0.55 
  -4  -3  -4    0.21    0.09 
   4  -3   4    0.23    0.08 
  -4   3  -4    0.39    0.12 
   4  -4  -4    8.78    0.39 
   4   4  -4    8.59    0.38 
   3  -4  -4   13.12    0.53 
  -3  -4   4   13.53    0.52 
   3   4  -4   13.27    0.53 
  -3   4   4   14.08    0.54 
   3   4  -4   13.70    0.53 
   2  -4  -4    2.77    0.14 
  -2  -4   4    2.83    0.13 
   2   4  -4    2.75    0.14 
  -2   4   4    2.53    0.13 
  -2   4   4    2.89    0.16 
   2   4  -4    2.89    0.14 
  -1  -4   4   75.16    2.71 
   1  -4  -4   79.96    2.70 
   1   4  -4   78.55    2.70 
   1   4  -4   76.81    2.70 
  -1   4   4   77.72    2.72 
   0  -4  -4   92.23    3.18 
   0  -4  -4   91.04    3.18 
   0   4   4   97.27    3.20 
   0   4   4   91.42    3.18 
   0   4  -4   87.00    3.19 
  -1  -4  -4    0.19    0.04 
  -1   4  -4    0.26    0.05 
   1   4   4    0.22    0.04 
  -2  -4  -4   48.49    1.72 
   2   4   4   47.63    1.69 
  -2   4  -4   48.72    1.73 
   3  -4   4    1.63    0.12 
  -3  -4  -4    1.64    0.14 
  -3   4  -4    1.88    0.18 
   4  -4   4    9.88    0.41 
  -4  -4  -4    8.84    0.43 
  -4   4  -4    9.92    0.46 
   4  -5  -4    0.06    0.07 
   4   5  -4    0.14    0.06 
   3  -5  -4   23.44    0.92 
  -3  -5   4   25.24    0.91 
   3   5  -4   23.87    0.91 
  -3   5   4   26.34    0.94 
   3   5  -4   24.40    0.91 
   2  -5  -4   54.23    1.87 
   2   5  -4   52.78    1.87 
   2   5  -4   52.87    1.87 
  -2   5   4   52.47    1.89 
   1  -5  -4   33.74    1.17 
   1   5  -4   31.63    1.18 
  -1   5   4   33.66    1.19 
  -1   5   4   32.97    1.16 
   1   5  -4   33.42    1.17 
   0  -5  -4   59.57    2.13 
   0   5  -4   59.28    2.14 
   0   5   4   60.67    2.12 
   0   5   4   64.51    2.14 
   1  -5   4   37.23    1.28 
  -1  -5  -4   35.67    1.29 
   1   5   4   35.67    1.29 
  -1   5  -4   37.10    1.31 
  -2  -5  -4   16.16    0.61 
   2  -5   4   16.11    0.60 
   2   5   4   16.17    0.61 
   2   5   4   16.24    0.59 
  -2   5  -4   16.13    0.63 
   3  -5   4    1.00    0.10 
  -3  -5  -4    1.13    0.12 
  -3   5  -4    1.40    0.16 
  -4  -5  -4    0.10    0.08 
   4  -5   4    0.06    0.07 
  -4   5  -4    0.09    0.09 
   4  -6  -4    1.81    0.16 
   4   6  -4    1.79    0.14 
  -3  -6   4    1.67    0.12 
   3  -6  -4    1.27    0.13 
   3   6  -4    1.52    0.12 
  -3   6   4    1.40    0.14 
   3   6  -4    1.58    0.12 
   2  -6  -4    0.73    0.08 
  -2   6   4    0.73    0.10 
   2   6  -4    0.73    0.08 
   2   6  -4    0.74    0.07 
   1  -6  -4   20.64    0.74 
   1   6  -4   20.56    0.75 
  -1   6   4   20.44    0.76 
  -1   6   4   20.73    0.74 
   1   6  -4   20.05    0.74 
   0  -6  -4  105.75    3.82 
   0   6  -4  107.99    3.84 
   0   6   4  115.68    3.84 
   0   6   4  111.12    3.82 
  -1  -6  -4    5.40    0.23 
   1  -6   4    6.06    0.23 
  -1   6  -4    5.05    0.25 
   1   6   4    5.38    0.23 
  -2  -6  -4   12.63    0.48 
   2  -6   4   11.81    0.46 
   2   6   4   11.90    0.46 
  -2   6  -4   12.44    0.50 
   2   6   4   12.50    0.49 
  -3  -6  -4    0.16    0.06 
   3  -6   4    0.33    0.07 
  -3   6  -4    0.30    0.09 
   4  -6   4    2.88    0.19 
  -4  -6  -4    2.84    0.21 
  -4   6  -4    3.17    0.24 
  -4  -7   4    0.17    0.08 
   4  -7  -4    0.24    0.08 
   4   7  -4    0.30    0.07 
   3  -7  -4    2.54    0.17 
  -3  -7   4    2.69    0.16 
   3   7  -4    2.78    0.16 
   3   7  -4    2.66    0.17 
  -3   7   4    2.78    0.19 
   2  -7  -4    2.82    0.16 
   2   7  -4    2.80    0.16 
   2   7  -4    2.93    0.15 
  -2   7   4    2.59    0.17 
   1  -7  -4    6.22    0.25 
  -1   7   4    5.94    0.27 
  -1   7   4    5.61    0.24 
   1   7  -4    5.89    0.26 
   1   7  -4    6.25    0.25 
   0   7  -4    2.16    0.13 
   0   7   4    2.24    0.13 
   0   7   4    2.22    0.11 
   1  -7   4    0.17    0.04 
  -1  -7  -4    0.18    0.04 
   1   7   4    0.15    0.05 
  -1   7  -4    0.30    0.06 
   1   7   4    0.17    0.04 
  -2  -7  -4    0.06    0.05 
   2  -7   4    0.01    0.03 
  -2   7  -4    0.02    0.06 
   2   7   4   -0.01    0.05 
  -3  -7  -4    0.90    0.11 
   3  -7   4    0.77    0.09 
  -3   7  -4    1.10    0.15 
  -4  -7  -4    0.10    0.08 
   4  -7   4    0.15    0.07 
  -4   7  -4    0.12    0.08 
  -4  -8   4   -0.02    0.06 
   4  -8  -4   -0.06    0.06 
   4   8  -4    0.03    0.08 
   4   8  -4    0.03    0.05 
  -4   8   4    0.03    0.08 
   3  -8  -4    0.87    0.11 
  -3  -8   4    1.06    0.11 
  -3   8   4    0.85    0.12 
   3   8  -4    0.93    0.11 
   3   8  -4    1.15    0.11 
   2  -8  -4    5.25    0.24 
  -2   8   4    4.98    0.26 
   2   8  -4    5.05    0.24 
   2   8  -4    5.24    0.23 
   1  -8  -4    2.46    0.13 
  -1   8   4    2.63    0.13 
   1   8  -4    2.76    0.15 
  -1   8   4    2.35    0.15 
   1   8  -4    2.47    0.13 
   0   8   4    5.99    0.25 
   0   8  -4    5.60    0.26 
   0   8   4    5.70    0.26 
  -1  -8  -4    3.24    0.16 
   1  -8   4    3.26    0.16 
   1   8   4    3.11    0.17 
  -1   8  -4    3.06    0.18 
  -2  -8  -4   29.30    1.09 
   2  -8   4   29.56    1.08 
  -2   8  -4   30.95    1.12 
   2   8   4   29.25    1.10 
   3  -8   4    0.06    0.05 
  -3  -8  -4    0.00    0.05 
  -3   8  -4    0.16    0.08 
   3   8   4    0.02    0.04 
   4  -8   4    0.07    0.06 
  -4  -8  -4    0.00    0.07 
  -4   8  -4    0.09    0.09 
   4  -9  -4    0.02    0.07 
  -4  -9   4    0.02    0.06 
   4   9  -4    0.12    0.08 
   4   9  -4    0.13    0.07 
  -4   9   4    0.07    0.08 
   3  -9  -4    4.88    0.26 
  -3  -9   4    5.27    0.26 
   3   9  -4    5.11    0.25 
   3   9  -4    5.21    0.27 
  -3   9   4    5.25    0.30 
   2  -9  -4   19.96    0.76 
   2   9  -4   20.04    0.76 
   2   9  -4   21.25    0.78 
  -2   9   4   20.07    0.79 
   1  -9  -4    0.91    0.09 
   1   9  -4    1.01    0.08 
   1   9  -4    1.03    0.09 
  -1   9   4    0.86    0.11 
  -1   9   4    1.01    0.09 
   0   9   4   20.68    0.77 
   0   9  -4   21.24    0.79 
   0   9   4   20.89    0.79 
   1  -9   4    1.95    0.12 
  -1  -9  -4    1.95    0.13 
   1   9   4    2.05    0.14 
  -1   9  -4    2.19    0.15 
  -2  -9  -4    4.18    0.22 
   2  -9   4    3.88    0.20 
  -2   9  -4    4.40    0.24 
   2   9   4    4.14    0.23 
   2   9   4    3.96    0.19 
   3  -9   4    1.53    0.13 
  -3  -9  -4    1.51    0.14 
   3   9   4    1.60    0.15 
  -3   9  -4    1.74    0.17 
   4  -9   4    0.20    0.08 
  -4  -9  -4    0.13    0.08 
  -4   9  -4    0.32    0.10 
   4 -10  -4    0.17    0.08 
  -4 -10   4    0.05    0.08 
   4  10  -4    0.17    0.10 
   4  10  -4    0.18    0.07 
  -4  10   4    0.16    0.09 
  -3 -10   4    2.95    0.19 
   3 -10  -4    2.98    0.18 
  -3  10   4    2.97    0.22 
   3  10  -4    2.85    0.18 
   3  10  -4    2.91    0.19 
   2 -10  -4    1.33    0.11 
   2  10  -4    1.20    0.10 
   2  10  -4    1.25    0.12 
  -2  10   4    1.18    0.14 
   1 -10  -4   11.13    0.45 
  -1  10   4   11.92    0.46 
   1  10  -4   11.44    0.47 
  -1  10   4   10.98    0.48 
   1  10  -4   11.53    0.45 
   0  10  -4    6.68    0.31 
   0  10   4    6.77    0.29 
   0  10   4    6.95    0.31 
  -1 -10  -4   17.67    0.69 
   1 -10   4   18.78    0.69 
  -1  10  -4   17.95    0.71 
   1  10   4   18.10    0.70 
   2 -10   4   34.05    1.30 
  -2 -10  -4   34.92    1.31 
   2  10   4   33.73    1.28 
   2  10   4   37.04    1.32 
  -2  10  -4   39.38    1.34 
  -3 -10  -4    0.10    0.07 
   3 -10   4   -0.02    0.05 
  -3  10  -4    0.04    0.07 
   3  10   4   -0.06    0.06 
   4 -10   4    1.28    0.16 
  -4  10  -4    1.75    0.20 
  -4 -11   4    0.78    0.13 
   4 -11  -4    0.66    0.12 
   4  11  -4    0.74    0.14 
   4  11  -4    0.80    0.11 
   3 -11  -4    0.14    0.06 
  -3 -11   4    0.14    0.07 
   3  11  -4    0.18    0.07 
   3  11  -4    0.15    0.08 
  -3  11   4    0.19    0.09 
   2 -11  -4    3.07    0.17 
   2  11  -4    2.93    0.19 
   2  11  -4    2.86    0.17 
  -2  11   4    2.94    0.21 
   1 -11  -4   15.15    0.58 
   1  11  -4   14.51    0.59 
  -1  11   4   14.61    0.61 
   1  11  -4   15.57    0.57 
  -1  11   4   14.40    0.58 
   0  11   4   13.05    0.52 
   0  11   4   12.96    0.53 
   0  11  -4   13.17    0.54 
  -1 -11  -4    1.27    0.11 
   1 -11   4    1.43    0.11 
  -1  11  -4    1.25    0.13 
   1  11   4    1.16    0.12 
  -2 -11  -4    1.04    0.13 
   2 -11   4    1.16    0.11 
  -2  11  -4    1.09    0.13 
   2  11   4    1.11    0.14 
  -3 -11  -4    0.07    0.07 
   3 -11   4    0.05    0.06 
   3  11   4    0.04    0.08 
  -3  11  -4    0.05    0.07 
  -3 -12   4    0.24    0.08 
   3 -12  -4    0.20    0.07 
   3  12  -4    0.29    0.08 
  -3  12   4    0.14    0.09 
   3  12  -4    0.16    0.08 
   2 -12  -4    0.02    0.05 
   2  12  -4    0.01    0.04 
   2  12  -4    0.08    0.06 
  -2  12   4    0.00    0.07 
   1 -12  -4    0.35    0.07 
  -1  12   4    0.26    0.08 
   1  12  -4    0.32    0.08 
   0  12   4    1.88    0.14 
   0  12  -4    2.17    0.15 
   0  12   4    1.89    0.16 
  -1 -12  -4    2.76    0.17 
   1 -12   4    3.21    0.18 
  -1  12  -4    2.91    0.19 
   1  12   4    2.92    0.19 
   2 -12   4    0.00    0.05 
  -2 -12  -4   -0.04    0.05 
   2  12   4   -0.01    0.07 
  -2  12  -4   -0.02    0.06 
   3 -12   4    0.23    0.08 
  -3 -12  -4    0.09    0.08 
  -3  12  -4    0.01    0.07 
   3  12   4    0.01    0.07 
  -3 -13   4    0.35    0.09 
   3 -13  -4    0.39    0.09 
   3  13  -4    0.28    0.08 
  -3  13   4    0.40    0.12 
   3  13  -4    0.42    0.11 
   2 -13  -4    1.71    0.14 
   2  13  -4    1.76    0.13 
  -2  13   4    1.88    0.18 
   2  13  -4    1.47    0.15 
   1 -13  -4    0.19    0.06 
   1  13  -4    0.31    0.08 
  -1  13   4    0.20    0.08 
   0 -13  -4    1.04    0.11 
   0  13   4    1.00    0.12 
   0  13  -4    1.42    0.13 
   0  13   4    0.98    0.13 
  -1 -13  -4    0.77    0.10 
   1 -13   4    0.68    0.10 
   1  13   4    0.75    0.11 
  -1  13  -4    0.66    0.11 
  -2 -13  -4    0.07    0.06 
   2 -13   4    0.04    0.05 
  -2  13  -4    0.17    0.07 
   2  13   4    0.14    0.08 
   3 -13   4    2.01    0.17 
  -3 -13  -4    1.68    0.18 
   3  13   4    1.90    0.20 
  -3  13  -4    2.57    0.20 
  -3 -14   4    1.27    0.16 
   3 -14  -4    1.27    0.15 
   3  14  -4    1.48    0.14 
   3  14  -4    1.42    0.17 
  -3  14   4    1.43    0.21 
   2 -14  -4    0.25    0.07 
   2  14  -4    0.24    0.07 
   2  14  -4    0.22    0.08 
  -2  14   4    0.16    0.08 
   1 -14  -4    4.20    0.23 
  -1  14   4    4.02    0.26 
   1  14  -4    4.54    0.25 
   0 -14  -4    3.99    0.22 
   0  14  -4    4.31    0.24 
   0  14   4    4.01    0.24 
   0  14   4    4.16    0.24 
  -1 -14  -4    2.09    0.16 
   1 -14   4    2.05    0.16 
   1  14   4    1.78    0.17 
  -1  14  -4    2.14    0.17 
  -2 -14  -4    2.40    0.19 
   2 -14   4    2.26    0.18 
  -2  14  -4    2.53    0.20 
   2  14   4    2.41    0.20 
   3 -14   4    0.06    0.08 
  -3  14  -4    0.02    0.07 
   2 -15  -4    1.11    0.13 
   2  15  -4    1.00    0.14 
  -2  15   4    1.31    0.18 
   1 -15  -4    2.78    0.19 
   1  15  -4    2.82    0.20 
  -1  15   4    2.71    0.22 
   0 -15  -4    5.93    0.29 
   0  15   4    5.46    0.31 
   0  15   4    5.45    0.30 
   0  15  -4    5.90    0.30 
   1 -15   4    0.65    0.11 
  -1 -15  -4    0.74    0.11 
   1  15   4    0.62    0.12 
  -1  15  -4    0.75    0.12 
   2 -15   4    0.07    0.07 
  -2 -15  -4   -0.06    0.06 
   2  15   4   -0.03    0.08 
  -2  15  -4    0.04    0.07 
   2 -16  -4    0.20    0.08 
  -2  16   4    0.17    0.11 
   2  16  -4    0.21    0.10 
   1 -16  -4    1.73    0.15 
   1  16  -4    1.88    0.17 
  -1  16   4    1.79    0.20 
   0 -16  -4    3.70    0.23 
   0  16   4    3.70    0.26 
   0  16   4    3.99    0.25 
   0  16  -4    4.16    0.25 
  -1 -16  -4    0.28    0.08 
   1 -16   4    0.23    0.08 
   1  16   4    0.39    0.11 
  -1  16  -4    0.27    0.09 
   2 -16   4    0.74    0.13 
  -2 -16  -4    0.82    0.14 
   2  16   4    0.69    0.14 
  -2  16  -4    0.70    0.13 
   1 -17  -4    1.19    0.14 
   1  17  -4    1.19    0.15 
  -1  17   4    0.87    0.16 
   0 -17  -4    0.27    0.09 
   0  17  -4    0.30    0.09 
   1 -17   4    0.17    0.08 
  -1 -17  -4    0.23    0.08 
  -1  17  -4    0.15    0.08 
   1  17   4    0.18    0.10 
   4   0  -5    0.00    0.06 
   3   0  -5    0.02    0.04 
  -2   0   5   -0.01    0.02 
  -2   0   5    0.05    0.02 
   2   0  -5   -0.03    0.03 
   1   0  -5    0.02    0.02 
  -1   0   5    0.01    0.02 
   0   0  -5   -0.03    0.02 
   0   0   5    0.04    0.02 
   0   0  -5    0.02    0.03 
   1   0   5   -0.03    0.02 
  -1   0  -5    0.05    0.03 
  -2   0  -5    0.02    0.05 
  -3   0  -5   -0.05    0.07 
  -4   0  -5   -0.04    0.07 
   4  -1  -5    2.78    0.18 
   4   1  -5    2.53    0.17 
   3  -1  -5    0.06    0.04 
   3   1  -5    0.02    0.04 
  -3   1   5    0.10    0.04 
  -2  -1   5    8.49    0.35 
  -2  -1   5    8.55    0.33 
   2  -1  -5    8.64    0.34 
   2   1  -5    9.00    0.33 
   2   1  -5    8.92    0.35 
  -2   1   5    9.12    0.35 
   1  -1  -5    4.19    0.16 
  -1  -1   5    3.82    0.17 
   1   1  -5    3.87    0.15 
  -1   1   5    3.83    0.17 
   1   1  -5    3.45    0.15 
   0  -1  -5   24.49    0.87 
   0  -1  -5   24.90    0.88 
   0  -1   5   25.11    0.89 
   0   1   5   25.12    0.89 
   0   1  -5   24.38    0.88 
   0   1  -5   24.66    0.87 
  -1  -1  -5   14.51    0.51 
   1   1   5   13.19    0.50 
  -1   1  -5   13.44    0.51 
  -2  -1  -5   12.01    0.47 
   2  -1   5   11.79    0.44 
  -2   1  -5   12.30    0.48 
  -3  -1  -5    0.70    0.11 
  -3   1  -5    0.74    0.12 
  -4  -1  -5    0.35    0.10 
  -4   1  -5    0.60    0.13 
   4  -2  -5    0.92    0.12 
   4   2  -5    0.85    0.11 
   3  -2  -5    0.07    0.05 
  -3   2   5    0.14    0.05 
   3   2  -5    0.14    0.05 
  -2  -2   5  139.75    4.97 
   2  -2  -5  145.15    4.97 
  -2  -2   5  143.68    4.95 
   2   2  -5  142.11    4.95 
   2   2  -5  140.99    4.96 
  -2   2   5  147.49    4.98 
  -1  -2   5    0.54    0.05 
   1  -2  -5    0.61    0.05 
  -1   2   5    0.61    0.06 
   1   2  -5    0.65    0.04 
   1   2  -5    0.49    0.04 
   0  -2  -5  147.21    4.99 
   0  -2  -5  146.24    4.98 
   0   2  -5  137.02    5.00 
   0   2   5  147.35    5.00 
  -1  -2  -5    2.85    0.13 
  -1   2  -5    2.71    0.14 
   2  -2   5   28.46    1.02 
  -2  -2  -5   29.23    1.06 
  -2   2  -5   29.27    1.06 
   3  -2   5   44.55    1.64 
  -3  -2  -5   46.63    1.68 
  -3   2  -5   47.49    1.68 
  -4  -2  -5    0.80    0.14 
  -4   2  -5    0.88    0.15 
   4  -3  -5   10.86    0.47 
   4   3  -5   11.46    0.47 
   3  -3  -5    2.91    0.18 
  -3  -3   5    3.43    0.18 
   3   3  -5    3.04    0.17 
  -3   3   5    3.36    0.19 
  -2  -3   5   42.52    1.48 
  -2  -3   5   39.86    1.49 
   2  -3  -5   43.11    1.49 
  -2   3   5   42.73    1.50 
   2   3  -5   42.36    1.48 
   2   3  -5   41.80    1.49 
  -1  -3   5    0.04    0.02 
   1  -3  -5    0.04    0.02 
   1   3  -5    0.03    0.02 
  -1   3   5    0.05    0.03 
   1   3  -5    0.10    0.02 
   0  -3  -5    1.50    0.09 
   0  -3  -5    1.61    0.07 
   0   3  -5    1.33    0.09 
   0   3   5    1.52    0.09 
  -1  -3  -5   26.91    0.92 
   1   3   5   23.63    0.92 
  -1   3  -5   26.85    0.94 
  -2  -3  -5   15.42    0.59 
   2  -3   5   14.98    0.56 
  -2   3  -5   15.53    0.60 
   2   3   5   15.11    0.55 
  -3  -3  -5    2.82    0.19 
  -3   3  -5    3.04    0.22 
  -4  -3  -5    6.36    0.35 
  -4   3  -5    7.52    0.38 
   4  -4  -5    0.54    0.10 
   4   4  -5    0.57    0.09 
  -3  -4   5    9.64    0.39 
   3  -4  -5    9.31    0.40 
  -3   4   5   10.06    0.41 
   3   4  -5    9.07    0.39 
   3   4  -5    9.32    0.38 
  -2  -4   5    3.16    0.16 
   2  -4  -5    3.50    0.17 
  -2   4   5    3.42    0.18 
   2   4  -5    3.45    0.16 
   2   4  -5    3.35    0.16 
   1  -4  -5    1.18    0.07 
  -1  -4   5    1.09    0.08 
   1   4  -5    1.23    0.08 
   1   4  -5    1.02    0.07 
  -1   4   5    1.18    0.09 
   0  -4  -5   45.43    1.62 
   0  -4  -5   46.77    1.61 
   0   4   5   47.63    1.64 
   0   4  -5   43.08    1.64 
   0   4   5   48.63    1.62 
  -1  -4  -5   58.49    2.05 
  -1   4  -5   57.88    2.06 
   1   4   5   57.75    2.04 
   1   4   5   59.31    2.05 
   2  -4   5    0.40    0.05 
  -2  -4  -5    0.30    0.06 
   2   4   5    0.36    0.04 
  -2   4  -5    0.42    0.09 
  -3  -4  -5    3.34    0.21 
  -3   4  -5    4.04    0.24 
  -4  -4  -5    1.88    0.18 
  -4   4  -5    2.33    0.22 
   4  -5  -5   -0.04    0.05 
   4   5  -5    0.04    0.05 
  -3  -5   5    2.27    0.14 
   3  -5  -5    2.17    0.16 
   3   5  -5    2.21    0.14 
  -3   5   5    2.31    0.17 
   3   5  -5    2.18    0.14 
   2  -5  -5    5.70    0.25 
  -2  -5   5    5.53    0.24 
   2   5  -5    5.92    0.24 
   2   5  -5    5.78    0.24 
  -2   5   5    5.76    0.27 
   1  -5  -5    3.91    0.17 
   1  -5  -5    3.95    0.18 
  -1   5   5    3.77    0.19 
   1   5  -5    3.98    0.18 
   1   5  -5    4.08    0.17 
   0  -5  -5    6.59    0.26 
   0  -5  -5    6.55    0.25 
   0   5   5    6.95    0.27 
   0   5   5    6.37    0.25 
   0   5  -5    6.25    0.25 
   0   5  -5    6.21    0.27 
  -1  -5  -5    0.59    0.06 
  -1   5  -5    0.58    0.08 
   1   5   5    0.64    0.06 
   1   5   5    0.68    0.07 
  -2  -5  -5    0.88    0.09 
  -2   5  -5    0.70    0.10 
   2   5   5    0.75    0.06 
  -3  -5  -5    0.17    0.07 
   3  -5   5    0.28    0.06 
  -3   5  -5    0.31    0.10 
  -4  -5  -5    0.00    0.07 
  -4   5  -5    0.16    0.10 
   4  -6  -5    0.50    0.09 
   4   6  -5    0.48    0.09 
   3  -6  -5    1.07    0.12 
  -3  -6   5    1.18    0.11 
   3   6  -5    1.20    0.11 
  -3   6   5    0.99    0.14 
   3   6  -5    1.25    0.11 
   2  -6  -5   15.63    0.60 
   2   6  -5   16.02    0.61 
   2   6  -5   16.58    0.60 
  -2   6   5   16.23    0.63 
   1  -6  -5    2.05    0.10 
  -1   6   5    2.03    0.13 
  -1   6   5    1.72    0.09 
   1   6  -5    1.94    0.11 
   1   6  -5    2.10    0.10 
   0  -6  -5   40.33    1.47 
   0  -6  -5   41.35    1.46 
   0  -6  -5   40.30    1.46 
   0   6   5   43.68    1.49 
   0   6  -5   41.60    1.49 
   0   6   5   42.48    1.46 
   1  -6   5   19.26    0.68 
  -1  -6  -5   18.32    0.69 
  -1   6  -5   19.34    0.72 
   1   6   5   18.36    0.69 
  -2  -6  -5    3.79    0.19 
   2  -6   5    3.67    0.17 
   2   6   5    3.42    0.16 
   2   6   5    3.78    0.20 
  -2   6  -5    4.09    0.22 
   3  -6   5    5.40    0.26 
  -3  -6  -5    5.61    0.28 
  -3   6  -5    5.95    0.31 
  -4  -6  -5    0.23    0.09 
  -4   6  -5    0.19    0.10 
   4  -7  -5   12.19    0.52 
   4   7  -5   11.86    0.50 
  -3  -7   5    2.72    0.17 
   3  -7  -5    2.94    0.18 
   3   7  -5    3.22    0.18 
  -3   7   5    3.22    0.20 
   2  -7  -5   18.73    0.70 
  -2   7   5   18.77    0.73 
   2   7  -5   18.83    0.70 
   2   7  -5   19.05    0.71 
   1  -7  -5    2.13    0.12 
  -1   7   5    2.01    0.10 
  -1   7   5    2.06    0.14 
   1   7  -5    2.07    0.11 
   1   7  -5    2.20    0.13 
   0  -7  -5    1.36    0.10 
   0  -7  -5    1.36    0.08 
   0   7  -5    1.20    0.10 
   0   7   5    1.28    0.08 
   0   7   5    1.33    0.10 
  -1  -7  -5   31.91    1.14 
   1  -7   5   31.49    1.13 
   1   7   5   29.56    1.13 
   1   7   5   31.63    1.14 
  -1   7  -5   33.81    1.17 
  -2  -7  -5   25.36    0.94 
   2  -7   5   25.61    0.92 
   2   7   5   25.51    0.94 
   2   7   5   25.63    0.91 
  -2   7  -5   24.57    0.96 
   3  -7   5    0.40    0.07 
  -3  -7  -5    0.37    0.09 
  -3   7  -5    0.58    0.11 
  -4  -7  -5    2.68    0.21 
  -4   7  -5    3.09    0.24 
   4  -8  -5    3.35    0.23 
   4   8  -5    3.36    0.21 
  -4   8   5    4.12    0.26 
  -3  -8   5    2.46    0.16 
   3  -8  -5    2.33    0.16 
   3   8  -5    2.47    0.17 
   3   8  -5    2.33    0.15 
  -3   8   5    2.68    0.19 
   2  -8  -5    6.63    0.30 
  -2   8   5    6.67    0.32 
   2   8  -5    7.13    0.30 
   2   8  -5    6.72    0.29 
   1  -8  -5    1.81    0.11 
  -1   8   5    1.54    0.10 
  -1   8   5    1.60    0.13 
   1   8  -5    1.81    0.11 
   1   8  -5    1.80    0.12 
   0  -8  -5   54.63    1.96 
   0   8   5   56.12    1.97 
   0   8  -5   56.24    1.99 
   0   8   5   56.72    1.99 
  -1  -8  -5   19.73    0.72 
   1   8   5   19.50    0.73 
  -1   8  -5   20.79    0.76 
   1   8   5   17.89    0.72 
   2  -8   5   12.16    0.47 
  -2  -8  -5   12.12    0.49 
   2   8   5   11.74    0.49 
  -2   8  -5   12.06    0.51 
   2   8   5   12.04    0.46 
   3  -8   5    9.20    0.40 
  -3  -8  -5    9.35    0.42 
  -3   8  -5    9.89    0.45 
  -4  -8  -5   -0.07    0.07 
  -4   8  -5    0.08    0.09 
   4  -9  -5   -0.07    0.07 
   4   9  -5   -0.02    0.06 
  -4   9   5    0.06    0.09 
   3  -9  -5    0.10    0.06 
  -3  -9   5    0.09    0.06 
  -3   9   5    0.01    0.06 
   3   9  -5   -0.03    0.06 
   3   9  -5    0.06    0.05 
   2  -9  -5    1.15    0.10 
   2   9  -5    1.16    0.10 
  -2   9   5    0.92    0.12 
   2   9  -5    1.13    0.11 
   1  -9  -5    0.01    0.04 
   1   9  -5    0.04    0.04 
  -1   9   5    0.02    0.05 
   1   9  -5    0.06    0.03 
   0  -9  -5    0.41    0.06 
   0   9   5    0.42    0.06 
   0   9  -5    0.34    0.06 
   0   9   5    0.40    0.07 
  -1  -9  -5    0.87    0.09 
   1   9   5    0.92    0.10 
  -1   9  -5    0.96    0.11 
   1   9   5    0.68    0.09 
  -2  -9  -5    1.07    0.12 
   2  -9   5    1.24    0.11 
   2   9   5    1.09    0.12 
  -2   9  -5    1.45    0.14 
  -3  -9  -5    2.69    0.20 
   3  -9   5    2.97    0.18 
  -3   9  -5    3.23    0.23 
  -4  -9  -5    0.37    0.11 
  -4   9  -5    0.74    0.15 
   4 -10  -5    0.28    0.09 
  -4  10   5    0.25    0.11 
   4  10  -5    0.29    0.08 
   3 -10  -5   -0.03    0.05 
  -3 -10   5    0.03    0.05 
  -3  10   5   -0.07    0.06 
   3  10  -5    0.00    0.04 
   3  10  -5   -0.02    0.06 
   2 -10  -5    0.03    0.05 
   2  10  -5    0.04    0.04 
   2  10  -5    0.08    0.06 
  -2  10   5   -0.01    0.05 
   1 -10  -5    1.38    0.11 
   1  10  -5    1.27    0.10 
   1  10  -5    1.11    0.11 
  -1  10   5    1.22    0.13 
   0 -10  -5   13.31    0.54 
   0  10   5   14.86    0.55 
   0  10  -5   14.58    0.58 
   0  10   5   14.41    0.57 
  -1 -10  -5    0.15    0.05 
   1  10   5    0.18    0.07 
  -1  10  -5    0.17    0.07 
   2 -10   5    7.07    0.30 
  -2 -10  -5    6.46    0.31 
  -2  10  -5    6.57    0.34 
   2  10   5    6.44    0.32 
  -3 -10  -5    0.09    0.07 
   3 -10   5    0.11    0.06 
  -3  10  -5    0.18    0.08 
   3  10   5    0.12    0.08 
  -4  10  -5    0.34    0.11 
   3 -11  -5    0.25    0.07 
  -3 -11   5    0.26    0.08 
   3  11  -5    0.28    0.08 
  -3  11   5    0.16    0.09 
   3  11  -5    0.26    0.07 
   2 -11  -5    5.67    0.28 
  -2  11   5    6.35    0.32 
   2  11  -5    6.51    0.30 
   2  11  -5    6.05    0.28 
   1 -11  -5    0.19    0.06 
  -1  11   5    0.08    0.06 
   1  11  -5    0.15    0.06 
   1  11  -5    0.18    0.05 
   0 -11  -5    0.74    0.09 
   0  11  -5    0.67    0.10 
   0  11   5    0.75    0.09 
   0  11   5    0.59    0.10 
  -1 -11  -5    0.29    0.07 
   1 -11   5    0.26    0.06 
   1  11   5    0.18    0.07 
  -1  11  -5    0.34    0.08 
  -2 -11  -5    1.43    0.14 
   2 -11   5    1.27    0.12 
  -2  11  -5    1.48    0.15 
   2  11   5    1.41    0.14 
  -3 -11  -5    0.55    0.12 
   3 -11   5    0.75    0.11 
  -3  11  -5    0.61    0.12 
   3  11   5    0.61    0.12 
   3 -12  -5    0.72    0.11 
  -3 -12   5    0.82    0.12 
   3  12  -5    0.53    0.11 
  -3  12   5    0.67    0.14 
   3  12  -5    0.61    0.10 
   2 -12  -5   17.19    0.68 
   2  12  -5   17.65    0.68 
   2  12  -5   18.06    0.70 
  -2  12   5   17.17    0.72 
   1 -12  -5    0.10    0.05 
  -1  12   5    0.11    0.07 
   1  12  -5    0.14    0.06 
   0 -12  -5   15.69    0.67 
   0  12   5   18.70    0.69 
   0  12  -5   19.07    0.72 
   0  12   5   17.79    0.71 
  -1 -12  -5    6.66    0.31 
   1 -12   5    6.57    0.30 
   1  12   5    6.63    0.32 
  -1  12  -5    6.74    0.33 
   2 -12   5    3.18    0.20 
  -2 -12  -5    3.72    0.22 
  -2  12  -5    3.74    0.24 
   2  12   5    3.81    0.23 
  -3 -12  -5    4.27    0.27 
   3 -12   5    3.66    0.24 
   3  12   5    4.45    0.28 
  -3  12  -5    4.72    0.28 
   3 -13  -5    1.14    0.13 
  -3 -13   5    1.06    0.14 
  -3  13   5    0.83    0.15 
   3  13  -5    0.75    0.11 
   3  13  -5    0.72    0.13 
   2 -13  -5    1.17    0.12 
  -2  13   5    1.12    0.16 
   2  13  -5    1.13    0.11 
   2  13  -5    1.35    0.14 
   1 -13  -5    0.10    0.05 
  -1  13   5    0.15    0.08 
   1  13  -5    0.10    0.06 
   0 -13  -5    1.53    0.13 
   0  13   5    1.60    0.15 
   0  13   5    1.57    0.13 
   0  13  -5    1.54    0.14 
  -1 -13  -5    0.03    0.05 
   1 -13   5   -0.02    0.05 
  -1  13  -5   -0.04    0.05 
   1  13   5    0.04    0.07 
   2 -13   5    0.03    0.05 
  -2 -13  -5    0.03    0.06 
   2  13   5    0.04    0.07 
  -2  13  -5    0.10    0.07 
  -3 -13  -5    0.03    0.08 
   3 -13   5    0.00    0.07 
   3  13   5   -0.03    0.08 
  -3  13  -5    0.04    0.07 
  -3 -14   5    0.70    0.14 
   3 -14  -5    0.60    0.11 
  -3  14   5    0.66    0.14 
   3  14  -5    0.64    0.11 
   3  14  -5    0.46    0.12 
   2 -14  -5    1.21    0.12 
   2  14  -5    1.22    0.12 
   2  14  -5    1.16    0.14 
  -2  14   5    1.10    0.17 
   1 -14  -5    4.01    0.22 
   1  14  -5    3.99    0.25 
  -1  14   5    4.01    0.26 
   0 -14  -5    0.08    0.06 
   0  14   5    0.08    0.06 
   0  14   5   -0.05    0.05 
   0  14  -5    0.03    0.05 
  -1 -14  -5    0.57    0.10 
   1 -14   5    0.58    0.10 
  -1  14  -5    0.51    0.10 
   1  14   5    0.41    0.10 
   2 -14   5    0.43    0.09 
  -2 -14  -5    0.42    0.10 
  -2  14  -5    0.36    0.10 
   2  14   5    0.53    0.12 
   3 -14   5    1.25    0.15 
  -3  14  -5    1.47    0.18 
   2 -15  -5    1.31    0.13 
  -2  15   5    1.22    0.18 
   2  15  -5    1.12    0.15 
   1 -15  -5   -0.01    0.05 
   1  15  -5    0.03    0.06 
  -1  15   5   -0.03    0.07 
   0 -15  -5    0.06    0.06 
   0  15   5    0.09    0.07 
   0  15  -5    0.19    0.07 
   1 -15   5    0.17    0.07 
  -1 -15  -5    0.04    0.06 
  -1  15  -5    0.15    0.07 
   1  15   5    0.13    0.09 
   2 -15   5    0.17    0.08 
  -2 -15  -5    0.09    0.08 
   2  15   5    0.10    0.10 
  -2  15  -5    0.16    0.08 
   2 -16  -5    0.65    0.11 
  -2  16   5    0.78    0.15 
   1 -16  -5    1.92    0.17 
  -1  16   5    1.97    0.20 
   1  16  -5    2.16    0.18 
   0 -16  -5    1.84    0.16 
   0  16  -5    2.23    0.18 
   0  16   5    1.68    0.19 
  -1 -16  -5    0.20    0.08 
   1 -16   5    0.28    0.08 
   1  16   5    0.29    0.11 
  -1  16  -5    0.23    0.08 
   2 -16   5    1.65    0.16 
  -2 -16  -5    1.17    0.16 
  -2  16  -5    1.57    0.17 
   2  16   5    1.34    0.19 
   1 -17  -5    0.23    0.08 
  -1  17   5    0.20    0.11 
   0 -17  -5    0.47    0.10 
   0  17  -5    0.40    0.10 
   1 -17   5    0.07    0.08 
  -1 -17  -5    0.13    0.09 
  -1  17  -5    0.21    0.10 
   1  17   5    0.15    0.10 
   4   0  -6   11.33    0.47 
   3   0  -6    0.39    0.07 
  -2   0   6   20.44    0.75 
   2   0  -6   19.88    0.74 
   1   0  -6  181.79    6.03 
  -1   0   6  167.44    6.05 
   0   0  -6    2.87    0.13 
   0   0   6    2.97    0.14 
   0   0  -6    3.10    0.14 
  -1   0  -6   80.32    2.85 
   1   0   6   83.02    2.85 
  -2   0  -6    0.19    0.06 
  -3   0  -6    2.18    0.18 
  -4   0  -6    0.20    0.10 
   4  -1  -6   -0.03    0.05 
   4   1  -6   -0.06    0.05 
   3  -1  -6    0.79    0.09 
  -3   1   6    0.81    0.10 
   3   1  -6    0.62    0.08 
  -2  -1   6   11.88    0.44 
   2  -1  -6   12.36    0.46 
  -2  -1   6   11.89    0.46 
  -2   1   6   11.94    0.47 
   2   1  -6   12.41    0.46 
   2   1  -6   11.77    0.44 
  -1  -1   6  105.10    3.84 
   1  -1  -6  120.26    3.82 
  -1   1   6  108.52    3.84 
   1   1  -6  100.58    3.81 
   1   1  -6  117.33    3.82 
   0  -1  -6  136.23    4.66 
   0  -1  -6  130.09    4.66 
   0  -1   6  136.60    4.68 
   0   1   6  136.49    4.68 
   0   1  -6  136.27    4.66 
   0   1  -6  132.91    4.67 
  -1  -1  -6   21.44    0.77 
   1   1   6   21.71    0.76 
  -1   1  -6   20.05    0.77 
  -2  -1  -6    2.31    0.15 
  -2   1  -6    2.18    0.15 
  -3  -1  -6   19.25    0.74 
  -3   1  -6   18.45    0.75 
  -4  -1  -6    0.33    0.10 
  -4   1  -6    0.40    0.12 
   4  -2  -6    1.40    0.14 
   4   2  -6    1.75    0.14 
   3  -2  -6    0.07    0.05 
   3   2  -6    0.05    0.04 
  -3   2   6    0.16    0.05 
   2  -2  -6    0.36    0.06 
  -2  -2   6    0.32    0.04 
  -2  -2   6    0.31    0.05 
   2   2  -6    0.23    0.04 
   2   2  -6    0.23    0.04 
  -2   2   6    0.27    0.05 
  -1  -2   6    0.71    0.06 
   1  -2  -6    0.69    0.06 
  -1   2   6    0.79    0.07 
   1   2  -6    0.68    0.05 
   1   2  -6    0.84    0.05 
   0  -2   6   31.84    1.14 
   0  -2  -6   32.04    1.11 
   0  -2  -6   31.51    1.12 
   0   2  -6   30.56    1.13 
   0   2   6   32.69    1.14 
  -1  -2  -6    5.48    0.22 
  -1   2  -6    5.34    0.24 
   1   2   6    4.97    0.22 
  -2  -2  -6    1.88    0.13 
  -2   2  -6    1.70    0.14 
  -3  -2  -6   -0.02    0.07 
  -3   2  -6   -0.04    0.08 
  -4  -2  -6    1.24    0.17 
  -4   2  -6    1.30    0.17 
   4  -3  -6    1.38    0.14 
   4   3  -6    1.32    0.12 
   3  -3  -6    1.96    0.14 
   3   3  -6    2.01    0.14 
  -3   3   6    2.15    0.15 
  -2  -3   6    9.83    0.41 
  -2  -3   6   10.15    0.39 
   2  -3  -6   11.04    0.41 
   2   3  -6   10.47    0.40 
   2   3  -6   10.16    0.39 
  -2   3   6   10.54    0.42 
   1  -3  -6   32.32    1.07 
  -1  -3   6   28.41    1.08 
   1   3  -6   30.54    1.06 
  -1   3   6   31.13    1.09 
   1   3  -6   28.43    1.07 
   0  -3  -6   27.82    1.01 
   0  -3  -6   29.26    1.00 
   0   3   6   28.70    1.02 
   0   3  -6   27.65    1.02 
  -1  -3  -6   19.98    0.71 
  -1   3  -6   18.91    0.72 
   1   3   6   19.25    0.71 
   2  -3   6    0.26    0.04 
  -2  -3  -6    0.33    0.07 
  -2   3  -6    0.26    0.08 
  -3  -3  -6    1.18    0.13 
  -3   3  -6    1.16    0.16 
  -4  -3  -6   -0.07    0.07 
  -4   3  -6    0.16    0.10 
   4  -4  -6    1.40    0.14 
   4   4  -6    1.31    0.12 
   3  -4  -6    2.54    0.16 
  -3   4   6    2.90    0.18 
   3   4  -6    2.41    0.16 
   2  -4  -6   58.19    2.00 
  -2  -4   6   54.28    2.00 
   2   4  -6   57.17    1.99 
  -2   4   6   56.83    2.02 
   2   4  -6   56.55    1.99 
   1  -4  -6   19.99    0.68 
  -1  -4   6   18.42    0.70 
   1   4  -6   19.40    0.68 
  -1   4   6   18.92    0.70 
   1   4  -6   17.21    0.68 
   0  -4  -6    2.19    0.10 
   0  -4  -6    2.07    0.12 
   0   4  -6    2.08    0.12 
   0   4   6    2.12    0.12 
   0   4  -6    2.04    0.10 
  -1  -4  -6   72.33    2.44 
  -1   4  -6   71.67    2.46 
   1   4   6   64.94    2.43 
  -2  -4  -6    6.10    0.27 
   2  -4   6    6.15    0.24 
  -2   4  -6    5.78    0.29 
  -3  -4  -6    1.06    0.13 
  -3   4  -6    1.42    0.16 
  -4  -4  -6    2.77    0.22 
  -4   4  -6    3.70    0.26 
   4  -5  -6    0.09    0.07 
   4   5  -6    0.08    0.06 
   3  -5  -6   35.13    1.29 
  -3   5   6   36.99    1.30 
   3   5  -6   33.56    1.27 
  -2  -5   6   17.67    0.70 
   2  -5  -6   18.96    0.70 
   2   5  -6   19.23    0.70 
  -2   5   6   19.20    0.73 
   2   5  -6   19.24    0.70 
  -1  -5   6    0.80    0.08 
   1  -5  -6    0.70    0.06 
   1  -5  -6    0.81    0.09 
   1   5  -6    0.75    0.06 
  -1   5   6    0.79    0.08 
   1   5  -6    0.86    0.07 
   0  -5  -6   96.02    3.32 
   0  -5  -6   96.89    3.34 
   0   5  -6   91.39    3.35 
   0   5   6   98.31    3.35 
   0   5   6   98.25    3.32 
   0   5  -6   94.40    3.32 
   1  -5   6   12.76    0.46 
  -1  -5  -6   12.27    0.47 
   1   5   6   11.87    0.47 
  -1   5  -6   12.43    0.49 
  -2  -5  -6    0.24    0.06 
   2  -5   6    0.24    0.04 
  -2   5  -6    0.25    0.08 
  -3  -5  -6   14.14    0.59 
  -3   5  -6   15.35    0.63 
  -4  -5  -6    0.55    0.12 
  -4   5  -6    0.53    0.13 
   4  -6  -6   -0.07    0.05 
   4   6  -6    0.04    0.05 
   3  -6  -6   -0.06    0.05 
  -3  -6   6    0.00    0.04 
  -3   6   6    0.01    0.05 
   3   6  -6   -0.02    0.04 
   3   6  -6    0.00    0.05 
   2  -6  -6   49.76    1.74 
  -2  -6   6   46.17    1.74 
   2   6  -6   48.83    1.73 
  -2   6   6   49.53    1.76 
   2   6  -6   49.96    1.74 
   1  -6  -6   41.58    1.39 
   1  -6  -6   38.63    1.39 
   1   6  -6   39.94    1.39 
   1   6  -6   37.62    1.40 
  -1   6   6   38.62    1.42 
   0  -6  -6   23.15    0.83 
   0  -6  -6   22.91    0.83 
   0  -6  -6   22.69    0.84 
   0   6  -6   22.33    0.86 
   0   6   6   23.86    0.83 
   0   6   6   24.42    0.86 
  -1  -6  -6    1.38    0.09 
   1   6   6    1.18    0.10 
   1   6   6    1.05    0.09 
  -1   6  -6    1.50    0.12 
  -2  -6  -6    0.37    0.07 
  -2   6  -6    0.47    0.09 
  -3  -6  -6    2.77    0.19 
  -3   6  -6    3.00    0.22 
  -4  -6  -6    0.30    0.10 
  -4   6  -6    0.36    0.12 
   4  -7  -6    0.48    0.10 
  -4   7   6    0.46    0.13 
   4   7  -6    0.55    0.10 
  -3  -7   6    1.24    0.12 
   3  -7  -6    1.08    0.12 
   3   7  -6    1.18    0.11 
   3   7  -6    1.25    0.12 
  -3   7   6    1.14    0.15 
   2  -7  -6    0.06    0.05 
  -2   7   6   -0.03    0.05 
   2   7  -6    0.09    0.04 
   2   7  -6    0.05    0.04 
   1  -7  -6    6.79    0.28 
   1   7  -6    6.75    0.30 
  -1   7   6    6.53    0.31 
   1   7  -6    7.31    0.28 
   0  -7  -6    0.26    0.04 
   0  -7  -6    0.22    0.04 
   0  -7  -6    0.26    0.06 
   0   7  -6    0.51    0.08 
   0   7   6    0.20    0.04 
   0   7   6    0.23    0.05 
  -1  -7  -6    1.26    0.09 
  -1   7  -6    1.08    0.11 
   1   7   6    1.16    0.10 
   1   7   6    1.19    0.10 
  -2  -7  -6    1.92    0.14 
  -2   7  -6    1.60    0.15 
  -3  -7  -6    1.46    0.15 
  -3   7  -6    1.86    0.18 
  -4  -7  -6    0.02    0.08 
  -4   7  -6    0.12    0.09 
   4  -8  -6    1.77    0.17 
  -4   8   6    2.15    0.20 
   4   8  -6    1.83    0.16 
   3  -8  -6    2.56    0.17 
  -3  -8   6    2.76    0.17 
  -3   8   6    2.40    0.20 
   3   8  -6    2.18    0.15 
   3   8  -6    2.62    0.17 
   2  -8  -6    3.44    0.18 
   2   8  -6    3.47    0.19 
  -2   8   6    3.33    0.21 
   2   8  -6    3.44    0.17 
   1  -8  -6    5.93    0.26 
   1   8  -6    6.29    0.26 
   1   8  -6    6.31    0.28 
  -1   8   6    6.12    0.29 
   0  -8  -6   -0.05    0.05 
   0  -8  -6   -0.02    0.03 
   0  -8  -6    0.01    0.03 
   0   8  -6   -0.03    0.04 
   0   8   6    0.02    0.04 
   0   8   6    0.03    0.04 
  -1  -8  -6    5.43    0.24 
   1   8   6    4.67    0.23 
   1   8   6    5.00    0.24 
  -1   8  -6    5.92    0.27 
   2  -8   6    1.38    0.10 
  -2  -8  -6    1.41    0.13 
   2   8   6    1.28    0.13 
  -2   8  -6    1.76    0.15 
  -3  -8  -6    0.28    0.09 
   3  -8   6    0.37    0.07 
  -3   8  -6    0.70    0.13 
  -4  -8  -6    1.07    0.16 
  -4   8  -6    1.18    0.18 
   4  -9  -6    0.09    0.08 
  -4   9   6    0.07    0.08 
   4   9  -6   -0.04    0.06 
   3  -9  -6    2.95    0.19 
  -3  -9   6    3.24    0.19 
   3   9  -6    3.00    0.18 
  -3   9   6    3.33    0.22 
   3   9  -6    3.25    0.20 
   2  -9  -6    7.67    0.34 
  -2   9   6    8.20    0.38 
   2   9  -6    8.18    0.34 
   2   9  -6    8.52    0.36 
   1  -9  -6    3.87    0.18 
   1   9  -6    3.74    0.18 
  -1   9   6    3.14    0.21 
   1   9  -6    3.71    0.20 
   0  -9  -6    9.63    0.39 
   0  -9  -6   10.11    0.41 
   0  -9  -6   10.50    0.40 
   0   9   6   10.44    0.43 
   0   9  -6   10.02    0.43 
   0   9   6   10.57    0.40 
  -1  -9  -6    0.37    0.07 
   1   9   6    0.25    0.06 
  -1   9  -6    0.40    0.08 
   1   9   6    0.37    0.08 
   2  -9   6    1.54    0.11 
  -2  -9  -6    1.69    0.13 
  -2   9  -6    1.57    0.15 
   2   9   6    1.49    0.14 
  -3  -9  -6   14.17    0.62 
   3  -9   6   14.59    0.59 
  -3   9  -6   16.27    0.65 
  -4   9  -6    0.28    0.11 
   4 -10  -6    2.33    0.20 
  -4  10   6    2.92    0.25 
   4  10  -6    2.69    0.19 
  -3 -10   6    1.08    0.12 
   3 -10  -6    0.98    0.12 
   3  10  -6    0.92    0.12 
   3  10  -6    1.04    0.10 
  -3  10   6    1.03    0.14 
   2 -10  -6    5.60    0.27 
  -2  10   6    5.39    0.30 
   2  10  -6    6.05    0.28 
   2  10  -6    5.58    0.26 
   1 -10  -6   18.33    0.69 
   1  10  -6   18.72    0.69 
  -1  10   6   17.78    0.72 
   1  10  -6   19.18    0.72 
   0 -10  -6   15.77    0.57 
   0 -10  -6   14.63    0.57 
   0  10  -6   14.57    0.60 
   0  10   6   15.15    0.60 
   0  10   6   15.47    0.58 
  -1 -10  -6   17.97    0.71 
  -1  10  -6   19.63    0.74 
   1  10   6   18.48    0.72 
  -2 -10  -6    0.26    0.07 
   2 -10   6    0.35    0.07 
   2  10   6    0.15    0.07 
  -2  10  -6    0.28    0.09 
  -3 -10  -6    0.33    0.09 
   3 -10   6    0.19    0.07 
  -3  10  -6    0.27    0.10 
  -3 -11   6    0.13    0.07 
   3 -11  -6    0.09    0.07 
   3  11  -6    0.05    0.05 
   3  11  -6    0.11    0.07 
  -3  11   6    0.07    0.08 
   2 -11  -6    0.19    0.06 
   2  11  -6    0.12    0.06 
  -2  11   6    0.27    0.08 
   2  11  -6    0.06    0.05 
   1 -11  -6    1.17    0.10 
  -1  11   6    0.86    0.13 
   1  11  -6    1.07    0.10 
   1  11  -6    1.00    0.11 
   0 -11  -6   11.42    0.46 
   0  11   6   12.43    0.47 
   0  11  -6   11.59    0.50 
   0  11   6   11.45    0.49 
  -1 -11  -6    2.98    0.17 
   1  11   6    2.85    0.18 
  -1  11  -6    2.66    0.18 
   2 -11   6    2.01    0.14 
  -2 -11  -6    1.92    0.16 
  -2  11  -6    2.16    0.18 
   2  11   6    1.81    0.16 
  -3 -11  -6    0.40    0.10 
   3 -11   6    0.39    0.08 
  -3  11  -6    0.47    0.11 
  -3 -12   6    0.39    0.09 
   3 -12  -6    0.34    0.08 
  -3  12   6    0.26    0.10 
   3  12  -6    0.32    0.08 
   3  12  -6    0.26    0.09 
   2 -12  -6    0.19    0.06 
   2  12  -6    0.10    0.06 
  -2  12   6   -0.03    0.05 
   2  12  -6    0.12    0.05 
   1 -12  -6    0.31    0.07 
   1  12  -6    0.25    0.07 
  -1  12   6    0.25    0.08 
   0 -12  -6    2.41    0.15 
   0  12   6    2.46    0.17 
   0  12   6    2.13    0.15 
   0  12  -6    2.36    0.17 
   1 -12   6    0.08    0.05 
  -1 -12  -6    0.03    0.05 
   1  12   6    0.08    0.07 
  -1  12  -6    0.17    0.07 
   2 -12   6    0.52    0.09 
  -2 -12  -6    0.45    0.10 
  -2  12  -6    0.61    0.12 
   2  12   6    0.71    0.12 
  -3 -12  -6    0.06    0.08 
   3 -12   6   -0.04    0.06 
  -3  12  -6    0.01    0.07 
   3  12   6   -0.07    0.07 
   3 -13  -6    0.37    0.09 
  -3 -13   6    0.39    0.09 
   3  13  -6    0.35    0.08 
   3  13  -6    0.35    0.10 
  -3  13   6    0.42    0.13 
   2 -13  -6    0.49    0.08 
   2  13  -6    0.46    0.08 
  -2  13   6    0.53    0.12 
   2  13  -6    0.47    0.10 
   1 -13  -6    0.55    0.09 
   1  13  -6    0.35    0.08 
  -1  13   6    0.32    0.08 
   0 -13  -6    3.18    0.19 
   0  13  -6    3.66    0.22 
   0  13   6    3.30    0.21 
  -1 -13  -6    0.13    0.06 
   1 -13   6    0.09    0.06 
   1  13   6    0.00    0.06 
  -1  13  -6    0.13    0.07 
   2 -13   6    0.07    0.06 
  -2 -13  -6    0.01    0.06 
  -2  13  -6    0.07    0.06 
   2  13   6    0.02    0.07 
   3 -13   6    0.14    0.08 
  -3 -13  -6    0.32    0.11 
  -3  13  -6    0.41    0.11 
   3  13   6    0.30    0.12 
   2 -14  -6    2.46    0.18 
  -2  14   6    2.78    0.23 
   2  14  -6    2.95    0.21 
   2  14  -6    2.83    0.18 
   1 -14  -6    3.88    0.22 
   1  14  -6    4.25    0.25 
  -1  14   6    3.95    0.26 
   0 -14  -6    2.11    0.16 
   0  14   6    2.26    0.19 
   0  14  -6    2.60    0.19 
   1 -14   6    2.86    0.19 
  -1 -14  -6    3.02    0.20 
   1  14   6    2.83    0.21 
  -1  14  -6    3.37    0.22 
  -2 -14  -6    0.00    0.07 
   2 -14   6    0.03    0.06 
   2  14   6    0.11    0.09 
  -2  14  -6    0.13    0.08 
   2 -15  -6    0.47    0.09 
  -2  15   6    0.45    0.11 
   2  15  -6    0.29    0.10 
   1 -15  -6    0.36    0.08 
  -1  15   6    0.32    0.10 
   1  15  -6    0.28    0.09 
   0 -15  -6    2.36    0.17 
   0  15  -6    2.58    0.20 
   0  15   6    2.36    0.19 
  -1 -15  -6    3.89    0.24 
   1 -15   6    4.14    0.23 
   1  15   6    3.93    0.25 
  -1  15  -6    3.56    0.25 
  -2 -15  -6    0.61    0.12 
   2 -15   6    0.61    0.11 
   2  15   6    0.68    0.14 
  -2  15  -6    0.59    0.12 
   1 -16  -6    1.44    0.15 
   1  16  -6    1.11    0.15 
  -1  16   6    0.86    0.16 
   0 -16  -6    1.91    0.16 
   0  16   6    1.81    0.19 
   0  16  -6    2.28    0.18 
  -1 -16  -6    0.04    0.07 
   1 -16   6    0.06    0.06 
  -1  16  -6   -0.04    0.06 
   1  16   6    0.03    0.08 
   1 -17  -6    0.87    0.13 
  -1  17   6    0.83    0.15 
   0 -17  -6    0.37    0.09 
   1 -17   6    0.02    0.08 
   4   0  -7   -0.01    0.05 
   3   0  -7   -0.09    0.04 
  -3   0   7   -0.02    0.03 
   2   0  -7    0.04    0.03 
  -2   0   7    0.03    0.03 
  -1   0   7   -0.02    0.02 
   1   0  -7    0.04    0.02 
   0   0   7    0.02    0.02 
   0   0  -7   -0.01    0.03 
   0   0  -7    0.01    0.03 
   1   0   7    0.01    0.03 
  -1   0  -7   -0.02    0.04 
  -2   0  -7   -0.02    0.05 
   2   0   7    0.02    0.03 
  -3   0  -7   -0.02    0.07 
  -4   0  -7   -0.15    0.07 
   4  -1  -7    2.45    0.17 
   4   1  -7    2.37    0.16 
   3  -1  -7   -0.04    0.04 
  -3   1   7    0.04    0.04 
   3   1  -7   -0.04    0.04 
  -2  -1   7    0.27    0.05 
   2  -1  -7    0.32    0.05 
  -2   1   7    0.38    0.06 
   2   1  -7    0.41    0.06 
   1  -1  -7   45.66    1.46 
  -1  -1   7   38.65    1.48 
   1   1  -7   38.26    1.45 
   1   1  -7   44.09    1.45 
  -1   1   7   40.98    1.48 
   0  -1  -7    8.26    0.33 
   0  -1  -7    9.07    0.34 
   0  -1   7    9.01    0.35 
   0   1  -7    8.91    0.34 
   0   1  -7    8.34    0.34 
   0   1   7    9.48    0.35 
   1  -1   7   80.84    2.78 
  -1  -1  -7   78.77    2.78 
  -1   1  -7   79.39    2.79 
   1   1   7   78.76    2.78 
  -2  -1  -7    0.83    0.10 
  -2   1  -7    0.77    0.10 
   2   1   7    0.67    0.07 
  -3  -1  -7    3.59    0.22 
  -3   1  -7    3.62    0.23 
  -4  -1  -7    1.18    0.16 
  -4   1  -7    1.30    0.17 
   4  -2  -7    0.52    0.09 
   4   2  -7    0.57    0.09 
   3  -2  -7   26.15    0.97 
  -3   2   7   27.48    0.99 
   3   2  -7   25.34    0.97 
  -2  -2   7    0.65    0.08 
   2  -2  -7    0.83    0.08 
  -2   2   7    0.75    0.08 
   2   2  -7    0.69    0.07 
  -1  -2   7   38.43    1.46 
   1  -2  -7   44.79    1.44 
  -1   2   7   41.06    1.47 
   1   2  -7   41.45    1.44 
   1   2  -7   39.63    1.44 
   0  -2  -7    3.15    0.15 
   0  -2   7    3.19    0.16 
   0  -2  -7    2.95    0.13 
   0   2   7    3.11    0.15 
   0   2  -7    3.04    0.15 
  -1  -2  -7   22.96    0.83 
   1   2   7   22.24    0.83 
  -1   2  -7   23.15    0.84 
  -2  -2  -7   16.71    0.64 
  -2   2  -7   16.55    0.65 
  -3  -2  -7    7.05    0.35 
  -3   2  -7    7.95    0.37 
  -4  -2  -7    0.07    0.09 
  -4   2  -7    0.14    0.10 
   4  -3  -7    1.50    0.14 
   4   3  -7    1.46    0.13 
   3  -3  -7    0.86    0.10 
   3   3  -7    0.75    0.09 
  -3   3   7    0.74    0.10 
   2  -3  -7    2.09    0.12 
  -2  -3   7    1.71    0.12 
   2   3  -7    1.89    0.10 
  -2   3   7    1.90    0.13 
   2   3  -7    1.88    0.11 
  -1  -3   7   74.32    2.70 
   1  -3  -7   81.20    2.68 
   1   3  -7   79.66    2.68 
   1   3  -7   71.42    2.68 
  -1   3   7   78.65    2.71 
   0  -3  -7    0.76    0.06 
   0  -3  -7    0.63    0.08 
   0  -3   7    0.59    0.07 
   0   3  -7    0.73    0.07 
   0   3   7    0.67    0.07 
  -1  -3  -7   55.54    1.92 
  -1   3  -7   54.36    1.93 
   1   3   7   53.46    1.92 
  -2  -3  -7   11.60    0.46 
  -2   3  -7   11.27    0.48 
  -3  -3  -7    5.15    0.28 
  -3   3  -7    5.49    0.30 
  -4  -3  -7    5.20    0.31 
  -4   3  -7    6.13    0.34 
   4  -4  -7    1.03    0.13 
   4   4  -7    1.15    0.12 
   3  -4  -7    6.05    0.29 
  -3   4   7    6.63    0.31 
   3   4  -7    6.27    0.28 
   2  -4  -7    5.46    0.24 
  -2  -4   7    4.98    0.24 
   2   4  -7    5.33    0.23 
   2   4  -7    5.50    0.23 
  -2   4   7    5.51    0.26 
   1  -4  -7   36.88    1.33 
  -1  -4   7   36.18    1.34 
   1  -4  -7   39.67    1.32 
   1   4  -7   38.74    1.32 
   1   4  -7   35.37    1.33 
  -1   4   7   38.00    1.36 
   0  -4  -7    1.02    0.09 
   0  -4  -7    0.99    0.06 
   0   4  -7    0.88    0.08 
   0   4  -7    1.01    0.06 
   0   4   7    1.12    0.09 
  -1  -4  -7    2.88    0.15 
  -1   4  -7    2.84    0.17 
   1   4   7    2.91    0.15 
  -2  -4  -7    0.10    0.06 
  -2   4  -7    0.00    0.06 
  -3  -4  -7    0.38    0.09 
  -3   4  -7    0.45    0.11 
  -4  -4  -7    1.01    0.15 
  -4   4  -7    0.88    0.16 
   4  -5  -7    0.53    0.10 
   4   5  -7    0.43    0.09 
   3  -5  -7    1.05    0.12 
   3   5  -7    1.12    0.11 
  -3   5   7    1.33    0.13 
  -2  -5   7    3.18    0.18 
   2  -5  -7    3.55    0.18 
  -2   5   7    3.37    0.20 
   2   5  -7    3.34    0.17 
   2   5  -7    3.36    0.17 
  -1  -5   7    9.59    0.40 
   1  -5  -7   10.22    0.38 
   1  -5  -7    9.58    0.39 
   1   5  -7    9.91    0.39 
  -1   5   7    9.77    0.41 
   1   5  -7   10.18    0.38 
   0  -5  -7    0.07    0.03 
   0  -5  -7    0.11    0.05 
   0   5   7    0.07    0.03 
   0   5  -7    0.10    0.04 
   1  -5   7    0.15    0.03 
  -1  -5  -7    0.13    0.04 
  -1   5  -7    0.16    0.06 
   1   5   7    0.17    0.04 
  -2  -5  -7    1.46    0.13 
  -2   5  -7    1.63    0.15 
  -3  -5  -7    0.44    0.10 
  -3   5  -7    0.61    0.12 
  -4  -5  -7   -0.04    0.07 
  -4   5  -7    0.06    0.08 
   4  -6  -7    1.26    0.14 
   4   6  -7    1.00    0.12 
   3  -6  -7   11.94    0.49 
  -3   6   7   12.38    0.51 
   3   6  -7   11.36    0.48 
   2  -6  -7   16.22    0.59 
  -2  -6   7   14.79    0.59 
   2   6  -7   15.69    0.59 
   2   6  -7   14.91    0.59 
  -2   6   7   15.90    0.62 
   1  -6  -7   47.09    1.61 
   1  -6  -7   45.14    1.62 
  -1  -6   7   44.97    1.64 
  -1   6   7   45.32    1.65 
   1   6  -7   45.98    1.61 
   1   6  -7   45.91    1.63 
   0  -6  -7    0.30    0.06 
   0  -6  -7    0.28    0.04 
   0  -6  -7    0.21    0.04 
   0   6   7    0.29    0.06 
   0   6  -7    0.25    0.06 
   0   6   7    0.21    0.04 
   1  -6   7    0.67    0.06 
  -1  -6  -7    0.78    0.08 
   1   6   7    0.68    0.08 
  -1   6  -7    0.66    0.10 
  -2  -6  -7    2.24    0.15 
  -2   6  -7    2.24    0.17 
  -3  -6  -7    2.78    0.19 
  -3   6  -7    2.94    0.22 
  -4  -6  -7    0.08    0.09 
  -4   6  -7    0.27    0.11 
   4  -7  -7    0.15    0.07 
   4   7  -7    0.13    0.06 
  -4   7   7    0.09    0.08 
   3  -7  -7    9.19    0.39 
   3   7  -7    8.48    0.38 
  -3   7   7    9.21    0.42 
   2  -7  -7    2.26    0.15 
  -2   7   7    2.19    0.18 
   2   7  -7    2.50    0.15 
   2   7  -7    2.45    0.14 
   1  -7  -7    7.92    0.31 
   1  -7  -7    7.74    0.33 
   1   7  -7    8.10    0.34 
  -1   7   7    7.40    0.35 
   1   7  -7    7.70    0.31 
   0  -7  -7    0.57    0.06 
   0  -7  -7    0.58    0.08 
   0  -7  -7    0.65    0.06 
   0   7   7    0.59    0.09 
   0   7  -7    0.60    0.08 
   0   7   7    0.63    0.07 
  -1  -7  -7   56.72    1.98 
   1   7   7   57.21    1.98 
  -1   7  -7   59.91    2.01 
   1   7   7   49.68    1.97 
  -2  -7  -7   10.86    0.45 
   2  -7   7   10.63    0.43 
  -2   7  -7   10.92    0.47 
  -3  -7  -7    1.46    0.15 
  -3   7  -7    1.85    0.18 
  -4  -7  -7    3.35    0.25 
  -4   7  -7    4.33    0.29 
   4  -8  -7    1.96    0.18 
  -4   8   7    2.35    0.21 
   4   8  -7    2.08    0.16 
   3  -8  -7    4.10    0.23 
  -3  -8   7    4.17    0.24 
  -3   8   7    4.42    0.26 
   3   8  -7    3.98    0.22 
   2  -8  -7    1.00    0.10 
   2   8  -7    1.13    0.10 
   2   8  -7    1.12    0.11 
  -2   8   7    1.08    0.13 
   1  -8  -7   37.59    1.36 
   1  -8  -7   38.45    1.35 
   1   8  -7   39.38    1.38 
   1   8  -7   38.17    1.35 
  -1   8   7   36.16    1.39 
   0  -8  -7    0.58    0.08 
   0  -8  -7    0.45    0.06 
   0  -8  -7    0.61    0.07 
   0   8   7    0.47    0.07 
   0   8   7    0.62    0.09 
   0   8  -7    0.52    0.09 
  -1  -8  -7    1.95    0.12 
  -1   8  -7    1.74    0.15 
   1   8   7    1.47    0.12 
   1   8   7    1.81    0.13 
  -2  -8  -7    2.87    0.18 
  -2   8  -7    3.40    0.21 
  -3  -8  -7    0.55    0.11 
  -3   8  -7    0.39    0.11 
  -4   8  -7    0.12    0.10 
   4  -9  -7    0.69    0.12 
  -4   9   7    0.87    0.14 
   4   9  -7    0.74    0.11 
   3  -9  -7    0.72    0.10 
  -3  -9   7    0.84    0.11 
   3   9  -7    0.72    0.10 
  -3   9   7    0.67    0.12 
   3   9  -7    0.57    0.10 
   2  -9  -7    0.77    0.10 
  -2   9   7    0.71    0.11 
   2   9  -7    0.75    0.09 
   2   9  -7    0.83    0.10 
   1  -9  -7    0.91    0.09 
   1  -9  -7    0.97    0.11 
   1   9  -7    0.97    0.10 
  -1   9   7    0.81    0.11 
   1   9  -7    0.87    0.08 
   0  -9  -7    2.23    0.12 
   0  -9  -7    2.24    0.15 
   0  -9  -7    2.42    0.13 
   0   9   7    2.21    0.13 
   0   9  -7    2.11    0.16 
   0   9   7    2.16    0.16 
  -1  -9  -7    1.06    0.10 
  -1   9  -7    1.15    0.12 
   1   9   7    1.16    0.11 
  -2  -9  -7    2.15    0.16 
   2  -9   7    2.37    0.14 
   2   9   7    2.47    0.17 
  -2   9  -7    2.44    0.19 
  -3  -9  -7    6.09    0.32 
  -3   9  -7    6.66    0.35 
  -3 -10   7    1.33    0.13 
   3 -10  -7    1.23    0.13 
   3  10  -7    1.31    0.14 
  -3  10   7    1.44    0.17 
   3  10  -7    1.30    0.12 
   2 -10  -7    0.07    0.05 
   2  10  -7    0.20    0.07 
   2  10  -7    0.07    0.04 
  -2  10   7    0.09    0.06 
   1 -10  -7    7.49    0.32 
   1  10  -7    7.97    0.35 
   1  10  -7    7.39    0.32 
  -1  10   7    7.27    0.35 
   0 -10  -7    1.37    0.10 
   0  10  -7    1.34    0.13 
   0  10   7    1.21    0.13 
  -1 -10  -7    2.13    0.14 
   1  10   7    2.38    0.16 
  -1  10  -7    2.49    0.18 
   2 -10   7    0.10    0.05 
  -2 -10  -7    0.01    0.05 
  -2  10  -7   -0.02    0.06 
   2  10   7   -0.01    0.06 
  -3 -10  -7    0.04    0.07 
  -3  10  -7    0.12    0.08 
   3 -11  -7    0.14    0.07 
  -3 -11   7    0.32    0.08 
   3  11  -7    0.25    0.09 
   3  11  -7    0.16    0.06 
  -3  11   7    0.25    0.09 
   2 -11  -7    1.24    0.11 
  -2  11   7    1.04    0.14 
   2  11  -7    1.01    0.10 
   2  11  -7    1.23    0.13 
   1 -11  -7   11.90    0.47 
   1  11  -7   12.52    0.51 
   1  11  -7   11.80    0.47 
  -1  11   7   11.20    0.51 
   0 -11  -7    0.58    0.08 
   0  11   7    0.75    0.11 
   0  11  -7    0.42    0.09 
  -1 -11  -7    9.51    0.41 
  -1  11  -7   10.82    0.45 
   1  11   7    9.35    0.42 
  -2 -11  -7    0.67    0.10 
   2 -11   7    0.59    0.08 
   2  11   7    0.65    0.11 
  -2  11  -7    0.66    0.12 
  -3 -11  -7    0.24    0.09 
  -3  11  -7    0.27    0.10 
  -3 -12   7    3.46    0.21 
   3 -12  -7    3.46    0.22 
   3  12  -7    3.24    0.22 
  -3  12   7    3.36    0.26 
   3  12  -7    3.07    0.20 
   2 -12  -7    1.63    0.14 
   2  12  -7    1.81    0.13 
  -2  12   7    1.53    0.17 
   2  12  -7    1.66    0.15 
   1 -12  -7    4.29    0.22 
   1  12  -7    4.66    0.25 
  -1  12   7    4.49    0.26 
   0 -12  -7    0.21    0.05 
   0  12   7    0.20    0.07 
   0  12  -7    0.18    0.08 
   1 -12   7    2.56    0.16 
  -1 -12  -7    2.37    0.17 
   1  12   7    2.29    0.18 
  -1  12  -7    2.90    0.20 
   2 -12   7    0.10    0.05 
  -2 -12  -7    0.08    0.07 
   2  12   7    0.06    0.08 
  -2  12  -7    0.13    0.07 
  -3 -12  -7    0.15    0.09 
  -3  12  -7    0.32    0.10 
  -3 -13   7   -0.01    0.05 
   3 -13  -7    0.05    0.06 
   3  13  -7   -0.08    0.07 
  -3  13   7   -0.02    0.08 
   3  13  -7   -0.02    0.05 
   2 -13  -7    0.97    0.12 
   2  13  -7    1.09    0.11 
   2  13  -7    1.00    0.14 
  -2  13   7    0.86    0.14 
   1 -13  -7    7.01    0.31 
   1  13  -7    6.97    0.34 
  -1  13   7    6.39    0.34 
   0 -13  -7    0.93    0.11 
   0  13   7    1.07    0.13 
   0  13  -7    1.07    0.13 
  -1 -13  -7    3.77    0.23 
   1 -13   7    4.02    0.22 
  -1  13  -7    4.33    0.26 
   1  13   7    3.85    0.24 
  -2 -13  -7    2.34    0.19 
   2 -13   7    2.52    0.17 
   2  13   7    2.67    0.21 
  -2  13  -7    2.87    0.22 
   2 -14  -7    0.75    0.11 
   2  14  -7    0.98    0.14 
  -2  14   7    0.72    0.13 
   2  14  -7    0.90    0.11 
   1 -14  -7   -0.03    0.05 
  -1  14   7   -0.08    0.06 
   1  14  -7    0.06    0.06 
   0 -14  -7    0.34    0.07 
   0  14   7    0.19    0.08 
   0  14  -7    0.48    0.10 
   1 -14   7    2.15    0.17 
  -1 -14  -7    2.09    0.17 
  -1  14  -7    2.29    0.18 
   1  14   7    2.24    0.19 
   2 -14   7    0.21    0.07 
  -2 -14  -7    0.08    0.08 
   2  14   7    0.15    0.09 
  -2  14  -7    0.19    0.08 
   2 -15  -7    0.09    0.06 
   2  15  -7    0.13    0.09 
  -2  15   7    0.02    0.08 
   1 -15  -7    0.27    0.08 
   1  15  -7    0.41    0.10 
  -1  15   7    0.33    0.10 
   0 -15  -7    0.28    0.07 
   0  15  -7    0.12    0.07 
   0  15   7    0.20    0.08 
   1 -15   7    0.53    0.10 
  -1  15  -7    0.82    0.13 
  -2 -15  -7    0.02    0.08 
   2 -15   7    0.08    0.06 
  -2  15  -7    0.07    0.08 
   2  15   7    0.04    0.08 
   1 -16  -7    1.88    0.16 
   1  16  -7    2.04    0.20 
  -1  16   7    1.97    0.20 
   0 -16  -7   -0.05    0.05 
   0  16  -7    0.01    0.06 
   1 -16   7    0.31    0.09 
  -1  16  -7    0.30    0.10 
   4   0  -8    0.94    0.11 
  -3   0   8    3.22    0.20 
   3   0  -8    3.37    0.19 
   2   0  -8    2.97    0.15 
  -2   0   8    2.64    0.16 
   1   0  -8   22.20    0.77 
  -1   0   8   21.10    0.81 
   0   0  -8   86.65    3.18 
   0   0  -8   93.04    3.18 
   0   0   8   94.54    3.20 
  -1   0  -8   66.18    2.35 
   1   0   8   67.61    2.36 
  -2   0  -8    0.12    0.07 
   2   0   8    0.10    0.04 
  -3   0  -8    0.29    0.10 
  -4   0  -8    3.93    0.27 
   4  -1  -8    0.00    0.05 
   4   1  -8   -0.04    0.04 
   3  -1  -8   21.94    0.84 
   3   1  -8   22.58    0.84 
  -3   1   8   23.18    0.86 
   2  -1  -8    0.32    0.05 
  -2  -1   8    0.22    0.05 
  -2   1   8    0.25    0.05 
   2   1  -8    0.27    0.05 
   1  -1  -8   28.88    0.97 
  -1  -1   8   26.16    1.00 
   1   1  -8   27.89    0.97 
  -1   1   8   26.53    1.00 
   0  -1  -8   65.09    2.23 
   0  -1   8   64.72    2.25 
   0  -1  -8   60.18    2.22 
   0   1   8   65.37    2.25 
   0   1  -8   62.37    2.23 
   0   1  -8   64.24    2.22 
  -1  -1  -8    5.53    0.25 
   1  -1   8    5.80    0.25 
  -1   1  -8    5.45    0.26 
  -1   1  -8    5.94    0.24 
   1   1   8    5.52    0.25 
  -2  -1  -8   10.15    0.42 
   2  -1   8    9.82    0.41 
   2   1   8    9.61    0.40 
  -2   1  -8   10.29    0.43 
  -3  -1  -8    0.12    0.08 
  -3   1  -8    0.33    0.09 
  -4  -1  -8    0.95    0.16 
  -4   1  -8    0.75    0.15 
   4  -2  -8    0.36    0.08 
   4   2  -8    0.30    0.07 
   3  -2  -8    0.13    0.07 
  -3   2   8    0.08    0.06 
   3   2  -8    0.28    0.06 
  -2  -2   8    0.02    0.03 
   2  -2  -8    0.08    0.04 
  -2   2   8    0.04    0.03 
   2   2  -8    0.04    0.03 
  -1  -2   8    0.09    0.04 
   1  -2  -8    0.10    0.03 
   1   2  -8    0.15    0.03 
   1   2  -8    0.11    0.03 
  -1   2   8    0.06    0.04 
   0  -2  -8   14.25    0.53 
   0  -2   8   14.58    0.55 
   0  -2  -8   14.53    0.54 
   0   2  -8   14.32    0.54 
   0   2   8   14.32    0.55 
   1  -2   8    8.05    0.34 
  -1  -2  -8    8.28    0.34 
  -1   2  -8    7.81    0.35 
   1   2   8    8.71    0.34 
  -2  -2  -8    0.25    0.08 
  -2   2  -8    0.14    0.08 
  -3  -2  -8   -0.05    0.07 
  -3   2  -8    0.10    0.08 
  -4  -2  -8    1.20    0.17 
  -4   2  -8    1.41    0.20 
   4  -3  -8    0.58    0.10 
   4   3  -8    0.60    0.09 
   3  -3  -8    2.04    0.15 
  -3   3   8    2.29    0.16 
   3   3  -8    2.01    0.14 
  -2  -3   8    0.56    0.08 
   2  -3  -8    0.50    0.07 
   2   3  -8    0.46    0.06 
  -2   3   8    0.42    0.07 
   1  -3  -8   27.09    0.90 
  -1  -3   8   24.93    0.93 
   1   3  -8   25.75    0.90 
  -1   3   8   24.94    0.94 
   1   3  -8   23.40    0.91 
   0  -3   8   24.29    0.89 
   0  -3  -8   24.25    0.87 
   0  -3  -8   23.25    0.85 
   0   3   8   24.82    0.89 
   0   3  -8   23.02    0.88 
  -1  -3  -8    4.99    0.22 
  -1   3  -8    4.60    0.23 
   1   3   8    4.73    0.22 
  -2  -3  -8    2.24    0.16 
  -2   3  -8    2.29    0.18 
  -3  -3  -8    1.62    0.16 
  -3   3  -8    1.60    0.17 
  -4  -3  -8    0.79    0.14 
  -4   3  -8    1.15    0.17 
   4  -4  -8   -0.02    0.05 
   4   4  -8    0.04    0.05 
   3  -4  -8    2.69    0.17 
  -3   4   8    2.80    0.19 
   3   4  -8    2.85    0.16 
  -2  -4   8   20.89    0.78 
   2  -4  -8   21.17    0.77 
   2   4  -8   20.67    0.76 
  -2   4   8   20.33    0.79 
   1  -4  -8   32.36    1.07 
   1  -4  -8   30.09    1.08 
  -1  -4   8   29.39    1.10 
   1   4  -8   27.42    1.08 
   1   4  -8   30.87    1.07 
  -1   4   8   30.13    1.11 
   0  -4   8   32.32    1.18 
   0  -4  -8   32.50    1.16 
   0  -4  -8   32.24    1.14 
   0   4  -8   33.18    1.14 
   0   4   8   32.55    1.18 
   0   4  -8   31.08    1.17 
  -1  -4  -8   40.97    1.45 
  -1   4  -8   40.99    1.48 
   1   4   8   40.19    1.46 
  -2  -4  -8    1.46    0.14 
  -2   4  -8    1.55    0.16 
  -3  -4  -8    0.14    0.08 
  -3   4  -8    0.09    0.08 
  -4  -4  -8    0.29    0.11 
  -4   4  -8    0.48    0.13 
   4  -5  -8   -0.03    0.06 
   4   5  -8   -0.01    0.05 
   3  -5  -8    1.40    0.13 
   3   5  -8    1.54    0.12 
  -3   5   8    1.65    0.15 
  -2  -5   8    7.36    0.33 
   2  -5  -8    7.75    0.32 
  -2   5   8    7.87    0.36 
   2   5  -8    7.63    0.32 
   2   5  -8    8.12    0.32 
   1  -5  -8  122.35    4.20 
  -1  -5   8  118.08    4.22 
   1  -5  -8  125.32    4.19 
   1   5  -8  122.21    4.18 
   1   5  -8  115.62    4.20 
  -1   5   8  120.24    4.23 
   0  -5  -8    7.40    0.30 
   0  -5  -8    6.82    0.28 
   0   5  -8    7.52    0.28 
   0   5  -8    6.90    0.31 
   0   5   8    7.36    0.31 
  -1  -5  -8    4.43    0.20 
  -1   5  -8    4.23    0.22 
   1   5   8    3.95    0.20 
  -2  -5  -8   12.65    0.51 
  -2   5  -8   12.51    0.53 
  -3  -5  -8    0.16    0.08 
  -3   5  -8    0.15    0.09 
  -4  -5  -8    0.56    0.13 
  -4   5  -8    0.60    0.14 
   4  -6  -8    0.35    0.09 
   4   6  -8    0.36    0.08 
   3  -6  -8    2.97    0.18 
   3   6  -8    2.81    0.17 
  -3   6   8    2.97    0.20 
   2  -6  -8   44.39    1.59 
  -2  -6   8   43.93    1.60 
  -2   6   8   44.85    1.63 
   2   6  -8   44.19    1.59 
   2   6  -8   45.44    1.59 
  -1  -6   8   14.71    0.58 
   1  -6  -8   14.40    0.57 
   1  -6  -8   14.85    0.55 
   1   6  -8   14.53    0.55 
   1   6  -8   15.92    0.58 
  -1   6   8   13.96    0.59 
   0  -6  -8    4.00    0.17 
   0  -6  -8    4.14    0.20 
   0   6   8    4.24    0.21 
   0   6  -8    3.74    0.20 
  -1  -6  -8   11.57    0.44 
   1  -6   8   10.91    0.42 
   1   6   8   10.82    0.45 
  -1   6  -8   11.55    0.47 
  -2  -6  -8    0.36    0.08 
  -2   6  -8    0.39    0.09 
  -3  -6  -8   -0.01    0.06 
  -3   6  -8    0.03    0.07 
  -4  -6  -8    0.23    0.11 
  -4   6  -8    0.23    0.11 
   4  -7  -8    0.04    0.07 
  -4   7   8    0.04    0.08 
   4   7  -8    0.08    0.06 
   3  -7  -8    0.04    0.05 
  -3   7   8    0.02    0.06 
   3   7  -8    0.02    0.04 
  -2  -7   8    3.53    0.19 
   2  -7  -8    3.45    0.18 
   2   7  -8    3.33    0.18 
   2   7  -8    3.36    0.17 
  -2   7   8    3.39    0.21 
   1  -7  -8    4.87    0.21 
  -1  -7   8    4.65    0.24 
   1  -7  -8    4.87    0.24 
   1   7  -8    4.80    0.21 
  -1   7   8    4.28    0.24 
   1   7  -8    4.65    0.24 
   0  -7  -8    0.51    0.08 
   0   7  -8    0.55    0.09 
   0   7   8    0.55    0.09 
  -1  -7  -8    2.47    0.14 
   1   7   8    2.12    0.14 
  -1   7  -8    2.39    0.17 
  -2  -7  -8    0.22    0.06 
  -2   7  -8    0.13    0.07 
  -3  -7  -8    0.01    0.07 
  -3   7  -8    0.17    0.09 
  -4  -7  -8    0.32    0.12 
  -4   7  -8    0.43    0.12 
   4  -8  -8    0.03    0.07 
   4   8  -8   -0.01    0.05 
  -4   8   8    0.10    0.08 
   3  -8  -8    0.21    0.07 
  -3   8   8   -0.06    0.07 
   3   8  -8    0.07    0.05 
   2  -8  -8    5.82    0.27 
   2   8  -8    6.27    0.28 
  -2   8   8    6.27    0.32 
   2   8  -8    5.80    0.26 
   1  -8  -8   10.13    0.43 
   1  -8  -8   10.40    0.41 
   1   8  -8   10.43    0.41 
   1   8  -8   10.89    0.44 
  -1   8   8   10.11    0.45 
   0  -8  -8    9.32    0.39 
   0   8  -8    9.67    0.41 
   0   8   8    9.51    0.41 
  -1  -8  -8    2.68    0.15 
  -1   8  -8    2.93    0.19 
   1   8   8    2.47    0.16 
  -2  -8  -8    0.31    0.08 
  -2   8  -8    0.31    0.09 
  -3  -8  -8    0.23    0.09 
  -3   8  -8    0.30    0.10 
   3  -9  -8    7.53    0.35 
  -3   9   8    7.74    0.38 
   3   9  -8    7.51    0.34 
   2  -9  -8    0.16    0.06 
  -2   9   8    0.13    0.06 
   2   9  -8    0.10    0.05 
   2   9  -8    0.17    0.05 
   1  -9  -8    8.37    0.34 
   1  -9  -8    8.11    0.36 
   1   9  -8    8.30    0.34 
   1   9  -8    8.60    0.37 
  -1   9   8    8.49    0.39 
   0  -9  -8    5.95    0.28 
   0   9  -8    6.07    0.30 
   0   9   8    6.01    0.29 
  -1  -9  -8    7.23    0.33 
   1   9   8    7.93    0.34 
  -1   9  -8    8.78    0.38 
  -2  -9  -8    8.09    0.37 
  -2   9  -8    8.77    0.41 
  -3  -9  -8    0.20    0.09 
  -3   9  -8    0.34    0.10 
   3 -10  -8    0.38    0.09 
  -3  10   8    0.60    0.12 
   3  10  -8    0.53    0.09 
   2 -10  -8    0.96    0.10 
   2  10  -8    0.90    0.09 
  -2  10   8    0.64    0.11 
   2  10  -8    0.77    0.11 
   1 -10  -8    0.06    0.08 
   1 -10  -8    0.13    0.05 
   1  10  -8    0.17    0.05 
  -1  10   8    0.15    0.06 
   1  10  -8    0.24    0.07 
   0 -10  -8    3.49    0.21 
   0  10  -8    3.90    0.22 
   0  10   8    3.54    0.21 
  -1 -10  -8    9.60    0.42 
   1  10   8    9.78    0.42 
  -1  10  -8   11.15    0.46 
  -2 -10  -8    0.29    0.08 
  -2  10  -8    0.12    0.07 
  -3 -10  -8    0.16    0.08 
  -3  10  -8    0.30    0.10 
   3 -11  -8    2.41    0.18 
  -3  11   8    2.73    0.22 
   3  11  -8    2.17    0.16 
   2 -11  -8    1.36    0.12 
   2  11  -8    1.24    0.13 
   2  11  -8    1.23    0.11 
  -2  11   8    1.15    0.15 
   1 -11  -8    6.26    0.28 
   1  11  -8    6.37    0.28 
  -1  11   8    6.11    0.32 
   1  11  -8    6.31    0.31 
   0 -11  -8    8.07    0.36 
   0  11   8    8.41    0.38 
   0  11  -8    8.60    0.39 
  -1 -11  -8    2.27    0.15 
   1  11   8    2.12    0.16 
  -1  11  -8    2.29    0.18 
  -2 -11  -8    0.93    0.12 
  -2  11  -8    0.79    0.13 
   2  11   8    0.79    0.12 
  -3 -11  -8    0.33    0.10 
  -3  11  -8    0.55    0.12 
  -3 -12   8    0.13    0.06 
   3 -12  -8   -0.08    0.05 
   3  12  -8   -0.03    0.07 
   3  12  -8    0.03    0.05 
  -3  12   8   -0.05    0.08 
   2 -12  -8    0.96    0.12 
   2  12  -8    0.85    0.10 
  -2  12   8    0.46    0.11 
   2  12  -8    1.13    0.14 
   1 -12  -8    0.51    0.08 
  -1  12   8    0.37    0.09 
   1  12  -8    0.49    0.10 
   0  12   8   -0.05    0.05 
   0  12  -8    0.01    0.05 
   1 -12   8    0.02    0.04 
  -1 -12  -8    0.03    0.05 
   1  12   8    0.02    0.06 
  -1  12  -8    0.00    0.06 
  -2 -12  -8    0.03    0.07 
   2  12   8    0.02    0.08 
  -2  12  -8    0.19    0.08 
  -3 -12  -8   -0.03    0.08 
  -3  12  -8    0.06    0.08 
   2 -13  -8    0.03    0.05 
   2  13  -8   -0.03    0.06 
   2  13  -8    0.12    0.05 
  -2  13   8    0.09    0.07 
   1 -13  -8    1.67    0.14 
   1  13  -8    2.21    0.17 
  -1  13   8    1.93    0.18 
   0  13  -8    0.97    0.14 
   0  13   8    0.53    0.10 
   1 -13   8    0.04    0.05 
  -1 -13  -8    0.14    0.08 
  -1  13  -8    0.07    0.06 
   2 -13   8    1.42    0.14 
  -2 -13  -8    1.60    0.17 
  -2  13  -8    2.05    0.19 
   2  13   8    1.76    0.18 
   2 -14  -8    0.45    0.09 
   2  14  -8    0.59    0.12 
   2  14  -8    0.57    0.09 
  -2  14   8    0.36    0.11 
   1 -14  -8    0.01    0.05 
  -1  14   8    0.05    0.08 
   1  14  -8    0.16    0.07 
   0  14  -8    0.95    0.14 
   0  14   8    0.60    0.11 
   1 -14   8    3.01    0.19 
  -1  14  -8    2.92    0.22 
  -2 -14  -8    0.04    0.08 
   2 -14   8    0.08    0.06 
  -2  14  -8    0.05    0.07 
   2  14   8   -0.01    0.09 
   2 -15  -8    1.27    0.14 
  -2  15   8    1.08    0.17 
   1 -15  -8    4.78    0.26 
  -1  15   8    5.07    0.31 
   1  15  -8    5.27    0.30 
   0  15  -8    4.19    0.27 
   0  15   8    4.12    0.26 
   1 -15   8    2.64    0.19 
  -1  15  -8    2.75    0.21 
   1 -16  -8    0.17    0.07 
  -1  16   8    0.08    0.08 
   0  16  -8    0.04    0.07 
   1 -16   8    0.20    0.08 
   4   0  -9    0.00    0.05 
  -3   0   9    0.01    0.04 
   3   0  -9    0.01    0.04 
   2   0  -9   -0.05    0.03 
  -2   0   9   -0.04    0.03 
  -1   0   9    0.01    0.03 
   1   0  -9    0.01    0.02 
   0   0  -9    0.01    0.04 
   0   0   9   -0.01    0.03 
   0   0  -9    0.03    0.04 
  -1   0  -9   -0.01    0.05 
  -1   0  -9   -0.03    0.05 
   1   0   9   -0.01    0.03 
  -2   0  -9   -0.04    0.07 
   2   0   9    0.00    0.04 
  -3   0  -9   -0.05    0.07 
  -4   0  -9   -0.08    0.08 
   4  -1  -9    0.73    0.11 
   4   1  -9    0.71    0.10 
   3  -1  -9   -0.01    0.05 
   3   1  -9    0.07    0.05 
  -3   1   9    0.00    0.04 
   2  -1  -9   18.97    0.69 
  -2  -1   9   18.86    0.72 
  -2   1   9   18.36    0.72 
   2   1  -9   18.22    0.69 
   1  -1  -9    0.09    0.03 
  -1  -1   9    0.05    0.03 
   1   1  -9    0.05    0.02 
  -1   1   9    0.05    0.04 
   0  -1   9   21.24    0.79 
   0  -1  -9   20.38    0.76 
   0  -1  -9   21.13    0.77 
   0   1  -9   20.54    0.77 
   0   1   9   21.71    0.79 
   0   1  -9   21.33    0.77 
   1  -1   9    0.12    0.04 
  -1  -1  -9    0.16    0.05 
  -1  -1  -9    0.08    0.06 
  -1   1  -9    0.09    0.05 
  -1   1  -9    0.19    0.07 
   1   1   9    0.17    0.05 
   2  -1   9    0.98    0.11 
  -2  -1  -9    1.01    0.14 
   2   1   9    1.24    0.11 
  -2   1  -9    1.15    0.15 
  -3  -1  -9    1.21    0.15 
  -3   1  -9    1.02    0.14 
  -4  -1  -9    0.66    0.13 
  -4   1  -9    0.52    0.13 
   4  -2  -9    0.71    0.11 
   4   2  -9    0.49    0.09 
   3  -2  -9    8.12    0.35 
  -3   2   9    8.22    0.37 
   3   2  -9    7.77    0.34 
   2  -2  -9    0.87    0.09 
  -2  -2   9    1.01    0.11 
   2   2  -9    0.98    0.09 
  -2   2   9    1.06    0.11 
   1  -2  -9    5.15    0.20 
  -1  -2   9    4.63    0.23 
   1   2  -9    4.85    0.20 
  -1   2   9    4.68    0.24 
   0  -2  -9   22.37    0.81 
   0  -2   9   22.05    0.83 
   0   2  -9   20.45    0.82 
   0   2   9   23.74    0.84 
   0   2  -9   22.76    0.81 
  -1  -2  -9    5.81    0.26 
   1  -2   9    6.05    0.27 
  -1   2  -9    5.96    0.28 
   1   2   9    5.84    0.26 
   2  -2   9   48.39    1.74 
  -2  -2  -9   48.97    1.75 
  -2   2  -9   47.95    1.76 
  -3  -2  -9    2.29    0.19 
  -3   2  -9    2.38    0.20 
  -4  -2  -9    0.96    0.16 
  -4   2  -9    0.94    0.17 
   4  -3  -9    0.21    0.07 
   4   3  -9    0.22    0.07 
   3  -3  -9    2.37    0.16 
   3   3  -9    2.58    0.16 
  -3   3   9    2.76    0.19 
  -2  -3   9   32.83    1.19 
   2  -3  -9   32.10    1.17 
  -2   3   9   32.37    1.20 
   2   3  -9   32.31    1.16 
  -1  -3   9    1.90    0.13 
   1  -3  -9    2.05    0.11 
  -1   3   9    2.20    0.14 
   1   3  -9    1.93    0.11 
   1   3  -9    2.10    0.10 
   0  -3   9   65.91    2.28 
   0  -3  -9   61.08    2.24 
   0  -3  -9   66.02    2.25 
   0   3   9   64.06    2.27 
   0   3  -9   63.30    2.26 
  -1  -3  -9    0.32    0.07 
   1   3   9    0.38    0.07 
  -1   3  -9    0.27    0.07 
  -2  -3  -9   13.93    0.55 
  -2   3  -9   12.85    0.56 
  -3  -3  -9    0.39    0.10 
  -3   3  -9    0.50    0.12 
  -4  -3  -9    0.64    0.13 
  -4   3  -9    0.61    0.14 
   4  -4  -9    0.05    0.06 
   4   4  -9    0.04    0.05 
   3  -4  -9    0.72    0.10 
  -3   4   9    1.08    0.14 
   3   4  -9    0.94    0.10 
   2  -4  -9    0.60    0.08 
  -2  -4   9    0.58    0.09 
   2   4  -9    0.62    0.07 
  -2   4   9    0.67    0.10 
  -1  -4   9    0.24    0.07 
   1  -4  -9    0.44    0.09 
   1  -4  -9    0.51    0.06 
  -1   4   9    0.58    0.09 
   1   4  -9    0.36    0.06 
   1   4  -9    0.30    0.05 
   0  -4  -9   12.75    0.48 
   0  -4   9   12.22    0.50 
   0   4  -9   11.82    0.49 
   0   4   9   12.83    0.50 
   0   4  -9   12.18    0.45 
  -1  -4  -9    0.87    0.10 
   1   4   9    0.98    0.09 
  -1   4  -9    0.91    0.12 
  -2  -4  -9    3.76    0.22 
  -2   4  -9    3.87    0.23 
  -3  -4  -9    1.00    0.14 
  -3   4  -9    0.85    0.14 
  -4  -4  -9    0.07    0.09 
  -4   4  -9    0.28    0.11 
   4  -5  -9    0.16    0.07 
   4   5  -9    0.08    0.06 
   3  -5  -9    0.25    0.07 
  -3   5   9    0.12    0.06 
   3   5  -9    0.38    0.07 
   2  -5  -9    7.18    0.30 
  -2  -5   9    6.91    0.32 
   2   5  -9    6.98    0.29 
  -2   5   9    6.77    0.33 
   1  -5  -9    0.53    0.06 
  -1  -5   9    0.41    0.08 
   1  -5  -9    0.32    0.09 
   1   5  -9    0.39    0.05 
  -1   5   9    0.33    0.07 
   1   5  -9    0.31    0.06 
   0  -5   9    0.68    0.09 
   0  -5  -9    0.37    0.08 
   0   5   9    0.21    0.06 
   0   5  -9    0.36    0.07 
  -1  -5  -9    0.67    0.09 
   1   5   9    0.68    0.09 
  -1   5  -9    0.68    0.10 
  -2  -5  -9    0.12    0.06 
  -2   5  -9   -0.01    0.06 
  -3  -5  -9    0.33    0.10 
  -3   5  -9    0.42    0.11 
  -4  -5  -9    0.26    0.11 
  -4   5  -9    0.27    0.11 
   4  -6  -9    1.31    0.15 
   4   6  -9    1.27    0.13 
   3  -6  -9    2.79    0.18 
   3   6  -9    2.72    0.17 
  -3   6   9    2.82    0.21 
  -2  -6   9    1.04    0.11 
   2  -6  -9    1.05    0.10 
   2   6  -9    1.09    0.09 
  -2   6   9    0.93    0.12 
   1  -6  -9    2.57    0.13 
  -1  -6   9    2.42    0.16 
   1  -6  -9    2.36    0.18 
  -1   6   9    2.27    0.17 
   1   6  -9    2.20    0.15 
   1   6  -9    2.57    0.13 
   0  -6  -9   11.31    0.45 
   0   6   9   11.36    0.47 
   0   6  -9   10.76    0.46 
  -1  -6  -9    0.00    0.05 
   1   6   9   -0.01    0.03 
  -1   6  -9    0.02    0.06 
  -2  -6  -9   12.33    0.51 
  -2   6  -9   12.71    0.54 
  -3  -6  -9    0.08    0.07 
  -3   6  -9    0.14    0.08 
   4  -7  -9    0.55    0.11 
   4   7  -9    0.90    0.12 
  -4   7   9    0.45    0.11 
   3  -7  -9    8.17    0.37 
   3   7  -9    7.82    0.36 
  -3   7   9    8.61    0.40 
   2  -7  -9    5.13    0.24 
  -2  -7   9    5.39    0.26 
   2   7  -9    4.93    0.23 
  -2   7   9    5.17    0.28 
   1  -7  -9   11.40    0.46 
  -1  -7   9   11.43    0.47 
   1  -7  -9   11.04    0.43 
   1   7  -9   11.18    0.43 
   1   7  -9   10.72    0.46 
  -1   7   9   11.23    0.48 
   0  -7  -9  110.57    3.80 
   0   7   9  108.67    3.82 
   0   7  -9  106.69    3.82 
  -1  -7  -9    0.45    0.07 
   1   7   9    0.49    0.08 
  -1   7  -9    0.75    0.11 
  -2  -7  -9    1.29    0.13 
  -2   7  -9    1.09    0.14 
  -3  -7  -9    0.21    0.08 
  -3   7  -9    0.35    0.10 
   3  -8  -9    1.01    0.13 
   3   8  -9    1.06    0.11 
  -3   8   9    1.04    0.16 
   2  -8  -9    0.92    0.10 
   2   8  -9    0.99    0.09 
  -2   8   9    0.85    0.12 
   2   8  -9    0.93    0.10 
   1  -8  -9    1.02    0.09 
  -1  -8   9    1.06    0.12 
   1  -8  -9    1.09    0.12 
   1   8  -9    1.11    0.09 
  -1   8   9    0.88    0.12 
   1   8  -9    0.93    0.11 
   0  -8  -9    3.90    0.22 
   0   8   9    3.74    0.22 
   0   8  -9    3.94    0.23 
  -1  -8  -9    0.58    0.08 
  -1   8  -9    0.68    0.11 
   1   8   9    0.60    0.09 
  -2  -8  -9    8.75    0.39 
  -2   8  -9    8.87    0.42 
  -3  -8  -9    1.89    0.18 
  -3   8  -9    2.36    0.20 
   3  -9  -9    0.55    0.09 
   3   9  -9    0.67    0.10 
  -3   9   9    0.63    0.12 
   2  -9  -9    0.79    0.10 
   2   9  -9    0.78    0.10 
  -2   9   9    0.76    0.12 
   2   9  -9    0.77    0.09 
   1  -9  -9    0.16    0.05 
   1  -9  -9    0.16    0.08 
   1   9  -9    0.14    0.04 
   1   9  -9    0.10    0.05 
  -1   9   9    0.08    0.05 
   0  -9  -9    1.09    0.13 
   0   9  -9    1.32    0.13 
   0   9   9    1.18    0.13 
  -1  -9  -9    3.33    0.18 
  -1   9  -9    3.43    0.22 
  -2  -9  -9    2.26    0.17 
  -2   9  -9    2.38    0.19 
  -3  -9  -9   -0.05    0.07 
  -3   9  -9    0.03    0.06 
   3 -10  -9    0.07    0.06 
   3  10  -9    0.16    0.06 
  -3  10   9    0.09    0.07 
   2 -10  -9    0.67    0.09 
   2  10  -9    0.77    0.09 
   2  10  -9    0.82    0.11 
  -2  10   9    0.54    0.11 
   1 -10  -9    0.04    0.04 
   1 -10  -9    0.00    0.08 
  -1  10   9   -0.01    0.05 
   1  10  -9   -0.01    0.03 
   1  10  -9    0.00    0.05 
   0 -10  -9    7.76    0.37 
   0  10   9    8.64    0.38 
   0  10  -9    8.37    0.39 
  -1 -10  -9    1.54    0.13 
   1  10   9    1.60    0.14 
  -1  10  -9    1.64    0.16 
  -2 -10  -9    0.03    0.06 
  -2  10  -9    0.00    0.06 
  -3 -10  -9    0.04    0.08 
  -3  10  -9    0.01    0.07 
   3 -11  -9    0.19    0.07 
   3  11  -9    0.08    0.06 
  -3  11   9    0.05    0.08 
   2 -11  -9    5.68    0.28 
   2  11  -9    5.96    0.28 
  -2  11   9    5.90    0.33 
   2  11  -9    6.19    0.31 
   1 -11  -9    0.08    0.05 
   1  11  -9    0.03    0.04 
   1  11  -9    0.03    0.05 
  -1  11   9    0.06    0.06 
   0 -11  -9    8.51    0.38 
   0  11   9    8.21    0.39 
   0  11  -9    8.87    0.40 
  -1 -11  -9    0.05    0.08 
   1 -11   9    0.08    0.05 
  -1  11  -9    0.02    0.06 
  -2 -11  -9    0.28    0.08 
  -2  11  -9    0.40    0.11 
  -3 -11  -9   -0.01    0.08 
  -3  11  -9    0.22    0.09 
   3 -12  -9    0.20    0.08 
   3  12  -9    0.37    0.08 
  -3  12   9    0.20    0.10 
   2 -12  -9    0.68    0.10 
   2  12  -9    1.03    0.11 
  -2  12   9    0.54    0.11 
   2  12  -9    0.80    0.12 
   1 -12  -9    1.70    0.13 
  -1  12   9    1.61    0.16 
   1  12  -9    2.31    0.17 
   0 -12  -9    4.82    0.27 
   0  12   9    5.08    0.28 
   0  12  -9    5.16    0.28 
   1 -12   9    0.05    0.05 
  -1 -12  -9    0.19    0.10 
  -1  12  -9    0.28    0.09 
  -2 -12  -9    4.01    0.25 
  -2  12  -9    4.70    0.28 
   2 -13  -9    3.15    0.20 
   2  13  -9    3.45    0.22 
   2  13  -9    3.09    0.19 
  -2  13   9    2.67    0.23 
  -1  13   9    3.56    0.25 
   1  13  -9    4.09    0.25 
   0  13  -9    1.67    0.16 
   0  13   9    1.32    0.15 
   1 -13   9    0.10    0.06 
  -1 -13  -9    0.23    0.10 
  -1  13  -9    0.15    0.08 
  -2 -13  -9    2.18    0.20 
  -2  13  -9    2.86    0.22 
   2 -14  -9    0.08    0.07 
   2  14  -9    0.07    0.05 
  -2  14   9   -0.01    0.07 
   2  14  -9    0.05    0.07 
   1  14  -9    0.04    0.07 
  -1  14   9    0.15    0.08 
   0  14   9    0.32    0.09 
   0  14  -9    0.26    0.09 
   1 -14   9    0.03    0.06 
  -1  14  -9    0.08    0.07 
  -2 -14  -9    0.15    0.09 
   2  14   9   -0.02    0.09 
  -1  15   9    0.12    0.08 
   1  15  -9    0.11    0.08 
   0  15  -9    0.03    0.07 
   0  15   9   -0.02    0.07 
   1 -15   9   -0.01    0.05 
  -1  15  -9    0.07    0.07 
   4   0 -10    0.11    0.06 
   3   0 -10    0.06    0.05 
  -3   0  10   -0.03    0.04 
   2   0 -10   66.44    2.36 
  -2   0  10   68.16    2.41 
  -1   0  10    5.87    0.28 
   1   0 -10    5.62    0.23 
   0   0  10   41.89    1.47 
   0   0 -10   37.74    1.44 
   0   0 -10   41.78    1.44 
  -1   0 -10   24.09    0.89 
  -1   0 -10   24.12    0.87 
   1   0  10   23.29    0.89 
  -2   0 -10    2.15    0.18 
   2   0  10    2.28    0.15 
  -3   0 -10    5.31    0.30 
  -4   0 -10    0.33    0.12 
   4  -1 -10    4.10    0.24 
   4   1 -10    4.28    0.24 
   3  -1 -10    0.89    0.11 
  -3  -1  10    0.97    0.12 
   3   1 -10    1.09    0.11 
  -3   1  10    1.09    0.13 
   2  -1 -10    4.70    0.22 
  -2  -1  10    5.04    0.25 
  -2   1  10    4.50    0.25 
   2   1 -10    4.68    0.21 
  -1  -1  10    2.36    0.15 
   1  -1 -10    2.34    0.12 
   1   1 -10    2.41    0.11 
  -1   1  10    2.51    0.16 
   0  -1  10    5.89    0.27 
   0  -1 -10    5.67    0.25 
   0   1 -10    4.98    0.24 
   0   1 -10    5.64    0.25 
   0   1  10    5.62    0.26 
  -1  -1 -10   21.82    0.81 
  -1  -1 -10   22.07    0.82 
   1  -1  10   21.81    0.82 
  -1   1 -10   21.82    0.83 
  -1   1 -10   21.53    0.80 
   1   1  10   21.90    0.82 
   2  -1  10   10.44    0.44 
  -2  -1 -10   10.19    0.45 
  -2   1 -10   10.55    0.46 
   2   1  10   10.22    0.44 
  -3  -1 -10    0.31    0.10 
  -3   1 -10    0.31    0.11 
  -4  -1 -10   -0.05    0.09 
  -4   1 -10    0.11    0.10 
   4  -2 -10   -0.20    0.05 
   4   2 -10   -0.08    0.05 
   3  -2 -10    0.51    0.08 
   3   2 -10    0.58    0.09 
  -3   2  10    0.60    0.10 
   2  -2 -10    1.77    0.12 
  -2  -2  10    2.09    0.15 
   2   2 -10    2.12    0.12 
  -2   2  10    1.72    0.15 
  -1  -2  10    0.68    0.09 
   1   2 -10    0.75    0.06 
  -1   2  10    0.62    0.09 
   0  -2 -10    0.04    0.06 
   0  -2  10   -0.03    0.04 
   0   2 -10    0.10    0.05 
   0   2 -10    0.03    0.05 
   0   2  10    0.01    0.04 
   1  -2  10    1.34    0.12 
  -1  -2 -10    1.20    0.13 
  -1  -2 -10    1.36    0.12 
   1   2  10    1.07    0.11 
  -1   2 -10    1.26    0.13 
   2  -2  10    2.40    0.16 
  -2  -2 -10    2.27    0.17 
  -2   2 -10    2.03    0.18 
  -3  -2 -10    0.05    0.08 
  -3   2 -10    0.07    0.08 
  -4  -2 -10    0.33    0.12 
  -4   2 -10    0.34    0.12 
   4  -3 -10    0.49    0.10 
   4   3 -10    0.69    0.10 
   3  -3 -10    0.02    0.05 
   3   3 -10    0.07    0.04 
  -3   3  10    0.09    0.06 
   2  -3 -10    1.63    0.12 
  -2  -3  10    1.73    0.14 
  -2   3  10    1.59    0.14 
   2   3 -10    1.76    0.11 
  -1  -3  10   10.38    0.43 
  -1   3  10   10.70    0.44 
   1   3 -10    9.82    0.38 
   0  -3  10    5.00    0.25 
   0  -3 -10    5.00    0.24 
   0   3 -10    5.03    0.22 
   0   3  10    5.22    0.25 
   0   3 -10    4.57    0.23 
  -1  -3 -10    0.39    0.07 
  -1  -3 -10    0.35    0.08 
   1  -3  10    0.33    0.07 
  -1   3 -10    0.46    0.09 
   1   3  10    0.31    0.07 
  -2  -3 -10    0.96    0.13 
  -2   3 -10    1.01    0.15 
  -3  -3 -10    0.26    0.09 
  -3   3 -10    0.25    0.10 
  -4  -3 -10    0.10    0.10 
  -4   3 -10    0.18    0.11 
   4  -4 -10    0.10    0.06 
   4   4 -10   -0.02    0.05 
   3  -4 -10    0.01    0.05 
  -3   4  10    0.01    0.05 
   3   4 -10    0.05    0.05 
   2  -4 -10    9.34    0.37 
  -2  -4  10    9.19    0.40 
  -2   4  10    9.04    0.41 
   2   4 -10    9.26    0.37 
  -1  -4  10    0.03    0.05 
   1  -4 -10    0.08    0.08 
   1   4 -10    0.16    0.04 
  -1   4  10    0.12    0.06 
   1   4 -10    0.06    0.04 
   0  -4  10   76.40    2.67 
   0  -4 -10   75.20    2.65 
   0   4  10   75.05    2.67 
   0   4 -10   74.59    2.66 
  -1  -4 -10    8.22    0.37 
  -1  -4 -10    9.08    0.36 
   1   4  10    8.19    0.37 
  -1   4 -10    8.62    0.39 
  -2  -4 -10    0.10    0.07 
  -2   4 -10    0.13    0.08 
  -3  -4 -10    2.14    0.19 
  -3   4 -10    1.96    0.19 
   4  -5 -10    3.98    0.24 
   4   5 -10    4.24    0.24 
   3  -5 -10    0.13    0.06 
  -3   5  10    0.15    0.07 
   3   5 -10    0.08    0.05 
   2  -5 -10   19.50    0.73 
  -2  -5  10   19.96    0.76 
   2   5 -10   19.50    0.73 
  -2   5  10   19.09    0.77 
   1  -5 -10   27.89    1.00 
  -1  -5  10   27.56    1.02 
   1   5 -10   26.90    0.97 
  -1   5  10   27.78    1.03 
   1   5 -10   25.04    0.99 
   0  -5  10   33.11    1.25 
   0  -5 -10   34.03    1.23 
   0   5 -10   34.75    1.24 
   0   5  10   33.52    1.25 
  -1  -5 -10   11.48    0.46 
  -1  -5 -10   11.44    0.47 
   1   5  10   10.97    0.47 
  -1   5 -10   11.92    0.49 
  -2  -5 -10    8.47    0.38 
  -2   5 -10    8.35    0.40 
  -3  -5 -10    0.64    0.12 
  -3   5 -10    0.62    0.12 
   4  -6 -10    0.00    0.08 
  -4   6  10    0.05    0.08 
   4   6 -10   -0.01    0.05 
   3  -6 -10    0.16    0.06 
  -3   6  10    0.10    0.07 
   3   6 -10    0.23    0.07 
   2  -6 -10    2.11    0.14 
  -2  -6  10    2.26    0.16 
   2   6 -10    2.08    0.13 
  -2   6  10    2.21    0.18 
  -1  -6  10   30.39    1.11 
   1  -6 -10   30.37    1.09 
  -1   6  10   28.63    1.11 
   1   6 -10   30.48    1.06 
   1   6 -10   28.54    1.09 
   0  -6 -10   29.55    1.07 
   0  -6  10   29.41    1.09 
   0   6  10   29.15    1.09 
   0   6 -10   28.00    1.08 
  -1  -6 -10    0.64    0.11 
  -1  -6 -10    0.63    0.09 
  -1   6 -10    0.66    0.11 
   1   6  10    0.60    0.09 
  -2  -6 -10    1.92    0.16 
  -2   6 -10    2.35    0.19 
  -3  -6 -10    1.09    0.15 
  -3   6 -10    1.16    0.16 
   3  -7 -10    0.08    0.06 
   3   7 -10    0.10    0.05 
  -3   7  10    0.10    0.08 
  -2  -7  10    0.67    0.10 
   2  -7 -10    0.62    0.08 
   2   7 -10    0.65    0.08 
  -2   7  10    0.50    0.10 
  -1  -7  10    2.24    0.16 
   1  -7 -10    2.43    0.18 
   1   7 -10    2.50    0.16 
  -1   7  10    2.22    0.17 
   1   7 -10    2.26    0.12 
   0  -7 -10    0.37    0.09 
   0   7  10    0.76    0.11 
   0   7 -10    0.51    0.09 
  -1  -7 -10    5.90    0.28 
  -1  -7 -10    5.39    0.26 
   1   7  10    5.57    0.27 
  -1   7 -10    5.80    0.29 
  -2  -7 -10   -0.02    0.06 
  -2   7 -10    0.08    0.07 
  -3  -7 -10    0.06    0.08 
  -3   7 -10    0.22    0.09 
   3  -8 -10    0.09    0.06 
   3   8 -10    0.07    0.05 
  -3   8  10   -0.04    0.06 
   2  -8 -10    4.10    0.21 
  -2  -8  10    4.48    0.24 
  -2   8  10    4.24    0.26 
   2   8 -10    4.15    0.21 
  -1  -8  10    0.12    0.06 
   1  -8 -10    0.23    0.09 
  -1   8  10    0.25    0.08 
   1   8 -10    0.18    0.05 
   1   8 -10    0.34    0.08 
   0  -8 -10    0.00    0.07 
   0   8 -10   -0.01    0.05 
   0   8  10   -0.04    0.05 
  -1  -8 -10    0.22    0.08 
  -1   8 -10    0.09    0.07 
   1   8  10    0.02    0.06 
  -2  -8 -10    1.57    0.15 
  -2   8 -10    1.78    0.18 
  -3  -8 -10    1.22    0.15 
  -3   8 -10    1.35    0.17 
   3  -9 -10    0.01    0.06 
   3   9 -10   -0.02    0.04 
  -3   9  10    0.03    0.07 
   2  -9 -10    0.92    0.11 
   2   9 -10    0.82    0.09 
  -2   9  10    0.67    0.13 
  -1  -9  10    3.51    0.22 
   1  -9 -10    3.50    0.23 
  -1   9  10    3.35    0.22 
   1   9 -10    3.95    0.22 
   1   9 -10    3.54    0.18 
   0  -9 -10    1.66    0.16 
   0   9 -10    1.61    0.15 
   0   9  10    1.68    0.15 
  -1  -9 -10   11.14    0.49 
  -1   9 -10   12.19    0.52 
  -2  -9 -10    4.15    0.25 
  -2   9 -10    4.56    0.28 
  -3  -9 -10    0.06    0.08 
  -3   9 -10    0.08    0.08 
   3 -10 -10    0.46    0.09 
   3  10 -10    0.52    0.09 
  -3  10  10    0.43    0.11 
   2 -10 -10    9.28    0.39 
  -2  10  10    8.76    0.44 
   2  10 -10    9.29    0.39 
  -1 -10  10    0.48    0.11 
   1 -10 -10    0.59    0.11 
   1  10 -10    0.51    0.07 
   1  10 -10    0.40    0.09 
  -1  10  10    0.41    0.09 
   0 -10 -10   13.26    0.56 
   0  10 -10   14.18    0.58 
   0  10  10   13.82    0.58 
  -1 -10 -10    2.83    0.21 
  -1  10 -10    2.75    0.20 
  -2 -10 -10    1.96    0.16 
  -2  10 -10    2.03    0.19 
  -3 -10 -10    0.92    0.15 
  -3  10 -10    1.46    0.17 
   3 -11 -10    1.90    0.17 
  -3  11  10    1.74    0.21 
   3  11 -10    2.12    0.16 
   2 -11 -10    1.11    0.12 
  -2  11  10    0.69    0.12 
   2  11 -10    0.69    0.10 
   2  11 -10    0.63    0.11 
   1 -11 -10    0.05    0.09 
   1  11 -10    0.08    0.06 
  -1  11  10    0.03    0.06 
   0 -11 -10    0.28    0.10 
   0  11 -10    0.27    0.08 
   0  11  10    0.31    0.08 
  -1 -11 -10    0.10    0.09 
  -1  11 -10    0.13    0.08 
  -2 -11 -10   -0.06    0.06 
  -2  11 -10    0.24    0.09 
  -3 -11 -10   -0.03    0.09 
   2 -12 -10    0.15    0.06 
  -2  12  10    0.16    0.08 
   2  12 -10    0.13    0.07 
   2  12 -10    0.14    0.05 
   1  12 -10    0.15    0.08 
  -1  12  10    0.19    0.09 
   0 -12 -10   -0.03    0.08 
   0  12 -10    0.04    0.06 
   0  12  10    0.03    0.06 
  -1 -12 -10    0.50    0.11 
  -1  12 -10    0.45    0.11 
  -2 -12 -10    0.19    0.09 
  -2  12 -10    0.26    0.09 
   2 -13 -10    0.30    0.08 
  -2  13  10    0.17    0.09 
   2  13 -10    0.20    0.09 
   2  13 -10    0.25    0.06 
  -1  13  10    0.76    0.14 
   1  13 -10    1.06    0.15 
   0  13 -10    0.13    0.07 
   0  13  10   -0.01    0.06 
  -1 -13 -10    0.20    0.11 
  -1  13 -10    0.35    0.10 
  -1  14  10    0.15    0.08 
   1  14 -10    0.05    0.07 
   0  14  10    5.25    0.31 
   0  14 -10    6.32    0.34 
  -1 -14 -10    1.99    0.21 
  -1  14 -10    1.63    0.18 
  -1  15  10    1.12    0.17 
   0  15 -10   -0.03    0.07 
   4   0 -11   -0.08    0.05 
   3   0 -11    0.02    0.04 
  -3   0  11   -0.02    0.05 
   2   0 -11   -0.02    0.03 
  -2   0  11    0.03    0.05 
  -1   0  11    0.00    0.04 
   0   0 -11    0.05    0.06 
   0   0  11    0.03    0.04 
  -1   0 -11    0.09    0.06 
   1   0  11    0.00    0.04 
  -1   0 -11    0.05    0.07 
  -2   0 -11   -0.06    0.06 
   2   0  11    0.01    0.04 
  -3   0 -11   -0.02    0.08 
   4  -1 -11   -0.10    0.06 
   4   1 -11    0.10    0.06 
   3  -1 -11    0.69    0.09 
  -3  -1  11    0.65    0.11 
   3   1 -11    0.90    0.11 
  -3   1  11    0.72    0.11 
   2  -1 -11    1.90    0.12 
  -2  -1  11    2.17    0.16 
   2   1 -11    1.84    0.12 
  -2   1  11    2.10    0.16 
  -1  -1  11    2.82    0.19 
  -1   1  11    3.33    0.19 
   0  -1 -11    4.22    0.22 
   0  -1  11    4.24    0.22 
   0   1 -11    4.26    0.21 
   0   1 -11    3.92    0.20 
   0   1  11    4.27    0.22 
   1  -1  11    0.81    0.11 
  -1  -1 -11    0.89    0.12 
  -1  -1 -11    0.82    0.10 
  -1   1 -11    0.88    0.13 
  -1   1 -11    0.98    0.12 
   1   1  11    0.99    0.11 
   2  -1  11    0.14    0.05 
  -2  -1 -11    0.08    0.07 
  -2   1 -11    0.12    0.08 
  -3  -1 -11    3.70    0.26 
  -3   1 -11    3.93    0.26 
   4  -2 -11    7.27    0.34 
   4   2 -11    6.62    0.33 
   3  -2 -11    0.04    0.05 
   3   2 -11    0.03    0.04 
  -3   2  11   -0.02    0.05 
  -2  -2  11    1.50    0.14 
   2  -2 -11    1.41    0.11 
   2   2 -11    1.52    0.10 
  -2   2  11    1.60    0.14 
  -1  -2  11   38.67    1.45 
  -1   2  11   40.62    1.46 
   0  -2  11    0.91    0.11 
   0  -2 -11    1.19    0.13 
   0   2  11    1.19    0.12 
   0   2 -11    1.44    0.13 
   0   2 -11    1.16    0.11 
  -1  -2 -11   50.69    1.74 
   1  -2  11   48.49    1.76 
  -1  -2 -11   48.69    1.75 
   1   2  11   48.28    1.76 
  -1   2 -11   47.60    1.76 
   2  -2  11    0.22    0.07 
  -2  -2 -11    0.13    0.08 
  -2   2 -11    0.30    0.09 
  -3  -2 -11    1.46    0.18 
  -3   2 -11    1.43    0.18 
   4  -3 -11    0.03    0.07 
   4   3 -11    0.03    0.06 
   3  -3 -11    3.03    0.18 
  -3   3  11    2.77    0.21 
   3   3 -11    2.72    0.17 
  -2  -3  11    6.43    0.32 
   2  -3 -11    6.51    0.28 
  -2   3  11    6.62    0.32 
   2   3 -11    6.21    0.27 
  -1  -3  11    1.77    0.14 
  -1   3  11    1.74    0.15 
   0  -3  11    0.01    0.05 
   0  -3 -11    0.10    0.07 
   0   3  11    0.08    0.05 
   0   3 -11    0.09    0.06 
  -1  -3 -11    7.18    0.32 
  -1  -3 -11    7.34    0.32 
   1  -3  11    7.01    0.33 
   1   3  11    6.90    0.33 
  -1   3 -11    7.00    0.34 
   2  -3  11    0.13    0.06 
  -2  -3 -11    0.08    0.07 
  -2   3 -11    0.22    0.09 
  -3  -3 -11    8.24    0.41 
  -3   3 -11    8.30    0.42 
   4  -4 -11    1.50    0.16 
   4   4 -11    1.95    0.15 
   3  -4 -11    0.14    0.06 
   3   4 -11    0.09    0.05 
  -3   4  11    0.17    0.07 
  -2  -4  11    2.83    0.19 
   2  -4 -11    2.73    0.16 
   2   4 -11    2.77    0.15 
  -2   4  11    2.84    0.20 
  -1  -4  11    0.31    0.07 
  -1   4  11    0.35    0.08 
   0  -4  11    3.05    0.19 
   0  -4 -11    3.10    0.19 
   0   4  11    3.30    0.19 
   0   4 -11    3.00    0.18 
   1  -4  11   12.24    0.50 
  -1  -4 -11   11.72    0.48 
  -1  -4 -11   12.15    0.49 
   1   4  11   11.55    0.49 
  -1   4 -11   11.89    0.50 
  -2  -4 -11    0.53    0.10 
  -2   4 -11    0.47    0.11 
  -3  -4 -11    1.78    0.18 
  -3   4 -11    1.88    0.20 
   3  -5 -11    1.94    0.15 
  -3   5  11    1.99    0.19 
   3   5 -11    1.71    0.14 
  -2  -5  11    0.06    0.05 
   2  -5 -11    0.11    0.05 
  -2   5  11    0.11    0.06 
   2   5 -11    0.11    0.04 
  -1  -5  11    1.60    0.14 
   1  -5 -11    1.54    0.16 
  -1   5  11    1.50    0.14 
   1   5 -11    1.74    0.10 
   0  -5 -11    0.82    0.11 
   0  -5  11    0.57    0.10 
   0   5  11    0.51    0.09 
   0   5 -11    0.70    0.10 
  -1  -5 -11    1.10    0.12 
  -1  -5 -11    1.43    0.15 
   1  -5  11    1.32    0.14 
  -1   5 -11    1.39    0.14 
   1   5  11    1.18    0.13 
  -2  -5 -11    0.52    0.10 
  -2   5 -11    0.54    0.11 
  -3  -5 -11    0.80    0.14 
  -3   5 -11    0.94    0.16 
   3  -6 -11   -0.02    0.05 
  -3   6  11    0.02    0.07 
   3   6 -11    0.00    0.04 
   2  -6 -11    2.31    0.15 
  -2  -6  11    2.65    0.18 
  -2   6  11    2.32    0.18 
   2   6 -11    2.17    0.14 
  -1  -6  11    5.53    0.27 
   1  -6 -11    5.04    0.27 
  -1   6  11    4.99    0.28 
   0  -6  11    0.48    0.09 
   0  -6 -11    0.70    0.11 
   0   6  11    0.50    0.09 
   0   6 -11    0.48    0.09 
  -1  -6 -11   22.79    0.85 
  -1   6 -11   22.55    0.87 
   1   6  11   21.21    0.85 
  -2  -6 -11    0.24    0.08 
  -2   6 -11    0.21    0.09 
  -3  -6 -11    0.53    0.12 
  -3   6 -11    0.38    0.11 
   3  -7 -11    1.18    0.13 
  -3   7  11    0.82    0.14 
   3   7 -11    1.15    0.11 
  -2  -7  11    6.25    0.31 
   2  -7 -11    6.32    0.28 
  -2   7  11    5.72    0.32 
   2   7 -11    5.70    0.26 
  -1  -7  11    2.75    0.18 
   1  -7 -11    2.44    0.19 
   1   7 -11    2.40    0.17 
  -1   7  11    2.32    0.18 
   1   7 -11    2.59    0.14 
   0  -7 -11    1.80    0.16 
   0  -7  11    1.94    0.16 
   0   7  11    1.94    0.16 
   0   7 -11    1.65    0.14 
  -1  -7 -11   12.47    0.50 
  -1   7 -11   12.47    0.52 
   1   7  11   11.00    0.50 
  -2  -7 -11    0.02    0.07 
  -2   7 -11    0.13    0.08 
  -3  -7 -11    2.84    0.22 
  -3   7 -11    3.51    0.25 
   3  -8 -11    0.24    0.08 
   3   8 -11    0.27    0.07 
  -3   8  11    0.17    0.09 
  -2  -8  11    7.87    0.38 
  -2   8  11    7.77    0.40 
   2   8 -11    8.25    0.34 
  -1  -8  11    3.72    0.23 
   1  -8 -11    3.88    0.24 
   1   8 -11    4.06    0.23 
  -1   8  11    3.79    0.24 
   1   8 -11    3.70    0.18 
   0  -8 -11    0.31    0.09 
   0   8  11    0.37    0.09 
   0   8 -11    0.31    0.09 
  -1  -8 -11   24.17    0.96 
  -1   8 -11   26.37    0.99 
  -2  -8 -11    0.78    0.12 
  -2   8 -11    1.27    0.16 
  -3  -8 -11    1.19    0.16 
  -3   8 -11    1.52    0.19 
   3  -9 -11    0.05    0.06 
   3   9 -11    0.01    0.05 
  -3   9  11    0.02    0.08 
  -2   9  11   -0.01    0.06 
   2   9 -11   -0.06    0.04 
  -1  -9  11    0.69    0.12 
   1  -9 -11    0.68    0.12 
  -1   9  11    0.65    0.11 
   1   9 -11    0.59    0.10 
   1   9 -11    0.69    0.08 
   0  -9 -11    0.13    0.08 
   0   9 -11    0.18    0.07 
   0   9  11    0.07    0.05 
  -1  -9 -11    3.22    0.23 
  -1   9 -11    2.93    0.21 
  -2  -9 -11    1.86    0.17 
  -2   9 -11    2.22    0.20 
  -3  -9 -11    0.75    0.14 
  -3   9 -11    0.84    0.16 
   3 -10 -11   -0.01    0.06 
   3  10 -11    0.01    0.06 
  -3  10  11    0.00    0.08 
   2  10 -11    0.21    0.06 
  -2  10  11    0.28    0.09 
  -1 -10  11    0.74    0.13 
   1 -10 -11    0.72    0.12 
   1  10 -11    0.74    0.11 
   1  10 -11    0.59    0.08 
  -1  10  11    0.54    0.11 
   0 -10 -11    0.43    0.10 
   0  10 -11    0.25    0.08 
   0  10  11    0.17    0.07 
  -1 -10 -11    0.15    0.10 
  -1  10 -11    0.43    0.11 
  -2 -10 -11    0.98    0.14 
  -2  10 -11    1.20    0.17 
  -3 -10 -11   -0.08    0.08 
   2  11 -11    0.19    0.06 
  -2  11  11    0.20    0.08 
  -1 -11  11    1.82    0.18 
   1 -11 -11    2.04    0.20 
   1  11 -11    1.70    0.16 
  -1  11  11    1.68    0.18 
   0 -11 -11    0.40    0.10 
   0  11  11    0.38    0.09 
   0  11 -11    0.55    0.10 
  -1 -11 -11    3.20    0.24 
  -1  11 -11    3.67    0.24 
  -2  11 -11   -0.01    0.07 
  -2  12  11    0.25    0.10 
   2  12 -11    0.29    0.07 
  -1 -12  11    8.14    0.40 
  -1  12  11    6.76    0.38 
   1  12 -11    8.06    0.38 
   0 -12 -11    1.85    0.18 
   0  12  11    1.45    0.16 
   0  12 -11    1.33    0.15 
  -1 -12 -11    4.22    0.28 
  -1  12 -11    4.68    0.28 
  -2  12 -11   -0.02    0.08 
   2  13 -11   -0.03    0.05 
  -2  13  11    0.04    0.07 
  -1 -13  11    0.28    0.11 
   1  13 -11    0.26    0.09 
  -1  13  11    0.23    0.09 
   0 -13 -11    1.00    0.14 
   0  13 -11    0.94    0.14 
   0  13  11    0.71    0.13 
  -1 -13 -11    0.26    0.11 
  -1  13 -11    0.21    0.09 
  -1 -14  11    0.02    0.08 
   1  14 -11    0.00    0.07 
  -1  14  11   -0.04    0.06 
   0  14  11    2.13    0.20 
   0  14 -11    2.36    0.21 
  -1 -14 -11    0.25    0.13 
   3   0 -12   20.49    0.78 
  -3   0  12   20.83    0.83 
  -2   0  12    0.29    0.08 
  -1   0  12    7.84    0.37 
   0   0  12    4.21    0.23 
   0   0 -12    4.46    0.22 
  -1   0 -12    2.00    0.15 
   1   0  12    1.80    0.15 
  -1   0 -12    1.78    0.15 
  -2   0 -12   11.45    0.46 
   2   0  12   10.79    0.48 
  -2   0 -12   11.31    0.50 
  -3   0 -12    1.86    0.20 
   3  -1 -12   -0.01    0.05 
  -3  -1  12    0.16    0.07 
   3   1 -12    0.01    0.05 
  -3   1  12   -0.01    0.08 
  -2  -1  12    1.07    0.13 
   2   1 -12    0.96    0.09 
  -2   1  12    1.18    0.14 
  -1  -1  12   30.96    1.18 
  -1   1  12   32.20    1.19 
   0  -1  12    1.30    0.13 
   0  -1 -12    1.37    0.14 
   0   1 -12    1.36    0.13 
   0   1  12    1.21    0.13 
  -1  -1 -12    7.11    0.31 
   1  -1  12    7.04    0.33 
  -1  -1 -12    6.66    0.32 
  -1   1 -12    7.00    0.30 
  -1   1 -12    6.95    0.33 
   1   1  12    7.04    0.33 
   2  -1  12    1.19    0.13 
  -2  -1 -12    1.16    0.16 
  -2   1 -12    1.17    0.16 
  -2   1 -12    1.58    0.14 
  -3  -1 -12    1.16    0.17 
  -3   1 -12    1.06    0.16 
   3  -2 -12    0.77    0.10 
  -3  -2  12    0.91    0.14 
  -3   2  12    0.77    0.13 
   3   2 -12    0.73    0.10 
  -2  -2  12    0.00    0.04 
   2   2 -12    0.07    0.04 
  -2   2  12    0.10    0.06 
  -1  -2  12    2.03    0.15 
  -1   2  12    1.65    0.16 
   0  -2 -12    1.80    0.15 
   0  -2  12    1.93    0.15 
   0   2 -12    1.74    0.15 
   0   2  12    1.81    0.15 
  -1  -2 -12    0.07    0.07 
   1  -2  12   -0.01    0.04 
  -1  -2 -12   -0.03    0.06 
  -1   2 -12    0.11    0.07 
   1   2  12    0.02    0.05 
   2  -2  12    4.10    0.24 
  -2  -2 -12    4.34    0.26 
  -2   2 -12    4.30    0.26 
  -3  -2 -12    0.31    0.11 
  -3   2 -12    0.56    0.13 
   3  -3 -12   -0.09    0.05 
  -3   3  12    0.05    0.07 
   3   3 -12   -0.05    0.04 
  -2  -3  12   -0.02    0.05 
  -2   3  12    0.05    0.05 
   2   3 -12    0.00    0.03 
  -1  -3  12    1.93    0.15 
  -1   3  12    2.15    0.17 
   0  -3  12    1.01    0.12 
   0  -3 -12    1.23    0.13 
   0   3  12    0.93    0.12 
   0   3 -12    1.04    0.11 
  -1  -3 -12   17.56    0.68 
   1  -3  12   16.85    0.69 
   1   3  12   17.35    0.69 
  -1   3 -12   18.11    0.70 
  -2  -3 -12    0.22    0.09 
   2  -3  12    0.13    0.07 
  -2   3 -12    0.20    0.09 
  -3  -3 -12    0.44    0.12 
  -3   3 -12    0.50    0.13 
   3  -4 -12   10.71    0.45 
  -3   4  12   11.16    0.50 
   3   4 -12   10.09    0.44 
  -2  -4  12    1.40    0.14 
  -2   4  12    1.23    0.15 
   2   4 -12    1.10    0.10 
  -1  -4  12   19.64    0.77 
  -1   4  12   19.19    0.78 
   0  -4  12   17.19    0.69 
   0  -4 -12   17.04    0.66 
   0   4 -12   17.80    0.68 
   0   4  12   17.07    0.69 
   1  -4  12   10.94    0.48 
  -1  -4 -12   11.39    0.47 
  -1   4 -12   10.87    0.48 
   1   4  12   11.40    0.48 
  -2  -4 -12    1.00    0.14 
   2  -4  12    1.27    0.14 
  -2   4 -12    1.20    0.16 
  -3  -4 -12    0.43    0.12 
  -3   4 -12    0.69    0.14 
   3  -5 -12    0.10    0.06 
  -3   5  12    0.17    0.09 
   3   5 -12    0.21    0.07 
  -2  -5  12    0.03    0.05 
   2   5 -12    0.00    0.04 
  -2   5  12   -0.01    0.05 
  -1  -5  12   14.54    0.60 
   1  -5 -12   14.19    0.57 
  -1   5  12   13.95    0.60 
   0  -5  12    4.89    0.26 
   0  -5 -12    4.64    0.25 
   0   5  12    4.73    0.26 
   0   5 -12    4.52    0.24 
  -1  -5 -12   15.26    0.60 
   1  -5  12   14.61    0.62 
  -1   5 -12   15.31    0.62 
   1   5  12   14.72    0.61 
   2  -5  12    0.32    0.09 
  -2  -5 -12    0.43    0.10 
  -2   5 -12    0.51    0.11 
  -3  -5 -12    0.09    0.09 
  -3   5 -12    0.20    0.10 
   3  -6 -12    6.71    0.32 
   3   6 -12    6.51    0.31 
  -3   6  12    6.73    0.37 
  -2  -6  12    0.94    0.13 
   2   6 -12    0.77    0.09 
  -2   6  12    0.93    0.14 
   1  -6 -12    9.82    0.43 
  -1  -6  12    9.91    0.44 
  -1   6  12    9.69    0.45 
   0  -6 -12    0.27    0.09 
   0  -6  12    0.16    0.07 
   0   6  12    0.17    0.07 
   0   6 -12    0.23    0.07 
  -1  -6 -12    1.38    0.17 
   1  -6  12    1.57    0.16 
  -1   6 -12    1.45    0.15 
   1   6  12    1.30    0.14 
  -2  -6 -12    1.98    0.17 
  -2   6 -12    2.56    0.21 
  -3  -6 -12    0.39    0.12 
  -3   6 -12    0.44    0.13 
   3  -7 -12    0.06    0.06 
   3   7 -12   -0.04    0.05 
  -3   7  12   -0.02    0.07 
  -2  -7  12    0.14    0.07 
   2   7 -12    0.13    0.05 
  -2   7  12    0.08    0.07 
   1  -7 -12    0.64    0.12 
  -1  -7  12    0.55    0.10 
  -1   7  12    0.48    0.10 
   0  -7 -12    5.86    0.29 
   0  -7  12    5.66    0.30 
   0   7 -12    5.78    0.29 
   0   7  12    6.03    0.31 
  -1  -7 -12    4.01    0.25 
  -1   7 -12    3.93    0.24 
   1   7  12    3.65    0.23 
  -2  -7 -12    0.82    0.13 
  -2   7 -12    1.13    0.16 
  -3  -7 -12   -0.07    0.08 
  -3   7 -12    0.11    0.10 
   3  -8 -12    3.04    0.20 
   3   8 -12    2.63    0.17 
  -3   8  12    2.53    0.24 
  -2  -8  12    0.05    0.06 
   2   8 -12    0.10    0.05 
  -2   8  12    0.04    0.07 
   1  -8 -12    0.98    0.14 
  -1  -8  12    1.08    0.13 
  -1   8  12    0.85    0.13 
   0  -8  12    0.48    0.10 
   0  -8 -12    0.73    0.11 
   0   8  12    0.48    0.10 
   0   8 -12    0.69    0.12 
  -1  -8 -12    0.01    0.09 
  -1   8 -12    0.10    0.08 
  -2  -8 -12    7.13    0.37 
  -2   8 -12    8.35    0.41 
  -3  -8 -12    1.21    0.17 
   3  -9 -12   -0.13    0.06 
  -3   9  12    0.02    0.09 
   3   9 -12    0.09    0.06 
  -2  -9  12    0.02    0.06 
  -2   9  12   -0.03    0.06 
   2   9 -12   -0.04    0.04 
   1  -9 -12    6.83    0.34 
  -1  -9  12    6.55    0.34 
   1   9 -12    6.59    0.34 
  -1   9  12    6.04    0.34 
   0  -9  12    0.47    0.10 
   0  -9 -12    0.56    0.11 
   0   9 -12    0.39    0.09 
   0   9  12    0.36    0.09 
  -1  -9 -12    1.92    0.20 
  -1   9 -12    2.07    0.18 
  -2   9 -12    0.70    0.14 
  -2  10  12    1.24    0.17 
   2  10 -12    1.04    0.11 
  -1 -10  12    1.83    0.19 
   1 -10 -12    2.34    0.21 
   1  10 -12    2.15    0.17 
  -1  10  12    1.76    0.18 
   0 -10 -12    0.58    0.11 
   0  10  12    0.58    0.12 
   0  10 -12    0.63    0.11 
  -1 -10 -12    0.17    0.10 
  -1  10 -12    0.14    0.08 
  -2  10 -12    2.37    0.22 
  -2  11  12    2.51    0.23 
   2  11 -12    2.99    0.18 
  -1 -11  12    2.64    0.22 
   1 -11 -12    2.64    0.23 
   1  11 -12    2.75    0.20 
  -1  11  12    2.47    0.22 
   0 -11 -12    0.06    0.09 
   0  11 -12   -0.04    0.06 
   0  11  12    0.05    0.06 
  -1 -11 -12    1.60    0.18 
  -1  11 -12    1.33    0.16 
  -2  11 -12    0.08    0.09 
  -2  12  12    0.53    0.13 
   2  12 -12    0.59    0.09 
   1 -12 -12   -0.10    0.10 
  -1 -12  12   -0.01    0.08 
  -1  12  12   -0.01    0.06 
   1  12 -12    0.05    0.07 
   0 -12 -12    0.01    0.10 
   0  12 -12    0.23    0.09 
   0  12  12    0.15    0.08 
  -1 -12 -12    0.22    0.12 
  -1  12 -12    0.27    0.10 
  -1 -13  12    0.12    0.10 
   1  13 -12    0.23    0.09 
  -1  13  12    0.06    0.08 
   0 -13 -12   -0.01    0.11 
   0  13  12    0.07    0.07 
   0  13 -12    0.22    0.09 
  -1 -13 -12    2.49    0.24 
  -1  13 -12    2.45    0.22 
   0  14  12    1.90    0.20 
   3   0 -13   -0.08    0.04 
  -3   0  13   -0.06    0.06 
  -2   0  13    0.02    0.06 
  -1   0  13    0.01    0.05 
   0   0  13   -0.04    0.04 
   0   0 -13   -0.04    0.06 
   1   0  13   -0.02    0.04 
  -1   0 -13   -0.02    0.06 
  -1   0 -13   -0.01    0.06 
  -2   0 -13    0.05    0.08 
  -2   0 -13    0.06    0.07 
   2   0  13   -0.07    0.05 
  -3   0 -13    0.01    0.08 
  -3  -1  13    4.39    0.28 
   3  -1 -13    4.36    0.23 
   3   1 -13    3.95    0.22 
  -3   1  13    4.81    0.29 
  -2  -1  13    0.55    0.11 
  -2   1  13    0.57    0.11 
  -1  -1  13    2.08    0.17 
  -1   1  13    2.13    0.17 
   0  -1  13   11.13    0.48 
   0  -1 -13   10.65    0.45 
   0   1  13   11.23    0.48 
   0   1 -13   10.97    0.45 
   1  -1  13    1.06    0.12 
  -1  -1 -13    1.02    0.12 
  -1   1 -13    1.01    0.12 
  -1   1 -13    1.12    0.13 
   1   1  13    1.02    0.12 
   2  -1  13    9.32    0.43 
  -2  -1 -13    9.15    0.44 
  -2  -1 -13    9.78    0.41 
  -2   1 -13    9.26    0.44 
  -3  -1 -13   -0.03    0.08 
  -3   1 -13    0.05    0.09 
   3  -2 -13    0.10    0.06 
  -3  -2  13   -0.02    0.08 
   3   2 -13    0.03    0.06 
  -3   2  13    0.00    0.06 
  -2  -2  13    8.09    0.39 
  -2   2  13    7.69    0.39 
  -1  -2  13    2.28    0.18 
  -1   2  13    2.27    0.18 
   0  -2  13    5.72    0.29 
   0  -2 -13    5.26    0.27 
   0   2  13    5.47    0.29 
   0   2 -13    5.62    0.26 
   1  -2  13    0.40    0.09 
  -1  -2 -13    0.69    0.10 
  -1   2 -13    0.55    0.10 
   1   2  13    0.49    0.09 
   2  -2  13    1.73    0.16 
  -2  -2 -13    2.11    0.17 
  -2  -2 -13    1.14    0.15 
  -2   2 -13    1.59    0.18 
  -3  -2 -13    0.11    0.10 
  -3   2 -13    0.09    0.09 
  -3   3  13    9.14    0.44 
   3   3 -13    8.67    0.38 
  -2  -3  13    0.00    0.05 
  -2   3  13    0.04    0.06 
  -1  -3  13    5.32    0.29 
  -1   3  13    5.43    0.30 
   0  -3 -13    6.60    0.31 
   0  -3  13    6.82    0.33 
   0   3  13    6.72    0.34 
   1  -3  13    1.47    0.15 
  -1  -3 -13    1.71    0.16 
   1   3  13    1.64    0.15 
  -1   3 -13    1.74    0.16 
   2  -3  13   14.36    0.60 
  -2  -3 -13   15.13    0.59 
  -2  -3 -13   13.65    0.60 
  -2   3 -13   14.04    0.61 
  -3  -3 -13   -0.04    0.09 
  -3   3 -13    0.14    0.10 
   3   4 -13   -0.03    0.05 
  -3   4  13    0.07    0.08 
  -2  -4  13    0.08    0.07 
  -2   4  13    0.14    0.08 
  -1  -4  13    0.71    0.12 
  -1   4  13    0.91    0.13 
   0  -4 -13    6.57    0.31 
   0  -4  13    6.60    0.33 
   0   4  13    6.60    0.33 
  -1  -4 -13   -0.02    0.07 
   1  -4  13    0.04    0.06 
  -1   4 -13    0.15    0.07 
   1   4  13    0.09    0.06 
  -2  -4 -13    2.33    0.20 
   2  -4  13    2.68    0.21 
  -2  -4 -13    2.97    0.21 
  -2   4 -13    2.76    0.22 
  -3  -4 -13    0.00    0.09 
  -3   4 -13    0.24    0.10 
   3   5 -13    0.20    0.06 
  -3   5  13    0.04    0.07 
  -2  -5  13    0.20    0.08 
  -2   5  13    0.10    0.07 
  -1  -5  13    0.11    0.06 
  -1   5  13    0.13    0.07 
   0  -5 -13    0.02    0.07 
   0  -5  13    0.03    0.05 
   0   5  13   -0.02    0.05 
   1  -5  13    3.44    0.23 
  -1  -5 -13    3.71    0.23 
  -1   5 -13    3.60    0.23 
   1   5  13    3.52    0.22 
  -2  -5 -13    1.18    0.16 
   2  -5  13    1.49    0.17 
  -2  -5 -13    1.99    0.18 
  -2   5 -13    1.38    0.18 
  -3  -5 -13   -0.05    0.08 
  -3   5 -13    0.07    0.09 
   3   6 -13    0.29    0.07 
  -3   6  13    0.35    0.11 
  -2  -6  13    4.51    0.27 
  -2   6  13    3.97    0.27 
   1  -6 -13    2.74    0.21 
  -1  -6  13    2.51    0.19 
  -1   6  13    2.41    0.20 
   0  -6  13    2.60    0.19 
   0  -6 -13    2.75    0.20 
   0   6  13    2.52    0.19 
   0   6 -13    2.68    0.18 
   1  -6  13    0.11    0.07 
  -1  -6 -13    0.01    0.08 
  -1   6 -13    0.23    0.08 
   1   6  13    0.11    0.06 
  -2  -6 -13    1.67    0.17 
   2  -6  13    1.10    0.16 
  -2   6 -13    0.98    0.15 
  -3  -6 -13    0.17    0.10 
  -3   6 -13    0.27    0.11 
  -3   7  13    7.38    0.40 
   3   7 -13    7.00    0.33 
  -2  -7  13    0.65    0.12 
  -2   7  13    0.53    0.13 
   1  -7 -13    5.71    0.30 
  -1  -7  13    6.00    0.31 
  -1   7  13    5.22    0.31 
   0  -7  13    6.98    0.36 
   0  -7 -13    7.23    0.35 
   0   7 -13    8.01    0.36 
   0   7  13    6.95    0.37 
   1  -7  13    0.81    0.13 
  -1  -7 -13    0.84    0.13 
   1   7  13    0.72    0.12 
  -1   7 -13    0.92    0.14 
  -2  -7 -13    6.48    0.34 
  -2   7 -13    6.74    0.36 
  -3  -7 -13   -0.04    0.09 
  -2  -8  13    0.41    0.10 
  -2   8  13    0.30    0.10 
   1  -8 -13    0.93    0.14 
  -1  -8  13    0.77    0.14 
  -1   8  13    0.64    0.13 
   0  -8  13    1.43    0.16 
   0  -8 -13    1.23    0.15 
   0   8 -13    1.55    0.15 
   0   8  13    1.26    0.15 
   1  -8  13    0.44    0.10 
  -1  -8 -13    0.56    0.12 
  -1   8 -13    0.36    0.10 
  -2  -8 -13    0.55    0.13 
  -2   8 -13    0.51    0.11 
  -2  -9  13   -0.02    0.06 
  -2   9  13    0.02    0.07 
  -1  -9  13    1.80    0.18 
   1  -9 -13    1.98    0.20 
  -1   9  13    1.49    0.17 
   0  -9 -13    0.18    0.10 
   0  -9  13    0.10    0.07 
   0   9  13    0.10    0.07 
   0   9 -13    0.25    0.09 
  -1  -9 -13    0.00    0.09 
  -1   9 -13    0.05    0.07 
  -2  -9 -13    3.72    0.27 
  -2   9 -13    3.68    0.26 
   2  10 -13    0.38    0.08 
  -2  10  13    0.32    0.11 
   1 -10 -13    2.21    0.23 
  -1 -10  13    2.36    0.21 
  -1  10  13    2.38    0.21 
   0 -10 -13    1.84    0.19 
   0 -10  13    1.89    0.19 
   0  10 -13    1.86    0.17 
   0  10  13    1.92    0.18 
  -1 -10 -13   -0.06    0.09 
  -1  10 -13    0.02    0.06 
  -2 -10 -13    1.71    0.20 
  -2  10 -13    1.80    0.20 
  -2  11  13   -0.02    0.07 
   2  11 -13    0.06    0.05 
   1 -11 -13    0.83    0.15 
  -1 -11  13    0.94    0.15 
  -1  11  13    0.72    0.13 
   0 -11 -13    3.15    0.24 
   0 -11  13    3.15    0.25 
   0  11 -13    3.61    0.24 
   0  11  13    2.66    0.22 
  -1 -11 -13    0.09    0.11 
  -1  11 -13    0.31    0.10 
  -1 -12  13    0.16    0.09 
  -1  12  13    0.13    0.09 
   0 -12 -13    0.48    0.13 
   0 -12  13    0.49    0.13 
   0  12  13    0.45    0.11 
   0  12 -13    0.41    0.11 
  -1 -12 -13    0.38    0.14 
  -1  12 -13    0.40    0.11 
   0 -13 -13    1.61    0.19 
   0  13 -13    1.44    0.17 
   0  13  13    1.58    0.18 
  -3   0  14    1.71    0.19 
  -2   0  14    0.08    0.08 
  -1   0  14    2.70    0.20 
   0   0 -14   14.94    0.59 
   0   0  14   15.01    0.63 
  -1   0 -14    1.29    0.14 
   1   0  14    1.22    0.14 
  -2   0 -14    3.13    0.23 
  -2   0 -14    3.19    0.21 
  -3   0 -14    0.09    0.10 
  -3  -1  14    0.28    0.10 
  -3   1  14    0.21    0.10 
  -2  -1  14   17.37    0.73 
  -2   1  14   17.25    0.73 
  -1  -1  14    0.35    0.10 
  -1   1  14    0.29    0.08 
   0  -1 -14    4.79    0.24 
   0  -1  14    4.29    0.26 
   0   1 -14    4.66    0.24 
   0   1  14    4.24    0.26 
  -1  -1 -14    0.18    0.08 
   1  -1  14    0.02    0.05 
   1   1  14    0.03    0.05 
  -1   1 -14   -0.03    0.06 
  -2  -1 -14    0.11    0.08 
   2  -1  14    0.03    0.06 
  -2  -1 -14   -0.01    0.07 
  -2   1 -14    0.02    0.08 
  -2   1 -14   -0.07    0.07 
  -3  -1 -14    3.95    0.29 
  -3   1 -14    3.77    0.28 
  -3  -2  14    0.14    0.09 
  -3   2  14    0.12    0.08 
  -2  -2  14    0.04    0.07 
  -2   2  14   -0.05    0.07 
  -1  -2  14    0.14    0.07 
  -1   2  14    0.18    0.08 
   0  -2  14    3.72    0.23 
   0  -2 -14    3.45    0.22 
   0   2  14    3.67    0.23 
  -1  -2 -14    0.19    0.08 
   1  -2  14    0.10    0.07 
   1   2  14    0.10    0.06 
   2  -2  14    0.87    0.13 
  -2  -2 -14    0.91    0.15 
  -2  -2 -14    1.07    0.14 
  -2   2 -14    0.85    0.14 
  -3  -2 -14    0.45    0.13 
  -3   2 -14    0.47    0.13 
  -3   3  14    0.04    0.08 
  -2  -3  14    3.74    0.25 
  -2   3  14    3.69    0.26 
  -1  -3  14    1.86    0.17 
  -1   3  14    1.94    0.18 
   0  -3 -14    2.74    0.19 
   0  -3  14    2.61    0.19 
   0   3  14    2.19    0.19 
   1  -3  14    6.03    0.32 
  -1  -3 -14    5.72    0.30 
   1   3  14    6.24    0.32 
  -1   3 -14    6.03    0.31 
  -2  -3 -14    2.80    0.22 
   2  -3  14    2.86    0.21 
  -2  -3 -14    2.51    0.21 
  -2   3 -14    2.57    0.21 
  -3  -3 -14    0.10    0.09 
  -3   3 -14    0.11    0.10 
  -3   4  14    0.37    0.11 
  -2  -4  14    0.59    0.13 
  -2   4  14    0.62    0.13 
  -1  -4  14    0.00    0.05 
  -1   4  14    0.01    0.06 
   0  -4  14    7.67    0.39 
   0  -4 -14    8.04    0.37 
   0   4  14    8.31    0.40 
   1  -4  14    0.23    0.08 
  -1  -4 -14    0.25    0.09 
  -1   4 -14    0.23    0.08 
   1   4  14    0.16    0.08 
  -2  -4 -14    4.55    0.28 
   2  -4  14    4.91    0.29 
  -2   4 -14    4.96    0.30 
  -3  -4 -14    0.05    0.10 
  -3   4 -14    0.24    0.12 
  -3   5  14    0.03    0.08 
  -2  -5  14   23.29    0.93 
  -2   5  14   22.52    0.93 
  -1  -5  14    0.22    0.08 
  -1   5  14    0.11    0.07 
   0  -5 -14   12.09    0.51 
   0  -5  14   12.30    0.54 
   0   5  14   12.38    0.55 
   1  -5  14    0.61    0.11 
  -1  -5 -14    0.40    0.11 
  -1   5 -14    0.63    0.11 
   1   5  14    0.32    0.09 
   2  -5  14    0.11    0.08 
  -2  -5 -14    0.29    0.10 
  -2   5 -14    0.13    0.09 
  -3  -5 -14    0.64    0.14 
  -2  -6  14    0.11    0.07 
  -2   6  14    0.05    0.08 
  -1  -6  14    1.96    0.18 
  -1   6  14    2.03    0.19 
   0  -6  14    0.68    0.11 
   0  -6 -14    0.70    0.12 
   0   6  14    0.62    0.12 
  -1  -6 -14    0.25    0.10 
   1  -6  14    0.29    0.09 
   1   6  14    0.25    0.08 
  -1   6 -14    0.23    0.08 
   2  -6  14    1.98    0.20 
  -2  -6 -14    2.19    0.21 
  -2   6 -14    2.29    0.21 
  -2  -7  14    0.11    0.07 
  -2   7  14   -0.02    0.07 
  -1  -7  14    1.26    0.16 
  -1   7  14    1.20    0.16 
   0  -7  14    0.44    0.11 
   0  -7 -14    0.46    0.11 
   0   7  14    0.37    0.10 
  -1  -7 -14    0.12    0.10 
   1  -7  14    0.01    0.06 
  -1   7 -14    0.04    0.07 
   2  -7  14    0.02    0.08 
  -2  -7 -14    0.16    0.10 
  -2   7 -14    0.26    0.10 
  -2  -8  14    0.10    0.07 
  -2   8  14    0.03    0.08 
  -1  -8  14    0.06    0.07 
  -1   8  14   -0.04    0.07 
   0  -8 -14    2.90    0.22 
   0  -8  14    2.97    0.22 
   0   8  14    2.48    0.21 
   1  -8  14    1.54    0.17 
  -1  -8 -14    1.44    0.18 
  -1   8 -14    1.79    0.17 
   2  -8  14   -0.03    0.07 
  -2  -8 -14   -0.01    0.10 
  -2   8 -14    0.01    0.07 
  -2  -9  14    7.50    0.39 
  -2   9  14    6.97    0.41 
  -1  -9  14    0.26    0.10 
  -1   9  14   -0.01    0.07 
   0  -9 -14    3.37    0.24 
   0  -9  14    2.89    0.24 
   0   9  14    3.02    0.23 
   0   9 -14    3.30    0.22 
   1  -9  14    0.19    0.10 
  -1  -9 -14    0.10    0.11 
  -1   9 -14    0.30    0.10 
  -2  -9 -14   -0.06    0.11 
  -2   9 -14    0.09    0.08 
  -1 -10  14    1.85    0.19 
  -1  10  14    1.80    0.19 
   0 -10  14    1.58    0.19 
   0 -10 -14    1.45    0.18 
   0  10  14    1.51    0.17 
   0  10 -14    1.67    0.17 
  -1 -10 -14   -0.02    0.10 
   1 -10  14    0.01    0.08 
  -1  10 -14    0.07    0.07 
  -1 -11  14    0.17    0.09 
  -1  11  14    0.13    0.09 
   0 -11 -14    0.06    0.12 
   0 -11  14    0.03    0.09 
   0  11 -14    0.07    0.08 
   0  11  14    0.15    0.08 
  -1 -11 -14    0.26    0.13 
  -1  11 -14    0.31    0.10 
   0 -12  14   -0.05    0.08 
   0 -12 -14   -0.14    0.11 
   0  12  14    0.09    0.08 
   0  12 -14   -0.08    0.06 
  -3   0  15   -0.01    0.08 
  -2   0  15   -0.01    0.07 
  -1   0  15    0.01    0.06 
   0   0  15    0.02    0.06 
   0   0 -15    0.06    0.07 
  -1   0 -15   -0.04    0.07 
   1   0  15    0.00    0.05 
  -2   0 -15    0.00    0.07 
  -2   0 -15    0.06    0.08 
  -3  -1  15    0.15    0.09 
  -3   1  15    0.08    0.09 
  -2  -1  15   -0.12    0.07 
  -2   1  15    0.00    0.07 
  -1  -1  15    5.27    0.31 
  -1   1  15    4.88    0.30 
   0  -1 -15    0.35    0.10 
   0  -1  15    0.33    0.09 
   0   1  15    0.38    0.10 
   0   1 -15    0.36    0.09 
   1  -1  15    0.41    0.10 
  -1  -1 -15    0.35    0.09 
  -1   1 -15    0.46    0.09 
   1   1  15    0.51    0.10 
  -2  -1 -15   -0.05    0.07 
   2  -1  15   -0.02    0.05 
  -2   1 -15   -0.05    0.07 
  -2   1 -15    0.06    0.08 
  -3  -2  15    2.39    0.23 
  -3   2  15    1.91    0.22 
  -2  -2  15   11.02    0.53 
  -2   2  15   11.25    0.53 
  -1  -2  15    1.12    0.16 
  -1   2  15    1.11    0.16 
   0  -2 -15    8.56    0.38 
   0  -2  15    8.72    0.42 
   0   2  15    8.59    0.42 
  -1  -2 -15    3.44    0.23 
   1  -2  15    3.85    0.25 
   1   2  15    3.94    0.25 
  -1   2 -15    3.30    0.21 
  -2  -2 -15    0.20    0.09 
   2  -2  15    0.04    0.07 
  -2   2 -15    0.14    0.09 
  -2  -3  15    0.06    0.08 
  -2   3  15    0.00    0.08 
  -1  -3  15    4.99    0.29 
  -1   3  15    4.35    0.29 
   0  -3 -15    0.38    0.10 
   0  -3  15    0.23    0.08 
   0   3  15    0.44    0.10 
  -1  -3 -15    6.15    0.32 
   1  -3  15    7.04    0.36 
   1   3  15    6.59    0.35 
  -2  -3 -15    0.48    0.12 
   2  -3  15    0.58    0.12 
  -2   3 -15    0.87    0.14 
  -2  -4  15    0.85    0.15 
  -2   4  15    1.03    0.17 
  -1  -4  15    0.57    0.12 
  -1   4  15    0.44    0.11 
   0  -4 -15    1.08    0.14 
   0  -4  15    1.31    0.15 
   0   4  15    1.21    0.16 
  -1  -4 -15    1.86    0.18 
   1  -4  15    1.89    0.18 
   1   4  15    1.81    0.18 
  -2  -4 -15    1.78    0.20 
   2  -4  15    1.78    0.19 
  -2   4 -15    1.79    0.20 
  -2  -5  15    0.07    0.09 
  -2   5  15    0.07    0.08 
  -1  -5  15    0.18    0.09 
  -1   5  15    0.22    0.08 
   0  -5  15    0.49    0.11 
   0  -5 -15    0.49    0.11 
   0   5  15    0.70    0.13 
   1  -5  15   -0.01    0.06 
  -1  -5 -15    0.02    0.08 
   1   5  15    0.05    0.07 
  -2  -5 -15    0.22    0.11 
   2  -5  15    0.15    0.08 
  -2   5 -15    0.15    0.10 
  -2  -6  15    3.71    0.26 
  -2   6  15    3.31    0.26 
  -1  -6  15    0.62    0.13 
  -1   6  15    0.54    0.13 
   0  -6 -15    2.69    0.22 
   0  -6  15    2.83    0.22 
   0   6  15    2.50    0.21 
   1  -6  15    1.20    0.16 
  -1  -6 -15    1.57    0.18 
   1   6  15    1.50    0.17 
  -1   6 -15    1.55    0.16 
  -2  -6 -15    0.03    0.10 
   2  -6  15    0.06    0.08 
  -2   6 -15    0.11    0.09 
  -2  -7  15   -0.06    0.08 
  -2   7  15    0.03    0.07 
  -1  -7  15    5.68    0.33 
  -1   7  15    5.02    0.32 
   0  -7  15    0.59    0.13 
   0  -7 -15    0.47    0.12 
   0   7  15    0.36    0.10 
   1  -7  15    1.65    0.18 
  -1  -7 -15    1.37    0.17 
  -1   7 -15    1.86    0.18 
   2  -7  15    0.20    0.10 
  -2  -7 -15    0.16    0.13 
  -2   7 -15    0.28    0.10 
  -2  -8  15    4.72    0.30 
  -2   8  15    3.62    0.28 
  -1  -8  15    1.13    0.16 
  -1   8  15    0.74    0.15 
   0  -8  15    3.26    0.24 
   0  -8 -15    3.11    0.25 
   0   8  15    2.63    0.23 
  -1  -8 -15    1.38    0.18 
   1  -8  15    1.44    0.18 
  -1   8 -15    1.40    0.17 
  -1  -9  15    0.02    0.07 
  -1   9  15   -0.08    0.06 
   0  -9 -15    0.95    0.16 
   0  -9  15    1.13    0.17 
   0   9  15    0.66    0.13 
  -1  -9 -15    0.00    0.11 
   1  -9  15    0.14    0.09 
  -1   9 -15    0.07    0.08 
  -1 -10  15    0.17    0.09 
  -1  10  15    0.13    0.09 
   0 -10 -15    0.19    0.12 
   0 -10  15    0.08    0.08 
   0  10  15    0.11    0.08 
   1 -10  15    0.37    0.11 
  -1 -10 -15    0.43    0.14 
  -1  10 -15    0.32    0.11 
  -2   0  16    0.50    0.14 
  -1   0  16   19.40    0.82 
   0   0 -16    2.37    0.19 
   0   0  16    2.91    0.22 
  -1   0 -16    4.38    0.26 
   1   0  16    5.29    0.30 
  -2  -1  16    3.80    0.29 
  -2   1  16    3.77    0.29 
  -1  -1  16    0.20    0.09 
  -1   1  16    0.07    0.09 
   0  -1 -16    0.44    0.10 
   0  -1  16    0.60    0.12 
   0   1  16    0.36    0.10 
  -1  -1 -16    1.34    0.16 
   1  -1  16    1.73    0.18 
  -1   1 -16    1.60    0.16 
   1   1  16    1.58    0.18 
   2  -1  16    0.41    0.10 
  -2  -1 -16    0.20    0.09 
  -2  -2  16    0.40    0.13 
  -2   2  16    0.47    0.13 
  -1  -2  16    1.14    0.18 
  -1   2  16    0.86    0.15 
   0  -2 -16    0.15    0.09 
   0  -2  16    0.05    0.06 
   0   2  16    0.00    0.06 
   1  -2  16   -0.02    0.06 
  -1  -2 -16    0.05    0.08 
   1   2  16    0.02    0.06 
  -1   2 -16    0.01    0.07 
  -2  -2 -16    0.49    0.12 
   2  -2  16    0.23    0.08 
  -2  -3  16    0.56    0.14 
  -2   3  16    0.29    0.11 
  -1  -3  16    0.83    0.15 
  -1   3  16    0.90    0.16 
   0  -3 -16    0.09    0.09 
   0  -3  16    0.17    0.07 
   0   3  16    0.04    0.07 
  -1  -3 -16    0.12    0.09 
   1  -3  16    0.12    0.08 
   1   3  16    0.02    0.07 
   2  -3  16    0.29    0.09 
  -2  -3 -16    0.14    0.10 
  -2   3 -16    0.35    0.12 
  -2  -4  16    0.16    0.10 
  -2   4  16    0.05    0.09 
  -1  -4  16   18.46    0.78 
  -1   4  16   17.68    0.78 
   0  -4 -16    0.93    0.13 
   0  -4  16    0.73    0.13 
   0   4  16    1.09    0.16 
  -1  -4 -16    3.54    0.24 
   1  -4  16    3.68    0.26 
   1   4  16    3.37    0.25 
   2  -4  16    0.57    0.12 
  -2  -4 -16    0.43    0.12 
  -2   4 -16    0.44    0.12 
  -2  -5  16    0.03    0.09 
  -2   5  16    0.09    0.08 
  -1  -5  16    0.23    0.10 
  -1   5  16    0.11    0.09 
   0  -5  16    0.72    0.12 
   0  -5 -16    0.80    0.14 
   0   5  16    0.59    0.13 
   1  -5  16    0.65    0.12 
  -1  -5 -16    0.70    0.13 
   1   5  16    0.48    0.12 
   2  -5  16    0.08    0.08 
  -2  -5 -16   -0.05    0.09 
  -2   5 -16    0.32    0.10 
  -2  -6  16    0.18    0.11 
  -2   6  16    0.16    0.09 
  -1  -6  16    5.60    0.32 
  -1   6  16    4.46    0.32 
   0  -6  16    0.10    0.08 
   0  -6 -16   -0.02    0.10 
   0   6  16    0.07    0.07 
   1  -6  16    2.29    0.21 
  -1  -6 -16    1.99    0.22 
  -1  -7  16    0.04    0.08 
  -1   7  16   -0.09    0.07 
   0  -7  16    1.02    0.16 
   0  -7 -16    1.20    0.17 
   0   7  16    1.18    0.18 
   1  -7  16    0.53    0.13 
  -1  -7 -16    0.27    0.12 
  -1  -8  16    2.08    0.21 
  -1   8  16    1.43    0.19 
   0  -8  16    0.46    0.12 
   0  -8 -16    0.40    0.13 
   0   8  16    0.38    0.12 
  -1  -8 -16    0.39    0.14 
   1  -8  16    0.57    0.13 
   0  -9  16    0.79    0.14 
   0  -9 -16    0.94    0.16 
   0   9  16    0.55    0.13 
  -2   0  17    0.00    0.09 
  -1   0  17   -0.02    0.08 
   0   0  17    0.00    0.07 
  -1   0 -17    0.01    0.08 
   1   0  17    0.07    0.07 
  -2  -1  17    3.05    0.27 
  -2   1  17    2.96    0.28 
  -1  -1  17    3.89    0.29 
  -1   1  17    4.02    0.30 
   0  -1  17    0.30    0.11 
   0  -1 -17    0.27    0.10 
   0   1  17    0.32    0.11 
   1  -1  17    2.06    0.21 
  -1  -1 -17    1.65    0.18 
  -1   1 -17    1.85    0.18 
   1   1  17    2.03    0.20 
  -2  -2  17    0.09    0.10 
  -2   2  17    0.14    0.11 
  -1  -2  17    0.63    0.14 
  -1   2  17    0.73    0.14 
   0  -2 -17    3.91    0.27 
   0  -2  17    4.65    0.30 
   0   2  17    4.67    0.30 
   1  -2  17    0.18    0.09 
  -1  -2 -17    0.37    0.10 
   1   2  17    0.31    0.10 
  -1  -3  17    4.13    0.30 
  -1   3  17    4.17    0.30 
   0  -3  17    1.50    0.17 
   0  -3 -17    1.56    0.19 
   0   3  17    1.44    0.19 
   1  -3  17    4.55    0.29 
  -1  -3 -17    3.93    0.27 
   1   3  17    4.37    0.29 
  -1  -4  17    0.55    0.13 
  -1   4  17    0.67    0.15 
   0  -4  17    1.51    0.18 
   0  -4 -17    1.27    0.17 
   0   4  17    1.38    0.20 
  -1  -4 -17    0.16    0.10 
   1  -4  17    0.12    0.08 
   1   4  17    0.05    0.07 
  -1  -5  17    0.50    0.13 
  -1   5  17    0.40    0.12 
   0  -5 -17    0.29    0.11 
   0  -5  17    0.25    0.09 
   0   5  17    0.23    0.10 
  -1  -5 -17    0.03    0.10 
   1  -5  17   -0.01    0.07 
   1   5  17   -0.04    0.07 
  -1  -6  17    0.03    0.08 
  -1   6  17    0.01    0.08 
   0  -6  17    1.78    0.20 
   0  -6 -17    1.63    0.19 
   0   6  17    1.93    0.21 
   1  -6  17    0.36    0.11 
  -1  -6 -17    0.38    0.12 
   0  -7 -17    0.63    0.15 
   0  -7  17    0.55    0.13 
   0   7  17    0.49    0.14 
  -1   0  18    6.19    0.39 
   0   0  18    0.78    0.16 
  -1   0 -18   -0.09    0.08 
   1   0  18   -0.02    0.07 
  -1  -1  18    0.17    0.11 
  -1   1  18    0.23    0.11 
   0  -1  18    3.67    0.28 
   0   1  18    3.35    0.27 
   1  -1  18    0.44    0.12 
  -1  -1 -18    0.54    0.12 
  -1   1 -18    0.56    0.11 
   1   1  18    0.79    0.14 
  -1  -2  18    0.51    0.13 
  -1   2  18    0.27    0.11 
   0  -2  18    0.13    0.10 
   0  -2 -18    0.15    0.10 
   0   2  18    0.15    0.11 
   1  -2  18    0.08    0.08 
  -1  -2 -18   -0.05    0.09 
   1   2  18    0.12    0.09 
   0  -3 -18    3.03    0.25 
   0  -3  18    3.18    0.27 
   0   3  18    3.44    0.27 
   0  -4 -18    0.71    0.14 
   0  -4  18    0.56    0.13 
   0   4  18    0.60    0.15 
   0   0   0    0.00    0.00 
;
_shelx_hkl_checksum              50313
loop_
_space_group_symop_operation_xyz
'x, y, z'
'-x, y+1/2, -z+1/2'
'-x, -y, -z'
'x, -y-1/2, z-1/2'
loop_
_atom_site_label
_atom_site_type_symbol
_atom_site_fract_x
_atom_site_fract_y
_atom_site_fract_z
_atom_site_U_iso_or_equiv
_atom_site_adp_type
_atom_site_occupancy
_atom_site_site_symmetry_order
_atom_site_calc_flag
_atom_site_refinement_flags_posn
_atom_site_refinement_flags_adp
Cl1 Cl 0.46678(11) 0.14907(3) 0.15431(3) 0.05071(17) Uani 1 1 d . .
Cl2 Cl -0.09309(13) 0.36146(4) 0.43580(3) 0.06370(18) Uani 1 1 d . .
N1 N 0.2633(6) 0.58393(11) 0.07309(14) 0.0735(5) Uani 1 1 d . .
C1 C 0.2198(4) 0.42830(10) 0.17258(11) 0.0425(3) Uani 1 1 d . .
C2 C 0.3348(4) 0.34017(10) 0.13641(11) 0.0404(3) Uani 1 1 d . .
H2A H 0.4215 0.3351 0.0730 0.048 Uiso 1 1 calc R U
C3 C 0.3180(3) 0.26024(9) 0.19617(10) 0.0384(3) Uani 1 1 d . .
C4 C 0.1886(4) 0.26492(11) 0.28853(10) 0.0424(3) Uani 1 1 d . .
H4A H 0.1796 0.2089 0.3283 0.051 Uiso 1 1 calc R U
C5 C 0.0728(4) 0.35402(11) 0.32094(11) 0.0435(3) Uani 1 1 d . .
C6 C 0.0858(4) 0.43595(11) 0.26488(11) 0.0447(3) Uani 1 1 d . .
H6A H 0.0054 0.4964 0.2884 0.054 Uiso 1 1 calc R U
C7 C 0.2443(5) 0.51604(12) 0.11475(12) 0.0542(4) Uani 1 1 d . .
loop_
_atom_site_aniso_label
_atom_site_aniso_U_11
_atom_site_aniso_U_22
_atom_site_aniso_U_33
_atom_site_aniso_U_23
_atom_site_aniso_U_13
_atom_site_aniso_U_12
Cl1 0.0587(3) 0.0395(2) 0.0541(3) -0.00044(14) 0.00519(19) 0.00348(14)
Cl2 0.0649(3) 0.0872(4) 0.0393(2) -0.01116(18) 0.0090(2) -0.0039(2)
N1 0.1034(14) 0.0468(9) 0.0708(11) 0.0030(7) 0.0165(9) 0.0044(8)
C1 0.0430(7) 0.0384(7) 0.0459(8) -0.0001(6) -0.0015(6) -0.0041(5)
C2 0.0414(7) 0.0416(7) 0.0382(7) -0.0005(5) 0.0008(6) -0.0050(5)
C3 0.0379(7) 0.0362(6) 0.0409(7) -0.0023(5) -0.0015(6) -0.0020(5)
C4 0.0430(8) 0.0464(7) 0.0376(7) 0.0034(6) -0.0013(6) -0.0057(6)
C5 0.0389(7) 0.0562(9) 0.0354(7) -0.0058(6) -0.0002(6) -0.0052(6)
C6 0.0409(7) 0.0433(7) 0.0497(8) -0.0093(6) -0.0021(6) -0.0020(5)
C7 0.0644(10) 0.0433(8) 0.0551(10) -0.0042(7) 0.0075(8) 0.0002(7)
loop_
_atom_type_symbol
_atom_type_description
_atom_type_scat_dispersion_real
_atom_type_scat_dispersion_imag
_atom_type_scat_source
C C 0.0033 0.0016 'International Tables Vol C Tables 4.2.6.8 and 6.1.1.4'
H H 0.0000 0.0000 'International Tables Vol C Tables 4.2.6.8 and 6.1.1.4'
N N 0.0061 0.0033 'International Tables Vol C Tables 4.2.6.8 and 6.1.1.4'
Cl Cl 0.1484 0.1585 'International Tables Vol C Tables 4.2.6.8 and 6.1.1.4'
loop_
_geom_angle_atom_site_label_1
_geom_angle_atom_site_label_2
_geom_angle_atom_site_label_3
_geom_angle
C2 C1 C6 121.61(13)
C2 C1 C7 120.15(14)
C6 C1 C7 118.22(13)
C3 C2 C1 117.46(13)
C2 C3 C4 122.69(13)
C2 C3 Cl1 118.84(11)
C4 C3 Cl1 118.48(11)
C5 C4 C3 117.76(13)
C6 C5 C4 122.00(14)
C6 C5 Cl2 119.40(12)
C4 C5 Cl2 118.59(12)
C5 C6 C1 118.46(14)
N1 C7 C1 178.14(19)
loop_
_geom_bond_atom_site_label_1
_geom_bond_atom_site_label_2
_geom_bond_distance
Cl1 C3 1.7406(13)
Cl2 C5 1.7326(16)
N1 C7 1.103(2)
C1 C2 1.391(2)
C1 C6 1.395(2)
C1 C7 1.456(2)
C2 C3 1.3815(19)
C3 C4 1.386(2)
C4 C5 1.385(2)
C5 C6 1.373(2)
loop_
_geom_torsion_atom_site_label_1
_geom_torsion_atom_site_label_2
_geom_torsion_atom_site_label_3
_geom_torsion_atom_site_label_4
_geom_torsion
C6 C1 C2 C3 -1.3(2)
C7 C1 C2 C3 177.39(13)
C1 C2 C3 C4 0.9(2)
C1 C2 C3 Cl1 -178.84(11)
C2 C3 C4 C5 0.0(2)
Cl1 C3 C4 C5 179.68(10)
C3 C4 C5 C6 -0.5(2)
C3 C4 C5 Cl2 179.51(11)
C4 C5 C6 C1 0.1(2)
Cl2 C5 C6 C1 -179.89(11)
C2 C1 C6 C5 0.8(2)
C7 C1 C6 C5 -177.86(14)
