#------------------------------------------------------------------------------
#$Date: 2019-11-24 14:37:37 +0200 (Sun, 24 Nov 2019) $
#$Revision: 238187 $
#$URL: file:///home/coder/svn-repositories/cod/cif/1/55/48/1554897.cif $
#------------------------------------------------------------------------------
#
# This file is available in the Crystallography Open Database (COD),
# http://www.crystallography.net/
#
# All data on this site have been placed in the public domain by the
# contributors.
#
data_1554897
loop_
_publ_author_name
'Mandzhulo, Aleksandr'
'Vashchenko, Iryna'
'Gerasov, Andrii'
'Vovk, Mykhaylo'
'Rusanov, Eduard'
'Fetyukhin, Volodymyr'
'Lukin, Oleg'
'Shivanyuk, Alexander'
_publ_section_title
;
 Selective synthesis of N-protected
 exo-spiro[oxirane-3,2&#x2032;-tropanes]
;
_journal_issue                   10
_journal_name_full               'Organic Chemistry Frontiers'
_journal_page_first              1692
_journal_paper_doi               10.1039/C9QO00377K
_journal_volume                  6
_journal_year                    2019
_chemical_formula_moiety         'C16 H19 N O3'
_chemical_formula_sum            'C16 H19 N O3'
_chemical_formula_weight         273.32
_chemical_melting_point          376.8(8)
_chemical_name_systematic
'Benzyl 8-azaspiro[bicyclo[3.2.1]octane-(exo)-3,2?-oxirane]-8-carboxylate'
_space_group_crystal_system      monoclinic
_space_group_IT_number           4
_space_group_name_Hall           'P 2yb'
_space_group_name_H-M_alt        'P 1 21 1'
_atom_sites_solution_hydrogens   geom
_audit_creation_method           SHELXL-2016/4
_audit_update_record
;
2017-11-29 deposited with the CCDC.	2019-04-11 downloaded from the CCDC.
;
_cell_angle_alpha                90
_cell_angle_beta                 101.580(4)
_cell_angle_gamma                90
_cell_formula_units_Z            2
_cell_length_a                   7.9218(11)
_cell_length_b                   6.5193(8)
_cell_length_c                   13.4340(16)
_cell_measurement_reflns_used    1347
_cell_measurement_temperature    173(1)
_cell_measurement_theta_max      24.92
_cell_measurement_theta_min      2.62
_cell_volume                     679.67(15)
_computing_cell_refinement       'Bruker SMART'
_computing_data_collection       'Bruker SMART'
_computing_data_reduction        'Bruker SAINT'
_computing_molecular_graphics    'Bruker SHELXTL'
_computing_publication_material  'Bruker SHELXTL'
_computing_structure_refinement  'SHELXL-2016/4 (Sheldrick, 2016)'
_computing_structure_solution    'Bruker SHELXTL'
_diffrn_ambient_temperature      173(1)
_diffrn_measured_fraction_theta_full 1.000
_diffrn_measured_fraction_theta_max 1.000
_diffrn_measurement_device_type  'CCD area detector'
_diffrn_measurement_method       'phi and omega scans'
_diffrn_radiation_monochromator  graphite
_diffrn_radiation_source         'sealed tube'
_diffrn_radiation_type           MoK\a
_diffrn_radiation_wavelength     0.71073
_diffrn_reflns_av_R_equivalents  0.0308
_diffrn_reflns_av_unetI/netI     0.0324
_diffrn_reflns_Laue_measured_fraction_full 1.000
_diffrn_reflns_Laue_measured_fraction_max 1.000
_diffrn_reflns_limit_h_max       10
_diffrn_reflns_limit_h_min       -10
_diffrn_reflns_limit_k_max       8
_diffrn_reflns_limit_k_min       -8
_diffrn_reflns_limit_l_max       17
_diffrn_reflns_limit_l_min       -16
_diffrn_reflns_number            9802
_diffrn_reflns_point_group_measured_fraction_full 1.000
_diffrn_reflns_point_group_measured_fraction_max 0.999
_diffrn_reflns_theta_full        25.242
_diffrn_reflns_theta_max         26.997
_diffrn_reflns_theta_min         1.547
_exptl_absorpt_coefficient_mu    0.092
_exptl_absorpt_correction_T_max  0.98
_exptl_absorpt_correction_T_min  0.71
_exptl_absorpt_correction_type   numerical
_exptl_absorpt_process_details   SADABS
_exptl_crystal_colour            white
_exptl_crystal_density_diffrn    1.336
_exptl_crystal_description       block
_exptl_crystal_F_000             292
_exptl_crystal_recrystallization_method 'Re-crystallisation from solvent'
_exptl_crystal_size_max          0.550
_exptl_crystal_size_mid          0.280
_exptl_crystal_size_min          0.220
_refine_diff_density_max         0.150
_refine_diff_density_min         -0.159
_refine_diff_density_rms         0.036
_refine_ls_abs_structure_details
;
 Flack x determined using 1104 quotients [(I+)-(I-)]/[(I+)+(I-)]
 (Parsons, Flack and Wagner, Acta Cryst. B69 (2013) 249-259).
;
_refine_ls_abs_structure_Flack   -0.7(5)
_refine_ls_extinction_method     none
_refine_ls_goodness_of_fit_ref   1.047
_refine_ls_hydrogen_treatment    constr
_refine_ls_matrix_type           full
_refine_ls_number_parameters     181
_refine_ls_number_reflns         2956
_refine_ls_number_restraints     1
_refine_ls_restrained_S_all      1.047
_refine_ls_R_factor_all          0.0391
_refine_ls_R_factor_gt           0.0337
_refine_ls_shift/su_max          0.004
_refine_ls_shift/su_mean         0.001
_refine_ls_structure_factor_coef Fsqd
_refine_ls_weighting_details
'w=1/[\s^2^(Fo^2^)+(0.0408P)^2^+0.0310P] where P=(Fo^2^+2Fc^2^)/3'
_refine_ls_weighting_scheme      calc
_refine_ls_wR_factor_gt          0.0751
_refine_ls_wR_factor_ref         0.0772
_reflns_Friedel_coverage         0.831
_reflns_Friedel_fraction_full    1.000
_reflns_Friedel_fraction_max     0.997
_reflns_number_gt                2672
_reflns_number_total             2956
_reflns_threshold_expression     'I > 2\s(I)'
_cod_data_source_file            c9qo00377k2.cif
_cod_data_source_block           v900
_cod_depositor_comments
;
The following automatic conversions were performed:

data item '_chemical_melting_point' value '376-377.5' was changed to
'376.8(8)' -- the average value was taken and precision was
estimated.

data item '_exptl_absorpt_correction_type' value 'Numerical' was
changed to 'numerical' in accordance with the
/home/saulius/struct/COD-crude-data/automatic-downloads/DataCite-retrospective/RSC/depositions/lib/dictionaries/cif_core.dic
dictionary named 'cif_core.dic' version 2.4.2 last updated on
2011-04-26.

Automatic conversion script
Id: cif_fix_values 6909 2019-04-08 15:41:33Z antanas 
;
_cod_original_sg_symbol_H-M      'P 21'
_cod_database_code               1554897
_shelx_shelxl_version_number     2016/4
_shelx_space_group_comment
;
The symmetry employed for this shelxl refinement is uniquely defined
by the following loop, which should always be used as a source of
symmetry information in preference to the above space-group names.
They are only intended as comments.
;
_shelx_estimated_absorpt_t_min   0.951
_shelx_estimated_absorpt_t_max   0.980
_shelx_res_file
;
TITL v900 in P2(1)
 v900.res created by SHELXL-2016/4 at 14:42:29 on 16-Nov-2017
CELL 0.71073   7.9218   6.5193  13.4340  90.000 101.580  90.000
ZERR    2.00   0.0011   0.0008   0.0016   0.000   0.004   0.000
LATT -1
SYMM -X, 0.5+Y, -Z
SFAC C  H  N  O
UNIT 32  38  2  6
L.S. 4
ACTA
omit 0 54
BOND
FMAP 2
PLAN 20
SIZE 0.22 0.28 0.55
TEMP 23.000
WGHT    0.040800    0.031000
FVAR       1.24995
C1    1    0.772212   -0.027286    0.673910    11.00000    0.02157    0.01843 =
         0.03154    0.00395    0.00585    0.00226
AFIX  13
H1    2    0.773333   -0.163930    0.704440    11.00000   -1.20000
AFIX   0
C2    1    0.852151    0.133592    0.751952    11.00000    0.02264    0.02479 =
         0.02718    0.00446    0.00224    0.00288
AFIX  23
H2A   2    0.786212    0.142753    0.805325    11.00000   -1.20000
H2B   2    0.969161    0.094317    0.782575    11.00000   -1.20000
AFIX   0
C3    1    0.852666    0.338846    0.699997    11.00000    0.02499    0.02154 =
         0.02476   -0.00343    0.00354    0.00088
C4    1    0.683540    0.396277    0.631391    11.00000    0.02702    0.02038 =
         0.02913    0.00287    0.00792    0.00215
AFIX  23
H4A   2    0.700298    0.513196    0.589780    11.00000   -1.20000
H4B   2    0.600234    0.434051    0.672142    11.00000   -1.20000
AFIX   0
C5    1    0.616164    0.214238    0.563517    11.00000    0.02325    0.02462 =
         0.02369    0.00426    0.00264    0.00052
AFIX  13
H5    2    0.507885    0.247407    0.516790    11.00000   -1.20000
AFIX   0
C6    1    0.855053   -0.028772    0.579605    11.00000    0.02590    0.02304 =
         0.03743   -0.00292    0.01057   -0.00053
AFIX  23
H6A   2    0.846526   -0.163786    0.548656    11.00000   -1.20000
H6B   2    0.975595    0.009809    0.597623    11.00000   -1.20000
AFIX   0
C7    1    0.751647    0.130402    0.506413    11.00000    0.02847    0.02957 =
         0.02613   -0.00268    0.00838   -0.00428
AFIX  23
H7A   2    0.826218    0.239526    0.491714    11.00000   -1.20000
H7B   2    0.696616    0.066080    0.443078    11.00000   -1.20000
AFIX   0
C8    1    1.014409    0.421699    0.680196    11.00000    0.02959    0.02913 =
         0.03749   -0.00289    0.00806   -0.00438
AFIX  23
H8A   2    1.117015    0.337586    0.698174    11.00000   -1.20000
H8B   2    1.009055    0.505990    0.620143    11.00000   -1.20000
AFIX   0
C9    1    0.450981    0.004095    0.662612    11.00000    0.02425    0.02260 =
         0.02357   -0.00502    0.00513   -0.00255
C10   1    0.326920   -0.198165    0.776113    11.00000    0.03244    0.03194 =
         0.03629   -0.00156    0.01592   -0.01055
AFIX  23
H10A  2    0.338685   -0.340411    0.797563    11.00000   -1.20000
H10B  2    0.225532   -0.187676    0.722193    11.00000   -1.20000
AFIX   0
C11   1    0.300926   -0.068182    0.864313    11.00000    0.02145    0.03378 =
         0.02551    0.00423    0.00179    0.00149
C12   1    0.369909    0.125798    0.882023    11.00000    0.02904    0.03736 =
         0.03165    0.00014    0.00328   -0.00239
AFIX  43
H12   2    0.436740    0.180069    0.838862    11.00000   -1.20000
AFIX   0
C13   1    0.340259    0.240487    0.963793    11.00000    0.04200    0.04387 =
         0.04072   -0.01298   -0.00276    0.00165
AFIX  43
H13   2    0.387463    0.370971    0.975644    11.00000   -1.20000
AFIX   0
C14   1    0.240064    0.159775    1.027675    11.00000    0.04802    0.06861 =
         0.03135   -0.01180    0.00550    0.01557
AFIX  43
H14   2    0.220446    0.235715    1.082849    11.00000   -1.20000
AFIX   0
C15   1    0.169563   -0.032662    1.009540    11.00000    0.04249    0.06617 =
         0.02995    0.00789    0.01269    0.01003
AFIX  43
H15   2    0.101403   -0.086062    1.052172    11.00000   -1.20000
AFIX   0
C16   1    0.199603   -0.147284    0.928088    11.00000    0.02854    0.04228 =
         0.03109    0.00733    0.00586    0.00108
AFIX  43
H16   2    0.151755   -0.277437    0.916169    11.00000   -1.20000
AFIX   0
N1    3    0.595964    0.039174    0.628478    11.00000    0.02037    0.02205 =
         0.02670    0.00403    0.00502   -0.00033
O1    4    0.940363    0.502966    0.761707    11.00000    0.03683    0.02852 =
         0.03544   -0.00971    0.00405   -0.00589
O2    4    0.312826    0.086268    0.629911    11.00000    0.02206    0.04050 =
         0.03514    0.00032    0.00731    0.00138
O3    4    0.476635   -0.139609    0.736601    11.00000    0.02898    0.03022 =
         0.03422    0.00541    0.01438   -0.00140
HKLF 4




REM  v900 in P2(1)
REM R1 =  0.0337 for    2672 Fo > 4sig(Fo)  and  0.0391 for all    2956 data
REM    181 parameters refined using      1 restraints

END

WGHT      0.0403      0.0321

REM Highest difference peak  0.150,  deepest hole -0.159,  1-sigma level  0.036
Q1    1   0.7743  0.3651  0.6725  11.00000  0.05    0.15
Q2    1   0.7031  0.1102  0.3383  11.00000  0.05    0.13
Q3    1   0.3170  0.0231  0.5575  11.00000  0.05    0.12
Q4    1   0.8600  0.2385  0.7224  11.00000  0.05    0.12
Q5    1   0.8479 -0.0071  0.6331  11.00000  0.05    0.11
Q6    1   0.2479  0.3819  1.1222  11.00000  0.05    0.11
Q7    1   0.6266  0.6342  0.7400  11.00000  0.05    0.11
Q8    1   0.9202  0.3350  0.6605  11.00000  0.05    0.11
Q9    1   0.2595 -0.3559  0.9611  11.00000  0.05    0.11
Q10   1   0.5482  0.3760  0.7453  11.00000  0.05    0.11
Q11   1   0.8115 -0.0176  0.6280  11.00000  0.05    0.11
Q12   1   0.6813  0.1622  0.5348  11.00000  0.05    0.10
Q13   1   0.1008 -0.1679  1.0792  11.00000  0.05    0.10
Q14   1   0.8869  0.3632  0.4309  11.00000  0.05    0.10
Q15   1   0.5487 -0.2313  0.7007  11.00000  0.05    0.10
Q16   1   0.4840  0.2696  0.5590  11.00000  0.05    0.10
Q17   1   0.5569  0.0825  0.6777  11.00000  0.05    0.10
Q18   1   0.1301  0.4400  1.0759  11.00000  0.05    0.10
Q19   1   0.1000  0.4248  1.0186  11.00000  0.05    0.10
Q20   1   0.6783 -0.0005  0.6593  11.00000  0.05    0.10
;
_shelx_res_checksum              62897
_shelx_hkl_file
;
   1   0   0  429.53   12.77
  -1   0   0  450.82   12.88
   1   0   0  437.15   12.89
  -1   0   0  447.42   13.77
  -1   0   0  469.92   13.28
   1   0   0  476.67   13.26
   1   0   0  431.55   13.75
  -1   0   0  433.87   12.74
  -2   0   0 2016.44   60.38
   2   0   0 2229.22   58.37
  -2   0   0 2083.34   56.30
   2   0   0 1992.77   60.40
   2   0   0 2028.89   56.81
  -2   0   0 2110.84   58.32
   2   0   0 2015.91   56.35
  -3   0   0   86.37    4.60
   3   0   0   93.30    4.72
   3   0   0   84.39    4.26
   3   0   0   83.10    4.12
   3   0   0   90.75    4.29
  -3   0   0   89.05    4.12
   4   0   0   26.19    2.95
  -4   0   0   28.78    2.63
   4   0   0   24.58    2.55
   4   0   0   27.81    2.90
  -4   0   0   21.58    2.78
   5   0   0    2.26    1.61
  -5   0   0    2.96    1.76
   5   0   0    3.91    1.75
   5   0   0    1.43    1.53
  -5   0   0    3.49    1.53
  -6   0   0  282.68   11.35
   6   0   0  265.41   12.60
   6   0   0  286.79   11.62
   6   0   0  287.62   12.06
   7   0   0    9.24    3.16
   7   0   0   10.85    3.40
   7   0   0   12.74    3.13
  -7   0   0   16.75    3.34
   8   0   0    2.60    2.57
   8   0   0    3.38    2.75
   8   0   0    1.90    2.60
  -8   0   0   -1.18    2.11
   9   0   0    0.13    2.72
   9   0   0   -3.84    2.20
  10   0   0    6.29    3.95
   0   1   0   -1.79    0.44
   0  -1   0   -1.07    0.51
   0   1   0   -1.53    0.46
   0   1   0   -2.29    0.48
   0  -1   0   -2.01    0.50
   0  -1   0   -2.34    0.54
   0   1   0   -1.42    0.56
   0  -1   0   -0.62    0.54
   1   1   0 2110.54   61.47
  -1  -1   0 2208.68   59.61
   1   1   0 2108.60   57.52
  -1  -1   0 2135.13   58.65
   1   1   0 2114.90   58.91
   1  -1   0 2205.14   59.81
  -1   1   0 2098.47   57.25
   1  -1   0 2066.74   57.33
  -1   1   0 2172.81   59.93
  -1  -1   0 1885.15   61.15
  -1   1   0 2143.58   61.83
   1  -1   0 2161.24   58.13
  -1   1   0 2106.46   58.18
  -1  -1   0 2117.48   57.33
   2  -1   0  501.52   15.45
  -2   1   0  518.81   15.45
   2   1   0  515.83   16.25
   2   1   0  528.34   14.84
   2  -1   0  520.31   15.99
  -2  -1   0  526.80   15.35
   2  -1   0  525.66   15.91
   2   1   0  508.66   15.46
   2  -1   0  494.29   16.84
  -2  -1   0  521.37   16.25
  -2  -1   0  502.47   15.26
  -2   1   0  502.61   16.22
  -2  -1   0  523.63   14.79
  -2   1   0  521.13   17.03
   3   1   0   47.93    3.17
   3  -1   0   46.54    3.30
   3   1   0   47.83    3.20
   3   1   0   37.08    2.40
  -3  -1   0   52.02    2.75
   3  -1   0   47.79    3.54
  -3   1   0   44.29    3.43
  -3  -1   0   43.99    3.03
  -3   1   0   45.63    3.41
   3  -1   0   49.54    3.21
   3   1   0   46.21    2.62
  -3  -1   0   50.87    2.73
  -4   1   0  691.52   22.40
  -4  -1   0  722.05   23.00
   4  -1   0  695.28   22.11
  -4   1   0  702.08   23.86
   4  -1   0  675.78   21.71
  -4  -1   0  710.39   21.23
   4   1   0  683.56   22.95
   4   1   0  694.48   21.71
   4   1   0  711.24   20.98
   4  -1   0  657.45   23.50
   5  -1   0   27.43    3.46
   5   1   0   21.89    2.59
  -5  -1   0   22.05    2.43
   5  -1   0   23.47    3.32
  -5  -1   0   23.13    3.18
   5  -1   0   18.22    3.27
  -5   1   0   25.81    3.38
   5   1   0   19.57    3.10
   5   1   0   19.08    2.96
   6   1   0  171.45    8.77
   6  -1   0  169.88    8.71
   6  -1   0  159.90    8.54
   6   1   0  160.63    7.73
   6  -1   0  174.48    9.63
   6   1   0  157.31    8.78
  -6   1   0  177.16    8.72
  -6  -1   0  170.52    7.53
  -7  -1   0  437.75   16.07
  -7   1   0  457.15   17.62
   7   1   0  418.46   17.38
   7   1   0  477.65   16.72
   7   1   0  454.55   18.58
   7  -1   0  467.84   17.93
   7  -1   0  430.55   19.00
   7  -1   0  436.89   17.44
   8   1   0   65.57    5.70
   8   1   0   60.23    6.57
  -8   1   0   57.53    6.15
   8  -1   0   67.46    6.61
   8  -1   0   52.30    6.44
   8   1   0   64.70    6.69
   8  -1   0   70.78    7.43
   9   1   0   49.59    6.70
   9  -1   0   48.09    6.63
  -9   1   0   51.22    6.37
   9   1   0   61.04    7.48
   9  -1   0   42.35    6.16
  10  -1   0   25.03    5.84
  10  -1   0   17.86    5.20
  10   1   0   23.77    5.67
   0   2   0 1723.81   47.74
   0  -2   0 1768.30   47.67
   0   2   0 1745.46   49.64
   0  -2   0 1727.27   50.51
   0   2   0 1652.61   47.65
   0  -2   0 1714.04   47.59
   0   2   0 1716.22   50.65
   0  -2   0 1719.92   47.30
   1   2   0  634.70   19.90
  -1  -2   0  670.13   19.61
   1   2   0  625.10   18.37
  -1   2   0  642.86   18.97
   1   2   0  625.28   19.21
   1   2   0  654.75   19.63
   1  -2   0  635.44   20.36
  -1  -2   0  628.82   19.02
   1  -2   0  653.75   19.48
  -1  -2   0  645.61   18.27
  -1   2   0  657.49   19.52
  -1  -2   0  647.20   19.83
  -1   2   0  628.44   20.29
   1  -2   0  653.03   20.86
   1  -2   0  644.28   18.93
   2   2   0  435.15   12.44
  -2  -2   0  426.67   12.28
  -2  -2   0  441.79   13.31
   2   2   0  426.64   14.03
   2  -2   0  405.68   13.52
  -2  -2   0  431.41   13.98
   2   2   0  416.73   13.76
   2  -2   0  429.50   14.75
   2  -2   0  416.29   15.10
  -2  -2   0  425.35   13.37
  -2   2   0  424.72   14.74
  -2   2   0  425.57   15.24
  -3   2   0  338.31   12.98
   3   2   0  350.50   12.21
   3   2   0  355.04   12.33
  -3  -2   0  365.64   11.36
  -3  -2   0  343.16   10.51
   3  -2   0  353.64   13.54
   3   2   0  349.08   10.60
   3  -2   0  334.79   12.03
  -3   2   0  352.92   13.71
  -3  -2   0  349.25   12.29
   3  -2   0  331.74   12.51
   4  -2   0  193.40    8.39
   4   2   0  186.19    8.36
   4  -2   0  184.55    9.25
  -4  -2   0  196.74    7.35
  -4  -2   0  198.86    6.96
   4  -2   0  184.15    8.66
  -4   2   0  196.00    9.03
   4   2   0  193.78    6.89
  -4  -2   0  196.05    8.39
  -4   2   0  194.04    9.67
   4   2   0  183.36    8.22
   5  -2   0   42.39    4.76
  -5  -2   0   53.73    3.57
   5  -2   0   60.88    4.92
   5   2   0   54.58    3.49
  -5   2   0   52.77    5.07
   5   2   0   55.88    4.42
  -5  -2   0   53.04    4.32
   5   2   0   54.76    4.58
   5  -2   0   56.17    4.56
   6   2   0  250.65   11.43
   6   2   0  249.83   11.42
   6  -2   0  244.33   11.66
   6  -2   0  242.24   12.41
   6  -2   0  234.96   11.17
   6   2   0  257.84    9.75
  -6  -2   0  239.85    9.42
  -6   2   0  240.89   11.62
  -7   2   0   63.34    6.54
  -7  -2   0   64.58    4.52
   7  -2   0   62.23    6.64
   7   2   0   64.56    6.46
   7   2   0   72.15    5.01
   7   2   0   64.03    5.92
   7  -2   0   65.77    6.50
   7  -2   0   53.48    5.98
   8  -2   0   86.13    7.48
   8  -2   0   97.18    7.73
   8   2   0   84.96    7.30
  -8   2   0   87.53    7.48
   8  -2   0   98.11    8.50
   8   2   0   93.64    7.84
   9   2   0    5.83    3.57
   9  -2   0   13.78    4.49
   9  -2   0   14.53    4.57
   9   2   0   16.22    4.59
  -9   2   0    9.98    4.00
  10  -2   0   12.08    4.78
  10  -2   0    6.94    4.72
  10   2   0    4.38    4.26
   0  -3   0    0.21    0.83
   0  -3   0    0.73    0.95
   0   3   0    0.29    0.94
   0   3   0    0.03    1.17
   0   3   0   -1.84    0.84
   0   3   0   -0.48    0.84
   0  -3   0   -0.60    0.96
   1  -3   0  332.99   12.33
   1  -3   0  339.51   11.58
   1   3   0  349.36   12.33
  -1  -3   0  348.51   11.90
  -1   3   0  329.08   12.85
  -1   3   0  340.92   12.63
   1   3   0  339.84   10.94
  -1  -3   0  345.64   10.81
   1  -3   0  351.52   13.12
   1   3   0  337.91   12.09
   1   3   0  344.25   12.11
  -1   3   0  318.66   11.86
   2   3   0   99.96    5.45
   2  -3   0  112.99    5.88
  -2  -3   0   98.33    3.83
  -2   3   0   91.58    5.88
  -2  -3   0  101.97    4.86
  -2  -3   0   98.73    4.90
   2  -3   0  102.65    5.17
   2   3   0   91.93    4.87
   2   3   0  102.44    4.05
   2  -3   0  109.48    6.18
  -3   3   0   83.87    6.08
   3  -3   0   86.75    5.45
   3   3   0   86.72    3.57
  -3   3   0   88.12    5.97
  -3  -3   0   84.56    4.25
   3   3   0   89.83    5.30
   3  -3   0   91.30    5.95
   3   3   0   86.81    4.77
   3  -3   0   81.42    4.98
  -3  -3   0   82.02    4.65
  -3  -3   0   80.71    3.33
   3  -3   0   84.32    5.42
   4   3   0   93.57    5.41
  -4  -3   0   92.10    3.86
   4   3   0   94.18    5.90
   4  -3   0   99.72    5.91
   4  -3   0   86.70    6.27
   4   3   0   89.38    3.91
  -4  -3   0   99.71    5.50
  -4   3   0   85.76    6.19
  -4  -3   0   92.36    4.62
   4  -3   0   81.93    5.84
   5  -3   0   46.86    5.09
  -5  -3   0   58.19    4.75
  -5  -3   0   61.27    3.93
   5  -3   0   47.31    4.82
   5   3   0   64.30    3.42
   5   3   0   62.12    4.67
  -5   3   0   56.20    5.78
   5   3   0   57.76    5.36
   5  -3   0   69.40    5.98
   6   3   0   62.63    6.10
   6  -3   0   52.09    5.92
   6   3   0   55.02    3.61
  -6   3   0   49.82    5.91
  -6  -3   0   51.85    3.84
   6  -3   0   46.70    5.32
   6  -3   0   47.51    5.98
   6   3   0   53.66    5.10
   7   3   0   11.73    3.57
   7  -3   0    6.30    3.43
   7   3   0    7.90    2.98
   7  -3   0    4.78    2.95
  -7   3   0   12.34    3.91
   7  -3   0   10.93    3.81
   8   3   0   17.55    4.26
  -8   3   0   15.53    4.43
   8  -3   0   14.73    4.34
   8  -3   0   17.38    4.53
   8   3   0   21.93    4.80
   9   3   0    6.21    4.28
  -9   3   0   12.37    4.83
   9  -3   0    7.03    3.94
   9  -3   0    0.64    3.71
  10   3   0   15.33    5.63
  10  -3   0   21.71    5.83
   0  -4   0   64.98    4.34
   0   4   0   62.64    4.09
   0  -4   0   53.06    3.88
   0   4   0   62.62    4.38
   0   4   0   55.87    4.68
   1   4   0  112.81    5.29
   1  -4   0  117.22    6.25
   1   4   0  110.63    6.34
   1   4   0  114.09    6.03
   1  -4   0  109.83    6.66
   1   4   0  112.69    6.45
  -1  -4   0  111.23    5.71
   1  -4   0  109.66    5.78
  -1   4   0  121.27    6.32
  -1   4   0  105.66    6.81
   2   4   0  181.94    8.23
   2  -4   0  185.75    8.87
   2   4   0  191.90    6.96
  -2  -4   0  198.92    8.18
   2  -4   0  181.38    9.40
  -2   4   0  178.01    9.46
   2   4   0  185.13    8.81
  -2  -4   0  184.56    6.66
   2  -4   0  181.06    8.16
  -2  -4   0  182.80    8.00
   3  -4   0   20.97    3.24
   3   4   0   18.75    3.42
   3   4   0   20.93    2.85
  -3  -4   0   20.01    2.72
  -3  -4   0   20.60    1.77
   3  -4   0   20.10    3.44
  -3  -4   0   20.48    2.60
   3  -4   0   19.10    3.63
   3   4   0   21.39    1.82
  -3   4   0   20.53    3.87
   4   4   0   62.03    4.77
   4  -4   0   70.62    5.71
   4   4   0   67.26    3.17
  -4  -4   0   69.40    4.34
  -4   4   0   67.60    6.56
   4   4   0   74.71    5.82
   4  -4   0   71.94    5.40
   4  -4   0   74.27    6.28
  -4  -4   0   61.97    4.77
  -5   4   0   48.66    5.99
  -5  -4   0   48.42    3.87
   5  -4   0   59.81    6.32
   5  -4   0   51.23    5.31
   5   4   0   54.15    4.70
   5   4   0   41.37    5.20
   5  -4   0   68.86    6.48
   6  -4   0   57.48    6.90
   6  -4   0   48.72    6.27
   6   4   0   65.05    5.56
   6  -4   0   52.54    5.85
   6   4   0   60.23    6.45
  -6   4   0   59.64    6.89
   7   4   0    8.99    3.74
   7   4   0    9.16    3.37
   7  -4   0   11.52    3.83
  -7   4   0    8.89    3.92
   7  -4   0    9.03    3.82
   8   4   0   37.25    6.73
   8  -4   0   38.01    6.62
  -8   4   0   30.82    6.25
   8  -4   0   38.89    6.55
   9  -4   0   -4.00    3.24
   9  -4   0    0.17    3.39
   9   4   0    1.17    3.96
  -9   4   0    0.99    3.73
   0  -5   0   -0.31    1.35
   0   5   0   -0.83    1.66
   0   5   0   -0.04    1.46
   0   5   0   -0.78    1.41
   0  -5   0   -0.31    1.48
   1  -5   0  128.34    7.03
  -1  -5   0  130.51    7.01
   1  -5   0  138.75    8.24
   1   5   0  142.76    6.68
   1   5   0  126.45    7.85
  -1  -5   0  143.66    7.27
   1   5   0  149.38    8.41
   1   5   0  141.49    7.69
  -1   5   0  133.17    8.54
  -2  -5   0  313.38   12.46
  -2   5   0  305.55   14.40
   2  -5   0  309.93   14.18
   2   5   0  307.75   13.26
   2  -5   0  296.75   12.28
   2  -5   0  285.42   12.44
  -2  -5   0  310.06   12.29
   2   5   0  318.21   10.90
   2   5   0  310.11   12.80
   3  -5   0   42.37    5.45
   3   5   0   44.03    2.91
   3   5   0   44.84    4.44
   3  -5   0   46.54    5.05
  -3  -5   0   38.41    3.94
   3   5   0   38.38    4.98
  -3  -5   0   44.89    4.11
  -3   5   0   32.50    5.23
   3  -5   0   39.23    4.55
   4   5   0    6.54    2.40
   4  -5   0    7.74    2.83
   4  -5   0    6.45    2.90
   4  -5   0    9.41    3.56
  -4  -5   0    4.78    2.11
  -4   5   0    8.91    3.58
   4   5   0   12.08    3.65
   5  -5   0   61.08    6.16
   5   5   0   67.66    5.61
  -5   5   0   51.47    6.90
   5  -5   0   49.94    6.02
   5   5   0   48.71    6.08
   5  -5   0   68.49    7.47
   6  -5   0   35.93    5.48
   6  -5   0   30.83    5.87
   6   5   0   38.93    6.23
  -6   5   0   47.24    7.03
   6  -5   0   41.29    6.30
   7  -5   0   60.36    7.77
  -7   5   0   54.35    7.83
   7  -5   0   38.61    6.23
   7   5   0   58.34    7.62
   8   5   0   11.86    4.97
  -8   5   0    7.93    4.82
   8  -5   0   10.15    4.49
   8  -5   0   10.88    4.42
   9   5   0   55.77    8.80
   0  -6   0   81.15    6.64
   0   6   0  100.60    7.10
   0   6   0   81.35    7.22
   0  -6   0   87.21    6.18
   1  -6   0  107.69    7.88
   1  -6   0  127.93    7.38
  -1   6   0  104.13    8.27
   1   6   0  124.10    7.79
   1  -6   0  106.26    6.74
  -1  -6   0  112.71    6.91
   1   6   0  114.10    8.10
   2   6   0  147.41    9.27
  -2  -6   0  135.72    7.93
  -2   6   0  138.74    9.75
   2  -6   0  124.07    7.81
   2  -6   0  143.58    9.45
   2  -6   0  127.91    7.87
   2   6   0  143.28    8.39
  -3   6   0  310.26   15.97
   3  -6   0  317.20   15.76
   3   6   0  312.04   13.87
   3  -6   0  297.15   13.87
   3  -6   0  321.55   13.85
   3   6   0  306.28   14.65
  -3  -6   0  314.66   13.08
   4  -6   0   -1.14    2.37
   4   6   0    0.61    3.14
   4  -6   0    1.38    3.02
   4   6   0    4.01    2.80
  -4   6   0    0.42    2.80
  -4  -6   0    2.30    2.18
   4  -6   0    2.89    2.72
   5  -6   0   10.48    3.92
   5   6   0   11.72    4.45
  -5   6   0   10.81    4.23
   5  -6   0   11.00    4.22
   5  -6   0   15.54    4.25
  -6   6   0   28.65    6.29
   6  -6   0   26.01    5.30
   6   6   0   29.66    6.24
   7   6   0    6.38    4.56
   7  -6   0   10.19    4.24
  -7   6   0    0.12    3.59
   7  -6   0    9.06    4.15
   8   6   0   10.96    5.45
   0  -7   0   -0.33    2.41
   0   7   0    1.01    2.99
   0  -7   0   -1.75    1.63
   0  -7   0    0.84    2.13
   1   7   0    3.54    3.09
  -1  -7   0    6.88    3.01
   1  -7   0    7.02    2.81
   1  -7   0    5.94    2.96
   1  -7   0    5.13    3.21
  -1   7   0    8.85    4.13
  -2   7   0   50.51    7.54
  -2  -7   0   37.65    4.97
   2  -7   0   38.43    5.07
  -2  -7   0   30.03    4.79
   2  -7   0   37.90    5.28
   2  -7   0   31.88    5.54
  -3   7   0  169.82   12.06
  -3  -7   0  153.93    8.96
   3  -7   0  131.20    9.11
   3  -7   0  152.00   10.99
   3  -7   0  161.30    9.79
   3   7   0  161.12   10.79
   4   7   0   36.01    6.43
   4  -7   0   49.40    6.55
  -4   7   0   31.65    6.69
   4  -7   0   51.52    6.67
   5  -7   0   44.49    6.79
  -5   7   0   45.91    7.92
   5   7   0   40.26    6.97
   5  -7   0   43.79    6.71
  -6   7   0   22.72    6.40
   6   7   0   35.58    7.26
   6  -7   0   44.70    7.16
   6  -7   0   32.58    6.33
   0  -8   0   55.48    6.30
   1  -8   0    0.56    2.61
  -1   8   0    3.07    4.04
  -1  -8   0    6.90    3.18
  -2   8   0   25.15    6.56
   2  -8   0   13.05    4.22
   2  -8   0   12.80    3.91
  -2  -8   0   10.31    3.52
  -2  -8   0    6.32    3.67
  -3  -8   0   75.94    7.23
   3  -8   0   73.56    7.74
  -3   8   0   82.03   10.19
   3  -8   0   71.93    7.55
  -4   8   0    1.08    4.29
   4  -8   0    3.03    3.66
   4   8   0    6.58    4.78
   4  -8   0    1.56    3.24
  -4  -8   0    1.18    2.86
   5  -8   0   -2.94    3.28
   5  -8   0   -2.59    3.24
   0  -9   0   -1.71    2.87
   1  -9   0    1.48    3.27
  -1  -9   0    0.80    3.14
   2  -9   0   14.21    4.69
  10   0  -1    6.48    3.91
   9   0  -1    3.89    2.90
  -9   0   1    4.53    3.13
   9   0  -1    4.62    3.36
   8   0  -1   41.45    5.55
   8   0  -1   51.28    5.55
  -8   0   1   43.26    5.23
   8   0  -1   47.14    6.13
   7   0  -1  642.93   21.43
   7   0  -1  575.48   23.27
  -7   0   1  597.09   21.31
   6   0  -1  262.73   12.30
   6   0  -1  264.99   10.89
   6   0  -1  258.52   11.24
  -6   0   1  262.48   10.95
   5   0  -1   -2.09    1.04
  -5   0   1    1.22    1.50
   5   0  -1    3.05    1.62
  -5   0   1    0.73    1.33
   5   0  -1   -1.68    1.09
   4   0  -1  149.94    6.49
  -4   0   1  145.61    6.99
  -4   0   1  143.61    6.33
   4   0  -1  141.88    6.18
   4   0  -1  133.99    6.92
  -3   0   1   13.39    1.76
  -3   0   1   13.44    2.00
   3   0  -1   12.59    1.95
   3   0  -1   11.55    1.60
   3   0  -1   16.79    1.91
   3   0  -1   16.78    1.94
  -2   0   1 1682.64   48.07
   2   0  -1 1726.83   48.15
   2   0  -1 1843.70   49.67
  -2   0   1 1800.81   51.33
   2   0  -1 1657.82   51.24
  -2   0   1 1729.12   47.57
   2   0  -1 1726.32   47.67
  -2   0   1 1791.73   49.63
   1   0  -1  636.55   17.75
   1   0  -1  604.04   16.91
  -1   0   1  602.94   17.20
   1   0  -1  602.95   18.29
  -1   0   1  606.65   16.85
  -1   0   1  540.44   18.14
   1   0  -1  613.64   17.18
  -1   0   1  631.85   17.79
   0   0  -1  760.00   21.15
   0   0  -1  677.04   20.26
   0   0  -1  744.50   22.58
  -1   0  -1   -4.55    0.61
  -1   0  -1   -5.62    0.44
   1   0   1   -4.62    0.58
  -1   0  -1   -5.33    0.53
  -1   0  -1   -4.15    0.64
   1   0   1   -5.61    0.34
   1   0   1   -5.03    0.57
   1   0   1   -5.04    0.58
   2   0   1 5212.10  153.40
   2   0   1 5124.11  143.16
  -2   0  -1 5637.28  144.49
   2   0   1 5470.09  148.33
   2   0   1 5363.91  144.57
  -2   0  -1 5388.71  143.05
  -2   0  -1 5279.57  148.55
  -2   0  -1 5274.25  153.34
   3   0   1  277.05   10.06
   3   0   1  314.78    9.89
   3   0   1  278.39    9.99
  -3   0  -1  293.80    9.75
  -3   0  -1  291.71   10.78
   3   0   1  282.98   10.68
   4   0   1   81.75    4.83
  -4   0  -1   84.54    4.44
   4   0   1   83.82    5.05
  -4   0  -1   83.21    5.13
   4   0   1   79.26    4.58
  -5   0  -1   32.26    3.81
   5   0   1   34.60    3.85
   5   0   1   36.04    3.83
  -5   0  -1   29.74    3.03
   5   0   1   29.86    3.33
   6   0   1   49.25    4.92
   6   0   1   56.16    4.90
  -6   0  -1   52.92    4.30
   6   0   1   33.75    4.35
  -7   0  -1   21.56    3.50
   7   0   1   22.84    3.93
   7   0   1   22.29    4.40
   7   0   1   22.15    4.23
  -8   0  -1  196.00   10.05
   8   0   1  201.14   11.76
   8   0   1  199.78   10.77
   9   0   1    1.76    3.14
   9   0   1    7.74    3.67
  10   0   1   -1.18    3.49
  10   0   1    0.19    3.50
  10   1  -1   11.20    4.43
  10  -1  -1   10.97    4.45
  10  -1  -1   10.43    4.41
  -9   1   1   43.28    6.03
   9  -1  -1   37.58    6.13
   9   1  -1   33.15    5.90
   9  -1  -1   44.95    6.24
   9   1  -1   41.60    6.44
   8   1  -1   39.04    5.28
   8  -1  -1   30.68    4.99
   8  -1  -1   28.94    4.87
  -8   1   1   24.46    4.52
   8   1  -1   38.85    4.58
  -8  -1   1   30.02    4.12
   8   1  -1   22.70    4.58
   8  -1  -1   18.50    4.52
   7   1  -1   13.78    3.56
   7  -1  -1   26.04    4.60
  -7  -1   1   24.31    3.40
   7  -1  -1   22.15    4.20
  -7   1   1   26.28    4.30
   7   1  -1   34.20    4.68
   7   1  -1   24.93    3.61
   7  -1  -1   29.45    4.47
  -6  -1   1  209.67    9.13
   6   1  -1  226.48    9.19
   6  -1  -1  219.53   10.15
   6  -1  -1  220.10   11.14
   6   1  -1  208.89   10.53
   6  -1  -1  228.08   10.32
  -6   1   1  210.67   10.09
   6   1  -1  216.63    9.95
  -5   1   1   50.12    4.15
   5   1  -1   45.89    3.93
   5   1  -1   57.01    4.45
   5  -1  -1   49.99    4.13
   5   1  -1   49.80    3.43
  -5  -1   1   49.10    4.19
   5  -1  -1   55.18    4.32
  -5  -1   1   46.03    3.54
   5  -1  -1   47.32    4.41
   4   1  -1  641.86   22.13
   4   1  -1  712.12   20.29
   4  -1  -1  668.53   20.86
   4   1  -1  669.15   19.85
  -4   1   1  672.04   22.83
  -4  -1   1  675.25   20.79
   4  -1  -1  672.96   21.22
  -4   1   1  646.05   21.57
   4   1  -1  634.23   20.48
   4  -1  -1  652.24   22.62
  -4  -1   1  658.00   22.08
   3   1  -1  599.74   18.38
   3   1  -1  596.93   19.85
  -3  -1   1  615.16   19.87
  -3  -1   1  632.73   18.88
   3  -1  -1  620.19   20.41
   3  -1  -1  572.73   18.57
   3   1  -1  646.81   18.84
  -3   1   1  615.33   19.58
  -3   1   1  601.93   20.36
   3   1  -1  610.11   17.74
   2  -1  -1  929.70   26.79
  -2  -1   1  905.77   25.64
   2  -1  -1  911.31   28.16
   2   1  -1  863.03   25.71
   2   1  -1  973.51   26.76
   2   1  -1  951.40   25.60
   2   1  -1  888.12   25.49
   2   1  -1  879.95   27.77
  -2  -1   1  985.36   27.96
  -2  -1   1  907.07   26.67
  -2   1   1  925.24   26.04
  -2   1   1  899.98   26.67
   2  -1  -1  897.55   26.06
  -2   1   1  889.69   27.30
  -2   1   1  915.14   28.23
  -1  -1   1 1997.20   53.69
  -1   1   1 2004.04   53.84
  -1  -1   1 2014.05   55.89
  -1   1   1 1986.69   56.19
   1   1  -1 1937.18   53.86
   1  -1  -1 1920.29   53.84
   1  -1  -1 2027.61   54.68
  -1  -1   1 1993.36   57.67
  -1   1   1 1964.86   54.72
   1   1  -1 1828.29   57.60
  -1   1   1 2002.30   57.88
   1  -1  -1 2131.59   56.17
   1  -1  -1 1979.85   57.84
   0  -1  -1 2618.83   70.80
   0  -1  -1 2495.41   74.40
   0   1  -1 2526.15   68.82
   0   1   1 2400.16   68.40
   0   1  -1 2529.53   71.04
   0   1  -1 2497.33   73.18
   0  -1  -1 2533.22   68.81
   0  -1   1 2513.95   73.06
   0  -1   1 2585.36   70.92
   0   1   1 2459.83   68.96
   0   1   1 2568.35   71.00
   0  -1   1 2526.27   69.04
   0   1  -1 2564.58   68.23
   0  -1   1 2491.86   68.37
   0  -1  -1 2564.40   74.66
  -1  -1  -1 9577.82  244.44
  -1   1  -1 8741.92  245.02
   1   1   1 9313.53  249.30
   1  -1   1 8813.31  261.86
   1  -1   1 9111.17  263.04
  -1   1  -1 8991.75  254.31
  -1  -1  -1 9425.84  247.92
   1  -1   1 9999.91  252.88
  -1  -1  -1 9059.91  260.84
  -1  -1  -1 9029.67  266.00
  -1   1  -1 9179.72  246.60
   1  -1   1 8874.72  247.03
   1  -1   1 8637.48  245.51
  -2  -1  -1 2549.97   68.59
   2  -1   1 2365.99   71.36
   2   1   1 2363.39   70.39
  -2  -1  -1 2423.41   66.20
   2   1   1 2338.99   66.34
   2   1   1 2387.34   66.32
  -2  -1  -1 2422.44   66.16
  -2   1  -1 2297.28   68.75
  -2   1  -1 2447.37   71.44
  -2   1  -1 2460.74   66.14
   2   1   1 2579.71   68.33
  -2   1  -1 2474.65   67.06
  -2  -1  -1 2463.45   70.37
   2  -1   1 2395.41   67.11
   3  -1   1  240.48    9.91
   3   1   1  238.47    9.06
  -3   1  -1  231.44    9.19
   3  -1   1  233.74    9.21
   3  -1   1  241.93    8.98
  -3  -1  -1  247.92    8.44
   3   1   1  235.13    9.06
  -3  -1  -1  249.37    7.91
   3   1   1  251.29    8.47
  -3  -1  -1  245.92    9.10
   3   1   1  256.18    7.95
  -3   1  -1  255.58   10.10
   4  -1   1  592.19   19.98
  -4  -1  -1  620.47   20.57
  -4   1  -1  614.78   20.18
   4   1   1  622.23   19.10
   4   1   1  597.25   19.79
   4  -1   1  625.35   21.54
  -4  -1  -1  623.22   18.67
   4  -1   1  608.17   19.76
  -4   1  -1  621.73   21.68
   4   1   1  644.91   18.77
   4   1   1  591.96   20.51
   5  -1   1   27.46    3.53
   5   1   1   37.36    3.83
   5  -1   1   31.48    3.96
   5   1   1   39.20    4.17
   5  -1   1   34.08    3.83
  -5   1  -1   32.86    3.69
  -5  -1  -1   35.25    2.78
   5   1   1   32.32    3.20
  -5  -1  -1   45.17    4.14
  -6   1  -1   78.78    5.82
   6   1   1   94.20    6.34
   6  -1   1   82.92    6.42
   6  -1   1   78.70    5.84
  -6  -1  -1   87.81    4.83
   6  -1   1   69.27    5.62
   6   1   1   75.84    5.90
   6   1   1   83.35    5.43
   7   1   1  346.90   14.85
   7  -1   1  345.82   15.79
   7  -1   1  312.96   14.18
  -7   1  -1  322.87   13.94
   7   1   1  304.64   14.53
  -7  -1  -1  324.40   12.55
   7  -1   1  325.16   14.43
   7   1   1  363.97   13.77
   8  -1   1   43.96    6.15
   8  -1   1   44.96    5.74
   8  -1   1   54.98    6.46
   8   1   1   41.99    5.74
   8   1   1   54.72    6.65
   8   1   1   40.61    4.95
  -8   1  -1   39.90    5.26
   9  -1   1   72.58    7.69
   9  -1   1   60.03    7.57
   9   1   1   63.36    6.40
   9   1   1   72.25    8.14
   9   1   1   56.10    6.97
  10   1   1    7.95    4.74
  10  -1   1    4.93    4.24
  10  -1   1    2.39    3.87
  10  -2  -1   48.34    7.51
  10   2  -1   27.74    6.05
 -10   2   1   44.51    6.95
  10  -2  -1   36.84    6.70
   9  -2  -1   68.57    7.72
   9   2  -1   53.31    6.81
   9  -2  -1   58.08    7.04
   9   2  -1   53.73    6.91
  -9   2   1   62.22    7.39
   8   2  -1   26.31    4.78
   8  -2  -1   22.83    4.80
   8  -2  -1   26.72    5.40
  -8   2   1   19.80    4.48
   8  -2  -1   33.68    5.49
   8   2  -1   22.44    4.60
   7   2  -1   17.12    3.72
  -7  -2   1   20.63    3.08
  -7   2   1   17.87    4.00
   7  -2  -1   25.13    4.64
   7  -2  -1   15.28    3.78
   7  -2  -1   14.44    3.80
   7   2  -1   18.89    2.90
   7   2  -1   14.48    3.45
  -6  -2   1   87.95    5.27
   6   2  -1  103.85    6.60
   6  -2  -1   77.18    6.05
   6  -2  -1   94.91    6.70
   6   2  -1   96.50    6.53
  -6   2   1   98.76    6.90
   6  -2  -1   94.02    7.09
   6   2  -1   92.87    4.98
   5   2  -1  116.67    6.42
  -5  -2   1  103.74    6.32
  -5  -2   1  115.83    5.75
   5  -2  -1  115.65    6.53
  -5   2   1  100.92    6.66
   5  -2  -1   91.04    6.68
   5  -2  -1  112.53    6.78
   5   2  -1  108.66    6.47
   5   2  -1  118.07    5.35
   5   2  -1  118.50    4.99
  -4   2   1  157.80    8.37
  -4   2   1  143.80    7.62
  -4  -2   1  157.68    7.36
   4   2  -1  150.38    5.46
   4  -2  -1  153.25    7.53
   4   2  -1  140.03    6.82
   4   2  -1  163.98    5.78
   4   2  -1  150.90    7.25
  -4  -2   1  156.07    6.53
   4  -2  -1  145.16    7.09
   4  -2  -1  149.81    7.95
  -3   2   1   18.86    2.71
   3   2  -1   15.07    2.10
   3  -2  -1   18.32    2.63
  -3  -2   1   19.71    2.09
  -3  -2   1   17.28    2.24
   3   2  -1   20.10    1.22
   3  -2  -1   14.52    2.20
   3   2  -1   16.58    2.18
  -3   2   1   19.10    2.82
  -3   2   1   24.30    3.05
  -2   2   1  513.27   17.30
   2   2  -1  498.81   15.52
  -2  -2   1  526.22   15.81
  -2  -2   1  513.43   16.46
  -2   2   1  493.22   16.77
   2  -2  -1  483.95   15.61
  -2   2   1  471.58   16.22
  -2  -2   1  515.44   15.30
   2  -2  -1  496.15   17.07
   2   2  -1  503.58   16.50
   1  -2  -1  593.35   18.01
  -1  -2   1  586.63   16.57
   1  -2  -1  575.10   17.48
   1   2  -1  578.17   17.36
   1  -2  -1  563.59   18.39
  -1   2   1  592.01   18.66
  -1   2   1  604.54   17.62
  -1   2   1  560.07   17.92
   1  -2  -1  589.89   18.00
   1   2  -1  571.41   18.52
   1  -2  -1  586.60   18.79
  -1  -2   1  590.62   17.20
  -1  -2   1  605.61   18.53
   0  -2   1  981.16   27.81
   0  -2   1  988.15   27.84
   0  -2  -1  989.29   29.31
   0  -2   1  965.02   27.50
   0   2   1  967.95   28.14
   0   2  -1  953.78   29.93
   0   2   1 1004.99   29.48
   0   2   1  955.99   28.39
   0  -2  -1  962.80   28.29
   0  -2   1  995.24   27.81
   0  -2  -1 1022.96   29.05
   0  -2  -1 1024.89   28.16
   0  -2   1  976.11   29.81
   0   2  -1  952.47   29.42
   0   2   1  992.75   29.17
  -1   2  -1  151.05    6.63
   1  -2   1  150.49    5.64
  -1  -2  -1  149.17    5.45
   1  -2   1  153.65    6.44
  -1   2  -1  154.27    5.72
  -1  -2  -1  151.44    6.12
   1  -2   1  145.24    5.95
   1  -2   1  152.90    6.06
   1   2   1  153.06    5.72
   1  -2   1  156.97    6.91
   1   2   1  145.74    5.40
  -1  -2  -1  151.66    5.65
   1   2   1  144.12    6.19
  -1  -2  -1  146.65    5.32
  -1   2  -1  147.42    6.41
   2   2   1   21.65    2.50
  -2   2  -1   20.41    2.60
  -2  -2  -1   26.95    1.88
  -2  -2  -1   23.63    1.74
  -2  -2  -1   25.58    1.94
   2  -2   1   27.19    2.33
   2  -2   1   20.25    2.46
   2   2   1   23.87    1.80
   2  -2   1   26.47    2.68
  -2  -2  -1   25.15    1.69
   2  -2   1   24.39    2.92
   2   2   1   23.85    1.86
   3  -2   1  284.72   12.25
   3   2   1  300.06    9.83
  -3  -2  -1  320.27    9.69
   3   2   1  305.29   10.79
   3  -2   1  290.38   11.37
  -3   2  -1  293.19   11.73
   3  -2   1  293.88   10.86
  -3  -2  -1  299.56    9.76
  -3   2  -1  314.55   12.70
  -3  -2  -1  309.13   10.80
   3   2   1  305.13   11.28
  -4  -2  -1   97.89    4.21
   4   2   1  112.60    4.45
   4   2   1   87.18    5.59
   4   2   1  102.98    5.38
  -4  -2  -1  100.42    5.33
  -4   2  -1   93.48    5.91
   4  -2   1   99.27    6.05
   4  -2   1   90.99    5.49
   4   2   1   93.33    4.55
   4  -2   1   94.86    6.28
  -4   2  -1  111.12    6.79
  -5   2  -1   83.08    5.91
   5  -2   1   79.12    5.55
   5  -2   1   83.03    6.34
  -5  -2  -1   85.85    4.08
   5  -2   1   89.31    6.09
  -5  -2  -1   91.52    5.60
   5   2   1   82.82    5.85
   5   2   1   89.84    4.75
   5   2   1   82.23    5.29
   6   2   1  113.20    7.03
  -6  -2  -1  121.24    5.55
   6  -2   1  128.31    7.63
   6   2   1  123.88    6.34
   6  -2   1  118.77    7.66
   6   2   1  113.82    7.57
   6  -2   1  122.75    8.39
  -6   2  -1  125.30    7.72
   7  -2   1    8.38    3.21
   7   2   1   11.91    3.89
  -7   2  -1   14.41    3.69
   7   2   1   16.10    3.00
   7   2   1   12.48    3.37
   7  -2   1    7.87    3.34
   7  -2   1   18.26    4.13
   8   2   1   27.05    4.62
   8  -2   1   20.31    4.51
  -8   2  -1   23.21    4.96
   8   2   1   21.23    4.86
   8  -2   1   24.59    5.23
   8  -2   1   21.83    4.77
   9  -2   1   18.03    4.92
  -9   2  -1   20.84    5.07
   9  -2   1   21.93    5.19
   9   2   1   13.65    4.51
   9   2   1   17.81    5.00
  10   2   1    5.08    4.75
  10  -2   1   -1.93    3.67
  10  -2   1    1.47    3.73
  10   3  -1    1.01    4.14
  10  -3  -1   -1.41    3.71
   9  -3  -1   11.42    4.57
  -9   3   1   13.45    4.63
   9  -3  -1   10.52    4.21
   9   3  -1    6.09    3.56
   9   3  -1    8.41    4.05
   8   3  -1   56.10    6.77
  -8   3   1   46.85    6.70
   8   3  -1   41.53    5.56
   8  -3  -1   54.92    6.85
   8  -3  -1   55.91    7.14
   7  -3  -1  136.29    9.72
   7  -3  -1  140.87    9.32
   7   3  -1  120.40    8.36
  -7   3   1  139.28    9.51
   7   3  -1  134.71    8.68
   7  -3  -1  146.81    9.14
  -6  -3   1  148.36    7.34
   6  -3  -1  147.98    8.68
  -6   3   1  158.18    9.63
   6  -3  -1  159.20    9.92
   6   3  -1  160.27    8.82
   6   3  -1  156.10    8.80
   6  -3  -1  150.11    9.13
   5   3  -1   93.19    6.16
   5  -3  -1   90.67    6.48
   5  -3  -1   92.70    6.19
   5  -3  -1   93.31    6.94
  -5  -3   1   91.14    5.23
  -5   3   1   88.56    6.82
   5   3  -1   92.48    5.99
   5   3  -1   94.33    3.80
  -4  -3   1  138.84    6.37
   4   3  -1  139.94    4.59
   4  -3  -1  140.80    7.29
   4  -3  -1  138.70    7.65
  -4  -3   1  148.21    7.29
   4   3  -1  140.84    7.30
   4  -3  -1  147.99    8.24
   4   3  -1  136.75    7.10
  -4   3   1  141.20    8.14
  -3   3   1  321.20   13.45
  -3   3   1  310.76   13.05
   3   3  -1  323.27   11.89
   3  -3  -1  308.95   13.07
  -3  -3   1  314.79   11.33
   3   3  -1  326.77   12.26
  -3  -3   1  337.06   12.24
   3  -3  -1  323.07   12.77
   3  -3  -1  309.77   11.83
  -3   3   1  329.23   12.77
  -2  -3   1   11.02    0.95
   2  -3  -1   11.65    2.14
  -2  -3   1    9.99    1.85
   2   3  -1   13.66    2.28
  -2   3   1   10.12    2.14
   2  -3  -1   10.50    2.00
   2  -3  -1   11.29    2.33
  -2   3   1    9.07    2.30
  -2  -3   1   12.00    1.96
   2   3  -1   11.11    1.96
   1  -3  -1  186.32    7.49
   1  -3  -1  190.19    7.70
  -1   3   1  189.06    8.38
   1  -3  -1  187.36    8.08
  -1  -3   1  195.13    6.54
  -1   3   1  174.45    7.69
  -1  -3   1  187.56    7.67
   1   3  -1  183.69    7.49
   1   3  -1  174.82    7.71
   0   3  -1  525.78   17.89
   0   3   1  534.07   17.63
   0   3   1  507.10   17.16
   0   3   1  511.79   16.55
   0  -3  -1  527.08   16.96
   0  -3   1  501.16   16.04
   0   3   1  543.67   17.29
   0  -3   1  528.43   16.25
   0   3  -1  524.44   17.79
   0  -3   1  521.23   17.49
   1  -3   1  358.88   13.07
   1  -3   1  343.77   11.72
  -1   3  -1  341.40   13.32
   1   3   1  358.16   12.13
   1   3   1  361.74   12.49
   1   3   1  344.48   12.67
   1   3   1  350.29   11.56
  -1  -3  -1  352.53   11.90
   1  -3   1  361.53   12.24
  -1  -3  -1  352.16   11.36
  -1   3  -1  351.54   13.22
  -2  -3  -1  510.02   15.84
   2  -3   1  471.53   17.63
   2   3   1  474.64   16.86
  -2  -3  -1  501.86   15.02
   2   3   1  498.18   16.37
   2  -3   1  512.53   16.93
   2  -3   1  500.97   16.19
   2  -3   1  510.69   18.53
   2   3   1  508.75   15.35
  -2   3  -1  487.17   17.89
  -2  -3  -1  508.47   16.26
  -3  -3  -1  391.31   11.99
   3  -3   1  408.15   15.22
  -3  -3  -1  379.72   12.42
   3   3   1  370.30   13.41
   3  -3   1  383.58   15.66
   3  -3   1  373.92   13.58
  -3  -3  -1  399.97   13.49
  -3   3  -1  397.55   15.26
   3   3   1  380.91   14.25
   3   3   1  383.01   12.24
   3  -3   1  370.96   14.27
   4  -3   1   18.07    3.54
  -4   3  -1   14.82    3.27
   4   3   1   21.71    2.65
   4  -3   1   11.44    2.53
  -4  -3  -1   20.83    2.63
   4   3   1   16.29    1.96
  -4  -3  -1   18.96    2.01
  -4  -3  -1   20.73    2.06
   4   3   1   21.34    3.58
   4  -3   1   16.69    3.29
  -5  -3  -1  155.59    6.24
   5  -3   1  163.66    8.40
   5  -3   1  159.11    9.61
  -5  -3  -1  151.81    7.69
   5  -3   1  146.66    8.72
   5   3   1  152.17    7.72
   5   3   1  155.05    6.57
  -5   3  -1  159.22    9.23
   5   3   1  164.18    8.90
   6  -3   1   14.79    3.59
   6   3   1   15.10    2.52
   6  -3   1   20.24    4.02
   6   3   1   15.13    3.82
  -6   3  -1   15.44    4.12
   6  -3   1   17.81    4.09
   6   3   1   15.28    3.14
   7  -3   1  142.61    9.47
   7  -3   1  134.76    9.99
   7   3   1  128.56    9.03
   7  -3   1  139.28    9.06
   7   3   1  127.27    8.14
  -7   3  -1  133.69    9.26
   8  -3   1   16.46    4.49
   8   3   1   16.66    4.11
   8   3   1   18.08    4.76
   8  -3   1   17.24    4.97
  -8   3  -1    6.85    3.63
   9  -3   1   17.75    5.41
   9   3   1   30.46    6.33
  -9   3  -1   27.55    6.22
   9  -3   1   27.20    5.81
  10  -3   1    6.54    4.85
  10   3   1   11.84    5.35
  10   4  -1    7.61    5.22
  -9   4   1   -2.75    2.98
   9  -4  -1    8.71    4.35
   9  -4  -1    6.76    4.15
   9   4  -1    1.68    3.66
  -8   4   1  110.47    9.72
   8  -4  -1  116.49    9.06
   8  -4  -1  123.96    9.83
   8   4  -1  102.02    8.79
   7  -4  -1   29.09    5.79
  -7   4   1   32.16    6.02
   7   4  -1   31.56    4.64
   7  -4  -1   28.91    5.16
   7  -4  -1   35.95    5.74
   7   4  -1   26.58    4.88
  -6  -4   1  172.90    8.23
   6  -4  -1  163.40   10.82
   6   4  -1  196.31   10.46
  -6   4   1  158.19   10.47
   6  -4  -1  173.81   10.46
   6  -4  -1  174.30    9.92
   6   4  -1  165.17    9.43
   5  -4  -1   58.50    5.62
   5  -4  -1   51.70    5.95
   5   4  -1   39.37    5.00
   5   4  -1   38.40    4.37
  -5   4   1   49.85    6.00
   5  -4  -1   42.01    5.31
  -5  -4   1   45.65    3.97
   4  -4  -1   68.72    5.29
  -4  -4   1   68.19    5.06
  -4   4   1   66.96    6.49
   4   4  -1   67.49    5.45
   4  -4  -1   70.44    5.66
  -4  -4   1   62.35    4.48
   4  -4  -1   67.54    5.95
   4   4  -1   68.22    5.05
  -3   4   1  171.73    9.72
   3  -4  -1  194.55    8.84
   3  -4  -1  185.83    9.80
  -3  -4   1  183.22    8.14
  -3  -4   1  197.20    8.77
   3   4  -1  188.47    8.90
   3   4  -1  194.15    8.88
   2  -4  -1  188.68    9.26
   2  -4  -1  189.28    8.39
  -2  -4   1  186.05    6.36
  -2   4   1  180.95    8.84
   2   4  -1  185.31    8.54
  -2  -4   1  187.54    8.33
   2   4  -1  181.65    8.48
  -2   4   1  185.69    9.60
  -2  -4   1  190.49    8.35
   2  -4  -1  186.91    8.77
  -1  -4   1   98.06    4.74
  -1  -4   1  104.86    5.68
   1  -4  -1   89.19    5.38
   1   4  -1  102.47    5.85
   1   4  -1   96.12    5.68
  -1   4   1  101.33    5.81
  -1   4   1  108.55    6.65
   1   4  -1  104.79    6.26
   1  -4  -1   91.76    5.81
   1  -4  -1  102.70    5.63
   0   4   1   92.86    5.82
   0   4   1   87.03    5.73
   0   4  -1   93.96    5.67
   0  -4   1   87.94    5.28
   0  -4  -1   84.70    4.83
   0   4   1   86.01    5.09
   0  -4  -1   76.61    4.87
   0  -4   1   87.25    4.79
   0   4   1   87.03    5.04
   0   4  -1   89.05    6.05
   1  -4   1  140.24    6.79
   1   4   1  156.93    7.08
  -1  -4  -1  156.41    6.81
   1   4   1  157.46    6.76
   1  -4   1  155.06    7.16
  -1   4  -1  150.23    8.33
   1  -4   1  156.30    7.78
   1  -4   1  141.80    8.13
   1   4   1  159.68    8.01
   1   4   1  160.24    7.69
  -2  -4  -1   12.56    2.00
   2   4   1    9.90    2.70
  -2   4  -1   11.58    3.05
   2  -4   1   11.45    2.94
   2   4   1   10.49    2.00
   2   4   1    9.59    1.77
   2  -4   1   11.15    2.31
   2  -4   1   11.34    2.57
   3  -4   1   60.19    5.04
   3   4   1   68.22    3.83
  -3  -4  -1   67.03    4.04
   3  -4   1   70.19    4.92
   3   4   1   71.75    4.50
  -3   4  -1   67.77    5.89
   3   4   1   67.82    5.47
  -3  -4  -1   67.81    4.31
   3  -4   1   72.61    6.02
  -3  -4  -1   70.98    3.62
  -4  -4  -1    3.94    1.87
  -4   4  -1    4.81    2.75
   4  -4   1    3.50    2.24
   4  -4   1    3.65    2.02
   4   4   1    7.60    1.63
  -4  -4  -1    7.51    1.83
   4   4   1    5.27    2.00
   4   4   1    4.12    2.50
   4  -4   1    6.07    2.87
  -5   4  -1  318.39   15.44
   5   4   1  308.46   14.45
   5  -4   1  338.48   15.14
   5  -4   1  349.49   14.35
   5  -4   1  368.59   16.71
   5   4   1  329.92   13.54
  -5  -4  -1  349.36   13.63
  -6   4  -1   15.73    4.45
   6  -4   1   23.10    4.43
   6  -4   1   13.41    3.94
   6  -4   1   20.87    4.73
   6   4   1   28.72    5.12
   6   4   1   22.95    3.72
  -7   4  -1    4.71    3.47
   7   4   1   10.97    4.32
   7  -4   1   11.60    3.88
   7  -4   1    5.12    3.17
  -8   4  -1    6.28    4.15
   8  -4   1    8.81    3.88
   8   4   1   17.95    5.05
   8  -4   1    3.71    3.62
   9   4   1    4.14    4.70
  -9   4  -1    2.78    4.01
   9  -4   1    4.35    4.24
   9  -4   1    3.66    3.84
   9   5  -1   21.84    6.05
   8  -5  -1   18.35    5.25
   8   5  -1    5.06    4.33
   8  -5  -1   -0.83    3.42
  -8   5   1   10.55    4.79
   7  -5  -1    8.24    3.77
   7  -5  -1    9.29    3.90
   7   5  -1   10.74    4.10
  -7   5   1    8.77    4.11
   6   5  -1   17.63    4.45
   6  -5  -1   14.66    3.90
  -6   5   1   14.32    4.27
   6  -5  -1   12.82    3.97
   6   5  -1   13.26    3.56
   6  -5  -1   20.29    4.90
   5  -5  -1    3.44    2.69
   5   5  -1    1.50    2.69
   5   5  -1    1.31    2.18
  -5   5   1    4.19    3.00
  -5  -5   1    4.08    2.28
   5  -5  -1    3.43    2.78
   5  -5  -1    2.02    2.65
   4  -5  -1   60.50    6.42
   4  -5  -1   49.00    5.58
   4  -5  -1   58.65    5.65
   4   5  -1   67.90    6.30
   4   5  -1   47.65    5.00
  -4   5   1   47.31    6.23
  -4  -5   1   55.28    4.58
  -3  -5   1  106.47    6.50
  -3   5   1  104.60    8.23
   3   5  -1  122.54    7.61
   3  -5  -1  123.19    7.33
   3   5  -1  121.56    7.30
   3  -5  -1  116.65    8.01
   2  -5  -1   52.50    4.83
  -2   5   1   46.42    5.71
   2   5  -1   47.91    4.98
  -2  -5   1   46.07    4.53
  -2  -5   1   50.32    3.05
  -2   5   1   44.82    4.92
   2   5  -1   41.38    4.42
   2  -5  -1   42.86    4.89
   1  -5  -1  353.22   13.39
  -1  -5   1  348.57   12.75
   1   5  -1  351.59   14.19
  -1   5   1  341.83   13.55
   1  -5  -1  308.33   13.91
  -1   5   1  346.03   14.95
  -1  -5   1  325.41   11.62
   0   5  -1    1.65    2.25
   0   5   1    1.12    1.65
   0  -5  -1    0.67    1.38
   0   5   1    1.94    1.67
   0   5   1   -0.45    1.82
   0  -5  -1    1.60    1.74
   0  -5  -1    3.72    2.00
   0   5  -1    2.65    1.88
   0  -5   1    1.64    1.58
   0  -5   1    2.42    1.77
   1   5   1  243.10   11.63
  -1   5  -1  241.81   12.26
   1  -5   1  245.87   10.45
   1   5   1  263.24   10.30
   1  -5   1  261.57   10.55
  -1   5  -1  256.08   11.95
   1  -5   1  239.83   12.16
   1   5   1  255.17   10.93
   1   5   1  260.39   11.68
  -1  -5  -1  250.17   10.35
   2   5   1  294.17   11.75
  -2   5  -1  276.75   13.60
   2   5   1  303.31   10.71
  -2  -5  -1  283.60   11.20
   2  -5   1  258.69   11.73
   2   5   1  259.34   12.49
   2  -5   1  283.70   11.59
   2  -5   1  272.86   13.49
   3  -5   1    5.09    2.44
  -3  -5  -1    1.98    1.75
   3   5   1    7.06    2.17
   3   5   1    0.92    2.35
   3   5   1    4.14    1.56
   3  -5   1    2.74    2.24
  -3   5  -1    2.68    2.49
  -3  -5  -1    4.51    1.95
   3  -5   1    1.81    2.46
   4  -5   1   71.62    5.88
   4   5   1   77.84    7.19
   4  -5   1   81.19    7.43
  -4   5  -1   57.83    6.76
   4   5   1   82.08    5.55
   4  -5   1   76.32    6.45
  -4  -5  -1   71.05    4.65
   5   5   1  130.78    7.47
   5  -5   1  111.54    8.38
   5  -5   1  126.76    9.63
   5  -5   1  114.68    7.91
  -5   5  -1   82.26    8.49
   5   5   1  112.10    8.44
  -6   5  -1   33.14    6.12
   6  -5   1   32.80    6.29
   6  -5   1   29.66    5.47
   6  -5   1   30.42    5.25
   6   5   1   33.18    5.86
  -7   5  -1    7.08    4.00
   7   5   1    3.92    4.01
   7  -5   1    1.98    3.34
   7  -5   1    0.46    2.91
   8   5   1    2.76    4.14
  -8   5  -1    2.51    3.66
   8  -5   1   -0.25    3.27
   8  -5   1    2.45    3.55
   9   5   1   77.52    9.84
   7  -6  -1    3.61    3.73
  -7   6   1    4.70    3.87
   7   6  -1    3.67    4.16
   7  -6  -1    3.95    3.62
   6   6  -1   17.29    5.25
   6  -6  -1   18.34    4.75
  -6   6   1   15.22    4.98
   6  -6  -1   13.07    4.11
   5  -6  -1   31.46    5.22
   5  -6  -1   35.00    5.95
  -5   6   1   27.07    5.77
   5  -6  -1   34.64    5.62
   5   6  -1   35.80    5.89
  -4   6   1  249.46   14.66
   4   6  -1  292.40   13.91
   4   6  -1  271.79   13.29
   4  -6  -1  274.39   13.58
  -4  -6   1  270.02   11.97
   4  -6  -1  273.68   13.18
   4  -6  -1  296.79   15.12
   3   6  -1   23.61    4.80
  -3  -6   1   20.72    3.74
   3  -6  -1   23.14    4.46
   3   6  -1   18.90    3.93
   3  -6  -1   16.66    3.79
  -3   6   1   15.23    4.63
   3  -6  -1   15.43    4.08
   2  -6  -1  288.65   12.60
  -2  -6   1  270.44   12.50
   2  -6  -1  250.33   13.23
   2   6  -1  288.39   13.31
   2   6  -1  282.47   13.12
  -2   6   1  275.81   14.38
  -2  -6   1  270.53   11.67
   1  -6  -1  136.07    8.66
  -1  -6   1  143.85    7.74
   1  -6  -1  138.36    8.07
  -1   6   1  134.50    9.37
   1   6  -1  154.40    9.06
  -1  -6   1  127.13    6.45
   0  -6   1   12.68    2.71
   0   6  -1    7.53    3.56
   0   6   1   14.45    3.87
   0   6  -1   12.09    3.26
   0  -6  -1   14.20    3.43
   0  -6   1    9.93    2.74
   0  -6  -1   14.94    3.44
   0   6   1   14.16    3.29
   1  -6   1   59.43    5.01
  -1   6  -1   62.42    7.14
  -1  -6  -1   61.45    5.24
   1  -6   1   48.67    5.93
   1   6   1   56.63    6.07
   1   6   1   57.05    5.18
   1   6   1   61.02    4.81
   1   6   1   51.75    6.11
   1  -6   1   55.92    4.82
   2  -6   1  134.69    9.48
  -2   6  -1  129.38    9.72
   2  -6   1  147.96    8.41
   2   6   1  143.99    9.45
   2   6   1  153.12    8.40
   2  -6   1  142.58    8.13
   2   6   1  148.60    7.28
  -3  -6  -1   78.22    5.55
   3   6   1   73.65    5.83
   3   6   1   91.69    7.73
  -3   6  -1   73.22    8.03
   3  -6   1   79.41    6.30
   3  -6   1   73.83    6.75
   3  -6   1   74.47    7.73
  -4   6  -1    6.50    3.69
   4  -6   1   10.15    4.10
   4  -6   1   10.24    3.52
   4  -6   1    4.64    3.06
   4   6   1    6.41    3.46
   5   6   1   12.97    4.84
   5  -6   1    7.22    3.32
   5  -6   1   13.98    4.55
  -5   6  -1    8.22    4.00
   6   6   1   12.19    4.76
   6  -6   1    6.92    3.93
   6  -6   1   10.72    4.12
  -6   6  -1   11.75    4.77
   7  -6   1    0.06    3.28
   7  -6   1    1.81    3.17
  -7   6  -1    1.61    3.64
   7   6   1    6.13    4.49
   8   6   1   36.62    7.79
   6  -7  -1   12.72    4.80
  -6   7   1   12.47    4.99
   6  -7  -1   20.69    5.33
   5  -7  -1   48.39    6.70
   5   7  -1   43.86    6.84
   5  -7  -1   42.73    6.65
  -5   7   1   54.68    8.52
   4  -7  -1   24.78    5.10
   4   7  -1   22.32    5.74
   4  -7  -1   35.43    5.87
  -4   7   1   22.12    6.02
  -3  -7   1  168.34    9.25
   3  -7  -1  125.35    9.06
   3  -7  -1  176.65   11.45
  -3   7   1  165.73   11.95
  -3  -7   1  153.04    9.18
   3   7  -1  188.37   11.37
   3  -7  -1  170.03   10.11
   2  -7  -1   84.13    6.74
   2   7  -1   95.27    7.92
  -2  -7   1   82.80    6.98
  -2   7   1   91.74    9.27
   2  -7  -1   82.11    7.53
  -2  -7   1   81.81    6.31
   2  -7  -1   93.17    7.19
   1  -7  -1   48.34    6.02
   1  -7  -1   44.57    5.52
  -1  -7   1   43.26    5.22
  -1   7   1   61.70    7.84
   1   7  -1   57.65    6.50
   0  -7  -1   49.75    5.85
   0  -7  -1   50.90    5.79
   0   7  -1   47.21    6.17
   0  -7   1   42.61    6.01
   0  -7   1   65.87    6.03
   0   7  -1   49.67    7.05
   0  -7   1   44.96    4.55
   0   7   1   47.33    6.87
   1  -7   1   44.13    4.92
  -1   7  -1   44.11    6.93
  -1  -7  -1   41.33    5.30
   1  -7   1   42.40    5.26
   1  -7   1   37.17    5.95
  -2  -7  -1   53.68    5.71
   2  -7   1   42.55    6.54
   2   7   1   55.93    7.47
  -2  -7  -1   57.71    6.07
   2  -7   1   54.74    5.84
  -2   7  -1   61.37    8.08
   2  -7   1   50.18    5.61
   3  -7   1   40.88    5.71
  -3   7  -1   32.66    6.58
   3  -7   1   33.76    5.28
   3  -7   1   34.55    6.24
   3   7   1   43.79    7.13
  -4   7  -1   19.19    5.29
   4   7   1   20.72    5.42
   4  -7   1   25.55    5.22
   4  -7   1   21.39    5.02
   5   7   1    0.00    3.62
   5  -7   1   -1.12    2.95
  -5   7  -1    2.85    3.70
   5  -7   1    5.76    3.69
  -6   7  -1   11.01    5.00
   6  -7   1    5.86    4.20
   6  -7   1   14.01    4.71
   6   7   1    8.04    5.31
   7   7   1    9.60    5.43
   5  -8  -1   -0.10    3.29
   5  -8  -1   -1.98    3.29
   4  -8  -1    7.68    3.98
   4  -8  -1    7.72    4.39
  -4   8   1   14.22    5.86
   3  -8  -1    1.90    3.39
  -3  -8   1    1.34    2.65
   3  -8  -1   -1.87    2.87
  -3   8   1    5.55    4.65
   2  -8  -1   74.95    7.68
  -2  -8   1   55.28    6.07
   2  -8  -1   57.45    6.46
  -2  -8   1   45.16    6.11
  -2   8   1   52.95    8.45
   1  -8  -1   22.16    4.77
  -1   8   1   24.41    6.47
  -1  -8   1   12.48    3.74
  -1  -8   1   17.28    4.64
   0  -8  -1    4.00    3.04
   0   8   1    2.91    3.88
   0  -8   1    2.87    2.70
  -1   8  -1   20.28    6.16
  -1  -8  -1   13.39    4.11
   1  -8   1    7.11    3.52
  -2  -8  -1    5.19    3.22
  -2   8  -1    9.58    5.12
   2  -8   1    3.73    3.45
   2  -8   1    6.72    3.45
  -3   8  -1   23.14    6.47
   3  -8   1   23.85    5.19
  -3  -8  -1   21.95    4.73
   3  -8   1   21.79    4.99
   3   8   1   27.70    6.49
   4  -8   1   79.08    8.29
   4  -8   1   81.02    8.32
  -4   8  -1   83.74   10.46
   4   8   1   97.53   10.69
   5  -8   1   27.06    6.01
   5   8   1   28.17    7.13
   5  -8   1   25.91    6.27
   2  -9  -1   26.36    5.88
   1  -9  -1   -0.62    3.11
   0  -9  -1   -0.13    3.08
  -1  -9  -1    2.58    3.41
   1  -9   1    2.26    3.45
   2  -9   1    5.31    3.80
  -2  -9  -1    3.24    3.41
  10   0  -2    0.48    3.26
   9   0  -2    3.05    2.91
   9   0  -2    1.11    2.78
  -9   0   2    0.38    2.41
   8   0  -2   -0.40    2.31
  -8   0   2    0.27    2.16
   8   0  -2    2.90    2.76
   8   0  -2   -1.77    1.99
  -7   0   2   34.34    4.22
   7   0  -2   28.62    4.63
   7   0  -2   42.73    4.99
   7   0  -2   31.97    4.04
   6   0  -2  289.03   11.68
   6   0  -2  293.87   12.00
  -6   0   2  291.35   12.01
   6   0  -2  297.94   13.36
   5   0  -2 1214.50   38.30
   5   0  -2 1170.96   34.96
  -5   0   2 1148.28   36.03
   5   0  -2 1191.36   35.09
   4   0  -2    4.53    1.62
  -4   0   2   -0.57    1.00
  -4   0   2    1.58    1.19
   4   0  -2    2.50    1.11
   4   0  -2    4.50    1.46
   3   0  -2   57.92    3.75
  -3   0   2   57.10    3.27
  -3   0   2   64.97    3.32
   3   0  -2   61.38    3.29
  -3   0   2   63.42    3.82
   3   0  -2   60.84    3.51
  -3   0   2   60.97    3.65
  -2   0   2  941.34   27.39
   2   0  -2  930.17   29.29
  -2   0   2  959.28   28.44
  -2   0   2  949.80   26.83
   2   0  -2  958.75   26.94
   2   0  -2  979.11   27.45
   2   0  -2 1019.77   28.55
  -2   0   2  989.93   29.37
   1   0  -2 5012.30  134.97
   1   0  -2 4863.21  141.17
  -1   0   2 4963.39  131.81
   1   0  -2 4976.77  131.40
  -1   0   2 4677.80  135.07
  -1   0   2 4939.64  132.26
   1   0  -2 4785.41  132.18
  -1   0   2 4664.61  139.34
   0   0  -2  423.01   13.14
   0   0   2  439.62   12.83
   0   0   2  443.42   13.18
   0   0  -2  446.62   12.79
   0   0  -2  422.19   12.57
   0   0   2  439.23   12.64
   0   0  -2  417.59   12.23
   0   0   2  426.76   12.32
  -1   0  -2 2459.40   70.25
   1   0   2 2474.58   67.62
  -1   0  -2 2577.28   68.29
   1   0   2 2483.62   68.35
   1   0   2 2528.66   72.41
   1   0   2 2491.79   72.64
  -1   0  -2 2491.34   67.46
   2   0   2 4479.45  121.93
  -2   0  -2 4703.94  123.03
  -2   0  -2 4589.24  126.33
  -2   0  -2 4545.03  121.77
   2   0   2 4444.69  130.49
  -2   0  -2 4674.49  130.59
   2   0   2 4288.26  122.96
   3   0   2   70.82    4.15
  -3   0  -2   79.67    4.50
   3   0   2   77.79    4.22
  -3   0  -2   69.56    3.56
   3   0   2   70.59    4.11
  -4   0  -2  215.18    9.23
   4   0   2  190.04    8.77
  -4   0  -2  206.71    7.88
   4   0   2  202.11    8.48
   4   0   2  209.62    8.69
   5   0   2   19.19    3.00
  -5   0  -2   20.48    3.30
   5   0   2   24.48    3.42
  -5   0  -2   22.00    2.69
   5   0   2   17.00    2.98
   6   0   2    9.32    2.82
  -6   0  -2    8.16    2.35
   6   0   2    5.60    2.40
   6   0   2    7.19    2.54
  -7   0  -2  118.04    6.81
   7   0   2  110.23    7.47
   7   0   2  110.38    7.93
   7   0   2  115.26    7.87
   8   0   2   64.06    7.09
   8   0   2   53.94    5.95
   8   0   2   65.52    7.08
   9   0   2    5.81    3.52
   9   0   2    4.42    3.67
  10   0   2    4.43    3.80
  10   0   2    3.50    4.24
  11   1  -2   20.61    5.90
  10   1  -2   43.30    6.80
  10  -1  -2   36.13    6.28
  10  -1  -2   40.04    6.50
  -9   1   2   15.68    4.58
   9  -1  -2   29.24    5.19
   9  -1  -2   27.24    5.59
   9   1  -2   22.97    5.05
   8   1  -2    8.81    3.60
  -8  -1   2    7.56    2.82
   8  -1  -2    3.00    2.97
  -8   1   2    6.53    3.12
   8  -1  -2    6.43    3.17
   8   1  -2    3.58    2.61
   8   1  -2    5.61    2.50
   8  -1  -2    6.69    3.13
   7   1  -2   21.14    3.31
   7  -1  -2   28.87    4.36
  -7   1   2   23.51    4.10
   7  -1  -2   31.87    4.63
   7   1  -2   36.39    4.65
   7   1  -2   27.29    4.48
  -7  -1   2   25.14    3.69
   7  -1  -2   22.20    4.40
   6  -1  -2  487.44   19.48
  -6  -1   2  488.40   17.31
  -6   1   2  495.93   18.27
   6   1  -2  470.87   18.90
   6   1  -2  502.89   16.49
   6  -1  -2  482.93   17.66
   6   1  -2  498.15   17.40
   6  -1  -2  490.35   17.81
  -5   1   2  257.52   10.97
   5  -1  -2  248.27   10.56
  -5  -1   2  271.57   11.39
   5  -1  -2  248.81   11.54
   5   1  -2  264.84   10.24
   5  -1  -2  269.53   10.66
   5   1  -2  263.08   11.42
   5   1  -2  263.82    9.48
  -5  -1   2  255.03   10.29
   4   1  -2   79.36    4.21
   4   1  -2   89.35    4.12
   4   1  -2   94.75    4.69
  -4   1   2   86.82    5.52
   4  -1  -2   87.98    5.47
  -4   1   2   82.23    5.16
  -4  -1   2   94.81    4.98
  -4  -1   2   90.67    5.31
   4  -1  -2   87.75    4.84
   4   1  -2   98.44    5.45
  -3   1   2   29.81    2.85
   3   1  -2   25.23    2.10
   3   1  -2   25.50    2.57
   3  -1  -2   22.38    2.53
  -3  -1   2   28.98    2.72
   3   1  -2   15.65    1.48
   3  -1  -2   21.81    2.25
  -3  -1   2   25.18    2.14
  -3  -1   2   24.58    2.38
  -3   1   2   22.41    2.55
   3   1  -2   24.51    1.66
  -3   1   2   19.43    2.36
   2   1  -2  194.44    6.83
   2   1  -2  183.76    5.59
  -2  -1   2  186.86    5.92
  -2  -1   2  178.40    7.00
  -2   1   2  179.37    6.44
  -2  -1   2  176.22    5.56
  -2  -1   2  171.75    6.63
   2   1  -2  165.85    6.88
   2  -1  -2  176.03    6.44
  -2   1   2  179.01    6.94
  -2   1   2  183.12    7.09
  -2   1   2  184.49    7.13
   2  -1  -2  187.58    7.06
   2  -1  -2  177.88    7.01
   2   1  -2  175.45    5.92
  -1   1   2  780.78   22.91
   1   1  -2  760.99   21.50
   1   1  -2  808.94   22.86
   1   1  -2  752.34   23.48
  -1   1   2  782.11   21.86
  -1   1   2  765.18   23.23
  -1  -1   2  776.97   23.49
   1  -1  -2  743.88   21.80
  -1  -1   2  761.95   22.74
   1  -1  -2  773.51   23.21
   1  -1  -2  760.80   22.15
  -1  -1   2  770.31   21.35
  -1   1   2  701.90   22.29
   1  -1  -2  770.11   22.41
  -1  -1   2  785.92   21.65
   1  -1  -2  792.47   22.89
   1   1  -2  807.90   21.59
   0   1   2 1651.69   47.56
   0   1  -2 1724.99   50.53
   0   1   2 1754.48   48.72
   0  -1   2 1690.58   47.30
   0   1   2 1744.26   52.84
   0  -1  -2 1782.90   47.58
   0   1  -2 1706.81   47.24
   0  -1   2 1762.84   49.10
   0  -1   2 1693.87   50.39
   0   1   2 1663.67   47.35
   0  -1  -2 1724.86   53.15
   0  -1  -2 1694.86   47.24
   0  -1   2 1726.65   46.96
   0  -1  -2 1787.27   48.59
   1   1   2  644.17   18.73
  -1   1  -2  638.33   19.59
  -1  -1  -2  641.74   19.47
   1   1   2  675.91   19.54
   1   1   2  640.12   19.50
   1  -1   2  638.86   18.97
  -1   1  -2  632.23   18.31
  -1   1  -2  634.81   20.13
  -1  -1  -2  643.20   18.88
   1  -1   2  634.20   18.33
  -1  -1  -2  670.01   18.70
   1  -1   2  600.69   20.02
   1  -1   2  684.46   19.81
  -1   1  -2  656.32   19.00
  -1  -1  -2  614.45   19.25
   1   1   2  617.10   18.95
  -2   1  -2  677.17   21.23
   2  -1   2  651.48   19.11
   2  -1   2  604.52   20.91
  -2   1  -2  647.52   20.02
   2   1   2  633.77   19.46
   2   1   2  653.06   19.06
  -2  -1  -2  659.16   19.68
  -2  -1  -2  674.26   19.03
   2   1   2  578.43   19.50
   2  -1   2  651.79   20.68
   3   1   2 1504.41   42.37
   3   1   2 1494.25   44.62
   3   1   2 1601.81   42.23
   3  -1   2 1449.07   45.81
  -3   1  -2 1526.71   46.07
  -3   1  -2 1441.60   43.78
  -3  -1  -2 1508.35   44.61
  -3  -1  -2 1470.77   42.27
   3   1   2 1432.77   42.65
   4  -1   2  201.64    9.81
   4   1   2  237.12    9.38
   4  -1   2  235.23    9.39
  -4   1  -2  222.59    9.21
   4   1   2  236.44    7.70
   4   1   2  224.06    9.48
  -4  -1  -2  225.25    7.66
   4  -1   2  211.70    9.35
  -4  -1  -2  220.28    9.24
   4   1   2  229.24    8.85
  -4   1  -2  233.89   10.42
   5   1   2  106.59    6.59
  -5  -1  -2  115.06    5.13
  -5   1  -2  121.27    6.56
   5   1   2  116.01    6.13
   5   1   2  125.34    6.68
   5  -1   2  115.14    7.11
   5  -1   2  120.83    6.76
  -5  -1  -2  121.88    6.73
   5  -1   2  108.53    6.65
  -6   1  -2   39.40    4.41
  -6  -1  -2   39.90    3.38
   6   1   2   42.63    5.02
   6   1   2   43.78    4.50
   6  -1   2   40.40    4.71
   6   1   2   34.92    3.95
   6  -1   2   41.24    4.92
   6  -1   2   36.76    4.56
   7  -1   2  131.51    8.50
   7   1   2  126.77    8.36
   7   1   2  137.70    8.90
   7   1   2  143.09    8.09
   7  -1   2  131.82    8.95
   7  -1   2  124.98    8.34
  -7   1  -2  134.45    8.13
   8   1   2   30.60    5.13
   8  -1   2   30.05    5.09
   8  -1   2   35.25    5.70
   8   1   2   37.71    6.01
   8  -1   2   35.83    5.51
   8   1   2   35.31    5.04
  -8   1  -2   36.70    5.11
   9  -1   2   17.00    4.76
   9  -1   2    7.36    3.93
   9   1   2    7.25    3.59
   9   1   2   10.60    4.34
   9   1   2    6.75    3.80
  10  -1   2   27.30    6.16
  10   1   2   35.05    7.10
  10  -1   2   32.40    6.45
  11  -2  -2    0.46    4.62
  10  -2  -2   33.02    6.84
  10   2  -2   35.81    6.81
  10  -2  -2   25.26    6.11
 -10   2   2   25.39    5.85
  -9   2   2   22.86    5.15
   9   2  -2   23.60    5.21
   9   2  -2   17.41    4.58
   9  -2  -2   25.26    5.38
   9  -2  -2   23.23    5.46
   8   2  -2   44.56    5.92
  -8  -2   2   35.53    4.37
   8  -2  -2   31.94    5.41
   8  -2  -2   42.07    5.81
   8   2  -2   38.31    5.60
  -8   2   2   30.23    5.30
   8  -2  -2   28.30    5.34
  -7  -2   2  258.98   11.26
   7  -2  -2  256.99   12.51
   7  -2  -2  282.00   14.10
   7   2  -2  275.80   13.31
   7   2  -2  283.09   10.49
   7   2  -2  261.24   12.17
   7  -2  -2  271.41   12.94
  -7   2   2  264.17   13.09
   6  -2  -2  257.71   12.94
   6  -2  -2  274.04   11.96
   6  -2  -2  273.17   12.28
   6   2  -2  259.17   11.38
  -6   2   2  289.56   12.80
  -6  -2   2  286.85   11.23
   6   2  -2  242.28   12.03
   6   2  -2  271.32    9.66
  -5   2   2  132.60    7.79
   5  -2  -2  130.15    7.46
   5   2  -2  139.65    5.44
   5   2  -2  143.04    5.77
  -5  -2   2  132.07    6.75
   5  -2  -2  141.12    8.02
   5  -2  -2  146.93    7.45
   5   2  -2  143.20    7.04
   5   2  -2  135.93    7.52
   4   2  -2  939.00   26.50
   4   2  -2  936.02   30.54
   4  -2  -2  920.97   31.17
  -4   2   2  969.76   31.67
  -4  -2   2  938.43   29.01
  -4   2   2  963.34   29.80
  -4  -2   2  970.77   30.65
   4   2  -2  995.90   26.75
   4  -2  -2  937.17   28.82
  -4   2   2  920.55   30.34
   4   2  -2  922.68   28.21
   3   2  -2  459.58   14.31
   3  -2  -2  444.90   16.00
  -3   2   2  437.37   16.23
  -3  -2   2  473.06   15.74
   3  -2  -2  422.33   14.65
  -3   2   2  428.04   15.40
  -3   2   2  448.27   15.90
   3   2  -2  450.73   15.67
  -3  -2   2  451.59   14.81
   2   2  -2  367.50   11.31
  -2  -2   2  374.91   12.59
   2  -2  -2  329.64   11.65
   2  -2  -2  364.60   12.65
  -2   2   2  339.10   12.62
  -2  -2   2  357.98   10.99
  -2  -2   2  354.46   11.96
  -2   2   2  336.65   12.35
  -2   2   2  368.86   12.90
   2   2  -2  349.89   12.53
  -1  -2   2  201.71    6.66
  -1   2   2  203.22    7.65
  -1   2   2  191.39    7.64
   1   2  -2  197.56    6.75
  -1  -2   2  196.72    6.19
  -1  -2   2  204.31    7.67
  -1  -2   2  201.78    6.19
   1  -2  -2  208.86    7.53
   1   2  -2  193.04    7.76
   1  -2  -2  197.31    7.33
  -1  -2   2  203.22    7.76
  -1   2   2  192.64    7.77
   0  -2  -2 1552.78   42.46
   0   2   2 1448.20   41.62
   0  -2   2 1501.37   41.11
   0  -2   2 1451.08   40.66
   0  -2   2 1472.58   40.42
   0  -2  -2 1504.71   43.15
   0  -2  -2 1481.09   41.46
   0  -2  -2 1489.63   43.40
   0   2   2 1496.43   42.64
   0   2  -2 1374.13   44.12
   0   2  -2 1433.31   43.21
   0  -2   2 1496.29   44.12
   1  -2   2 2540.43   69.75
  -1   2  -2 2511.67   75.54
  -1   2  -2 2660.78   70.96
   1   2   2 2637.49   72.33
   1   2   2 2634.95   74.56
   1  -2   2 2554.26   75.43
  -1   2  -2 2553.32   73.58
  -1  -2  -2 2652.17   74.41
  -1   2  -2 2614.52   69.74
   1   2   2 2497.53   70.86
  -1  -2  -2 2556.87   71.92
   1   2   2 2455.96   70.52
  -1  -2  -2 2640.83   70.42
   1  -2   2 2439.26   70.85
  -2   2  -2   56.60    4.01
   2  -2   2   49.84    3.19
   2  -2   2   52.26    3.85
  -2  -2  -2   55.32    2.27
  -2  -2  -2   51.60    2.33
   2   2   2   52.07    3.77
   2   2   2   53.74    2.65
   2  -2   2   54.47    3.68
   2   2   2   51.80    3.01
  -2  -2  -2   51.01    2.94
   2  -2   2   48.72    3.89
  -2  -2  -2   53.89    2.66
   3   2   2 1336.44   40.01
  -3   2  -2 1315.84   40.66
   3  -2   2 1284.74   42.32
  -3  -2  -2 1367.69   40.00
   3  -2   2 1342.01   39.62
  -3  -2  -2 1451.01   38.15
   3  -2   2 1338.62   38.59
   3   2   2 1298.87   38.02
   3   2   2 1301.62   39.25
   3  -2   2 1322.95   41.77
   4   2   2  184.09    7.44
   4  -2   2  176.60    9.38
  -4  -2  -2  186.82    5.98
   4   2   2  181.89    7.77
  -4  -2  -2  189.13    7.86
  -4   2  -2  173.82    8.65
   4   2   2  188.88    8.79
   4  -2   2  175.67    8.61
   4  -2   2  183.58    8.25
   5   2   2    6.10    1.94
   5  -2   2    9.40    2.66
  -5  -2  -2   10.69    2.33
   5   2   2    7.10    1.97
   5   2   2    7.45    1.36
   5  -2   2   10.43    2.92
  -5   2  -2   12.13    3.11
   5  -2   2    6.78    2.29
  -5  -2  -2    7.25    1.22
   5   2   2    3.52    2.22
   6   2   2  142.53    7.97
   6  -2   2  158.53    8.73
   6   2   2  160.83    9.16
   6   2   2  152.81    7.56
   6  -2   2  149.51    8.85
  -6   2  -2  154.99    8.92
   6  -2   2  127.76    9.00
   7   2   2  155.73    8.25
   7  -2   2  156.40   10.39
   7  -2   2  165.21    9.66
   7   2   2  163.58    9.22
   7  -2   2  147.70    9.57
  -7   2  -2  162.12    9.55
   7   2   2  176.01   10.33
   8  -2   2   54.94    6.74
   8   2   2   61.12    6.19
  -8   2  -2   51.88    6.33
   8   2   2   48.75    6.56
   8  -2   2   53.63    6.60
   8  -2   2   47.48    6.62
   9  -2   2   74.64    8.28
   9   2   2   75.33    8.84
   9  -2   2   97.11    9.22
  10  -2   2   34.76    7.20
  10   2   2   38.01    7.66
  10  -3  -2   93.47   10.06
  10  -3  -2   77.00    8.97
   9  -3  -2    9.24    4.35
   9   3  -2    4.49    3.73
  -9   3   2    6.51    3.93
   9  -3  -2    2.09    3.89
   8  -3  -2  154.98   10.36
   8  -3  -2  133.98    9.49
   8   3  -2  134.67    9.30
  -8   3   2  135.01   10.06
   8   3  -2  119.20    8.99
   7  -3  -2   80.91    7.47
  -7  -3   2   78.81    5.77
   7  -3  -2   85.86    7.76
   7   3  -2   78.31    6.68
  -7   3   2   73.09    7.47
   7   3  -2   94.32    7.20
   7  -3  -2   61.38    6.52
   6  -3  -2  107.21    7.30
   6   3  -2  106.99    7.24
  -6  -3   2  117.33    6.62
   6  -3  -2  120.36    8.24
   6  -3  -2  121.49    8.02
  -6   3   2  109.49    8.01
   6   3  -2  106.79    7.10
   5  -3  -2  136.87    7.68
  -5  -3   2  133.72    6.91
   5  -3  -2  133.90    8.39
  -5   3   2  139.69    8.47
   5   3  -2  141.43    7.41
   5  -3  -2  140.45    8.13
   5   3  -2  132.14    7.59
  -4   3   2  179.23    9.29
   4   3  -2  183.32    8.76
   4  -3  -2  175.71    8.41
  -4  -3   2  197.92    8.19
  -4   3   2  181.89    9.16
   4  -3  -2  173.29    9.17
  -4  -3   2  191.38    8.83
   4   3  -2  176.45    8.16
  -3  -3   2   96.15    5.48
  -3   3   2   86.92    6.01
  -3   3   2  101.67    6.07
   3   3  -2   86.55    4.98
  -3  -3   2   90.81    5.05
  -3   3   2  107.81    6.51
   3   3  -2   98.56    5.57
   3  -3  -2   90.44    5.80
   3  -3  -2   96.95    5.42
   2   3  -2  210.80    8.28
   2  -3  -2  212.56    8.85
  -2   3   2  207.40    9.51
   2   3  -2  214.87    9.09
  -2  -3   2  223.69    6.44
  -2  -3   2  226.59    9.06
   2  -3  -2  221.86    8.74
   2  -3  -2  205.33    9.09
  -2   3   2  215.13    9.25
  -2  -3   2  225.59    8.76
  -2   3   2  209.58    9.40
  -1  -3   2   34.96    2.24
  -1   3   2   38.30    3.43
   1   3  -2   26.47    2.88
   1  -3  -2   34.72    2.96
   1   3  -2   33.94    2.75
  -1  -3   2   39.62    3.16
   1  -3  -2   29.52    2.60
  -1  -3   2   34.91    2.70
   1  -3  -2   29.66    2.85
  -1  -3   2   35.97    2.17
  -1   3   2   38.14    3.59
   0  -3   2 1498.49   41.43
   0   3   2 1503.54   43.51
   0   3   2 1435.50   42.05
   0  -3  -2 1491.20   43.40
   0   3   2 1391.83   42.45
   0   3  -2 1447.77   44.87
   0  -3   2 1462.31   40.87
   0   3  -2 1477.82   44.17
   0  -3   2 1476.63   44.62
   0  -3   2 1455.90   41.37
   0  -3  -2 1455.49   43.84
  -1   3  -2  194.18    8.84
   1  -3   2  185.85    8.33
   1  -3   2  191.30    7.24
   1   3   2  190.34    7.65
  -1  -3  -2  195.26    6.91
   1   3   2  182.03    7.40
  -1   3  -2  186.53    8.58
   1  -3   2  185.12    7.71
   1   3   2  187.07    8.43
   2  -3   2  238.03   11.21
   2  -3   2  260.26   10.78
   2   3   2  251.21    9.04
  -2   3  -2  245.45   10.88
   2   3   2  241.73    8.83
   2  -3   2  252.20    9.41
   2   3   2  247.84   10.44
  -2  -3  -2  246.70    8.75
   2  -3   2  258.17   10.23
  -2  -3  -2  265.26    8.91
   3  -3   2  924.87   32.46
  -3  -3  -2  984.62   29.47
  -3  -3  -2  948.89   27.92
   3  -3   2  952.04   29.03
   3   3   2  909.71   29.93
  -3   3  -2  935.90   31.25
   3   3   2  983.33   28.27
  -3  -3  -2 1009.35   27.91
  -4  -3  -2  167.72    5.89
   4  -3   2  174.68    8.87
   4   3   2  165.57    7.33
   4   3   2  170.41    7.00
  -4  -3  -2  164.70    7.28
   4  -3   2  161.93    8.00
  -4   3  -2  162.38    9.01
   4  -3   2  157.95    9.43
  -4  -3  -2  166.83    5.92
   4   3   2  164.18    8.74
   5   3   2   83.23    5.27
  -5  -3  -2   82.70    5.30
   5  -3   2   77.69    5.85
   5  -3   2   81.40    6.93
   5  -3   2   84.05    6.45
   5   3   2   77.00    6.31
   5   3   2   89.97    4.98
  -5   3  -2   74.05    6.32
   6  -3   2    5.02    3.01
   6  -3   2    8.41    3.06
   6   3   2   11.62    3.70
   6   3   2   11.63    2.45
   6   3   2    9.79    2.64
   6  -3   2    9.56    3.19
  -6   3  -2    1.30    2.52
   7  -3   2   30.70    5.68
  -7   3  -2   37.01    5.79
   7  -3   2   27.61    5.13
   7  -3   2   42.73    5.70
   7   3   2   23.35    3.83
   7   3   2   37.82    5.94
   8   3   2   48.51    7.29
   8  -3   2   45.27    6.67
  -8   3  -2   33.96    6.08
   8  -3   2   51.86    6.79
   9  -3   2   30.47    6.23
  -9   3  -2   22.65    5.79
   9   3   2   22.71    5.87
   9  -3   2   25.17    6.01
  10   4  -2   13.49    5.48
   9  -4  -2   15.24    5.24
   9   4  -2   19.38    5.39
  -9   4   2   16.33    5.63
   9  -4  -2   14.45    5.05
   8   4  -2    7.03    3.67
   8  -4  -2    0.97    3.28
   8   4  -2    6.53    3.51
   8  -4  -2    8.16    3.83
  -8   4   2    5.76    3.87
   7   4  -2  135.79    8.99
  -7   4   2  120.79    9.51
   7  -4  -2  132.94   10.05
   7  -4  -2  134.93    9.08
   7  -4  -2  117.36    9.13
   7   4  -2  126.04    8.72
   6   4  -2  232.16   11.79
  -6  -4   2  258.89   10.74
   6   4  -2  227.24   11.38
   6  -4  -2  220.42   12.78
   6  -4  -2  223.43   11.60
   6  -4  -2  227.24   12.27
  -6   4   2  226.75   12.81
  -5   4   2   13.33    3.71
   5   4  -2   13.62    3.21
   5  -4  -2   11.94    3.14
   5  -4  -2   13.61    3.31
  -5  -4   2    8.19    2.44
   5  -4  -2   11.13    3.30
   5   4  -2   15.14    3.33
   4  -4  -2  370.95   15.87
   4  -4  -2  389.30   14.83
  -4   4   2  344.56   15.87
   4   4  -2  374.41   14.40
   4   4  -2  370.98   15.10
  -4  -4   2  391.09   14.15
  -3  -4   2   76.95    5.01
  -3  -4   2   85.98    5.52
   3  -4  -2   91.67    5.72
   3  -4  -2   83.58    5.97
  -3   4   2   83.93    6.10
   3   4  -2   75.56    5.27
   3   4  -2   88.79    5.70
  -3   4   2   80.45    6.33
  -2  -4   2   30.16    1.85
   2  -4  -2   33.21    3.45
  -2   4   2   28.56    4.08
  -2  -4   2   27.52    3.32
   2   4  -2   33.61    3.50
  -2   4   2   26.50    3.63
  -2  -4   2   29.23    3.37
   2  -4  -2   31.71    3.66
  -2  -4   2   31.30    1.95
   2   4  -2   28.27    3.37
   2  -4  -2   31.35    3.55
  -1   4   2  315.30   13.20
  -1  -4   2  317.77   12.66
   1  -4  -2  318.06   12.12
  -1  -4   2  340.47   10.96
   1  -4  -2  338.17   12.38
  -1  -4   2  326.68   11.33
   1  -4  -2  310.71   12.56
  -1  -4   2  329.84   10.75
   1   4  -2  331.02   13.17
  -1   4   2  314.01   12.49
   0  -4  -2  299.78   11.39
   0  -4   2  287.02   10.44
   0   4   2  292.67   11.27
   0   4  -2  284.56   12.21
   0   4   2  285.76   11.94
   0  -4  -2  300.36   10.80
   0   4   2  286.09   12.10
   0  -4   2  305.48   12.02
   0  -4   2  285.01   10.45
   0  -4  -2  286.15   11.26
   0   4  -2  295.46   12.57
   1  -4   2   57.13    4.17
   1   4   2   56.16    3.66
   1   4   2   56.31    4.33
   1  -4   2   62.30    4.04
  -1   4  -2   58.71    5.09
   1   4   2   56.87    3.99
  -1  -4  -2   62.55    3.62
  -1   4  -2   55.40    4.67
   1   4   2   56.09    4.84
   1  -4   2   63.34    4.81
   2   4   2  152.32    6.91
  -2   4  -2  149.43    8.71
   2  -4   2  160.46    7.36
   2  -4   2  158.23    9.11
   2  -4   2  161.74    7.99
   2   4   2  158.45    8.55
  -2  -4  -2  163.11    6.67
   3   4   2  180.83    7.55
  -3  -4  -2  174.46    7.54
   3  -4   2  190.48    8.63
  -3  -4  -2  187.92    7.22
   3  -4   2  180.31    9.18
   3  -4   2  200.00   10.66
   3   4   2  175.65    9.45
  -3   4  -2  169.07    9.74
  -4  -4  -2   87.44    4.27
  -4  -4  -2   95.32    5.28
   4   4   2   83.05    5.00
   4  -4   2   90.82    6.05
   4   4   2   86.81    6.70
   4   4   2   86.29    4.86
   4  -4   2   91.62    6.66
  -4   4  -2   82.09    6.86
   4  -4   2   77.75    6.83
   5  -4   2   39.37    5.92
   5   4   2   50.75    4.27
   5  -4   2   42.79    5.03
  -5   4  -2   37.51    5.55
   5  -4   2   51.93    5.94
   5   4   2   63.50    4.18
   5   4   2   52.64    6.08
   6  -4   2  232.52   13.80
   6  -4   2  232.82   11.91
  -6   4  -2  246.98   13.40
   6  -4   2  234.99   12.71
   6   4   2  253.79   13.16
   7  -4   2   11.88    4.12
   7  -4   2    9.11    3.67
   7   4   2   16.53    4.69
  -7   4  -2   15.26    4.49
   8  -4   2   24.59    5.29
   8   4   2   23.35    5.91
  -8   4  -2   36.64    6.77
   8  -4   2   22.19    5.63
   9  -4   2   14.33    4.94
   9   4   2   27.38    6.52
   9  -4   2   22.91    6.26
   8  -5  -2   30.80    6.25
   8   5  -2   24.74    5.65
  -8   5   2   27.22    6.49
   8  -5  -2   22.59    5.54
   7  -5  -2   41.90    6.40
   7   5  -2   35.65    5.58
   7  -5  -2   46.82    7.00
   7   5  -2   46.41    6.44
  -7   5   2   35.23    6.48
   6  -5  -2   25.60    4.92
   6  -5  -2   29.70    5.71
   6  -5  -2   25.92    5.19
  -6   5   2   38.23    6.38
   6   5  -2   28.97    5.20
   6   5  -2   20.43    4.25
  -5   5   2    4.50    3.00
   5  -5  -2    3.06    2.66
  -5  -5   2    2.14    2.24
   5  -5  -2    5.20    2.83
   5   5  -2    6.37    3.15
   5  -5  -2    3.57    2.99
   5   5  -2    0.43    2.21
   4  -5  -2   63.49    5.99
   4   5  -2   56.53    5.67
   4  -5  -2   76.11    6.59
  -4   5   2   79.04    7.71
  -4  -5   2   67.54    5.24
   4   5  -2   64.50    5.69
   3   5  -2  446.09   17.29
   3  -5  -2  417.66   16.29
  -3  -5   2  434.14   16.20
  -3   5   2  415.24   17.20
   3  -5  -2  429.26   17.71
   3   5  -2  429.58   16.37
  -3   5   2  410.37   18.18
  -2  -5   2  204.83    9.85
   2  -5  -2  203.93    9.71
  -2   5   2  203.98   10.30
   2   5  -2  213.74    9.95
   2  -5  -2  210.05   10.45
  -2   5   2  199.99   11.09
   2   5  -2  208.17   10.33
  -2  -5   2  207.89    7.28
  -1  -5   2   33.40    3.43
   1  -5  -2   34.19    3.62
   1   5  -2   26.26    3.82
   1  -5  -2   32.07    4.04
  -1   5   2   27.76    4.52
  -1   5   2   36.74    4.34
   1  -5  -2   32.01    3.94
  -1  -5   2   33.30    2.95
   0  -5  -2  271.51   11.68
   0   5   2  298.84   11.92
   0  -5   2  290.45   11.09
   0  -5   2  278.63   10.82
   0  -5  -2  278.69   11.85
   0   5  -2  266.15   12.71
   0   5   2  308.46   13.14
   0   5  -2  287.92   13.38
   0  -5  -2  282.84   11.26
   1   5   2  277.39   11.04
  -1   5  -2  259.41   12.52
  -1  -5  -2  270.79   10.54
   1  -5   2  245.72   12.78
   1   5   2  270.06   10.96
   1   5   2  277.68   12.02
  -1   5  -2  254.95   12.84
   1  -5   2  273.99   10.78
   1  -5   2  261.72   10.92
   1   5   2  260.05   12.40
   2  -5   2    1.91    2.35
   2   5   2    1.68    1.64
   2   5   2    3.03    1.49
   2  -5   2    2.21    1.97
   2  -5   2    0.95    1.83
   2   5   2    0.04    2.15
  -2   5  -2   -0.08    2.21
  -2  -5  -2    4.21    1.71
   3  -5   2  152.80    9.92
  -3   5  -2  142.47    9.49
  -3  -5  -2  140.08    6.80
   3   5   2  154.54    7.08
   3  -5   2  145.05    8.60
   3  -5   2  153.67    8.11
   3   5   2  131.25    8.79
   4   5   2   41.66    6.01
   4  -5   2   29.43    4.51
   4  -5   2   28.41    4.75
  -4   5  -2   32.38    5.68
   4  -5   2   25.56    5.08
  -5   5  -2   53.27    7.09
   5   5   2   64.57    7.35
   5  -5   2   50.81    6.40
   5  -5   2   58.16    6.17
   5  -5   2   50.31    7.08
  -6   5  -2   11.21    4.43
   6   5   2   10.53    4.05
   6  -5   2    3.54    3.06
   6  -5   2    6.78    3.29
   7  -5   2    5.91    3.88
   7   5   2    0.54    3.34
  -7   5  -2    3.16    3.55
   7  -5   2    6.28    3.78
   8   5   2    7.73    4.85
   8  -5   2    5.13    4.08
   8  -5   2    4.71    4.19
  -8   5  -2    4.89    4.16
  -7   6   2    3.49    3.69
   7  -6  -2    5.00    3.90
   7  -6  -2    9.11    4.11
   6  -6  -2   12.15    4.30
   6   6  -2   17.35    4.88
  -6   6   2   11.10    4.36
   6  -6  -2   19.76    4.85
   5  -6  -2   62.49    6.81
   5   6  -2   64.93    6.56
  -5  -6   2   63.08    5.63
   5  -6  -2   57.53    7.11
  -5   6   2   48.99    7.18
   5   6  -2   64.48    7.13
   5  -6  -2   75.81    7.59
   4   6  -2   41.31    5.54
   4   6  -2   44.71    5.77
   4  -6  -2   34.13    5.57
  -4   6   2   32.42    6.46
  -4  -6   2   41.68    4.83
   4  -6  -2   28.54    4.95
   4  -6  -2   41.16    5.59
   3   6  -2   28.91    4.95
   3   6  -2   32.97    4.97
  -3   6   2   20.22    5.05
  -3  -6   2   28.51    4.36
   3  -6  -2   32.56    4.87
   3  -6  -2   30.43    5.10
  -2   6   2  107.29    7.72
  -2   6   2  111.24    8.80
  -2  -6   2   97.93    7.14
  -2  -6   2  113.49    6.61
   2  -6  -2   98.16    7.51
   2  -6  -2  119.28    7.64
   2   6  -2  119.14    8.09
  -1  -6   2   -1.96    1.46
  -1   6   2    0.89    2.26
   1  -6  -2   -1.09    1.96
  -1  -6   2    0.21    1.53
   1  -6  -2   -0.29    1.93
  -1   6   2    0.09    2.49
   1   6  -2   -2.69    2.06
   0  -6  -2   70.32    5.79
   0  -6   2   79.77    5.46
   0   6   2   74.53    6.63
   0   6  -2   79.15    6.68
   0  -6  -2   69.73    5.68
   0   6  -2   73.11    7.39
   0   6   2   78.51    5.98
   0  -6   2   70.46    5.07
  -1  -6  -2   14.70    3.42
   1  -6   2   12.49    3.79
   1  -6   2   14.67    3.17
   1   6   2   16.30    4.09
  -1  -6  -2   13.31    3.10
   1   6   2   14.06    4.04
   1   6   2   17.78    3.32
   1  -6   2    9.27    2.78
  -1   6  -2    8.49    3.15
   1   6   2   17.35    3.27
  -1   6  -2    8.28    3.69
   2  -6   2   63.75    5.33
   2   6   2   66.21    7.16
   2   6   2   62.29    5.08
   2   6   2   57.00    4.75
   2  -6   2   54.42    5.45
  -2   6  -2   47.86    6.62
   2  -6   2   51.25    6.53
  -3   6  -2   77.64    8.20
  -3  -6  -2   82.74    5.59
   3  -6   2   88.54    8.17
   3  -6   2   89.42    7.03
   3  -6   2   79.56    6.31
   3   6   2   86.63    8.24
   4   6   2   27.38    5.46
  -4   6  -2   30.48    5.84
   4  -6   2   34.52    5.11
   4  -6   2   37.43    6.44
   4  -6   2   20.62    4.62
   5  -6   2    7.72    3.66
   5   6   2    6.32    3.89
  -5   6  -2    6.26    3.79
   5  -6   2    4.76    3.11
  -6   6  -2   13.87    4.92
   6  -6   2   14.38    4.72
   6  -6   2   19.68    4.77
   6   6   2   13.93    4.97
   7  -6   2    1.62    3.42
   7   6   2    1.46    4.11
  -7   6  -2   -4.12    3.17
   7  -6   2   -2.26    3.33
   8   6   2   11.82    5.90
   6  -7  -2    5.09    3.90
   6  -7  -2    9.27    4.32
  -6   7   2    4.89    4.25
  -5   7   2   31.26    7.04
   5  -7  -2   24.69    5.42
   5  -7  -2   39.66    6.43
   4   7  -2   73.61    7.76
   4  -7  -2   62.70    7.04
   4  -7  -2   61.61    7.06
  -4   7   2   83.49    9.57
  -4  -7   2   66.14    6.36
   4  -7  -2   62.13    7.58
  -3   7   2    8.02    4.14
   3  -7  -2    7.53    3.26
   3   7  -2   11.70    3.90
  -3  -7   2   11.72    3.77
   3  -7  -2   10.89    3.76
   3  -7  -2    9.21    3.84
  -3  -7   2   11.64    3.36
   2  -7  -2   36.14    5.56
  -2   7   2   37.50    6.60
  -2  -7   2   43.95    5.74
   2  -7  -2   36.43    5.41
   2   7  -2   52.71    6.43
  -2  -7   2   32.91    4.42
  -1   7   2   15.07    4.61
   1  -7  -2   11.87    3.70
  -1  -7   2   16.75    4.06
   1   7  -2   12.45    3.95
   1  -7  -2   24.94    4.74
  -1  -7   2   14.50    3.38
   0  -7   2    9.14    3.95
   0   7  -2    4.42    3.21
   0   7   2    3.46    3.45
   0  -7  -2    7.95    3.15
   0   7   2    5.33    2.90
   0  -7   2    6.66    2.73
   1  -7   2   11.71    3.28
   1  -7   2   14.84    4.63
  -1   7  -2   20.87    5.39
   1   7   2   21.77    4.81
   1  -7   2   13.90    3.45
  -1  -7  -2   15.13    3.83
   2   7   2   22.19    5.36
   2  -7   2   26.54    4.65
   2  -7   2   33.91    5.00
  -2  -7  -2   25.37    4.26
   2  -7   2   37.60    6.59
  -2  -7  -2   23.53    4.45
  -2   7  -2   28.39    6.17
   3  -7   2    9.65    3.48
   3  -7   2    6.43    3.27
   3   7   2   21.91    5.61
  -3   7  -2   14.62    4.79
   4   7   2   27.95    6.41
   4  -7   2   20.16    4.47
  -4   7  -2   21.90    5.63
   4  -7   2   28.04    5.47
   5  -7   2  109.89    9.70
   5  -7   2   78.35    8.03
  -5   7  -2   83.75   10.02
   5   7   2  106.45   10.75
   6  -7   2   33.02    6.30
   6  -7   2   27.07    6.17
   6   7   2   36.24    7.69
   5  -8  -2   13.62    4.82
   4  -8  -2    2.59    3.51
   4  -8  -2    1.47    3.46
  -4   8   2    2.43    4.56
   3  -8  -2   37.23    6.17
  -3  -8   2   45.37    6.23
  -3   8   2   58.61    9.18
   3  -8  -2   35.01    5.59
  -2   8   2   82.88    9.86
  -2  -8   2   58.17    6.85
   2  -8  -2   76.59    7.29
   2  -8  -2   68.72    7.38
  -1  -8   2    1.48    2.68
   1  -8  -2    0.22    2.70
  -1   8   2    0.87    3.53
  -1  -8   2   -0.44    2.80
   0  -8   2    6.78    3.30
   0   8   2    2.27    3.87
   0  -8  -2    4.53    3.39
   1  -8   2    2.23    3.02
  -1  -8  -2    6.85    3.38
  -1   8  -2    1.61    3.83
   2  -8   2   80.45    7.52
  -2   8  -2   55.55    8.67
  -2  -8  -2   69.74    7.09
  -3   8  -2   14.90    5.57
   3   8   2   12.36    5.59
   3  -8   2   14.95    4.63
  -3  -8  -2   17.37    4.44
   3  -8   2    9.79    3.89
   4  -8   2   84.08    8.57
   4   8   2   94.11   10.82
   4  -8   2  102.47    9.32
   5  -8   2    3.56    3.93
   5  -8   2    2.04    3.61
   5   8   2    4.61    5.76
   1  -9  -2    4.64    3.61
   0  -9  -2   35.79    6.29
  -1  -9  -2    5.05    3.71
  -2  -9  -2   16.72    4.71
  11   0  -3   -1.88    3.48
  10   0  -3   -1.19    2.97
   9   0  -3  103.45    8.13
   9   0  -3  122.02    8.21
  -9   0   3  107.44    8.01
  -8   0   3   24.57    4.33
   8   0  -3   29.84    4.80
   8   0  -3   26.45    4.18
   8   0  -3   17.55    4.44
   7   0  -3   -2.67    1.59
   7   0  -3    0.87    2.28
  -7   0   3   -0.95    1.81
   7   0  -3   -0.60    1.80
   6   0  -3    5.24    2.49
   6   0  -3    6.88    2.22
  -6   0   3    3.65    2.07
   6   0  -3    6.16    2.15
   5   0  -3  172.44    7.61
  -5   0   3  165.92    7.99
   5   0  -3  163.12    7.41
   5   0  -3  172.52    8.74
  -4   0   3  130.10    6.04
   4   0  -3  143.97    6.17
  -4   0   3  147.04    7.12
   4   0  -3  140.35    7.08
  -4   0   3  131.81    6.60
   3   0  -3   11.32    1.92
  -3   0   3   13.25    2.11
  -3   0   3   18.38    2.29
   3   0  -3   12.89    1.62
   3   0  -3   16.57    1.99
  -3   0   3   18.71    1.81
  -3   0   3   17.10    1.97
   2   0  -3  798.47   22.30
  -2   0   3  775.73   22.97
  -2   0   3  788.69   24.01
  -2   0   3  801.34   22.20
   2   0  -3  808.75   22.98
   2   0  -3  776.06   24.50
  -2   0   3  793.84   24.57
   1   0  -3  125.74    4.59
   1   0  -3  117.70    4.81
  -1   0   3  120.06    4.85
   1   0  -3  118.20    3.94
  -1   0   3  115.07    4.55
  -1   0   3  119.22    4.73
   1   0  -3  119.25    4.70
   0   0  -3 4643.40  126.06
   0   0  -3 4734.59  127.27
   0   0  -3 4968.22  130.81
   0   0  -3 4470.38  135.22
   0   0   3 4708.98  130.98
   0   0   3 4700.44  135.64
   0   0   3 4645.21  126.42
   0   0   3 4800.98  127.52
   1   0   3  101.47    3.80
   1   0   3   95.23    3.91
   1   0   3   96.50    4.01
  -1   0  -3  103.25    4.05
   1   0   3  100.07    4.13
   1   0   3  101.12    4.32
  -1   0  -3  103.25    4.37
  -1   0  -3  104.67    4.09
   1   0   3   93.80    4.26
  -2   0  -3  439.99   13.52
   2   0   3  414.56   14.55
  -2   0  -3  451.30   14.80
   2   0   3  429.78   14.12
   2   0   3  468.79   14.56
   2   0   3  441.62   13.96
   3   0   3  144.46    6.37
   3   0   3  126.98    6.07
  -3   0  -3  138.14    5.46
   3   0   3  134.79    6.30
  -3   0  -3  132.45    6.37
   4   0   3  246.53    9.99
  -4   0  -3  250.29   10.53
   4   0   3  246.71   10.08
   4   0   3  240.82   10.27
  -4   0  -3  254.46    9.14
   5   0   3   10.55    2.64
   5   0   3    7.98    2.24
  -5   0  -3   10.39    2.10
   5   0   3    5.30    2.09
  -5   0  -3    8.17    2.51
   6   0   3  113.65    7.40
   6   0   3  115.33    7.46
  -6   0  -3  124.57    6.42
   6   0   3  115.78    7.24
   7   0   3   96.61    7.52
   7   0   3  102.09    7.28
  -7   0  -3  106.92    6.43
   7   0   3  106.34    7.80
   8   0   3    2.62    2.87
   8   0   3   13.20    4.14
   8   0   3   13.16    3.99
   9   0   3   22.35    5.38
   9   0   3    9.81    4.18
  10   0   3   -0.58    3.81
  11   1  -3   28.75    6.51
  10  -1  -3   24.92    5.61
  10   1  -3   34.88    6.39
  10  -1  -3   29.21    5.90
 -10   1   3   30.40    6.26
   9  -1  -3    4.78    3.15
   9   1  -3   10.61    3.78
  -9  -1   3    8.79    3.32
   9  -1  -3    6.97    3.52
  -9   1   3    6.35    3.60
   8   1  -3   25.65    4.82
   8   1  -3   33.35    4.85
  -8   1   3   26.83    4.62
   8  -1  -3   36.36    5.28
   8   1  -3   26.90    3.91
   8  -1  -3   35.82    5.76
  -8  -1   3   32.67    4.44
   8  -1  -3   31.53    5.00
   7  -1  -3  183.97   10.88
   7  -1  -3  200.52   10.04
   7   1  -3  195.45    8.69
   7   1  -3  181.97    9.41
   7  -1  -3  186.53    9.78
  -7   1   3  186.23   10.00
   7   1  -3  186.32   10.59
  -7  -1   3  188.16    9.43
   6   1  -3  312.27   11.58
   6  -1  -3  309.74   14.17
   6  -1  -3  322.26   12.98
  -6   1   3  325.68   13.51
   6   1  -3  315.35   13.94
   6   1  -3  299.75   12.16
   6  -1  -3  334.29   12.98
  -6  -1   3  306.09   12.63
   5  -1  -3    8.95    2.39
   5   1  -3   13.00    1.96
  -5   1   3   10.92    2.50
   5  -1  -3   11.07    2.38
  -5  -1   3   13.06    2.57
   5   1  -3   14.08    2.84
   5   1  -3   12.85    2.32
   4  -1  -3  574.97   18.09
  -4   1   3  561.89   19.15
  -4   1   3  554.83   19.77
  -4  -1   3  613.18   19.88
  -4  -1   3  576.57   18.80
   4   1  -3  556.51   17.40
  -4   1   3  556.23   18.60
   4   1  -3  539.53   19.52
   4  -1  -3  534.26   19.64
   3   1  -3  222.64    9.24
  -3  -1   3  242.87    9.05
   3  -1  -3  225.91    9.32
  -3   1   3  238.01    9.11
  -3   1   3  243.03    9.55
   3  -1  -3  233.58    8.48
  -3   1   3  229.52    9.26
  -3  -1   3  235.90    7.82
   3   1  -3  237.73    7.90
  -3  -1   3  227.09    7.60
  -3  -1   3  232.95    9.39
   2   1  -3   79.88    3.01
  -2   1   3   75.28    4.11
   2   1  -3   69.83    2.95
  -2  -1   3   77.63    2.95
   2   1  -3   76.15    4.11
  -2  -1   3   85.01    4.28
   2  -1  -3   75.51    3.96
  -2   1   3   78.73    4.25
  -2  -1   3   82.28    3.16
  -2  -1   3   81.94    4.12
   2  -1  -3   85.71    3.78
  -2   1   3   81.01    4.11
  -2   1   3   84.60    3.79
   1   1  -3 1827.45   55.05
  -1  -1   3 1904.81   51.37
   1   1  -3 1899.32   51.23
   1  -1  -3 1898.16   52.10
  -1  -1   3 1895.51   53.43
  -1   1   3 1859.54   52.22
   1  -1  -3 1865.00   54.57
   1  -1  -3 2016.84   53.49
  -1   1   3 1875.27   53.39
   1  -1  -3 1786.41   51.14
   1  -1  -3 1849.88   51.52
  -1   1   3 1881.56   54.58
  -1  -1   3 1780.53   54.93
   0  -1  -3 1622.77   48.17
   0  -1   3 1621.59   43.83
   0   1   3 1603.54   47.97
   0   1  -3 1666.76   44.58
   0  -1   3 1588.91   46.09
   0  -1  -3 1657.52   45.59
   0   1   3 1576.20   44.96
   0  -1   3 1570.47   47.43
   0   1   3 1595.84   45.63
   0   1   3 1564.02   44.62
   0  -1  -3 1695.83   44.94
   0   1  -3 1588.74   47.54
   0  -1   3 1616.55   44.57
   0   1  -3 1593.54   43.66
   0  -1  -3 1575.78   44.48
  -1   1  -3 5002.44  132.74
   1   1   3 4887.96  146.64
   1   1   3 4878.55  132.77
  -1   1  -3 4609.94  140.78
  -1  -1  -3 5066.15  132.61
   1  -1   3 4984.47  132.87
   1  -1   3 4906.99  140.83
  -1   1  -3 4864.21  136.60
   1   1   3 4832.54  131.87
   1   1   3 4811.17  146.04
  -1  -1  -3 4953.63  131.61
   1   1   3 4776.69  138.89
  -1   1  -3 4946.77  130.95
   1  -1   3 4916.74  131.14
  -1  -1  -3 4967.82  138.33
   2   1   3  575.47   18.09
   2  -1   3  599.54   18.61
  -2  -1  -3  577.09   18.25
   2   1   3  589.13   18.49
  -2   1  -3  589.69   18.73
   2  -1   3  606.42   17.96
   2  -1   3  595.81   19.93
   2  -1   3  603.72   19.52
   3  -1   3 1964.53   57.72
   3  -1   3 2007.28   61.42
  -3   1  -3 2078.82   61.59
  -3   1  -3 2023.19   58.74
   3  -1   3 1940.79   56.71
  -3  -1  -3 2080.97   59.98
   3   1   3 2067.21   57.18
   3   1   3 1999.37   57.34
   3   1   3 2058.45   59.85
   3  -1   3 2086.94   61.04
  -4   1  -3  283.44   12.11
   4  -1   3  263.89   11.68
  -4  -1  -3  275.20    8.74
  -4  -1  -3  287.61   10.94
   4   1   3  287.66    8.73
   4  -1   3  257.49   11.01
   4   1   3  276.42   10.59
   4   1   3  272.65   10.65
   4  -1   3  267.82   10.74
  -4   1  -3  277.57   10.79
   4   1   3  252.66   10.94
   5  -1   3  189.41    9.34
  -5  -1  -3  209.48    9.36
   5   1   3  199.24    9.04
  -5  -1  -3  190.87    7.10
   5   1   3  203.90    7.11
  -5   1  -3  194.27    8.95
   5   1   3  182.37    9.35
   5  -1   3  192.50    9.18
   5  -1   3  200.34    9.97
   5   1   3  181.12    8.65
   6   1   3   51.69    5.57
  -6  -1  -3   57.57    3.65
   6  -1   3   44.29    5.12
  -6   1  -3   55.81    5.09
   6   1   3   52.78    4.90
   6  -1   3   59.00    5.78
   6  -1   3   41.98    4.99
   6   1   3   52.12    4.78
   7  -1   3   77.33    6.67
   7   1   3   86.52    7.71
   7  -1   3   90.02    7.27
   7   1   3   82.21    6.38
   7  -1   3   75.63    6.56
  -7   1  -3   72.95    6.08
   7   1   3   82.24    6.52
   8   1   3    6.60    3.29
   8  -1   3   16.35    4.49
   8   1   3    8.77    3.88
   8  -1   3    5.18    3.16
   8   1   3    9.05    3.23
   8  -1   3    7.36    3.38
   9   1   3   28.82    6.11
   9   1   3   25.88    5.10
   9  -1   3   25.80    5.66
   9  -1   3   30.50    6.17
  10  -1   3    4.51    4.46
  11   2  -3    6.34    4.76
  11  -2  -3   -0.15    4.40
  10  -2  -3   18.82    5.14
  10  -2  -3   36.66    6.79
 -10   2   3   14.51    4.95
  10   2  -3   28.05    5.79
   9   2  -3   45.66    6.27
   9  -2  -3   40.04    6.37
  -9   2   3   51.79    7.11
  -8   2   3   34.94    5.61
   8   2  -3   36.33    5.13
   8  -2  -3   39.85    5.76
   8  -2  -3   44.92    5.80
  -8  -2   3   34.42    4.58
   8  -2  -3   35.12    6.06
   8   2  -3   27.42    5.02
   7   2  -3   73.17    6.39
   7  -2  -3   72.62    6.16
   7  -2  -3   67.72    6.74
  -7  -2   3   68.89    5.52
   7   2  -3   64.18    5.49
  -7   2   3   58.58    6.50
   7   2  -3   65.64    4.48
   7  -2  -3   82.57    6.76
   6  -2  -3  102.25    7.29
  -6  -2   3  101.51    6.36
   6   2  -3  114.29    6.48
   6   2  -3  100.70    4.85
   6  -2  -3  108.62    7.18
  -6   2   3   98.17    7.04
   6   2  -3  101.16    7.01
   6  -2  -3  101.84    6.69
  -5   2   3    0.42    1.79
   5  -2  -3    3.32    1.88
  -5  -2   3    3.02    1.97
   5   2  -3    5.11    1.22
   5   2  -3    5.52    1.92
  -5   2   3    1.06    1.81
   5   2  -3    4.40    1.26
   5  -2  -3    4.86    2.19
   5   2  -3    4.12    1.90
   4   2  -3  375.26   14.37
  -4   2   3  351.33   14.31
  -4   2   3  382.10   15.01
  -4  -2   3  382.92   13.62
   4   2  -3  388.13   11.12
   4  -2  -3  365.52   13.40
   4   2  -3  371.48   12.68
  -4   2   3  361.77   14.11
  -4  -2   3  377.18   14.42
   4  -2  -3  375.66   14.63
   4   2  -3  384.15   11.04
  -3  -2   3   34.97    2.42
  -3   2   3   23.88    3.11
  -3   2   3   27.89    3.27
   3  -2  -3   34.15    3.13
   3   2  -3   32.30    3.00
  -3  -2   3   33.33    3.08
   3   2  -3   33.38    2.51
  -3  -2   3   35.66    3.18
  -3   2   3   29.78    3.35
   3  -2  -3   33.54    3.07
   2   2  -3  241.21    7.95
   2  -2  -3  233.25    9.19
  -2  -2   3  255.93    9.61
  -2  -2   3  247.24    7.24
  -2  -2   3  253.67    7.75
  -2   2   3  264.13    9.67
  -2  -2   3  250.03    9.24
  -2   2   3  223.13    9.38
   2   2  -3  238.11    9.58
   2  -2  -3  228.39    8.79
  -2   2   3  240.22    9.63
   1   2  -3  620.64   20.06
   1   2  -3  679.00   22.74
  -1   2   3  751.15   22.29
  -1  -2   3  713.14   19.85
  -1   2   3  726.18   22.08
  -1   2   3  714.76   21.90
  -1  -2   3  712.59   19.97
   1  -2  -3  710.18   21.26
   1  -2  -3  722.99   21.88
  -1  -2   3  720.34   20.19
  -1  -2   3  736.92   22.20
  -1  -2   3  729.82   22.79
   0  -2   3 1704.77   46.83
   0  -2  -3 1723.34   50.28
   0   2  -3 1802.43   47.95
   0   2   3 1678.09   48.52
   0   2  -3 1661.87   51.51
   0  -2  -3 1721.42   50.13
   0  -2  -3 1786.72   49.15
   0   2   3 1638.59   48.50
   0  -2   3 1747.81   51.45
   0   2   3 1724.83   49.33
   0  -2   3 1735.78   47.87
   1  -2   3   64.97    4.18
   1   2   3   62.15    4.15
   1   2   3   69.71    3.78
   1  -2   3   61.73    3.77
  -1   2  -3   64.90    4.30
   1  -2   3   66.93    3.30
  -1  -2  -3   63.49    2.91
   1   2   3   64.63    3.08
  -1  -2  -3   69.80    2.38
  -1   2  -3   66.51    3.30
  -1   2  -3   63.95    4.17
  -2  -2  -3  119.11    4.24
   2   2   3  109.93    4.15
   2  -2   3  111.53    5.67
   2  -2   3  105.40    6.34
   2  -2   3  110.66    5.11
  -2   2  -3  106.49    5.91
   2   2   3  116.62    5.24
   2   2   3  106.12    5.85
   2  -2   3  113.28    5.99
   3  -2   3  304.58   11.50
   3   2   3  315.82   12.38
   3  -2   3  323.90   13.54
   3  -2   3  328.96   12.98
   3   2   3  345.94   11.51
   3  -2   3  344.12   12.55
  -3   2  -3  330.14   12.71
  -3  -2  -3  340.11   11.08
   3   2   3  281.91   10.75
   4  -2   3  314.17   12.11
   4   2   3  325.56   11.66
  -4   2  -3  292.45   12.54
   4  -2   3  315.41   12.79
  -4  -2  -3  325.55   11.65
   4   2   3  310.27   12.78
   4   2   3  313.46   11.51
  -5  -2  -3  550.56   19.12
   5  -2   3  552.34   21.41
  -5   2  -3  553.55   19.96
   5   2   3  556.78   18.46
   5  -2   3  503.25   18.89
   5  -2   3  517.03   19.73
   5   2   3  548.72   19.01
   5   2   3  564.92   20.16
   6  -2   3  126.35    8.73
  -6   2  -3  117.12    7.88
   6   2   3  124.37    7.28
   6  -2   3  127.22    8.31
   6  -2   3  136.33    8.12
   6   2   3  129.49    7.22
   6   2   3  135.39    8.66
   7   2   3   65.45    7.16
   7  -2   3   93.60    7.23
  -7   2  -3   88.77    7.02
   7  -2   3   97.73    7.67
   7   2   3   86.99    6.32
   7   2   3   86.69    6.50
   7  -2   3   80.20    7.88
   8  -2   3   65.25    7.35
   8  -2   3   67.36    7.46
   8   2   3   82.71    8.40
  -8   2  -3   76.76    7.37
   8   2   3   74.68    6.39
   9  -2   3   12.69    4.80
   9  -2   3   10.52    4.42
   9   2   3   16.50    5.27
  10  -2   3   15.45    5.27
  10  -3  -3   66.64    8.59
  10   3  -3   44.68    7.20
  10  -3  -3   55.39    8.23
   9   3  -3   10.33    3.97
   9  -3  -3    8.05    4.15
  -9   3   3    9.03    4.35
   9  -3  -3    9.59    4.16
   8   3  -3   15.88    4.09
   8  -3  -3   19.67    4.64
   8   3  -3   11.31    3.87
   8  -3  -3   12.67    4.32
  -8   3   3   16.30    4.63
   7  -3  -3   91.00    8.00
   7  -3  -3   91.58    7.29
   7   3  -3  105.25    7.30
   7   3  -3   95.96    7.49
  -7   3   3   95.39    8.06
  -7  -3   3  106.99    6.94
   7  -3  -3  115.77    8.29
   6  -3  -3   44.62    5.50
   6  -3  -3   41.51    5.44
  -6  -3   3   46.74    4.65
  -6   3   3   47.29    6.01
   6   3  -3   54.21    5.11
   6  -3  -3   41.80    5.02
   6   3  -3   36.87    4.59
   5  -3  -3  298.81   13.38
  -5  -3   3  278.92   11.66
   5  -3  -3  307.01   12.45
  -5   3   3  264.08   12.96
  -5   3   3  279.21   12.87
   5   3  -3  286.94   11.53
   5   3  -3  297.76   12.89
  -4   3   3  152.93    8.22
   4   3  -3  145.01    7.78
   4   3  -3  145.35    6.91
  -4   3   3  151.67    8.41
  -4  -3   3  149.43    7.31
   4  -3  -3  141.31    7.99
   4  -3  -3  147.75    7.52
  -3   3   3  234.93   10.53
  -3  -3   3  235.94    9.60
   3  -3  -3  222.43    9.46
   3   3  -3  228.16   10.10
  -3   3   3  246.46   10.81
  -3   3   3  211.47   10.08
   3   3  -3  237.41    8.91
   3  -3  -3  228.74   10.08
  -3  -3   3  255.67   10.30
   2  -3  -3  214.06    8.96
   2  -3  -3  208.90    8.76
  -2  -3   3  224.25    7.79
  -2  -3   3  222.35    9.31
   2   3  -3  217.16    8.03
  -2   3   3  208.84    9.40
  -2   3   3  210.53    9.56
  -2   3   3  222.07    9.39
   2   3  -3  209.47    9.34
  -2  -3   3  224.83    6.51
  -2  -3   3  221.08    9.05
  -1  -3   3  417.93   12.84
  -1   3   3  417.37   14.44
   1   3  -3  388.98   14.77
   1  -3  -3  406.33   13.86
  -1  -3   3  405.11   12.40
  -1  -3   3  399.03   12.44
   1  -3  -3  410.86   13.67
  -1  -3   3  404.59   12.47
  -1   3   3  404.63   14.58
  -1  -3   3  425.01   14.83
   1  -3  -3  384.64   13.76
   0   3  -3  567.04   20.01
   0  -3   3  590.42   17.74
   0  -3   3  574.78   17.81
   0  -3   3  579.57   17.26
   0  -3  -3  601.97   18.07
   0   3   3  556.02   18.64
   0   3   3  590.04   19.02
   0  -3   3  601.21   19.93
   0   3   3  543.71   19.15
   0  -3  -3  587.74   18.30
  -1  -3  -3  589.39   17.82
   1   3   3  619.45   18.76
   1  -3   3  577.70   17.83
  -1   3  -3  588.61   20.41
   1   3   3  591.61   18.74
   1   3   3  609.69   18.08
   1  -3   3  586.40   20.34
  -1   3  -3  531.51   20.24
   1  -3   3  590.70   18.73
   1   3   3  565.82   19.64
   2   3   3  280.46    9.17
   2  -3   3  279.40   11.59
   2  -3   3  271.44   10.79
  -2  -3  -3  282.61    9.08
   2   3   3  267.30   10.06
  -2  -3  -3  275.85    9.06
   2  -3   3  269.37   12.35
  -2   3  -3  258.59   11.54
   2   3   3  258.51   11.20
   2  -3   3  271.75    9.98
  -3  -3  -3  332.21   11.26
   3   3   3  334.73   13.50
  -3   3  -3  323.53   13.73
   3  -3   3  318.46   12.13
   3  -3   3  317.72   14.39
  -3  -3  -3  348.16   10.13
   3  -3   3  331.68   13.13
  -3  -3  -3  329.92   10.05
   3   3   3  331.62   11.86
   3   3   3  345.86   11.43
   4   3   3   22.77    4.05
   4  -3   3   31.08    4.16
   4  -3   3   22.47    3.46
  -4  -3  -3   26.46    2.65
   4   3   3   22.66    2.79
  -4   3  -3   22.12    3.88
   4  -3   3   31.71    4.69
  -5  -3  -3  210.16    9.08
   5  -3   3  205.23    9.97
   5  -3   3  207.28   11.69
   5   3   3  210.40    8.95
   5   3   3  199.42    8.83
   5  -3   3  206.07   10.67
   5   3   3  195.73   10.69
  -5   3  -3  196.70   10.63
   6  -3   3   26.92    4.80
   6  -3   3   24.52    5.00
  -6   3  -3   23.23    4.81
   6   3   3   24.98    4.93
   6   3   3   25.42    3.50
   6   3   3   22.58    3.36
   6  -3   3   25.03    4.34
   7  -3   3    5.41    3.48
   7  -3   3   16.47    4.52
  -7   3  -3   12.27    3.82
   7  -3   3   17.14    4.19
   7   3   3   15.17    4.45
   8  -3   3    4.96    3.79
   8  -3   3   10.53    4.03
  -8   3  -3    3.97    3.83
   8   3   3   14.80    4.97
   9  -3   3   -1.58    2.88
   9   3   3   -2.13    3.63
   9  -3   3   -0.48    3.68
   9   4  -3   45.39    7.08
  -9   4   3   44.18    7.56
   9  -4  -3   57.49    8.06
   8   4  -3  108.32    8.67
   8   4  -3  105.58    8.50
  -8   4   3   89.89    9.40
   8  -4  -3   85.89    8.77
   8  -4  -3  107.25    8.63
  -7   4   3   36.11    6.11
   7  -4  -3   60.70    7.21
   7  -4  -3   43.52    6.45
   7   4  -3   64.20    6.70
   7   4  -3   66.44    6.62
  -7  -4   3   53.06    5.40
   7  -4  -3   66.75    6.99
  -6  -4   3   38.50    4.59
   6  -4  -3   42.04    5.42
   6  -4  -3   42.27    5.79
   6  -4  -3   44.33    5.96
   6   4  -3   37.02    5.00
   6   4  -3   47.26    5.35
  -6   4   3   48.19    6.48
   5   4  -3   81.57    6.27
  -5  -4   3   84.37    5.75
  -5   4   3   58.10    6.60
   5   4  -3   81.83    5.90
   5  -4  -3   85.69    6.87
   5  -4  -3   83.55    6.27
   4  -4  -3   94.40    6.71
   4   4  -3   95.52    6.52
  -4  -4   3   96.80    6.07
  -4   4   3   91.27    6.85
   4  -4  -3   97.56    6.43
   4   4  -3  108.61    6.31
  -4   4   3   90.04    7.18
   3  -4  -3   15.81    3.02
   3   4  -3   17.80    3.15
  -3  -4   3   11.52    2.52
  -3   4   3   10.11    2.93
   3  -4  -3   17.59    3.13
   3   4  -3   12.01    2.54
  -3   4   3   11.33    3.33
   2   4  -3   43.29    3.60
  -2  -4   3   49.28    4.14
  -2  -4   3   46.70    4.11
   2  -4  -3   50.39    4.16
  -2  -4   3   48.44    2.30
  -2  -4   3   47.18    2.40
   2   4  -3   53.80    4.43
   2  -4  -3   51.98    3.96
  -2   4   3   41.90    4.75
  -2   4   3   40.64    4.38
   2  -4  -3   35.45    3.97
   1  -4  -3  237.81    9.52
  -1  -4   3  261.35    8.86
  -1  -4   3  240.02   10.57
  -1   4   3  241.15   10.86
  -1   4   3  237.10   10.43
  -1  -4   3  252.65   10.71
  -1  -4   3  245.42    8.54
  -1  -4   3  242.71    8.87
   1   4  -3  239.26   10.88
   1  -4  -3  230.94    9.82
   1  -4  -3  254.89   10.30
   0   4   3   34.88    3.64
   0   4  -3   46.59    4.48
   0   4   3   49.87    4.16
   0  -4  -3   38.31    3.10
   0   4  -3   53.11    5.10
   0  -4   3   44.34    3.32
   0  -4  -3   41.20    2.92
   0  -4   3   44.60    3.19
   0   4   3   35.44    4.30
   1  -4   3  330.57   11.70
  -1  -4  -3  344.42   11.33
   1  -4   3  328.41   12.32
  -1   4  -3  314.80   13.74
   1   4   3  314.89   13.50
  -1   4  -3  321.13   14.02
   1   4   3  326.54   12.52
   1   4   3  343.18   11.62
   1   4   3  336.30   12.44
   2  -4   3   39.47    5.11
   2   4   3   55.90    3.33
   2  -4   3   54.99    4.04
   2  -4   3   59.10    4.71
   2   4   3   51.83    5.37
   2   4   3   60.07    4.01
  -2  -4  -3   57.52    3.28
  -2   4  -3   59.59    5.78
   2   4   3   58.12    4.23
  -3   4  -3    9.04    3.03
   3  -4   3    6.66    2.54
   3  -4   3    8.90    2.40
   3   4   3    9.79    1.74
   3   4   3   10.95    2.27
   3   4   3   11.42    3.28
   3  -4   3    5.90    2.82
  -3  -4  -3    9.89    1.72
  -3  -4  -3   11.39    1.68
  -4   4  -3  155.35    9.87
   4   4   3  164.47    9.81
   4   4   3  201.80    7.96
   4  -4   3  165.03   10.72
   4  -4   3  168.16    8.74
   4   4   3  177.08    7.99
  -4  -4  -3  186.45    7.65
   4  -4   3  186.18    9.91
   5  -4   3  403.59   16.90
   5   4   3  313.78   13.83
   5  -4   3  422.34   16.08
   5  -4   3  425.72   18.94
   5   4   3  395.51   17.20
   5   4   3  415.50   14.34
  -5   4  -3  367.15   17.04
   6   4   3   50.92    6.80
  -6   4  -3   49.53    6.64
   6  -4   3   42.66    5.63
   6  -4   3   45.73    6.27
   6  -4   3   43.08    6.44
  -7   4  -3   15.44    4.70
   7  -4   3   25.06    5.26
   7   4   3   19.56    5.55
   7  -4   3   10.91    3.97
   8  -4   3   12.87    4.57
   8   4   3   15.27    5.50
   8  -4   3    6.14    4.20
  -8   4  -3   10.19    4.67
   9   4   3    9.64    5.27
   8  -5  -3   24.37    5.76
   8  -5  -3   31.87    6.25
  -8   5   3   21.43    5.79
  -7   5   3   22.00    5.36
   7   5  -3   33.39    5.51
   7  -5  -3   31.69    5.93
   7   5  -3   36.16    5.60
   7  -5  -3   36.86    6.03
   6   5  -3   23.12    4.59
  -6   5   3   20.06    4.93
   6  -5  -3   24.27    4.79
   6  -5  -3   21.09    4.96
   6  -5  -3   26.73    5.05
  -6  -5   3   15.30    3.73
   6   5  -3   19.45    4.33
   5  -5  -3    7.06    3.12
  -5  -5   3   15.64    3.45
   5   5  -3    8.10    3.08
   5  -5  -3   12.50    3.70
  -5   5   3   12.89    4.11
   5   5  -3   16.21    3.69
   4  -5  -3  131.22    8.47
  -4   5   3  115.12    8.85
   4   5  -3  124.83    7.58
   4   5  -3  125.88    8.18
  -4   5   3  128.95    8.72
   4  -5  -3  122.22    7.85
  -4  -5   3  116.56    7.28
  -3   5   3   -0.23    2.32
  -3   5   3    3.98    2.61
   3   5  -3    3.11    2.26
  -3  -5   3    4.85    2.53
   3  -5  -3    2.19    2.19
   3   5  -3    3.86    2.35
   3  -5  -3    3.87    2.40
  -2  -5   3  142.31    5.45
   2   5  -3  145.89    8.63
  -2   5   3  149.56    8.64
  -2  -5   3  140.81    8.09
  -2   5   3  139.44    8.95
   2   5  -3  150.63    7.75
   2  -5  -3  149.62    8.15
  -2  -5   3  149.91    6.90
   2  -5  -3  132.42    7.81
   1  -5  -3   72.19    5.25
   1  -5  -3   77.18    5.12
  -1  -5   3   72.98    4.28
  -1  -5   3   84.99    6.17
   1  -5  -3   78.32    5.67
  -1   5   3   80.75    5.98
   1   5  -3   72.20    5.95
  -1   5   3   82.05    6.68
  -1  -5   3   75.07    4.70
   0   5   3   85.91    6.35
   0   5  -3   90.84    7.03
   0  -5   3   75.95    4.97
   0   5   3   86.49    6.77
   0   5  -3   88.47    6.68
   0  -5  -3   79.46    5.77
   0  -5  -3   94.34    5.52
   0  -5   3   91.19    5.21
   0   5   3   91.35    6.16
   0  -5  -3   86.43    5.04
   1   5   3   83.07    6.74
   1   5   3   94.19    5.91
  -1  -5  -3   74.97    4.89
  -1  -5  -3   87.31    4.78
  -1   5  -3   76.48    6.40
   1  -5   3   85.60    5.26
   1  -5   3   82.75    5.49
   1   5   3   91.10    6.13
  -1   5  -3   82.39    6.94
   2  -5   3   63.27    5.22
  -2   5  -3   57.49    6.47
   2   5   3   78.06    4.54
   2  -5   3   41.14    5.69
   2  -5   3   66.43    4.94
   2   5   3   69.05    6.73
   2   5   3   73.86    5.13
  -2  -5  -3   68.42    4.14
  -3  -5  -3  145.84    6.56
   3  -5   3  146.26    7.94
   3   5   3  144.32    6.84
   3   5   3  154.64    7.56
   3   5   3  138.95    9.30
   3  -5   3  132.31    9.70
   3  -5   3  140.46    8.49
  -3   5  -3  148.30    9.72
   4  -5   3   94.74    7.35
   4  -5   3   86.08    8.62
   4  -5   3   97.55    6.77
   4   5   3   96.20    7.91
  -4   5  -3   93.26    7.96
   5  -5   3   60.71    7.70
   5   5   3  110.08    9.46
  -5   5  -3   81.49    8.36
   5  -5   3   87.27    6.87
   5  -5   3   86.10    7.40
  -6   5  -3    1.64    3.34
   6   5   3   -1.02    3.28
   6  -5   3   -2.60    2.37
   6  -5   3    3.35    3.14
   7   5   3   19.64    5.45
  -7   5  -3   14.46    4.92
   7  -5   3   19.73    5.19
   7  -5   3   10.27    4.14
  -8   5  -3   -4.36    3.15
   8  -5   3   -1.95    3.27
   8  -5   3    4.92    4.18
   8   5   3    0.42    3.97
   7  -6  -3   -0.34    3.22
  -7   6   3    4.29    3.77
   7  -6  -3    6.05    3.83
   6   6  -3   70.07    7.46
   6  -6  -3   86.56    8.73
  -6   6   3   54.33    8.06
   6  -6  -3   74.95    7.92
   5   6  -3    8.93    3.48
  -5   6   3    1.32    3.16
   5  -6  -3   10.42    3.95
   5  -6  -3    4.09    2.88
   5   6  -3    5.92    3.45
  -5  -6   3    6.26    3.15
   5  -6  -3    3.10    2.82
  -4  -6   3   22.01    4.10
   4  -6  -3   17.55    4.15
  -4   6   3   28.73    5.94
   4  -6  -3   22.17    4.69
   4   6  -3   20.30    4.48
   4   6  -3   20.78    4.42
   3   6  -3  334.23   15.60
   3  -6  -3  318.92   14.47
   3   6  -3  354.53   14.58
  -3  -6   3  328.30   12.85
   3  -6  -3  348.84   15.44
  -3   6   3  350.39   15.75
  -3   6   3  304.73   16.16
  -3  -6   3  314.63   14.27
  -2   6   3  137.03    9.01
  -2   6   3  133.23    9.62
  -2  -6   3  139.51    7.27
   2  -6  -3  137.15    8.49
   2  -6  -3  129.24    8.31
  -2  -6   3  149.40    8.77
   2   6  -3  146.71    9.41
   1  -6  -3   14.37    3.29
   1   6  -3    8.33    3.26
  -1   6   3   12.59    3.89
  -1  -6   3   12.30    2.86
  -1  -6   3   14.74    3.83
   1  -6  -3   13.82    3.59
  -1   6   3   11.60    3.42
  -1  -6   3    9.35    2.19
   0  -6  -3   55.90    4.93
   0   6   3   59.15    5.60
   0  -6  -3   66.21    6.13
   0   6  -3   57.01    6.32
   0  -6   3   56.88    4.74
   0  -6   3   58.50    4.55
   0   6   3   53.38    6.05
   1   6   3   69.30    6.51
   1   6   3   77.12    7.87
   1  -6   3   77.95    5.43
   1  -6   3   62.53    5.19
   1   6   3   80.87    5.96
   1  -6   3   57.96    6.88
  -1   6  -3   63.27    7.33
  -1  -6  -3   65.68    5.04
  -1   6  -3   73.53    6.76
  -2   6  -3   69.54    7.78
   2   6   3   93.02    6.20
   2  -6   3   81.68    6.00
   2  -6   3  102.91    6.93
   2   6   3   75.09    7.87
   2  -6   3   91.03    8.61
   3  -6   3   47.42    6.76
   3  -6   3   59.91    6.13
   3  -6   3   52.53    5.45
  -3   6  -3   52.57    7.17
   3   6   3   45.24    6.60
   4   6   3    6.33    3.43
   4  -6   3    2.71    2.78
   4  -6   3    2.65    3.41
   4  -6   3   -2.13    2.09
  -4   6  -3    0.47    2.91
   5   6   3   16.43    5.02
   5  -6   3   16.99    4.39
  -5   6  -3    7.00    4.03
   5  -6   3   22.44    5.03
   6  -6   3    4.73    3.76
  -6   6  -3    0.05    3.26
   6  -6   3    0.55    3.15
   6   6   3    0.40    3.72
   7  -6   3   26.07    6.17
  -7   6  -3    8.90    4.94
   7  -6   3   19.90    5.62
   7   6   3   16.85    5.97
   6  -7  -3   40.44    7.07
  -6   7   3   27.63    6.76
   6  -7  -3   40.92    6.92
   5  -7  -3   37.40    6.24
   5  -7  -3   51.53    7.20
  -4  -7   3   27.89    4.80
   4  -7  -3   47.55    6.53
  -4   7   3   34.00    6.88
   4  -7  -3   37.12    6.17
   4   7  -3   32.04    5.88
  -3   7   3   17.29    5.19
  -3  -7   3   11.77    3.78
   3  -7  -3   14.82    4.20
   3  -7  -3   13.34    4.23
   3   7  -3   13.84    4.26
   2   7  -3   -0.92    2.77
  -2  -7   3    3.75    2.88
  -2  -7   3    2.05    2.33
   2  -7  -3    3.19    2.74
   2  -7  -3    0.78    2.73
  -2   7   3    2.45    3.21
  -2   7   3    0.10    2.87
  -1  -7   3   79.03    7.56
   1  -7  -3   64.90    6.77
   1   7  -3   77.66    7.84
  -1   7   3   62.14    7.54
  -1  -7   3   68.71    5.69
  -1   7   3   70.14    6.87
   0   7   3   12.53    4.21
   0   7   3   13.35    3.65
   0   7  -3   17.77    4.71
   0  -7   3   10.46    2.92
   0  -7  -3   16.28    4.11
  -1  -7  -3    3.47    2.79
   1  -7   3   12.52    4.33
   1  -7   3    7.55    2.99
   1  -7   3   10.07    3.12
  -1   7  -3    7.03    4.09
   1   7   3    4.04    3.32
   2  -7   3   22.67    4.31
   2   7   3   20.77    5.20
  -2   7  -3   21.68    5.58
   2  -7   3   18.13    5.26
   2  -7   3   22.81    4.25
   3  -7   3   18.70    4.38
   3   7   3   13.76    4.70
  -3   7  -3   11.44    4.54
   3  -7   3   20.63    4.57
   4   7   3    5.10    4.11
   4  -7   3    3.42    3.19
  -4   7  -3    7.31    4.09
   4  -7   3    3.29    3.13
   5   7   3   11.22    5.49
   5  -7   3    5.10    4.05
   5  -7   3    2.12    3.45
  -5   7  -3   10.42    4.72
   6  -7   3   28.98    6.24
   6   7   3   19.38    6.37
   6  -7   3   22.92    6.08
   5  -8  -3   11.29    4.60
  -4   8   3    3.48    4.37
   4  -8  -3    3.89    3.55
   4  -8  -3    3.47    3.39
  -3   8   3   14.87    5.55
   3  -8  -3   10.86    4.15
   3  -8  -3   18.14    4.87
  -3  -8   3   12.11    4.31
   2  -8  -3   11.18    4.16
  -2   8   3   16.10    6.01
  -2  -8   3    5.39    3.25
  -1   8   3   46.66    7.53
  -1  -8   3   43.48    6.52
   1  -8  -3   50.25    6.72
   0   8   3    7.12    4.54
   0  -8  -3    6.78    3.57
   1  -8   3   11.92    3.87
  -1  -8  -3   10.77    4.04
   2  -8   3   47.71    6.16
  -2  -8  -3   40.69    5.97
  -2   8  -3   56.78    9.02
   3  -8   3   34.56    5.73
  -3   8  -3   50.82    8.44
  -3  -8  -3   43.72    6.34
   3   8   3   51.57    8.68
   3  -8   3   49.35    6.53
   4  -8   3    9.54    4.32
   4  -8   3    8.60    4.36
   4   8   3   11.02    5.88
   5  -8   3   25.68    5.97
   0  -9  -3   10.61    4.68
  -1  -9  -3   12.51    4.39
  11   0  -4    2.64    4.01
  10   0  -4   65.91    7.71
 -10   0   4   51.78    6.75
   9   0  -4   36.91    5.45
  -9   0   4   42.88    5.74
   9   0  -4   35.13    5.04
   8   0  -4   48.57    5.61
   8   0  -4   30.63    5.48
  -8   0   4   37.39    5.13
   8   0  -4   36.59    4.75
   7   0  -4  209.04   10.03
   7   0  -4  207.55   11.53
   7   0  -4  220.41   10.00
  -7   0   4  197.86   10.31
  -6   0   4    6.48    2.48
   6   0  -4    5.15    1.97
   6   0  -4    6.61    2.59
   6   0  -4    6.25    2.32
  -5   0   4   21.75    3.30
  -5   0   4   16.56    2.55
   5   0  -4   20.98    2.76
   5   0  -4   21.62    3.41
  -4   0   4  338.12   12.02
   4   0  -4  332.22   11.56
  -4   0   4  360.99   13.49
   4   0  -4  346.00   13.40
  -4   0   4  340.56   12.94
   3   0  -4 4485.32  128.44
  -3   0   4 4543.53  118.83
  -3   0   4 4254.38  120.61
  -3   0   4 4439.05  124.67
  -3   0   4 4376.17  128.34
   3   0  -4 4450.40  119.05
  -2   0   4  203.18    7.78
   2   0  -4  198.37    7.17
  -2   0   4  189.43    7.18
   2   0  -4  189.75    7.61
  -2   0   4  193.18    7.68
   2   0  -4  194.74    6.42
  -2   0   4  203.03    6.45
   1   0  -4  830.90   25.69
  -1   0   4  823.91   25.27
   1   0  -4  827.23   23.46
  -1   0   4  832.51   23.66
   1   0  -4  872.30   24.53
  -1   0   4  858.16   24.62
  -1   0   4  877.55   25.79
   0   0   4  123.61    4.71
   0   0   4  123.17    4.81
   0   0   4  115.91    4.46
   0   0  -4  125.61    4.86
   0   0  -4  112.50    4.33
   0   0   4  109.67    4.86
   0   0  -4  112.72    4.60
   0   0  -4  114.24    4.91
   1   0   4 1255.23   36.64
   1   0   4 1294.91   38.09
  -1   0  -4 1308.52   35.81
   1   0   4 1308.99   36.05
   1   0   4 1294.25   36.81
  -1   0  -4 1245.20   38.03
   2   0   4    9.27    1.56
   2   0   4    6.38    1.61
   2   0   4   11.21    1.79
   2   0   4   10.89    1.86
   3   0   4  175.45    7.67
  -3   0  -4  173.42    6.59
   3   0   4  176.14    7.69
  -3   0  -4  180.49    7.95
   3   0   4  169.63    7.66
   3   0   4  186.10    7.70
   4   0   4   49.44    4.16
  -4   0  -4   59.52    4.50
   4   0   4   48.45    4.14
  -4   0  -4   50.62    3.31
   4   0   4   50.16    4.04
   5   0   4    0.07    1.71
  -5   0  -4    3.93    1.60
   5   0   4    1.50    1.58
   5   0   4    3.48    2.02
   6   0   4   18.26    3.81
   6   0   4   17.19    3.66
  -6   0  -4   17.67    2.77
   6   0   4   15.04    3.26
   7   0   4    0.21    2.28
   7   0   4    1.08    2.39
   7   0   4    0.98    2.44
   8   0   4   39.03    6.13
   8   0   4   40.36    5.95
   8   0   4   36.01    5.61
   9   0   4    3.06    3.57
   9   0   4    3.69    3.67
  10   0   4  161.24   11.74
  11   1  -4    2.53    3.95
  11  -1  -4    1.83    3.96
  10  -1  -4   10.00    4.35
 -10   1   4   11.60    4.52
  10   1  -4   15.55    4.62
  10  -1  -4    7.73    4.17
   9  -1  -4   66.94    7.03
   9   1  -4   56.84    6.43
   9  -1  -4   44.69    6.19
  -9  -1   4   64.91    6.48
  -9   1   4   53.36    6.64
   8  -1  -4   17.08    4.08
   8   1  -4   13.38    3.15
   8   1  -4   14.43    4.16
   8  -1  -4   17.94    4.56
   8  -1  -4   13.41    3.72
  -8  -1   4   11.88    3.23
  -8   1   4   10.54    3.42
   8   1  -4   11.52    3.45
  -7  -1   4  206.10   10.25
   7  -1  -4  209.07   10.34
   7   1  -4  200.79    9.02
   7   1  -4  197.42   11.15
   7  -1  -4  207.26   10.29
   7  -1  -4  204.52   11.54
  -7   1   4  194.79   10.61
   7   1  -4  199.90    9.65
   6   1  -4  244.86   12.10
   6  -1  -4  257.64   11.03
  -6   1   4  251.66   11.69
  -6  -1   4  269.72   11.57
   6   1  -4  258.94    9.99
   6  -1  -4  242.72   12.24
   6   1  -4  268.59   10.64
  -5   1   4  148.38    7.43
  -5  -1   4  143.21    7.49
   5   1  -4  125.26    7.54
   5   1  -4  135.94    6.38
  -5   1   4  143.09    7.73
   5  -1  -4  149.62    7.10
   5  -1  -4  146.93    8.06
  -4  -1   4  110.71    4.83
  -4   1   4  119.15    6.14
   4  -1  -4  109.35    5.52
  -4   1   4  114.05    6.47
   4   1  -4  111.76    4.97
   4  -1  -4   97.48    6.03
  -4   1   4  117.86    6.36
  -4  -1   4  106.23    6.20
  -4  -1   4  103.48    5.98
   4   1  -4  104.77    6.11
  -3  -1   4  461.55   14.20
  -3   1   4  477.33   15.74
  -3  -1   4  482.47   16.48
  -3   1   4  474.94   16.33
  -3   1   4  477.10   16.17
   3  -1  -4  448.23   14.72
   3   1  -4  459.63   16.30
  -3  -1   4  451.89   15.79
   3   1  -4  465.31   13.89
   3  -1  -4  463.57   16.20
  -3  -1   4  471.66   13.84
   2  -1  -4  712.73   22.45
  -2   1   4  705.98   22.36
   2   1  -4  687.47   20.46
  -2  -1   4  716.79   22.88
  -2  -1   4  701.08   19.69
   2   1  -4  709.30   19.80
   2   1  -4  716.29   22.91
  -2   1   4  720.30   22.50
  -2   1   4  720.56   21.95
  -2  -1   4  715.65   22.29
  -2   1   4  746.87   21.01
  -2  -1   4  709.95   20.59
   2  -1  -4  709.62   20.88
  -1  -1   4 1308.69   35.87
  -1  -1   4 1300.18   38.59
  -1  -1   4 1287.64   37.55
  -1   1   4 1243.14   37.33
  -1   1   4 1252.52   36.69
   1  -1  -4 1305.83   37.82
  -1   1   4 1281.19   36.17
   1   1  -4 1184.04   38.46
   1   1  -4 1325.59   35.80
   1  -1  -4 1281.30   36.13
  -1   1   4 1300.94   37.86
   0  -1   4   40.80    1.89
   0   1  -4   43.65    2.68
   0  -1   4   40.92    2.60
   0   1  -4   40.84    2.88
   0   1  -4   41.44    1.88
   0   1   4   44.73    3.03
   0  -1  -4   40.23    1.85
   0  -1   4   39.42    2.76
   0  -1   4   40.01    2.82
   0   1   4   38.38    2.74
   0  -1  -4   37.45    2.75
   0   1   4   40.99    2.51
   0   1   4   41.51    1.91
   0  -1  -4   43.54    2.55
   1   1   4  511.90   15.32
   1   1   4  521.42   16.41
   1   1   4  524.55   15.79
   1   1   4  503.91   15.60
  -1   1  -4  519.97   17.19
   1  -1   4  489.90   16.16
   1  -1   4  535.76   15.41
  -1   1  -4  534.27   15.36
   1  -1   4  508.76   17.08
   1   1   4  519.57   16.36
  -1  -1  -4  531.39   15.25
   2  -1   4  690.83   20.34
   2  -1   4  696.40   22.15
   2  -1   4  696.76   21.16
   2  -1   4  683.59   22.64
   2   1   4  628.95   19.65
  -2   1  -4  674.86   21.19
   2   1   4  669.42   20.58
   2   1   4  678.23   21.07
   2   1   4  642.37   20.75
   2   1   4  687.36   20.60
   3  -1   4  795.26   24.86
   3   1   4  772.12   24.28
   3  -1   4  772.99   24.03
   3  -1   4  765.11   25.78
   3   1   4  821.13   24.90
  -3  -1  -4  790.52   24.76
   3  -1   4  790.71   26.38
  -3   1  -4  785.66   24.65
   3   1   4  787.84   24.52
   4  -1   4  674.55   22.95
   4  -1   4  600.95   21.66
   4   1   4  663.85   21.62
   4  -1   4  643.99   21.32
   4  -1   4  659.79   23.18
  -4  -1  -4  651.22   21.81
  -4   1  -4  644.79   21.41
   4   1   4  697.45   18.99
   4   1   4  653.29   21.35
   4   1   4  631.60   21.82
  -5   1  -4  181.05    8.41
   5  -1   4  171.86    9.31
  -5  -1  -4  171.59    8.58
  -5  -1  -4  170.27    6.04
   5   1   4  175.13    8.56
   5   1   4  176.27    9.23
   5  -1   4  178.03    8.82
   5  -1   4  172.47    9.04
   5   1   4  167.10    8.21
   6   1   4  316.07   14.22
   6  -1   4  315.16   14.54
   6   1   4  309.76   13.37
   6   1   4  318.14   13.40
   6  -1   4  299.94   13.72
  -6   1  -4  311.69   12.89
   6  -1   4  329.41   13.92
   7  -1   4   91.58    7.16
   7   1   4   81.43    7.75
   7  -1   4   67.51    6.69
  -7   1  -4   80.35    6.27
   7  -1   4   81.11    7.07
   7   1   4   72.95    6.36
   7   1   4   73.63    6.16
   8   1   4   51.21    6.00
   8  -1   4   47.10    6.56
   8   1   4   36.89    5.46
   8   1   4   42.68    6.75
   8  -1   4   34.64    5.85
   8  -1   4   38.02    5.84
   9  -1   4   67.83    8.40
   9   1   4   53.12    6.78
   9  -1   4   43.79    6.76
   9   1   4   74.25    9.09
  10  -1   4   22.25    6.07
  11   2  -4   37.80    7.12
  11  -2  -4   55.33    8.37
  10  -2  -4   25.63    5.71
  10  -2  -4   31.06    6.22
 -10   2   4   22.35    6.01
  10   2  -4   23.31    5.72
   9  -2  -4   58.72    7.15
   9  -2  -4   63.49    7.46
  -9   2   4   56.74    7.40
   9   2  -4   59.24    6.72
  -8   2   4   13.41    4.10
   8  -2  -4   16.40    4.26
   8   2  -4   16.05    4.33
   8   2  -4   14.85    3.80
   8  -2  -4   12.04    4.01
  -8  -2   4   12.76    3.55
   8  -2  -4   11.95    3.94
   7   2  -4  220.16   10.42
   7  -2  -4  231.97   11.66
   7  -2  -4  203.19   10.73
   7   2  -4  226.30   12.06
  -7   2   4  210.17   11.65
  -7  -2   4  216.40   10.63
   7  -2  -4  230.39   12.54
  -6   2   4   48.56    5.44
   6   2  -4   42.87    4.23
  -6  -2   4   37.83    4.41
   6  -2  -4   41.95    5.03
   6   2  -4   38.50    2.92
   6   2  -4   48.51    5.23
   6  -2  -4   36.58    4.39
  -5  -2   4   76.22    5.31
   5   2  -4   78.71    5.67
  -5   2   4   72.62    5.59
  -5   2   4   68.33    5.63
   5  -2  -4   73.80    5.17
   5   2  -4   81.53    3.70
   5   2  -4   81.15    3.56
   5   2  -4   74.97    4.65
   5  -2  -4   71.93    5.68
   4  -2  -4    1.86    1.51
   4   2  -4    2.63    1.59
  -4  -2   4    1.11    1.57
  -4   2   4    5.01    2.03
  -4   2   4    3.01    1.68
  -4   2   4    2.78    1.82
   4  -2  -4    3.75    1.63
   4   2  -4    3.13    0.81
   4   2  -4    3.29    0.82
   4   2  -4    2.61    1.21
  -4  -2   4    3.07    1.65
  -3  -2   4  399.91   11.62
  -3   2   4  395.92   14.69
   3   2  -4  402.32   12.39
  -3  -2   4  384.76   14.12
  -3   2   4  383.27   14.45
   3   2  -4  416.81   11.56
   3  -2  -4  393.33   14.46
   3  -2  -4  404.78   13.65
  -3  -2   4  408.36   14.83
  -3  -2   4  412.69   12.15
  -3   2   4  395.97   14.71
   3   2  -4  384.90   14.76
   2  -2  -4  273.74   10.36
  -2  -2   4  285.97   11.06
  -2   2   4  290.20   11.04
   2   2  -4  281.70    8.74
  -2   2   4  293.22   10.71
  -2   2   4  267.83   10.84
   2   2  -4  292.87   11.22
   2   2  -4  303.26    8.82
  -2  -2   4  292.40    8.79
   2  -2  -4  275.31   10.17
  -2  -2   4  290.76    8.51
  -2  -2   4  295.37   10.82
  -1  -2   4 1778.21   48.36
   1  -2  -4 1777.30   52.09
  -1  -2   4 1783.97   49.10
  -1   2   4 1748.59   50.82
  -1  -2   4 1738.59   51.78
  -1   2   4 1741.55   50.37
  -1   2   4 1781.54   51.63
   1   2  -4 1884.53   49.25
  -1   2   4 1779.21   52.27
   1  -2  -4 1730.10   49.74
  -1  -2   4 1843.01   53.48
   1   2  -4 1767.30   53.53
  -1  -2   4 1767.76   48.36
   0  -2  -4 1186.95   34.96
   0   2   4 1215.45   34.68
   0   2   4 1160.65   34.55
   0  -2   4 1149.40   33.66
   0  -2  -4 1210.35   34.87
   0  -2   4 1158.07   35.50
   0   2  -4 1168.45   36.65
   0   2  -4 1158.48   32.46
   0  -2   4 1185.74   32.52
   0   2  -4 1249.73   33.92
   0  -2   4 1192.43   36.51
   0   2   4 1144.03   34.62
   1   2   4 1367.70   40.31
   1  -2   4 1348.61   39.78
  -1   2  -4 1369.05   42.70
   1   2   4 1446.19   39.66
  -1   2  -4 1377.23   41.52
   1  -2   4 1379.50   42.53
  -1   2  -4 1437.72   38.51
   1   2   4 1361.83   39.95
  -1  -2  -4 1388.84   39.34
   1  -2   4 1355.75   38.45
   2  -2   4 1171.33   36.25
   2   2   4 1175.69   33.73
   2   2   4 1146.78   33.64
   2  -2   4 1128.27   32.82
  -2   2  -4 1033.17   35.89
  -2   2  -4 1153.78   35.28
  -2  -2  -4 1182.80   33.78
   2  -2   4 1182.37   34.27
   2  -2   4 1088.31   36.85
   2   2   4 1153.34   34.38
  -3  -2  -4    3.41    1.11
   3   2   4    6.51    2.11
   3  -2   4    4.37    2.05
   3  -2   4    6.03    2.02
   3   2   4    4.76    1.67
   3  -2   4    7.93    1.96
   3   2   4    6.15    1.25
  -3   2  -4    8.22    2.30
   3  -2   4    5.37    2.10
  -4  -2  -4  150.10    6.76
   4  -2   4  156.78    8.94
   4  -2   4  151.38    7.52
   4  -2   4  144.66    8.02
   4   2   4  148.71    8.19
  -4   2  -4  152.79    7.99
   4   2   4  144.45    7.20
   5  -2   4   74.86    6.17
   5   2   4   69.71    5.98
   5  -2   4   75.84    6.57
   5  -2   4   85.81    6.00
   5   2   4   72.92    4.86
  -5  -2  -4   86.04    5.41
  -5   2  -4   71.82    5.88
   5   2   4   80.27    5.46
   6   2   4  161.97    8.63
  -6   2  -4  171.62    9.45
   6   2   4  168.33    8.58
   6  -2   4  174.76   10.10
   6  -2   4  170.14   10.44
   6   2   4  173.44   10.16
   6  -2   4  166.02    9.31
   7   2   4   -3.81    2.14
  -7   2  -4    2.71    2.75
   7   2   4    0.65    2.12
   7   2   4    0.89    2.35
   7  -2   4   -3.02    1.99
   7  -2   4   -1.49    2.26
   7  -2   4    3.80    3.07
   8   2   4   16.73    5.14
   8   2   4   12.44    3.74
   8  -2   4   13.40    4.57
   8  -2   4   11.55    3.99
   9  -2   4    8.22    4.03
   9  -2   4    1.24    3.53
   9   2   4    4.15    4.64
  10  -3  -4   23.92    6.43
  10  -3  -4   26.87    6.41
   9  -3  -4  115.11    9.39
  -9   3   4  126.56   10.22
   9   3  -4  125.98    9.04
   9  -3  -4  126.12    9.99
   8   3  -4   85.18    6.93
   8  -3  -4   96.45    8.68
  -8  -3   4   90.84    6.88
   8   3  -4   61.32    7.12
  -8   3   4   62.31    7.56
   8  -3  -4   84.79    7.87
   7  -3  -4   60.18    6.53
   7  -3  -4   69.79    7.30
  -7   3   4   50.34    6.65
   7  -3  -4   67.41    6.56
   7   3  -4   58.04    5.77
  -7  -3   4   53.35    5.48
   7   3  -4   54.23    6.16
  -6   3   4   25.53    4.73
   6  -3  -4   29.10    4.41
   6  -3  -4   30.80    4.81
  -6  -3   4   27.05    4.11
   6   3  -4   25.30    3.73
   6   3  -4   28.80    4.44
   5   3  -4   38.24    4.53
   5  -3  -4   46.17    5.01
   5   3  -4   36.73    3.79
  -5   3   4   45.40    5.38
  -5   3   4   40.61    4.99
  -5  -3   4   40.06    4.35
   5  -3  -4   42.22    4.59
   4  -3  -4    7.76    2.33
  -4   3   4    2.78    2.10
  -4   3   4    1.93    1.82
   4   3  -4    2.01    1.54
   4   3  -4    4.60    2.01
   4  -3  -4    3.34    1.84
  -4  -3   4    4.38    2.10
  -3   3   4  164.42    8.50
   3  -3  -4  158.58    7.75
   3   3  -4  163.74    8.24
  -3   3   4  153.72    8.23
   3   3  -4  155.31    6.52
  -3   3   4  162.40    8.20
   3  -3  -4  161.67    7.60
  -3  -3   4  170.56    8.24
  -3  -3   4  172.91    6.21
  -3  -3   4  158.11    7.68
  -2   3   4   87.14    5.67
  -2  -3   4   93.02    5.55
  -2   3   4   90.00    5.18
   2   3  -4   90.15    5.60
  -2  -3   4   96.34    5.48
  -2  -3   4   93.10    3.95
   2   3  -4   86.81    4.10
   2  -3  -4   84.74    5.11
  -2  -3   4   89.75    3.35
   2  -3  -4   85.50    4.81
  -2   3   4   94.99    5.80
  -1  -3   4  205.18    6.75
  -1  -3   4  201.65    8.97
   1   3  -4  204.48    9.16
   1  -3  -4  190.91    8.33
  -1  -3   4  200.03    7.05
  -1  -3   4  210.20    8.96
  -1   3   4  186.83    8.70
   1  -3  -4  192.17    7.58
  -1   3   4  197.38    9.06
   1  -3  -4  196.85    7.53
  -1  -3   4  205.26    7.05
  -1   3   4  208.67    8.83
   0  -3  -4  340.77   11.01
   0   3  -4  350.46   13.56
   0   3   4  341.72   13.17
   0  -3   4  346.30   13.24
   0  -3   4  337.51   10.79
   0  -3   4  347.35   11.22
   0   3   4  357.98   12.45
   0  -3   4  331.49   11.56
   0  -3  -4  342.15   10.96
   0   3   4  325.13   12.53
   1   3   4  453.71   14.33
  -1   3  -4  408.10   15.99
  -1  -3  -4  433.53   13.07
   1   3   4  428.17   15.82
  -1   3  -4  429.97   16.38
   1  -3   4  426.18   13.64
   1  -3   4  430.87   14.70
   1  -3   4  427.96   16.10
   1   3   4  418.56   14.78
  -2   3  -4  308.47   13.26
   2   3   4  336.45   10.01
  -2   3  -4  300.84   13.05
   2  -3   4  326.17   14.16
   2  -3   4  310.98   12.23
   2   3   4  331.06   10.38
   2  -3   4  308.90   11.20
  -2  -3  -4  324.48   10.06
   2   3   4  319.07   11.82
   2   3   4  291.46   12.69
  -2  -3  -4  316.79    9.86
   3   3   4   36.73    4.52
   3  -3   4   29.98    4.42
   3  -3   4   43.55    3.89
  -3   3  -4   34.15    4.29
   3   3   4   44.76    3.83
  -3  -3  -4   36.62    2.40
   3   3   4   40.18    2.42
   3  -3   4   35.99    4.17
   4   3   4   36.93    3.69
  -4   3  -4   35.37    4.63
   4   3   4   47.96    5.42
   4   3   4   41.28    2.99
   4  -3   4   37.03    4.02
   4  -3   4   44.12    4.88
   4  -3   4   33.34    4.88
  -4  -3  -4   44.96    3.22
  -5   3  -4   11.41    3.35
   5   3   4    5.91    3.10
   5   3   4   10.15    2.07
   5  -3   4    8.15    3.23
   5  -3   4    3.92    2.56
   5  -3   4    7.81    2.70
   5   3   4    9.53    2.55
   6  -3   4  173.67    9.91
  -6   3  -4  184.66   10.60
   6  -3   4  178.86   10.73
   6   3   4  188.62   11.24
   6   3   4  183.68    9.18
   6  -3   4  183.49   11.59
   7   3   4   70.17    8.10
   7  -3   4   70.45    7.08
  -7   3  -4   67.26    7.31
   7  -3   4   58.93    7.16
   7   3   4   67.03    5.72
   7  -3   4   78.09    8.38
   8   3   4   15.50    5.25
   8  -3   4   25.89    5.51
   8  -3   4   17.45    5.02
  -8   3  -4   21.39    5.16
   9  -3   4    8.41    4.57
   9   3   4   10.71    4.93
   9  -3   4   13.34    5.05
   9  -4  -4   39.33    6.86
   9  -4  -4   38.01    6.92
  -9   4   4   38.65    7.45
  -8   4   4  141.69   10.99
   8   4  -4  163.00   10.10
   8  -4  -4  154.10   10.39
   8  -4  -4  130.78   10.47
   7  -4  -4   31.55    5.23
   7  -4  -4   26.64    5.40
  -7   4   4   32.52    5.70
   7   4  -4   42.45    5.33
  -7  -4   4   38.58    5.09
   7   4  -4   27.24    4.94
   7  -4  -4   28.08    5.34
   6   4  -4  135.75    8.04
  -6   4   4  135.90    9.65
   6  -4  -4  134.40    8.64
   6  -4  -4  141.46    9.51
  -6  -4   4  141.48    8.27
   5  -4  -4  194.81   10.40
  -5   4   4  218.37   11.92
   5   4  -4  224.59    9.89
  -5  -4   4  212.31   10.10
  -5   4   4  219.13   11.57
   5  -4  -4  216.13   11.29
   5   4  -4  200.51   10.91
  -4   4   4  120.19    8.05
  -4   4   4  126.47    8.45
  -4  -4   4  125.90    7.27
   4   4  -4  133.52    6.77
   4   4  -4  132.68    8.04
   4  -4  -4  130.79    7.54
   4  -4  -4  122.36    7.70
  -3   4   4  227.81   11.15
   3   4  -4  241.87   11.23
  -3   4   4  231.18   11.46
  -3  -4   4  235.57   10.41
   3  -4  -4  217.08   10.16
   3  -4  -4  240.44   10.66
  -3   4   4  232.74   11.11
   3  -4  -4  226.59   10.25
   3   4  -4  248.28    9.47
   2  -4  -4    1.01    1.49
  -2   4   4    4.75    2.24
   2  -4  -4    2.81    1.55
  -2  -4   4    4.95    2.02
   2   4  -4    0.09    1.52
  -2  -4   4    3.22    0.91
  -2  -4   4    3.30    1.01
  -2   4   4    2.55    2.01
   2  -4  -4    5.05    1.75
  -2  -4   4    4.49    1.39
   1  -4  -4   14.26    2.83
  -1  -4   4   18.05    2.06
  -1   4   4   15.20    3.05
  -1  -4   4   20.59    3.45
  -1  -4   4   18.86    2.07
  -1   4   4   15.80    3.06
   1  -4  -4   17.63    2.22
   1   4  -4   17.87    3.17
   1  -4  -4   18.89    2.41
   0   4   4    4.95    2.25
   0  -4  -4    7.27    1.40
   0   4   4    4.90    1.90
   0  -4   4    6.01    1.76
   0   4  -4    5.87    2.19
   0  -4  -4    7.10    1.53
   0  -4   4    6.70    1.64
   0   4   4    6.54    2.13
  -1  -4  -4   66.43    3.18
   1   4   4   70.67    4.67
   1  -4   4   69.13    4.17
   1   4   4   67.00    4.94
  -1  -4  -4   64.58    3.36
  -1   4  -4   56.91    5.18
   1   4   4   75.40    5.80
  -1   4  -4   69.12    5.76
   1  -4   4   66.22    4.66
   2   4   4   40.27    3.33
   2   4   4   40.33    3.97
  -2   4  -4   38.85    5.08
   2  -4   4   37.02    4.13
   2   4   4   49.74    2.68
  -2  -4  -4   43.69    2.44
   2  -4   4   39.74    5.21
   2  -4   4   45.82    3.91
   2   4   4   47.69    5.39
  -2   4  -4   46.83    5.15
  -3   4  -4  818.48   29.22
   3  -4   4  854.31   30.90
   3   4   4  812.35   28.52
   3  -4   4  811.51   26.26
   3   4   4  819.30   26.32
   3  -4   4  736.27   27.22
   3   4   4  887.49   25.56
  -3  -4  -4  842.16   25.24
  -3  -4  -4  874.38   24.40
   4   4   4   22.12    2.38
   4   4   4   25.77    4.84
   4  -4   4   25.29    5.06
  -4   4  -4   20.06    4.34
   4   4   4   18.56    3.09
   4  -4   4   19.51    3.54
   4  -4   4   25.05    4.41
   5  -4   4   49.22    6.84
   5  -4   4   54.85    6.37
   5   4   4   56.38    4.87
   5  -4   4   62.48    6.00
   5   4   4   46.77    6.33
  -5   4  -4   46.96    6.18
   6  -4   4   25.12    4.78
  -6   4  -4   28.99    5.48
   6   4   4   16.37    4.46
   6  -4   4   26.74    5.55
   6  -4   4   20.17    4.54
   7  -4   4   29.21    5.78
   7   4   4   18.00    5.27
   7  -4   4   31.80    5.66
  -7   4  -4   28.68    5.76
  -8   4  -4   56.10    7.96
   8   4   4   62.23    9.23
   8  -4   4   40.59    7.13
   8  -4   4   47.59    6.95
   8  -5  -4    5.83    3.82
   8  -5  -4   -2.87    3.25
  -8   5   4    1.12    3.36
  -7   5   4    5.91    3.66
   7  -5  -4    9.84    3.87
   7  -5  -4    8.83    3.88
   7   5  -4   11.15    4.27
   6   5  -4    3.81    2.96
   6  -5  -4    5.99    3.19
  -6   5   4   10.15    3.99
  -6  -5   4    8.66    3.10
   6   5  -4    3.73    2.94
   6  -5  -4    5.09    3.13
  -5  -5   4   19.08    3.87
   5  -5  -4   22.34    4.52
  -5   5   4   25.29    5.19
   5   5  -4   19.30    3.80
   5   5  -4   18.30    4.29
   5  -5  -4   22.51    4.50
  -5   5   4   15.52    4.42
   4  -5  -4  506.29   19.94
   4   5  -4  488.97   20.05
   4   5  -4  546.22   18.26
  -4   5   4  433.53   19.44
   4  -5  -4  511.69   19.12
  -4   5   4  484.35   20.85
  -4  -5   4  480.99   18.65
   3  -5  -4   49.31    5.07
  -3  -5   4   59.37    5.18
   3  -5  -4   51.64    5.41
  -3   5   4   53.29    6.39
  -3   5   4   53.98    6.12
   3   5  -4   59.47    4.86
   3   5  -4   44.05    5.14
   2   5  -4   51.38    5.50
  -2  -5   4   49.47    5.16
   2  -5  -4   48.85    5.20
  -2  -5   4   55.61    3.00
  -2  -5   4   50.44    3.84
  -2   5   4   53.36    5.63
  -2   5   4   41.24    5.45
   2  -5  -4   52.60    4.47
   2  -5  -4   57.15    4.77
  -1   5   4  532.16   20.16
   1  -5  -4  557.18   19.87
  -1  -5   4  546.35   17.49
   1  -5  -4  545.53   18.89
  -1  -5   4  562.75   20.78
  -1   5   4  554.14   20.90
   1   5  -4  568.60   21.59
  -1  -5   4  551.89   17.70
   1  -5  -4  550.43   19.32
   0  -5   4   41.95    3.65
   0   5   4   49.77    5.78
   0   5   4   37.50    4.47
   0  -5  -4   48.52    3.74
   0  -5  -4   49.62    3.61
   0   5  -4   42.62    5.24
   0  -5  -4   37.84    4.60
   0  -5   4   53.23    4.05
   0   5   4   49.59    5.20
   1   5   4  327.49   13.60
   1   5   4  336.12   15.20
   1  -5   4  351.03   12.67
   1   5   4  340.34   13.74
   1  -5   4  333.01   13.17
  -1   5  -4  338.05   15.52
  -1  -5  -4  330.83   12.03
  -1  -5  -4  342.29   11.78
  -1   5  -4  341.69   15.46
   2   5   4  103.53    7.93
   2  -5   4  100.59    6.63
   2  -5   4  103.59    8.40
   2   5   4  109.44    6.29
   2   5   4   98.84    6.47
   2  -5   4  103.13    6.20
  -2   5  -4   96.94    7.80
  -2  -5  -4  101.45    4.99
   3  -5   4   29.47    5.48
   3   5   4   40.07    6.04
   3   5   4   33.67    4.07
  -3   5  -4   30.44    5.44
   3  -5   4   37.22    4.44
   3  -5   4   32.04    4.82
   4  -5   4   16.37    4.71
   4   5   4   15.09    4.35
   4   5   4   15.07    3.20
   4  -5   4   13.15    3.69
   4  -5   4   14.60    3.61
  -4   5  -4    4.76    3.17
   5  -5   4   12.07    4.46
   5  -5   4   19.95    4.58
   5   5   4   26.28    5.53
  -5   5  -4   25.56    5.31
   5  -5   4   15.76    3.79
  -6   5  -4   32.48    6.47
   6  -5   4   38.14    5.74
   6   5   4   42.39    7.26
   6  -5   4   36.36    6.37
   7  -5   4   10.30    4.50
   7   5   4   14.24    5.31
   7  -5   4   10.64    4.35
  -7   5  -4   10.60    4.84
   8   5   4   37.14    8.05
   8  -5   4   25.77    5.84
   7  -6  -4   16.10    4.87
  -7   6   4    7.71    4.17
   7  -6  -4    9.33    4.45
   6   6  -4   45.27    6.50
   6  -6  -4   43.72    6.57
   6  -6  -4   52.27    7.16
   5  -6  -4  143.92    9.50
   5   6  -4  128.69    9.54
   5  -6  -4  136.44    9.81
  -5  -6   4  134.13    8.66
  -5   6   4  100.46   10.15
  -4   6   4   39.80    6.18
   4   6  -4   45.06    6.00
  -4  -6   4   43.58    5.34
   4   6  -4   47.31    5.39
   4  -6  -4   29.88    5.21
   4  -6  -4   35.47    5.20
  -4   6   4   30.13    5.87
   3  -6  -4   14.87    3.83
   3  -6  -4   11.01    3.41
  -3  -6   4   13.57    2.81
  -3   6   4   13.76    4.19
   3   6  -4   12.80    3.89
  -3   6   4    7.49    3.86
  -3  -6   4   10.20    3.15
  -2   6   4  118.35    8.87
  -2   6   4  106.76    8.16
  -2  -6   4  106.23    6.10
   2   6  -4  114.13    8.42
   2  -6  -4  108.53    7.24
   2  -6  -4  118.36    7.88
  -2  -6   4  103.22    7.53
   1   6  -4   44.17    5.85
  -1  -6   4   45.27    4.19
   1  -6  -4   45.56    4.53
   1  -6  -4   51.31    5.66
  -1  -6   4   40.26    5.42
  -1   6   4   39.78    5.70
  -1   6   4   48.00    5.77
   0  -6   4  164.82    8.08
   0   6   4  157.99    9.79
   0   6   4  179.59    9.80
   0  -6   4  166.20    8.10
   0   6  -4  161.06   10.42
   0  -6  -4  176.28    9.62
  -1   6  -4    4.24    3.36
   1   6   4    5.55    2.93
   1   6   4    9.73    3.11
  -1   6  -4    8.30    3.47
   1  -6   4    5.41    3.32
   1  -6   4    7.10    2.59
   1   6   4    9.23    3.78
   1  -6   4    4.56    2.35
  -2   6  -4   24.38    5.23
   2  -6   4   15.40    3.64
   2  -6   4   12.63    4.45
   2  -6   4   19.60    3.72
   2   6   4   21.00    5.13
   2   6   4   11.58    3.13
   3  -6   4   48.05    7.20
   3  -6   4   68.05    6.65
   3   6   4   49.57    7.19
   3  -6   4   57.78    5.66
  -3   6  -4   66.74    7.91
   4  -6   4   -0.53    2.41
   4   6   4    5.34    3.95
   4  -6   4    1.53    2.58
  -4   6  -4    2.23    3.28
   5  -6   4    8.61    4.05
  -5   6  -4    9.27    4.23
   5  -6   4   15.47    4.23
   5   6   4   16.60    5.47
   6  -6   4   16.46    4.80
  -6   6  -4   25.47    6.31
   6  -6   4   14.58    4.93
   6   6   4   32.70    6.99
   7  -6   4   34.56    6.49
   7   6   4   38.78    8.15
  -6   7   4   18.35    5.98
   6  -7  -4   33.48    6.22
   6  -7  -4   17.73    5.22
   5  -7  -4   51.70    7.05
  -5  -7   4   45.84    6.15
  -5   7   4   56.69    8.90
   4  -7  -4   95.99    8.24
  -4   7   4   97.48   10.37
   4   7  -4  106.71    9.16
   4  -7  -4   86.70    8.44
  -4  -7   4   95.43    7.73
   3  -7  -4    7.89    3.67
  -3   7   4   16.54    4.88
  -3   7   4   10.04    4.43
   3   7  -4   13.79    4.63
  -3  -7   4   18.01    4.31
  -2   7   4   24.36    5.13
   2  -7  -4   22.34    4.67
  -2   7   4   19.10    5.35
  -2  -7   4   21.35    4.62
   2   7  -4   15.75    4.69
  -1   7   4    9.52    4.29
   1   7  -4   21.27    5.07
   1  -7  -4   26.64    4.96
  -1   7   4   18.14    4.37
  -1  -7   4   20.42    4.60
  -1  -7   4   24.87    3.78
   0   7   4   55.52    7.02
   0   7   4   54.79    6.30
   0  -7  -4   64.17    6.78
   0  -7   4   54.14    5.28
   0   7  -4   47.11    6.70
   1   7   4   10.63    3.95
   1  -7   4    8.47    3.03
  -1  -7  -4    7.53    3.33
   1  -7   4    8.20    4.01
   1  -7   4    8.38    3.01
   1   7   4    2.97    3.78
   1   7   4   10.41    3.48
  -1   7  -4    7.21    3.73
   2  -7   4   20.25    4.22
   2   7   4   19.31    5.75
  -2   7  -4   16.43    5.04
   2  -7   4   16.82    4.11
   3   7   4   29.36    6.41
  -3   7  -4   49.06    7.86
   3  -7   4   58.88    6.37
   3  -7   4   59.27    6.70
  -4   7  -4   10.75    4.72
   4  -7   4    4.68    3.19
   4  -7   4    4.85    3.50
   4   7   4    1.85    4.09
   5  -7   4   13.26    4.63
   5   7   4   16.20    5.69
  -5   7  -4   12.74    5.20
   5  -7   4    8.55    4.39
   6   7   4    7.30    5.28
   6  -7   4   -0.45    3.64
   5  -8  -4    6.28    4.12
   4  -8  -4    3.65    3.90
  -4  -8   4    9.47    4.05
   4  -8  -4    9.21    4.12
  -4   8   4   10.43    5.47
  -3   8   4    4.98    4.80
  -3  -8   4   11.49    4.20
   3  -8  -4    2.75    3.52
  -2   8   4   49.67    7.36
  -2  -8   4   28.05    5.52
  -2   8   4   44.35    7.69
   2  -8  -4   39.65    6.24
  -1   8   4   33.29    6.28
  -1   8   4   22.22    5.77
  -1  -8   4   26.77    5.55
   1  -8  -4   23.57    5.22
   0   8   4   32.59    6.59
   0  -8  -4   18.23    4.78
   0  -8   4   17.77    4.83
  -1  -8  -4   36.92    6.11
  -2  -8  -4    4.68    3.26
   3  -8   4    7.88    3.87
  -3   8  -4   14.61    6.17
   3   8   4   11.28    6.05
   4   8   4   -0.63    4.82
   4  -8   4    3.95    3.85
  11   0  -5   29.45    6.31
 -10   0   5   -1.42    2.95
  10   0  -5    0.44    3.09
   9   0  -5   -0.71    2.38
  -9   0   5    0.21    2.47
   9   0  -5    0.35    2.60
   8   0  -5    2.74    2.78
   8   0  -5    7.35    3.05
  -8   0   5   10.42    3.39
   8   0  -5    6.97    3.45
   7   0  -5   13.49    3.17
   7   0  -5   11.21    3.05
  -7   0   5    8.59    3.07
   7   0  -5    9.93    3.23
   6   0  -5    1.74    1.77
  -6   0   5   -1.07    1.89
   6   0  -5    1.72    1.92
   5   0  -5   45.54    4.46
  -5   0   5   35.19    4.15
   5   0  -5   51.14    3.67
  -5   0   5   38.32    3.63
   4   0  -5   65.89    3.74
  -4   0   5   58.81    4.12
  -4   0   5   58.83    4.61
   4   0  -5   66.93    4.72
  -4   0   5   67.83    4.88
  -3   0   5 1265.29   35.09
  -3   0   5 1275.29   38.19
  -3   0   5 1230.72   36.42
   3   0  -5 1240.09   35.16
  -3   0   5 1306.37   39.07
   3   0  -5 1227.12   38.82
   2   0  -5  206.45    7.70
  -2   0   5  240.98    9.22
  -2   0   5  246.14    8.72
   2   0  -5  245.77    9.08
   2   0  -5  238.93    7.54
  -2   0   5  231.48    9.04
  -1   0   5  155.99    6.51
  -1   0   5  155.91    5.55
  -1   0   5  150.89    6.34
   1   0  -5  164.77    6.36
  -1   0   5  154.63    6.30
   0   0   5    9.93    1.44
   0   0   5    8.41    1.57
   0   0  -5    9.96    1.33
   0   0   5   12.06    1.83
   0   0   5    9.15    1.33
   0   0  -5    8.94    1.35
   1   0   5  358.79   11.97
   1   0   5  380.20   12.35
  -1   0  -5  364.96   12.34
   1   0   5  363.96   12.57
   1   0   5  373.61   11.95
   2   0   5  406.45   13.82
   2   0   5  411.67   14.17
   2   0   5  404.85   13.61
   2   0   5  416.50   12.91
   2   0   5  379.74   13.80
   3   0   5   54.88    4.00
   3   0   5   60.66    4.38
   3   0   5   52.91    4.09
   3   0   5   61.88    4.11
   4   0   5  534.57   18.57
   4   0   5  537.38   18.35
   4   0   5  508.12   18.43
   4   0   5  495.88   18.18
  -5   0  -5   32.68    3.00
   5   0   5   32.42    4.40
   5   0   5   34.97    4.33
   5   0   5   32.01    3.94
   6   0   5   53.69    5.56
   6   0   5   54.60    5.36
   6   0   5   43.16    5.42
   7   0   5   -0.92    2.31
   7   0   5    2.30    2.88
   7   0   5   -0.45    2.09
   8   0   5  223.11   12.66
   8   0   5  216.44   12.49
   8   0   5  222.38   13.03
   9   0   5   27.24    5.71
   9   0   5   41.71    7.23
  10   0   5   35.24    6.97
  11   1  -5    0.86    3.94
  11  -1  -5   -0.71    3.76
  10  -1  -5   22.63    5.44
 -10  -1   5   12.82    4.22
  10  -1  -5   10.32    4.41
 -10   1   5   10.41    4.23
  10   1  -5   17.25    4.59
   9   1  -5    2.36    2.89
   9  -1  -5    8.28    3.67
  -9   1   5    2.59    2.85
   9  -1  -5    1.61    2.87
  -9  -1   5    3.35    3.02
   8  -1  -5   36.81    5.29
   8  -1  -5   41.57    5.48
   8  -1  -5   29.90    5.53
  -8  -1   5   39.61    5.40
   8   1  -5   33.45    4.62
   8   1  -5   37.50    4.33
  -8   1   5   25.31    4.77
   8   1  -5   39.19    6.04
  -7  -1   5   42.91    5.04
  -7   1   5   44.05    5.39
   7  -1  -5   38.72    5.50
   7   1  -5   44.11    4.15
   7   1  -5   43.23    5.63
   7  -1  -5   39.27    4.81
   7   1  -5   39.53    4.41
   6   1  -5  409.28   14.06
  -6  -1   5  397.81   15.95
   6  -1  -5  428.75   17.25
  -6   1   5  397.73   16.27
   6   1  -5  377.33   16.63
   6  -1  -5  413.29   15.16
   6   1  -5  393.75   14.28
  -6   1   5  399.78   15.57
  -5   1   5  149.81    7.74
   5  -1  -5  145.57    7.15
  -5  -1   5  142.57    6.31
  -5  -1   5  150.54    7.92
   5   1  -5  156.20    8.30
   5  -1  -5  145.41    8.16
   5   1  -5  130.44    6.30
  -5   1   5  154.09    8.16
   4   1  -5  637.83   23.36
  -4   1   5  729.09   23.78
   4  -1  -5  704.65   21.41
   4   1  -5  730.89   20.91
  -4  -1   5  709.55   23.04
  -4   1   5  668.03   22.34
  -4   1   5  682.28   23.12
   4  -1  -5  669.36   23.44
  -4  -1   5  677.61   23.60
  -4  -1   5  660.22   20.72
   4   1  -5  693.16   20.39
   3  -1  -5 1596.42   48.51
  -3  -1   5 1603.48   43.57
  -3  -1   5 1536.13   47.35
  -3   1   5 1578.73   46.32
   3   1  -5 1712.49   44.85
   3   1  -5 1576.96   43.70
  -3  -1   5 1619.87   48.89
  -3   1   5 1617.39   47.71
   3  -1  -5 1534.96   44.74
  -3   1   5 1569.89   48.47
  -3  -1   5 1597.99   44.86
   3   1  -5 1621.57   48.90
  -2   1   5  430.19   14.84
   2  -1  -5  445.01   13.83
   2   1  -5  469.38   13.77
   2   1  -5  433.96   12.44
  -2   1   5  437.03   15.14
  -2  -1   5  439.22   13.74
  -2   1   5  447.64   14.99
  -2  -1   5  442.74   15.42
   2   1  -5  441.52   15.44
  -2  -1   5  427.24   15.05
   2  -1  -5  429.95   14.75
  -1   1   5  702.21   21.03
  -1  -1   5  660.25   20.21
   1   1  -5  709.00   20.28
  -1  -1   5  710.45   21.99
   1  -1  -5  688.12   20.93
  -1   1   5  654.34   20.44
   1  -1  -5  688.16   20.52
  -1   1   5  660.99   21.13
   1   1  -5  646.28   21.81
   0  -1  -5  858.04   24.50
   0   1   5  800.52   24.80
   0   1   5  863.55   24.54
   0  -1   5  814.84   24.33
   0  -1  -5  809.98   24.43
   0   1  -5  816.02   25.87
   0   1   5  810.11   24.50
   0  -1   5  828.28   25.81
   0   1   5  807.69   24.43
   0   1  -5  820.47   22.81
   0  -1   5  806.22   25.09
   0  -1   5  814.57   22.96
   1  -1   5   11.75    1.96
   1  -1   5    8.13    1.74
   1   1   5    8.41    1.75
  -1  -1  -5   11.11    1.30
  -1   1  -5   14.26    2.13
   1  -1   5    7.79    1.74
   1  -1   5   10.99    1.51
   1   1   5   11.95    1.37
   1   1   5   11.51    2.09
   1   1   5    8.59    1.11
  -1   1  -5    8.54    1.37
   1   1   5   10.47    1.02
   2  -1   5  138.00    7.20
   2   1   5  145.51    6.69
   2  -1   5  145.83    6.83
   2   1   5  142.08    5.49
   2   1   5  136.41    4.81
   2   1   5  141.01    5.53
   2  -1   5  139.37    6.12
   2  -1   5  143.93    6.85
   2   1   5  154.66    5.13
   2   1   5  139.51    6.76
  -3   1  -5  145.40    6.74
   3   1   5  141.34    7.28
   3  -1   5  143.56    7.63
   3   1   5  145.25    6.21
   3  -1   5  141.71    6.70
   3   1   5  136.68    6.87
   3  -1   5  141.45    7.19
   3  -1   5  146.57    7.39
  -4   1  -5  170.22    7.88
  -4  -1  -5  173.64    8.01
   4  -1   5  176.44    8.85
   4  -1   5  182.56    9.16
   4  -1   5  179.18    8.34
   4   1   5  167.36    8.21
   4  -1   5  167.40    8.55
   4   1   5  162.80    8.61
   4   1   5  168.50    7.55
   5   1   5   26.20    3.31
  -5  -1  -5   22.35    3.42
   5   1   5   26.73    4.31
   5   1   5   26.95    3.92
   5  -1   5   30.55    4.17
   5  -1   5   24.28    4.03
  -5   1  -5   26.92    3.49
   5  -1   5   28.25    4.16
   6  -1   5   51.65    5.83
   6  -1   5   63.22    6.23
   6   1   5   76.49    6.01
  -6   1  -5   71.45    5.52
   6   1   5   88.93    6.95
   6   1   5   75.04    5.64
   6  -1   5   70.94    6.11
   7   1   5    0.80    2.30
   7  -1   5    0.47    2.60
   7   1   5   -0.41    2.03
   7   1   5    1.90    2.78
   7  -1   5    1.21    2.48
   7  -1   5   -1.02    2.24
   8   1   5   71.83    8.23
   8  -1   5  105.49    9.18
   8   1   5   88.40    7.57
   8  -1   5   74.25    7.83
   8  -1   5   77.84    7.89
   9   1   5   22.55    5.18
   9   1   5   12.72    5.12
   9  -1   5   17.80    5.30
  11  -2  -5   20.32    6.35
  10   2  -5   18.12    4.87
  10  -2  -5    7.80    4.30
  10  -2  -5   10.62    4.64
 -10   2   5   20.03    5.67
   9  -2  -5   57.80    7.01
   9   2  -5   58.04    6.42
   9  -2  -5   42.04    6.35
  -9  -2   5   43.82    5.83
  -9   2   5   39.14    6.28
   8   2  -5   77.70    6.40
   8  -2  -5   84.04    7.29
  -8  -2   5   89.13    6.94
  -8   2   5   88.20    8.29
   8  -2  -5   86.41    7.29
   8   2  -5   84.78    7.73
   8  -2  -5   86.24    8.32
   7  -2  -5  488.73   18.82
   7   2  -5  492.15   20.59
   7   2  -5  492.83   17.83
  -7   2   5  503.31   20.31
   7  -2  -5  476.90   20.76
  -7  -2   5  500.54   19.19
   6   2  -5   24.91    2.44
   6   2  -5   27.52    4.34
   6  -2  -5   20.59    3.65
   6   2  -5   28.96    3.39
  -6   2   5   30.64    4.65
   6  -2  -5   24.14    4.25
  -6  -2   5   32.94    4.53
  -6   2   5   22.66    4.02
   5   2  -5    2.38    1.17
   5   2  -5    1.47    1.82
  -5  -2   5    0.71    1.83
   5   2  -5    0.62    0.89
  -5   2   5    2.28    1.95
   5  -2  -5    2.45    1.81
  -5   2   5    0.79    1.59
   5   2  -5   -0.07    1.19
   5  -2  -5   -1.53    1.42
  -4  -2   5   47.61    2.55
   4   2  -5   49.41    4.31
  -4   2   5   45.61    4.63
   4   2  -5   53.08    2.63
   4  -2  -5   48.93    3.93
  -4   2   5   52.52    4.51
   4   2  -5   50.21    3.18
  -4  -2   5   49.88    4.51
  -4   2   5   38.99    4.29
   4  -2  -5   51.51    4.26
   3  -2  -5  176.99    8.01
  -3   2   5  187.12    8.59
   3   2  -5  180.18    6.17
   3  -2  -5  165.98    7.48
  -3  -2   5  176.32    6.17
   3   2  -5  186.78    6.11
  -3  -2   5  195.28    8.75
  -3   2   5  171.92    8.10
  -3   2   5  182.69    8.55
   3   2  -5  184.52    8.58
  -3  -2   5  180.27    5.94
  -3  -2   5  172.77    8.14
   2   2  -5   94.51    3.84
  -2  -2   5   84.46    5.21
  -2   2   5   84.14    5.29
   2   2  -5   77.72    5.09
  -2   2   5   86.36    5.16
  -2   2   5   93.09    4.78
   2  -2  -5   92.96    4.83
   2  -2  -5   87.78    4.51
  -2  -2   5   85.40    5.12
  -2  -2   5   91.29    3.84
  -1   2   5 1705.25   50.04
  -1   2   5 1709.44   49.74
  -1  -2   5 1714.26   51.60
  -1   2   5 1697.01   48.75
  -1   2   5 1675.82   49.19
   1   2  -5 1806.56   47.69
  -1  -2   5 1680.92   47.47
  -1  -2   5 1635.21   50.01
   1  -2  -5 1710.57   49.94
   1   2  -5 1688.17   51.73
   0   2   5  457.75   15.58
   0   2  -5  465.74   13.29
   0   2   5  439.72   15.62
   0   2  -5  463.43   16.41
   0  -2   5  443.90   15.74
   0   2   5  461.99   14.84
   0   2   5  461.69   14.01
   0  -2   5  458.94   13.31
   0  -2   5  467.77   16.27
   0  -2   5  454.03   14.71
   0  -2  -5  461.00   13.93
   1   2   5  477.26   16.50
  -1   2  -5  492.69   14.56
   1  -2   5  457.47   15.68
   1   2   5  473.51   16.10
  -1  -2  -5  479.63   14.54
   1  -2   5  489.58   14.59
   1   2   5  482.59   14.71
   1  -2   5  469.23   16.94
  -1   2  -5  459.68   17.06
   2  -2   5  114.48    5.38
   2  -2   5  121.59    7.15
   2   2   5  111.91    5.92
   2   2   5  113.17    6.47
   2  -2   5  111.43    6.10
  -2   2  -5  117.55    6.42
  -2   2  -5  110.64    6.40
   2  -2   5  113.37    6.54
   3  -2   5  267.25   11.33
  -3   2  -5  260.64   11.28
   3  -2   5  266.75   12.36
   3  -2   5  269.43   10.39
   3   2   5  269.60   11.66
   3   2   5  271.62    9.15
   3   2   5  274.57   10.85
   4   2   5  395.86   15.51
   4   2   5  368.01   14.09
  -4  -2  -5  395.63   13.47
  -4   2  -5  384.45   14.92
   4  -2   5  371.14   14.06
   4   2   5  374.10   13.06
   4  -2   5  366.39   16.12
   4  -2   5  348.24   14.73
   5   2   5   18.30    3.33
   5  -2   5   20.76    4.26
  -5  -2  -5   19.98    3.00
   5  -2   5   16.89    3.70
   5   2   5   19.07    3.92
  -5   2  -5   14.43    3.37
   5  -2   5   22.48    3.81
   5   2   5   16.13    2.51
   6  -2   5   89.52    7.46
   6  -2   5   88.22    7.33
   6   2   5   82.36    6.34
   6  -2   5   74.01    6.36
   6   2   5   75.64    7.50
   6   2   5   73.73    5.49
  -6   2  -5   83.85    6.58
  -7   2  -5   66.97    6.66
   7  -2   5   72.29    7.55
   7  -2   5   60.13    7.15
   7   2   5   71.96    7.93
   7  -2   5   65.81    6.86
   7   2   5   63.06    6.22
   8  -2   5   19.31    5.10
   8   2   5   18.55    5.28
   8   2   5   16.62    4.37
   8  -2   5   10.71    3.94
   9  -2   5   11.86    4.94
   9  -2   5   26.63    5.86
   9   2   5   15.22    5.71
  10  -3  -5   42.68    7.78
  10  -3  -5   28.35    6.42
   9  -3  -5    4.58    4.19
  -9   3   5    4.37    3.74
   9  -3  -5    2.49    3.50
   8   3  -5   20.58    4.72
   8  -3  -5   23.02    5.33
   8  -3  -5   31.95    5.70
   8   3  -5   26.40    4.58
  -8   3   5   17.40    4.75
  -8  -3   5   23.83    4.64
  -7   3   5   39.08    6.13
   7  -3  -5   34.19    5.40
   7  -3  -5   33.77    5.05
   7   3  -5   28.04    4.76
  -7  -3   5   28.04    4.56
   7   3  -5   44.16    4.88
  -6   3   5  122.94    8.78
   6  -3  -5  128.65    7.93
   6  -3  -5  129.36    8.71
   6   3  -5  126.63    8.45
   6   3  -5  132.87    7.16
  -6   3   5  138.63    8.86
  -6  -3   5  126.04    7.81
  -5   3   5   15.53    3.79
   5  -3  -5    3.98    2.35
   5   3  -5    9.67    2.30
   5   3  -5    9.83    2.89
  -5   3   5    8.93    3.07
   5  -3  -5    7.00    2.53
  -5  -3   5    9.15    2.78
   4  -3  -5  119.56    6.93
   4  -3  -5  118.04    6.69
   4   3  -5  113.69    7.12
  -4   3   5  116.60    7.37
  -4   3   5  113.24    7.45
  -4  -3   5  113.19    6.80
   4   3  -5  113.45    5.47
   3   3  -5  394.16   12.32
  -3   3   5  360.46   15.10
  -3   3   5  393.10   15.24
  -3   3   5  419.38   15.24
  -3  -3   5  396.03   11.85
   3   3  -5  395.03   15.47
  -3  -3   5  372.77   14.57
   3  -3  -5  378.47   14.09
   3  -3  -5  382.19   14.47
  -2   3   5   63.24    4.78
  -2  -3   5   60.22    2.73
  -2   3   5   61.23    4.85
   2  -3  -5   59.08    4.36
  -2  -3   5   69.28    3.07
   2   3  -5   66.65    3.18
  -2   3   5   70.99    4.41
  -2  -3   5   63.03    2.82
   2   3  -5   66.29    4.82
  -2  -3   5   63.11    4.74
  -2  -3   5   56.97    4.44
   2  -3  -5   63.26    3.95
   1  -3  -5  395.83   14.23
   1  -3  -5  396.43   13.27
  -1   3   5  402.21   14.64
  -1  -3   5  407.85   15.31
  -1  -3   5  392.54   12.09
  -1   3   5  407.79   13.68
   1   3  -5  432.23   13.21
   1   3  -5  406.35   15.55
  -1  -3   5  400.12   12.87
  -1   3   5  394.26   15.01
  -1  -3   5  399.84   11.86
  -1  -3   5  402.11   14.92
  -1   3   5  399.93   14.96
   0   3   5 1898.39   55.36
   0  -3  -5 2034.52   55.38
   0   3   5 1872.27   55.23
   0  -3   5 1901.50   58.11
   0  -3   5 1908.80   52.38
   0  -3   5 1882.51   53.63
   0  -3   5 1884.47   52.03
   0  -3   5 1930.04   56.71
   0   3  -5 1865.64   58.38
   0   3   5 1799.04   54.89
   0  -3  -5 1926.57   55.38
   1   3   5  150.55    6.31
   1  -3   5  148.24    5.96
   1   3   5  146.42    7.91
   1   3   5  147.36    7.23
   1  -3   5  145.91    6.97
  -1   3  -5  127.46    7.62
   2   3   5  253.36    8.05
  -2   3  -5  244.27   11.10
   2  -3   5  236.13    9.12
   2  -3   5  256.78   10.50
   2  -3   5  232.56   11.75
  -2   3  -5  230.40   11.05
   2   3   5  238.37   10.97
   2   3   5  225.08    9.82
  -2  -3  -5  223.81    7.61
   3  -3   5   27.50    3.87
   3   3   5   23.79    1.57
   3  -3   5   20.58    4.07
   3   3   5   29.49    4.44
   3   3   5   22.94    3.17
  -3  -3  -5   21.88    1.64
  -3   3  -5   23.83    3.94
   3  -3   5   24.97    3.23
   4  -3   5   28.92    3.84
   4   3   5   24.14    3.43
   4  -3   5   20.55    4.50
   4  -3   5   19.53    3.76
   4   3   5   19.37    4.09
   4   3   5   24.48    2.22
  -4  -3  -5   22.56    2.35
  -4   3  -5   28.04    4.41
   5  -3   5   14.26    3.35
   5  -3   5   15.71    4.26
  -5   3  -5   18.66    4.16
   5   3   5   24.39    4.66
   5   3   5   22.06    3.62
   5  -3   5   20.45    4.26
   6   3   5   27.42    4.22
   6  -3   5   15.80    4.32
   6   3   5   19.13    4.74
  -6   3  -5   18.37    4.34
   6  -3   5   29.28    5.62
   6  -3   5   21.39    4.32
   7  -3   5   -0.30    2.71
   7   3   5    2.19    3.40
  -7   3  -5    0.30    2.97
   7   3   5    2.84    2.65
   7  -3   5    5.18    3.11
  -8   3  -5   22.37    5.47
   8   3   5   25.78    6.56
   8  -3   5   25.81    5.65
   8  -3   5   15.44    4.79
   9  -4  -5   44.70    7.60
  -9   4   5   31.16    6.79
   9  -4  -5   38.03    6.92
  -8   4   5   42.83    7.06
   8  -4  -5   38.55    6.33
   8  -4  -5   49.24    7.18
  -7   4   5   31.03    5.61
  -7  -4   5   28.32    4.74
   7  -4  -5   50.26    6.61
   7   4  -5   25.64    4.90
   7  -4  -5   51.05    6.33
   7   4  -5   41.20    5.15
   6  -4  -5   10.14    3.49
  -6   4   5    6.62    3.38
   6   4  -5   12.73    3.25
   6   4  -5    7.18    3.14
  -6  -4   5   12.26    3.33
   6  -4  -5   10.54    3.52
  -6   4   5   15.99    4.13
   5  -4  -5  178.47   10.06
  -5   4   5  177.02   10.65
  -5  -4   5  188.70    9.68
   5   4  -5  176.85   10.24
  -5   4   5  164.78   10.19
   5   4  -5  180.45    8.42
   5  -4  -5  183.37    9.80
   4  -4  -5  151.94    8.59
  -4   4   5  161.25    9.50
  -4   4   5  147.98    9.47
   4  -4  -5  162.82    8.70
  -4  -4   5  162.64    8.78
   4   4  -5  178.43    9.65
   4   4  -5  165.59    7.41
  -3  -4   5  151.45    8.05
   3  -4  -5  145.98    7.91
  -3   4   5  142.20    8.54
   3   4  -5  144.26    8.47
   3   4  -5  148.85    6.49
  -3   4   5  149.89    8.87
   3  -4  -5  134.36    7.42
  -3   4   5  143.80    8.25
  -2   4   5   59.57    5.56
   2  -4  -5   56.69    3.99
   2  -4  -5   54.19    4.94
  -2  -4   5   53.78    2.84
  -2  -4   5   52.97    3.01
  -2  -4   5   52.72    3.36
   2   4  -5   45.71    4.83
  -2  -4   5   50.16    3.01
  -2  -4   5   53.22    4.68
   2  -4  -5   53.57    3.98
  -2   4   5   38.19    4.63
   1  -4  -5  135.04    7.22
  -1  -4   5  128.94    5.60
  -1  -4   5  128.46    7.45
   1  -4  -5  131.31    5.79
  -1   4   5  122.15    7.38
   1  -4  -5  124.71    5.81
  -1   4   5  118.41    7.14
   1   4  -5  121.52    7.62
  -1  -4   5  128.47    5.24
   0   4   5  283.94   12.89
   0  -4  -5  300.60    9.84
   0  -4  -5  290.13    9.84
   0   4  -5  282.62   12.98
   0  -4   5  296.25   12.75
   0  -4   5  292.46   10.02
   0   4   5  298.20   11.89
   0  -4   5  281.45   10.79
   0   4   5  283.39   12.14
  -1  -4  -5   53.46    2.11
   1   4   5   51.06    5.55
  -1   4  -5   55.77    5.13
   1  -4   5   47.60    4.28
   1  -4   5   56.18    3.72
   1   4   5   52.36    4.18
   1   4   5   45.18    4.47
   2   4   5    1.47    1.65
   2  -4   5    5.60    2.95
  -2   4  -5    3.25    2.37
   2  -4   5    2.92    1.98
   2   4   5    2.88    1.53
  -2   4  -5    3.54    2.49
   2   4   5    2.47    2.29
   2  -4   5    1.73    1.63
   3   4   5  424.58   17.51
   3   4   5  432.99   15.73
   3  -4   5  421.06   15.16
   3  -4   5  395.26   18.44
   3  -4   5  417.97   16.56
  -3   4  -5  387.09   17.28
  -4   4  -5   16.00    4.21
   4   4   5   12.12    2.92
   4  -4   5    7.79    3.53
   4  -4   5   12.10    3.13
   4  -4   5   12.91    3.37
   4   4   5   14.41    3.95
   5   4   5   11.59    3.07
   5   4   5   16.72    4.60
   5  -4   5   20.89    4.21
   5  -4   5   11.48    3.55
  -5   4  -5   16.72    4.48
   5  -4   5   17.80    4.72
  -6   4  -5    9.82    3.98
   6  -4   5   15.14    4.24
   6  -4   5    5.25    3.17
   6   4   5    4.44    3.86
  -7   4  -5   15.75    4.67
   7  -4   5   16.72    4.74
   7  -4   5   27.42    5.43
   7   4   5   24.26    5.95
  -8   4  -5   42.35    7.39
   8  -4   5   57.64    8.35
   8  -4   5   42.49    6.84
   8   4   5   35.71    7.82
  -8   5   5   -0.86    3.01
   8  -5  -5    2.23    4.04
   8  -5  -5    0.92    3.51
   7   5  -5   32.99    5.97
  -7  -5   5   32.75    5.27
  -7   5   5   37.11    6.91
   7  -5  -5   31.60    5.71
   6  -5  -5   52.64    6.54
  -6  -5   5   60.59    6.15
   6   5  -5   42.78    6.00
  -6   5   5   40.83    6.57
   6  -5  -5   72.08    7.40
  -6   5   5   47.63    6.73
   5  -5  -5   57.91    6.31
   5  -5  -5   53.50    6.07
  -5  -5   5   64.40    6.20
  -5   5   5   59.30    6.89
  -5   5   5   50.04    6.90
   5   5  -5   55.56    6.36
   4   5  -5  277.49   13.74
   4   5  -5  291.86   11.50
  -4   5   5  235.97   13.65
  -4   5   5  283.21   13.96
   4  -5  -5  275.82   13.03
  -4  -5   5  277.08   12.79
   4  -5  -5  267.42   12.71
   3  -5  -5   36.92    4.37
   3   5  -5   35.17    5.03
  -3   5   5   34.76    5.48
   3  -5  -5   33.14    4.69
  -3   5   5   34.60    5.28
  -3  -5   5   38.19    3.27
  -3  -5   5   31.03    4.54
  -2  -5   5  132.05    5.31
  -2   5   5  129.92    8.63
   2  -5  -5  130.09    7.13
  -2   5   5  148.87    8.92
  -2  -5   5  130.02    8.08
  -2  -5   5  132.54    6.04
   2  -5  -5  120.35    7.68
   2   5  -5  130.58    8.64
   2  -5  -5  132.96    6.98
  -1  -5   5  172.00    9.81
   1  -5  -5  186.63    9.63
  -1  -5   5  194.94    7.67
  -1   5   5  177.20    9.85
  -1  -5   5  189.52    7.69
  -1   5   5  176.50    9.85
   1  -5  -5  189.00    8.12
   1  -5  -5  196.38    8.33
   1   5  -5  168.31   10.17
   0  -5   5   85.89    6.71
   0  -5   5   78.77    4.83
   0  -5  -5   85.46    4.42
   0  -5  -5   78.15    4.43
   0   5   5   85.60    6.39
   0   5   5   83.04    6.97
   0   5  -5   83.28    6.94
   0   5   5   78.30    6.19
   0  -5   5   85.02    5.24
   1   5   5   13.04    3.83
   1  -5   5   11.77    2.56
  -1  -5  -5   15.63    1.77
   1  -5   5   21.29    3.40
   1   5   5   14.28    3.24
   1   5   5   11.81    2.98
  -1   5  -5   15.44    4.02
   2   5   5   58.94    6.90
   2   5   5   51.56    5.19
   2   5   5   52.15    4.35
   2  -5   5   57.11    5.35
  -2   5  -5   60.65    6.84
  -2   5  -5   47.76    5.98
   2  -5   5   42.70    6.11
   2  -5   5   58.18    4.63
  -3   5  -5   55.00    6.80
   3  -5   5   52.16    5.73
   3   5   5   58.38    7.11
   3   5   5   58.75    5.43
   3  -5   5   44.04    6.36
   3  -5   5   54.40    5.02
   4  -5   5   62.01    5.92
   4  -5   5   61.86    6.59
   4   5   5   74.59    8.11
  -4   5  -5   66.00    7.50
   4   5   5   55.50    5.35
   4  -5   5   62.41    7.70
   5  -5   5   10.67    3.87
   5  -5   5   13.65    3.78
  -5   5  -5    7.89    3.71
   5   5   5    9.74    4.14
   6  -5   5   16.49    4.38
   6   5   5    9.73    4.70
   6  -5   5   10.39    4.34
  -6   5  -5   11.49    4.59
   7   5   5   80.42    9.90
   7  -5   5   83.35    8.60
   7  -5   5   74.81    9.04
  -7   5  -5   52.30    7.90
  -7   6   5   17.17    5.24
   7  -6  -5   26.16    5.78
   7  -6  -5   22.81    5.45
  -6   6   5    2.67    3.61
   6  -6  -5   12.21    4.08
  -6  -6   5    8.24    3.84
  -5   6   5   50.66    7.25
  -5  -6   5   54.30    6.27
   5   6  -5   65.82    7.52
   5  -6  -5   52.18    6.60
   5  -6  -5   67.71    7.33
  -5   6   5   57.88    7.97
   4   6  -5   29.52    5.46
   4  -6  -5   21.04    4.47
   4  -6  -5   26.56    4.75
  -4  -6   5   21.61    4.21
  -4   6   5   19.51    5.20
  -4   6   5   29.22    5.53
  -3   6   5  121.92    9.41
  -3   6   5  105.11    8.50
   3  -6  -5  117.04    8.17
   3   6  -5  119.21    8.96
  -3  -6   5  111.37    7.93
   3  -6  -5  120.44    7.84
   2  -6  -5   57.55    5.12
  -2   6   5   50.82    6.24
  -2  -6   5   44.17    5.48
  -2   6   5   60.26    6.97
  -2  -6   5   52.78    4.17
   2  -6  -5   52.46    5.92
   2   6  -5   53.56    6.53
   1   6  -5  147.68    9.93
  -1  -6   5  133.99    9.07
  -1   6   5  144.49    9.69
  -1  -6   5  145.15    7.06
  -1   6   5  145.30    9.39
   1  -6  -5  133.24    8.62
   0  -6  -5   10.65    3.37
   0  -6   5   25.03    3.37
   0   6   5   27.78    4.78
   0   6  -5   16.86    4.35
   0  -6   5   25.18    4.86
   0  -6   5   20.34    3.28
   0   6   5   27.75    5.46
   0   6   5   23.50    4.45
   1  -6   5   10.92    2.84
  -1   6  -5   11.88    4.01
   1   6   5   15.77    3.77
   1  -6   5   14.46    3.24
   1   6   5   14.40    3.67
   1   6   5   13.02    4.42
   2   6   5    3.38    3.23
   2  -6   5    5.79    2.69
   2  -6   5    4.87    3.65
  -2   6  -5    5.22    3.37
   2  -6   5    1.85    2.46
   2   6   5    3.10    2.65
   3   6   5   75.59    8.47
   3  -6   5   75.81    6.14
   3  -6   5   62.85    6.51
  -3   6  -5   68.24    8.07
   3  -6   5   55.14    7.65
   4  -6   5   -0.34    2.81
  -4   6  -5    1.94    3.18
   4  -6   5    2.51    2.68
   4   6   5    3.99    3.67
   5   6   5    4.50    4.41
  -5   6  -5    1.38    3.47
   5  -6   5    1.12    3.28
   5  -6   5    2.18    2.82
   6  -6   5   72.84    8.71
   6   6   5   67.39    9.37
   6  -6   5   74.08    7.80
   7  -6   5   -0.47    3.51
   6  -7  -5   33.14    6.33
   6  -7  -5   41.79    7.07
  -6   7   5   25.14    6.69
  -5  -7   5   26.29    5.32
  -5   7   5    9.76    4.88
   5  -7  -5   24.03    5.61
  -4   7   5   29.04    6.08
   4  -7  -5   30.78    5.61
  -4   7   5   28.30    6.68
  -4  -7   5   24.48    5.01
   3  -7  -5  121.37    8.77
  -3   7   5   83.16    9.36
  -3  -7   5  100.88    8.02
  -3   7   5  102.84    8.89
   3   7  -5  108.21    9.46
   2   7  -5   18.86    5.13
  -2   7   5   17.06    4.81
   2  -7  -5    9.34    3.73
  -2  -7   5   10.89    3.91
  -2   7   5   13.82    4.68
   1   7  -5    4.14    3.26
   1  -7  -5    1.12    2.88
  -1   7   5    5.09    3.68
  -1   7   5    4.32    3.19
  -1  -7   5    2.73    3.03
   0  -7  -5    8.36    3.43
   0   7  -5    7.22    3.85
   0   7   5    7.38    3.41
   0  -7   5    8.77    3.69
   0   7   5    6.43    3.49
  -1  -7  -5    2.55    3.03
   1   7   5    2.89    3.81
   1   7   5    5.16    3.24
   1  -7   5    2.36    2.51
   2  -7   5   47.52    5.40
   2  -7   5   48.07    5.66
   2   7   5   54.77    8.18
  -3   7  -5    6.36    3.90
   3   7   5    6.13    4.45
   3  -7   5    9.20    3.61
   3  -7   5    1.14    3.13
   4  -7   5    5.72    3.61
   4  -7   5   11.16    4.33
   4   7   5   15.79    5.52
  -4   7  -5   13.52    4.96
   5  -7   5   62.87    7.61
   5   7   5   85.40   10.85
   5  -7   5   84.62    9.19
   6  -7   5    3.88    4.19
   4  -8  -5    8.92    4.11
  -3  -8   5   40.73    6.44
  -3   8   5   80.76   10.24
   3  -8  -5   64.37    7.97
  -3   8   5   71.35    9.11
  -2   8   5   42.04    7.34
  -2   8   5   31.14    7.09
   2  -8  -5   30.22    5.82
  -2  -8   5   25.31    5.52
  -1   8   5   28.46    6.19
  -1  -8   5   38.15    6.40
  -1   8   5   35.33    6.87
   1  -8  -5   32.01    6.05
   0  -8   5   10.74    4.20
   0  -8  -5   12.75    4.42
  -1  -8  -5    7.55    3.82
   1  -8   5   10.87    4.35
   2   8   5   37.63    8.16
  -2  -8  -5   42.45    6.50
   3   8   5   -1.85    4.38
   4  -8   5    4.10    3.84
  11   0  -6   25.59    5.91
  10   0  -6   14.87    4.51
 -10   0   6    9.57    4.34
  -9   0   6   58.79    6.79
   9   0  -6   67.01    6.77
   9   0  -6   59.82    6.27
   8   0  -6    7.98    3.54
   8   0  -6    9.90    3.27
  -8   0   6   12.69    3.74
   8   0  -6   17.44    3.91
  -7   0   6    4.68    2.79
   7   0  -6    2.02    2.48
   7   0  -6    2.09    2.18
  -6   0   6   25.49    3.56
  -6   0   6   23.31    4.03
   6   0  -6   29.72    3.60
   6   0  -6   26.04    4.21
   5   0  -6  527.69   19.54
   5   0  -6  502.92   16.71
  -5   0   6  514.26   17.63
  -5   0   6  512.31   19.02
  -4   0   6  275.12   11.50
  -4   0   6  268.70   10.50
   4   0  -6  266.28    9.49
   4   0  -6  253.60   11.27
  -4   0   6  284.16   11.69
  -3   0   6  312.48   11.32
   3   0  -6  302.58    9.95
   3   0  -6  291.30   11.78
  -3   0   6  316.08   12.09
  -3   0   6  317.89   10.03
  -3   0   6  302.40   12.07
   2   0  -6  398.06   11.67
   2   0  -6  373.29   13.52
  -2   0   6  378.74   13.06
  -2   0   6  399.26   13.75
  -2   0   6  364.20   13.61
  -1   0   6   68.37    3.78
   1   0  -6   69.74    3.75
   1   0  -6   47.37    2.87
  -1   0   6   67.58    3.23
  -1   0   6   59.84    3.85
  -1   0   6   71.56    4.06
   0   0  -6    9.68    1.44
   0   0   6   10.62    1.96
   0   0   6   11.74    1.64
   0   0  -6    9.48    1.52
   0   0   6   12.61    1.88
   0   0   6   10.42    1.61
   1   0   6   22.80    2.20
   1   0   6   26.48    2.55
   1   0   6   26.62    2.91
   1   0   6   24.73    2.22
  -1   0  -6   24.01    2.21
   2   0   6  151.33    6.99
   2   0   6  157.46    6.75
   2   0   6  140.03    7.08
   2   0   6  155.31    6.13
   2   0   6  157.54    7.00
   3   0   6   -1.13    0.86
   3   0   6   -1.21    1.15
   3   0   6    0.49    1.30
   3   0   6   -2.71    0.98
   3   0   6   -1.76    1.13
   4   0   6  241.99   10.71
   4   0   6  258.17   10.95
   4   0   6  258.68   11.09
   4   0   6  235.41   10.94
   4   0   6  253.68    9.21
   5   0   6   44.53    5.12
   5   0   6   40.16    4.34
   5   0   6   46.62    5.09
   6   0   6   58.42    5.54
   6   0   6   40.70    5.55
   6   0   6   42.01    5.40
   7   0   6   33.32    5.33
   7   0   6   41.54    6.32
   7   0   6   44.89    5.58
   8   0   6    6.41    3.75
   8   0   6    6.48    3.96
   9   0   6   96.41   10.30
   9   0   6   72.42    8.25
  11  -1  -6   29.49    6.62
  10   1  -6   11.16    4.04
 -10   1   6    5.69    3.57
  10  -1  -6    9.66    4.48
 -10  -1   6   10.28    4.12
  10  -1  -6    8.65    4.30
  -9   1   6    6.85    3.70
   9  -1  -6    4.98    3.32
  -9  -1   6    6.75    3.36
   9  -1  -6    8.89    3.94
   9   1  -6   14.69    3.94
  -8   1   6  133.76    9.26
   8  -1  -6  144.66    8.85
   8   1  -6  139.15    8.13
  -8  -1   6  125.13    8.75
   8  -1  -6  132.81    8.81
   8   1  -6  140.63   10.01
   8  -1  -6  136.78   10.00
  -7   1   6  143.38    9.31
   7   1  -6  154.18    8.02
   7   1  -6  164.39   10.13
   7  -1  -6  165.88   10.11
   7  -1  -6  166.46    8.84
   7   1  -6  163.59    7.90
  -7  -1   6  150.06    9.27
  -6  -1   6  210.60   10.69
   6  -1  -6  213.04    9.66
   6   1  -6  219.06   11.32
   6   1  -6  211.76    8.99
   6  -1  -6  223.67   11.43
  -6   1   6  214.67   10.94
  -6   1   6  221.59   10.47
   5   1  -6  324.05   11.31
  -5  -1   6  328.58   13.68
  -5   1   6  324.04   13.75
  -5  -1   6  325.47   11.67
   5  -1  -6  330.15   12.28
   5   1  -6  312.80   13.84
  -5   1   6  335.51   13.24
   5  -1  -6  327.65   13.87
   4   1  -6  261.48   11.66
  -4  -1   6  277.16    9.18
  -4   1   6  265.38   11.65
  -4  -1   6  287.25   11.76
  -4   1   6  280.76   11.39
  -4  -1   6  273.20    9.99
   4  -1  -6  266.93   11.54
  -4   1   6  281.83   11.76
   4   1  -6  277.82    9.26
   4  -1  -6  294.19   10.45
  -3  -1   6  177.64    8.44
   3  -1  -6  178.75    7.17
   3  -1  -6  189.84    8.14
  -3  -1   6  186.41    6.00
  -3  -1   6  186.82    7.27
  -3   1   6  186.46    8.33
  -3   1   6  163.02    8.24
  -3  -1   6  176.38    8.36
   3   1  -6  172.57    8.31
   3   1  -6  180.30    5.99
  -3   1   6  197.35    8.37
  -2  -1   6   71.47    3.86
  -2  -1   6   62.96    4.39
   2   1  -6   65.65    2.30
   2   1  -6   62.57    4.25
   2  -1  -6   67.66    3.90
  -2   1   6   65.52    4.42
  -2   1   6   65.29    4.42
  -2   1   6   70.25    4.03
   2   1  -6   68.37    2.43
  -2  -1   6   69.61    4.49
   2  -1  -6   66.96    3.68
  -1  -1   6    8.45    1.80
  -1  -1   6    7.06    0.77
  -1   1   6    8.25    1.86
  -1   1   6    7.85    1.37
  -1   1   6    7.92    1.77
  -1   1   6    5.99    1.69
   1  -1  -6    8.16    1.32
   1   1  -6    7.71    0.69
   1   1  -6    5.91    1.56
  -1  -1   6    8.30    1.94
  -1  -1   6    7.52    1.61
   0  -1   6   36.19    3.03
   0   1  -6   31.55    2.86
   0  -1   6   34.02    2.94
   0   1  -6   36.41    2.07
   0  -1  -6   35.96    2.14
   0   1   6   34.75    2.74
   0   1   6   39.52    2.23
   0  -1   6   34.73    2.19
   0  -1   6   34.49    3.01
   0   1   6   46.18    3.39
   0   1   6   37.04    3.22
  -1   1  -6  280.55   11.14
   1   1   6  296.19    9.81
  -1  -1  -6  270.61    9.44
   1  -1   6  280.62   10.81
   1   1   6  286.91   11.06
   1  -1   6  293.87   11.15
   1  -1   6  305.79   10.87
   1   1   6  290.82   10.94
   1  -1   6  298.58    9.89
  -1  -1  -6  312.45    9.83
   1   1   6  300.18    9.57
   2  -1   6   35.70    3.60
   2  -1   6   36.67    3.07
   2   1   6   36.27    2.45
   2   1   6   35.01    2.42
   2   1   6   29.62    2.09
   2  -1   6   36.76    3.87
   2   1   6   37.20    3.59
   2  -1   6   37.56    3.38
   2   1   6   41.03    3.90
  -2   1  -6   35.32    3.39
   2   1   6   31.22    2.30
   2  -1   6   30.51    3.03
   3  -1   6   12.14    2.61
   3   1   6   16.10    1.39
   3  -1   6   15.21    2.87
   3   1   6   15.15    2.04
   3   1   6   15.39    2.99
   3  -1   6   13.19    2.80
   3  -1   6   15.27    2.63
   3   1   6   15.32    1.28
   3   1   6   15.12    2.79
   4  -1   6   54.02    5.01
   4  -1   6   72.39    5.16
   4   1   6   65.22    5.07
   4   1   6   51.53    5.27
   4   1   6   66.02    4.52
   4   1   6   61.92    4.14
   4  -1   6   61.78    5.20
   5  -1   6  349.16   15.58
   5  -1   6  358.98   15.27
   5   1   6  377.95   15.14
   5   1   6  362.81   14.14
   5   1   6  394.26   14.73
   5   1   6  351.94   15.41
   5  -1   6  382.89   15.07
  -5   1  -6  361.00   13.95
   6   1   6  158.05    8.47
   6  -1   6  146.46    9.36
   6  -1   6  159.49    9.67
   6  -1   6  150.47    9.15
  -6   1  -6  154.72    8.16
   6   1   6  152.60    9.01
   6   1   6  138.95    9.39
   7   1   6    2.17    3.05
   7   1   6    4.12    2.92
   7  -1   6   -0.09    2.55
   7  -1   6    2.44    2.90
   7  -1   6    3.09    2.83
   8   1   6   69.35    7.43
   8   1   6   58.30    8.05
   8  -1   6   47.65    6.59
   8  -1   6   43.24    6.54
   8  -1   6   53.95    7.39
   9  -1   6    4.91    3.90
   9   1   6    0.16    3.55
   9  -1   6    0.95    3.72
   9   1   6    3.98    3.82
  10  -2  -6    6.01    4.40
  10  -2  -6    9.19    4.57
 -10   2   6    9.68    4.74
  -9  -2   6   38.38    5.70
   9  -2  -6   50.18    6.98
   9  -2  -6   51.41    6.75
  -9   2   6   25.42    5.55
   9   2  -6   35.79    5.28
   8  -2  -6   12.52    3.83
   8  -2  -6    7.82    3.75
  -8   2   6   15.01    4.38
  -8  -2   6   10.65    3.84
   8   2  -6   16.66    3.61
   8  -2  -6    8.46    3.46
   8   2  -6   14.19    4.19
   7   2  -6  269.18   11.47
  -7   2   6  253.34   13.45
  -7   2   6  289.02   13.53
   7  -2  -6  273.53   14.06
   7  -2  -6  291.30   12.86
   7   2  -6  284.18   14.22
  -7  -2   6  261.79   12.95
   6   2  -6   92.73    4.53
   6  -2  -6   81.74    5.98
   6   2  -6   75.18    6.51
  -6  -2   6   78.45    6.37
   6  -2  -6   85.68    6.82
  -6   2   6   78.82    6.48
  -6   2   6   76.96    6.58
   6   2  -6   87.34    5.29
   5   2  -6   74.78    3.68
  -5   2   6   54.39    5.56
   5   2  -6   56.12    5.13
   5  -2  -6   62.58    4.78
  -5  -2   6   63.52    5.33
   5  -2  -6   50.76    5.10
  -5   2   6   63.88    5.79
   5   2  -6   62.30    3.92
  -5  -2   6   55.58    3.31
  -4   2   6  100.97    6.42
   4   2  -6   96.78    4.20
   4   2  -6   94.02    6.22
   4  -2  -6   93.49    5.51
  -4  -2   6   93.24    4.23
   4   2  -6   90.84    4.18
  -4   2   6   97.93    6.21
  -4  -2   6   93.07    4.06
  -4  -2   6   94.22    6.05
  -4   2   6   92.09    6.27
   4  -2  -6   88.87    5.86
   3   2  -6  129.40    5.01
  -3   2   6  129.93    7.04
  -3  -2   6  119.50    5.00
   3   2  -6  121.28    4.21
   3  -2  -6  110.75    6.09
   3   2  -6  117.92    6.80
  -3  -2   6  123.95    6.85
  -3   2   6  125.53    7.03
  -3  -2   6  123.74    4.00
   3  -2  -6  118.05    6.00
  -3  -2   6  125.37    6.80
  -3   2   6  127.72    6.50
  -2  -2   6  370.74   13.88
  -2   2   6  377.55   13.14
  -2  -2   6  370.15   11.98
  -2  -2   6  358.63   14.08
   2  -2  -6  370.67   12.93
   2   2  -6  387.75   12.05
   2  -2  -6  360.39   12.83
   2   2  -6  363.79   14.22
  -2   2   6  371.08   13.75
  -2   2   6  372.43   14.02
  -1  -2   6  203.50    7.74
  -1   2   6  209.63    8.49
  -1   2   6  208.13    7.47
   1  -2  -6  208.79    7.38
  -1   2   6  204.08    8.98
  -1  -2   6  201.03    8.99
   1   2  -6  207.04    9.11
  -1  -2   6  189.65    8.68
  -1   2   6  192.91    8.68
   0  -2   6  177.10    8.25
   0  -2   6  176.72    7.37
   0   2   6  176.47    5.82
   0   2   6  183.97    7.20
   0   2  -6  183.47    5.88
   0   2  -6  174.55    8.32
   0   2   6  180.13    8.17
   0  -2   6  171.97    5.85
   0   2   6  183.94    8.28
   0  -2  -6  168.41    5.69
   0  -2   6  172.06    7.96
   1   2   6 1095.60   33.72
  -1   2  -6 1092.80   35.63
   1   2   6 1106.54   33.89
  -1  -2  -6 1110.37   32.21
   1  -2   6 1136.62   35.49
   1  -2   6 1101.42   34.44
   1  -2   6 1118.64   31.55
   1  -2   6 1109.24   33.34
   1   2   6 1130.86   32.42
  -2   2  -6  152.67    7.93
   2   2   6  154.07    7.96
   2   2   6  145.71    7.38
   2  -2   6  149.95    7.94
   2  -2   6  150.82    7.52
   2  -2   6  152.79    8.54
   2  -2   6  140.69    6.44
   2   2   6  158.22    5.12
   3   2   6  252.90    8.69
   3   2   6  251.96   11.55
   3  -2   6  262.49   10.28
   3  -2   6  265.07   12.44
   3   2   6  258.06    8.76
   3  -2   6  259.10   11.23
  -3   2  -6  263.63   11.20
   3   2   6  247.12   10.82
   4   2   6  510.32   16.64
   4   2   6  521.60   16.88
   4   2   6  511.86   19.35
   4  -2   6  477.44   17.60
   4  -2   6  504.47   20.36
  -4   2  -6  489.75   18.51
   4  -2   6  499.25   18.86
   4   2   6  503.56   18.26
   5  -2   6  149.03    9.58
   5   2   6  137.65    6.84
   5  -2   6  140.69    8.75
   5  -2   6  144.63    8.19
  -5   2  -6  137.24    8.23
   5   2   6  146.30    8.32
   5   2   6  144.78    9.13
   6  -2   6  120.61    8.58
  -6   2  -6  115.04    7.77
   6  -2   6  120.95    8.96
   6   2   6  128.93    8.18
   6  -2   6  103.65    7.62
   6   2   6  108.93    8.53
   7   2   6    2.91    2.76
   7   2   6    4.24    3.44
   7  -2   6    8.90    3.75
   7  -2   6    5.54    3.23
   7  -2   6    6.60    3.86
   8   2   6   13.41    4.11
   8  -2   6   17.07    5.01
   8  -2   6   15.00    4.59
   8   2   6   13.34    4.96
   9  -2   6   33.43    6.71
  10  -3  -6   60.64    8.63
  10  -3  -6   40.65    7.15
  -9   3   6    0.31    3.19
  -9  -3   6   -0.91    2.94
   9  -3  -6    1.19    3.43
   9  -3  -6    1.92    3.58
   8  -3  -6   96.23    8.39
  -8  -3   6   82.02    7.43
   8  -3  -6  105.48    8.08
  -8   3   6   96.90    8.67
  -7   3   6   97.98    7.93
   7   3  -6  100.66    6.54
  -7   3   6  100.87    8.19
   7   3  -6   97.16    7.91
   7  -3  -6   88.83    7.20
  -7  -3   6   84.56    7.15
   7  -3  -6   74.55    7.61
  -6   3   6  216.37   12.02
  -6   3   6  215.65   11.64
   6   3  -6  224.22    9.53
  -6  -3   6  228.11   11.29
   6  -3  -6  208.11   10.70
   6  -3  -6  210.32   11.59
   5  -3  -6   47.65    4.92
   5  -3  -6   29.05    4.21
   5   3  -6   52.55    5.52
  -5   3   6   48.08    5.54
  -5   3   6   48.87    5.78
  -5  -3   6   37.01    4.73
   5   3  -6   43.30    3.66
  -4  -3   6  114.23    4.60
   4  -3  -6  101.46    6.36
  -4   3   6  106.00    7.26
   4   3  -6  102.31    7.01
   4   3  -6  106.65    4.85
  -4  -3   6  106.93    6.78
   4  -3  -6  106.03    6.59
  -4   3   6  100.58    7.14
  -3   3   6   68.06    5.11
  -3  -3   6   67.83    3.04
   3  -3  -6   59.54    4.43
  -3  -3   6   64.86    2.74
  -3   3   6   61.28    5.22
  -3  -3   6   72.08    5.27
   3   3  -6   58.05    4.99
   3   3  -6   68.09    3.11
   3   3  -6   67.16    3.03
  -3   3   6   68.93    5.40
   3  -3  -6   54.57    4.50
  -2   3   6    2.41    1.69
  -2   3   6   -0.47    1.38
  -2   3   6    1.23    1.26
  -2  -3   6    1.05    0.98
   2  -3  -6    2.35    1.78
   2   3  -6    0.66    1.46
  -2  -3   6    1.77    0.48
  -2  -3   6   -0.82    1.40
   2  -3  -6   -0.08    0.98
   2   3  -6    2.42    1.11
  -1   3   6  545.37   17.68
  -1  -3   6  572.12   15.58
  -1   3   6  558.96   18.96
  -1  -3   6  549.77   19.43
   1  -3  -6  553.34   17.41
   1   3  -6  502.68   19.87
  -1   3   6  533.41   19.35
  -1  -3   6  552.18   15.70
  -1   3   6  574.12   19.63
  -1  -3   6  555.84   17.25
   0   3   6  269.07   11.53
   0  -3   6  282.14    9.00
   0  -3   6  279.45   11.81
   0  -3  -6  301.00    8.77
   0   3   6  277.01   11.96
   0   3  -6  282.29    9.05
   0   3   6  280.38   10.67
   0  -3   6  260.04   10.30
   0   3  -6  265.13   12.08
   1   3   6  400.76   13.03
  -1   3  -6  410.22   15.85
   1  -3   6  361.96   14.80
   1  -3   6  376.55   13.83
   1   3   6  367.11   15.03
   1  -3   6  376.62   12.39
   1   3   6  377.18   14.41
   2   3   6  212.53    6.98
   2   3   6  194.12    9.93
   2  -3   6  205.61    9.48
   2  -3   6  192.76    8.09
  -2  -3  -6  198.41    6.58
   2  -3   6  197.77   10.78
  -2   3  -6  199.43   10.21
   2   3   6  192.15    9.22
   3  -3   6  100.63    6.62
   3  -3   6   86.81    7.28
   3  -3   6   87.17    5.46
   3   3   6   86.22    5.91
  -3   3  -6   96.36    6.86
   3   3   6   97.29    7.03
   4  -3   6   92.36    7.81
   4  -3   6   89.12    6.84
   4   3   6   92.84    6.33
  -4   3  -6   86.30    6.90
   4   3   6   94.20    7.35
   4  -3   6   85.64    5.90
   5  -3   6  151.62    8.51
   5   3   6  122.69    9.20
   5  -3   6  156.54    9.57
   5   3   6  131.19    8.09
  -5   3  -6  149.55    9.22
  -6   3  -6   -0.81    2.46
   6  -3   6   -0.46    2.66
   6   3   6    2.82    2.65
   6  -3   6    1.30    2.61
   6   3   6   -0.58    2.99
   6  -3   6    0.18    2.91
   7  -3   6   52.29    6.54
   7  -3   6   46.22    6.82
   7   3   6   39.41    7.00
  -7   3  -6   46.92    6.70
   7   3   6   45.75    5.68
   8  -3   6   57.83    7.49
   8  -3   6   49.49    7.65
   8   3   6   57.22    8.94
   9  -4  -6    6.23    4.61
   9  -4  -6    4.49    4.24
  -9   4   6    5.85    4.00
   8  -4  -6   17.59    4.83
  -8  -4   6    2.57    3.59
   8  -4  -6   12.47    4.55
  -8   4   6   16.72    4.97
   7  -4  -6   50.32    6.60
  -7   4   6   51.30    6.86
   7  -4  -6   52.20    6.56
   7   4  -6   31.72    5.39
  -7   4   6   54.48    7.32
  -7  -4   6   37.41    5.45
  -6   4   6   44.93    6.32
   6  -4  -6   47.21    5.84
   6   4  -6   37.87    5.48
  -6  -4   6   49.69    5.77
   6  -4  -6   52.07    5.93
  -6   4   6   43.98    6.42
   5   4  -6   33.32    3.61
  -5   4   6   37.39    5.64
  -5   4   6   28.13    5.15
   5  -4  -6   32.17    4.88
   5   4  -6   35.52    5.16
   5  -4  -6   32.15    4.61
  -5  -4   6   35.58    4.89
  -4  -4   6  404.09   16.72
  -4   4   6  420.09   17.67
   4   4  -6  403.03   17.65
   4  -4  -6  434.10   16.56
  -4   4   6  437.65   18.14
   4  -4  -6  424.16   16.83
   4   4  -6  441.53   14.16
   3   4  -6  280.27   12.96
  -3  -4   6  246.89   11.79
  -3  -4   6  268.86    7.94
  -3   4   6  267.95   12.75
   3  -4  -6  259.95   11.25
  -3   4   6  272.19   11.98
  -3   4   6  287.61   13.04
  -3  -4   6  268.25    8.75
   3  -4  -6  260.63   11.62
  -2   4   6  163.91    7.87
  -2  -4   6  159.15    6.17
  -2  -4   6  160.51    5.87
  -2  -4   6  159.00    5.69
  -2   4   6  156.71    8.99
   2  -4  -6  154.40    7.19
   2  -4  -6  161.14    8.41
   2  -4  -6  161.53    7.36
  -2  -4   6  153.20    8.56
  -2   4   6  166.09    9.00
   2   4  -6  176.66    9.42
  -1  -4   6  373.01   12.88
  -1  -4   6  390.57   11.84
  -1   4   6  386.17   15.02
  -1  -4   6  374.29   15.30
  -1  -4   6  388.49   12.17
   1  -4  -6  371.46   14.66
  -1   4   6  413.07   16.13
  -1   4   6  373.24   15.32
   1  -4  -6  376.35   12.92
   1   4  -6  356.29   15.83
   1  -4  -6  378.75   12.91
   0  -4  -6  112.07    4.02
   0  -4   6  105.73    4.79
   0   4   6   96.99    6.69
   0   4   6   91.44    6.01
   0  -4  -6  100.28    3.92
   0  -4   6   94.13    5.46
   0  -4   6   93.29    6.73
   0   4  -6   99.04    7.05
   0   4   6  109.91    7.46
   1   4   6  131.24    8.48
   1  -4   6  145.23    6.30
  -1   4  -6  134.96    8.57
   1  -4   6  130.33    7.11
   1   4   6  143.69    6.89
   1   4   6  133.19    7.76
  -2   4  -6   79.78    6.76
   2   4   6   79.13    6.02
   2   4   6   98.46    4.82
   2  -4   6   96.22    5.49
   2   4   6   94.58    7.29
   2  -4   6  100.81    6.48
   2  -4   6   86.59    7.52
   3  -4   6  257.76   14.24
   3   4   6  280.30   12.09
   3   4   6  272.35   13.55
   3  -4   6  274.93   11.25
   3  -4   6  268.82   12.59
  -3   4  -6  253.51   13.08
  -4   4  -6   20.48    4.63
   4   4   6   18.52    3.65
   4  -4   6   16.57    4.49
   4  -4   6   19.14    4.19
   4  -4   6   16.69    3.43
   4   4   6   15.63    4.32
   5  -4   6   17.55    3.95
   5   4   6   20.74    4.04
   5   4   6   19.05    4.87
   5  -4   6   14.59    4.72
  -5   4  -6   13.88    4.43
   5  -4   6   15.83    4.15
   6  -4   6   75.18    7.27
  -6   4  -6   73.50    8.04
   6  -4   6  108.32    9.48
   6   4   6   95.14    9.60
  -7   4  -6   91.98    9.19
   7  -4   6   91.59    9.51
   7   4   6  104.20   10.71
   7  -4   6   83.94    8.38
   8  -4   6   43.42    7.15
   8  -4   6   32.16    6.70
   8   4   6   28.24    7.08
   8  -5  -6   10.43    4.73
  -8   5   6    2.55    3.73
   8  -5  -6    5.20    3.91
  -7   5   6    9.32    4.11
   7  -5  -6    5.94    3.80
  -7  -5   6    9.49    3.94
  -6  -5   6   25.29    4.82
   6  -5  -6   24.72    5.15
  -6   5   6   23.30    5.19
  -6   5   6   19.94    5.11
   6   5  -6   25.13    5.19
   6  -5  -6   21.14    4.62
  -5  -5   6   37.95    5.20
   5  -5  -6   36.25    5.47
   5   5  -6   42.80    5.95
  -5   5   6   30.59    5.63
  -5   5   6   44.13    6.47
   5  -5  -6   40.77    5.40
   4  -5  -6  147.62    8.87
   4  -5  -6  139.10    8.41
  -4   5   6  136.04    9.56
  -4   5   6  138.08    9.79
   4   5  -6  143.85    9.55
  -4  -5   6  143.57    8.78
   3  -5  -6   27.05    4.47
   3  -5  -6   27.09    3.73
  -3   5   6   27.58    5.12
   3   5  -6   34.07    5.23
  -3  -5   6   21.23    4.03
  -3   5   6   23.26    4.61
  -2   5   6  269.51   12.89
   2  -5  -6  235.81   10.27
  -2   5   6  252.43   12.58
  -2  -5   6  254.41   12.22
   2  -5  -6  243.40   10.48
   2   5  -6  232.09   12.66
   2  -5  -6  254.47   11.89
  -2  -5   6  260.68    8.96
  -1  -5   6   55.39    5.90
   1   5  -6   54.05    6.11
  -1   5   6   78.26    6.83
  -1   5   6   66.72    6.26
  -1  -5   6   72.68    4.15
   1  -5  -6   59.43    5.87
  -1  -5   6   64.37    4.28
   1  -5  -6   71.49    4.31
   0   5  -6  187.67   11.18
   0  -5   6  198.83    8.11
   0   5   6  215.42   10.90
   0   5   6  195.01   11.27
   0   5   6  204.80   10.19
   0  -5   6  191.49    8.78
   0  -5   6  200.05   10.95
   1  -5   6   37.32    3.62
   1  -5   6   36.58    4.26
   1   5   6   22.93    4.96
   1   5   6   38.48    4.96
   1   5   6   33.24    4.11
  -1   5  -6   24.61    4.62
   2  -5   6    6.69    2.69
   2   5   6    4.05    2.51
   2  -5   6    6.49    2.40
   2  -5   6   10.53    3.93
   2   5   6    6.77    3.38
  -2   5  -6    0.69    2.52
   3   5   6   50.37    5.42
   3  -5   6   50.15    4.89
   3  -5   6   49.35    7.00
  -3   5  -6   45.70    6.41
   3  -5   6   47.84    5.83
   3   5   6   53.44    7.14
   4   5   6   90.45    6.79
   4  -5   6   97.32    6.80
   4  -5   6   69.20    8.24
   4   5   6   88.68    9.11
   4  -5   6   88.05    7.64
  -4   5  -6   97.57    9.15
   5   5   6   17.72    5.47
  -5   5  -6   25.24    5.95
   5  -5   6   19.86    4.32
   5  -5   6   21.54    5.08
   6  -5   6   35.20    5.95
   6   5   6   37.06    7.47
   6  -5   6   30.78    6.16
  -6   5  -6   36.81    6.63
   7  -5   6   39.93    6.98
  -7   5  -6   40.93    7.29
   7  -5   6   43.55    6.66
   7   5   6   49.63    8.93
  -7   6   6   29.68    6.62
   7  -6  -6   44.33    7.06
   6  -6  -6    6.58    3.68
  -6  -6   6    3.48    3.31
  -6   6   6   10.32    4.58
  -6   6   6    5.47    4.05
   5  -6  -6   21.81    4.86
  -5   6   6   24.45    5.48
   5   6  -6   21.25    5.20
  -5   6   6   18.34    5.16
  -5  -6   6   20.46    4.32
   5  -6  -6   19.74    4.56
  -4   6   6   59.34    7.53
  -4  -6   6   61.13    6.55
   4   6  -6   54.27    7.01
   4  -6  -6   66.99    6.90
   4  -6  -6   57.36    6.02
  -4   6   6   59.09    7.74
   3  -6  -6    6.52    3.29
   3   6  -6    2.69    2.97
  -3   6   6    6.69    3.78
  -3  -6   6    6.37    3.19
  -3   6   6    6.29    3.39
  -2   6   6   37.29    5.85
   2  -6  -6   35.21    5.35
  -2  -6   6   46.33    5.99
   2   6  -6   38.48    5.92
  -2   6   6   34.31    5.83
  -1   6   6   54.19    6.31
   1   6  -6   59.61    6.98
  -1  -6   6   55.32    6.48
  -1   6   6   55.94    6.55
   1  -6  -6   45.97    5.83
   0   6   6   37.89    5.29
   0   6   6   40.53    6.54
   0  -6   6   42.17    4.33
   0  -6   6   34.42    5.59
   0   6   6   50.56    6.01
   0   6  -6   44.62    6.40
   0  -6  -6   45.27    5.76
   1   6   6   22.27    4.42
  -1   6  -6   25.28    5.43
   1  -6   6   29.24    3.76
   1   6   6   33.01    6.19
   1  -6   6   19.90    3.70
   2  -6   6    5.61    3.01
   2  -6   6    9.92    3.06
   2  -6   6    6.78    3.89
   2   6   6   11.49    4.40
   2   6   6   15.23    3.78
   3  -6   6   20.03    4.44
  -3   6  -6   26.93    5.70
   3  -6   6   31.83    4.58
   3   6   6   26.08    5.96
   4  -6   6   63.41    7.29
  -4   6  -6   71.38    8.62
   4  -6   6   77.24    6.47
   4   6   6   62.39    8.77
   5   6   6   14.09    5.58
   5  -6   6   18.70    4.59
   5  -6   6   13.94    4.66
  -5   6  -6   25.82    6.09
  -6   6  -6   86.78   10.12
   6  -6   6   81.05    9.43
   6   6   6   85.24   11.04
   6  -6   6   67.26    7.75
   6  -7  -6   30.76    6.30
  -5   7   6  134.58   11.03
   5  -7  -6  137.75   10.25
  -5   7   6  132.10   11.52
  -5  -7   6  112.13    9.04
  -4  -7   6   30.93    5.44
  -4   7   6   16.75    5.63
   4  -7  -6   31.78    6.01
  -4   7   6   36.56    6.82
   3  -7  -6   74.10    7.81
  -3   7   6   54.54    7.93
  -3  -7   6   56.13    6.85
  -3   7   6   72.57    8.36
  -2  -7   6    2.08    2.90
   2  -7  -6   -2.20    2.55
  -2   7   6    2.91    3.63
  -2   7   6    1.10    3.25
  -1   7   6    8.65    3.72
  -1   7   6    3.91    3.64
   1  -7  -6    4.79    3.28
  -1  -7   6    9.97    3.85
   0   7   6   11.64    4.20
   0   7   6   13.18    4.53
   0  -7   6   10.99    4.07
   0  -7  -6   12.49    4.03
   1  -7   6   15.67    4.51
  -1  -7  -6   16.99    4.45
   1   7   6   17.20    4.43
   1   7   6   17.37    5.39
   2  -7   6   74.98    7.08
   2   7   6   92.77   10.40
   3  -7   6   32.77    5.80
   3   7   6   44.69    8.26
   4   7   6   -2.81    4.04
  -4   7  -6   -1.76    3.21
   4  -7   6    0.30    3.19
   5  -7   6   13.67    4.77
  -4   8   6   18.69    6.20
  -3   8   6   12.16    5.37
   3  -8  -6    2.38    3.54
  -3  -8   6    3.76    3.74
  -3   8   6    6.98    4.94
   2  -8  -6   14.68    4.70
  -2   8   6    8.89    5.30
  -2  -8   6   11.24    4.58
  -2   8   6   18.27    5.78
  -1   8   6   39.14    7.15
  -1  -8   6   39.03    6.51
   1  -8  -6   39.70    6.79
   0  -8  -6   11.61    4.48
   0  -8   6   13.66    4.72
   1  -8   6   90.06    9.56
  -1  -8  -6  106.69    8.98
   2   8   6   26.98    7.40
  -2  -8  -6   22.06    5.20
   4  -8   6    0.22    3.72
  10   0  -7   29.98    5.61
 -10   0   7   26.96    5.88
   9   0  -7   55.25    6.26
  -9   0   7   55.43    6.82
   8   0  -7   14.79    3.60
   8   0  -7    6.10    3.51
   8   0  -7    7.79    3.05
  -8   0   7   11.88    3.85
   7   0  -7    1.33    2.42
  -7   0   7    1.13    2.06
   7   0  -7    1.15    2.05
  -7   0   7   -0.33    2.33
  -6   0   7   36.28    5.09
  -6   0   7   48.25    4.60
   6   0  -7   36.72    4.94
   6   0  -7   50.73    4.19
  -5   0   7    3.38    1.96
   5   0  -7    5.01    1.75
  -5   0   7    4.78    2.48
   5   0  -7    5.87    2.30
   4   0  -7  305.01   10.15
   4   0  -7  274.91   12.09
  -4   0   7  275.60   12.24
  -4   0   7  300.58   11.51
   3   0  -7 1851.74   49.25
  -3   0   7 1890.56   54.67
  -3   0   7 1742.43   53.33
   3   0  -7 1645.09   49.55
   3   0  -7 1758.36   54.26
  -3   0   7 1814.47   51.46
  -2   0   7    2.73    1.41
   2   0  -7    2.11    1.17
  -2   0   7    0.81    1.22
   2   0  -7    1.29    0.87
   2   0  -7    0.70    0.69
  -2   0   7    1.47    1.52
   1   0  -7  278.30   10.36
   1   0  -7  243.47    9.03
  -1   0   7  283.21   10.42
  -1   0   7  285.33   10.74
  -1   0   7  293.35   10.71
  -1   0   7  277.18    9.34
   0   0   7   93.70    5.30
   0   0   7   99.24    5.07
   0   0   7   92.35    4.66
   0   0   7   97.77    4.83
   0   0  -7   97.41    4.81
   1   0   7   38.44    2.88
  -1   0  -7   30.79    2.72
   1   0   7   38.87    3.02
   1   0   7   37.17    3.17
   1   0   7   40.30    3.72
   2   0   7  106.33    4.99
   2   0   7   95.90    5.89
   2   0   7   98.67    5.25
   2   0   7  107.53    5.74
   2   0   7   97.32    5.56
   3   0   7   13.92    2.59
   3   0   7   18.29    3.24
   3   0   7   17.45    2.20
   3   0   7   19.66    3.20
   3   0   7   17.85    2.65
   4   0   7    8.45    2.70
   4   0   7    8.74    2.79
   4   0   7   10.88    2.00
   4   0   7    9.03    2.38
   4   0   7   10.47    2.48
   5   0   7   -0.58    1.67
   5   0   7   -2.09    1.89
   5   0   7   -0.70    1.99
   6   0   7   10.34    3.53
   6   0   7   16.42    3.95
   6   0   7   11.25    3.21
   7   0   7   70.29    7.84
   7   0   7   77.97    6.87
   7   0   7   72.37    7.48
   8   0   7  136.28   10.59
   8   0   7  138.21   10.24
   9   0   7   33.83    6.46
  11  -1  -7    8.45    4.55
  10  -1  -7   73.38    7.99
 -10   1   7   46.42    7.13
 -10  -1   7   55.92    7.25
  -9  -1   7   40.54    6.05
   9  -1  -7   43.26    6.22
   9   1  -7   40.63    5.21
   9  -1  -7   39.01    5.68
  -9   1   7   43.20    6.44
   8   1  -7   12.93    3.97
   8  -1  -7   10.47    4.05
  -8   1   7   13.24    3.89
   8  -1  -7   14.14    3.66
   8   1  -7   16.09    3.30
  -8  -1   7   13.43    4.00
  -7  -1   7  240.54   12.46
   7  -1  -7  249.75   11.35
   7   1  -7  253.47   13.35
   7   1  -7  242.41   10.41
  -7   1   7  264.75   13.01
  -7   1   7  245.22   11.97
   7  -1  -7  240.79   13.14
  -6   1   7  166.09    9.09
   6  -1  -7  170.11    8.38
  -6   1   7  172.82    9.78
  -6  -1   7  165.45    9.53
   6   1  -7  174.11    9.92
   6   1  -7  169.18    7.58
  -6  -1   7  177.38    7.97
   6  -1  -7  156.39    9.58
   5  -1  -7    1.77    1.70
  -5  -1   7    4.70    1.83
   5   1  -7    0.87    1.31
   5   1  -7    3.04    1.96
   5  -1  -7    0.80    1.75
  -5   1   7    4.50    2.34
  -5  -1   7    2.64    2.37
  -5   1   7    4.26    2.37
   4   1  -7   31.77    3.88
  -4  -1   7   31.67    2.34
  -4   1   7   19.81    3.55
   4   1  -7   24.85    2.13
  -4  -1   7   28.54    2.97
   4  -1  -7   23.95    3.39
  -4   1   7   27.94    3.55
  -4  -1   7   30.07    4.00
  -4   1   7   24.58    3.59
   4  -1  -7   28.02    2.97
  -3   1   7   93.05    5.53
  -3  -1   7   95.92    5.91
  -3  -1   7   93.29    5.89
  -3   1   7   98.65    6.10
   3  -1  -7   88.07    5.26
   3   1  -7   79.98    5.47
  -3  -1   7   89.00    4.89
   3  -1  -7   95.58    4.72
   3   1  -7   98.78    3.90
  -3   1   7   85.24    5.58
   3   1  -7   93.33    3.53
   2  -1  -7  205.21    8.26
   2   1  -7  212.45    9.11
  -2  -1   7  199.37    8.95
  -2   1   7  206.75    8.99
  -2  -1   7  206.55    8.20
   2   1  -7  203.78    6.10
  -2   1   7  197.08    8.88
   2   1  -7  201.57    6.02
   2  -1  -7  202.14    7.74
  -2   1   7  203.20    8.38
  -2  -1   7  199.51    8.96
  -1   1   7   44.27    3.60
  -1   1   7   47.58    3.54
   1   1  -7   45.10    2.02
  -1  -1   7   47.19    3.80
   1  -1  -7   40.24    2.78
  -1  -1   7   48.70    3.53
  -1   1   7   46.88    3.06
  -1  -1   7   44.81    2.15
  -1  -1   7   51.86    3.77
  -1   1   7   42.86    3.74
   1   1  -7   36.50    3.32
   0  -1   7  308.51   11.66
   0   1   7  295.59   11.64
   0   1  -7  306.37    9.51
   0  -1   7  309.23   11.32
   0   1  -7  296.62   11.64
   0  -1   7  308.38    9.82
   0   1   7  315.52   10.32
   0  -1  -7  299.70   10.17
   0   1   7  305.18   11.25
   0   1   7  285.16   10.80
   0  -1   7  292.11   11.35
   1  -1   7  146.53    7.18
  -1   1  -7  146.70    7.17
   1   1   7  151.84    7.43
   1   1   7  150.48    5.75
   1   1   7  141.15    6.08
   1  -1   7  169.99    7.45
   1  -1   7  146.90    6.22
  -1  -1  -7  147.42    5.70
   1  -1   7  153.25    7.03
   1   1   7  160.65    7.36
   2   1   7   66.39    3.65
   2  -1   7   57.20    4.72
   2   1   7   59.96    3.46
   2  -1   7   59.49    4.08
  -2   1  -7   63.86    4.47
   2  -1   7   59.15    4.15
   2  -1   7   58.64    4.46
   2   1   7   67.53    4.89
   2  -1   7   61.50    4.62
   2   1   7   61.05    3.29
   2   1   7   63.90    3.38
   2   1   7   61.70    4.71
   3  -1   7   57.34    4.48
   3   1   7   57.87    3.69
   3   1   7   51.37    2.69
   3   1   7   56.04    4.69
   3   1   7   47.22    4.88
   3  -1   7   55.64    4.81
   3  -1   7   40.63    4.51
   3  -1   7   53.92    4.71
   3  -1   7   60.43    4.34
   3   1   7   62.77    3.19
   3   1   7   48.65    3.38
   4  -1   7  185.44    9.13
   4   1   7  169.12    9.48
   4  -1   7  182.45    9.79
   4   1   7  170.95    7.96
   4  -1   7  171.21    9.46
   4   1   7  207.71    8.62
   4   1   7  198.37    9.71
   5   1   7   34.21    5.29
   5  -1   7   24.51    4.25
   5  -1   7   26.83    4.29
   5   1   7   28.01    3.39
   5  -1   7   28.67    4.66
   5   1   7   24.12    4.14
   6   1   7   89.16    6.35
   6   1   7   97.21    7.38
   6   1   7   99.06    8.01
   6  -1   7   94.07    7.67
   6  -1   7   88.87    7.37
   6  -1   7   96.47    7.53
   7  -1   7    2.38    2.91
   7   1   7   -0.36    2.57
   7  -1   7   -0.86    2.51
   7  -1   7   -0.05    2.67
   7   1   7    0.35    2.91
   8  -1   7   63.95    8.07
   8   1   7   55.97    7.98
   8   1   7   59.49    7.35
   8  -1   7   69.32    8.27
   9  -1   7    4.97    4.21
   9   1   7    2.11    3.79
 -10   2   7   23.21    5.70
 -10  -2   7   16.06    5.05
  10  -2  -7   11.68    5.19
  10  -2  -7   33.64    6.61
   9  -2  -7    3.93    3.58
  -9   2   7    1.07    2.85
   9  -2  -7    2.47    3.64
  -9  -2   7    4.28    3.53
   8  -2  -7   51.67    6.07
   8  -2  -7   28.52    5.54
  -8  -2   7   44.70    5.99
   8   2  -7   50.54    5.14
  -8   2   7   37.19    5.93
  -7   2   7  113.91    8.29
   7  -2  -7  119.02    7.84
   7   2  -7  123.37    8.91
   7  -2  -7  126.76    9.09
   7   2  -7  116.33    6.76
  -7   2   7  110.24    8.50
  -7  -2   7  122.36    8.46
  -6   2   7  180.16   10.35
   6   2  -7  161.88   10.04
   6  -2  -7  174.94   10.16
  -6  -2   7  179.73   10.13
  -6   2   7  177.37    9.96
   6   2  -7  179.29    7.80
   6  -2  -7  181.59    9.16
   5   2  -7  191.52   10.39
  -5  -2   7  203.56    7.68
   5  -2  -7  200.80   10.21
   5   2  -7  200.39    7.60
  -5   2   7  194.40   10.41
   5  -2  -7  209.36    9.34
  -5  -2   7  194.35   10.24
  -5   2   7  188.48   10.11
  -4   2   7   52.87    5.19
   4  -2  -7   48.90    4.12
   4   2  -7   49.04    2.73
  -4  -2   7   48.80    3.28
   4   2  -7   54.18    5.13
  -4   2   7   50.44    5.14
  -4  -2   7   54.60    4.83
   4  -2  -7   51.70    4.42
  -4  -2   7   52.21    2.59
   3  -2  -7  454.72   16.87
  -3   2   7  515.90   17.44
   3  -2  -7  481.05   16.23
  -3  -2   7  476.66   17.67
  -3   2   7  497.85   17.88
   3   2  -7  478.54   18.15
  -3  -2   7  472.99   15.23
  -3   2   7  477.16   17.69
  -2   2   7  343.22   13.43
  -2   2   7  338.37   12.16
  -2  -2   7  328.64   13.37
  -2  -2   7  333.90   11.44
  -2   2   7  331.00   12.90
   2  -2  -7  319.49   11.96
  -2  -2   7  334.65   13.18
   2   2  -7  337.93   13.54
   2  -2  -7  331.16   11.94
  -1   2   7   93.16    5.34
   1   2  -7   91.90    5.75
  -1   2   7   91.28    5.82
  -1  -2   7   98.94    4.96
  -1  -2   7   91.94    5.64
   1  -2  -7   90.89    4.18
  -1   2   7   88.18    4.28
  -1   2   7   99.35    5.88
  -1  -2   7   94.00    5.69
   0   2  -7  229.52   10.30
   0   2   7  236.20   10.11
   0   2   7  234.17   10.13
   0   2  -7  230.45    7.39
   0  -2   7  219.04    9.80
   0  -2  -7  216.23    7.37
   0  -2   7  240.62    7.55
   0  -2   7  233.66    9.32
   0   2   7  234.30    8.95
   0   2   7  236.90    7.54
   0  -2   7  230.54   10.20
   1  -2   7   85.28    5.46
  -1   2  -7   87.78    5.83
   1  -2   7   85.45    4.22
   1   2   7   87.33    4.25
   1  -2   7   96.37    5.58
   1   2   7   94.22    5.96
   1   2   7   83.57    5.65
   1  -2   7   91.81    5.92
   2  -2   7  159.10    8.00
   2  -2   7  153.54    7.98
   2   2   7  166.40    8.57
   2   2   7  156.90    5.50
  -2   2  -7  144.74    8.09
   2   2   7  148.21    7.87
   2  -2   7  160.42    6.93
   3   2   7  168.95    9.50
   3   2   7  181.36    6.45
   3  -2   7  177.28    8.16
   3  -2   7  191.79   10.33
   3   2   7  178.04    6.41
   3   2   7  185.16    9.14
   3  -2   7  183.92    9.34
   4  -2   7  118.14    7.65
   4   2   7  116.28    7.97
   4   2   7  116.14    7.32
   4   2   7  110.54    5.24
   4  -2   7  105.31    7.94
   4  -2   7  118.89    6.99
   5  -2   7   17.41    4.06
   5   2   7   14.51    3.43
   5   2   7   16.97    4.14
   5  -2   7   19.48    3.76
   5  -2   7   14.51    4.07
   6   2   7   75.51    7.91
   6   2   7   66.39    6.45
   6  -2   7   59.91    6.88
   6  -2   7   66.09    6.59
   6  -2   7   75.11    7.75
  -6   2  -7   71.31    6.50
   7   2   7   34.48    5.51
   7  -2   7   27.47    5.40
   7   2   7   42.25    6.89
   7  -2   7   23.51    5.49
   7  -2   7   39.63    6.41
   8   2   7    7.49    4.49
   8  -2   7    4.95    3.80
   8  -2   7    7.16    4.28
   8   2   7    7.43    3.88
  10  -3  -7   16.89    5.70
  10  -3  -7   11.86    5.77
   9  -3  -7   70.74    8.12
  -9  -3   7   61.80    7.38
  -9   3   7   61.11    8.41
   9  -3  -7   79.17    8.88
   8  -3  -7   16.37    4.30
  -8  -3   7    9.69    3.92
  -8   3   7   15.40    4.69
  -7   3   7   38.84    6.18
  -7   3   7   41.05    6.07
   7  -3  -7   41.58    5.58
  -7  -3   7   33.78    5.40
   7   3  -7   44.07    6.08
   7  -3  -7   37.81    5.73
  -6   3   7  124.75    8.87
  -6   3   7  121.79    8.61
   6   3  -7  121.76    8.61
   6  -3  -7  116.68    8.28
   6  -3  -7  112.93    7.63
   6   3  -7  123.40    6.37
  -6  -3   7  110.47    7.94
   5  -3  -7   95.46    6.56
   5   3  -7  108.34    5.19
   5   3  -7   97.90    7.38
  -5   3   7   98.27    7.57
   5  -3  -7  104.93    7.16
  -5  -3   7   93.39    6.88
  -5   3   7  100.13    7.49
  -4   3   7   47.45    5.51
   4  -3  -7   71.43    5.31
  -4  -3   7   66.20    5.53
   4  -3  -7   74.34    5.42
  -4   3   7   56.57    5.85
  -4  -3   7   72.21    3.25
   4   3  -7   74.53    5.98
   4   3  -7   68.85    3.32
   3  -3  -7  145.01    7.27
   3   3  -7  126.99    8.08
  -3   3   7  139.88    8.25
  -3   3   7  147.83    7.68
   3   3  -7  158.35    5.95
  -3   3   7  139.82    8.41
  -3  -3   7  150.76    8.23
  -3  -3   7  142.47    5.73
   3  -3  -7  161.74    7.82
   2  -3  -7  189.17    7.74
  -2  -3   7  181.20    7.13
   2   3  -7  175.90    9.36
   2  -3  -7  173.84    8.43
  -2  -3   7  181.69    9.09
  -2   3   7  181.22    7.93
  -2   3   7  183.63    9.46
  -2   3   7  186.26    9.00
  -1   3   7  106.51    6.09
  -1  -3   7  106.88    6.57
  -1   3   7   95.56    6.60
  -1   3   7   99.37    6.68
   1   3  -7   98.44    6.68
   1  -3  -7  105.29    4.52
  -1  -3   7  110.42    5.39
  -1   3   7  102.01    4.71
   0   3  -7  504.38   18.96
   0   3   7  492.71   17.96
   0  -3   7  453.71   17.79
   0  -3   7  504.46   14.54
   0   3   7  491.05   16.69
   0   3   7  486.86   18.21
   0   3  -7  482.62   14.49
   0  -3   7  484.87   16.56
   1   3   7   57.43    5.64
   1  -3   7   47.14    5.01
   1   3   7   68.11    4.12
   1   3   7   59.07    4.96
   1  -3   7   66.15    4.76
  -1   3  -7   65.27    5.52
   1  -3   7   61.03    3.63
   2  -3   7  244.53    9.64
   2   3   7  243.17   11.17
   2  -3   7  246.89   11.03
   2  -3   7  243.43   11.50
   2   3   7  268.68   12.31
   2   3   7  260.74    8.40
  -2   3  -7  230.17   11.81
   3  -3   7  109.40    8.46
   3  -3   7  115.05    6.44
   3   3   7  133.27    8.59
   3   3   7  120.69    7.40
   3  -3   7  130.33    7.89
   4   3   7  168.21   10.34
   4  -3   7  183.33    8.99
   4   3   7  159.72    9.11
   4  -3   7  161.69    9.60
   4  -3   7  171.77   11.01
  -4   3  -7  169.43    9.74
   5  -3   7   -0.64    2.49
   5   3   7    0.54    2.10
   5  -3   7    4.79    2.64
   5   3   7    3.72    3.09
   5  -3   7    2.11    2.53
  -5   3  -7    3.61    2.86
  -6   3  -7   69.72    7.22
   6  -3   7   56.00    7.04
   6   3   7   86.60    8.92
   6  -3   7   82.83    6.98
   6  -3   7   62.35    7.91
   6   3   7   77.86    6.74
   7  -3   7   73.79    7.73
   7  -3   7   75.49    8.53
  -7   3  -7   70.30    7.49
   7   3   7   65.87    8.86
   7   3   7   73.72    7.21
   8  -3   7   -2.88    3.04
   8   3   7    1.37    3.91
   8  -3   7   -2.75    3.39
  -9   4   7   14.18    4.80
   9  -4  -7    4.80    4.35
   9  -4  -7    9.54    5.05
  -8   4   7   22.15    5.27
  -8  -4   7   21.41    5.25
   8  -4  -7   27.86    5.72
  -7   4   7   26.58    5.51
  -7  -4   7   27.62    5.33
   7   4  -7   18.91    4.59
  -7   4   7   33.47    5.92
   7  -4  -7   25.88    5.11
   7  -4  -7   24.33    5.07
   6  -4  -7   61.08    6.47
   6  -4  -7   43.17    5.65
   6   4  -7   45.30    5.98
  -6   4   7   45.36    6.30
  -6   4   7   48.69    6.79
  -6  -4   7   41.19    5.46
  -5  -4   7   74.96    6.28
   5  -4  -7   69.95    5.96
   5  -4  -7   53.95    5.68
   5   4  -7   63.62    6.64
  -5   4   7   54.74    6.71
  -5   4   7   48.32    6.12
  -4   4   7   83.71    7.11
  -4  -4   7   87.46    6.66
   4  -4  -7   87.56    6.33
   4  -4  -7   78.75    5.88
  -4   4   7   82.07    7.07
   4   4  -7   72.73    6.57
   3  -4  -7   85.06    5.50
  -3  -4   7   77.17    6.12
  -3   4   7   78.51    5.87
   3   4  -7   83.43    6.73
  -3   4   7   76.80    6.45
   3  -4  -7   83.61    6.22
  -3   4   7   75.31    6.91
   2  -4  -7  117.30    5.86
  -2   4   7  105.13    6.11
  -2   4   7  104.19    7.49
   2   4  -7   98.25    7.31
  -2   4   7  106.77    7.34
  -2  -4   7  102.56    7.07
  -2  -4   7  113.47    5.15
  -2  -4   7  116.97    3.83
   2  -4  -7  104.35    6.89
  -1  -4   7   34.36    2.20
   1   4  -7   42.16    5.14
   1  -4  -7   34.96    4.45
  -1  -4   7   31.79    4.48
  -1   4   7   32.20    4.55
  -1   4   7   36.10    4.23
  -1   4   7   31.93    4.78
   1  -4  -7   34.32    2.67
  -1  -4   7   33.02    3.18
   1  -4  -7   33.11    2.59
   0   4   7  180.36    8.60
   0  -4   7  167.01    9.41
   0   4   7  173.22    9.53
   0   4   7  174.37    9.94
   0  -4   7  175.11    6.60
   0   4  -7  157.34    9.60
   0  -4   7  174.00    8.08
  -1   4  -7  110.09    7.98
   1  -4   7  111.40    7.71
   1  -4   7  113.41    6.73
   1   4   7  122.09    7.68
   1   4   7  123.01    8.36
   1   4   7  121.42    6.28
   1  -4   7  120.70    5.73
   2  -4   7  364.35   14.61
   2  -4   7  348.79   17.03
   2   4   7  353.43   14.72
   2   4   7  333.67   15.72
  -2   4  -7  359.93   16.26
   2  -4   7  353.41   12.87
   3  -4   7  149.04    7.68
   3   4   7  149.48    8.71
   3  -4   7  135.73    8.59
   3  -4   7  130.28    9.99
   3   4   7  135.38    9.48
   4  -4   7    2.68    3.31
   4   4   7    8.54    3.84
  -4   4  -7    3.46    2.85
   4   4   7    1.09    2.16
   4  -4   7    9.58    2.99
   4  -4   7    3.11    2.71
   5   4   7   29.10    4.76
   5  -4   7   20.40    5.24
   5  -4   7   24.00    5.09
   5  -4   7   27.15    4.69
  -5   4  -7   21.52    4.94
   5   4   7   19.01    5.08
   6   4   7   11.23    4.66
   6  -4   7   12.69    4.31
  -6   4  -7   15.72    4.73
   6  -4   7   17.33    4.43
   7   4   7   49.64    8.38
   7  -4   7   38.30    6.91
  -7   4  -7   53.28    7.49
   7  -4   7   66.57    7.67
   8  -4   7    8.53    4.29
  -8   5   7    3.93    3.79
   8  -5  -7    6.30    4.46
  -7   5   7   -0.64    2.74
  -7  -5   7   -0.82    2.94
   7  -5  -7    1.01    3.02
  -7   5   7    0.96    3.36
  -6  -5   7    2.32    3.02
   6  -5  -7    5.31    3.22
  -6   5   7    1.35    3.11
   6  -5  -7    6.17    3.21
  -6   5   7    2.59    3.33
   5   5  -7    2.19    2.76
   5  -5  -7    2.06    2.74
   5  -5  -7    3.29    2.61
  -5   5   7    1.27    2.76
  -5   5   7   -1.41    2.30
  -5  -5   7   -0.41    2.41
   4  -5  -7   84.01    6.55
  -4   5   7   94.93    8.26
  -4  -5   7   91.97    7.26
   4   5  -7   99.81    8.06
   4  -5  -7   95.20    7.27
  -4   5   7   93.59    8.05
   3  -5  -7  227.29   11.40
  -3  -5   7  213.13   11.31
   3   5  -7  214.81   12.19
   3  -5  -7  226.16   10.32
  -3   5   7  215.54   11.97
  -3   5   7  208.23   12.00
  -2  -5   7   47.22    5.66
  -2   5   7   45.42    5.89
  -2   5   7   38.41    5.41
   2  -5  -7   50.66    5.66
   2  -5  -7   45.12    3.91
   2   5  -7   55.69    6.30
   1  -5  -7    2.55    2.56
  -1   5   7    3.26    2.63
   1   5  -7    2.03    2.63
  -1   5   7    4.29    2.64
  -1  -5   7    6.62    2.15
  -1  -5   7    7.59    3.14
   0   5  -7  142.90    9.63
   0  -5   7  127.60    7.06
   0   5   7  132.98    8.83
   0  -5   7  137.57    6.18
   0  -5   7  129.50    8.78
   0   5   7  136.65    8.11
   0   5   7  132.24    9.36
   1   5   7  140.19    9.75
   1  -5   7  120.46    8.70
   1   5   7  123.85    8.48
   1   5   7  135.96    7.48
  -1   5  -7  129.75    9.38
   1  -5   7  146.44    6.79
   1  -5   7  123.65    7.48
   2   5   7   38.28    5.29
   2  -5   7   32.73    4.71
   2  -5   7   28.18    5.60
   2   5   7   36.54    6.21
  -2   5  -7   45.89    6.20
   2  -5   7   37.26    4.05
   3  -5   7   63.65    7.98
   3  -5   7   46.42    4.84
   3  -5   7   62.82    6.40
   3   5   7   56.14    7.38
   3   5   7   46.05    5.62
   4  -5   7   -2.31    2.45
   4   5   7    0.89    2.43
   4   5   7   -3.74    2.62
   4  -5   7    3.53    2.69
  -4   5  -7    1.36    2.91
   5  -5   7   17.69    4.71
  -5   5  -7   15.73    4.89
   5   5   7   16.82    5.38
   5  -5   7   11.81    3.66
  -6   5  -7   28.51    6.21
   6  -5   7   30.10    6.19
   6   5   7   30.64    7.19
   6  -5   7   24.25    5.08
   7  -5   7   12.49    4.94
   7  -6  -7    2.88    4.16
  -7  -6   7    5.28    3.92
  -7   6   7    5.85    4.45
  -6  -6   7   93.69    8.15
  -6   6   7  107.91   10.73
  -6   6   7   70.05    8.91
   6  -6  -7   70.47    8.04
  -5  -6   7   30.65    5.59
  -5   6   7   29.87    6.38
   5  -6  -7   42.41    6.34
  -5   6   7   35.61    6.61
   4  -6  -7   10.56    3.81
  -4   6   7   16.99    4.90
  -4  -6   7    9.76    3.73
   4   6  -7   14.80    4.44
  -4   6   7   21.85    5.25
  -3   6   7   79.49    8.22
  -3  -6   7   64.14    6.76
  -3   6   7   75.61    8.03
   3   6  -7   71.34    8.00
   3  -6  -7   55.88    6.48
  -2  -6   7   23.35    4.78
   2  -6  -7   41.47    5.86
   2   6  -7   37.97    6.01
  -2   6   7   35.11    6.01
  -2   6   7   32.49    5.61
  -1   6   7   41.83    5.76
   1  -6  -7   54.03    6.36
  -1  -6   7   52.38    6.52
  -1   6   7   54.84    6.65
   1   6  -7   50.24    6.87
   0  -6   7    1.11    2.61
   0   6  -7   -1.47    2.65
   0   6   7    2.97    2.65
   0   6   7    3.11    3.21
   0  -6  -7   -0.91    2.31
   0  -6   7   -0.38    1.94
   0   6   7    2.07    2.65
  -1   6  -7    7.53    3.73
   1  -6   7   19.73    4.88
   1  -6   7   21.81    3.81
   1   6   7   12.67    4.57
   1   6   7   16.00    4.22
   2  -6   7   24.77    4.46
   2   6   7   42.25    7.22
   2   6   7   27.85    5.18
   3  -6   7   13.02    4.10
   3   6   7   10.40    3.76
   3   6   7   16.36    5.11
   3  -6   7   12.76    3.50
   4   6   7   42.10    7.75
   4  -6   7   40.36    5.71
   4  -6   7   33.83    5.96
  -5   6  -7    1.96    3.75
   5  -6   7    5.57    3.48
   5  -6   7    3.52    3.78
   5   6   7   -0.82    4.26
   6  -6   7   12.54    4.86
   6  -6   7    8.03    4.54
  -6   7   7   18.83    5.91
  -5   7   7   23.64    6.55
  -5   7   7   29.89    6.82
  -5  -7   7   20.76    5.37
   5  -7  -7   12.92    4.76
  -4   7   7   69.85    8.84
   4  -7  -7   46.74    7.05
  -4   7   7   50.73    8.08
  -4  -7   7   40.75    6.05
  -3   7   7   31.28    6.17
   3  -7  -7   39.11    6.54
  -3  -7   7   23.67    5.16
  -3   7   7   24.94    6.09
  -2  -7   7    9.46    3.69
   2  -7  -7    3.00    3.36
  -2   7   7    0.20    3.62
  -2   7   7    8.78    4.41
   1  -7  -7   33.37    5.66
  -1  -7   7   28.30    5.56
  -1   7   7   43.89    6.65
  -1   7   7   22.34    5.54
   0  -7   7    1.92    2.98
   0   7   7    0.61    3.24
   0  -7  -7    0.19    2.72
   1   7   7    2.24    3.29
   1  -7   7    4.49    3.53
   1   7   7    4.60    4.21
  -1  -7  -7    5.28    3.41
   2   7   7   29.18    6.93
   2  -7   7   22.00    4.90
   2  -7   7   26.71    5.76
   3   7   7   28.05    7.08
   3  -7   7   35.76    5.93
   4   7   7   25.05    7.24
   4  -7   7   36.53    6.72
  -4   8   7   71.03    9.69
   3  -8  -7    3.57    3.59
  -3   8   7    8.97    5.14
  -2  -8   7   -1.24    3.13
   2  -8  -7    2.05    3.50
  -2   8   7    1.27    4.20
  -2   8   7    3.54    4.49
  -1   8   7   26.27    6.34
   1  -8  -7   31.78    6.18
  -1  -8   7   22.72    5.53
   0  -8   7   58.15    7.78
   0  -8  -7   62.57    7.85
  -1  -8  -7   57.76    7.66
 -10   0   8   12.28    4.50
  -9   0   8    9.91    4.13
   9   0  -8   13.52    3.87
   8   0  -8   21.10    3.87
  -8   0   8   10.17    3.69
   8   0  -8   22.72    5.07
   7   0  -8   20.05    3.51
   7   0  -8   19.42    4.46
  -7   0   8   14.45    4.12
  -7   0   8   18.47    3.68
   6   0  -8   -1.55    1.46
   6   0  -8    0.20    1.91
  -6   0   8   -0.05    2.24
  -6   0   8   -0.42    1.83
  -5   0   8  690.96   22.98
   5   0  -8  677.58   24.78
  -5   0   8  670.66   24.52
   5   0  -8  695.75   21.25
   4   0  -8   37.12    4.11
   4   0  -8   49.98    3.29
  -4   0   8   50.90    4.38
  -4   0   8   49.42    5.13
  -3   0   8  135.15    7.32
  -3   0   8  150.05    7.27
   3   0  -8  128.74    7.03
  -3   0   8  142.75    7.72
   3   0  -8  139.37    5.54
  -2   0   8    1.02    1.62
   2   0  -8    2.95    1.41
   2   0  -8    0.70    0.84
  -2   0   8    4.92    1.76
  -2   0   8    5.69    1.83
   2   0  -8    5.18    1.23
   1   0  -8   62.08    4.06
   1   0  -8   62.14    3.59
  -1   0   8   67.73    4.26
  -1   0   8   69.66    4.68
  -1   0   8   61.97    4.46
  -1   0   8   66.41    3.74
   0   0   8  694.39   22.02
   0   0  -8  636.62   21.60
   0   0   8  641.37   21.52
   0   0   8  708.71   21.85
   0   0   8  652.21   20.50
   1   0   8  365.25   12.95
   1   0   8  362.70   12.91
   1   0   8  374.25   13.10
   1   0   8  356.86   13.73
  -1   0  -8  350.06   12.99
   2   0   8   76.17    5.44
   2   0   8   69.24    4.98
   2   0   8   82.62    4.84
   2   0   8   76.39    4.48
   2   0   8   77.37    5.14
   3   0   8   95.61    6.48
   3   0   8   94.56    6.00
   3   0   8  100.86    5.15
   3   0   8  102.11    5.97
   3   0   8  100.14    6.37
   4   0   8   30.36    4.45
   4   0   8   33.62    4.03
   4   0   8   33.31    4.66
   4   0   8   46.02    3.38
   4   0   8   44.21    4.46
   5   0   8   46.62    5.52
   5   0   8   50.19    5.00
   5   0   8   71.12    6.70
   6   0   8   17.55    4.36
   6   0   8   15.93    3.59
   6   0   8   12.73    4.03
   7   0   8    0.57    2.85
   7   0   8    1.13    2.87
   8   0   8   74.05    8.88
   8   0   8   50.06    7.19
  10  -1  -8   14.14    4.71
 -10   1   8   18.52    5.36
 -10  -1   8   24.28    5.84
  -9  -1   8   23.85    5.32
   9  -1  -8   25.51    5.30
  -9   1   8   17.09    4.89
   9  -1  -8   25.49    5.06
   8  -1  -8   14.41    3.93
  -8  -1   8   12.28    4.02
   8   1  -8   11.93    3.04
   8  -1  -8    9.76    3.88
  -8   1   8   10.00    3.76
   7  -1  -8  184.44    9.45
   7   1  -8  189.98    8.66
   7  -1  -8  199.26   11.45
   7   1  -8  204.35   11.65
  -7   1   8  157.57   10.43
  -7   1   8  192.70   10.35
  -7  -1   8  188.53   10.98
  -7  -1   8  188.74    8.99
   6  -1  -8  199.77   10.81
  -6  -1   8  180.12   10.44
  -6   1   8  196.38   10.83
   6   1  -8  187.67   10.68
  -6  -1   8  202.63    8.97
   6   1  -8  189.87    8.09
   6  -1  -8  174.69    8.81
  -6   1   8  199.19   10.16
   5   1  -8   92.27    4.63
  -5  -1   8   92.73    6.96
   5  -1  -8   86.42    6.44
   5   1  -8   93.48    6.81
   5  -1  -8   96.67    5.62
  -5   1   8   81.84    6.28
  -5  -1   8  100.12    5.75
  -5   1   8  105.19    7.08
  -4  -1   8  480.21   13.69
  -4  -1   8  446.79   15.50
   4   1  -8  440.00   13.53
   4  -1  -8  453.75   15.12
  -4  -1   8  446.94   17.33
  -4   1   8  477.46   17.07
  -4   1   8  436.70   17.34
   4   1  -8  405.90   17.13
   4  -1  -8  437.78   16.91
   3  -1  -8   59.11    4.26
  -3  -1   8   58.06    4.12
  -3  -1   8   44.93    4.73
  -3   1   8   42.56    4.60
   3   1  -8   57.97    2.48
   3  -1  -8   60.87    3.80
  -3   1   8   56.44    5.01
  -3   1   8   58.72    4.42
   3   1  -8   60.71    4.69
   3   1  -8   59.70    2.79
  -2   1   8  135.70    6.44
   2  -1  -8  142.44    6.01
  -2  -1   8  132.03    7.06
   2   1  -8  131.26    4.26
  -2  -1   8  132.77    6.45
  -2  -1   8  121.51    6.94
   2   1  -8  115.36    6.71
   2   1  -8  130.62    4.18
   2  -1  -8  129.23    6.26
  -2   1   8  137.73    7.20
  -2   1   8  131.57    7.11
  -1  -1   8  580.77   19.03
  -1  -1   8  569.78   19.79
  -1   1   8  577.94   18.76
  -1   1   8  591.19   18.94
   1   1  -8  594.61   16.47
  -1   1   8  583.29   19.83
  -1  -1   8  569.20   16.70
   1   1  -8  546.60   19.90
   1  -1  -8  572.55   18.75
  -1  -1   8  612.32   20.23
  -1   1   8  556.68   19.37
   0  -1   8   42.34    3.63
   0  -1   8   33.99    3.56
   0  -1  -8   35.16    2.60
   0   1   8   33.46    3.77
   0   1   8   33.75    3.53
   0   1  -8   36.98    2.51
   0   1  -8   40.61    3.53
   0   1   8   37.29    3.42
   0   1   8   38.90    2.67
   0  -1   8   41.71    2.80
   0  -1   8   36.93    3.56
  -1   1  -8   67.87    4.74
   1  -1   8   73.82    4.75
   1   1   8   66.68    4.96
   1  -1   8   63.61    4.79
   1   1   8   78.42    3.74
   1  -1   8   68.93    4.10
   1   1   8   65.96    4.06
  -1  -1  -8   65.94    3.51
   1  -1   8   72.31    4.80
   1   1   8   71.80    4.96
   2  -1   8  117.36    6.30
   2  -1   8  117.23    7.24
   2  -1   8  120.51    6.75
   2  -1   8  130.56    7.18
   2   1   8  129.76    7.15
   2   1   8  116.25    7.02
   2  -1   8  116.81    6.18
   2   1   8  111.44    5.42
  -2   1  -8  110.59    6.48
   2   1   8  119.96    5.27
   2   1   8  117.87    5.24
   3  -1   8   52.61    5.21
   3  -1   8   34.68    4.36
   3   1   8   47.96    4.94
   3   1   8   44.09    4.95
   3   1   8   44.88    3.37
   3  -1   8   37.56    4.11
   3   1   8   43.80    2.76
   3   1   8   38.61    3.22
   3  -1   8   44.03    4.02
   4  -1   8  284.67   13.19
   4   1   8  281.46   13.00
   4  -1   8  269.89   12.75
   4  -1   8  288.82   11.46
   4  -1   8  286.96   12.28
   4   1   8  241.98   12.21
   5  -1   8   42.14    4.39
   5  -1   8   42.70    5.59
   5  -1   8   43.65    5.55
   5   1   8   39.91    5.76
   5   1   8   40.44    4.03
   5  -1   8   49.81    5.71
   5   1   8   33.85    4.96
   6  -1   8    8.56    3.42
   6   1   8   11.86    4.02
   6  -1   8   10.29    3.56
   6  -1   8   13.36    3.95
   6   1   8   11.84    3.83
   7  -1   8   32.24    5.53
   7   1   8   41.38    6.24
   7  -1   8   56.26    7.29
   7  -1   8   38.89    6.18
   7   1   8   68.38    8.38
   8  -1   8    6.32    4.03
   8  -1   8    8.11    4.30
   8   1   8    1.11    3.87
   8   1   8    5.46    4.03
   9   1   8    2.91    4.22
  10  -2  -8   23.47    6.21
  10  -2  -8   36.32    6.49
   9  -2  -8   19.81    5.15
  -9  -2   8   20.61    5.08
   9  -2  -8   16.81    4.66
  -9   2   8   15.31    4.78
  -8   2   8   32.37    5.68
   8  -2  -8   17.90    4.41
  -8   2   8   27.35    5.63
  -8  -2   8   22.16    5.00
  -7   2   8   18.12    4.26
  -7   2   8   17.43    4.31
   7   2  -8   15.89    4.18
  -7  -2   8   24.44    4.91
   7  -2  -8   23.83    4.99
   7  -2  -8   15.77    3.82
  -6   2   8   52.69    6.11
   6  -2  -8   59.55    5.43
   6   2  -8   59.19    4.04
   6   2  -8   47.76    5.74
  -6  -2   8   59.96    6.36
   6  -2  -8   67.23    6.45
  -6   2   8   36.00    5.19
   5   2  -8  262.20    9.08
  -5   2   8  273.44   12.67
  -5  -2   8  259.30   12.51
   5  -2  -8  260.08   11.13
  -5  -2   8  268.35    9.92
   5   2  -8  256.91   12.80
   5  -2  -8  265.91   12.35
  -4   2   8  349.79   14.42
  -4  -2   8  336.96   11.77
  -4   2   8  326.14   14.23
   4  -2  -8  329.35   13.57
  -4  -2   8  320.06   14.05
   4   2  -8  324.38   14.39
   4  -2  -8  332.24   12.66
   4   2  -8  342.25    9.94
   3  -2  -8  235.80    9.43
  -3  -2   8  220.15    8.66
  -3  -2   8  213.53   10.38
   3   2  -8  217.99   10.66
  -3   2   8  227.41    9.86
   3  -2  -8  210.54    9.38
  -3   2   8  217.02   10.35
  -3   2   8  228.24   10.76
   2  -2  -8  294.70   11.22
  -2   2   8  279.26   12.43
   2   2  -8  268.00   12.37
   2  -2  -8  300.45   11.02
  -2   2   8  320.40   11.33
  -2  -2   8  286.27   12.36
  -2  -2   8  300.98   10.92
  -2   2   8  294.46   12.09
  -1   2   8  256.27   10.59
  -1   2   8  228.91    9.82
  -1  -2   8  230.57   10.48
   1   2  -8  257.33   11.03
  -1   2   8  246.60    8.77
  -1   2   8  231.91   10.67
   1  -2  -8  232.83    8.56
  -1  -2   8  224.53    9.38
   0   2   8  561.02   19.70
   0   2  -8  567.69   20.30
   0   2  -8  556.34   16.07
   0  -2   8  550.05   18.61
   0  -2   8  545.12   19.46
   0   2   8  553.28   18.24
   0  -2  -8  536.02   16.82
   0   2   8  555.99   16.92
   0   2   8  553.61   19.39
   0  -2   8  556.73   16.31
   1  -2   8   95.22    6.12
   1   2   8   91.64    4.71
   1  -2   8   97.66    4.77
   1   2   8   95.06    6.31
   1  -2   8   95.01    5.91
  -1   2  -8  101.65    6.49
   1   2   8  103.05    6.55
   2  -2   8    5.11    2.22
   2  -2   8    4.00    1.87
   2  -2   8    3.55    2.05
   2   2   8    3.02    2.26
   2   2   8    4.86    1.16
   2   2   8    3.68    2.03
  -2   2  -8    3.27    2.00
   3  -2   8   10.03    2.61
   3  -2   8   14.89    3.12
   3   2   8    8.75    1.24
   3  -2   8   10.11    2.87
   3   2   8   13.46    3.47
   3  -2   8    9.36    3.16
   3   2   8   11.64    2.96
   4  -2   8   47.82    5.97
   4   2   8   47.17    5.31
   4   2   8   39.58    5.59
   4  -2   8   32.51    4.90
   4  -2   8   53.93    5.21
   4  -2   8   52.19    5.23
   5   2   8   23.72    4.43
   5  -2   8   22.67    4.85
   5  -2   8    9.73    3.16
   5   2   8   18.26    4.61
   5  -2   8   18.71    4.48
   6   2   8   10.78    3.82
   6  -2   8   12.87    4.20
   6  -2   8   10.40    3.59
   6   2   8   14.18    4.55
   6  -2   8   13.65    4.17
   7  -2   8    9.26    4.28
   7   2   8   17.98    5.23
   7   2   8   12.62    4.13
   7  -2   8   16.47    4.66
   8   2   8   58.44    8.93
   8  -2   8   36.97    6.62
   8   2   8   48.88    6.88
  10  -3  -8    5.70    4.80
  10  -3  -8    0.67    4.56
  -9   3   8   17.34    5.34
  -9  -3   8   38.32    6.44
   9  -3  -8   17.50    5.47
   8  -3  -8   49.49    6.47
  -8   3   8   51.51    7.19
  -8   3   8   29.71    5.92
  -8  -3   8   32.61    5.88
  -7  -3   8    6.50    3.59
   7   3  -8    8.24    3.60
  -7   3   8    9.28    3.73
   7  -3  -8    8.23    3.53
  -7   3   8    5.70    3.13
   7  -3  -8    3.97    2.93
   6  -3  -8   24.56    4.39
  -6  -3   8   30.75    5.24
  -6   3   8   29.09    5.27
   6  -3  -8   24.66    4.40
  -6   3   8   21.87    4.68
   6   3  -8   18.90    4.18
   5   3  -8    2.51    2.28
  -5   3   8    0.86    2.52
   5  -3  -8   -0.50    2.00
  -5   3   8    0.72    2.28
  -5  -3   8    5.46    2.83
   5  -3  -8    3.89    2.43
  -4  -3   8  111.37    7.35
   4  -3  -8   93.89    6.28
  -4  -3   8  102.29    4.66
  -4   3   8   98.51    7.20
   4  -3  -8   96.69    6.50
   4   3  -8   90.29    7.08
  -4   3   8   87.95    7.05
  -3   3   8  126.12    6.90
  -3  -3   8  117.59    5.44
  -3   3   8  119.15    7.83
   3  -3  -8  109.51    6.70
  -3   3   8  120.30    7.55
   3   3  -8  129.44    8.03
   3  -3  -8  120.23    6.48
  -3  -3   8  109.91    7.37
  -2  -3   8  281.15   12.68
  -2   3   8  292.16   12.43
   2  -3  -8  310.14   12.23
   2   3  -8  299.94   13.36
   2  -3  -8  281.75   10.84
  -2  -3   8  294.95   10.69
  -2   3   8  308.84   13.40
  -2   3   8  289.15   11.21
  -1   3   8  446.38   17.50
  -1   3   8  453.66   14.71
  -1  -3   8  440.97   17.25
   1   3  -8  436.11   17.91
  -1   3   8  453.31   16.42
   1  -3  -8  456.74   14.45
  -1   3   8  449.82   17.34
  -1  -3   8  458.62   15.52
   0  -3   8  266.04   11.99
   0   3   8  260.86   10.54
   0   3  -8  271.18    8.61
   0  -3   8  276.84   10.93
   0   3   8  276.87   12.36
   0   3  -8  241.37   12.18
   0  -3   8  264.74    8.59
   0   3   8  272.66   12.13
   1  -3   8  144.51    7.70
  -1   3  -8  143.56    8.68
   1  -3   8  141.35    6.04
   1  -3   8  134.33    8.05
   1   3   8  130.73    7.98
   1   3   8  144.95    6.39
   1   3   8  153.76    8.89
   2  -3   8  841.93   27.59
   2  -3   8  870.67   25.33
   2   3   8  812.48   28.40
  -2   3  -8  818.69   29.35
   2  -3   8  782.13   28.03
   2   3   8  777.42   27.50
   3   3   8  137.34    8.39
   3  -3   8  136.70    8.45
   3   3   8  133.20    9.00
   3  -3   8  130.35    9.50
   3  -3   8  137.76    7.26
   3  -3   8  130.20    8.38
   4   3   8    6.32    2.82
   4  -3   8   11.16    2.93
   4  -3   8    8.19    3.85
   4   3   8   10.75    3.77
   4  -3   8    8.28    3.29
   5   3   8   15.99    3.86
   5  -3   8   16.52    4.37
   5  -3   8   17.96    3.89
   5   3   8   15.91    4.67
   5  -3   8   15.75    4.73
   6   3   8   28.39    5.08
   6  -3   8   22.49    5.08
   6   3   8   19.48    5.51
   6  -3   8   30.03    5.19
   7   3   8    2.90    3.32
   7  -3   8    2.37    3.16
   7  -3   8    0.30    3.34
   7   3   8    5.23    4.46
   8  -3   8   29.89    6.18
   9  -4  -8    7.43    4.42
   9  -4  -8   11.11    5.10
  -8   4   8   26.08    6.03
   8  -4  -8   27.15    5.56
  -8  -4   8   27.62    5.92
   7  -4  -8   18.23    4.59
  -7  -4   8   14.05    4.28
  -7   4   8   20.11    5.08
  -7   4   8   21.21    5.14
   7  -4  -8   13.11    4.17
   6  -4  -8  142.42    9.28
  -6   4   8  142.65   10.31
   6   4  -8  130.05    9.84
  -6   4   8  153.07   10.34
   6  -4  -8  134.00    9.25
  -5  -4   8   44.41    5.59
   5  -4  -8   47.86    5.56
  -5   4   8   49.82    6.41
   5  -4  -8   50.62    5.51
   5   4  -8   60.21    6.59
  -5   4   8   65.73    7.22
   4  -4  -8   45.87    4.77
  -4   4   8   43.08    5.67
  -4   4   8   48.02    6.09
   4   4  -8   42.79    5.60
   4  -4  -8   57.14    5.71
  -4  -4   8   49.26    5.77
   3  -4  -8   20.39    3.19
  -3   4   8   22.92    3.62
  -3   4   8   18.01    4.10
   3  -4  -8   21.36    3.84
  -3  -4   8   23.42    4.25
  -3   4   8   21.89    4.36
   3   4  -8   18.66    3.97
  -2   4   8   43.15    4.97
  -2   4   8   39.85    3.76
  -2  -4   8   40.35    5.13
   2  -4  -8   42.97    5.05
  -2   4   8   35.27    5.11
   2   4  -8   46.76    5.59
  -2  -4   8   36.92    3.23
   2  -4  -8   41.15    3.42
   1   4  -8  109.95    7.93
  -1  -4   8  107.22    5.93
   1  -4  -8  120.18    7.50
  -1   4   8  110.85    7.16
   1  -4  -8  115.19    4.76
  -1  -4   8  109.33    7.56
  -1   4   8  110.64    8.02
  -1   4   8   99.60    7.60
   0   4   8  141.66    8.79
   0   4   8  135.49    7.44
   0  -4   8  147.40    5.66
   0  -4   8  135.50    7.30
   0   4  -8  149.12    9.30
   0  -4   8  140.34    8.61
   0   4   8  134.45    8.99
   1  -4   8  268.94   11.91
   1   4   8  263.07   12.70
  -1   4  -8  268.59   13.75
   1  -4   8  273.10   13.19
   1   4   8  271.80   13.60
   1   4   8  285.29   10.96
   1  -4   8  276.86   10.05
  -2   4  -8  171.21   10.64
   2  -4   8  185.07   10.57
   2   4   8  169.40    9.76
   2   4   8  184.55   10.96
   2  -4   8  173.77    7.99
   2  -4   8  188.60    9.76
   3   4   8   66.54    7.55
   3   4   8   84.12    6.86
   3  -4   8   76.16    6.52
   3  -4   8   78.84    5.65
   3  -4   8   67.96    7.77
   4  -4   8   42.76    5.99
   4   4   8   33.48    5.91
   4  -4   8   29.11    5.80
   4  -4   8   41.06    4.87
   4   4   8   40.99    5.37
   5   4   8   41.48    5.75
   5   4   8   50.88    7.49
   5  -4   8   63.74    7.44
   5  -4   8   76.26    6.87
   6   4   8   11.44    5.09
   6  -4   8   13.57    4.54
   6  -4   8   17.94    4.49
   7  -4   8   14.84    4.75
   7  -4   8   21.84    5.87
   7   4   8   12.30    5.44
   8  -5  -8    6.11    4.36
  -8   5   8    4.10    3.59
  -8  -5   8   -1.02    3.90
   7  -5  -8   89.29    8.74
  -7   5   8   56.11    7.98
  -7  -5   8   94.37    8.81
  -7   5   8   99.08    9.96
  -6  -5   8   53.31    6.64
   6  -5  -8   36.60    5.67
  -6   5   8   61.94    8.18
   6  -5  -8   61.06    7.07
  -6   5   8   39.10    6.43
   5  -5  -8   29.15    5.26
   5  -5  -8   18.50    4.22
  -5   5   8   27.54    5.64
   5   5  -8   23.71    5.18
  -5   5   8   28.12    5.71
  -5  -5   8   20.48    4.54
  -4   5   8  116.54    9.11
   4  -5  -8  106.20    7.27
  -4   5   8  118.27    9.01
  -4  -5   8  108.31    8.14
   4  -5  -8  102.59    7.84
   4   5  -8  104.31    8.61
   3   5  -8    0.82    2.57
  -3   5   8    0.33    2.54
  -3   5   8   -0.86    2.33
   3  -5  -8    2.04    2.64
  -3  -5   8   -2.03    1.89
   3  -5  -8   -1.79    1.73
  -2   5   8  122.91    8.59
  -2  -5   8  102.00    7.77
  -2   5   8  118.32    8.70
   2  -5  -8  115.95    8.00
   2   5  -8  112.71    8.74
  -1  -5   8  126.55    8.72
  -1   5   8  127.01    9.09
  -1   5   8  136.79    8.43
   1   5  -8  132.66    9.46
  -1  -5   8  124.95    6.62
   1  -5  -8  132.13    8.53
   0  -5   8   31.76    5.24
   0  -5   8   23.67    3.54
   0   5   8   19.20    4.73
   0   5   8   33.00    4.40
   0   5   8   25.02    4.71
   0   5  -8   23.83    4.92
   1   5   8   24.85    5.45
   1   5   8   22.12    4.69
   1  -5   8   22.01    3.85
   1  -5   8   27.35    5.25
  -1   5  -8   24.03    5.02
   2   5   8   45.33    6.94
   2  -5   8   35.09    5.53
   2  -5   8   50.26    7.38
   2  -5   8   29.04    4.65
  -2   5  -8   41.10    6.18
   2   5   8   36.91    5.46
   2  -5   8   37.54    4.05
   3  -5   8    0.14    2.74
   3   5   8    5.13    3.50
   3  -5   8   -0.91    2.45
   3  -5   8   -1.65    2.10
   3   5   8    3.41    2.90
   4   5   8    8.19    4.10
   4   5   8    3.97    3.01
   4  -5   8   -0.22    2.61
   4  -5   8    1.47    2.93
   5  -5   8    6.95    3.73
   5   5   8   10.59    4.90
   5  -5   8    8.85    3.68
   6  -5   8   38.20    6.66
   6  -5   8   38.21    6.11
   6   5   8   32.90    7.38
   7  -5   8   31.30    6.22
   7  -6  -8   15.22    5.15
  -7   6   8    7.73    4.87
  -7   6   8    6.66    4.54
  -6   6   8   33.37    7.31
  -6   6   8   26.59    6.12
  -6  -6   8   36.70    6.28
   6  -6  -8   29.97    5.96
  -5  -6   8   10.66    3.94
  -5   6   8    3.01    3.86
  -5   6   8    8.63    4.73
   5  -6  -8    6.81    3.85
  -4  -6   8    8.53    3.57
  -4   6   8    9.46    4.05
  -4   6   8   -2.99    2.74
   4  -6  -8    6.00    3.30
  -3   6   8   20.45    5.13
  -3   6   8   14.20    4.61
  -3  -6   8   14.72    4.30
   3  -6  -8   16.13    4.39
   2   6  -8  112.78    9.37
   2  -6  -8  108.99    8.27
  -2  -6   8   93.99    7.97
  -2   6   8  108.87    8.77
  -2   6   8   99.98    9.28
  -1   6   8   79.15    7.98
  -1   6   8   78.38    7.48
  -1  -6   8   59.80    7.01
   1   6  -8   93.02    8.92
   1  -6  -8   71.18    7.18
   0   6   8    4.94    3.50
   0  -6  -8    8.45    3.34
   0  -6   8   10.36    3.77
   0  -6   8   10.89    3.00
   0   6   8    5.91    3.62
   1  -6   8    9.87    3.80
   1  -6   8    3.60    2.63
   1   6   8    7.72    3.71
   1   6   8    1.69    3.38
   2  -6   8   99.11    8.81
   2   6   8  123.02   11.18
   2  -6   8  104.95    7.92
   2   6   8  104.14    8.67
   3  -6   8   17.52    4.66
   3  -6   8   22.90    5.55
   3   6   8   13.31    4.28
   3   6   8   14.97    5.34
   4  -6   8   21.61    5.07
   4   6   8   28.43    6.81
   5  -6   8   36.77    6.60
   5   6   8   44.93    8.57
  -5  -7   8    0.42    3.46
  -5   7   8    2.49    4.04
   5  -7  -8    4.03    3.74
  -5   7   8    3.42    4.37
  -4   7   8   18.05    5.53
  -4   7   8    4.87    4.31
   4  -7  -8   10.57    4.31
  -4  -7   8   18.55    4.84
   3  -7  -8   15.14    4.77
  -3  -7   8   12.72    4.35
  -3   7   8   10.68    4.71
  -3   7   8   11.34    4.86
   2  -7  -8   13.66    4.62
  -2   7   8   16.70    5.24
  -2   7   8   14.85    5.06
  -2  -7   8   19.77    5.16
   1  -7  -8   53.34    7.09
  -1   7   8   37.64    6.66
  -1  -7   8   42.84    6.71
   0   7   8   17.82    5.34
   0  -7   8   14.14    4.65
   0  -7  -8    6.99    3.80
   1  -7   8   39.87    6.70
   1   7   8   56.34    8.90
   1   7   8   46.31    6.91
  -1  -7  -8   58.81    7.41
   2   7   8   18.37    6.31
   2  -7   8   18.33    5.37
   2  -7   8   21.66    4.83
   3  -7   8    8.05    4.65
   3   7   8    1.09    4.74
   3  -7   8    0.72    3.37
   4  -7   8    2.14    3.90
  -3   8   8    2.95    4.79
  -2   8   8   37.21    7.64
  -1   8   8    9.92    5.18
 -10   0   9    6.42    3.66
  -9   0   9    2.43    3.39
   8   0  -9    5.04    2.67
  -8   0   9    1.27    2.92
  -8   0   9    7.42    3.10
   7   0  -9   25.12    4.91
  -7   0   9   27.55    4.36
  -7   0   9   24.26    4.98
   7   0  -9   37.44    4.23
   6   0  -9  164.79    7.89
  -6   0   9  184.13   10.64
  -6   0   9  203.54    9.79
   6   0  -9  173.83   10.31
  -5   0   9  242.63   11.02
   5   0  -9  250.13    9.40
  -5   0   9  251.37   12.32
   5   0  -9  242.57   11.91
   4   0  -9  137.22    7.92
  -4   0   9  148.77    7.78
   4   0  -9  140.81    6.03
  -4   0   9  140.95    8.51
  -3   0   9   62.02    5.35
   3   0  -9   61.42    3.41
   3   0  -9   57.14    4.58
  -3   0   9   64.34    4.88
  -2   0   9  316.65   12.63
   2   0  -9  325.49   12.61
  -2   0   9  302.07   12.88
  -2   0   9  320.36   12.63
   2   0  -9  321.57   10.47
  -1   0   9    7.73    1.80
  -1   0   9    7.53    1.93
  -1   0   9    4.99    1.99
   1   0  -9    6.14    1.82
  -1   0   9    5.08    2.13
   0   0   9   83.55    5.24
   0   0   9   88.97    5.14
   0   0   9   87.67    5.72
   0   0   9   95.93    5.12
   0   0  -9   78.07    4.83
  -1   0  -9   42.60    3.53
   1   0   9   48.92    3.82
   1   0   9   50.03    4.06
   1   0   9   40.22    4.37
   1   0   9   52.56    4.01
   2   0   9   36.31    3.49
   2   0   9   37.87    3.40
   2   0   9   45.21    4.74
   2   0   9   32.88    3.98
   2   0   9   38.70    4.01
   3   0   9    9.38    2.91
   3   0   9   18.42    3.20
   3   0   9    8.83    2.90
   3   0   9   14.68    2.81
   3   0   9   19.95    2.73
   4   0   9    0.16    2.11
   4   0   9   -1.27    1.93
   4   0   9    1.33    1.99
   5   0   9    5.70    2.52
   5   0   9   -0.79    2.22
   5   0   9   -0.59    2.40
   6   0   9   54.61    6.83
   6   0   9   56.84    6.77
   7   0   9    1.05    3.04
   7   0   9   -2.20    2.71
   8   0   9   -2.82    3.24
   8   0   9   -3.24    3.20
 -10   1   9   -0.90    3.10
  10  -1  -9   -1.05    3.48
  -9   1   9   42.44    6.95
   9  -1  -9   33.09    5.30
  -9  -1   9   35.98    6.47
  -8   1   9   52.76    6.97
   8  -1  -9   44.61    5.41
  -8   1   9   36.31    5.47
  -8  -1   9   44.14    6.46
   7   1  -9   37.93    5.77
   7  -1  -9   30.79    5.24
  -7   1   9   33.41    5.13
  -7  -1   9   34.70    4.21
   7  -1  -9   44.57    4.84
  -7  -1   9   27.50    5.18
  -7   1   9   33.52    5.46
   7   1  -9   33.79    3.72
  -6   1   9   28.19    4.88
   6   1  -9   34.10    3.25
   6   1  -9   30.38    4.84
   6  -1  -9   35.29    5.11
  -6   1   9   42.04    5.31
  -6  -1   9   34.64    4.03
  -6  -1   9   37.07    5.52
   6  -1  -9   25.93    3.65
   5   1  -9   45.41    5.20
  -5  -1   9   70.38    4.99
  -5   1   9   59.95    5.72
   5   1  -9   62.05    3.62
   5  -1  -9   69.90    5.69
  -5   1   9   63.03    6.36
  -5  -1   9   65.30    6.48
   5  -1  -9   57.12    4.37
   4   1  -9  221.36   10.88
  -4   1   9  229.32   10.83
  -4  -1   9  223.35    9.62
  -4   1   9  214.85   10.99
   4  -1  -9  220.03    8.93
   4   1  -9  210.76    7.32
  -4  -1   9  225.34   11.04
   4  -1  -9  224.20   10.41
  -3   1   9  271.52   11.16
   3   1  -9  259.66    7.94
   3   1  -9  238.64    7.62
   3  -1  -9  256.88    9.61
  -3   1   9  257.54   11.47
  -3  -1   9  234.61   11.34
  -3   1   9  246.32   11.48
  -3  -1   9  256.32   10.44
   3  -1  -9  275.36   11.02
   3   1  -9  239.61   11.28
  -2   1   9    0.04    1.26
   2   1  -9    0.27    1.41
  -2   1   9    0.63    1.76
   2   1  -9    0.08    0.57
   2  -1  -9    0.77    1.23
   2   1  -9    0.98    0.64
  -2   1   9    3.26    1.86
   2  -1  -9    2.07    1.44
  -2  -1   9   -1.46    1.53
  -2  -1   9    0.06    1.29
  -1  -1   9  178.35    8.24
  -1   1   9  167.94    8.63
  -1  -1   9  175.27    8.46
   1  -1  -9  166.75    7.23
   1   1  -9  166.68    8.28
  -1   1   9  166.88    7.80
  -1   1   9  173.93    8.31
  -1   1   9  173.18    7.45
  -1  -1   9  170.87    6.14
   1   1  -9  173.22    5.88
  -1  -1   9  160.25    8.35
   0  -1   9   59.42    4.65
   0  -1  -9   61.39    3.68
   0   1   9   60.78    4.48
   0   1  -9   63.05    4.73
   0   1   9   66.20    4.83
   0  -1   9   72.91    5.11
   0  -1   9   59.99    3.62
   0   1   9   63.29    5.06
   0   1   9   63.39    3.76
   0  -1   9   64.50    4.77
   1  -1   9  221.95    9.69
   1   1   9  202.21    9.83
   1   1   9  213.60    9.65
   1  -1   9  189.85    9.45
   1  -1   9  201.07    9.19
   1   1   9  215.82    8.02
   1  -1   9  207.50    8.42
   1   1   9  213.04    8.59
  -1  -1  -9  197.30    7.80
  -1   1  -9  189.24    9.35
   2  -1   9  186.61    9.69
  -2   1  -9  185.12    8.97
   2  -1   9  172.54    8.38
   2  -1   9  184.00    8.33
   2   1   9  167.93    9.25
   2   1   9  176.05    7.30
   2   1   9  181.66    7.41
   2  -1   9  186.22    9.42
   2   1   9  193.44    9.43
   2   1   9  184.28    7.68
   3  -1   9   50.34    4.54
   3   1   9   48.43    3.65
   3  -1   9   46.70    5.24
   3   1   9   48.75    3.21
   3   1   9   38.16    4.86
   3  -1   9   49.11    4.81
   3   1   9   44.46    5.29
   3  -1   9   45.85    5.14
   4   1   9   -0.95    2.06
   4  -1   9   -0.08    1.95
   4  -1   9    0.71    2.18
   4  -1   9    0.30    2.34
   4   1   9   -0.92    1.98
   4   1   9   -0.99    1.30
   4  -1   9   -3.07    1.82
   5  -1   9   38.09    5.36
   5  -1   9   39.58    5.62
   5   1   9   45.60    5.80
   5   1   9   48.44    6.45
   5  -1   9   40.80    5.49
   6   1   9   13.10    3.98
   6   1   9   11.28    4.35
   6  -1   9   10.55    3.86
   6  -1   9   20.48    4.45
   6  -1   9   22.55    4.90
   7   1   9   37.45    6.40
   7  -1   9   53.26    7.47
   7  -1   9   41.77    6.70
   7   1   9   43.88    7.32
   8  -1   9    4.89    4.15
   8  -1   9    4.84    4.00
   8   1   9    0.85    3.99
  10  -2  -9   46.75    7.13
  10  -2  -9   59.27    8.38
  -9  -2   9    9.57    4.27
   9  -2  -9   15.40    4.78
  -9   2   9   26.47    6.02
  -8   2   9    9.71    3.96
   8  -2  -9   10.54    3.62
  -8   2   9   13.69    4.43
  -8  -2   9   10.67    4.06
  -7  -2   9   79.74    7.87
   7   2  -9   76.02    7.82
  -7   2   9   90.99    7.95
  -7   2   9   92.54    7.73
   7  -2  -9   92.86    6.91
   7  -2  -9   89.31    7.69
  -6   2   9   57.52    6.61
  -6   2   9   65.98    6.78
   6  -2  -9   60.86    5.31
   6   2  -9   73.52    7.11
  -6  -2   9   74.29    7.26
   6  -2  -9   84.56    6.77
  -5  -2   9    7.27    2.15
   5   2  -9    7.94    2.96
  -5   2   9    4.51    2.83
   5  -2  -9    8.54    2.75
  -5  -2   9    4.77    2.83
   5  -2  -9    5.40    2.38
  -5   2   9    5.44    2.81
  -4   2   9  294.12   13.57
   4  -2  -9  313.55   12.06
   4  -2  -9  308.48   12.94
   4   2  -9  326.86   14.23
  -4  -2   9  309.42   11.49
  -4  -2   9  267.24   13.25
   3  -2  -9   13.96    2.55
   3  -2  -9    7.99    2.32
  -3  -2   9   15.24    2.55
  -3  -2   9   10.72    3.11
  -3   2   9   12.23    3.15
  -3   2   9   11.72    3.12
  -3   2   9    9.23    2.44
   3   2  -9    7.21    2.55
  -2   2   9  213.76   10.51
   2  -2  -9  213.55    9.17
   2  -2  -9  211.71    8.67
   2   2  -9  210.28   10.38
  -2  -2   9  207.83    8.94
  -2   2   9  209.80    9.83
  -2  -2   9  203.96   10.17
  -2   2   9  212.24    8.84
  -1   2   9   45.73    4.63
  -1   2   9   50.81    3.20
  -1  -2   9   45.17    4.73
  -1  -2   9   36.92    3.75
  -1   2   9   48.77    4.34
   1  -2  -9   46.15    2.99
  -1   2   9   37.86    4.48
   1   2  -9   40.24    4.47
   0   2  -9  110.58    6.83
   0  -2   9   95.03    6.27
   0   2   9   98.17    5.52
   0  -2  -9   95.44    4.03
   0   2   9   97.86    6.64
   0   2  -9   95.31    4.08
   0  -2   9   91.64    4.29
   0   2   9  100.02    4.14
   0  -2   9   90.83    5.82
   0   2   9  105.41    6.75
  -1   2  -9  148.92    8.29
   1  -2   9  133.10    7.66
   1   2   9  138.68    6.31
   1   2   9  136.79    4.61
   1  -2   9  129.87    7.47
   1  -2   9  146.15    6.32
   1   2   9  148.82    8.34
   1   2   9  131.97    8.00
   2  -2   9   30.84    4.25
   2  -2   9   29.68    3.48
   2   2   9   32.00    4.49
  -2   2  -9   26.30    3.95
   2   2   9   28.12    2.42
   2  -2   9   34.61    4.33
   2   2   9   27.77    4.44
   3  -2   9  342.37   14.05
   3  -2   9  338.51   15.73
   3  -2   9  337.13   13.25
   3   2   9  323.44   14.78
   3  -2   9  330.20   14.55
   3   2   9  320.47   14.41
   4   2   9   26.14    5.05
   4  -2   9   26.97    4.22
   4  -2   9   23.38    4.80
   4  -2   9   31.15    4.48
   4   2   9   21.34    4.39
   4  -2   9   36.60    5.30
   5   2   9    0.75    2.47
   5  -2   9    6.12    3.17
   5  -2   9    0.50    2.93
   5   2   9    0.51    2.91
   5  -2   9   -1.99    2.26
   5  -2   9    2.70    2.68
   6  -2   9   59.64    7.40
   6  -2   9   76.87    8.11
   6   2   9   63.69    7.18
   6  -2   9   65.29    7.16
   6   2   9   70.13    8.38
   7   2   9    1.42    3.29
   7  -2   9    1.61    3.31
   7  -2   9    1.16    3.44
   7   2   9   -2.55    3.25
   8  -2   9   11.60    4.89
   8   2   9   13.95    4.87
  10  -3  -9    7.79    4.93
  10  -3  -9    9.82    5.04
   9  -3  -9    1.94    3.75
  -9  -3   9    4.17    4.12
  -9   3   9    4.85    4.03
  -8   3   9   10.51    4.31
  -8   3   9   10.29    4.24
  -8  -3   9    5.17    3.84
   8  -3  -9    7.46    4.08
  -7  -3   9   12.43    4.37
  -7   3   9    6.81    3.40
   7  -3  -9   11.61    3.72
   7  -3  -9   14.84    4.36
  -7   3   9   12.61    4.13
  -6  -3   9  105.43    8.31
   6   3  -9  112.28    8.62
   6  -3  -9  105.50    7.95
  -6   3   9  100.52    8.22
   6  -3  -9  111.50    7.56
  -6   3   9  105.20    8.38
   5   3  -9   54.01    6.14
  -5   3   9   62.62    6.82
  -5   3   9   54.07    6.28
  -5  -3   9   62.59    6.50
   5  -3  -9   82.70    6.06
   5  -3  -9   76.21    6.15
   4   3  -9   90.84    7.04
  -4  -3   9   83.97    6.74
  -4   3   9   90.02    7.10
   4  -3  -9   94.22    6.33
  -4   3   9   86.70    7.19
   4  -3  -9   84.83    6.10
  -4  -3   9   87.23    4.79
  -3   3   9  495.31   17.70
  -3   3   9  471.85   19.17
   3  -3  -9  493.15   17.37
  -3  -3   9  483.70   15.93
  -3  -3   9  464.19   18.79
  -3   3   9  460.60   18.56
   3   3  -9  518.41   19.97
   3  -3  -9  449.23   17.28
   2  -3  -9  233.38    9.18
  -2  -3   9  220.82   11.18
   2   3  -9  249.02   11.97
  -2   3   9  238.63   10.96
  -2  -3   9  218.44    9.27
   2  -3  -9  233.27   10.48
  -2   3   9  223.15   11.58
  -2   3   9  234.87    9.48
  -1   3   9   95.53    6.86
   1   3  -9   91.73    6.93
  -1   3   9   92.41    4.36
  -1  -3   9   83.06    5.37
  -1  -3   9   86.15    6.47
  -1   3   9   84.17    6.66
  -1   3   9   91.17    5.83
   1  -3  -9   95.42    4.12
   0  -3   9  115.08    7.59
   0  -3   9  131.43    7.07
   0   3   9  122.22    7.91
   0   3   9  120.33    6.53
   0   3  -9  131.02    8.28
   0   3   9  132.44    8.24
   0  -3   9  125.60    4.90
   1  -3   9  186.45    9.93
   1  -3   9  198.11    7.61
   1   3   9  188.27   10.42
   1   3   9  190.74    7.91
   1   3   9  200.81   10.39
  -1   3  -9  174.05   10.25
   1  -3   9  167.33    9.00
   2  -3   9   25.09    4.34
  -2   3  -9   28.59    4.65
   2  -3   9   28.53    3.36
   2   3   9   35.54    5.39
   2  -3   9   28.98    4.50
   2   3   9   19.77    4.10
   3  -3   9   24.27    3.61
   3   3   9   28.50    5.23
   3   3   9   23.16    4.35
   3  -3   9   22.09    4.82
   3  -3   9   23.06    4.41
   3  -3   9   14.88    3.74
   4  -3   9  141.20    7.98
   4   3   9  118.81    8.45
   4  -3   9  107.24    8.07
   4   3   9  110.86    9.07
   4  -3   9  124.57    9.68
   4  -3   9  112.14    8.53
   5  -3   9    6.78    3.34
   5  -3   9    4.33    3.85
   5  -3   9    5.23    2.87
   5   3   9    6.57    3.47
   5  -3   9    6.65    3.53
   5   3   9   15.25    4.95
   6   3   9   36.98    6.75
   6  -3   9   16.82    4.74
   6  -3   9   37.03    5.96
   6  -3   9   25.11    4.96
   6   3   9   36.94    5.97
   7   3   9   40.12    6.48
   7  -3   9   36.25    6.31
   7  -3   9   37.54    7.04
   7   3   9   53.96    8.90
   9  -4  -9   -1.81    4.08
   8  -4  -9    8.61    4.02
  -8   4   9   10.72    4.15
  -8  -4   9    1.95    4.05
  -8   4   9    6.94    4.30
   7  -4  -9   26.46    5.53
  -7  -4   9   28.67    5.65
  -7   4   9   22.92    5.43
   7  -4  -9   21.98    5.16
  -7   4   9   19.37    5.09
   6  -4  -9   18.48    4.29
  -6   4   9   13.71    4.27
  -6   4   9   15.68    4.54
   6  -4  -9   11.19    3.92
  -6  -4   9   12.13    3.89
   5  -4  -9   38.97    5.07
  -5  -4   9   34.60    5.44
   5  -4  -9   41.56    5.39
  -5   4   9   20.33    4.90
   5   4  -9   32.28    5.47
  -5   4   9   28.73    5.39
   4  -4  -9   84.14    6.21
   4   4  -9   99.29    7.92
   4  -4  -9   91.51    6.84
  -4   4   9   74.72    7.67
  -4   4   9   81.48    7.28
  -4  -4   9   94.82    7.33
  -3   4   9   22.66    4.40
  -3   4   9   26.06    4.83
   3   4  -9   26.11    4.70
   3  -4  -9   25.40    3.39
   3  -4  -9   24.91    4.26
  -3  -4   9   16.92    3.99
   2  -4  -9   32.08    3.04
  -2  -4   9   31.14    3.28
   2   4  -9   41.36    5.50
  -2   4   9   34.68    5.43
  -2   4   9   26.91    4.39
   2  -4  -9   27.94    4.31
  -2  -4   9   25.15    4.48
   1   4  -9   57.91    6.42
  -1   4   9   61.53    6.47
  -1   4   9   57.28    5.14
  -1   4   9   55.30    6.40
  -1  -4   9   58.25    4.53
   1  -4  -9   55.02    5.66
  -1  -4   9   51.86    5.75
   0   4  -9  296.59   14.53
   0  -4   9  300.28   12.22
   0  -4   9  293.80   13.79
   0   4   9  282.05   14.04
   0   4   9  282.33   12.03
   0   4   9  277.82   13.70
   1   4   9   13.74    4.10
  -1   4  -9   20.14    4.46
   1  -4   9   22.11    3.86
   1   4   9   25.00    4.69
   1  -4   9   24.41    4.63
   2  -4   9    6.88    2.25
  -2   4  -9    6.86    3.23
   2  -4   9    4.92    2.80
   2  -4   9    5.26    3.03
   2   4   9    8.27    3.72
   2   4   9    4.34    2.76
   3  -4   9  112.67    8.17
   3  -4   9  117.27    6.88
   3  -4   9  105.02    9.37
   3   4   9  107.49    8.10
   3   4   9  100.29    8.67
   3  -4   9   95.06    7.93
   4  -4   9   15.43    4.31
   4  -4   9   22.44    4.08
   4  -4   9   17.31    4.68
   4  -4   9   10.90    4.68
   4   4   9   20.35    4.56
   4   4   9   15.78    4.70
   5  -4   9   34.91    6.20
   5   4   9   42.61    7.39
   5  -4   9   43.94    5.67
   5   4   9   44.02    6.33
   6   4   9   19.66    6.19
   6  -4   9   17.39    5.08
   6  -4   9   17.95    4.54
   7  -4   9    3.44    4.00
   8  -5  -9   13.21    5.12
  -8   5   9   17.52    5.60
   7  -5  -9   74.98    8.09
  -7   5   9   65.13    8.64
  -7  -5   9   91.74    8.94
  -6   5   9   31.56    6.19
   6  -5  -9   31.16    5.80
  -6  -5   9   29.02    5.61
  -6   5   9   27.35    6.04
   6  -5  -9   15.52    4.50
  -5   5   9   13.75    4.37
   5  -5  -9    7.11    3.59
  -5  -5   9    5.81    3.50
  -5   5   9    6.88    3.80
  -4   5   9    9.70    3.77
  -4  -5   9    3.88    3.07
   4   5  -9   14.73    4.48
   4  -5  -9   15.58    4.07
  -4   5   9   11.22    4.20
   3  -5  -9   37.17    5.48
  -3  -5   9   30.20    5.20
  -3   5   9   39.95    6.04
   3   5  -9   35.16    5.91
  -3   5   9   30.79    5.73
  -2   5   9    6.14    3.19
   2   5  -9   10.81    3.97
  -2   5   9   22.09    4.92
  -2  -5   9   11.09    3.65
   2  -5  -9   13.30    3.60
  -1   5   9   73.90    7.70
  -1  -5   9   83.52    5.62
  -1  -5   9   77.35    6.98
  -1   5   9   87.38    6.99
   1   5  -9   86.01    7.60
   1  -5  -9   80.72    6.82
   0  -5   9   99.09    7.79
   0  -5   9   98.93    6.47
   0   5   9   83.29    8.52
   0   5   9   92.52    6.65
   0   5  -9   92.13    8.30
   0   5   9   96.46    8.48
   1   5   9   30.09    5.45
  -1   5  -9   35.32    6.05
   1  -5   9   32.53    5.46
   1  -5   9   30.18    4.43
   1   5   9   28.70    5.85
   2   5   9   -0.93    2.87
   2  -5   9    0.91    2.32
   2  -5   9    2.96    3.38
   2  -5   9   -1.60    2.51
   2   5   9   -1.11    2.48
  -2   5  -9    0.71    2.55
   3   5   9   18.35    5.32
   3  -5   9   23.42    4.87
   3  -5   9   16.84    4.58
   3   5   9   19.26    4.63
   4  -5   9   19.00    5.27
   4  -5   9   26.56    5.39
   4   5   9   23.57    5.20
   4   5   9   13.76    5.15
   5   5   9   15.82    5.66
   5  -5   9   11.36    4.42
   6  -5   9   16.67    5.43
  -6   6   9   15.41    5.43
  -6  -6   9   12.65    4.50
  -6   6   9   18.35    5.61
   6  -6  -9   18.53    5.28
  -5  -6   9    3.74    3.28
  -5   6   9    0.63    3.57
   5  -6  -9    4.24    3.67
  -5   6   9    2.55    3.90
  -4   6   9   12.40    4.61
  -4   6   9   16.98    5.16
  -4  -6   9   22.51    5.16
   4  -6  -9   26.93    5.39
  -3  -6   9    0.55    2.62
  -3   6   9    1.07    3.39
   3  -6  -9    3.21    3.24
  -3   6   9    0.51    2.99
  -2   6   9   27.07    5.42
  -2  -6   9   19.80    4.71
  -2   6   9   19.89    5.29
   2  -6  -9   18.12    4.56
   1  -6  -9   11.90    4.08
  -1   6   9   12.88    4.39
  -1   6   9   13.98    4.19
  -1  -6   9   10.91    3.95
   0   6   9   45.73    7.44
   0   6   9   44.86    6.47
   0  -6   9   43.83    6.44
   0  -6  -9   50.14    6.47
   1  -6   9   17.32    4.18
   1   6   9   11.73    4.67
   1   6   9   17.94    4.74
   1  -6   9   17.21    4.63
   2  -6   9   12.07    4.41
   2   6   9   15.30    5.40
   2  -6   9   10.74    4.01
   2   6   9   13.69    4.63
   3   6   9   15.89    4.79
   3   6   9   13.29    5.22
   3  -6   9    9.67    3.99
   3  -6   9    8.80    4.34
   4   6   9   24.95    6.81
   4  -6   9   16.72    4.95
   4  -6   9   21.48    5.82
   5  -6   9    8.13    4.59
  -5   7   9   37.66    7.56
   4  -7  -9    4.94    4.43
  -4  -7   9   15.20    4.77
  -4   7   9    6.20    4.41
  -4   7   9   10.39    5.53
  -3   7   9   27.11    6.22
   3  -7  -9   15.75    4.77
  -3  -7   9   12.18    4.46
  -3   7   9   22.52    5.78
  -2   7   9   15.95    5.49
  -2  -7   9   13.53    4.48
   2  -7  -9    9.41    4.11
  -2   7   9   15.77    5.13
   1  -7  -9   -0.13    3.22
  -1  -7   9    0.42    3.20
  -1   7   9    8.06    4.70
   0   7   9    6.71    4.08
   0  -7  -9    4.55    3.52
   0  -7   9    6.64    3.76
  -1  -7  -9   15.43    4.67
   1   7   9    6.68    4.40
   1   7   9   12.54    5.50
   1  -7   9    8.93    4.34
   2   7   9   21.81    6.59
   2  -7   9   17.56    5.47
   3  -7   9   71.73    8.21
   4  -7   9   20.79    5.48
  -2   8   9   34.51    7.46
  -1   8   9   41.84    7.88
  -9   0  10    5.53    3.95
  -8   0  10   15.44    4.59
  -8   0  10   11.45    3.67
   7   0 -10    2.95    2.22
   7   0 -10    1.59    2.70
  -7   0  10   -0.90    2.56
  -7   0  10    1.65    2.46
   6   0 -10    8.73    2.36
   6   0 -10    6.48    2.95
  -6   0  10    3.41    2.29
  -6   0  10    8.17    3.35
  -5   0  10  129.38    8.86
   5   0 -10  142.63    6.38
   5   0 -10  129.92    8.39
  -5   0  10  134.87    7.94
   4   0 -10  110.69    5.19
  -4   0  10  111.09    7.10
  -4   0  10  106.38    7.63
   4   0 -10  106.93    7.06
   3   0 -10  136.76    7.61
  -3   0  10  150.83    7.97
   3   0 -10  132.59    5.67
  -3   0  10  137.15    8.31
   2   0 -10  178.83    6.81
  -2   0  10  164.83    8.66
  -2   0  10  182.22    9.28
  -2   0  10  165.11    8.42
   2   0 -10  177.11    8.55
  -1   0  10  291.22   11.78
  -1   0  10  282.68   12.21
  -1   0  10  307.32   10.81
  -1   0  10  291.72   12.37
   1   0 -10  278.24   11.61
   0   0  10  139.24    7.39
   0   0 -10  133.06    6.86
   0   0  10  135.30    7.72
   0   0  10  137.68    6.97
   0   0  10  135.74    6.75
   1   0  10   28.97    3.25
  -1   0 -10   27.48    3.23
   1   0  10   26.27    4.05
   1   0  10   24.09    3.49
   1   0  10   28.67    3.54
   2   0  10  569.83   20.08
   2   0  10  588.67   20.00
   2   0  10  573.43   20.71
   2   0  10  549.36   20.88
   2   0  10  569.79   19.42
   3   0  10   -1.56    1.83
   3   0  10   -1.57    1.87
   3   0  10    0.37    1.66
   3   0  10   -0.50    1.83
   4   0  10   52.88    6.12
   4   0  10   65.44    5.59
   4   0  10   54.19    6.11
   5   0  10    1.39    2.67
   5   0  10    5.15    3.12
   6   0  10    8.91    3.84
   6   0  10   14.28    4.61
   7   0  10    8.98    4.35
   7   0  10    2.20    3.84
   8   0  10   19.04    5.60
  -9   1  10   46.10    7.48
  -9  -1  10   38.64    6.87
   8  -1 -10   55.70    5.86
  -8   1  10   53.65    7.25
  -8   1  10   44.70    6.05
  -8  -1  10   45.92    6.64
  -7   1  10   15.79    4.11
   7   1 -10   23.53    5.02
  -7   1  10   11.76    3.87
   7  -1 -10   20.89    3.73
   7  -1 -10   19.71    4.71
  -7  -1  10   23.50    3.86
  -7  -1  10   28.25    5.60
   6  -1 -10   28.74    4.78
   6   1 -10   19.77    4.34
  -6   1  10   26.38    4.73
  -6   1  10   24.41    4.93
   6  -1 -10   24.77    3.62
  -6  -1  10   26.25    4.94
  -6  -1  10   31.21    4.10
  -5   1  10  397.66   17.41
   5   1 -10  396.01   17.31
  -5   1  10  392.42   16.58
   5  -1 -10  420.79   17.07
   5  -1 -10  418.73   14.72
  -5  -1  10  426.12   15.56
  -5  -1  10  391.02   17.40
  -4  -1  10  153.87    9.31
   4   1 -10  161.21    9.16
   4  -1 -10  166.59    7.41
   4   1 -10  158.66    5.63
  -4   1  10  145.76    9.18
  -4   1  10  153.03    8.96
  -4  -1  10  172.32    8.40
   4  -1 -10  157.90    8.62
   3  -1 -10    4.06    1.76
  -3  -1  10    2.49    2.38
   3   1 -10    1.97    1.92
  -3   1  10    2.34    2.35
   3   1 -10    1.99    0.72
  -3   1  10    0.69    1.95
  -3   1  10    1.39    1.81
  -3  -1  10    1.17    1.75
   3  -1 -10    1.40    1.58
   2  -1 -10   53.14    3.89
  -2  -1  10   51.65    5.17
   2   1 -10   54.60    4.67
  -2   1  10   51.13    5.22
   2   1 -10   53.09    2.48
  -2  -1  10   44.32    4.40
   2  -1 -10   51.83    4.02
  -2   1  10   60.79    4.50
   2   1 -10   50.36    2.32
  -2   1  10   44.96    4.83
   1   1 -10   48.26    2.80
   1   1 -10   52.42    4.50
  -1   1  10   42.80    4.81
  -1   1  10   45.98    4.63
  -1   1  10   45.74    4.27
  -1   1  10   47.01    3.77
  -1  -1  10   48.37    3.00
  -1  -1  10   43.37    4.68
  -1  -1  10   44.66    4.52
   1  -1 -10   50.68    3.68
   0   1  10   33.82    3.02
   0  -1  10   34.93    3.05
   0   1  10   29.79    4.21
   0  -1  10   34.93    4.11
   0  -1 -10   28.73    2.81
   0   1 -10   38.72    4.12
   0   1  10   30.08    3.60
   0  -1  10   33.11    4.05
   0   1  10   31.88    3.91
   1  -1  10    1.12    1.53
   1   1  10    1.29    1.90
  -1   1 -10    2.58    1.84
  -1  -1 -10    1.42    1.21
   1   1  10    0.25    1.62
   1  -1  10    0.79    1.72
   1   1  10   -1.52    1.50
   1   1  10   -0.29    1.14
   1  -1  10    2.38    1.90
   2  -1  10  202.24   10.61
   2   1  10  216.59    8.80
   2   1  10  229.14   10.78
   2   1  10  207.94    8.81
   2  -1  10  217.20    9.88
   2   1  10  198.55   10.61
  -2   1 -10  216.94   10.30
   2  -1  10  225.84    9.80
   2  -1  10  219.91   11.17
   3  -1  10   53.30    5.22
   3  -1  10   58.21    5.87
   3   1  10   54.44    5.96
   3  -1  10   52.41    5.77
   3   1  10   57.62    6.05
   3  -1  10   54.90    4.70
   4  -1  10   18.43    4.01
   4  -1  10    9.02    3.42
   4  -1  10   10.22    3.55
   4  -1  10    7.35    2.57
   4   1  10   15.52    4.13
   4   1  10   15.09    3.88
   5  -1  10   76.77    7.78
   5   1  10   75.09    7.57
   5  -1  10   82.96    7.66
   5   1  10   71.99    7.69
   5  -1  10   66.70    6.88
   6  -1  10    2.48    3.39
   6   1  10    2.04    2.86
   6   1  10    1.25    3.12
   6  -1  10    1.78    3.12
   7   1  10   21.46    5.77
   7   1  10   22.90    5.68
   7  -1  10   19.46    5.10
   7  -1  10   20.05    5.50
   8   1  10   13.32    5.01
  10  -2 -10   66.97    8.16
  10  -2 -10   67.55    8.58
  -9  -2  10    9.23    4.51
   9  -2 -10    7.23    4.10
  -9   2  10    6.50    3.90
  -8   2  10    6.09    3.65
   8  -2 -10    8.60    3.53
  -8  -2  10    4.84    3.86
  -8   2  10    6.09    3.62
  -7  -2  10   13.04    4.33
   7  -2 -10   15.35    3.77
   7  -2 -10    6.11    3.33
  -7   2  10    5.40    3.20
  -7   2  10   15.73    4.50
   6   2 -10   97.87    7.86
   6  -2 -10  100.62    7.65
  -6  -2  10  106.55    8.26
  -6   2  10   98.05    7.97
  -6   2  10   91.70    7.79
   6  -2 -10   89.07    6.48
  -5  -2  10   51.14    6.14
  -5   2  10   29.38    4.88
  -5   2  10   33.79    5.14
   5  -2 -10   31.82    4.50
   5  -2 -10   38.52    4.39
   5   2 -10   25.43    4.50
  -5  -2  10   37.57    3.91
   4  -2 -10  673.03   22.37
   4   2 -10  688.61   25.59
  -4   2  10  681.38   24.99
   4  -2 -10  661.69   23.94
  -4  -2  10  687.37   25.16
  -4   2  10  683.74   24.89
  -4  -2  10  688.68   22.25
  -3   2  10   24.83    4.38
  -3   2  10   29.23    3.56
  -3   2  10   35.81    4.72
  -3  -2  10   37.20    3.84
   3  -2 -10   32.37    3.61
  -3  -2  10   49.56    5.47
   3   2 -10   29.34    4.32
   3  -2 -10   29.54    3.70
   2  -2 -10   86.89    5.58
  -2   2  10   86.01    6.62
   2   2 -10   89.09    6.51
  -2  -2  10   78.57    5.40
   2  -2 -10   82.50    4.84
  -2   2  10   80.62    6.06
  -2   2  10   80.55    5.07
  -2  -2  10   79.51    6.21
  -1  -2  10   48.26    4.51
   1  -2 -10   46.44    3.15
  -1   2  10   45.77    3.30
  -1   2  10   42.69    4.38
  -1   2  10   48.56    4.99
   1   2 -10   42.73    4.89
  -1   2  10   44.95    5.20
  -1  -2  10   39.61    4.73
   0   2  10   17.42    2.92
   0   2 -10   15.87    3.33
   0   2  10   16.85    3.46
   0   2  10   15.71    1.73
   0  -2  10   17.33    2.05
   0   2  10   15.88    3.45
   0  -2 -10   15.37    1.69
   0  -2  10   18.37    3.56
   0  -2  10   17.35    3.18
   1   2  10  125.77    6.28
   1   2  10  135.06    8.22
   1   2  10  140.76    8.50
   1  -2  10  132.47    6.27
   1  -2  10  113.88    7.31
   1  -2  10  124.86    7.68
  -1   2 -10  130.32    8.09
   2  -2  10  115.93    7.64
   2   2  10  129.23    8.40
   2  -2  10  100.15    7.04
  -2   2 -10  108.01    7.47
   2   2  10  108.53    7.67
   2  -2  10  123.74    6.58
   3  -2  10   89.87    7.06
   3   2  10   83.48    6.95
   3   2  10   86.46    7.24
   3  -2  10   95.26    7.82
   3  -2  10   92.69    6.33
   3  -2  10   78.96    6.20
   4   2  10   85.68    8.19
   4  -2  10   70.91    7.12
   4   2  10   64.43    6.81
   4  -2  10   76.15    6.19
   4  -2  10   84.87    7.72
   4  -2  10   80.37    6.48
   5  -2  10   51.28    6.79
   5   2  10   48.05    6.46
   5  -2  10   55.77    7.29
   5  -2  10   37.44    5.69
   5   2  10   44.05    7.07
   6  -2  10    4.42    3.31
   6   2  10    9.60    4.63
   6   2  10    6.49    4.03
   6  -2  10    6.58    3.90
   6  -2  10    2.09    3.16
   7  -2  10   90.55    9.31
   7   2  10   69.04    9.44
   7  -2  10   64.10    8.36
   7   2  10   49.50    7.39
   8   2  10   32.28    6.65
  10  -3 -10    8.48    5.08
  -9   3  10   11.28    4.69
  -9  -3  10    7.36    4.66
   9  -3 -10    3.07    4.07
  -9   3  10    9.60    4.47
  -8   3  10    8.76    4.10
  -8   3  10   15.31    4.88
  -8  -3  10   11.89    4.69
   8  -3 -10   18.61    4.64
   7  -3 -10    5.16    3.21
   7  -3 -10    5.80    3.12
  -7   3  10    7.98    3.77
  -7   3  10    2.96    3.36
  -7  -3  10    3.93    3.65
  -6   3  10    4.22    3.12
   6  -3 -10    2.54    2.83
   6  -3 -10    2.25    2.61
   6   3 -10    2.42    2.80
  -6   3  10   -0.19    2.64
  -6  -3  10   -3.09    2.26
  -5   3  10   14.21    4.06
   5  -3 -10   24.32    4.20
  -5   3  10   13.60    3.86
   5  -3 -10   18.70    3.73
  -5  -3  10   18.13    4.44
   5   3 -10   19.61    4.44
  -4  -3  10  181.42    7.83
   4  -3 -10  170.80    9.04
   4  -3 -10  180.47    9.22
  -4   3  10  172.53   10.65
  -4  -3  10  174.61   10.20
   4   3 -10  162.61   10.33
  -3   3  10  569.89   20.13
   3  -3 -10  571.65   19.85
   3  -3 -10  575.45   20.21
  -3  -3  10  571.25   18.76
  -3   3  10  551.01   21.33
  -3  -3  10  555.84   21.69
  -3   3  10  567.31   22.15
   3   3 -10  542.45   22.32
   2   3 -10  171.51    9.91
   2  -3 -10  161.76    7.10
  -2  -3  10  159.15    7.72
   2  -3 -10  165.38    8.60
  -2   3  10  158.90    8.73
  -2   3  10  154.09    9.60
  -2  -3  10  133.18    8.77
  -1  -3  10   56.98    5.91
  -1   3  10   75.46    6.88
   1  -3 -10   67.69    3.39
  -1   3  10   58.10    6.10
  -1   3  10   64.21    5.11
  -1  -3  10   61.22    4.80
   1   3 -10   73.39    6.39
   0   3  10   84.76    5.38
   0  -3  10   74.23    6.41
   0   3  10   82.74    6.83
   0  -3  10   88.23    6.14
   0   3  10   87.15    6.97
   0   3 -10   83.54    6.88
   1   3  10   23.44    4.39
  -1   3 -10   19.70    4.11
   1   3  10   22.32    2.79
   1  -3  10   18.78    4.21
   1  -3  10   16.27    3.51
   1  -3  10   25.67    2.81
   1   3  10   19.45    4.36
   2   3  10  143.63    9.48
   2  -3  10  141.73    7.01
   2   3  10  116.72    8.46
   2  -3  10  127.30    8.19
   2  -3  10  130.13    8.44
  -2   3 -10  124.71    8.77
   3  -3  10   60.89    7.28
   3  -3  10   50.87    6.07
   3   3  10   41.60    5.89
   3  -3  10   51.82    5.91
   3   3  10   63.44    7.40
   3  -3  10   53.74    5.04
   4  -3  10   88.69    6.75
   4  -3  10   84.01    8.90
   4   3  10  100.66    9.35
   4   3  10  111.62    8.47
   4  -3  10   90.32    7.91
   4  -3  10  100.75    7.88
   5  -3  10   62.24    7.57
   5   3  10   55.95    6.96
   5  -3  10   65.98    7.25
   5   3  10   48.56    7.55
   5  -3  10   65.42    6.70
   6   3  10   21.10    6.12
   6  -3  10   16.67    4.86
   6  -3  10   11.97    4.42
   6   3  10   13.26    4.44
   7  -3  10   18.05    5.33
   7   3  10   18.45    5.42
   9  -4 -10   12.06    5.16
  -8   4  10    7.56    4.32
   8  -4 -10    9.76    4.72
  -8   4  10    2.11    3.66
  -8  -4  10   -1.09    3.55
  -7  -4  10   60.74    7.71
   7  -4 -10   72.77    7.46
  -7   4  10   56.15    8.10
  -7   4  10   67.86    8.28
  -6  -4  10  138.18    9.94
  -6   4  10  126.12    9.92
   6  -4 -10  130.23    9.20
   6  -4 -10  124.53    8.82
  -6   4  10  127.83   10.04
   5  -4 -10   35.42    5.25
  -5   4  10   31.52    5.90
   5   4 -10   27.40    5.37
  -5   4  10   26.42    5.18
   5  -4 -10   34.76    5.01
  -5  -4  10   26.12    5.12
  -4   4  10   41.94    5.99
  -4  -4  10   37.23    5.57
  -4   4  10   48.13    6.74
   4  -4 -10   41.90    5.33
   4  -4 -10   39.48    4.56
   4   4 -10   45.16    6.25
  -3  -4  10   46.96    5.99
   3   4 -10   41.99    5.89
  -3   4  10   43.80    5.56
  -3   4  10   41.56    6.13
   3  -4 -10   56.49    5.92
   2  -4 -10   21.33    4.20
   2   4 -10   19.13    4.62
  -2   4  10   20.38    4.09
  -2   4  10   17.31    4.47
  -2  -4  10   26.26    4.84
  -2  -4  10   21.71    3.15
  -1  -4  10   12.46    2.84
  -1   4  10    9.05    3.64
   1   4 -10    6.25    3.27
  -1   4  10   10.28    2.98
   1  -4 -10   16.98    3.87
  -1  -4  10   15.39    3.72
  -1   4  10   15.72    4.04
   0   4  10    5.51    3.26
   0  -4  10   14.58    3.28
   0   4  10    6.28    3.45
   0  -4  10    9.33    3.50
   0   4  10   12.02    3.00
   0   4 -10   10.92    3.68
   1   4  10    6.37    3.52
   1   4  10    5.25    2.98
   1  -4  10    9.30    3.51
  -1   4 -10    5.29    3.15
   1  -4  10   10.01    3.09
  -2   4 -10   35.34    5.90
   2   4  10   30.51    5.28
   2   4  10   30.27    5.79
   2  -4  10   29.69    4.79
   2  -4  10   33.10    6.33
   2  -4  10   30.28    5.22
   3   4  10   35.72    6.63
   3  -4  10   36.43    5.59
   3  -4  10   36.41    6.59
   3  -4  10   22.73    4.85
   3   4  10   38.13    5.94
   4  -4  10   87.89    6.75
   4   4  10   79.15    7.94
   4  -4  10   83.44    8.33
   4  -4  10   63.77    7.49
   4   4  10   67.58    8.65
   5   4  10    1.82    4.06
   5  -4  10    6.34    3.87
   5   4  10    6.07    3.81
   5  -4  10    1.41    3.24
   5  -4  10    8.24    3.50
   6  -4  10   12.45    4.82
   6   4  10   12.18    4.84
   6  -4  10   22.88    5.22
   6   4  10    8.52    5.28
   8  -5 -10   14.61    5.16
   7  -5 -10   18.02    5.42
  -7   5  10   11.81    4.65
  -7  -5  10   13.91    4.95
  -7   5  10   12.20    4.79
  -6   5  10    4.98    4.03
  -6  -5  10   10.82    4.12
   6  -5 -10   10.88    4.38
  -6   5  10   12.58    4.68
  -5   5  10    1.92    3.19
   5  -5 -10    4.41    3.38
  -5  -5  10    1.47    2.95
  -5   5  10    0.43    3.12
  -4   5  10   19.30    4.71
   4  -5 -10    8.28    3.56
  -4  -5  10   13.18    4.06
  -4   5  10   15.20    4.73
  -3  -5  10   28.32    5.21
  -3   5  10   22.39    5.05
   3  -5 -10   16.83    4.28
   3   5 -10   30.18    5.61
  -3   5  10   32.63    5.86
  -2   5  10   21.07    4.95
   2   5 -10    8.09    3.76
  -2  -5  10   13.77    4.18
  -2   5  10   14.15    3.94
   2  -5 -10   19.64    4.36
  -1   5  10   28.55    4.66
  -1   5  10   26.66    5.42
  -1  -5  10   35.14    4.13
  -1  -5  10   30.16    5.41
   1  -5 -10   27.95    5.03
   1   5 -10   14.36    4.36
   0   5 -10   90.82    8.89
   0   5  10   88.54    8.48
   0  -5  10   85.63    8.19
   0   5  10   53.87    7.55
   0  -5  10   77.21    6.09
   1  -5  10   21.69    4.85
   1  -5  10   29.22    4.68
   1   5  10   38.32    6.20
   1   5  10   40.98    6.74
   2  -5  10    6.44    3.20
   2   5  10    3.97    3.25
   2  -5  10    3.56    3.20
   2   5  10   13.75    4.89
   3  -5  10   59.48    7.56
   3   5  10   47.62    8.10
   3  -5  10   44.03    6.47
   3   5  10   54.69    7.12
   4   5  10    1.15    3.41
   4   5  10   -3.94    3.22
   4  -5  10   -1.09    2.99
   4  -5  10    4.16    3.94
   5  -5  10    7.64    4.91
   5  -5  10    8.67    4.50
   5   5  10    2.16    4.47
  -6   6  10   25.74    6.36
   6  -6 -10   33.16    6.64
  -6   6  10   37.09    7.41
  -6  -6  10   34.08    6.46
  -5   6  10    5.34    4.57
   5  -6 -10    3.39    3.76
  -5   6  10    6.41    4.31
  -5  -6  10    1.09    3.15
   4  -6 -10    7.12    3.95
  -4  -6  10   10.31    4.11
  -4   6  10    8.34    4.47
  -4   6  10    3.74    4.14
  -3   6  10    0.92    3.59
  -3   6  10    1.25    3.39
  -3  -6  10   -0.25    2.61
   3  -6 -10   -0.19    3.06
  -2   6  10   30.69    5.73
   2  -6 -10   19.05    4.81
  -2   6  10   23.43    5.78
  -2  -6  10   12.40    4.11
   1  -6 -10   24.92    5.25
  -1  -6  10   28.36    5.73
  -1   6  10   33.61    6.65
   0   6  10   23.90    5.89
   0  -6  10   22.29    5.20
   0   6  10   34.72    6.51
   0  -6 -10   35.97    6.05
   1  -6  10   51.40    6.04
   1   6  10   51.70    8.20
   1   6  10   52.53    7.36
   1  -6  10   41.61    6.86
   2   6  10   69.71    9.32
   2  -6  10   93.59    8.28
   2   6  10   98.58    9.42
   2  -6  10   82.18    8.89
   3   6  10   11.01    5.20
   3  -6  10    6.47    3.79
   3  -6  10   10.21    4.84
   3   6  10    4.89    4.46
   4  -6  10   13.76    4.96
   4  -7 -10    7.26    4.52
  -4   7  10    3.91    4.41
  -3  -7  10    7.17    4.16
  -3   7  10   10.15    5.29
   3  -7 -10    6.44    4.42
  -3   7  10    2.00    4.01
  -2  -7  10   34.79    6.56
  -2   7  10   33.03    7.16
   2  -7 -10   30.66    6.36
   1  -7 -10    3.36    3.75
  -1   7  10   -0.03    3.80
  -1  -7  10    5.85    4.16
   0  -7  10   23.63    5.56
   0  -7 -10   30.41    6.12
   0   7  10   32.21    6.73
   1   7  10    7.82    4.80
  -1  -7 -10    6.53    4.05
   1   7  10   12.09    5.58
   1  -7  10    3.47    3.91
  -1   8  10  102.74   11.23
  -9   0  11   53.14    7.74
  -8   0  11   54.36    7.45
  -8   0  11   39.94    5.55
   7   0 -11   23.93    5.08
  -7   0  11   17.45    4.78
  -7   0  11   19.79    4.23
  -6   0  11    3.33    2.95
   6   0 -11    3.08    2.74
  -6   0  11    1.78    2.35
   5   0 -11  102.36    5.29
   5   0 -11   99.49    7.45
  -5   0  11   93.04    7.69
  -5   0  11  102.29    7.10
  -4   0  11  339.48   15.28
   4   0 -11  312.64   14.28
  -4   0  11  328.41   14.13
   4   0 -11  336.94   11.32
   3   0 -11  172.74    9.09
  -3   0  11  176.82    9.94
   3   0 -11  170.86    6.82
  -3   0  11  181.54    9.49
   2   0 -11   57.43    3.61
  -2   0  11   45.73    4.99
   2   0 -11   53.15    4.53
  -2   0  11   58.14    5.62
  -1   0  11  146.28    8.29
  -1   0  11  133.23    8.08
  -1   0  11  149.99    7.73
  -1   0  11  149.17    6.91
   1   0 -11  133.08    7.31
   0   0  11   58.72    4.72
   0   0  11   66.54    4.87
   0   0  11   56.25    5.54
   0   0  11   65.68    5.27
   0   0 -11   63.50    4.69
   1   0  11  105.56    7.37
   1   0  11  116.94    6.54
   1   0  11  108.12    6.63
   1   0  11  115.62    6.85
  -1   0 -11  109.85    6.38
   2   0  11   -0.58    1.75
   2   0  11   -0.03    1.96
   2   0  11    2.94    2.40
   2   0  11   -0.37    1.92
   3   0  11    3.05    2.09
   3   0  11    4.95    2.88
   3   0  11    3.60    2.43
   3   0  11   -0.20    2.15
   4   0  11   18.89    4.42
   4   0  11   22.88    4.90
   5   0  11   55.75    7.02
   5   0  11   40.87    6.14
   6   0  11   20.86    5.44
   6   0  11   34.06    6.58
   7   0  11    1.66    3.92
   7   0  11    3.10    4.12
  -9  -1  11    5.38    4.14
  -9   1  11    9.73    4.55
  -9   1  11    7.09    4.19
  -8  -1  11    5.83    3.82
  -8   1  11    6.27    3.82
  -8   1  11    4.52    3.36
   7   1 -11    0.87    2.47
   7  -1 -11    2.56    2.93
  -7   1  11    1.83    2.81
  -7  -1  11    0.07    3.01
   7  -1 -11    1.38    2.24
  -7   1  11   -0.68    2.39
   6  -1 -11   60.10    4.95
  -6  -1  11   60.50    7.09
  -6   1  11   65.84    7.29
  -6   1  11   65.92    6.81
   6  -1 -11   76.75    6.67
   6   1 -11   55.02    6.41
  -6  -1  11   73.94    5.89
   5  -1 -11   13.43    2.82
   5   1 -11   16.31    3.82
  -5   1  11   10.73    3.79
  -5  -1  11   22.20    4.90
   5  -1 -11   20.26    3.97
  -5   1  11   10.94    3.58
  -5  -1  11    9.27    2.93
  -4  -1  11   45.91    5.83
  -4   1  11   50.40    5.75
   4  -1 -11   42.85    4.68
  -4  -1  11   47.62    4.92
   4   1 -11   42.86    5.11
  -4   1  11   48.11    5.83
   4  -1 -11   46.74    4.07
   3  -1 -11  130.57    7.44
  -3  -1  11  137.80    8.68
   3   1 -11  142.71    8.35
   3  -1 -11  129.80    6.49
  -3  -1  11  133.52    7.70
  -3   1  11  134.52    8.43
  -3   1  11  124.63    8.27
  -2   1  11   67.97    5.85
   2  -1 -11   68.25    4.82
  -2  -1  11   64.40    5.70
  -2  -1  11   73.03    5.65
   2   1 -11   66.30    2.93
   2  -1 -11   64.84    4.53
  -2   1  11   77.98    5.35
   2   1 -11   67.93    5.62
  -2   1  11   67.86    5.74
   1   1 -11   27.87    3.91
  -1   1  11   22.26    3.96
   1  -1 -11   34.21    3.31
  -1  -1  11   30.40    2.64
  -1   1  11   29.26    3.28
  -1  -1  11   28.49    4.21
  -1   1  11   24.17    3.85
  -1   1  11   28.83    3.83
  -1  -1  11   29.90    4.12
   0   1  11  119.42    7.65
   0  -1  11  109.19    7.11
   0  -1  11   92.38    6.58
   0   1  11  109.22    6.79
   0  -1  11  103.51    5.51
   0   1  11  112.19    5.78
   0   1 -11   98.34    6.59
   0  -1 -11  104.82    5.57
   0   1  11  111.36    6.72
  -1   1 -11   22.81    3.69
   1  -1  11   28.91    3.56
   1  -1  11   22.10    3.85
   1   1  11   19.60    3.92
   1   1  11   16.99    3.71
   1   1  11   28.44    3.66
  -1  -1 -11   24.95    2.71
   1  -1  11   20.25    3.82
   2   1  11    6.13    2.30
   2  -1  11    8.87    3.13
  -2   1 -11    7.74    2.56
   2  -1  11    8.12    2.66
   2   1  11   14.56    3.61
   2   1  11    4.91    2.82
   2  -1  11    3.65    2.63
   2  -1  11    8.76    2.79
   3   1  11  372.04   17.03
   3  -1  11  399.30   17.28
   3   1  11  405.77   17.04
   3  -1  11  399.68   15.58
   3  -1  11  395.17   15.93
   4   1  11    5.93    3.30
   4  -1  11   13.66    4.09
   4  -1  11   10.17    3.49
   4  -1  11    8.23    3.40
   4   1  11   10.50    3.45
   5  -1  11    5.71    3.15
   5   1  11   -0.30    2.83
   5  -1  11    1.23    3.06
   5   1  11    5.24    3.69
   6   1  11   34.29    6.80
   6   1  11   46.99    7.18
   6  -1  11   41.42    6.69
   6  -1  11   35.13    6.50
   7  -1  11   32.74    6.70
   7   1  11   37.53    7.02
   7   1  11   58.88    8.82
   7  -1  11   29.45    6.38
  -9   2  11    0.17    3.34
  -9  -2  11    1.14    3.92
  -9   2  11    2.11    3.79
  -8  -2  11   23.83    5.76
  -8   2  11   19.76    4.90
  -8   2  11   25.21    5.74
   8  -2 -11   17.93    4.29
  -7  -2  11    1.72    3.34
  -7   2  11    0.94    2.76
   7  -2 -11   -0.47    2.32
   7  -2 -11   -0.96    2.45
  -7   2  11    4.51    3.35
   6  -2 -11   32.41    5.06
  -6  -2  11   35.48    6.10
   6  -2 -11   34.16    4.63
  -6   2  11   24.70    5.06
   6   2 -11   38.61    5.90
  -6   2  11   36.13    5.73
  -5   2  11   97.51    7.95
   5   2 -11  100.09    8.03
  -5   2  11   97.14    7.87
  -5  -2  11  110.34    6.56
   5  -2 -11   98.88    6.62
   5  -2 -11  115.63    7.72
  -5  -2  11   94.74    7.95
   4  -2 -11  138.10    7.46
  -4   2  11  124.56    8.59
  -4   2  11  145.50    9.25
   4  -2 -11  121.52    7.56
  -4  -2  11  135.55    7.34
   4   2 -11  134.89    8.89
  -4  -2  11  113.85    8.45
  -3   2  11   96.29    6.37
  -3   2  11   90.44    7.41
   3  -2 -11  106.49    6.33
   3  -2 -11  102.66    6.23
  -3  -2  11  112.59    6.57
  -3   2  11   81.02    6.81
   3   2 -11  107.97    7.61
  -3  -2  11  102.76    7.43
  -2  -2  11  224.13   10.35
   2   2 -11  240.60   11.81
   2  -2 -11  215.51    9.41
  -2   2  11  227.02    9.71
  -2  -2  11  220.40   11.49
  -2   2  11  223.95   10.98
   2  -2 -11  246.11   10.39
  -2   2  11  228.91   11.83
   1  -2 -11   71.94    4.29
  -1  -2  11   75.05    5.61
  -1  -2  11   65.26    5.91
  -1   2  11   78.65    6.17
  -1   2  11   79.02    6.42
   1   2 -11   87.54    6.56
  -1   2  11   71.13    5.63
   0   2  11    8.26    2.90
   0  -2  11    5.93    2.87
   0  -2  11    3.77    2.36
   0   2 -11    7.02    2.79
   0   2  11    5.48    2.67
   0   2  11    5.33    2.33
   1   2  11  121.28    6.43
   1   2  11  117.63    8.29
   1  -2  11  122.22    7.79
  -1   2 -11  123.13    8.14
   1  -2  11  131.54    8.11
   1  -2  11  124.03    6.30
   1   2  11  131.72    8.51
   2   2  11   42.91    5.78
   2  -2  11   36.41    5.15
   2   2  11   31.33    5.17
  -2   2 -11   46.76    5.44
   2  -2  11   40.33    4.29
   2  -2  11   40.88    5.06
   3  -2  11  149.09    8.26
   3  -2  11  127.78    9.48
   3   2  11  146.70    9.81
   3  -2  11  132.25    8.37
   3  -2  11  132.46    9.05
   3   2  11  117.65    8.81
   4   2  11   13.85    4.21
   4  -2  11   27.46    4.67
   4  -2  11   21.02    4.32
   4  -2  11   18.39    4.51
   4  -2  11   25.84    5.25
   4   2  11   16.23    4.76
   5   2  11   41.11    7.01
   5  -2  11   60.59    7.77
   5  -2  11   58.84    6.93
   5   2  11   57.63    7.18
   5  -2  11   43.98    6.47
   6  -2  11    9.02    4.23
   6  -2  11    4.63    3.92
   6   2  11   -2.10    3.47
   6   2  11    2.32    3.99
   7   2  11   35.69    7.15
   7  -2  11   30.13    6.39
  -9   3  11   27.93    6.49
   9  -3 -11    9.56    4.46
  -8  -3  11    0.33    3.67
   8  -3 -11   -1.25    3.20
  -8   3  11    2.38    3.36
  -8   3  11   -2.03    3.28
  -7  -3  11   11.01    4.30
  -7   3  11    5.91    3.80
   7  -3 -11    9.25    4.01
  -7   3  11    7.70    3.78
   7  -3 -11   10.14    3.83
   6  -3 -11   13.77    3.74
  -6   3  11   10.94    4.36
   6  -3 -11   14.91    4.17
  -6  -3  11   12.86    4.34
  -6   3  11   18.56    4.92
   5   3 -11   58.79    6.81
   5  -3 -11   78.57    6.56
  -5  -3  11   36.06    5.76
  -5   3  11   44.28    6.41
  -5   3  11   49.66    6.46
   5  -3 -11   53.00    5.63
  -4   3  11   27.61    5.24
  -4   3  11   26.36    4.79
   4  -3 -11   20.17    3.56
   4  -3 -11   31.16    4.57
  -4  -3  11   22.15    4.55
   4   3 -11   27.13    5.11
  -3  -3  11   50.36    6.16
   3  -3 -11   41.29    4.07
   3  -3 -11   35.51    4.57
  -3   3  11   47.82    5.72
  -3   3  11   37.84    5.86
   3   3 -11   52.22    6.11
  -3  -3  11   50.88    4.33
   2   3 -11   31.31    5.02
   2  -3 -11   39.17    4.79
  -2  -3  11   29.46    4.90
  -2   3  11   36.62    4.79
  -2   3  11   27.09    4.87
  -2  -3  11   41.22    4.28
  -1   3  11   26.69    4.79
  -1   3  11   42.63    5.70
  -1   3  11   33.90    4.18
  -1  -3  11   35.25    4.22
   1   3 -11   38.59    5.38
  -1  -3  11   30.29    4.87
   0   3 -11  134.71    9.10
   0  -3  11  142.82    8.85
   0  -3  11  133.19    7.94
   0   3  11  132.06    7.25
   0   3  11  141.90    9.18
  -1   3 -11   25.58    4.85
   1  -3  11   30.77    4.70
   1   3  11   35.64    5.47
   1  -3  11   19.58    4.10
   1   3  11   23.66    4.93
   2   3  11    7.84    3.47
   2   3  11    5.82    3.24
   2  -3  11    6.26    2.99
   2  -3  11    6.36    2.98
  -2   3 -11   12.19    3.74
   3  -3  11   28.76    5.10
   3  -3  11   22.76    5.30
   3  -3  11   27.60    5.07
   3   3  11   34.05    6.25
   3   3  11   26.15    5.11
   3  -3  11   30.78    4.28
   4  -3  11   32.29    4.85
   4   3  11   21.52    5.36
   4  -3  11   43.65    7.10
   4   3  11   36.26    5.96
   4  -3  11   35.75    5.82
   4  -3  11   27.98    5.42
   5   3  11   47.74    7.67
   5   3  11   32.50    6.05
   5  -3  11   38.58    6.55
   5  -3  11   45.11    6.17
   6  -3  11    1.60    3.55
   6  -3  11    1.71    3.79
   6   3  11    0.23    3.41
   6   3  11   -1.92    3.81
   7   3  11    8.45    5.02
   7  -3  11    6.47    4.63
  -8  -4  11   39.98    7.24
  -8   4  11   44.27    7.81
  -8   4  11   51.80    8.32
   8  -4 -11   42.81    6.87
  -7   4  11   12.95    5.11
  -7   4  11   14.12    4.90
   7  -4 -11   14.00    4.55
  -7  -4  11   12.97    4.66
  -6   4  11   68.39    8.40
   6  -4 -11   57.11    6.35
  -6   4  11   48.20    7.04
  -6  -4  11   42.74    6.73
   6  -4 -11   70.47    7.29
   5  -4 -11   25.40    4.75
  -5   4  11   19.06    5.00
  -5  -4  11    9.89    3.81
  -5   4  11   32.56    5.81
   4   4 -11    7.94    3.65
  -4   4  11    5.14    3.14
  -4  -4  11    7.95    3.55
  -4   4  11    5.62    3.32
   4  -4 -11    7.21    3.08
  -3   4  11   25.22    5.15
   3  -4 -11   25.49    4.45
  -3  -4  11   29.95    5.42
  -3   4  11   31.29    5.10
   3   4 -11   29.36    5.44
  -2   4  11   32.64    4.91
   2   4 -11   30.05    5.49
   2  -4 -11   26.65    4.63
  -2  -4  11   21.83    3.47
  -2  -4  11   24.69    4.81
  -2   4  11   26.75    5.40
  -1  -4  11   18.75    3.42
  -1   4  11   20.22    3.73
  -1   4  11   19.81    4.94
  -1  -4  11   10.82    3.62
  -1   4  11   24.04    5.26
   1   4 -11   16.76    4.29
   1  -4 -11   17.14    4.07
   0   4  11   75.51    7.72
   0  -4  11   89.41    6.55
   0  -4  11   63.97    6.95
   0   4 -11   95.04    8.12
   0   4  11   97.68    8.85
   1  -4  11   45.37    5.57
   1   4  11   53.67    6.76
  -1   4 -11   59.36    7.09
   1  -4  11   54.81    6.67
   1   4  11   48.53    6.88
   2  -4  11    4.80    2.98
   2  -4  11    6.45    3.89
   2   4  11    2.74    2.83
  -2   4 -11    5.62    3.51
   2  -4  11    2.31    3.00
   2   4  11    4.37    3.73
   3   4  11   37.48    6.93
   3   4  11   22.58    5.24
   3  -4  11   28.30    5.60
   3  -4  11   34.04    5.73
   4   4  11   57.70    8.48
   4  -4  11   78.64    8.39
   4  -4  11   69.22    7.82
   4   4  11   59.26    7.49
   5  -4  11   50.30    7.52
   5   4  11   52.22    7.62
   5   4  11   53.66    8.52
   5  -4  11   56.58    7.58
   7  -5 -11   54.27    7.54
  -7   5  11   45.95    7.92
  -7  -5  11   66.66    8.37
  -6   5  11   23.32    6.07
   6  -5 -11   21.48    5.44
  -6   5  11   22.89    6.19
  -6  -5  11   17.22    5.04
  -5   5  11   12.51    4.62
  -5  -5  11   11.54    4.39
   5  -5 -11   19.17    4.97
  -5   5  11   16.97    5.12
  -4   5  11   43.53    7.03
  -4   5  11   42.70    6.90
   4  -5 -11   38.74    6.03
  -4  -5  11   33.28    5.81
  -3   5  11    2.47    3.00
   3  -5 -11    3.70    3.21
  -3   5  11    4.84    3.73
  -3  -5  11    1.37    2.91
  -2  -5  11   67.72    7.48
   2  -5 -11   65.71    7.03
  -2   5  11   69.62    7.17
  -2   5  11   68.00    8.14
   1  -5 -11    0.53    2.70
  -1   5  11    1.43    3.21
  -1  -5  11    3.02    3.07
  -1   5  11    4.28    2.77
   0   5  11   18.27    5.28
   0  -5  11   14.34    4.47
   0   5  11   11.94    4.39
   0  -5  11   19.24    3.95
   1   5  11  104.81   10.31
   1  -5  11   95.75    7.38
   1   5  11   90.07    8.85
   1  -5  11   82.99    8.51
   2  -5  11    7.11    3.89
   2   5  11    4.68    3.96
   2   5  11    7.88    4.16
   2  -5  11    6.43    3.37
   3  -5  11    7.61    4.03
   3   5  11   16.06    5.14
   3   5  11   11.56    5.08
   3  -5  11   19.42    4.78
   4   5  11   40.24    7.90
   4   5  11   51.77    7.54
   4  -5  11   43.38    6.98
   4  -5  11   49.59    7.51
   6  -6 -11   12.66    5.10
  -5   6  11   13.48    5.57
  -5  -6  11    4.71    3.81
   5  -6 -11    7.76    4.57
  -5   6  11    7.42    4.71
  -4  -6  11   10.67    4.34
  -4   6  11    4.71    4.04
  -4   6  11   14.84    5.22
   4  -6 -11   13.47    4.54
  -3  -6  11   12.66    4.54
  -3   6  11   10.98    4.86
  -3   6  11    8.30    4.08
   3  -6 -11    7.82    4.01
  -2  -6  11    1.72    3.03
   2  -6 -11    3.03    3.38
  -2   6  11    3.20    3.49
  -2   6  11    1.04    3.70
   1  -6 -11   10.61    4.20
  -1   6  11    6.12    4.36
  -1  -6  11   -0.13    2.94
   0  -6  11  125.82   10.19
   0   6  11  109.50   11.08
   0   6  11  128.69   10.63
   0  -6 -11  122.47    9.41
   1  -6  11   58.52    7.91
   1   6  11   81.79    9.23
   1   6  11   90.96   10.62
   2  -6  11   25.15    5.86
   2   6  11   33.44    6.61
   2   6  11   44.79    8.43
   2  -6  11   35.78    5.77
   3   6  11    2.44    4.15
   3   6  11   -1.43    3.93
   3  -6  11    3.07    3.90
   4  -6  11   23.74    5.80
  -3   7  11   26.84    6.91
  -2   7  11    8.71    5.46
   2  -7 -11   10.91    4.83
   1  -7 -11   10.54    4.80
  -1   7  11    3.20    4.53
  -1  -7  11    8.19    4.36
   0   7  11   18.13    6.06
   1   7  11   21.09    6.25
  -9   0  12   34.42    6.74
  -8   0  12   55.01    7.59
  -7   0  12    0.20    2.63
  -7   0  12    1.43    3.17
  -6   0  12   -2.51    2.07
   6   0 -12    1.73    2.48
  -6   0  12   -0.07    2.78
  -5   0  12    0.94    2.35
   5   0 -12    0.75    2.19
  -5   0  12    3.08    2.87
  -4   0  12   96.23    7.21
  -4   0  12   69.92    7.34
   4   0 -12   92.09    6.84
   3   0 -12  647.15   23.69
   3   0 -12  638.67   19.62
  -3   0  12  654.01   24.41
  -3   0  12  649.37   23.42
  -2   0  12   15.77    3.79
   2   0 -12   16.52    3.24
  -2   0  12   11.25    3.61
   2   0 -12   15.92    2.44
  -1   0  12  247.52   12.00
  -1   0  12  255.20   10.28
  -1   0  12  246.92   12.14
   1   0 -12  259.69   11.38
   0   0 -12    2.68    1.94
   0   0  12    5.07    2.59
   0   0  12    2.70    2.59
   0   0  12    1.58    2.02
   1   0  12   32.50    5.02
   1   0  12   24.33    3.91
  -1   0 -12   26.82    3.63
   1   0  12   29.79    4.17
   2   0  12   75.07    5.71
   2   0  12   66.68    6.88
   2   0  12   71.57    6.49
   2   0  12   80.71    6.26
   3   0  12  157.95    9.63
   3   0  12  162.40   10.45
   4   0  12   37.94    5.98
   4   0  12   42.29    6.33
   5   0  12   48.25    7.05
   5   0  12   41.97    6.65
   6   0  12   22.79    5.90
   6   0  12   16.64    5.53
  -9  -1  12   28.77    6.89
  -9   1  12   28.89    6.33
  -8   1  12    6.87    3.97
  -8  -1  12    3.65    3.55
  -8   1  12    6.02    3.61
  -7  -1  12    1.52    3.29
  -7   1  12    7.52    3.51
  -7   1  12    4.02    3.38
   6  -1 -12   19.73    3.32
  -6   1  12   12.19    4.10
   6  -1 -12   22.11    4.46
  -6  -1  12   19.27    4.85
  -6   1  12   17.20    4.25
   6   1 -12   22.68    4.83
  -6  -1  12   14.72    3.53
  -5  -1  12   50.79    5.38
   5  -1 -12   55.78    4.52
   5  -1 -12   58.37    6.00
  -5  -1  12   54.50    6.87
  -5   1  12   28.93    5.37
   5   1 -12   38.90    5.40
  -5   1  12   45.99    6.11
  -4  -1  12  187.29    9.61
  -4   1  12  167.05   10.37
   4   1 -12  178.06   10.26
  -4  -1  12  157.58   10.17
  -4   1  12  176.97   10.31
   4  -1 -12  169.22    7.94
   4  -1 -12  157.59    9.17
   3  -1 -12  282.54   11.03
  -3  -1  12  271.62   13.66
  -3   1  12  287.76   13.68
  -3  -1  12  303.92   12.96
   3  -1 -12  280.11   12.42
  -3   1  12  275.23   13.47
   3   1 -12  280.90   13.32
  -2  -1  12  156.82    8.92
  -2   1  12  149.73    9.36
  -2   1  12  155.50    9.22
   2   1 -12  177.95    9.54
   2  -1 -12  174.65    7.92
  -2  -1  12  148.27    9.40
   2  -1 -12  154.37    8.07
  -2   1  12  163.80    8.46
   1   1 -12  193.73   10.15
  -1   1  12  182.26   10.44
  -1  -1  12  204.93   10.38
   1  -1 -12  193.94    8.82
  -1  -1  12  199.37   10.44
  -1   1  12  193.76   10.15
  -1   1  12  200.40    9.59
   0   1  12   12.06    3.17
   0  -1 -12   13.03    2.47
   0   1 -12   17.10    3.49
   0  -1  12   14.76    3.49
   0   1  12   12.48    3.38
   0   1  12   14.90    3.72
   0  -1  12   11.36    3.21
   0  -1  12   16.69    2.76
   1   1  12   79.90    5.88
   1  -1  12   83.46    6.82
   1  -1  12   95.51    6.02
   1   1  12   85.51    7.06
   1  -1  12   89.05    6.60
  -1   1 -12   90.06    6.55
   1   1  12   94.29    6.96
   2  -1  12  155.61    9.91
   2   1  12  172.87   10.55
   2  -1  12  179.21    9.25
   2   1  12  182.21   10.31
   2  -1  12  188.60    9.70
  -2   1 -12  183.10    9.81
   2  -1  12  165.44   10.27
   3  -1  12  106.77    8.03
   3  -1  12   81.74    6.59
   3  -1  12   86.08    6.39
   3  -1  12   66.35    7.13
   3   1  12   88.85    7.69
   3   1  12   75.18    7.53
   4   1  12   43.73    6.44
   4  -1  12   69.00    7.53
   4   1  12   65.76    7.71
   4  -1  12   60.25    6.66
   5  -1  12   20.87    5.05
   5  -1  12   28.64    5.84
   5   1  12   29.36    6.23
   5   1  12   21.57    5.29
   6  -1  12   10.45    4.63
   6  -1  12   12.94    4.83
   6   1  12   16.24    5.25
   6   1  12   13.89    5.26
   7  -1  12    2.27    4.32
  -9   2  12   32.29    6.43
  -8   2  12    9.77    4.30
  -8  -2  12    9.61    4.58
  -8   2  12   24.42    5.60
  -7   2  12    3.73    3.16
   7  -2 -12   -0.64    2.47
  -7   2  12   -0.24    3.19
  -7  -2  12    2.13    3.55
   6  -2 -12    1.97    2.72
  -6  -2  12    4.62    3.44
   6  -2 -12    3.20    2.58
  -6   2  12    6.35    3.32
  -6   2  12    2.58    2.95
   5  -2 -12   14.55    3.57
  -5  -2  12    9.13    3.78
   5  -2 -12   13.28    3.20
  -5   2  12   11.82    4.06
   5   2 -12    9.31    3.55
  -5   2  12   12.99    4.19
  -5  -2  12   15.56    3.37
  -4  -2  12   72.36    7.32
  -4   2  12   75.70    7.59
   4  -2 -12   76.09    5.70
  -4   2  12   56.68    6.53
   4  -2 -12   77.83    6.05
   4   2 -12   77.96    6.90
  -4  -2  12   78.29    5.81
  -3   2  12   50.73    5.90
  -3   2  12   59.41    6.85
  -3  -2  12   61.32    6.71
  -3  -2  12   51.64    5.08
   3  -2 -12   56.32    5.12
   3  -2 -12   51.77    4.61
   3   2 -12   73.03    6.84
   2  -2 -12   20.58    2.90
  -2   2  12   16.19    3.81
   2  -2 -12   17.05    3.40
  -2  -2  12   23.17    3.76
  -2   2  12   27.25    4.88
   2   2 -12   27.19    4.68
  -2  -2  12   19.70    4.33
  -1  -2  12    8.31    3.01
  -1  -2  12   11.36    3.57
   1   2 -12    4.81    2.77
  -1   2  12    6.56    2.73
  -1   2  12    4.08    2.90
  -1   2  12    5.43    2.96
   0   2  12   58.32    6.18
   0   2 -12   59.20    6.04
   0  -2  12   57.32    6.03
   0   2  12   60.71    6.66
   0   2  12   64.19    5.17
   0  -2  12   56.79    5.77
   1   2  12  116.50    8.40
   1  -2  12  116.80    8.04
   1   2  12  117.61    6.54
  -1   2 -12  119.33    8.23
   1  -2  12  107.62    7.63
   1   2  12  104.50    8.30
   2  -2  12   20.38    4.22
   2  -2  12   23.79    5.04
   2  -2  12   22.48    4.46
   2  -2  12   26.93    3.94
   2   2  12   24.09    4.97
  -2   2 -12   23.93    4.57
   2   2  12   23.00    4.89
   3   2  12   28.71    5.26
   3   2  12   22.72    5.15
   3  -2  12   32.83    4.71
   3  -2  12   25.17    5.43
   3  -2  12   24.56    4.58
   3  -2  12   21.40    4.67
   4  -2  12    9.19    3.75
   4  -2  12   14.01    4.45
   4   2  12   12.35    4.47
   4   2  12   11.35    4.47
   4  -2  12   15.57    4.35
   5  -2  12   44.30    6.43
   5  -2  12   41.67    6.70
   5   2  12   39.56    6.56
   5   2  12   53.58    7.85
   6   2  12   35.12    7.61
   6  -2  12   21.28    5.62
   6  -2  12   18.90    5.30
   6   2  12   21.48    5.94
  -9   3  12   22.82    6.16
  -8  -3  12    6.59    4.51
   8  -3 -12    4.68    3.66
  -8   3  12    3.50    3.80
  -8   3  12    4.84    4.23
  -7   3  12    2.20    3.51
  -7   3  12    3.19    3.71
   7  -3 -12   -0.13    2.96
  -7  -3  12   -1.91    3.46
  -6   3  12   12.33    4.41
  -6  -3  12   17.53    4.91
  -6   3  12   12.48    4.22
   6  -3 -12   18.89    4.10
   6  -3 -12   19.80    4.45
  -5  -3  12    8.41    3.63
   5  -3 -12    5.52    2.89
  -5   3  12    2.42    2.94
   5  -3 -12    6.46    2.98
  -5   3  12    6.74    3.39
   4   3 -12    4.06    3.10
   4  -3 -12    9.44    2.91
  -4  -3  12    9.04    3.48
  -4   3  12    8.82    3.55
   4  -3 -12    8.05    3.08
  -4   3  12   11.05    4.07
  -3  -3  12   95.93    6.35
  -3   3  12   75.69    7.92
  -3  -3  12   84.37    7.36
   3   3 -12   90.22    7.74
   3  -3 -12   92.65    6.67
   2   3 -12   78.08    7.09
  -2   3  12   67.77    6.03
  -2   3  12   74.53    7.75
  -2  -3  12   74.92    7.32
   2  -3 -12   73.19    6.03
  -2  -3  12   64.62    5.51
  -1  -3  12  102.46    7.90
   1   3 -12  105.76    8.28
  -1   3  12   96.91    6.81
  -1   3  12  104.34    8.35
  -1   3  12  106.59    8.12
  -1  -3  12  112.04    7.27
   0  -3  12    1.61    2.69
   0  -3  12    0.39    2.03
   0   3  12    2.13    2.07
   0   3 -12   -2.36    2.13
   0   3  12   -0.54    2.58
   0   3  12    2.18    3.06
   1   3  12   11.14    3.90
  -1   3 -12    9.73    3.80
   1  -3  12    9.79    3.25
   1   3  12    5.87    3.45
   1  -3  12    7.50    3.49
   2  -3  12    3.63    3.23
   2   3  12    1.43    3.05
   2   3  12    2.59    3.10
   2  -3  12    2.73    3.58
   2  -3  12    2.40    2.87
  -2   3 -12   -0.61    2.63
   3  -3  12   19.57    4.71
   3  -3  12   17.03    4.41
   3  -3  12   16.51    5.13
   3   3  12   13.14    4.36
   3   3  12   16.91    5.17
   4  -3  12   15.16    4.40
   4   3  12   13.36    5.12
   4   3  12   13.96    4.51
   4  -3  12   15.19    4.64
   5  -3  12    2.37    3.36
   5   3  12    7.04    4.70
   5   3  12    9.21    4.61
   6   3  12    1.16    3.91
  -8   4  12   31.58    6.92
   8  -4 -12   35.91    6.72
  -7   4  12   10.90    4.84
   7  -4 -12   12.33    4.42
  -7  -4  12   15.32    5.25
  -7   4  12   14.53    5.18
  -6  -4  12    5.42    3.98
  -6   4  12    8.47    3.96
  -6   4  12    5.42    3.86
   6  -4 -12    6.38    3.64
   5  -4 -12   46.66    6.14
  -5  -4  12   49.19    6.92
  -5   4  12   58.75    7.53
  -5   4  12   45.36    6.97
  -4   4  12   31.15    5.43
   4  -4 -12   51.18    6.20
  -4  -4  12   32.34    5.85
  -4   4  12   30.89    5.92
  -3  -4  12    6.61    3.29
  -3   4  12    7.72    4.01
   3   4 -12   14.01    4.33
  -3   4  12   14.55    3.92
   3  -4 -12   13.26    3.67
   2   4 -12   15.13    4.45
  -2   4  12   11.87    4.22
  -2  -4  12    8.37    3.52
  -2   4  12   14.48    3.62
  -2  -4  12   10.78    3.06
   2  -4 -12    8.22    3.40
   1  -4 -12   35.93    5.33
   1   4 -12   32.25    5.71
  -1   4  12   22.76    5.16
  -1  -4  12   29.51    5.30
  -1   4  12   32.26    4.56
  -1  -4  12   23.83    4.05
  -1   4  12   27.90    5.65
   0  -4  12   57.18    5.87
   0   4  12   58.27    7.41
   0   4 -12   58.06    7.40
   0   4  12   58.51    7.38
   0  -4  12   54.88    6.71
   1  -4  12    3.61    2.69
   1   4  12    0.62    2.99
   1  -4  12    2.89    3.10
   1   4  12   -3.56    2.71
  -1   4 -12   -1.02    2.70
   2  -4  12    0.93    2.87
   2  -4  12    4.17    3.31
   2   4  12    3.53    3.23
   2   4  12    0.62    3.40
   3   4  12    4.87    3.96
   3  -4  12    8.29    3.65
   3  -4  12   15.20    4.79
   3   4  12    3.62    3.51
   4  -4  12    8.49    4.05
   4   4  12    9.54    4.99
   4   4  12   16.75    5.33
   4  -4  12   18.77    5.26
   5   4  12   19.54    5.61
   5   4  12   10.59    5.43
   7  -5 -12   19.29    5.48
   6  -5 -12   11.87    4.70
  -6  -5  12   14.08    4.96
  -6   5  12   13.19    5.44
  -6   5  12   12.13    5.00
  -5   5  12    2.53    3.69
  -5   5  12    5.80    4.23
   5  -5 -12    6.75    4.12
  -5  -5  12    8.70    3.98
   4  -5 -12   11.71    4.21
  -4   5  12   14.68    4.79
  -4  -5  12   18.75    4.85
  -4   5  12    9.42    4.46
  -3   5  12    7.99    3.77
  -3   5  12   10.52    4.63
  -3  -5  12    9.15    4.14
   3  -5 -12    6.78    3.55
  -2  -5  12    7.93    3.96
  -2   5  12   15.45    5.13
  -2   5  12   10.54    3.95
   2  -5 -12   10.09    3.95
  -1   5  12   27.97    6.10
   1  -5 -12   29.37    5.30
  -1  -5  12   25.12    5.40
   0   5  12   45.34    7.40
   0  -5  12   40.50    5.40
   0   5  12   57.56    8.13
   0  -5  12   57.68    7.52
   1  -5  12  116.13    8.53
   1   5  12   96.10    9.57
   1   5  12  107.70   10.77
   1  -5  12  118.92    9.76
   2  -5  12   24.01    5.22
   2   5  12   15.85    5.32
   2  -5  12   24.59    5.53
   2   5  12   22.92    6.39
   3   5  12   10.63    5.17
   3  -5  12    3.68    3.42
   3   5  12    2.67    4.21
   3  -5  12    0.29    3.89
   4   5  12   19.52    5.40
   4  -5  12   15.47    5.18
   5  -6 -12   21.55    5.72
  -4   6  12   -0.07    3.60
  -4   6  12   -2.28    3.74
   4  -6 -12    6.45    4.43
  -4  -6  12   -1.28    3.08
  -3   6  12   13.03    4.57
   3  -6 -12   11.77    4.52
  -3  -6  12    8.86    3.95
  -3   6  12   21.42    6.13
  -2  -6  12   14.60    4.84
  -2   6  12   14.34    5.48
   2  -6 -12   16.51    4.90
  -1  -6  12   11.46    4.50
  -1   6  12   27.16    6.36
   1  -6 -12   21.46    5.33
   0  -6  12   57.09    7.93
   0  -6 -12   87.27    8.78
   0   6  12   72.61    9.07
   0   6  12   82.07   10.16
   1  -6  12   11.60    4.93
   1   6  12   22.72    6.11
   1   6  12   15.05    5.71
   2   6  12   24.49    6.74
   2  -6  12   16.03    4.80
   2   6  12   25.43    6.49
   3   6  12   23.38    6.25
   3  -6  12   16.48    5.21
  -1   7  12   26.57    6.98
   0   7  12   -2.78    4.02
   1   7  12   25.46    6.73
  -8   0  13  112.62   10.00
  -7   0  13   12.70    4.53
  -7   0  13   13.45    4.05
   6   0 -13   14.19    3.97
  -6   0  13   15.95    4.71
  -6   0  13    9.34    3.61
  -5   0  13   -0.36    2.96
  -5   0  13    5.56    3.04
   5   0 -13    0.20    2.25
  -4   0  13    3.55    2.77
  -4   0  13    5.18    3.35
   4   0 -13    3.54    2.58
   3   0 -13  103.22    7.27
  -3   0  13  115.43    8.03
  -3   0  13   91.22    7.84
  -2   0  13   34.58    5.38
   2   0 -13   43.76    4.89
  -2   0  13   39.83    5.32
  -1   0  13  461.55   18.55
   1   0 -13  455.08   17.73
  -1   0  13  430.46   18.51
  -1   0  13  471.39   16.29
   0   0  13   -1.27    2.15
   0   0 -13    1.90    2.11
   0   0  13    1.37    2.28
   0   0  13   -0.99    2.45
   1   0  13    2.01    2.49
   1   0  13   -0.35    2.35
   1   0  13    0.01    2.47
   2   0  13   71.07    6.68
   2   0  13   61.41    6.91
   3   0  13  113.56    9.03
   3   0  13  122.70    8.87
   4   0  13   24.41    5.31
   4   0  13   16.42    4.73
   5   0  13   -0.31    3.38
   5   0  13    0.18    3.73
   6   0  13    9.89    5.13
   6   0  13   14.43    5.07
  -8   1  13   39.63    7.13
  -8   1  13   55.09    7.22
  -8  -1  13   45.08    7.35
  -7  -1  13    2.04    3.55
  -7   1  13    2.67    3.50
  -7   1  13    3.47    3.39
   6  -1 -13    1.55    2.61
  -6   1  13   -2.53    2.44
  -6  -1  13    1.88    3.31
  -6  -1  13   -1.11    2.44
  -6   1  13   -0.33    2.93
   5   1 -13  116.48    8.72
  -5   1  13  122.01    9.12
  -5  -1  13  126.73    8.21
   5  -1 -13  127.70    8.60
  -5  -1  13  108.11    9.02
  -5   1  13  108.42    8.96
   4  -1 -13   35.33    3.89
   4   1 -13   30.77    4.89
  -4   1  13   34.68    5.66
  -4  -1  13   34.87    5.58
   4  -1 -13   38.47    4.90
  -4  -1  13   44.45    5.31
  -4   1  13   35.31    5.64
  -3   1  13  160.90   10.14
  -3   1  13  139.91    9.61
  -3  -1  13  151.96   10.03
   3   1 -13  167.96    9.84
  -3  -1  13  167.99    9.54
   3  -1 -13  165.76    7.82
   3  -1 -13  167.95    9.06
  -2   1  13   88.29    7.35
  -2   1  13   77.27    7.17
  -2  -1  13   78.91    6.96
   2  -1 -13   83.96    5.89
   2   1 -13   85.15    6.70
   2  -1 -13   82.83    5.52
  -2  -1  13   78.91    6.57
  -1  -1  13   28.95    4.62
   1   1 -13   22.68    4.06
   1  -1 -13   23.53    3.36
  -1   1  13   23.04    4.64
  -1  -1  13   22.44    4.46
  -1   1  13   25.64    4.09
  -1   1  13   32.94    4.81
   0  -1  13   25.62    4.50
   0   1 -13   27.83    4.33
   0   1  13   31.03    4.62
   0   1  13   22.19    4.59
   0   1  13   20.70    4.07
   0  -1  13   24.64    4.45
   1   1  13  120.70    8.99
   1  -1  13  141.90    9.20
   1  -1  13  131.30    8.43
  -1   1 -13  141.74    8.60
   1   1  13  134.12    8.61
   1   1  13  137.31    7.96
   2  -1  13   70.28    6.01
   2  -1  13   50.59    6.34
   2   1  13   76.87    7.46
   2  -1  13   74.75    6.35
   2  -1  13   58.49    6.69
   2   1  13   56.93    6.80
   3   1  13   19.34    4.70
   3  -1  13   24.13    4.69
   3  -1  13   19.36    4.55
   3   1  13   20.07    4.89
   4   1  13    5.88    4.01
   4  -1  13    7.04    3.83
   4  -1  13    9.08    3.73
   4   1  13    3.89    3.52
   5   1  13   31.44    6.62
   5   1  13   36.79    6.97
   5  -1  13   35.74    6.53
   5  -1  13   39.05    6.60
   6   1  13    6.61    5.01
   6  -1  13    6.32    4.75
   6   1  13    3.44    4.28
  -9   2  13   33.33    6.84
  -8   2  13    1.53    3.70
  -8   2  13    5.53    3.92
  -8  -2  13    1.61    3.99
  -7   2  13   30.34    6.02
  -7   2  13   22.49    5.57
  -7  -2  13   21.42    5.84
  -6   2  13   16.81    4.75
   6  -2 -13   12.12    3.87
  -6  -2  13   14.53    4.71
  -6   2  13   13.40    4.22
   5   2 -13   29.30    5.41
  -5   2  13   31.30    5.74
   5  -2 -13   35.18    4.53
  -5   2  13   44.88    6.73
  -5  -2  13   31.79    5.79
   5  -2 -13   49.61    5.70
   4  -2 -13   24.21    3.91
   4  -2 -13   22.80    3.94
  -4   2  13   15.85    4.21
  -4  -2  13   20.34    4.77
   4   2 -13   19.42    4.49
  -4  -2  13   26.25    4.21
  -4   2  13   18.49    4.89
  -3   2  13   26.97    4.86
  -3   2  13   23.97    4.90
  -3  -2  13   21.75    4.73
  -3  -2  13   25.73    4.27
   3  -2 -13   27.52    4.10
   3   2 -13   22.22    4.66
   2   2 -13  140.68    9.32
  -2  -2  13  137.33    8.44
  -2   2  13  141.03    9.67
  -2  -2  13  128.59    9.04
   2  -2 -13  140.81    8.01
   1   2 -13   35.14    5.32
  -1   2  13   35.91    5.72
  -1   2  13   32.25    5.04
  -1  -2  13   29.63    4.59
  -1   2  13   31.38    4.68
  -1  -2  13   28.04    5.05
   0  -2  13   73.75    6.47
   0  -2  13   87.02    7.05
   0   2  13   79.94    6.87
   0   2 -13   88.34    7.29
   0   2  13   61.94    7.04
   0   2  13   78.32    6.09
   1  -2  13   76.96    7.17
   1  -2  13   68.21    6.90
  -1   2 -13   75.51    6.88
   1   2  13   58.04    6.78
   1   2  13   52.56    6.80
   2  -2  13   14.64    3.97
   2  -2  13   17.72    4.76
   2   2  13   16.04    4.63
  -2   2 -13   19.15    4.34
   2   2  13   12.61    4.32
   2  -2  13   20.71    4.43
   3  -2  13   35.26    6.09
   3  -2  13   49.52    6.69
   3  -2  13   53.67    6.13
   3   2  13   34.76    6.07
   3   2  13   59.98    7.65
   4   2  13    3.19    3.87
   4  -2  13    4.24    3.40
   4   2  13    4.56    4.07
   5   2  13    7.37    4.19
   5   2  13   15.90    5.81
   5  -2  13   15.83    5.13
  -8   3  13    2.27    3.65
   7  -3 -13   42.28    6.07
  -7   3  13   39.37    7.31
  -7  -3  13   28.18    6.48
  -7   3  13   26.31    6.17
  -6  -3  13   16.47    4.90
   6  -3 -13   13.09    4.14
  -6   3  13   15.67    4.70
  -6   3  13   11.84    4.37
  -5  -3  13   55.42    7.43
   5  -3 -13   36.84    5.26
  -5   3  13   51.75    6.85
  -5   3  13   46.46    7.18
  -4   3  13   61.41    7.73
  -4   3  13   66.00    7.14
   4  -3 -13   54.29    5.78
  -4  -3  13   45.19    6.56
  -3  -3  13   40.63    6.21
   3  -3 -13   39.03    5.08
   3   3 -13   45.81    6.52
  -3   3  13   48.86    6.86
  -3  -3  13   47.90    5.13
  -3   3  13   32.31    5.37
  -2  -3  13    3.82    3.03
  -2   3  13    7.34    3.09
  -2   3  13    2.06    2.84
   2  -3 -13    4.10    2.80
  -2  -3  13    2.07    2.34
   2   3 -13    0.96    2.91
  -1   3  13   38.27    4.82
   1   3 -13   41.04    6.11
  -1  -3  13   40.43    6.06
  -1   3  13   40.91    6.24
  -1   3  13   44.47    6.61
  -1  -3  13   39.58    5.13
   0   3 -13   11.53    3.91
   0   3  13    7.75    3.78
   0   3  13    5.60    3.50
   0  -3  13    7.44    3.12
   0  -3  13    4.81    3.15
   1  -3  13   25.90    5.00
  -1   3 -13   21.66    4.83
   1   3  13   17.71    4.78
   1  -3  13   22.26    4.50
   1   3  13   26.70    5.56
   2   3  13   23.57    5.62
   2  -3  13   27.48    6.35
   2   3  13   26.14    5.54
  -2   3 -13   24.16    5.25
   2  -3  13   23.66    5.02
   2  -3  13   16.55    4.34
   3  -3  13   -0.52    2.94
   3   3  13   -4.34    2.56
   3   3  13    2.41    3.75
   3  -3  13    4.26    3.44
   4  -3  13    9.26    4.08
   4   3  13    9.61    4.48
   4   3  13   13.65    5.22
   5   3  13    9.94    4.97
   5  -3  13   10.89    4.61
   5   3  13   11.09    4.96
   8  -4 -13    4.73    4.68
   7  -4 -13   17.86    5.25
  -7  -4  13   13.67    5.53
  -7   4  13   12.44    5.03
  -7   4  13   14.65    5.40
  -6  -4  13   18.84    5.27
  -6   4  13   24.85    5.92
  -6   4  13   18.15    5.44
   6  -4 -13   23.50    5.28
  -5   4  13    6.73    3.84
  -5  -4  13   -0.36    3.06
  -5   4  13    3.97    3.42
   5  -4 -13    1.84    3.07
  -4   4  13   68.01    7.79
  -4   4  13   52.90    7.79
   4  -4 -13   74.79    7.34
  -4  -4  13   59.12    7.68
  -3   4  13    1.83    3.18
  -3   4  13    5.02    3.35
  -3  -4  13    6.24    3.48
   3  -4 -13    0.79    2.77
  -2  -4  13   78.23    8.32
  -2   4  13   75.37    8.40
  -2   4  13   86.51    7.23
   2  -4 -13   87.73    7.33
  -1   4  13   16.19    4.68
  -1  -4  13   12.80    4.23
  -1   4  13   18.88    5.08
   1  -4 -13   16.70    4.11
  -1  -4  13   13.05    3.66
   0  -4  13   21.67    4.95
   0   4  13   15.99    5.10
   0  -4  13   30.40    5.05
   0   4  13   19.16    5.12
   1  -4  13    1.02    3.23
   1   4  13    3.21    3.85
   1  -4  13    4.98    3.23
   1   4  13   -2.62    2.89
   2   4  13    3.86    3.78
   2   4  13    3.40    3.87
   2  -4  13    3.94    3.56
   2  -4  13    1.68    2.96
   3   4  13   11.98    5.39
   3  -4  13   12.18    4.33
   3   4  13   11.19    4.92
   3  -4  13   10.68    4.28
   4   4  13   48.20    8.71
   4  -4  13   46.30    7.34
   4   4  13   46.96    7.63
   5   4  13    2.48    4.61
   7  -5 -13   14.00    5.49
   6  -5 -13   52.82    7.56
  -5   5  13   50.18    7.90
  -5  -5  13   36.98    6.90
   5  -5 -13   56.08    7.53
  -5   5  13   55.82    8.47
  -4  -5  13   29.78    6.20
  -4   5  13   45.47    7.81
   4  -5 -13   40.68    6.64
  -4   5  13   36.23    6.56
   3  -5 -13   12.34    4.19
  -3  -5  13    7.62    3.96
  -3   5  13    6.52    4.29
  -3   5  13    5.60    4.12
   2  -5 -13   15.78    4.80
  -2  -5  13   23.08    5.60
  -2   5  13   13.40    5.11
   1  -5 -13    5.18    3.55
  -1  -5  13    3.42    3.70
  -1   5  13   -0.32    3.40
   0   5  13    6.97    4.59
   0   5  13   11.71    4.97
   0  -5  13    5.33    3.84
   1   5  13    4.22    4.29
   1   5  13   -2.50    3.37
   1  -5  13   -0.78    2.81
   1  -5  13    0.86    3.08
   2   5  13    8.15    5.02
   2   5  13    6.13    4.62
   2  -5  13    8.20    4.29
   2  -5  13    0.07    3.20
   3   5  13    7.83    5.16
   3   5  13   11.63    5.32
   3  -5  13    9.28    4.40
   4   5  13   -1.12    4.11
   4  -6 -13    7.56    4.71
  -3   6  13    6.02    4.84
  -3  -6  13    3.35    3.89
   3  -6 -13    0.42    3.79
  -2  -6  13    1.98    3.46
   2  -6 -13    4.07    4.09
  -2   6  13   -1.10    4.09
  -1  -6  13   48.97    7.69
   1  -6 -13   62.75    8.06
  -1   6  13   60.52    8.90
   0   6  13    6.91    5.14
   0  -6 -13    3.69    3.79
   0   6  13    0.50    4.03
   1   6  13   79.10   10.17
   2   6  13   50.39    8.83
  -8   0  14    3.52    4.13
  -7   0  14   18.22    5.21
  -7   0  14   29.85    5.56
  -6   0  14    5.14    3.32
  -6   0  14    1.08    3.77
  -5   0  14   -2.65    2.66
  -5   0  14    0.20    2.67
   5   0 -14   -1.33    2.41
  -4   0  14  137.85   10.03
  -4   0  14  149.70    9.81
   4   0 -14  132.45    8.99
  -3   0  14  106.98    8.27
   3   0 -14  128.97    8.36
  -3   0  14  128.79    9.48
  -2   0  14  114.82    8.70
   2   0 -14  109.98    7.52
  -2   0  14  120.88    8.64
   1   0 -14   19.63    3.76
  -1   0  14   20.26    4.52
  -1   0  14   14.63    4.08
   0   0  14   13.49    3.97
   0   0  14    2.21    2.72
   1   0  14   88.16    6.85
   1   0  14   76.29    6.82
   1   0  14   81.92    7.91
   2   0  14   11.20    4.00
   2   0  14    9.95    3.93
   3   0  14   63.09    7.17
   3   0  14   51.52    7.00
   4   0  14    5.12    4.23
   4   0  14    1.42    3.57
   5   0  14   -0.46    3.81
   5   0  14    2.35    4.28
   6   0  14    3.13    4.84
  -8  -1  14    0.91    3.95
  -8   1  14    4.36    4.14
  -8   1  14    4.17    3.62
  -7  -1  14   37.65    6.94
  -7   1  14   48.45    7.57
  -7   1  14   42.73    6.80
  -6  -1  14    9.25    4.66
  -6   1  14    7.82    4.07
   6  -1 -14   16.72    4.47
  -6   1  14    5.65    3.82
   5   1 -14    4.92    3.20
  -5   1  14    4.60    3.63
   5  -1 -14    5.42    3.00
  -5  -1  14    8.39    4.15
  -5  -1  14    0.67    2.73
  -5   1  14    4.64    3.45
  -4   1  14   18.86    4.91
  -4  -1  14   20.60    4.58
  -4   1  14   22.24    5.16
   4  -1 -14   25.52    4.44
   4   1 -14   21.94    4.54
  -4  -1  14    6.86    3.84
  -3  -1  14   -2.59    2.66
  -3  -1  14    2.60    2.66
  -3   1  14   -1.13    2.75
  -3   1  14    3.26    3.02
   3   1 -14    0.61    2.46
   3  -1 -14    0.05    2.05
  -2   1  14   51.93    6.63
   2   1 -14   55.01    6.00
  -2  -1  14   65.24    6.69
  -2  -1  14   59.44    6.73
  -2   1  14   53.08    6.36
  -1  -1  14  115.71    8.39
  -1  -1  14  115.77    8.63
  -1   1  14  113.18    8.22
  -1   1  14  124.19    7.88
   1   1 -14  120.57    8.33
  -1   1  14  106.12    8.55
   0  -1  14  142.77    9.32
   0   1  14  135.75    9.80
   0   1  14  135.90    8.69
   0   1  14  141.74    8.88
   0  -1  14  138.29    9.37
   0   1 -14  142.07    9.02
   1  -1  14   70.33    7.39
   1   1  14   98.03    8.32
   1  -1  14   89.83    7.19
   1   1  14  101.60    7.82
  -1   1 -14   92.67    7.26
   2  -1  14   17.82    4.79
   2   1  14   13.08    4.53
   2  -1  14   10.17    3.53
   2   1  14   10.11    3.83
   3   1  14   84.46    8.94
   3  -1  14   67.44    7.80
   3   1  14   72.17    7.96
   4   1  14    4.92    3.68
   4  -1  14    8.41    4.13
   4   1  14   15.93    5.30
   5   1  14    6.44    4.57
   5   1  14   20.04    6.05
  -9   2  14   43.37    7.97
  -8   2  14   34.61    6.89
  -7  -2  14   96.64   10.18
  -7   2  14   99.36    9.89
  -7   2  14   98.31   10.05
  -6  -2  14   25.39    6.16
   6  -2 -14   16.73    4.40
  -6   2  14   23.99    5.73
  -6   2  14   13.80    4.48
  -5  -2  14    1.75    3.42
  -5   2  14    3.60    3.40
  -5   2  14   -4.18    2.55
  -4  -2  14   23.46    5.39
   4  -2 -14   20.70    3.82
  -4   2  14   22.68    5.35
  -4   2  14   15.50    4.26
  -4  -2  14   16.11    3.94
   4   2 -14   24.27    5.07
  -3   2  14   51.74    6.98
  -3   2  14   53.61    6.48
  -3  -2  14   44.10    5.55
  -3  -2  14   44.12    6.49
   3   2 -14   54.74    6.58
   3  -2 -14   49.50    5.11
  -2  -2  14   49.06    5.80
  -2   2  14   42.90    5.64
  -2  -2  14   37.33    6.00
   2   2 -14   42.44    5.97
  -2   2  14   47.70    6.76
   2  -2 -14   55.78    5.54
  -1  -2  14   24.08    4.60
  -1   2  14   16.34    4.32
  -1   2  14   24.24    4.52
  -1   2  14   14.82    4.41
  -1  -2  14   26.38    5.00
   1   2 -14   21.67    4.60
   0  -2  14   23.14    4.88
   0   2  14   23.07    5.02
   0  -2  14   18.20    4.32
   0   2 -14   22.57    4.60
   0   2  14   21.52    5.07
   1  -2  14    3.42    3.05
  -1   2 -14    3.52    2.99
   1   2  14    7.24    3.61
   1   2  14    8.17    4.00
   1  -2  14    8.12    3.46
   2  -2  14   37.47    6.55
   2  -2  14   42.38    6.04
   2   2  14   41.35    6.82
   2   2  14   46.31    7.05
   2  -2  14   28.53    5.51
  -2   2 -14   37.19    5.77
   3  -2  14   13.39    4.25
   3   2  14   10.23    4.43
   3   2  14    6.38    4.48
   4   2  14   45.65    7.82
   4  -2  14   30.71    5.99
   4   2  14   40.52    7.15
   5   2  14   46.08    8.36
  -7  -3  14   39.74    7.86
  -7   3  14   40.21    7.58
  -7   3  14   44.18    8.00
  -6   3  14    8.49    4.66
  -6   3  14    7.09    4.16
  -6  -3  14    9.00    4.52
   5  -3 -14  134.19    8.82
  -5  -3  14  125.92   10.26
  -5   3  14  123.37   10.42
  -4  -3  14    2.37    3.30
   4  -3 -14    1.62    2.88
  -4   3  14    0.88    2.97
  -4   3  14    2.44    3.60
  -3   3  14   66.23    8.18
   3  -3 -14   79.43    7.04
  -3   3  14   70.73    7.38
  -3  -3  14   58.50    7.47
   2   3 -14   36.57    6.13
  -2   3  14   44.32    5.80
  -2  -3  14   40.03    5.33
  -2   3  14   36.48    6.27
   2  -3 -14   38.39    5.35
  -2  -3  14   40.38    6.38
  -1   3  14   14.24    4.50
   1  -3 -14   19.52    4.29
   1   3 -14   13.36    4.28
  -1  -3  14   17.41    4.62
  -1   3  14   10.98    4.33
  -1   3  14   10.72    3.40
  -1  -3  14    9.65    3.41
   0  -3  14   38.49    6.09
   0   3  14   53.08    7.23
   0   3  14   64.11    7.97
   0   3 -14   49.56    6.89
   0  -3  14   49.77    6.11
   1  -3  14    4.40    3.15
   1   3  14   13.87    4.64
   1   3  14    7.09    3.79
   1  -3  14   14.96    4.41
   2  -3  14   17.99    4.80
   2   3  14    9.38    4.61
   2  -3  14    8.73    3.68
   2   3  14   14.11    4.79
   3   3  14   12.86    5.16
   3  -3  14    9.47    4.16
   3   3  14    9.86    4.70
   3  -3  14    9.98    4.23
   4   3  14   -4.13    3.52
   4   3  14    4.80    4.10
   4  -3  14    0.45    3.48
   7  -4 -14   26.97    6.10
  -6  -4  14   21.85    6.07
   6  -4 -14   21.65    5.35
  -6   4  14   16.96    5.52
  -6   4  14   25.03    6.04
   5  -4 -14   50.54    6.64
  -5   4  14   53.10    7.68
  -5   4  14   65.03    8.93
  -5  -4  14   52.03    7.90
  -4   4  14   40.17    6.49
   4  -4 -14   47.25    6.42
  -4  -4  14   33.31    6.47
  -4   4  14   44.32    7.62
   3  -4 -14   22.21    5.04
  -3   4  14   17.06    4.59
  -3   4  14    9.37    4.45
  -3  -4  14   16.55    5.01
  -2  -4  14   16.41    4.72
  -2   4  14   13.77    3.86
  -2   4  14   21.93    5.59
   2  -4 -14   15.60    4.48
  -1   4  14    1.26    3.42
   1  -4 -14    0.62    2.90
  -1   4  14   -1.17    3.17
  -1  -4  14    0.43    3.34
  -1  -4  14    6.09    3.31
   0  -4  14    3.55    3.13
   0  -4  14    3.16    3.42
   0   4  14   -2.30    3.35
   0   4  14   -2.38    3.03
   1   4  14   11.58    4.94
   1  -4  14   16.32    4.55
   1  -4  14   17.99    5.25
   1   4  14    8.55    4.42
   2   4  14   24.91    6.09
   2  -4  14   36.42    6.16
   2  -4  14   20.04    5.31
   2   4  14   48.66    8.33
   3   4  14   37.24    7.79
   3  -4  14   35.17    6.84
   6  -5 -14   12.21    5.00
   5  -5 -14   34.28    6.70
   4  -5 -14   24.18    5.66
  -4  -5  14   25.40    6.37
  -4   5  14   27.32    6.71
  -4   5  14   23.81    5.98
  -3   5  14    3.74    3.49
   3  -5 -14    0.02    3.58
  -3   5  14    8.56    5.00
  -3  -5  14    1.58    3.48
   2  -5 -14    3.42    3.78
  -2  -5  14    3.70    4.07
  -2   5  14   10.07    5.03
  -1   5  14   39.65    7.61
   1  -5 -14   34.57    6.10
  -1  -5  14   23.91    5.92
   0  -5  14   11.73    5.00
   0   5  14    4.54    4.37
   0   5  14   12.22    5.20
   1  -5  14    0.32    3.37
   1  -5  14    6.11    3.88
   1   5  14    3.43    4.64
   1   5  14    3.87    4.31
   2  -5  14   21.70    5.63
   2   5  14   14.18    5.98
  -7   0  15    3.82    4.14
  -6   0  15    1.26    3.61
  -6   0  15    5.18    3.63
  -5   0  15   -0.53    3.29
  -5   0  15   -0.58    2.95
   5   0 -15   -1.09    2.50
  -4   0  15   87.57    8.39
  -4   0  15   74.33    8.33
   4   0 -15   89.73    7.57
   3   0 -15  136.83    9.07
  -3   0  15  127.42    9.45
  -3   0  15  119.72    9.45
  -2   0  15   45.28    6.62
   2   0 -15   50.09    5.67
  -2   0  15   30.14    5.35
  -1   0  15   -3.33    2.77
  -1   0  15    3.10    3.05
   0   0  15   68.54    7.67
   0   0  15   54.73    6.51
   1   0  15    1.62    2.92
   2   0  15   15.77    4.70
   3   0  15   34.61    6.65
   4   0  15   31.58    6.84
  -7   1  15   11.39    5.04
  -7   1  15   25.05    5.77
  -7  -1  15   19.70    5.82
  -6   1  15   12.26    4.47
  -6  -1  15    9.28    4.59
  -6   1  15    6.31    4.32
  -5   1  15   25.43    5.54
   5  -1 -15   25.34    4.96
  -5  -1  15   20.18    4.80
  -5  -1  15   17.24    5.25
  -5   1  15   14.43    5.04
  -4   1  15   62.97    7.93
  -4   1  15   67.71    7.94
   4   1 -15   63.80    7.13
  -4  -1  15   59.40    7.02
  -4  -1  15   59.66    7.81
  -3   1  15   27.79    5.55
  -3   1  15   33.88    5.90
   3   1 -15   31.64    5.38
  -3  -1  15   54.66    7.07
  -3  -1  15   33.75    5.56
   2   1 -15   -0.77    2.55
  -2   1  15    2.73    3.18
  -2  -1  15    1.46    3.13
  -2   1  15    3.28    3.10
  -2  -1  15   -1.75    2.42
  -1  -1  15   16.57    4.57
   1   1 -15   15.94    4.15
  -1   1  15   14.81    4.21
  -1  -1  15   17.66    4.28
  -1   1  15   12.25    4.21
   0   1  15   46.96    6.88
   0  -1  15   52.00    6.64
   0   1  15   51.94    6.04
   0  -1  15   50.27    6.68
   1  -1  15    7.12    3.58
   1  -1  15    0.49    2.73
   1   1  15    5.21    3.50
   1   1  15    8.42    3.71
   2  -1  15   29.89    5.73
   2   1  15   32.11    6.36
   2   1  15   30.58    5.86
   3   1  15   24.27    5.90
   3  -1  15   27.61    5.75
   3   1  15   20.65    5.66
   4  -1  15   89.33    9.84
   4   1  15   73.62    9.19
   4   1  15   83.85    9.90
   5   1  15    4.69    5.06
  -8   2  15   24.03    6.29
  -7  -2  15   10.03    5.25
  -7   2  15   21.81    5.83
  -7   2  15   25.07    6.17
  -6   2  15   26.21    6.30
  -6  -2  15   22.48    5.97
  -6   2  15   13.95    4.85
  -5   2  15   31.22    6.41
  -5  -2  15   28.19    6.34
  -5   2  15   23.73    5.90
  -4   2  15   14.42    4.68
  -4  -2  15   16.51    4.99
  -4  -2  15    5.92    3.30
  -4   2  15   14.94    4.62
  -3   2  15    5.21    3.60
  -3  -2  15   12.62    3.82
  -3  -2  15   10.02    4.24
   3   2 -15    5.17    3.47
  -3   2  15   12.52    4.42
  -2  -2  15    5.66    3.55
  -2   2  15    4.15    3.42
   2   2 -15    1.66    3.09
  -2   2  15    1.14    2.98
  -2  -2  15    9.68    3.49
  -1   2  15   41.45    5.94
   1   2 -15   33.40    5.77
  -1  -2  15   34.19    5.52
  -1   2  15   30.21    6.00
  -1   2  15   35.24    5.29
   1  -2 -15   38.60    5.10
  -1  -2  15   36.08    6.10
   0   2  15   89.76    8.39
   0  -2  15   92.57    7.95
   0   2 -15   95.58    8.27
   0  -2  15   77.28    8.05
   0   2  15   76.72    8.48
   1  -2  15   11.03    4.01
  -1   2 -15   13.05    4.25
   1   2  15    9.72    4.27
   1  -2  15   12.54    4.15
   1   2  15   16.13    4.97
   2  -2  15   44.59    6.70
   2  -2  15   42.70    6.11
   2   2  15   70.83    8.63
   2   2  15   69.72    8.14
   3   2  15   21.28    6.12
   3   2  15   17.47    5.57
   3  -2  15    4.39    3.58
   4   2  15   29.15    7.17
  -7   3  15   57.31    8.97
  -6   3  15   27.49    6.77
  -6   3  15   14.84    4.97
  -6  -3  15   16.74    5.57
  -5   3  15   55.35    8.46
  -5   3  15   38.97    6.72
  -5  -3  15   34.95    6.70
   4  -3 -15   14.01    4.08
  -4   3  15   21.74    5.90
  -4   3  15   14.43    4.63
  -4  -3  15   11.85    4.85
  -3   3  15    3.48    3.14
   3  -3 -15    0.61    2.78
  -3   3  15    0.45    2.87
  -3  -3  15    1.80    3.23
  -2  -3  15    5.07    3.87
  -2   3  15    6.51    3.99
   2  -3 -15    4.65    3.39
  -2   3  15    5.64    3.31
  -2  -3  15    2.84    2.89
  -1  -3  15    7.70    3.94
  -1   3  15    7.08    4.11
  -1  -3  15    9.61    3.69
  -1   3  15    7.89    4.40
   1  -3 -15    9.51    3.76
   0   3  15    0.59    3.67
   0  -3  15    4.10    3.24
   0  -3  15    1.83    3.37
   0   3  15    2.19    3.58
   1  -3  15   -1.36    2.80
   1  -3  15    1.50    3.53
   1   3  15    2.41    4.01
   1   3  15    2.31    3.68
   2  -3  15   16.73    4.98
   2   3  15   20.98    5.80
   2  -3  15   22.17    5.31
   2   3  15   26.56    6.25
   3  -3  15    3.84    3.67
   3   3  15    2.45    4.48
   3   3  15    5.18    4.42
  -5   4  15   47.90    7.92
  -5   4  15   60.72    8.99
   5  -4 -15   54.44    7.01
  -5  -4  15   55.00    8.43
  -4  -4  15   10.93    4.70
   4  -4 -15    7.13    3.82
  -4   4  15    8.64    4.63
  -4   4  15    9.61    4.35
  -3  -4  15   10.20    4.54
  -3   4  15   11.06    4.09
   3  -4 -15   14.72    4.29
  -3   4  15   13.86    5.00
   2  -4 -15    2.86    3.33
  -2   4  15    0.29    3.34
  -2  -4  15   -2.08    3.12
   1  -4 -15    7.80    4.12
  -1   4  15    1.15    4.00
  -1  -4  15    7.17    4.01
   0  -4  15   11.86    4.69
   0   4  15    7.53    4.69
   0  -4  15    5.17    3.70
   0   4  15    7.85    4.62
   1  -4  15    1.55    3.39
   1  -4  15    2.41    3.89
   1   4  15    2.34    4.03
   1   4  15    1.52    4.34
   2   4  15  104.48   11.18
   2  -4  15   75.60    8.73
   2   4  15   85.67   10.30
   5  -5 -15   54.18    8.11
   3  -5 -15    3.04    3.99
  -2   5  15   18.04    5.97
   2  -5 -15   21.29    5.66
  -1   5  15    5.11    4.60
   1  -5 -15   -3.13    3.51
   0  -5 -15    3.93    4.17
   0   5  15   -1.27    4.14
   0   5  15    2.47    4.47
  -6   0  16   31.99    6.94
  -6   0  16   46.72    7.24
  -5   0  16    2.39    3.70
  -5   0  16   -0.19    3.57
  -4   0  16    6.30    3.87
  -4   0  16    3.09    3.87
  -3   0  16    4.03    3.82
  -3   0  16    4.36    3.59
  -2   0  16   40.30    6.54
  -2   0  16   20.07    5.52
  -1   0  16    9.68    4.38
  -1   0  16    9.24    4.01
   0   0  16  157.49   11.04
   0   0  16  127.11    9.63
   1   0  16   10.35    4.39
   2   0  16    1.22    3.20
   3   0  16   20.59    5.55
  -7   1  16   22.40    6.18
  -6   1  16   12.48    4.83
  -6  -1  16   11.94    5.23
  -6   1  16    7.79    5.06
  -5  -1  16   59.54    7.32
  -5  -1  16   46.20    7.67
  -5   1  16   73.26    8.82
  -5   1  16   58.28    7.76
  -4  -1  16  114.61   10.55
  -4   1  16  116.54   10.48
  -4   1  16   66.89    8.22
  -4  -1  16   99.63    8.54
  -3   1  16   15.58    4.97
  -3  -1  16    9.94    4.10
  -3   1  16   18.59    5.17
  -3  -1  16   18.00    5.28
   3   1 -16   12.78    4.15
  -2   1  16    6.82    3.95
   2   1 -16    9.66    3.83
  -2   1  16    7.03    4.04
  -2  -1  16   10.26    4.44
  -2  -1  16    6.61    3.33
  -1   1  16    6.00    3.67
  -1  -1  16   15.06    4.52
  -1   1  16   13.26    4.61
  -1  -1  16   18.20    5.03
   0  -1  16   52.23    7.17
   0   1  16   71.68    8.42
   0  -1  16   70.11    7.80
   1   1  16   45.91    7.24
   1  -1  16   45.65    7.10
   2   1  16    7.03    4.24
   2  -1  16    4.23    3.73
   3   1  16    4.83    4.19
   3  -1  16    6.92    3.91
  -7   2  16   30.87    6.79
  -6   2  16   34.15    6.78
  -6   2  16   48.14    7.75
  -6  -2  16   36.10    7.30
  -5  -2  16   11.76    5.03
  -5   2  16    6.91    4.15
  -5   2  16    4.80    4.20
  -4   2  16   40.47    6.98
  -4  -2  16   41.10    7.21
  -4   2  16   28.14    6.43
  -3  -2  16    4.31    3.98
  -3  -2  16   13.93    4.21
  -3   2  16    8.98    4.45
  -3   2  16    8.36    4.26
  -2  -2  16    1.98    3.11
  -2  -2  16   -1.71    3.05
  -2   2  16   -0.09    3.15
  -2   2  16    6.35    4.05
  -1  -2  16    5.09    3.45
  -1  -2  16   -0.01    3.31
  -1   2  16   -1.91    2.89
   0  -2  16   16.96    4.96
   0   2  16   16.51    4.87
   0  -2  16   22.08    5.27
   1   2  16   34.92    6.88
   1  -2  16   22.51    5.48
   1  -2  16   23.41    5.32
   2   2  16   14.34    5.25
   2  -2  16   25.84    5.73
   2   2  16   28.67    6.71
   3   2  16   33.62    7.04
  -5   3  16    4.30    4.13
  -5  -3  16    1.43    4.02
  -5   3  16    2.68    4.12
  -4   3  16   38.33    6.64
  -4  -3  16   38.90    7.30
  -4   3  16   51.07    7.98
  -3   3  16   14.07    4.48
  -3  -3  16    9.54    4.59
  -3   3  16   10.78    4.83
  -2  -3  16    6.44    3.90
  -2  -3  16    4.57    3.54
  -2   3  16    1.52    3.71
  -1   3  16    2.68    3.81
  -1  -3  16    3.05    3.65
  -1  -3  16    2.44    3.28
   1  -3 -16    5.60    3.53
   0   3  16   17.54    5.64
   0  -3  16    6.97    4.16
   0  -3  16   14.78    4.42
   0   3  16   12.18    5.06
   1  -3  16   31.08    6.41
   1  -3  16   26.35    5.59
   1   3  16   31.81    6.92
   1   3  16   24.10    6.31
   2  -3  16   19.81    5.59
   2   3  16   38.87    7.59
   3   3  16   43.20    8.60
  -3  -4  16   24.23    6.14
  -3   4  16   18.74    5.89
   3  -4 -16   22.50    5.42
   2  -4 -16   15.21    4.82
  -2  -4  16   21.43    5.96
  -2   4  16   19.96    6.04
  -1  -4  16   12.22    4.95
  -1   4  16   17.72    6.02
   1  -4 -16   23.09    5.68
   0   4  16   32.72    7.26
   0   4  16   37.58    7.81
   0  -4  16   23.99    5.77
   1  -4  16   -1.96    3.41
   1   4  16    1.26    4.61
   4  -5 -16   -3.04    4.04
   2  -5 -16   86.35    9.12
   1  -5 -16   17.43    5.58
  -5   0  17   28.15    6.19
  -5   0  17   22.13    6.31
  -4   0  17  153.59   11.56
  -3   0  17   18.50    5.07
  -3   0  17   11.99    5.10
  -2   0  17   -1.92    3.50
  -2   0  17    2.14    3.48
  -1   0  17  122.03   10.16
  -1   0  17  141.27   10.86
   0   0  17   25.31    5.88
   1   0  17    2.04    3.30
  -7   1  17    1.78    4.45
  -6   1  17   34.13    7.26
  -5  -1  17   -3.58    3.98
  -5   1  17   -0.46    3.85
  -5   1  17    3.01    3.90
  -4   1  17    9.08    4.83
  -4  -1  17    8.52    4.27
  -4   1  17   20.03    6.01
  -4  -1  17   21.40    6.31
  -3   1  17   19.13    5.74
  -3  -1  17   19.95    5.39
  -3   1  17   21.76    5.90
  -3  -1  17   22.43    6.10
  -2   1  17   24.84    6.00
  -2   1  17   28.22    6.21
  -2  -1  17   20.00    5.30
  -2  -1  17   15.13    5.16
  -1   1  17   13.42    4.79
  -1  -1  17   10.90    4.68
  -1  -1  17    4.69    4.32
   0   1  17   20.32    5.38
   0  -1  17   16.33    5.31
   0  -1  17   24.82    5.82
   1   1  17    9.48    4.44
   1  -1  17    8.29    4.13
  -6   2  17   18.80    5.96
  -5   2  17    9.36    5.18
  -4  -2  17   68.57    8.95
  -4   2  17   68.63    8.55
  -4   2  17   86.49   10.06
  -3   2  17    5.33    4.51
  -3  -2  17   17.05    5.53
  -3  -2  17   15.40    4.86
  -3   2  17   12.08    4.88
  -2  -2  17   52.78    7.96
  -2   2  17   74.75    9.31
  -2   2  17   48.84    6.93
  -2  -2  17   58.11    7.43
  -1  -2  17    0.79    3.85
  -1  -2  17    0.32    3.29
  -1   2  17   -2.71    3.06
   0  -2  17    1.94    3.20
   0   2  17   -2.52    3.12
   0  -2  17    2.67    4.11
   1  -2  17   13.70    5.00
  -3   3  17   13.78    5.70
  -2   3  17   14.76    5.52
  -2  -3  17   10.50    4.84
  -1  -3  17    0.40    3.57
   0  -3  17   19.37    5.58
   1  -3  17   -0.98    3.43
   0   4  17    9.62    5.89
   0  -4 -17   19.55    5.87
  -5   0  18    2.50    4.15
  -4   0  18   23.62    6.08
  -3   0  18    2.90    4.40
  -3   0  18    1.74    3.92
  -2   0  18   51.86    7.71
  -2   0  18   60.86    8.40
  -1   0  18   46.96    7.59
   0   0  18    7.80    4.54
  -5   1  18   21.95    5.90
  -4   1  18   16.42    5.71
  -4  -1  18   16.27    5.48
  -3   1  18   69.43    9.14
  -3  -1  18   65.15    8.37
  -2  -1  18   30.79    6.38
  -2   1  18   46.03    8.16
  -1  -1  18    0.12    3.49
  -1   1  18    9.78    4.80
   0  -1  18   25.26    5.87
  -2  -2  18    6.20    4.22
  -1  -2  18    5.43    4.05
   0  -2  18    3.25    3.95
  -1  -3  18    5.24    4.19
  -3  -1  19    7.39    4.85
   0   0   0    0.00    0.00
;
_shelx_hkl_checksum              75706
loop_
_space_group_symop_operation_xyz
'x, y, z'
'-x, y+1/2, -z'
loop_
_atom_site_label
_atom_site_type_symbol
_atom_site_fract_x
_atom_site_fract_y
_atom_site_fract_z
_atom_site_U_iso_or_equiv
_atom_site_adp_type
_atom_site_occupancy
_atom_site_site_symmetry_order
_atom_site_calc_flag
_atom_site_refinement_flags_posn
_atom_site_refinement_flags_adp
C1 C 0.7722(2) -0.0273(3) 0.67391(14) 0.0238(4) Uani 1 1 d . .
H1 H 0.773333 -0.163930 0.704440 0.029 Uiso 1 1 calc R U
C2 C 0.8522(2) 0.1336(3) 0.75195(14) 0.0253(4) Uani 1 1 d . .
H2A H 0.786212 0.142753 0.805325 0.030 Uiso 1 1 calc R U
H2B H 0.969161 0.094317 0.782575 0.030 Uiso 1 1 calc R U
C3 C 0.8527(2) 0.3388(3) 0.70000(15) 0.0240(4) Uani 1 1 d . .
C4 C 0.6835(2) 0.3963(3) 0.63139(15) 0.0252(4) Uani 1 1 d . .
H4A H 0.700298 0.513196 0.589780 0.030 Uiso 1 1 calc R U
H4B H 0.600234 0.434051 0.672142 0.030 Uiso 1 1 calc R U
C5 C 0.6162(2) 0.2142(3) 0.56352(14) 0.0241(4) Uani 1 1 d . .
H5 H 0.507885 0.247407 0.516790 0.029 Uiso 1 1 calc R U
C6 C 0.8551(3) -0.0288(3) 0.57960(15) 0.0282(4) Uani 1 1 d . .
H6A H 0.846526 -0.163786 0.548656 0.034 Uiso 1 1 calc R U
H6B H 0.975595 0.009809 0.597623 0.034 Uiso 1 1 calc R U
C7 C 0.7516(2) 0.1304(3) 0.50641(15) 0.0277(4) Uani 1 1 d . .
H7A H 0.826218 0.239526 0.491714 0.033 Uiso 1 1 calc R U
H7B H 0.696616 0.066080 0.443078 0.033 Uiso 1 1 calc R U
C8 C 1.0144(3) 0.4217(3) 0.68020(16) 0.0319(5) Uani 1 1 d . .
H8A H 1.117015 0.337586 0.698174 0.038 Uiso 1 1 calc R U
H8B H 1.009055 0.505990 0.620143 0.038 Uiso 1 1 calc R U
C9 C 0.4510(2) 0.0041(3) 0.66261(14) 0.0234(4) Uani 1 1 d . .
C10 C 0.3269(3) -0.1982(3) 0.77611(16) 0.0323(5) Uani 1 1 d . .
H10A H 0.338685 -0.340411 0.797563 0.039 Uiso 1 1 calc R U
H10B H 0.225532 -0.187676 0.722193 0.039 Uiso 1 1 calc R U
C11 C 0.3009(2) -0.0682(3) 0.86431(15) 0.0273(5) Uani 1 1 d . .
C12 C 0.3699(3) 0.1258(4) 0.88202(16) 0.0331(5) Uani 1 1 d . .
H12 H 0.436740 0.180069 0.838862 0.040 Uiso 1 1 calc R U
C13 C 0.3403(3) 0.2405(4) 0.96379(17) 0.0437(6) Uani 1 1 d . .
H13 H 0.387463 0.370971 0.975644 0.052 Uiso 1 1 calc R U
C14 C 0.2401(3) 0.1598(5) 1.02767(18) 0.0497(7) Uani 1 1 d . .
H14 H 0.220446 0.235715 1.082849 0.060 Uiso 1 1 calc R U
C15 C 0.1696(3) -0.0327(5) 1.00954(17) 0.0454(7) Uani 1 1 d . .
H15 H 0.101403 -0.086062 1.052172 0.055 Uiso 1 1 calc R U
C16 C 0.1996(3) -0.1473(4) 0.92809(15) 0.0340(5) Uani 1 1 d . .
H16 H 0.151755 -0.277437 0.916169 0.041 Uiso 1 1 calc R U
N1 N 0.59596(19) 0.0392(2) 0.62848(12) 0.0230(4) Uani 1 1 d . .
O1 O 0.94036(19) 0.5030(2) 0.76171(10) 0.0340(4) Uani 1 1 d . .
O2 O 0.31283(16) 0.0863(2) 0.62991(10) 0.0323(4) Uani 1 1 d . .
O3 O 0.47664(17) -0.1396(2) 0.73660(10) 0.0300(3) Uani 1 1 d . .
loop_
_atom_site_aniso_label
_atom_site_aniso_U_11
_atom_site_aniso_U_22
_atom_site_aniso_U_33
_atom_site_aniso_U_23
_atom_site_aniso_U_13
_atom_site_aniso_U_12
C1 0.0216(9) 0.0184(9) 0.0315(10) 0.0040(9) 0.0059(8) 0.0023(8)
C2 0.0226(9) 0.0248(10) 0.0272(10) 0.0045(9) 0.0022(8) 0.0029(8)
C3 0.0250(10) 0.0215(10) 0.0248(10) -0.0034(8) 0.0035(8) 0.0009(8)
C4 0.0270(10) 0.0204(10) 0.0291(10) 0.0029(8) 0.0079(8) 0.0022(8)
C5 0.0233(10) 0.0246(10) 0.0237(10) 0.0043(8) 0.0026(8) 0.0005(8)
C6 0.0259(10) 0.0230(10) 0.0374(11) -0.0029(9) 0.0106(9) -0.0005(8)
C7 0.0285(10) 0.0296(11) 0.0261(10) -0.0027(9) 0.0084(8) -0.0043(9)
C8 0.0296(11) 0.0291(11) 0.0375(11) -0.0029(10) 0.0081(9) -0.0044(9)
C9 0.0242(10) 0.0226(10) 0.0236(9) -0.0050(8) 0.0051(7) -0.0026(8)
C10 0.0324(12) 0.0319(12) 0.0363(12) -0.0016(10) 0.0159(9) -0.0106(9)
C11 0.0215(9) 0.0338(12) 0.0255(10) 0.0042(9) 0.0018(8) 0.0015(8)
C12 0.0290(11) 0.0374(12) 0.0317(11) 0.0001(10) 0.0033(9) -0.0024(10)
C13 0.0420(13) 0.0439(14) 0.0407(13) -0.0130(12) -0.0028(11) 0.0016(12)
C14 0.0480(14) 0.0686(19) 0.0313(13) -0.0118(13) 0.0055(11) 0.0156(14)
C15 0.0425(13) 0.0662(19) 0.0300(12) 0.0079(13) 0.0127(10) 0.0100(13)
C16 0.0285(11) 0.0423(13) 0.0311(11) 0.0073(10) 0.0059(9) 0.0011(10)
N1 0.0204(8) 0.0220(8) 0.0267(8) 0.0040(7) 0.0050(6) -0.0003(6)
O1 0.0368(8) 0.0285(8) 0.0354(8) -0.0097(7) 0.0040(7) -0.0059(7)
O2 0.0221(7) 0.0405(9) 0.0351(8) 0.0003(7) 0.0073(6) 0.0014(6)
O3 0.0290(7) 0.0302(8) 0.0342(8) 0.0054(7) 0.0144(6) -0.0014(7)
loop_
_atom_type_symbol
_atom_type_description
_atom_type_scat_dispersion_real
_atom_type_scat_dispersion_imag
_atom_type_scat_source
C C 0.0033 0.0016 'International Tables Vol C Tables 4.2.6.8 and 6.1.1.4'
H H 0.0000 0.0000 'International Tables Vol C Tables 4.2.6.8 and 6.1.1.4'
N N 0.0061 0.0033 'International Tables Vol C Tables 4.2.6.8 and 6.1.1.4'
O O 0.0106 0.0060 'International Tables Vol C Tables 4.2.6.8 and 6.1.1.4'
loop_
_geom_angle_atom_site_label_1
_geom_angle_atom_site_label_2
_geom_angle_atom_site_label_3
_geom_angle
N1 C1 C2 108.09(15)
N1 C1 C6 100.73(15)
C2 C1 C6 112.50(16)
C3 C2 C1 109.30(14)
O1 C3 C8 59.52(13)
O1 C3 C2 115.92(15)
C8 C3 C2 119.67(17)
O1 C3 C4 115.58(16)
C8 C3 C4 119.91(18)
C2 C3 C4 114.63(16)
C3 C4 C5 109.41(16)
N1 C5 C4 108.47(14)
N1 C5 C7 101.00(16)
C4 C5 C7 112.25(16)
C1 C6 C7 105.08(15)
C5 C7 C6 104.76(16)
O1 C8 C3 59.56(13)
O2 C9 N1 124.85(18)
O2 C9 O3 124.17(17)
N1 C9 O3 110.95(16)
O3 C10 C11 113.14(16)
C12 C11 C16 119.5(2)
C12 C11 C10 122.70(18)
C16 C11 C10 117.73(19)
C11 C12 C13 120.4(2)
C14 C13 C12 119.7(3)
C15 C14 C13 120.0(2)
C14 C15 C16 120.3(2)
C15 C16 C11 120.0(2)
C9 N1 C5 122.74(16)
C9 N1 C1 127.95(16)
C5 N1 C1 105.57(14)
C8 O1 C3 60.92(12)
C9 O3 C10 116.11(16)
loop_
_geom_bond_atom_site_label_1
_geom_bond_atom_site_label_2
_geom_bond_distance
C1 N1 1.472(2)
C1 C2 1.528(3)
C1 C6 1.539(3)
C2 C3 1.510(3)
C3 O1 1.443(2)
C3 C8 1.463(3)
C3 C4 1.513(3)
C4 C5 1.526(3)
C5 N1 1.465(2)
C5 C7 1.539(3)
C6 C7 1.546(3)
C8 O1 1.443(3)
C9 O2 1.218(2)
C9 N1 1.339(2)
C9 O3 1.351(2)
C10 O3 1.445(2)
C10 C11 1.504(3)
C11 C12 1.379(3)
C11 C16 1.386(3)
C12 C13 1.387(3)
C13 C14 1.384(4)
C14 C15 1.375(4)
C15 C16 1.385(3)
