#------------------------------------------------------------------------------
#$Date: 2019-11-24 04:07:48 +0200 (Sun, 24 Nov 2019) $
#$Revision: 236634 $
#$URL: file:///home/coder/svn-repositories/cod/cif/1/55/41/1554141.cif $
#------------------------------------------------------------------------------
#
# This file is available in the Crystallography Open Database (COD),
# http://www.crystallography.net/
#
# All data on this site have been placed in the public domain by the
# contributors.
#
data_1554141
loop_
_publ_author_name
'Hirao, Yasukazu'
'Seo, Shiori'
'Kubo, Takashi'
_publ_section_title
;
 Self-Assembly of 1-Deazahypoxanthine: Cooperativity of Hydrogen-Bonding
 and Stacking Interactions
;
_journal_issue                   34
_journal_name_full               'The Journal of Physical Chemistry C'
_journal_page_first              20928
_journal_paper_doi               10.1021/acs.jpcc.9b05033
_journal_volume                  123
_journal_year                    2019
_chemical_formula_moiety         'C6 H5 N3 O, C2 H4 O2'
_chemical_formula_sum            'C8 H9 N3 O3'
_chemical_formula_weight         195.18
_chemical_name_common            1-deazahypoxanthine
_chemical_name_systematic
;
1,4-dihydro-7H-imidazo[4,5-b]pyridin-7-one
;
_space_group_crystal_system      triclinic
_space_group_IT_number           2
_space_group_name_Hall           '-P 1'
_space_group_name_H-M_alt        'P -1'
_atom_sites_solution_hydrogens   geom
_atom_sites_solution_primary     direct
_atom_sites_solution_secondary   difmap
_audit_creation_method           SHELXL-2016/6
_cell_angle_alpha                83.809(6)
_cell_angle_beta                 82.680(6)
_cell_angle_gamma                82.977(6)
_cell_formula_units_Z            2
_cell_length_a                   4.6102(6)
_cell_length_b                   8.0852(11)
_cell_length_c                   12.4977(14)
_cell_measurement_reflns_used    3551
_cell_measurement_temperature    150(2)
_cell_measurement_theta_max      27.45
_cell_measurement_theta_min      3.17
_cell_volume                     456.56(10)
_computing_cell_refinement       'RAPID AUTO'
_computing_data_collection       'RAPID AUTO (Rigaku, ????)'
_computing_data_reduction        'RAPID AUTO'
_computing_molecular_graphics
;
Yadokari-XG 2009 (K. Wakita, T. Nemoto, et al., 2009)
;
_computing_publication_material
;
Yadokari-XG 2009 (K. Wakita, T. Nemoto, et al., 2009)
;
_computing_structure_refinement  'SHELXL-2016/6 (Sheldrick, 2016)'
_computing_structure_solution    Sir2014
_diffrn_ambient_temperature      150(2)
_diffrn_measured_fraction_theta_full 0.995
_diffrn_measured_fraction_theta_max 0.992
_diffrn_measurement_device_type
;
Rigaku MicroMax-007HF,VariMax-Mo and RAPID II
;
_diffrn_measurement_method       \w
_diffrn_radiation_type           MoK\a
_diffrn_radiation_wavelength     0.71075
_diffrn_reflns_av_R_equivalents  0.0221
_diffrn_reflns_av_unetI/netI     0.0344
_diffrn_reflns_Laue_measured_fraction_full 0.995
_diffrn_reflns_Laue_measured_fraction_max 0.992
_diffrn_reflns_limit_h_max       5
_diffrn_reflns_limit_h_min       -5
_diffrn_reflns_limit_k_max       10
_diffrn_reflns_limit_k_min       -10
_diffrn_reflns_limit_l_max       16
_diffrn_reflns_limit_l_min       -15
_diffrn_reflns_number            4367
_diffrn_reflns_point_group_measured_fraction_full 0.995
_diffrn_reflns_point_group_measured_fraction_max 0.992
_diffrn_reflns_theta_full        25.242
_diffrn_reflns_theta_max         27.450
_diffrn_reflns_theta_min         3.165
_diffrn_source                   'micro-focus rotating anode'
_exptl_absorpt_coefficient_mu    0.111
_exptl_absorpt_correction_T_max  1.0000
_exptl_absorpt_correction_T_min  0.8427
_exptl_absorpt_correction_type   multi-scan
_exptl_absorpt_process_details
;
Empirical Absorption Correction   March 2001 T. Higashi
    Rigaku Corporation, Tokyo, Japan
;
_exptl_crystal_colour            Colorless
_exptl_crystal_density_diffrn    1.420
_exptl_crystal_density_method    'not measured'
_exptl_crystal_description       Platelet
_exptl_crystal_F_000             204
_exptl_crystal_size_max          0.700
_exptl_crystal_size_mid          0.300
_exptl_crystal_size_min          0.020
_refine_diff_density_max         0.268
_refine_diff_density_min         -0.182
_refine_diff_density_rms         0.044
_refine_ls_extinction_method     none
_refine_ls_goodness_of_fit_ref   1.049
_refine_ls_hydrogen_treatment    constr
_refine_ls_matrix_type           full
_refine_ls_number_parameters     129
_refine_ls_number_reflns         2060
_refine_ls_number_restraints     0
_refine_ls_restrained_S_all      1.049
_refine_ls_R_factor_all          0.0495
_refine_ls_R_factor_gt           0.0359
_refine_ls_shift/su_max          0.000
_refine_ls_shift/su_mean         0.000
_refine_ls_structure_factor_coef Fsqd
_refine_ls_weighting_details
'w=1/[\s^2^(Fo^2^)+(0.0525P)^2^+0.0735P] where P=(Fo^2^+2Fc^2^)/3'
_refine_ls_weighting_scheme      calc
_refine_ls_wR_factor_gt          0.0951
_refine_ls_wR_factor_ref         0.0999
_reflns_Friedel_coverage         0.000
_reflns_number_gt                1627
_reflns_number_total             2060
_reflns_threshold_expression     'I > 2\s(I)'
_cod_data_source_file            jp9b05033_si_002.cif
_cod_data_source_block           SC1
_cod_database_code               1554141
_shelx_shelxl_version_number     2016/6
_shelx_space_group_comment
;
The symmetry employed for this shelxl refinement is uniquely defined
by the following loop, which should always be used as a source of
symmetry information in preference to the above space-group names.
They are only intended as comments.
;
_shelx_estimated_absorpt_t_min   0.926
_shelx_estimated_absorpt_t_max   0.998
_shelx_res_file
;
TITL
    ydkr.res
    created by SHELXL-2016/6 at 19:25:08 on 15-May-2019
REM  Yadorkari-X generated
CELL 0.71075 4.6102 8.0852 12.4977 83.8086 82.6801 82.9769
ZERR 2.0 0.0006 0.0011 0.0014 0.0059 0.0058 0.0058
LATT 1
REM  SPGR P-1 triclinic
SFAC C H N O
UNIT 16 18 6 6
SIZE 0.70 0.30 0.02
TEMP -123.0
L.S. 500
FMAP 2
PLAN -25
ACTA
CONF
HTAB
LIST 4
BOND $H
EQIV $1 -1-X, 2-Y, -Z
EQIV $2 1-X, 1-Y, -Z

HTAB N1 N3_$1
HTAB N2 O1_$2
HTAB O3 O1
HTAB O3 O1

WGHT    0.052500    0.073500
FVAR       4.34856
C1    1    0.031731    0.742901    0.235464    11.00000    0.02475    0.02372 =
         0.01900   -0.00221   -0.00565    0.00215
AFIX  43
H1    2    0.091095    0.715639    0.305869    11.00000   -1.20000
AFIX   0
C2    1   -0.201678    0.862420    0.221968    11.00000    0.02294    0.02284 =
         0.02075   -0.00384   -0.00069    0.00003
AFIX  43
H2    2   -0.296463    0.915850    0.283168    11.00000   -1.20000
AFIX   0
N1    3   -0.302100    0.907137    0.124826    11.00000    0.01670    0.01803 =
         0.02282   -0.00235   -0.00272    0.00337
AFIX  43
H7    2   -0.452589    0.984102    0.117813    11.00000   -1.20000
AFIX   0
C3    1   -0.163530    0.829614    0.038658    11.00000    0.01679    0.01564 =
         0.02131   -0.00056   -0.00376   -0.00157
C4    1    0.079061    0.711016    0.047544    11.00000    0.01621    0.01638 =
         0.02073   -0.00280   -0.00210    0.00009
C5    1    0.189572    0.657540    0.147660    11.00000    0.01831    0.01623 =
         0.02271   -0.00016   -0.00403   -0.00025
N2    3    0.155488    0.661987   -0.055805    11.00000    0.01731    0.01779 =
         0.02149   -0.00360   -0.00323    0.00323
AFIX  43
H8    2    0.302073    0.587767   -0.076659    11.00000   -1.20000
AFIX   0
C6    1   -0.037898    0.749830   -0.118449    11.00000    0.01857    0.02059 =
         0.02204   -0.00270   -0.00355    0.00080
AFIX  43
H3    2   -0.033001    0.738407   -0.193538    11.00000   -1.20000
AFIX   0
N3    3   -0.235724    0.853761   -0.065251    11.00000    0.01816    0.01955 =
         0.02194   -0.00218   -0.00393    0.00129
O1    4    0.406184    0.543883    0.158337    11.00000    0.02402    0.02315 =
         0.02259   -0.00204   -0.00602    0.00869
C7    1    0.670207    0.228741    0.485074    11.00000    0.07172    0.04872 =
         0.03523    0.00911   -0.02072   -0.00445
AFIX 137
H4    2    0.622026    0.115813    0.511980    11.00000   -1.50000
H5    2    0.588160    0.306835    0.538770    11.00000   -1.50000
H6    2    0.884420    0.228777    0.472632    11.00000   -1.50000
AFIX   0
C8    1    0.541683    0.281994    0.380771    11.00000    0.03398    0.03072 =
         0.02467   -0.00313   -0.00167    0.00682
O2    4    0.420760    0.191852    0.334138    11.00000    0.06557    0.03443 =
         0.04192   -0.00483   -0.01776   -0.00353
O3    4    0.579137    0.438346    0.345068    11.00000    0.05968    0.03442 =
         0.02912    0.00235   -0.01981   -0.00434
AFIX 147
H9    2    0.505371    0.463417    0.286579    11.00000   -1.50000

AFIX   0
HKLF 4 1 1 0 0 0 1 0 0 0 1




REM
REM R1 =  0.0359 for    1627 Fo > 4sig(Fo)  and  0.0495 for all    2060 data
REM    129 parameters refined using      0 restraints

END

WGHT      0.0525      0.0735

REM Instructions for potential hydrogen bonds
EQIV $3 x-1, y+1, z
HTAB C2 O2_$3
HTAB N1 N3_$1
HTAB N2 O1_$2
EQIV $4 -x, -y+1, -z
HTAB C6 O2_$4
EQIV $5 -x+1, -y+1, -z+1
HTAB C7 O3_$5
HTAB O3 O1

REM Highest difference peak  0.268,  deepest hole -0.182,  1-sigma level  0.044
Q1    1   0.0891  0.6958  0.1940  11.00000  0.05    0.27
Q2    1   0.0931  0.6688  0.1004  11.00000  0.05    0.27
Q3    1  -0.0111  0.7836  0.0465  11.00000  0.05    0.25
Q4    1   0.1421  0.6922  0.0014  11.00000  0.05    0.24
Q5    1   0.7663  0.2931  0.5008  11.00000  0.05    0.24
Q6    1  -0.1926  0.8603 -0.0192  11.00000  0.05    0.21
Q7    1   0.3343  0.2435  0.3757  11.00000  0.05    0.20
Q8    1   0.0636  0.7110 -0.1001  11.00000  0.05    0.19
Q9    1  -0.6623  1.1376  0.0798  11.00000  0.05    0.18
Q10   1  -0.2796  0.8523  0.1781  11.00000  0.05    0.18
Q11   1  -0.1548  0.7583  0.2305  11.00000  0.05    0.17
Q12   1  -0.2346  0.8565  0.0836  11.00000  0.05    0.17
Q13   1  -0.1529  0.8057 -0.0926  11.00000  0.05    0.16
Q14   1   0.6813  0.2504  0.4191  11.00000  0.05    0.16
Q15   1  -0.2111  0.9019  0.1684  11.00000  0.05    0.15
Q16   1   0.5652  0.2055  0.3390  11.00000  0.05    0.14
Q17   1   0.3007  0.1023  0.3887  11.00000  0.05    0.13
Q18   1   0.7361  0.1237  0.4932  11.00000  0.05    0.13
Q19   1   0.8775  0.1524  0.4391  11.00000  0.05    0.13
Q20   1   0.3898  0.4881  0.2220  11.00000  0.05    0.13
Q21   1   0.3005  0.6079  0.1574  11.00000  0.05    0.12
Q22   1   0.3987  0.2836  0.5591  11.00000  0.05    0.11
Q23   1  -0.0465  0.7381 -0.1580  11.00000  0.05    0.11
Q24   1   0.2460  0.2660  0.2947  11.00000  0.05    0.11
Q25   1   0.0891  0.7722  0.2346  11.00000  0.05    0.11
;
_shelx_res_checksum              71090
_shelx_hkl_file
;
   0   0   2  760.52   35.96
   0   0  -2  825.04   37.79
   0   0   410920.15  253.68
   0   0  -410459.72  264.58
   0   0   5 4636.56   78.83
   0   0   5 4647.69  145.18
   0   0  -5 4524.60  107.03
   0   0   6 2995.75   59.00
   0   0   6 3159.94   92.69
   0   0  -6 3026.95  103.26
   0   0   7 7686.15  141.64
   0   0   7 7819.54  183.83
   0   0  -7 7257.08  165.00
   0   0   8  106.62   11.85
   0   0   8  110.26   34.57
   0   0  -8   90.07   39.98
   0   0   9  331.21   17.69
   0   0  -9  326.94   33.50
   0   0  10 7273.90  146.79
   0   0 -10 6595.96  154.01
   0   0  11 5797.81  132.58
   0   0 -11 5414.74  147.08
   0   0  12  353.56   22.08
   0   0 -12  327.23   27.69
   0   0  13   14.55   24.70
   0   0 -13   13.91   19.05
   0   0  14   54.63   18.50
   0   0 -14   23.05   33.02
   0   0  15   37.38   17.43
   0   0 -15    0.50   15.86
   0   0 -15   -6.49   11.63
   0   0  16   -8.87   19.77
   0   1 -15    1.40   21.20
   0  -1  15   14.17   18.67
   0   1 -14 1008.02   34.62
   0  -1  14 1187.19   52.57
   0   1 -13    9.60   14.63
   0  -1  13    9.16   15.63
   0   1 -12  206.34   27.40
   0  -1  12  198.58   27.72
   0   1 -11  196.93   19.64
   0  -1  11  205.44   17.23
   0  -1  11  217.21   63.40
   0   1 -10   51.59   16.78
   0  -1  10   63.33   13.07
   0  -1  10   67.86   45.81
   0   1  -9   31.43   30.47
   0  -1   9   35.93   11.64
   0  -1   9   69.69   46.44
   0   1  -8 1948.36   50.16
   0  -1   8 1799.81   83.92
   0   1  -7    2.67   14.26
   0  -1   7   12.75   35.52
   0   1  -6 4221.09   85.25
   0  -1   6 4356.10  121.27
   0   1  -5 7180.20  135.58
   0  -1   5 6814.04  154.41
   0   1  -426015.27  553.83
   0  -1   427504.12  619.80
   0   1  -313472.66  251.93
   0  -1   314281.12  301.21
   0   1  -211330.97  205.75
   0  -1   211763.86  210.77
   0   1  -1  407.09   18.55
   0  -1   1  412.29   13.21
   0   1   233785.41  711.45
   0   1   233665.75  715.47
   0  -1  -233852.11  713.52
   0  -1  -233781.28  712.81
   0   1   319385.41  379.03
   0  -1  -319377.52  377.00
   0  -1  -319283.81  373.33
   0   1   4 1489.61   28.36
   0  -1  -4 1492.39   26.99
   0  -1  -4 1563.80   58.22
   0   1   5  529.43   15.43
   0  -1  -5  541.64   14.12
   0  -1  -5  546.76   45.62
   0   1   6 4894.46   87.40
   0  -1  -6 4427.73  129.24
   0   1   7  538.41   17.45
   0  -1  -7  526.46   53.57
   0   1   8 5173.56   99.55
   0  -1  -8 5053.88  153.51
   0   1   9 4286.65   85.76
   0  -1  -9 4295.98  137.71
   0   1  10 7139.74  145.49
   0  -1 -10 6890.41  188.87
   0   1  11  202.20   24.87
   0  -1 -11  187.59   54.16
   0   1  12 1209.09   36.07
   0  -1 -12 1221.60   79.95
   0  -1 -12 1145.35   31.33
   0   1  13  286.47   20.51
   0  -1 -13  279.32   35.65
   0  -1 -13  253.79   16.98
   0   1  14  562.38   36.97
   0  -1 -14  503.78   37.48
   0   1  15  283.32   23.44
   0  -1 -15  261.64   29.65
   0  -1 -15  243.02   23.60
   0   1  16   -2.35   16.72
   0  -2  15  344.73   28.53
   0   2 -14  605.42   32.28
   0  -2  14  703.08   32.67
   0  -2  13  299.17   22.90
   0  -2  13  356.68   92.30
   0   2 -12   76.46   14.42
   0  -2  12   74.60   16.65
   0  -2  12  141.63   88.92
   0   2 -11   10.52   20.40
   0  -2  11   60.93   73.12
   0   2 -10  843.21   39.03
   0  -2  10  813.42  110.54
   0   2  -9   28.12   14.66
   0  -2   9   19.12   46.84
   0   2  -8  257.98   18.88
   0  -2   8  245.32   49.95
   0   2  -7 8809.16  172.61
   0  -2   7 8803.93  218.32
   0   2  -6   -8.03   16.60
   0  -2   6    5.34   34.79
   0   2  -5  400.53   16.20
   0  -2   5  403.24   25.36
   0   2  -4 7264.82  128.59
   0  -2   4 7772.21  150.69
   0   2  -3 1221.74   25.49
   0  -2   3 1216.18   30.00
   0   2  -2 3760.07   63.53
   0  -2   2 3804.38   68.24
   0   2  -1 1457.64   28.85
   0  -2   1 1464.45   30.46
   0   2   041700.91  936.45
   0  -2   041484.72  933.20
   0   2   1  141.10   19.37
   0  -2  -1  128.91   11.58
   0   2   2 9656.76  168.38
   0  -2  -2 9388.15  160.70
   0   2   3 1667.94   33.68
   0  -2  -3 1707.36   30.58
   0  -2  -3 1676.12   30.73
   0   2   4 2057.93   41.46
   0  -2  -4 2042.59   36.83
   0  -2  -4 2049.79   36.83
   0   2   5 2174.79   39.79
   0  -2  -5 2145.23   44.87
   0  -2  -5 2242.07   41.54
   0   2   6 7637.98  139.05
   0  -2  -6 7622.48  137.10
   0  -2  -6 7465.67  135.40
   0   2   7 1103.27   26.02
   0  -2  -7 1085.27   28.56
   0  -2  -7 1120.54   34.47
   0   2   8  774.88   22.18
   0  -2  -8  773.85   71.61
   0  -2  -8  770.66   23.05
   0   2   9  604.04   21.00
   0  -2  -9  568.35   68.44
   0  -2  -9  591.10   21.21
   0   2  10 1160.09   31.67
   0  -2 -10 1195.79   88.31
   0  -2 -10 1177.54   30.57
   0   2  11 5975.04  123.93
   0  -2 -11 5820.86  192.96
   0  -2 -11 6344.89  132.69
   0   2  12 1873.27   47.16
   0  -2 -12 1861.30   95.46
   0  -2 -12 1826.75   41.97
   0   2  13  169.25   17.50
   0  -2 -13  203.76   46.42
   0  -2 -13  168.20   14.52
   0   2  14   44.07   15.20
   0  -2 -14   23.19   34.46
   0  -2 -14   29.71   18.76
   0   2  15   64.04   26.02
   0  -2 -15   67.37   32.34
   0  -2 -15   41.92   11.40
   0   2  16  914.34   36.00
   0   3 -14   -1.78   18.23
   0  -3  14   -4.11   27.93
   0  -3  14  -18.07   52.06
   0   3 -13    9.76   12.61
   0  -3  13  -30.11   93.50
   0   3 -12  125.55   15.32
   0  -3  12  157.95   98.73
   0   3 -11 1216.76   42.29
   0  -3  11 1376.99  131.41
   0   3 -10   19.38   19.52
   0  -3  10  -11.84   43.86
   0   3  -9 1926.97   55.15
   0  -3   9 1992.56   86.38
   0   3  -8    8.37   21.26
   0  -3   8   13.64   33.01
   0   3  -7 2796.72   57.58
   0  -3   7 3062.22  118.05
   0   3  -6 1492.86   34.51
   0  -3   6 1496.15   50.29
   0   3  -5 8205.12  161.50
   0  -3   5 8254.20  172.31
   0   3  -4 4582.50   81.62
   0  -3   4 4473.42   89.57
   0   3  -3 3287.73   57.81
   0  -3   3 3263.84   72.37
   0   3  -2 1019.63   22.91
   0  -3   2 1048.20   26.54
   0   3  -1 1356.41   27.24
   0  -3   1 1338.03   28.87
   0   3   0 7887.64  136.21
   0  -3   0 7934.60  145.57
   0   3   1 5475.45   93.58
   0  -3  -1 5541.32   94.00
   0   3   211332.63  206.40
   0  -3  -211306.67  210.17
   0   3   3  531.70   17.71
   0  -3  -3  555.19   16.29
   0   3   4 7969.17  148.56
   0  -3  -4 8258.40  147.85
   0  -3  -4 8405.20  155.27
   0  -3  -5 6402.74  120.67
   0  -3  -5 6329.08  111.88
   0  -3  -615823.63  328.33
   0  -3  -616221.13  317.63
   0   3   7    8.69    8.30
   0  -3  -7    6.12    8.67
   0  -3  -7   -5.46    9.60
   0   3   8  799.33   22.15
   0  -3  -8  764.60   27.46
   0  -3  -8  789.49   32.35
   0   3   9  267.25   21.88
   0  -3  -9  253.18   13.73
   0  -3  -9  288.99  104.27
   0  -3  -9  254.88   16.10
   0   3  10   76.07   12.18
   0  -3 -10    8.83   61.55
   0   3  11 2017.54   46.96
   0  -3 -11 1855.53  106.55
   0  -3 -11 2024.32   44.26
   0   3  12  553.37   22.40
   0  -3 -12  473.30   80.73
   0  -3 -12  551.07   28.45
   0   3  13   51.04   14.38
   0  -3 -13  -14.95   58.22
   0  -3 -13   50.46   17.79
   0   3  14   -2.84   12.75
   0  -3 -14   39.11   48.18
   0  -3 -14   -0.00   10.03
   0   3  15    1.55   14.36
   0  -3 -15   -7.24   43.61
   0  -3 -15   10.22   10.44
   0  -4  14   31.50   21.66
   0  -4  14  191.48  102.85
   0   4 -13   29.51   19.13
   0  -4  13   11.12   66.24
   0   4 -12    8.85   20.25
   0  -4  12   42.61   58.21
   0   4 -11  533.11   22.96
   0  -4  11  592.51   74.67
   0   4 -10   29.96   13.34
   0  -4  10   88.05   45.28
   0   4  -9   40.56   12.89
   0  -4   9   62.88   36.96
   0   4  -8 6891.31  137.72
   0  -4   8 6439.59  188.93
   0   4  -7   -3.02   20.83
   0  -4   7   18.31   25.94
   0   4  -6 2620.13   54.47
   0  -4   6 2730.68   75.79
   0   4  -5 1736.53   38.83
   0  -4   5 1753.66   69.66
   0   4  -4 2563.15   50.21
   0  -4   4 2613.37   61.43
   0   4  -3  654.48   20.04
   0  -4   3  673.01   25.87
   0   4  -2  702.27   20.35
   0  -4   2  713.70   35.47
   0   4  -115071.11  289.16
   0  -4   114806.26  290.17
   0   4   0   53.58   11.59
   0  -4   0   42.98   12.38
   0   4   1  166.53   13.07
   0  -4  -1  149.51   13.60
   0   4   2 4834.20   97.82
   0  -4  -2 5007.18   89.28
   0   4   3   14.62   11.59
   0  -4  -3   13.53   10.14
   0   4   4 3287.20   66.15
   0  -4  -4 3252.46   60.61
   0  -4  -4 3332.44   61.20
   0   4   5 1620.54   40.19
   0  -4  -5 1623.12   34.62
   0  -4  -5 1682.23   35.98
   0  -4  -6  363.86   15.48
   0  -4  -6  371.11   16.81
   0  -4  -7  332.63   16.04
   0  -4  -7  341.49   26.22
   0  -4  -8  301.71   23.19
   0  -4  -8  304.35   17.83
   0  -4  -9  211.83   14.24
   0  -4  -9  221.34   15.64
   0  -4 -10 1495.32   35.74
   0  -4 -10 1520.06   91.01
   0  -4 -10 1562.35   36.16
   0  -4 -11   17.05   59.29
   0  -4 -11   27.46   11.60
   0  -4 -12  177.89   77.50
   0  -4 -12  189.61   15.05
   0   4  13   24.28   12.71
   0  -4 -13    1.37   62.33
   0  -4 -13   21.06   11.43
   0   4  14 2762.94   66.61
   0  -4 -14 2601.74  212.21
   0  -4 -14 2770.05   61.31
   0   4  15  135.54   17.13
   0  -4 -15  157.23  110.21
   0  -4 -15  128.31   20.18
   0   5 -13   29.93   13.51
   0  -5  13   75.67   69.77
   0   5 -12 1767.19   46.78
   0  -5  12 2082.51  123.63
   0   5 -11 2213.04   63.40
   0  -5  11 2423.76  116.51
   0   5 -10  632.66   34.30
   0  -5  10  664.14   62.64
   0   5  -9 1601.39   50.78
   0  -5   9 1668.43   79.38
   0   5  -8 1104.88   31.35
   0  -5   8 1238.69   76.57
   0   5  -7  507.76   21.18
   0  -5   7  503.45   38.18
   0   5  -6  298.62   18.76
   0  -5   6  300.21   31.23
   0   5  -5 2908.41   72.15
   0  -5   5 2830.95   74.49
   0   5  -4   31.82   13.62
   0  -5   4   18.70   21.69
   0   5  -3  933.03   37.55
   0  -5   3  943.46   35.83
   0   5  -2 2291.64   48.28
   0  -5   2 2327.74   69.86
   0   5  -1 1710.12   38.39
   0  -5   1 1737.59   53.50
   0   5   0 1362.89   33.52
   0   5   1 3350.18   66.70
   0  -5  -1 3405.49   79.45
   0   5   2 1686.28   51.91
   0  -5  -2 1660.76   39.01
   0   5   3 1749.87   55.04
   0  -5  -3 1758.58   39.96
   0   5   4 1536.98   55.37
   0  -5  -4 1461.30   36.13
   0   5   5 1010.06   35.35
   0  -5  -5 1036.04   27.47
   0  -5  -5  996.08   29.36
   0   5   6 2822.42   69.28
   0  -5  -6 2794.54   58.49
   0  -5  -6 2736.92   57.71
   0  -5  -7   11.89   17.84
   0  -5  -7   17.98   12.83
   0  -5  -8   70.31   12.61
   0  -5  -8   46.35   21.95
   0  -5  -9   11.29   17.27
   0  -5  -9    0.80   11.71
   0  -5 -10  509.98   20.77
   0  -5 -10  513.82   21.34
   0  -5 -11  875.83   27.60
   0  -5 -11  922.24   86.79
   0  -5 -11  933.15   28.39
   0  -5 -12   13.73   11.73
   0  -5 -12   -7.09   66.88
   0  -5 -12   31.91   12.30
   0  -5 -13  185.16   89.42
   0  -5 -13  205.23   16.34
   0  -5 -14  -31.85   70.29
   0  -5 -14  -15.17   19.74
   0   6 -12  157.84   17.97
   0  -6  12  187.98   67.30
   0   6 -11  111.19   16.69
   0  -6  11  142.95   55.00
   0   6 -10   58.38   15.57
   0  -6  10   32.53   46.15
   0   6  -9  644.84   26.63
   0  -6   9  628.16   56.58
   0   6  -8 2327.41   55.82
   0  -6   8 2433.16   87.34
   0   6  -7  139.50   17.20
   0  -6   7  167.72   34.96
   0   6  -6   84.31   15.72
   0  -6   6  120.80   27.89
   0   6  -5  544.19   32.84
   0  -6   5  553.81   36.01
   0   6  -4   25.12   14.77
   0  -6   4   36.36   23.76
   0   6  -3  290.79   30.86
   0  -6   3  301.81   28.56
   0   6  -2 3720.68   77.27
   0  -6   2 3873.21   88.86
   0   6  -1 4501.47  105.11
   0  -6   1 4501.54   98.59
   0   6   0   76.95   17.57
   0  -6   0   86.68   21.03
   0   6   1  109.72   18.90
   0  -6  -1  114.07   20.00
   0   6   2   10.72   15.97
   0  -6  -2    4.86   27.39
   0   6   3 2433.47   74.65
   0  -6  -3 2430.11   56.58
   0   6   4 1306.15   54.29
   0  -6  -4 1349.99   37.81
   0   6   5   59.86   21.20
   0  -6  -5   64.50   20.87
   0  -6  -5   76.78   16.69
   0   6   6   61.32   21.37
   0  -6  -6   65.74   13.92
   0  -6  -6   74.80   16.09
   0   6   7 1516.25   49.13
   0  -6  -7 1594.22   48.54
   0  -6  -7 1576.34   40.03
   0  -6  -8 3372.72   74.82
   0  -6  -8 3376.97   72.10
   0  -6  -9 2204.18   62.63
   0  -6  -9 2210.90   63.20
   0  -6 -10 2085.05   52.25
   0  -6 -10 2189.22   62.31
   0  -6 -11   40.76   13.72
   0  -6 -11   33.11   14.56
   0  -6 -12  240.40   17.33
   0  -6 -12  211.48   77.16
   0  -6 -12  243.73   18.58
   0  -6 -13    4.16   79.84
   0  -6 -13   42.46   22.47
   0   7 -10   -3.04   15.45
   0  -7  10   -7.00   73.37
   0   7  -9  207.93   21.06
   0  -7   9  256.42   78.21
   0   7  -8 1807.19   50.17
   0  -7   8 2271.34  122.10
   0   7  -7 1831.73   49.72
   0  -7   7 1915.87  109.33
   0   7  -6   11.64   16.27
   0  -7   6   33.99   30.22
   0   7  -5 1424.67   52.42
   0  -7   5 1508.89   58.28
   0   7  -4  765.11   29.05
   0  -7   4  825.80   42.72
   0   7  -3   95.26   17.59
   0  -7   3   78.98   25.54
   0   7  -2  980.88   32.47
   0  -7   2  973.61   40.06
   0   7  -1  294.62   22.33
   0  -7   1  314.36   27.06
   0   7   0 1332.49   40.30
   0  -7   0 1330.35   62.16
   0   7   1    3.37   27.12
   0  -7  -1  -15.23   18.75
   0   7   2  809.18   33.49
   0  -7  -2  858.60   33.60
   0   7   3 2101.80   57.25
   0  -7  -3 2194.93   56.00
   0   7   4  261.70   41.78
   0  -7  -4  256.86   22.02
   0   7   5  178.36   24.10
   0  -7  -5  168.84   16.86
   0  -7  -5  162.15   20.37
   0   7   6 1092.53   43.54
   0  -7  -6 1120.35   43.62
   0  -7  -6 1106.22   35.46
   0   7   7  688.61   39.19
   0  -7  -7  682.94   27.72
   0  -7  -7  688.30   29.16
   0  -7  -8  634.10   26.85
   0  -7  -8  616.14   28.12
   0  -7  -9   27.68   23.29
   0  -7  -9   15.43   25.47
   0  -7 -10  393.41   23.20
   0  -7 -10  424.55   35.30
   0  -7 -11  142.04   17.78
   0  -7 -11  135.18   29.35
   0  -7 -12  -11.39   21.82
   0  -7 -12   36.10   23.92
   0   8  -9  164.46   22.47
   0  -8   9  189.57   50.80
   0   8  -8  879.02   35.79
   0  -8   8  901.26   93.63
   0   8  -7  627.99   31.52
   0  -8   7  682.33   89.64
   0   8  -6 3718.41   89.15
   0  -8   6 3969.04  120.08
   0   8  -5 2600.91   80.96
   0  -8   5 2684.74   88.81
   0   8  -4   38.43   18.97
   0  -8   4   58.82   31.20
   0   8  -3  441.84   26.84
   0  -8   3  419.50   37.17
   0   8  -2   51.11   30.39
   0  -8   2    4.11   40.03
   0   8  -1  324.35   26.18
   0  -8   1  346.75   31.86
   0   8   0  119.22   22.62
   0  -8   0  139.83   27.46
   0   8   1  127.56   23.48
   0  -8  -1  118.36   39.60
   0   8   2  571.75   47.70
   0  -8  -2  609.52   35.18
   0   8   3 2195.60   63.53
   0  -8  -3 2308.48   78.47
   0   8   4 2049.77   64.26
   0  -8  -4 1993.56   57.86
   0   8   5 2919.14  100.76
   0  -8  -5 3036.31   73.95
   0  -8  -5 3040.03   94.25
   0   8   6  -15.46   25.23
   0  -8  -6   -9.06   15.73
   0  -8  -6   -5.55   19.05
   0   8   7  403.75   38.59
   0  -8  -7  439.27   35.90
   0  -8  -7  431.70   28.46
   0  -8  -8   94.72   18.91
   0  -8  -8  123.32   21.31
   0  -8  -9  146.93   20.41
   0  -8  -9  144.24   33.24
   0  -8 -10 1066.76   39.65
   0  -8 -10 1087.46   52.31
   0  -8 -11   10.90   23.25
   0  -8 -11   -5.98   16.73
   0   9  -6  166.19   25.46
   0  -9   6  114.33   45.90
   0   9  -5    5.55   20.23
   0  -9   5   -4.68   32.83
   0   9  -4   31.79   32.94
   0  -9   4    4.12   32.01
   0   9  -3   87.69   23.67
   0  -9   3   86.88   57.39
   0   9  -2  120.94   24.99
   0  -9   2  109.68   35.07
   0   9  -1  235.03   41.71
   0  -9   1  230.05   34.00
   0   9   0  147.99   26.86
   0  -9   0  132.21   31.98
   0   9   1  178.22   28.11
   0  -9  -1  194.03   31.37
   0   9   2 1209.78   50.91
   0  -9  -2 1284.94   75.00
   0   9   3 4062.87  126.74
   0  -9  -3 4255.60  107.23
   0   9   4 2080.10   69.89
   0  -9  -4 2080.95   66.68
   0   9   5  900.19   71.57
   0  -9  -5  884.22   36.31
   0  -9  -5  867.69   59.55
   0   9   6  937.57   50.99
   0  -9  -6  986.73   38.87
   0  -9  -6  999.85   43.10
   0   9   7  336.59   39.45
   0  -9  -7  281.47   25.29
   0  -9  -7  271.28   29.00
   0  -9  -8   25.34   30.53
   0  -9  -8   86.74   37.26
   0  -9  -9   47.89   30.29
   0  -9  -9   23.69   35.32
   0  10  -2  442.78   36.47
   0 -10   2  417.91   47.22
   0  10  -1  227.50   32.65
   0 -10   1  229.71   41.80
   0  10   0 1051.88   69.42
   0 -10   0 1080.12   55.89
   0  10   1  538.90   40.04
   0 -10  -1  565.29   46.00
   0  10   2   86.44   31.23
   0 -10  -2  113.55   34.06
   0  10   3  -27.81   30.37
   0 -10  -3   -6.69   30.74
   0  10   4  414.46   42.44
   0 -10  -4  483.61   59.93
   0  10   5  453.02   45.90
   0 -10  -5  462.64   31.46
   0 -10  -5  454.81   38.49
   1 -10  -2  567.29   42.28
  -1  10   2  482.61   47.77
   1 -10  -1  504.77   40.73
  -1  10   1  480.08   44.89
   1 -10   0  658.91   45.42
  -1  10   0  643.13   68.79
   1  -9  -7 1116.30   38.78
   1  -9  -7 1100.25   47.96
   1  -9  -6  866.15   42.78
   1  -9  -6  851.46   63.18
   1  -9  -5   71.69   16.96
   1  -9  -5   64.16   26.83
   1  -9  -4  526.68   36.80
  -1   9   4  539.33   48.10
   1  -9  -3  233.46   48.28
  -1   9   3  202.57   55.82
   1  -9  -2   10.37   23.91
  -1   9   2   14.86   29.08
  -1   9   1  257.74   53.84
   1  -9   0  331.21   32.81
  -1   9   0  331.71   34.35
   1  -9   1   -4.93   25.32
  -1   9  -1   22.82   25.48
   1  -9   2   13.86   25.55
  -1   9  -2   33.42   22.64
   1  -9   3 1420.09   55.83
  -1   9  -3 1348.45   51.15
   1  -9   4 1301.77   57.95
  -1   9  -4 1267.02   47.90
   1  -9   5  118.32   53.77
  -1   9  -5   84.87   39.07
   1  -8 -10  849.35   38.45
   1  -8  -9  174.31   15.96
   1  -8  -9  208.17   26.20
   1  -8  -8  203.43   24.03
   1  -8  -8  214.99   25.50
   1  -8  -7   91.70   15.34
   1  -8  -7   79.88   23.62
   1  -8  -6 1295.63   46.07
   1  -8  -6 1368.88   64.01
   1  -8  -5  370.42   20.42
   1  -8  -5  356.84   29.73
   1  -8  -4  358.04   28.27
  -1   8   4  360.67   40.16
   1  -8  -3  542.03   31.22
  -1   8   3  501.99   40.09
   1  -8  -2   -8.06   20.32
  -1   8   2   36.94   26.38
   1  -8  -1 1016.32   40.13
  -1   8   1  945.46   44.97
   1  -8   0 3872.25   92.73
  -1   8   0 3970.88  100.07
   1  -8   1   16.13   21.52
  -1   8  -1   21.65   20.83
   1  -8   2 1013.83   41.95
  -1   8  -2  919.70   38.55
   1  -8   3 1466.66   67.49
  -1   8  -3 1485.53   63.99
   1  -8   4  955.30   42.55
  -1   8  -4  941.26   36.65
   1  -8   5  364.62   33.57
  -1   8  -5  354.28   25.88
   1  -8   6  225.70   32.91
  -1   8  -6  220.77   22.83
   1  -8   7  399.14   39.02
  -1   8  -7  351.79   37.74
   1  -8   8  487.99   44.86
  -1   8  -8  508.67   40.10
   1  -7 -11  -18.71   81.35
   1  -7 -11   -8.17   18.46
   1  -7 -10   88.14   16.80
   1  -7 -10   81.44   21.03
   1  -7  -9   36.81   10.82
   1  -7  -9   26.16   19.30
   1  -7  -8  212.95   14.47
   1  -7  -8  226.67   23.83
   1  -7  -7  125.33   19.89
   1  -7  -7  102.22   21.88
   1  -7  -6  666.08   22.82
   1  -7  -6  629.78   45.35
   1  -7  -5   27.24   11.35
   1  -7  -5   18.83   19.24
   1  -7  -410383.67  220.27
  -1   7   410236.53  240.07
   1  -7  -3 4935.25  105.65
  -1   7   3 4627.39  112.69
   1  -7  -2  943.47   34.35
  -1   7   2  914.81   41.22
   1  -7  -1  184.94   21.15
  -1   7   1  174.47   25.21
   1  -7   0  425.13   37.12
  -1   7   0  448.85   44.58
   1  -7   1    2.26   16.56
  -1   7  -1  -15.92   17.99
   1  -7   2  -20.26   17.53
  -1   7  -2   57.71   27.07
   1  -7   3  482.20   28.49
  -1   7  -3  469.85   25.30
   1  -7   4  108.17   22.79
  -1   7  -4  118.45   19.02
   1  -7   5   76.63   23.48
  -1   7  -5   91.96   26.59
   1  -7   6   35.16   23.31
  -1   7  -6    7.07   14.90
   1  -7   7  772.28   41.29
  -1   7  -7  725.19   28.08
   1  -7   8  145.83   31.66
  -1   7  -8  145.13   17.52
   1  -7   9   78.78   32.87
  -1   7  -9   61.31   15.82
   1  -7  10   88.30   37.15
  -1   7 -10   92.71   16.35
   1  -6 -13  112.07   97.50
   1  -6 -13   -3.85   16.26
   1  -6 -12   52.91   89.37
   1  -6 -12    4.72   26.74
   1  -6 -11   50.10   82.00
   1  -6 -11   71.90   29.51
   1  -6 -10  404.08   15.23
   1  -6 -10  483.67   38.19
   1  -6  -9  929.38   24.71
   1  -6  -9  958.04   47.27
   1  -6  -8  200.53   17.78
   1  -6  -8  202.36   21.53
   1  -6  -7   96.38   16.10
   1  -6  -7   99.37   19.06
   1  -6  -6 1187.38   34.54
   1  -6  -6 1250.88   38.08
   1  -6  -5 2814.65   62.09
   1  -6  -5 2785.41   63.53
   1  -6  -4 2011.01   50.43
  -1   6   4 1872.29   60.62
   1  -6  -3 1413.50   53.91
  -1   6   3 1351.95   48.12
   1  -6  -2 1911.41   48.43
  -1   6   2 1947.39   57.12
   1  -6  -1  103.89   18.60
  -1   6   1  109.36   23.45
   1  -6   0   57.86   28.45
  -1   6   0   53.90   19.08
   1  -6   1  520.20   36.73
  -1   6  -1  510.34   27.36
   1  -6   2   40.34   16.77
  -1   6  -2   46.91   16.94
   1  -6   3  651.13   27.79
  -1   6  -3  672.92   26.42
   1  -6   4   19.95   16.13
  -1   6  -4   21.26   13.49
   1  -6   5 5039.65  122.02
  -1   6  -5 5201.08  105.08
   1  -6   610313.21  243.26
  -1   6  -6 9667.53  209.06
   1  -6   7  -11.75   19.61
  -1   6  -7    5.53   11.32
   1  -6   8  174.00   27.78
  -1   6  -8  165.48   15.24
   1  -6   9  897.92   66.31
  -1   6  -9  822.07   26.37
   1  -6  10  124.48   56.31
  -1   6 -10  133.72   14.24
   1  -6  11  518.40   52.07
  -1   6 -11  463.02   20.56
   1  -6  12   80.87   42.70
  -1   6 -12   62.13   12.86
   1  -5 -13   -9.61   88.36
   1  -5 -13   24.79   26.71
   1  -5 -12  478.90  123.07
   1  -5 -12  542.53   27.34
   1  -5 -11  183.59   97.41
   1  -5 -11  214.07   21.29
   1  -5 -10  408.09   87.33
   1  -5 -10  376.27   24.39
   1  -5  -9  134.93    8.91
   1  -5  -9  155.87   19.80
   1  -5  -8    2.70    7.06
   1  -5  -8    0.56   24.76
   1  -5  -7  832.61   20.57
   1  -5  -7  883.95   42.82
   1  -5  -6  180.05   15.40
   1  -5  -6  163.54   20.17
   1  -5  -5  320.25   12.77
   1  -5  -5  345.25   23.69
   1  -5  -4   72.78   17.77
   1  -5  -3 2100.49   49.54
  -1   5   3 2110.42   58.87
   1  -5  -2 2559.16   55.32
  -1   5   2 2562.87   63.31
   1  -5  -1  151.82   16.94
  -1   5   1  154.20   21.07
   1  -5   0 5770.87  121.46
  -1   5   0 5519.57  110.84
   1  -5   1  159.76   26.77
  -1   5  -1  172.35   18.51
   1  -5   2 3384.17   80.95
  -1   5  -2 3340.09   68.87
   1  -5   3  604.56   24.42
  -1   5  -3  593.37   32.61
   1  -5   4 3701.49   77.61
  -1   5  -4 3679.71   72.85
   1  -5   5   53.19   16.42
  -1   5  -5   61.61   20.15
   1  -5   6 1802.61   62.52
  -1   5  -6 1669.68   37.46
   1  -5   7 6641.37  143.47
  -1   5  -7 6556.25  126.43
   1  -5   8 3940.33  108.47
  -1   5  -8 4016.16   84.85
   1  -5   9   36.80   24.88
  -1   5  -9   30.53   10.23
   1  -5  10  210.87   50.76
  -1   5 -10  234.56   13.76
   1  -5  11  534.36   48.63
  -1   5 -11  451.23   18.03
   1  -5  12  209.53   48.00
  -1   5 -12  175.59   19.04
   1  -4 -14   89.47   86.46
   1  -4 -14   73.76   29.08
   1  -4 -13  772.35  122.38
   1  -4 -13  707.64   30.06
   1  -4 -12   -9.25   82.11
   1  -4 -12   30.10   16.59
   1  -4 -11  672.84  115.94
   1  -4 -11  625.25   28.29
   1  -4 -10  864.77  162.46
   1  -4 -10  889.99   31.83
   1  -4  -8 6701.92  119.74
   1  -4  -8 6652.21  232.58
   1  -4  -8 6693.39  139.93
   1  -4  -7   87.80    7.57
   1  -4  -7   84.00   18.88
   1  -4  -6   38.64    6.97
   1  -4  -6   36.79   17.30
   1  -4  -5  396.72   11.81
   1  -4  -5  419.54   22.74
   1  -4  -4 5036.60   85.92
   1  -4  -4 5058.63   99.12
   1  -4  -3 4984.50   94.65
  -1   4   3 4948.53  103.56
   1  -4  -2  682.72   22.81
  -1   4   2  616.97   38.80
   1  -4  -1   -1.43   11.07
  -1   4   1   14.57   23.02
   1  -4   0 1629.77   34.44
  -1   4   0 1658.71   39.57
   1  -4   1 1529.66   40.77
  -1   4  -1 1578.86   35.89
   1  -4   216249.34  318.77
  -1   4  -216136.24  320.45
   1  -4   3 1574.87   34.20
  -1   4  -3 1610.31   34.33
   1  -4   4 1480.69   34.89
  -1   4  -4 1421.96   38.39
   1  -4   5 1390.63   35.17
  -1   4  -5 1424.35   31.10
   1  -4   6  127.69   17.60
  -1   4  -6  105.83   10.95
   1  -4   7 3251.49   88.23
  -1   4  -7 3142.79   58.48
   1  -4   8    7.13   18.05
  -1   4  -8    8.22   12.92
   1  -4   9 2175.03   63.28
  -1   4  -9 2129.51   46.98
   1  -4  10  137.53   50.58
  -1   4 -10  115.15   10.00
   1  -4  11   27.97   34.00
  -1   4 -11   11.28   12.58
   1  -4  12  278.46   84.63
  -1   4 -12  205.46   16.77
   1  -4  13   24.22   22.32
   1  -4  14 1053.58   66.50
   1  -3 -15  665.95   90.44
   1  -3 -15  729.15   45.23
   1  -3 -14  -77.63   67.30
   1  -3 -14   -1.62   16.20
   1  -3 -13   -5.67   72.18
   1  -3 -13   11.28   16.37
  -1   3  13   16.29   14.99
   1  -3 -12  902.55  175.43
   1  -3 -12  904.80   46.37
  -1   3  12  873.28   29.06
   1  -3 -11  -12.57  120.39
   1  -3 -11   15.26   17.21
  -1   3  11   29.78   12.56
   1  -3 -10  515.55   97.17
   1  -3 -10  623.56   28.30
   1  -3  -9   28.19   77.53
   1  -3  -9   50.35   18.45
   1  -3  -8  689.49   97.32
   1  -3  -8  726.41   30.97
   1  -3  -7  731.73   14.70
   1  -3  -7  685.72   82.27
   1  -3  -7  749.08   30.85
   1  -3  -6  657.35   13.25
   1  -3  -6  673.70   41.95
   1  -3  -5 5559.89   93.19
   1  -3  -5 5572.84  110.17
   1  -3  -4 1072.01   21.17
   1  -3  -4 1055.99   30.80
   1  -3  -3 2994.32   58.44
   1  -3  -2   14.01   19.23
   1  -3  -1   -5.48   16.40
  -1   3   1    0.40   19.44
   1  -3   017564.13  339.14
  -1   3   017534.47  349.20
   1  -3   1 3735.28   63.68
  -1   3  -1 3627.32   65.14
   1  -3   2  441.44   13.95
  -1   3  -2  416.89   14.44
   1  -3   3  133.23    9.88
  -1   3  -3  124.01    9.34
   1  -3   4 1272.29   33.90
  -1   3  -4 1212.25   24.10
   1  -3   5   84.59   11.69
  -1   3  -5   85.45   12.31
   1  -3   6 2109.78   45.23
  -1   3  -6 2099.23   41.95
   1  -3   7   12.17   15.92
  -1   3  -7   13.73    7.19
   1  -3   8  479.04   28.05
  -1   3  -8  488.67   18.71
   1  -3   9  420.65   49.45
  -1   3  -9  395.40   16.71
   1  -3  10 3288.35  115.44
  -1   3 -10 3160.25   56.72
   1  -3  11 3543.78   86.17
   1  -3  11 3787.92  123.78
   1  -3  12 1236.77   42.84
   1  -3  12 1105.71   93.42
  -1   3 -12 1123.95   29.71
   1  -3  13    4.49   19.19
   1  -3  13  -22.51   33.14
   1  -3  14  281.34   29.78
   1  -2 -15  580.27   69.56
   1  -2 -15  559.83   29.55
  -1   2  15  555.15   31.44
   1  -2 -14  763.44  125.94
   1  -2 -14  696.56   31.89
  -1   2  14  750.15   25.80
   1  -2 -13  619.28   79.10
   1  -2 -13  647.79   31.55
  -1   2  13  655.26   22.19
   1  -2 -12  553.19   88.78
   1  -2 -12  603.65   29.64
  -1   2  12  581.02   25.89
   1  -2 -11  102.45   77.05
  -1   2  11  185.43   17.45
   1  -2 -10  506.36  148.22
  -1   2  10  589.41   22.12
   1  -2  -9  411.02  149.49
  -1   2   9  487.64   19.22
   1  -2  -8   53.11   68.17
  -1   2   8   46.65    6.95
   1  -2  -7   56.51   71.43
  -1   2   7   50.69    9.33
   1  -2  -6  683.16   81.64
  -1   2   6  754.42   14.25
   1  -2  -5 1673.00   84.73
   1  -2  -4 5999.00   89.73
   1  -2  -4 5846.96  114.32
   1  -2  -3 1674.60   24.63
   1  -2  -3 1700.06   40.82
   1  -2  -2 4686.54   86.85
   1  -2  -1  487.42   18.24
   1  -2   013213.94  240.93
  -1   2   012962.58  245.45
   1  -2   1 1979.40   33.85
  -1   2  -1 2065.37   46.53
   1  -2   2   64.68   10.14
  -1   2  -2   52.74    7.86
   1  -2   3 5111.43   80.58
  -1   2  -3 5091.92   86.06
   1  -2   4   38.05    6.60
  -1   2  -4   31.87    5.52
   1  -2   5 4085.36   69.42
  -1   2  -5 4074.58   63.03
   1  -2   6  349.27   16.05
  -1   2  -6  340.48    8.97
   1  -2   7 6247.60  132.93
  -1   2  -7 6700.51  109.11
   1  -2   8 2046.34   77.41
  -1   2  -8 2049.79   37.71
   1  -2   9  210.60   18.40
   1  -2   9  146.30   47.51
  -1   2  -9  189.83    8.13
   1  -2  10  151.36   18.45
   1  -2  10  177.38   51.88
   1  -2  11  383.37   24.36
   1  -2  11  404.82   39.22
   1  -2  12  114.73   21.18
   1  -2  12  110.80   47.18
   1  -2  13   10.08   30.48
  -1   2 -13    2.89    7.97
   1  -2  14   36.79   22.44
   1  -2  15  198.96   44.32
   1  -1 -15   98.89   39.09
   1  -1 -15   75.82   20.50
  -1   1  15   86.43   15.71
   1  -1 -14    8.84   38.47
  -1   1  14   -0.06   11.56
   1  -1 -13   19.08   72.24
  -1   1  13   30.51   18.56
   1  -1 -12   66.55   47.91
  -1   1  12  106.71   12.77
   1  -1 -11  413.94   61.77
  -1   1  11  368.77   22.11
   1  -1 -10  380.41  116.32
  -1   1  10  353.22   14.49
   1  -1  -9  754.93   88.51
  -1   1   9  860.03   21.37
   1  -1  -8 2022.83  120.90
  -1   1   8 2082.84   39.01
   1  -1  -7  569.85   83.80
  -1   1   7  635.86   18.94
   1  -1  -614769.66  484.08
  -1   1   614912.89  281.10
   1  -1  -5 6289.22  200.60
  -1   1   5 6756.00  108.21
   1  -1  -4 6845.98  212.10
  -1   1   4 7126.39  109.40
   1  -1  -279591.67 2385.60
   1  -1  -1 6882.70  100.99
   1  -1   1   -5.62   13.69
   1  -1   215168.59  269.36
  -1   1  -215784.52  284.94
   1  -1   3 2357.29   34.52
  -1   1  -3 2391.99   35.06
   1  -1   431519.78  649.22
  -1   1  -430909.97  627.95
   1  -1   5  113.11   11.72
   1  -1   5   99.75    7.74
  -1   1  -5   99.15    5.21
   1  -1   614638.29  290.26
   1  -1   615127.49  308.13
  -1   1  -614577.06  253.25
   1  -1   7 2426.47   50.65
   1  -1   7 2467.65   71.81
  -1   1  -7 2490.99   36.12
   1  -1   8 1912.75   44.47
   1  -1   8 1769.96   65.85
  -1   1  -8 1907.18   32.04
   1  -1   9 1165.57   34.49
   1  -1   9 1272.89   42.58
   1  -1  10   29.94   24.54
  -1   1 -10   27.55    8.30
   1  -1  11 1646.43   46.51
  -1   1 -11 1642.16   31.72
   1  -1  12  151.10   20.83
  -1   1 -12  135.17    7.42
   1  -1  13  197.86   24.16
  -1   1 -13  159.31   11.18
   1  -1  14   -9.25   20.44
   1  -1  15   40.12   35.84
   1   0 -15   23.49   48.70
  -1   0  15   -7.08   21.48
   1   0 -14   31.94   33.34
  -1   0  14   57.98   15.10
   1   0 -13   21.41   32.28
  -1   0  13    4.41   12.27
   1   0 -12 1335.49   65.07
  -1   0  12 1497.30   38.76
   1   0 -11 5555.76  165.61
  -1   0  11 5723.09  115.97
   1   0 -10  814.74   95.46
  -1   0  10  822.64   29.66
   1   0  -9  351.47   54.22
  -1   0   9  398.96   14.82
  -1   0   9  448.21   66.09
   1   0  -8  188.27   88.82
  -1   0   8  170.91   55.53
   1   0  -7   93.58   47.64
  -1   0   7  137.48   58.15
   1   0  -616756.41  495.80
  -1   0   616338.44  441.44
   1   0  -5 1127.29   72.77
  -1   0   5 1238.91  128.10
   1   0  -412584.68  362.65
  -1   0   411750.34  320.97
   1   0  -3 1307.77   82.10
  -1   0   3 1369.16   88.91
   1   0  -2 6883.42  199.13
  -1   0   2 7144.94  210.53
   1   0  -133655.83  956.71
  -1   0   132795.61  680.64
  -1   0   134250.88  888.56
   1   0   0 1297.35   65.41
  -1   0   0 1286.44   21.56
  -1   0   0 1374.17   72.23
   1   0   142091.11  952.93
   1   0   141408.04 1068.18
  -1   0  -142624.11  964.57
  -1   0  -142041.14 1077.78
   1   0   2  460.26   38.43
  -1   0  -2  464.51   22.42
   1   0   3 1306.19   29.43
   1   0   3 1368.32   19.34
   1   0   3 1357.08   15.19
   1   0   419708.31  406.42
   1   0   5 5576.92  102.47
   1   0   6 9891.75  189.70
  -1   0  -6 9915.02  153.26
  -1   0  -6 9972.45  153.85
   1   0   7  358.50   18.01
  -1   0  -7  361.65    9.57
   1   0   8 2932.27   73.15
  -1   0  -8 2830.70   46.74
   1   0   9  321.74   21.27
  -1   0  -9  296.60   13.09
   1   0  10  548.97   26.14
  -1   0 -10  535.42   13.52
  -1   0 -10  524.34   12.06
   1   0  11   71.05   17.28
  -1   0 -11   60.08   10.79
  -1   0 -11   47.73    8.13
   1   0  12  694.80   42.95
  -1   0 -12  617.29   18.72
  -1   0 -12  634.98   16.91
   1   0  13   98.63   21.30
  -1   0 -13  101.20   10.88
  -1   0 -13   93.43    6.22
   1   0  14  843.66   37.58
   1   0  15  304.23   29.12
   1   0  16   25.20   23.22
   1   1 -15  254.94   33.26
  -1  -1  15  318.95   23.77
   1   1 -14  160.24   46.09
  -1  -1  14  187.67   19.11
   1   1 -13   58.43   29.73
  -1  -1  13   62.73   23.47
   1   1 -12 1849.57   89.47
  -1  -1  12 1937.97   48.04
  -1  -1  12 2006.38  111.16
   1   1 -11   23.32   29.25
  -1  -1  11   55.24  100.41
   1   1 -10 2673.71   85.42
  -1  -1  10 2930.47  138.26
   1   1  -9 8112.52  206.33
  -1  -1   9 8846.39  298.22
   1   1  -8   63.92   33.07
  -1  -1   8   21.37  101.80
   1   1  -7    1.19   27.67
  -1  -1   7  -51.53   54.92
   1   1  -6 1233.79   82.80
  -1  -1   6 1292.01   93.99
   1   1  -5 2101.40   69.87
  -1  -1   5 2118.20   98.57
   1   1  -4  568.54   40.55
  -1  -1   4  647.49  103.05
   1   1  -3   29.69   28.24
  -1  -1   3   24.72   44.03
   1   1  -2  686.54   38.29
  -1  -1   2  784.07   58.16
   1   1  -151889.03 1325.50
  -1  -1   151355.49 1351.83
   1   1   0 3340.13   73.93
  -1  -1   0 3370.29   84.96
   1   1   1 5552.96   92.50
   1   1   1 5418.55   95.83
  -1  -1  -1 5450.01   92.77
   1   1   2  525.80   18.15
   1   1   2  536.38   18.30
  -1  -1  -2  528.73   26.78
  -1  -1  -2  540.43   18.64
   1   1   310393.03  190.66
   1   1   310134.59  162.59
  -1  -1  -310418.56  200.76
  -1  -1  -310152.18  170.85
   1   1   4 3356.36   63.16
   1   1   4 3533.25   50.87
  -1  -1  -4 3385.28   63.77
  -1  -1  -4 3485.51   47.94
   1   1   5   17.82   18.50
  -1  -1  -5    6.94   10.74
  -1  -1  -5   14.88    3.67
   1   1   611815.48  233.23
  -1  -1  -611709.42  226.34
  -1  -1  -611613.57  242.83
  -1  -1  -612093.28  197.73
   1   1   7  203.59   15.94
  -1  -1  -7  213.21   13.98
  -1  -1  -7  206.25   19.69
  -1  -1  -7  207.72    6.93
   1   1   8  618.99   24.13
  -1  -1  -8  601.32   35.21
  -1  -1  -8  604.74   13.01
   1   1   9  109.43   17.03
  -1  -1  -9  109.82   15.96
  -1  -1  -9  110.09    5.36
   1   1  10   50.33   15.58
  -1  -1 -10   31.20   22.52
  -1  -1 -10   38.77    4.87
   1   1  11  498.17   25.88
  -1  -1 -11  503.08   27.08
   1   1  12   -0.14   16.31
  -1  -1 -12   -8.41   14.20
  -1  -1 -12    3.54    4.14
  -1  -1 -13  434.29   20.93
  -1  -1 -13  434.18   13.12
   1   1  14  997.31   40.55
   1   1  15    9.45   20.29
   1   1  16  590.96   35.56
   1   2 -14   19.80   23.52
  -1  -2  14   37.38   16.44
  -1  -2  14   77.14   60.32
   1   2 -13   60.96   23.57
  -1  -2  13   60.47   15.55
  -1  -2  13   63.81   72.78
   1   2 -12  334.27   50.47
  -1  -2  12  429.33  146.40
   1   2 -11 5105.11  129.97
  -1  -2  11 5674.10  229.93
   1   2 -10 2710.92   75.62
  -1  -2  10 2914.71  143.83
   1   2  -9  194.03   45.16
  -1  -2   9  265.03   81.25
   1   2  -8  664.65   62.26
  -1  -2   8  731.26   85.77
   1   2  -7   27.23   26.52
  -1  -2   7   16.82   88.85
   1   2  -6  265.12   29.89
  -1  -2   6  269.56   62.88
   1   2  -5  835.63   37.95
  -1  -2   5  846.02   62.24
   1   2  -4  121.06   34.01
  -1  -2   4  181.81   37.65
   1   2  -3 1446.31   42.01
  -1  -2   3 1528.84   59.40
   1   2  -2   11.40   26.26
  -1  -2   2   17.53   40.88
   1   2  -1103899.6 3128.33
  -1  -2   199943.83 3030.64
   1   2   0158625.9 5377.53
  -1  -2   0163719.9 5600.29
   1   2   167773.52 1773.13
  -1  -2  -165832.60 1744.44
   1   2   2 1313.42   24.29
  -1  -2  -2 1348.74   29.82
  -1  -2  -2 1381.92   28.55
   1   2   3  461.24   17.08
   1   2   3  470.48   15.59
  -1  -2  -3  468.27   17.92
  -1  -2  -3  454.22   12.91
   1   2   410748.54  211.68
   1   2   411029.43  191.71
  -1  -2  -410726.26  204.49
  -1  -2  -410910.18  189.57
   1   2   5  193.63   21.90
   1   2   5  211.22    8.22
  -1  -2  -5  218.63   22.55
  -1  -2  -5  206.96    7.23
   1   2   6  186.14   14.91
  -1  -2  -6  196.50   14.65
  -1  -2  -6  199.84    9.86
   1   2   7 1054.70   29.58
  -1  -2  -7 1053.76   28.33
  -1  -2  -7 1027.78   20.60
   1   2   8   53.69   14.41
  -1  -2  -8   53.48   12.97
  -1  -2  -8   89.45   44.37
  -1  -2  -8   53.88    5.65
   1   2   9   24.61   14.92
  -1  -2  -9   19.65   13.12
  -1  -2  -9   45.69   46.15
  -1  -2  -9   24.24    5.47
   1   2  1013495.34  294.63
  -1  -2 -1013675.42  366.56
  -1  -2 -1013945.37  256.31
   1   2  11 2389.63   59.31
  -1  -2 -11 2343.79   74.27
  -1  -2 -11 2256.43   38.06
   1   2  12  500.80   26.15
  -1  -2 -12  439.13   50.57
  -1  -2 -12  478.06   11.98
   1   2  13   31.14   17.46
  -1  -2 -13   21.85   17.27
  -1  -2 -13   21.15    5.29
  -1  -2 -14  320.90   21.00
  -1  -2 -14  324.14   12.98
   1   2  15   18.22   18.70
   1   2  16  136.94   35.91
  -1  -3  14  590.07   30.11
  -1  -3  14  663.83  104.68
   1   3 -13   21.80   31.28
  -1  -3  13   55.10   81.03
   1   3 -12   83.93   23.15
  -1  -3  12   46.03   79.76
   1   3 -11  432.57   30.56
  -1  -3  11  408.38   95.72
   1   3 -10  377.13   28.14
  -1  -3  10  415.34   84.34
   1   3  -9 1214.99   42.36
  -1  -3   9 1410.55  148.09
   1   3  -8   43.87   34.18
  -1  -3   8  -71.51  102.14
   1   3  -7  120.66   37.23
  -1  -3   7  111.06   56.90
   1   3  -6 5852.72  126.69
  -1  -3   6 6116.53  173.51
   1   3  -5   31.17   19.45
  -1  -3   5   76.58   36.35
   1   3  -412793.05  263.57
  -1  -3   412421.86  285.93
   1   3  -3   22.03   15.12
  -1  -3   3   13.76   25.63
   1   3  -2  694.38   25.71
  -1  -3   2  740.29   52.78
   1   3  -1 2497.08   50.85
  -1  -3   1 2374.05   55.11
   1   3   0 2308.68   46.12
  -1  -3   0 2303.00   50.53
   1   3   1 2034.59   38.45
  -1  -3  -1 2134.46   45.06
   1   3   2 4518.08   76.97
  -1  -3  -2 4688.55   83.86
   1   3   3 8656.99  149.34
  -1  -3  -3 8419.91  158.02
  -1  -3  -3 8564.21  158.20
   1   3   4   60.58    7.92
  -1  -3  -4   67.64   12.46
  -1  -3  -4   66.26    8.47
   1   3   5 1016.39   21.47
  -1  -3  -5 1074.54   28.40
  -1  -3  -5 1063.54   21.34
   1   3   6 5376.72  111.79
   1   3   6 5197.39   98.68
  -1  -3  -6 5325.43  104.51
  -1  -3  -6 5380.51   94.46
   1   3   7    4.12   12.00
  -1  -3  -7    2.89   12.74
  -1  -3  -7   11.72   10.78
   1   3   8 6005.87  131.87
  -1  -3  -8 6040.09  122.86
  -1  -3  -8 6014.98  102.71
   1   3   9 2500.65   58.18
  -1  -3  -9 2512.50   67.99
  -1  -3  -9 2540.97   49.19
   1   3  10 5107.42  109.93
  -1  -3 -10 5086.85  118.33
  -1  -3 -10 5066.25  146.79
  -1  -3 -10 5201.48   94.49
   1   3  11  301.91   20.72
  -1  -3 -11  295.56   19.25
  -1  -3 -11  265.35   68.23
  -1  -3 -11  283.26   14.44
   1   3  12 4541.04  114.55
  -1  -3 -12 4561.33  144.88
  -1  -3 -12 4567.19   85.21
   1   3  13  131.69   19.79
  -1  -3 -13  120.12   59.47
  -1  -3 -13  121.14   11.88
   1   3  14  521.34   28.41
  -1  -3 -14  498.57   41.15
   1   3  15   -6.25   17.47
   1   4 -13  136.18   22.60
  -1  -4  13  125.65   92.25
   1   4 -12   13.55   18.40
  -1  -4  12   47.83   81.22
   1   4 -11  331.98   25.62
  -1  -4  11  396.39   93.75
   1   4 -10  899.17   49.37
  -1  -4  10  990.86  103.63
   1   4  -9  177.82   36.98
  -1  -4   9  204.59   63.52
   1   4  -8 3190.99   93.76
  -1  -4   8 3019.92  120.66
   1   4  -7  110.82   36.56
  -1  -4   7   64.87   75.24
   1   4  -6  629.82   30.10
  -1  -4   6  695.54   81.28
   1   4  -5    6.47   17.19
  -1  -4   5    3.77   51.71
   1   4  -4 7150.91  144.32
  -1  -4   4 7066.09  193.27
   1   4  -3  535.02   24.17
  -1  -4   3  523.96   50.57
   1   4  -2   51.26   15.13
  -1  -4   2   62.43   34.65
   1   4  -115452.21  307.54
  -1  -4   115060.00  316.15
   1   4   0 1181.37   29.27
  -1  -4   0 1154.73   34.80
   1   4   1  191.75   13.80
  -1  -4  -1  189.63   17.11
   1   4   2 2113.93   40.96
  -1  -4  -2 2166.39   45.68
   1   4   3 2942.66   53.77
  -1  -4  -3 2940.14   56.26
   1   4   4  525.09   16.95
  -1  -4  -4  533.26   20.43
   1   4   5   17.44    9.93
  -1  -4  -5    1.93   12.47
  -1  -4  -5   13.11    9.52
   1   4   6 4412.16   89.70
  -1  -4  -6 4563.04   92.78
  -1  -4  -6 4570.97   82.24
   1   4   7 1650.45   38.86
  -1  -4  -7 1698.15   53.05
  -1  -4  -7 1696.88   41.79
  -1  -4  -8  869.31   29.93
  -1  -4  -8  877.55   22.23
   1   4   9    2.34   13.46
  -1  -4  -9    2.96   13.93
  -1  -4  -9    3.46    8.19
   1   4  10 6276.82  133.60
  -1  -4 -10 6198.98  133.68
  -1  -4 -10 6329.15  120.80
   1   4  11 1243.81   47.70
  -1  -4 -11 1223.74   37.18
  -1  -4 -11 1171.81   66.29
  -1  -4 -11 1246.77   32.39
   1   4  12 1545.79   56.39
  -1  -4 -12 1598.82   44.51
  -1  -4 -12 1654.84  130.43
  -1  -4 -12 1621.30   38.56
   1   4  13   41.59   25.80
  -1  -4 -13    9.21   45.00
  -1  -4 -13   18.90   12.75
   1   4  14  259.90   33.39
  -1  -4 -14  190.19   81.29
  -1  -4 -14  244.48   16.51
   1   4  15   40.96   28.27
   1   5 -12   17.85   19.49
  -1  -5  12   93.81   79.84
   1   5 -11  334.75   27.06
  -1  -5  11  363.02   95.31
   1   5 -10  938.33   37.34
  -1  -5  10  950.41   98.15
   1   5  -9  164.90   22.86
  -1  -5   9  178.09   58.65
   1   5  -8  349.28   25.66
  -1  -5   8  375.99   57.79
   1   5  -7 1251.60   40.24
  -1  -5   7 1156.64   97.78
   1   5  -6 3364.90   79.13
  -1  -5   6 3784.16  145.55
   1   5  -5  772.57   45.27
  -1  -5   5  898.56   88.38
   1   5  -4  280.98   23.07
  -1  -5   4  321.55   41.96
   1   5  -3   84.18   19.06
  -1  -5   3   79.25   30.66
   1   5  -2 3831.78   79.23
  -1  -5   2 3950.94   96.38
   1   5  -1  173.64   27.52
  -1  -5   1  140.88   25.59
   1   5   0  389.79   19.80
  -1  -5   0  379.86   26.39
   1   5   1  616.15   22.26
  -1  -5  -1  607.81   27.59
   1   5   2 3003.55   59.69
  -1  -5  -2 3043.97   65.16
   1   5   3  370.42   17.80
  -1  -5  -3  375.96   33.44
   1   5   4 2379.94   59.07
  -1  -5  -4 2407.85   54.09
  -1  -5  -4 2461.84   53.35
   1   5   5 8850.17  171.88
  -1  -5  -5 8808.24  179.87
  -1  -5  -5 8769.32  169.53
   1   5   6 1911.62   44.78
  -1  -5  -6 1974.16   49.12
  -1  -5  -6 2009.31   44.36
   1   5   7   33.29   15.16
  -1  -5  -7   50.84   15.94
  -1  -5  -7   49.19   11.98
   1   5   8   15.14   14.85
  -1  -5  -8   13.91   23.51
  -1  -5  -8    1.88   10.53
  -1  -5  -9   80.64   17.21
  -1  -5  -9   82.01   18.17
  -1  -5 -10  188.40   19.90
  -1  -5 -10  187.53   19.40
  -1  -5 -11   33.32   17.24
  -1  -5 -11   54.57   10.89
  -1  -5 -12  129.07   18.87
  -1  -5 -12  125.92   50.65
  -1  -5 -12  135.41   12.27
  -1  -5 -13  370.81   23.81
  -1  -5 -13  331.10   67.26
  -1  -5 -13  356.60   21.87
  -1  -5 -14   35.08   81.06
  -1  -5 -14    8.09   14.12
  -1  -6  11   84.03   75.63
   1   6 -10   64.75   32.93
  -1  -6  10   60.85   96.09
   1   6  -9  114.78   34.65
  -1  -6   9   47.35   99.70
   1   6  -8  398.31   41.01
  -1  -6   8  375.67   66.81
   1   6  -7 1150.27   52.50
  -1  -6   7 1170.73   75.44
   1   6  -6   69.80   18.66
  -1  -6   6   82.43   40.82
   1   6  -5  315.35   22.96
  -1  -6   5  320.78   43.36
   1   6  -4  361.39   24.44
  -1  -6   4  351.27   40.44
   1   6  -3  115.74   19.82
  -1  -6   3  117.48   31.54
   1   6  -2  207.66   21.47
  -1  -6   2  157.93   50.93
   1   6  -1 1115.75   35.11
  -1  -6   1 1195.64   49.84
   1   6   0  301.37   22.01
  -1  -6   0  292.03   31.57
   1   6   1   26.22   15.76
  -1  -6  -1   -6.70   20.84
   1   6   2 2481.99   56.04
  -1  -6  -2 2444.56   76.96
   1   6   3  958.81   30.80
  -1  -6  -3  983.91   35.82
   1   6   4   -1.59   14.05
  -1  -6  -4   10.84   14.33
  -1  -6  -4   -0.63   15.70
   1   6   5  288.68   20.06
  -1  -6  -5  306.54   21.56
  -1  -6  -5  298.86   21.53
   1   6   6   62.54   16.41
  -1  -6  -6   69.99   17.01
  -1  -6  -6   42.30   15.22
   1   6   7   24.45   16.38
  -1  -6  -7   54.01   25.52
  -1  -6  -7   49.56   13.46
   1   6   8   13.87   15.76
  -1  -6  -8   38.27   25.98
  -1  -6  -8   13.26   20.99
   1   6   9 1025.67   37.39
  -1  -6  -9 1070.06   37.52
  -1  -6  -9 1101.30   30.62
  -1  -6 -10   23.01   17.40
  -1  -6 -10   16.15   12.30
  -1  -6 -11  145.47   22.13
  -1  -6 -11  163.17   14.87
  -1  -6 -12   88.13   19.95
  -1  -6 -12   81.97   13.38
  -1  -6 -13  397.60   26.57
  -1  -6 -13  341.70   68.26
  -1  -6 -13  409.67   19.12
  -1  -6 -14 1059.20   39.32
  -1  -6 -14  924.34  100.49
  -1  -6 -14 1019.39   29.66
   1   7 -10 1125.66   43.08
  -1  -7  10 1254.84  106.85
   1   7  -9   11.83   30.41
  -1  -7   9   12.94   55.85
   1   7  -8  108.16   21.59
  -1  -7   8   80.81   52.55
   1   7  -7  214.07   23.94
  -1  -7   7  166.69   52.84
   1   7  -6  -10.52   18.61
  -1  -7   6   13.46   68.67
   1   7  -5  849.52   35.09
  -1  -7   5  914.26   62.56
   1   7  -4   10.39   28.18
  -1  -7   4    8.79   32.21
   1   7  -3  265.81   22.69
  -1  -7   3  236.37   36.88
   1   7  -2  491.18   25.88
  -1  -7   2  483.06   58.03
   1   7  -1  436.29   24.97
  -1  -7   1  476.42   38.17
   1   7   0  352.85   23.88
  -1  -7   0  358.83   31.76
   1   7   1 2069.12   51.74
  -1  -7  -1 2016.08   58.55
   1   7   2 1324.38   38.94
  -1  -7  -2 1365.51   45.90
   1   7   3 1420.67   52.00
  -1  -7  -3 1440.96   45.76
   1   7   4    4.02   15.27
  -1  -7  -4   -1.38   17.55
   1   7   5 3478.10   78.06
  -1  -7  -5 3387.91   93.12
  -1  -7  -5 3567.78   80.30
   1   7   6  282.80   22.71
  -1  -7  -6  259.58   23.37
  -1  -7  -6  290.09   22.45
   1   7   7  136.95   21.27
  -1  -7  -7  112.63   20.56
   1   7   8  346.30   27.29
  -1  -7  -8  333.29   25.48
  -1  -7  -8  352.69   22.17
   1   7   9  304.30   28.00
  -1  -7  -9  246.50   25.04
  -1  -7  -9  275.18   20.74
  -1  -7 -10  903.38   38.27
  -1  -7 -10  936.24   32.27
  -1  -7 -11   16.43   17.95
  -1  -7 -11  -10.35   13.32
  -1  -7 -12  282.72   26.61
  -1  -7 -12  286.58   19.95
  -1  -7 -13   12.61   18.89
  -1  -7 -13   14.85   13.72
   1   8  -8  322.07   28.53
  -1  -8   8  273.77   66.97
   1   8  -7   58.09   21.60
  -1  -8   7   29.95   51.01
   1   8  -6  156.22   23.85
  -1  -8   6  139.20   79.58
   1   8  -5  139.22   23.62
  -1  -8   5  111.36   49.48
   1   8  -4  301.18   42.60
  -1  -8   4  341.90   47.57
   1   8  -3   13.86   19.22
  -1  -8   3  -17.16   32.36
   1   8  -2 2163.89   59.99
  -1  -8   2 2370.11  112.46
   1   8  -1 1890.24   70.52
  -1  -8   1 1968.66   73.30
   1   8   0  -10.99   19.14
  -1  -8   0   -0.92   26.49
   1   8   1   22.74   19.03
  -1  -8  -1    2.18   27.01
   1   8   2  856.03   34.83
  -1  -8  -2  883.86   41.52
   1   8   3   45.47   19.55
  -1  -8  -3   13.35   24.48
   1   8   4 1580.64   48.54
  -1  -8  -4 1619.97   52.38
   1   8   5    7.19   31.98
  -1  -8  -5   55.21   30.62
  -1  -8  -5   46.70   22.33
   1   8   6  637.64   32.64
  -1  -8  -6  611.29   45.32
  -1  -8  -6  631.27   46.17
   1   8   7  145.88   25.37
  -1  -8  -7  194.58   36.15
  -1  -8  -7  142.90   22.80
   1   8   8 1709.36   57.66
  -1  -8  -8 1773.95   71.90
  -1  -8  -8 1790.04   52.34
   1   8   9 3339.16   94.43
  -1  -8  -9 3411.03  106.09
  -1  -8  -9 3387.06   83.57
  -1  -8 -10  188.50   25.84
  -1  -8 -10  175.42   34.07
  -1  -8 -11   83.06   23.31
  -1  -8 -11   79.58   29.19
   1   9  -6   -1.22   21.61
  -1  -9   6   64.08   74.39
   1   9  -5  692.31   37.51
  -1  -9   5  753.01   72.96
   1   9  -4  296.73   45.82
  -1  -9   4  337.29   53.67
   1   9  -3   21.15   21.24
  -1  -9   3   25.94   37.89
   1   9  -2   15.08   21.06
  -1  -9   2   -6.48   35.47
   1   9  -1    2.05   32.50
  -1  -9   1    2.86   32.80
   1   9   0  164.15   26.30
  -1  -9   0  249.59   64.97
   1   9   1  295.86   42.67
  -1  -9  -1  347.18   39.05
   1   9   2   45.59   22.82
  -1  -9  -2   53.16   49.82
   1   9   3  492.78   51.09
  -1  -9  -3  512.06   39.48
   1   9   4  416.27   32.21
  -1  -9  -4  422.80   36.22
   1   9   5  527.02   34.55
  -1  -9  -5  529.06   46.69
  -1  -9  -5  493.78   35.43
   1   9   6  209.95   43.34
  -1  -9  -6  205.99   27.03
  -1  -9  -6  199.08   28.37
   1   9   7   39.35   26.57
  -1  -9  -7   79.23   22.89
  -1  -9  -7   58.14   24.85
   1   9   8   55.08   27.53
  -1  -9  -8   51.95   23.38
  -1  -9  -8   53.57   35.32
   1   9   9  104.71   31.38
  -1  -9  -9  112.88   25.39
  -1  -9  -9  116.99   23.49
   1  10  -2   16.11   25.18
  -1 -10   2   22.33   39.70
   1  10  -1    1.62   24.34
  -1 -10   1   43.92   59.40
   1  10   0  -27.46   25.34
  -1 -10   0   -0.06   38.63
   1  10   1   51.00   27.21
  -1 -10  -1   51.05   58.68
   1  10   2 1519.32   80.13
  -1 -10  -2 1533.27   69.77
   1  10   3   90.78   28.40
  -1 -10  -3   79.52   59.26
   1  10   4  457.54   38.85
  -1 -10  -4  476.86   35.61
  -1 -10  -4  456.05   42.11
   1  10   5 1106.61   50.55
  -1 -10  -5 1107.49   66.55
  -1 -10  -5 1126.49   54.46
   1  10   6  282.53   37.27
  -1 -10  -6  341.44   47.92
  -1 -10  -6  304.51   58.46
   2  -9  -4   36.00   26.86
   2  -9  -3    0.49   37.34
   2  -9  -2   69.92   27.37
   2  -9  -1  125.73   27.61
   2  -9   0   50.83   24.38
  -2   9   0   13.83   32.78
   2  -9   1   30.50   36.46
  -2   9  -1   16.93   31.33
   2  -9   2   68.95   26.11
  -2   9  -2   76.22   33.45
   2  -9   3   19.09   25.04
  -2   9  -3   42.39   41.92
   2  -8  -8  843.40   42.80
   2  -8  -7  156.99   29.81
   2  -8  -6 1343.57   51.22
   2  -8  -5   40.74   16.22
   2  -8  -5   65.63   25.40
   2  -8  -4   47.85   24.40
   2  -8  -3  253.92   27.70
   2  -8  -2 1498.87   50.58
   2  -8  -1 1202.85   44.06
   2  -8   0  150.72   24.25
  -2   8   0  162.62   34.21
   2  -8   1   65.91   33.99
  -2   8  -1   24.23   28.04
   2  -8   2  672.56   33.69
  -2   8  -2  787.18   62.76
   2  -8   3  274.94   26.35
  -2   8  -3  286.25   30.49
   2  -8   4  379.86   28.99
  -2   8  -4  347.78   31.46
   2  -8   5    4.60   19.71
  -2   8  -5   -3.38   20.25
   2  -8   6   25.92   36.61
  -2   8  -6   13.33   33.80
   2  -8   7   33.74   41.57
  -2   8  -7   47.18   34.46
   2  -7 -10  249.29  243.00
   2  -7 -10  516.23   50.55
   2  -7  -9  306.76  120.06
   2  -7  -9  328.33   31.00
   2  -7  -8  609.40   36.59
   2  -7  -7  724.63   37.25
   2  -7  -6  671.14   23.06
   2  -7  -6  766.98   37.74
   2  -7  -5  123.55   10.87
   2  -7  -5  115.32   38.82
   2  -7  -4   59.51   21.89
   2  -7  -3  419.43   28.14
   2  -7  -2   21.96   19.15
   2  -7  -1   43.68   19.04
   2  -7   0  393.80   26.01
  -2   7   0  399.17   34.74
   2  -7   1   -0.30   28.25
  -2   7  -1   25.55   23.59
   2  -7   2  115.51   19.65
  -2   7  -2   99.34   36.99
   2  -7   3 2018.59   53.18
  -2   7  -3 1979.11   58.60
   2  -7   4 2529.73   63.58
  -2   7  -4 2495.66   66.77
   2  -7   5  144.56   21.75
  -2   7  -5  139.14   34.78
   2  -7   6   80.72   20.06
  -2   7  -6   84.26   29.61
   2  -7   7  670.15   32.98
  -2   7  -7  653.66   29.33
   2  -7   8  574.46   47.14
  -2   7  -8  523.46   27.28
   2  -7   9    2.30   22.75
  -2   7  -9   10.07   15.48
   2  -6 -11  617.45  163.52
   2  -6 -11  612.64   54.21
   2  -6 -10  204.13  126.02
   2  -6 -10  235.40   43.67
   2  -6  -9   34.53  144.89
   2  -6  -9   58.86   37.07
   2  -6  -8   61.71   91.39
   2  -6  -8   87.28   35.91
   2  -6  -7  134.10    6.11
   2  -6  -7  172.18   24.12
   2  -6  -6  353.09   13.68
   2  -6  -6  407.47   28.58
   2  -6  -5 1940.54   40.89
   2  -6  -5 2066.27   56.79
   2  -6  -4  541.44   43.69
   2  -6  -3  609.15   29.40
   2  -6  -2   -8.51   26.08
   2  -6  -1 2114.45   51.70
   2  -6   0 5249.48  107.57
   2  -6   1   46.04   25.18
  -2   6  -1   42.86   21.85
   2  -6   2 2731.22   70.59
  -2   6  -2 2604.64   79.87
   2  -6   3  751.80   26.51
  -2   6  -3  716.17   31.61
   2  -6   4 4592.54  105.84
  -2   6  -4 4580.76  101.77
   2  -6   5   13.49   22.95
  -2   6  -5   22.53   24.28
   2  -6   6  105.02   17.98
  -2   6  -6  107.89   17.05
   2  -6   7 1810.15   49.33
  -2   6  -7 1730.13   45.17
   2  -6   8   52.48   29.33
  -2   6  -8   48.52   14.31
   2  -6   9  156.42   23.91
  -2   6  -9  156.34   16.19
   2  -6  10 1878.69   78.48
  -2   6 -10 1858.09   46.68
   2  -5 -12   80.13  109.62
   2  -5 -12   18.32   22.16
   2  -5 -11  334.19  201.83
   2  -5 -11  172.16   26.36
   2  -5 -10   93.62  118.88
   2  -5 -10   90.67   24.47
   2  -5  -9   86.44   99.75
   2  -5  -9   45.44   22.67
   2  -5  -8  -65.91  115.35
   2  -5  -8    6.57   20.66
   2  -5  -7  400.37   96.95
   2  -5  -7  471.89   31.04
   2  -5  -6 1154.24   20.03
   2  -5  -6 1272.25   59.57
   2  -5  -5  477.90   12.97
   2  -5  -5  512.45   29.16
   2  -5  -413142.31  282.58
   2  -5  -3 7407.08  169.97
   2  -5  -2  164.09   20.85
   2  -5  -1   -2.50   15.30
   2  -5   0 2511.72   69.13
   2  -5   1  282.22   18.56
  -2   5  -1  275.55   26.14
   2  -5   2  467.89   20.74
  -2   5  -2  459.26   27.94
   2  -5   3 1042.08   37.07
  -2   5  -3  976.15   33.23
   2  -5   4   13.98   19.10
  -2   5  -4   13.45   14.09
   2  -5   5 1794.48   41.44
  -2   5  -5 1843.06   54.22
   2  -5   6 2367.76   51.32
  -2   5  -6 2282.75   50.72
   2  -5   7  113.68   15.70
  -2   5  -7  107.30   13.59
   2  -5   8   64.65   24.41
  -2   5  -8   53.04   12.44
   2  -5   9   -8.45   15.48
  -2   5  -9   14.59   10.41
   2  -5  10  274.48   26.09
  -2   5 -10  257.05   14.84
   2  -5  11   78.20   25.40
   2  -5  12 1410.94   53.97
   2  -4 -13  111.22  120.24
   2  -4 -13  226.44   28.91
   2  -4 -12  -31.53  105.41
   2  -4 -12   15.22   22.34
   2  -4 -11   65.23   97.78
   2  -4 -11   20.33   22.85
   2  -4 -10 1296.64  156.69
   2  -4 -10 1382.91   50.74
   2  -4  -9  807.77  141.24
   2  -4  -9  901.99   40.44
   2  -4  -8   36.65   87.89
   2  -4  -8   23.87   21.66
   2  -4  -7  126.61   89.20
   2  -4  -7  100.97   24.16
   2  -4  -6  462.11   91.63
   2  -4  -6  481.37   32.50
   2  -4  -5 4710.82  108.67
   2  -4  -4 1020.82   17.70
   2  -4  -4 1077.60   57.24
   2  -4  -3  127.85   21.78
   2  -4  -2 5609.55  131.10
   2  -4  -1   30.35   15.35
   2  -4   0  329.50   19.24
   2  -4   1  152.94   14.79
   2  -4   2   41.61   11.55
  -2   4  -2    8.59   16.72
   2  -4   3  223.74   13.89
  -2   4  -3  221.87   19.68
   2  -4   4 4099.18   75.46
  -2   4  -4 3813.78   87.21
   2  -4   5 3657.28   68.24
  -2   4  -5 3693.27   73.24
   2  -4   610186.95  194.82
  -2   4  -610018.42  204.30
   2  -4   7 1305.07   31.11
  -2   4  -7 1246.54   35.04
   2  -4   8 2483.67   52.64
  -2   4  -8 2441.72   47.42
   2  -4   9  780.46   27.99
  -2   4  -9  723.49   19.61
   2  -4  10   16.93   20.96
   2  -4  10   32.65   15.98
  -2   4 -10   19.04   12.22
   2  -4  11   94.01   23.41
   2  -4  11  110.36   41.43
   2  -4  12  186.11   29.32
   2  -4  13  338.64   34.94
   2  -3 -13  122.64  101.98
   2  -3 -13  220.08   28.97
   2  -3 -12    8.83   89.47
   2  -3 -12   -3.99   21.35
   2  -3 -11  -98.92  162.73
   2  -3 -11   41.27   39.15
   2  -3 -10  540.97  128.34
   2  -3 -10  522.31   35.93
   2  -3  -9    6.16   81.46
   2  -3  -9   -5.77   21.87
   2  -3  -8 -125.05  149.56
   2  -3  -8   38.97   23.05
   2  -3  -7  784.07  132.48
   2  -3  -7  906.51   41.30
   2  -3  -6  191.54   97.39
   2  -3  -6  257.47   30.32
   2  -3  -5  264.95  157.67
   2  -3  -5  277.49   29.58
   2  -3  -4  372.13   82.51
   2  -3  -4  418.98   29.49
   2  -3  -3 3975.76   54.59
   2  -3  -3 3933.92   87.01
   2  -3  -2   97.80   29.11
   2  -3  -1 3302.01   68.94
   2  -3   0 2885.77   58.03
   2  -3   1   23.77   10.48
   2  -3   2  494.07   16.09
   2  -3   3  148.03    9.85
   2  -3   4 1678.62   36.96
   2  -3   5 6528.87  119.36
  -2   3  -5 6478.70  120.12
   2  -3   6  469.19   14.60
  -2   3  -6  477.67   23.31
   2  -3   7 4391.72   92.08
   2  -3   7 4132.79   79.84
  -2   3  -7 4173.48   78.47
   2  -3   8 5108.50  108.68
   2  -3   8 4990.40   92.76
  -2   3  -8 4946.24   86.09
   2  -3   9   13.76   17.13
   2  -3   9    6.93   11.67
   2  -3  10  390.70   27.81
  -2   3 -10  346.28   12.93
   2  -3  11   87.16   23.29
   2  -3  11   70.49   18.71
   2  -3  12   18.66   35.54
   2  -3  13   25.65   25.95
   2  -3  14  394.66   36.41
   2  -2 -14  147.69  107.80
   2  -2 -14  123.63   28.35
   2  -2 -13   94.04   74.86
   2  -2 -12  116.51   93.06
   2  -2 -11  966.74  117.69
  -2   2  11  868.19   19.83
   2  -2 -10 1074.93  128.73
  -2   2  10 1080.25   18.99
   2  -2  -9 3742.44  271.25
   2  -2  -8 4432.17  222.94
   2  -2  -7  120.35   93.12
   2  -2  -6  -18.01   80.38
   2  -2  -5  112.00   88.83
   2  -2  -418459.35  653.54
   2  -2  -3  129.35   69.44
   2  -2  -2    4.66    3.08
   2  -2  -2   20.44   46.74
   2  -2  -1  330.02   53.21
   2  -2  -1  322.42   20.92
   2  -2   0  343.23    8.92
   2  -2   0  331.26   26.53
   2  -2   1 9031.82  162.68
   2  -2   1 8885.56  172.10
   2  -2   225098.31  527.61
   2  -2   225309.59  526.73
   2  -2   3  688.37   18.70
   2  -2   3  671.63   15.00
   2  -2   4  255.54   14.44
   2  -2   4  256.79    8.32
   2  -2   5  417.77   26.04
   2  -2   5  429.40   10.22
   2  -2   6  728.72   35.79
   2  -2   6  729.61   14.52
   2  -2   7  905.95   30.64
   2  -2   7  878.81   18.03
   2  -2   8  391.77   23.38
   2  -2   8  377.63   17.03
   2  -2   9 1502.83   44.77
   2  -2   9 1486.49   37.89
   2  -2  10   -0.42   18.37
   2  -2  11   81.48   23.04
   2  -2  12  433.18   32.28
   2  -2  13   41.67   27.24
   2  -2  14  956.08   48.91
   2  -1 -14    6.22   52.62
   2  -1 -13   -8.02   56.49
   2  -1 -12  258.72   70.80
  -2   1  12  326.54   17.93
   2  -1 -11  111.54   74.85
  -2   1  11  140.59    9.13
   2  -1 -10  132.22   67.35
  -2   1  10   64.89   10.26
   2  -1  -9  282.55   86.75
  -2   1   9  258.60   11.63
   2  -1  -8 1846.97  201.09
  -2   1   8 1849.76   30.35
   2  -1  -7  668.50  105.07
  -2   1   7  634.17   12.84
   2  -1  -5 9199.23  317.25
   2  -1  -4  358.06  133.76
   2  -1  -3  418.98   78.18
   2  -1  -2 9862.11  291.43
   2  -1  -112803.13  220.24
   2  -1  -112068.49  346.45
   2  -1   010179.91  176.31
   2  -1   0 9922.67  270.65
   2  -1   1  214.89    8.87
   2  -1   1  162.03   70.21
   2  -1   2 5327.06   94.37
   2  -1   2 5230.94  134.80
   2  -1   3 1496.43   32.69
   2  -1   3 1466.18   54.95
   2  -1   3 1473.00   30.16
   2  -1   4 1538.67   34.61
   2  -1   4 1579.53   65.91
   2  -1   4 1567.81   26.51
   2  -1   5 5522.83  107.89
   2  -1   5 5682.77  130.22
   2  -1   5 5773.41   86.98
   2  -1   6  170.11   16.91
   2  -1   6  159.43   17.39
   2  -1   6  174.99    5.84
   2  -1   7   42.06   15.19
   2  -1   8  202.59   31.88
   2  -1   9  252.40   36.28
   2  -1  10 7059.66  158.62
   2  -1  11 2251.26   64.25
   2  -1  12 1365.02   50.90
   2  -1  13   -9.18   22.97
   2  -1  14  124.42   28.32
   2  -1  15   63.82   28.72
   2   0 -14  988.62   75.72
   2   0 -13   87.82   46.43
  -2   0  13   69.86   11.46
   2   0 -12   99.41   56.04
  -2   0  12  115.84   11.26
   2   0 -11  945.15   79.80
  -2   0  11  971.76   29.24
   2   0 -10   24.66   53.64
  -2   0  10   36.32   11.73
   2   0  -9  912.71   80.47
  -2   0   9 1030.50   21.73
  -2   0   9 1076.52   98.72
   2   0  -8   60.72   60.79
  -2   0   8   12.01    5.27
  -2   0   8  -27.32   63.90
   2   0  -7 1617.23  109.69
  -2   0   7 1640.29  110.87
   2   0  -6  139.25  107.64
  -2   0   6  188.61   82.19
   2   0  -5   -1.83   59.55
  -2   0   5   23.38   63.43
   2   0  -4  924.80   88.34
  -2   0   4  935.48   94.68
   2   0  -3 3692.66  142.23
  -2   0   3 3726.94   56.00
  -2   0   3 3709.48  150.37
   2   0  -2 5578.02  240.24
  -2   0   2 5731.81   90.69
  -2   0   2 5637.98  182.40
   2   0  -1 3595.78  129.76
  -2   0   1 3613.17   57.86
  -2   0   1 3649.26  131.01
   2   0   0   35.91   40.23
  -2   0   0   41.42    7.01
  -2   0   0   28.64   44.08
   2   0   1 7296.33  127.47
  -2   0  -1 7356.05  129.67
  -2   0  -1 7545.63  196.06
   2   0   2 2423.64   51.84
   2   0   2 2353.83   69.26
  -2   0  -2 2444.48   45.66
  -2   0  -2 2544.40   74.78
   2   0   3  792.08   29.58
   2   0   3  775.30   29.97
  -2   0  -3  799.51   21.01
   2   0   4 1490.14   34.81
  -2   0  -4 1485.06   32.52
   2   0   5 2917.16   60.58
  -2   0  -5 2954.12   58.13
   2   0   6 4281.68   87.71
   2   0   7 2496.69   59.00
   2   0   8 2549.42   62.67
   2   0   9   93.21   20.42
   2   0  10    7.91   18.69
   2   0  11   19.16   21.05
   2   0  12  -11.59   33.09
   2   0  13   -5.97   22.32
   2   0  14  106.73   26.75
   2   0  15  143.09   29.72
   2   1 -14   40.46   36.79
  -2  -1  14    1.69   19.69
   2   1 -13  -22.23   41.02
  -2  -1  13   18.45   11.33
   2   1 -12  276.36   48.34
  -2  -1  12  235.82   14.74
  -2  -1  12  212.18   85.89
   2   1 -11  328.23   84.31
  -2  -1  11  339.80   15.00
  -2  -1  11  320.74   87.69
   2   1 -10   52.57   42.31
  -2  -1  10   59.20   79.85
   2   1  -9   52.30   41.17
  -2  -1   9   71.08   79.19
   2   1  -8    1.79   42.56
  -2  -1   8   -3.56   78.24
   2   1  -7   86.47   49.80
  -2  -1   7  163.06   93.44
   2   1  -6 3065.39  113.84
  -2  -1   6 3092.60  164.90
   2   1  -5 9141.41  279.17
  -2  -1   5 9278.71  305.00
   2   1  -4 2092.67  127.10
  -2  -1   4 2238.25  196.67
   2   1  -3 3462.74  147.60
  -2  -1   3 3659.75  157.17
   2   1  -2 2723.65  122.73
  -2  -1   2 2590.74  127.74
   2   1  -1 2902.06   84.87
  -2  -1   1 3089.81   57.54
  -2  -1   1 3087.30  122.24
   2   1   0 4722.30  112.29
  -2  -1   0 4715.28   87.40
  -2  -1   0 4762.80  151.78
   2   1   1  833.91   19.98
  -2  -1  -1  813.23   20.93
  -2  -1  -1  852.08   60.77
   2   1   2 4772.33   86.31
   2   1   2 4717.93   92.05
  -2  -1  -2 4836.24   96.58
  -2  -1  -2 4899.01  129.86
   2   1   3   85.26   12.23
   2   1   3   55.67   14.36
  -2  -1  -3   74.54   12.06
  -2  -1  -3   86.27   27.16
   2   1   4 3601.20   71.30
   2   1   4 3593.81   59.78
  -2  -1  -4 3605.31   71.19
  -2  -1  -4 3743.49   87.67
   2   1   5 7768.64  154.04
   2   1   5 8117.39  124.93
  -2  -1  -5 7586.65  148.70
  -2  -1  -5 8453.79  169.06
   2   1   6 3668.61   76.95
  -2  -1  -6 3550.78   72.18
   2   1   7 3183.95   70.76
  -2  -1  -7 3104.23   74.59
   2   1   8 4857.67  106.47
  -2  -1  -8 4874.72   99.97
   2   1   9  152.62   22.15
   2   1  10  743.65   33.28
   2   1  11 1363.49   45.99
   2   1  12    2.19   19.46
   2   1  13  153.08   25.59
   2   1  14   97.61   25.88
   2   1  15  417.72   52.39
   2   2 -13   -5.51   32.45
  -2  -2  13   17.21   12.32
  -2  -2  13   20.65  115.06
   2   2 -12 2219.65  124.41
  -2  -2  12 2354.65  173.39
   2   2 -11 1517.36   74.68
  -2  -2  11 1590.05  160.35
   2   2 -10 1976.97   80.17
  -2  -2  10 2202.49  167.76
   2   2  -9   32.18   59.32
  -2  -2   9   24.41   79.46
   2   2  -8  725.79   56.23
  -2  -2   8  846.33  174.70
   2   2  -7  735.64   56.05
  -2  -2   7  740.42  118.45
   2   2  -6 4367.22  126.32
  -2  -2   6 4504.40  202.56
   2   2  -5   58.01   35.79
  -2  -2   5   16.03   76.28
   2   2  -4    3.44   30.17
  -2  -2   4   38.83   60.78
   2   2  -3  887.32   47.03
  -2  -2   3 1032.84   88.89
   2   2  -2 3254.91   87.21
  -2  -2   2 3216.99  120.30
   2   2  -1 2831.23   72.69
  -2  -2   1 3242.25  151.94
   2   2   0 2113.79   73.47
  -2  -2   0 2105.69   41.13
  -2  -2   0 2089.56   76.13
   2   2   1 6017.93  118.58
  -2  -2  -1 5959.47  116.95
  -2  -2  -1 5951.95  164.42
   2   2   2    8.91   16.69
  -2  -2  -2   10.52   10.76
  -2  -2  -2    8.99   21.91
   2   2   3  303.67   16.05
   2   2   3  289.52   12.43
  -2  -2  -3  297.27   16.91
  -2  -2  -3  309.44   34.85
   2   2   412147.55  241.71
   2   2   412079.98  218.69
  -2  -2  -411895.28  249.17
  -2  -2  -412202.24  244.94
   2   2   5  987.53   29.50
   2   2   5  967.89   19.28
  -2  -2  -5  971.50   29.46
   2   2   6 3648.51   88.43
   2   2   6 3638.49   56.71
  -2  -2  -6 3608.42   76.79
  -2  -2  -6 3683.89   72.28
   2   2   7  103.16   18.48
   2   2   7   95.84    7.32
  -2  -2  -7   98.52   16.95
  -2  -2  -7  100.80   13.27
   2   2   8 1109.63   36.91
  -2  -2  -8 1100.11   45.68
  -2  -2  -8 1069.05   23.44
  -2  -2  -8 1151.75   23.69
   2   2   9  174.58   34.11
  -2  -2  -9  216.23   31.74
   2   2  10 3414.44   83.18
  -2  -2 -10 3436.81   78.43
   2   2  11  772.20   35.11
   2   2  12  247.08   25.80
   2   2  13   -5.10   20.69
   2   2  14 1312.28   67.21
   2   2  15  389.71   49.37
   2   3 -13   -7.86   28.96
  -2  -3  13    7.12  157.38
   2   3 -12 1489.47   64.57
  -2  -3  12 1698.58  165.53
   2   3 -11   96.47   50.24
  -2  -3  11   54.94   99.90
   2   3 -10 3905.74  144.62
  -2  -3  10 4370.81  318.24
   2   3  -9  752.29   48.36
  -2  -3   9  812.60  126.49
   2   3  -8  692.57   45.51
  -2  -3   8  716.83  111.53
   2   3  -7    0.03   26.95
  -2  -3   7   14.63  112.51
   2   3  -6 1824.39   67.29
  -2  -3   6 2080.43  137.15
   2   3  -5  148.30   33.59
  -2  -3   5  164.58   69.67
   2   3  -4   13.19   26.52
  -2  -3   4  -12.13   91.98
   2   3  -3 3431.49  109.60
  -2  -3   3 3381.76  121.97
   2   3  -2 4994.08  110.05
  -2  -3   2 5378.42  148.66
   2   3  -1 7772.23  162.14
  -2  -3   1 8135.81  220.84
   2   3   0   95.76   18.81
  -2  -3   0  123.21   31.56
   2   3   1 2496.89   53.55
  -2  -3  -1 2576.26   52.88
  -2  -3  -1 2659.79   72.91
   2   3   2 2753.54   54.35
  -2  -3  -2 2839.39   58.08
  -2  -3  -2 2819.35   84.90
   2   3   3   75.96   15.92
  -2  -3  -3   84.91   22.43
  -2  -3  -3   65.31   19.37
   2   3   4 2807.54   54.75
  -2  -3  -4 2804.20   60.90
  -2  -3  -4 2803.89   58.81
   2   3   5    9.24   13.16
   2   3   5    4.94   10.02
  -2  -3  -5    5.47   14.30
  -2  -3  -5   -8.14   16.95
   2   3   6 6549.94  144.31
   2   3   6 6603.15  110.98
  -2  -3  -6 6548.48  136.86
  -2  -3  -6 6669.32  122.31
   2   3   7 1103.94   35.63
   2   3   7 1098.72   26.20
  -2  -3  -7 1084.58   35.61
  -2  -3  -7 1106.59   30.51
   2   3   8  609.61   39.62
   2   3   8  591.82   20.43
  -2  -3  -8  554.74   28.50
  -2  -3  -8  571.10   16.18
   2   3   9 3050.04   73.69
  -2  -3  -9 2956.17   71.99
  -2  -3  -9 3093.46   58.15
   2   3  10    0.81   17.44
  -2  -3 -10   11.43   16.65
  -2  -3 -10   19.15   28.42
  -2  -3 -10   10.35    8.88
   2   3  11    3.01   17.94
  -2  -3 -11    6.38   16.25
  -2  -3 -11   29.53   25.12
  -2  -3 -11    4.70    4.92
   2   3  12  820.64   36.53
  -2  -3 -12  848.98   17.74
   2   3  13   82.65   23.13
   2   3  14  345.75   29.91
   2   3  15  216.32   28.55
   2   4 -12 1340.93   82.63
  -2  -4  12 1260.55  160.72
   2   4 -11  873.47   49.86
  -2  -4  11  789.89  150.79
   2   4 -10 3029.18   92.43
  -2  -4  10 3291.87  200.79
   2   4  -9  141.51   31.30
  -2  -4   9  250.83   98.44
   2   4  -8   19.13   26.02
  -2  -4   8   44.27   79.30
   2   4  -7  890.44   43.81
  -2  -4   7  924.17   97.33
   2   4  -6   33.12   26.61
  -2  -4   6  -32.70  106.80
   2   4  -5  309.56   33.52
  -2  -4   5  305.16   68.33
   2   4  -4 1365.16   51.31
  -2  -4   4 1396.74   84.69
   2   4  -3   56.35   41.41
  -2  -4   3   32.55   69.21
   2   4  -2 1522.52   48.16
  -2  -4   2 1558.30   75.02
   2   4  -119432.31  445.92
  -2  -4   118618.64  452.69
   2   4   045810.53 1146.59
  -2  -4   044211.06 1169.62
   2   4   115241.82  315.02
  -2  -4  -116118.71  366.27
   2   4   2  366.76   18.40
  -2  -4  -2  373.26   20.45
  -2  -4  -2  353.31   28.24
   2   4   3 3019.77   57.97
  -2  -4  -3 3013.26   65.09
  -2  -4  -3 2922.77   67.73
   2   4   4  123.24   18.40
  -2  -4  -4  146.16   17.84
  -2  -4  -4  138.71   19.15
   2   4   5 1415.60   29.64
  -2  -4  -5 1401.41   51.76
  -2  -4  -5 1468.28   38.58
   2   4   6  438.90   14.62
  -2  -4  -6  411.02   25.35
  -2  -4  -6  463.67   31.00
   2   4   7   66.89    9.53
  -2  -4  -7   77.99   19.00
  -2  -4  -7   65.10   12.32
   2   4   8    7.41   16.38
   2   4   8    9.82    8.75
  -2  -4  -8    3.05   17.41
  -2  -4  -8   22.36   16.10
   2   4   9 1023.97   36.12
   2   4   9 1022.94   25.43
  -2  -4  -9  993.57   37.01
  -2  -4  -9  983.03   28.65
   2   4  10 2109.12   57.52
  -2  -4 -10 2087.53   57.63
  -2  -4 -10 2050.38   39.41
   2   4  11 5975.94  153.82
  -2  -4 -11 5950.27  149.82
  -2  -4 -11 6069.07  110.07
   2   4  12   74.27   21.63
  -2  -4 -12   84.54   21.05
  -2  -4 -12   34.77   50.37
  -2  -4 -12   73.61   12.16
   2   4  13  161.35   23.93
  -2  -4 -13  145.82   22.92
   2   4  14   51.93   22.60
   2   4  15   21.63   21.98
   2   5 -11   83.45   26.86
  -2  -5  11   29.58  107.07
   2   5 -10  171.81   49.73
  -2  -5  10  134.05  160.99
   2   5  -9   45.22   44.19
  -2  -5   9   66.76   90.14
   2   5  -8  267.64   32.75
  -2  -5   8  331.60   90.06
   2   5  -7  143.04   46.48
  -2  -5   7  187.06   68.84
   2   5  -6 1106.85   64.69
  -2  -5   6 1088.69   91.57
   2   5  -5   33.72   21.77
  -2  -5   5   34.48   52.12
   2   5  -4 1627.11   52.03
  -2  -5   4 1572.78   85.25
   2   5  -3  943.09   40.54
  -2  -5   3 1263.93  109.47
   2   5  -2  605.86   48.20
  -2  -5   2  632.38   57.00
   2   5  -1  350.04   26.27
  -2  -5   1  323.33   45.09
   2   5   0 1159.17   36.96
  -2  -5   0 1150.64   76.04
   2   5   1 1487.96   54.57
  -2  -5  -1 1505.53   57.47
   2   5   2   63.69   15.94
  -2  -5  -2   42.76   24.43
   2   5   3  452.25   20.59
  -2  -5  -3  427.47   23.96
  -2  -5  -3  451.58   47.10
   2   5   4   68.77   21.47
  -2  -5  -4   91.73   28.90
  -2  -5  -4   88.90   20.65
  -2  -5  -5  -27.45   28.73
  -2  -5  -5  -14.77   26.43
   2   5   6  440.07   17.88
  -2  -5  -6  442.52   39.14
  -2  -5  -6  431.33   22.85
   2   5   7  199.26   13.96
  -2  -5  -7  222.35   22.67
  -2  -5  -7  225.19   26.95
   2   5   8  410.12   16.85
  -2  -5  -8  433.57   28.06
  -2  -5  -8  402.75   18.30
   2   5   9 5044.26  101.21
  -2  -5  -9 4919.23  116.14
  -2  -5  -9 4977.88   96.97
  -2  -5 -10 2607.68   86.97
  -2  -5 -10 2697.41   55.05
  -2  -5 -11   51.29   34.34
  -2  -5 -11   69.48   11.11
  -2  -5 -12  660.66   50.56
  -2  -5 -12  687.42   20.65
  -2  -5 -13    2.86   19.23
  -2  -5 -14  236.02   26.48
   2   6 -10   27.30   25.14
  -2  -6  10   61.82   98.46
   2   6  -9   40.30   25.10
  -2  -6   9   73.44   81.45
   2   6  -8  531.06   36.29
  -2  -6   8  569.67   90.35
   2   6  -7  427.40   33.35
  -2  -6   7  492.52   82.77
   2   6  -6  100.23   26.13
  -2  -6   6   98.75   63.36
   2   6  -5   58.80   23.72
  -2  -6   5   63.10   50.74
   2   6  -4 1463.65   49.21
  -2  -6   4 1555.81  123.69
   2   6  -3  234.00   24.08
  -2  -6   3  270.13   50.67
   2   6  -2  132.67   22.58
  -2  -6   2  133.71   43.00
  -2  -6   1 4656.00  174.71
   2   6   0  265.75   23.93
  -2  -6   0  290.59   40.00
   2   6   1    9.85   16.51
  -2  -6  -1    8.00   27.01
   2   6   2 2169.81   66.47
  -2  -6  -2 2206.46   69.51
   2   6   3   90.22   16.81
  -2  -6  -3   93.41   19.83
  -2  -6  -3   80.35   25.41
   2   6   4  242.85   17.68
  -2  -6  -4  247.08   23.59
  -2  -6  -4  243.71   27.37
   2   6   5   36.19   12.97
  -2  -6  -5   59.82   18.91
   2   6   6 3692.70   86.56
  -2  -6  -6 3779.59   91.65
  -2  -6  -6 3951.75   88.15
   2   6   7   47.11   12.97
  -2  -6  -7   61.47   21.05
  -2  -6  -7   48.08   23.42
   2   6   8  683.95   24.06
  -2  -6  -8  669.61   34.91
  -2  -6  -8  693.94   25.65
   2   6   9 1156.90   44.01
  -2  -6  -9 1168.75   44.75
  -2  -6  -9 1146.27   33.80
   2   6  10  993.97   33.66
  -2  -6 -10  946.02   42.08
  -2  -6 -10  946.21   29.65
  -2  -6 -11 2088.39   66.29
  -2  -6 -11 2111.69   49.72
  -2  -6 -12  677.46   53.21
  -2  -6 -12  705.48   24.58
  -2  -6 -13   -8.97   33.27
  -2  -6 -13    0.12   10.21
   2   7  -9   33.21   25.38
  -2  -7   9  -10.20  141.40
   2   7  -8   29.20   25.38
  -2  -7   8   85.71   73.79
   2   7  -7  359.26   33.25
  -2  -7   7  379.79   81.48
   2   7  -6 1764.65   59.77
  -2  -7   6 1723.86  149.03
   2   7  -5   15.31   39.21
  -2  -7   5  117.84   54.93
   2   7  -4  163.79   25.31
  -2  -7   4  199.21   56.07
   2   7  -3   13.59   21.15
  -2  -7   3   -7.09   65.48
   2   7  -2 1097.74   40.45
  -2  -7   2 1135.77   71.39
   2   7  -1  119.95   21.18
  -2  -7   1  112.71   38.53
   2   7   0  204.74   22.74
  -2  -7   0  213.08   39.50
   2   7   1  310.46   23.04
  -2  -7  -1  336.66   35.61
   2   7   2 2727.32   77.88
  -2  -7  -2 2933.04  108.88
   2   7   3   66.20   16.50
  -2  -7  -3   19.00   25.97
   2   7   4 3352.19   73.73
  -2  -7  -4 3406.28  100.22
  -2  -7  -4 3630.00  112.43
   2   7   5  950.86   30.84
  -2  -7  -5  950.14   54.39
  -2  -7  -5  932.49   38.74
   2   7   6  928.46   31.12
  -2  -7  -6  955.02   40.44
  -2  -7  -6  962.26   37.70
   2   7   7  490.61   23.97
  -2  -7  -7  485.59   33.04
  -2  -7  -7  534.75   43.18
   2   7   8  627.34   26.90
  -2  -7  -8  653.49   35.85
  -2  -7  -8  619.12   28.43
   2   7   9   18.11   16.44
  -2  -7  -9   -2.13   22.94
  -2  -7  -9   37.33   15.93
   2   7  10    0.26   25.92
  -2  -7 -10    7.38   23.54
  -2  -7 -10   22.89   15.25
  -2  -7 -11  476.45   35.12
  -2  -7 -11  437.53   24.02
  -2  -7 -12   35.48   25.59
  -2  -7 -12   53.72   15.19
   2   8  -7  288.42   32.11
  -2  -8   7  348.37   86.04
   2   8  -6   50.77   40.20
  -2  -8   6  -17.49   60.65
   2   8  -5   25.45   36.77
  -2  -8   5  -29.35   89.49
   2   8  -4    7.65   21.99
  -2  -8   4    9.84   51.21
   2   8  -3  309.07   29.26
  -2  -8   3  286.13   60.93
   2   8  -2  146.58   40.32
  -2  -8   2  119.68   50.76
   2   8  -1   51.73   21.75
  -2  -8   1   63.35   41.92
   2   8   0  532.35   30.42
  -2  -8   0  605.04   83.16
   2   8   1   22.18   19.49
  -2  -8  -1   53.16   33.48
   2   8   2   34.00   18.77
  -2  -8  -2   36.06   32.13
   2   8   3  284.39   23.54
  -2  -8  -3  255.79   34.96
   2   8   4  329.96   24.64
  -2  -8  -4  345.49   30.33
  -2  -8  -4  387.09   36.32
   2   8   5   25.99   28.57
  -2  -8  -5   18.47   22.13
  -2  -8  -5   37.69   23.45
   2   8   6  160.28   32.01
  -2  -8  -6  142.15   27.31
  -2  -8  -6  171.76   26.71
   2   8   7   80.88   19.01
  -2  -8  -7   89.87   26.31
  -2  -8  -7   94.40   24.35
   2   8   8   63.55   19.18
  -2  -8  -8   75.79   25.78
  -2  -8  -8   68.20   35.25
   2   8   9  -13.06   18.12
  -2  -8  -9    3.33   23.48
  -2  -8  -9   -4.37   17.52
   2   8  10  208.60   24.87
  -2  -8 -10  204.84   30.82
  -2  -8 -10  183.16   22.66
  -2  -8 -11   43.37   40.06
  -2  -8 -11   21.76   17.83
   2   9  -5   87.03   26.98
  -2  -9   5   10.09  101.91
   2   9  -4   22.09   23.59
  -2  -9   4   -8.52   56.40
   2   9  -3   32.35   24.26
  -2  -9   3   11.02   52.07
   2   9  -2   -4.44   36.09
  -2  -9   2   35.59   49.61
   2   9  -1  134.01   25.98
  -2  -9   1  158.10   50.41
   2   9   0  755.96   38.05
  -2  -9   0  780.51   65.48
   2   9   1  -13.58   21.02
  -2  -9  -1  -20.07   35.71
   2   9   2   35.70   20.78
  -2  -9  -2   45.01   37.06
   2   9   3  450.44   30.19
  -2  -9  -3  424.93   43.02
   2   9   4  579.34   46.23
  -2  -9  -4  532.51   37.76
  -2  -9  -4  579.11   45.23
   2   9   5  445.32   29.49
  -2  -9  -5  407.94   35.41
  -2  -9  -5  455.13   62.64
   2   9   6  177.20   25.16
  -2  -9  -6  163.92   29.66
  -2  -9  -6  201.27   30.93
   2   9   7   14.48   20.39
  -2  -9  -7   -1.51   24.58
  -2  -9  -7   17.97   23.37
   2   9   8    4.46   36.85
  -2  -9  -8   54.74   41.19
  -2  -9  -8   27.20   25.50
   2   9   9  114.89   40.09
  -2  -9  -9  150.25   47.87
  -2  -9  -9  158.60   28.02
   2  10  -1  264.03   33.68
  -2 -10   1  300.03   61.86
   2  10   0   57.79   26.07
  -2 -10   0   12.43   50.10
   2  10   1  170.67   45.51
  -2 -10  -1  152.52   75.69
   2  10   2    7.91   23.96
  -2 -10  -2   22.74   38.95
   2  10   3  337.99   49.27
  -2 -10  -3  302.17   35.66
  -2 -10  -3  318.11   76.86
   2  10   4  131.75   27.88
  -2 -10  -4  154.54   48.50
  -2 -10  -4  149.83   39.88
   2  10   5   28.66   24.84
  -2 -10  -5   54.91   27.97
  -2 -10  -5   32.61   34.25
   3  -8  -4  912.56   45.60
   3  -8  -3 1032.11   65.68
   3  -8  -2  397.00   32.88
   3  -8  -1   75.44   38.59
   3  -8   0   -8.47   20.85
   3  -8   1   38.46   35.43
   3  -8   2  243.61   26.41
   3  -8   3   19.03   20.44
   3  -7  -7   89.39  185.29
   3  -7  -7  151.60   32.15
   3  -7  -6  -22.11   97.37
   3  -7  -6   -2.11   41.65
   3  -7  -5   46.24   25.66
   3  -7  -4   25.93   23.36
   3  -7  -3   16.08   21.81
   3  -7  -2   24.99   21.56
   3  -7  -1  109.79   22.32
   3  -7   0  172.67   23.43
   3  -7   1    8.55   28.27
   3  -7   2  515.43   27.62
   3  -7   3  210.48   21.99
   3  -7   4  313.96   23.06
   3  -7   5  200.50   21.74
   3  -7   6   18.52   17.50
   3  -7   7   46.95   18.22
   3  -6  -9  823.06  198.18
   3  -6  -9  889.77   47.88
   3  -6  -8  932.60  272.08
   3  -6  -8  943.80   48.29
   3  -6  -7 -118.27  113.19
   3  -6  -7   -6.01   25.45
   3  -6  -6  532.84  198.84
   3  -6  -6  733.00   41.80
   3  -6  -5  303.43  109.67
   3  -6  -5  273.50   48.15
   3  -6  -4  232.47   27.85
   3  -6  -3  187.56   10.07
   3  -6  -3  223.81   25.87
   3  -6  -2 2534.86   83.43
   3  -6  -1 1717.47   49.75
   3  -6   0   19.85   27.47
   3  -6   1   24.42   16.25
   3  -6   2  621.26   26.37
   3  -6   3 2236.44   53.40
   3  -6   4  178.54   17.47
   3  -6   5  290.41   19.19
   3  -6   6  -10.43   13.32
   3  -6   7  497.04   27.42
   3  -6   7  501.05   32.28
   3  -6   8   -0.38   18.62
   3  -6   8   15.22   14.76
   3  -6   9   73.61   35.95
   3  -5 -10  338.06  166.40
   3  -5 -10  528.99   39.46
   3  -5  -9   71.59  195.37
   3  -5  -9   35.62   27.64
   3  -5  -8  157.84  140.42
   3  -5  -8  179.38   31.16
   3  -5  -7 1366.07  288.05
   3  -5  -7 1253.80   52.46
   3  -5  -6  301.34  131.35
   3  -5  -6  431.64   34.30
   3  -5  -5  359.34  200.50
   3  -5  -5  341.42   31.11
   3  -5  -4   63.96   80.24
   3  -5  -4   37.39   22.88
   3  -5  -3  261.33    7.12
   3  -5  -3  271.36   89.35
   3  -5  -3  279.37   25.93
   3  -5  -2   13.80    5.24
   3  -5  -2   11.91   18.70
   3  -5  -1  177.37   11.80
   3  -5  -1  152.86   32.11
   3  -5   0  386.07   13.04
   3  -5   0  390.77   23.80
   3  -5   1  308.29   13.35
   3  -5   1  304.02   19.87
   3  -5   2 2141.38   48.91
   3  -5   3  886.51   26.00
   3  -5   3  882.15   26.79
   3  -5   4 1795.77   43.93
   3  -5   4 1768.44   40.33
   3  -5   5  168.76   16.86
   3  -5   5  157.48   14.30
   3  -5   6 1978.53   51.21
   3  -5   6 1936.79   50.44
   3  -5   7  414.12   24.81
   3  -5   7  408.17   18.68
   3  -5   8  234.55   37.94
   3  -5   8  245.28   16.63
   3  -5   9  209.61   27.83
   3  -5   9  231.97   24.73
   3  -5  10  334.71   31.99
   3  -4 -11  416.95  251.76
   3  -4 -11  389.27   60.63
   3  -4 -10  455.27  148.19
   3  -4 -10  314.72   37.92
   3  -4  -9  148.09  199.87
   3  -4  -9  137.69   32.95
   3  -4  -8  193.00  116.21
   3  -4  -8   80.21   31.00
   3  -4  -7  168.67  121.21
   3  -4  -7   61.21   28.02
   3  -4  -6  739.73  153.17
   3  -4  -6  841.73   65.52
   3  -4  -5 1740.94  244.23
   3  -4  -5 1773.14   77.89
   3  -4  -4 1951.19  161.80
   3  -4  -4 2200.44   63.25
   3  -4  -3 -132.47  132.15
   3  -4  -3   24.41   21.33
   3  -4  -2  383.06    9.42
   3  -4  -2  356.73   82.62
   3  -4  -2  393.10   38.76
   3  -4  -1 2727.33   50.69
   3  -4  -1 2762.72  137.48
   3  -4  -1 2816.94   66.97
   3  -4   0 2064.64   42.35
   3  -4   0 2145.82   51.15
   3  -4   1   18.54    7.69
   3  -4   1   25.25   13.79
   3  -4   2 2441.46   49.67
   3  -4   2 2473.98   52.70
   3  -4   3 6058.79  127.01
   3  -4   3 6013.67  114.61
   3  -4   4  619.32   30.43
   3  -4   4  602.52   24.76
   3  -4   5 1135.13   33.25
   3  -4   5 1131.34   25.94
   3  -4   6  152.56   18.67
   3  -4   6  167.03   16.78
   3  -4   7  712.88   29.92
   3  -4   7  686.97   24.66
   3  -4   8  199.23   23.34
   3  -4   8  186.95   18.81
   3  -4   9  491.57   45.27
   3  -4   9  453.71   17.42
   3  -4  10  814.58   40.99
   3  -4  11  176.33   29.84
   3  -4  12 1346.78   57.24
   3  -3 -12   77.78  108.89
   3  -3 -12   21.72   51.13
   3  -3 -11  147.64  179.73
   3  -3 -11   29.67   30.00
   3  -3 -10   49.30  113.56
   3  -3 -10   67.60   31.64
   3  -3  -9   42.18  111.39
   3  -3  -9    7.83   28.46
   3  -3  -8  -28.62  105.78
   3  -3  -8   21.10   28.77
   3  -3  -7  166.16  117.39
   3  -3  -7  182.82   33.17
   3  -3  -6 2059.76  180.91
   3  -3  -6 2436.84   75.16
   3  -3  -5 2191.63  270.40
   3  -3  -5 2325.31   71.47
   3  -3  -4 9269.75  363.23
   3  -3  -4 9764.86  222.43
   3  -3  -3 5499.24  361.43
   3  -3  -3 5862.49  158.13
   3  -3  -2 1174.33   20.08
   3  -3  -2 1165.24  121.80
   3  -3  -2 1182.98   43.19
   3  -3  -1 1310.38   23.91
   3  -3  -1 1303.18  118.16
   3  -3  -1 1411.30   43.99
   3  -3   0 2516.64   49.23
   3  -3   0 2588.76   61.27
   3  -3   1   79.85    8.96
   3  -3   1   75.55   52.79
   3  -3   1   90.02   24.18
   3  -3   2  399.75   15.28
   3  -3   2  417.76   59.12
   3  -3   2  422.32   27.95
   3  -3   3   62.32   11.42
   3  -3   3   19.13   43.27
   3  -3   4  789.08   25.43
   3  -3   4  742.58   57.10
   3  -3   4  797.74   20.55
   3  -3   5  138.22   15.89
   3  -3   5  159.87   35.22
   3  -3   5  140.16    9.28
   3  -3   6  432.86   23.58
   3  -3   6  398.86   38.01
   3  -3   6  418.01   12.59
   3  -3   7  683.56   29.85
   3  -3   7  616.93   38.21
   3  -3   7  644.80   15.30
   3  -3   8   53.08   19.97
   3  -3   8   72.61   25.08
   3  -3   8   59.72    7.40
   3  -3   9   45.77   21.38
   3  -3   9   45.43   18.51
   3  -3  10  479.05   32.97
   3  -3  11  214.07   48.72
   3  -3  12  906.85   49.42
   3  -3  13   99.52   32.61
   3  -2 -12   22.06   89.23
   3  -2 -11 -274.26  194.84
   3  -2 -10 1307.81  155.49
   3  -2  -9  619.28  203.10
   3  -2  -8  216.97  115.39
   3  -2  -7  263.07  173.66
   3  -2  -6  454.28  122.43
   3  -2  -5 1402.19  155.19
   3  -2  -4 4306.81  218.18
   3  -2  -3 2601.11  169.66
   3  -2  -2 1156.56  123.95
   3  -2  -1  336.85   12.03
   3  -2  -1  329.57   93.64
   3  -2   0  345.87   14.68
   3  -2   0  332.45   83.52
   3  -2   0  337.15   24.33
   3  -2   1   56.34    8.15
   3  -2   1   51.51   61.69
   3  -2   1   66.85   27.29
   3  -2   2  894.14   23.18
   3  -2   2  922.74   82.71
   3  -2   2  920.67   27.67
   3  -2   3 1530.09   42.77
   3  -2   3 1544.16   88.02
   3  -2   3 1528.10   40.15
   3  -2   4  362.57   18.46
   3  -2   4  383.19   53.11
   3  -2   4  361.14   13.36
   3  -2   5 6574.28  137.03
   3  -2   5 6639.04  182.24
   3  -2   5 6678.88  114.08
   3  -2   610237.34  220.64
   3  -2   611101.24  284.09
   3  -2   610399.78  185.94
   3  -2   7  930.80   35.32
   3  -2   7 1015.56   55.56
   3  -2   7  948.83   16.72
   3  -2   8 2770.21   56.75
   3  -2   8 3051.27   47.31
   3  -2   9  262.83   26.44
   3  -2  10   29.87   22.59
   3  -2  11  136.54   43.67
   3  -2  12   41.89   26.98
   3  -2  13   15.46   28.91
   3  -1 -12  116.23   79.16
   3  -1 -11   70.34   75.21
   3  -1 -10  200.22   94.90
   3  -1  -9  231.86   95.11
   3  -1  -8   85.31   96.91
   3  -1  -7  236.12   98.54
   3  -1  -6 1776.95  210.17
   3  -1  -5 1178.26  134.35
   3  -1  -4   59.33   89.67
   3  -1  -3  506.76  104.01
   3  -1  -2 3774.10  185.62
   3  -1  -1  -14.36   68.96
   3  -1   0 1447.96   27.23
   3  -1   0 1357.30  103.07
   3  -1   1 1365.38   32.83
   3  -1   1 1359.36   92.90
   3  -1   2 2622.47   51.53
   3  -1   2 2609.26  113.39
   3  -1   3  123.49   19.71
   3  -1   3   95.27   46.54
   3  -1   3  139.41   13.43
   3  -1   4 5564.38  112.36
   3  -1   4 5319.65  145.32
   3  -1   4 5861.56  109.78
   3  -1   5 1298.85   68.34
   3  -1   5 1165.78   25.99
   3  -1   6   96.36   18.22
   3  -1   6   72.18   17.78
   3  -1   6   96.07    7.20
   3  -1   7 4898.48  108.33
   3  -1   7 4720.07   78.16
   3  -1   7 4787.14   68.96
   3  -1   8 3347.77   81.68
   3  -1   9  549.42   31.90
   3  -1  10   25.92   22.55
   3  -1  11  264.54   47.21
   3  -1  12   12.76   40.41
   3  -1  13  -13.46   29.18
   3  -1  14   48.85   31.54
   3   0 -12   60.85   68.21
   3   0 -11  182.22   72.31
   3   0 -10 2420.29  179.71
   3   0  -9 1801.27  123.69
  -3   0   9 1825.63   32.53
   3   0  -8 1196.69  100.05
  -3   0   8 1158.98   19.71
   3   0  -7  617.90  150.93
  -3   0   7  546.19  103.13
   3   0  -6  300.70   84.86
  -3   0   6  277.72    6.86
  -3   0   6  249.18   88.91
   3   0  -5 1435.48  118.08
  -3   0   5 1535.13   26.33
  -3   0   5 1541.47  120.99
   3   0  -4  879.63  102.08
  -3   0   4  949.98  102.77
   3   0  -3 5084.18  243.76
  -3   0   3 4343.32  181.60
   3   0  -2  585.99  142.35
  -3   0   2  588.62   81.99
   3   0  -1  346.44  113.31
  -3   0   1  274.13   65.66
   3   0   0  551.73  107.23
  -3   0   0  576.26   21.41
  -3   0   0  533.42   67.65
   3   0   1 5107.10   93.13
   3   0   1 4704.74  174.15
  -3   0  -1 5218.34   95.13
  -3   0  -1 5427.57  165.24
   3   0   2 4896.70   91.99
   3   0   2 4828.54  133.04
  -3   0  -2 5010.74   92.82
   3   0   3  959.80   35.11
   3   0   3  957.22   61.63
  -3   0  -3  975.01   27.14
   3   0   4  414.49   20.79
  -3   0  -4  410.10   18.29
   3   0   5  644.66   26.38
   3   0   5  600.60   22.41
  -3   0  -5  653.85   23.61
   3   0   6 1046.43   35.21
   3   0   6 1019.03   23.13
   3   0   6 1048.31   16.90
   3   0   7  303.81   24.78
   3   0   8 1088.94   53.51
   3   0   9  426.71   43.89
   3   0  10   65.05   37.58
   3   0  11  -11.00   37.01
   3   0  12  451.69   55.22
   3   0  13  550.10   42.05
   3   0  14  150.05   34.08
   3   1 -12  -25.16   51.07
   3   1 -11  159.51   60.72
  -3  -1  11  166.77   97.68
   3   1 -10  190.63   60.08
  -3  -1  10  235.77  100.70
   3   1  -9   64.69   53.78
  -3  -1   9  121.87  169.66
   3   1  -8  352.66   70.72
  -3  -1   8  289.40  118.17
   3   1  -7  197.07   62.64
  -3  -1   7  253.07  102.30
   3   1  -6 1549.96   95.65
  -3  -1   6 1740.05  243.99
   3   1  -5  569.91   71.47
  -3  -1   5  612.90  127.57
   3   1  -4  270.85   92.02
  -3  -1   4  213.75   13.39
  -3  -1   4  203.54  105.88
   3   1  -3  149.24   84.10
  -3  -1   3  170.09   93.83
   3   1  -2   -0.24   65.45
  -3  -1   2  -56.98  126.56
   3   1  -1 1420.45   71.95
  -3  -1   1 1553.98   32.21
  -3  -1   1 1542.82  173.65
   3   1   0 4253.25  120.27
  -3  -1   0 4443.57   83.51
  -3  -1   0 4162.17  229.86
   3   1   1  487.46   40.46
  -3  -1  -1  640.07  118.37
   3   1   2 2140.71   44.96
  -3  -1  -2 2114.17   46.06
  -3  -1  -2 2174.59  106.60
   3   1   3  184.71   15.19
   3   1   3  188.73   20.88
  -3  -1  -3  191.39   15.68
  -3  -1  -3  209.03   50.45
   3   1   4   -3.00   13.02
   3   1   4   -3.65   12.91
  -3  -1  -4   -6.48   19.94
  -3  -1  -4  -12.51   31.58
   3   1   5 1189.13   35.99
   3   1   5 1189.69   25.53
  -3  -1  -5 1192.21   34.69
  -3  -1  -5 1194.91   44.99
   3   1   6   38.96   16.46
   3   1   6   18.58    7.31
  -3  -1  -6   25.83   14.39
   3   1   7  554.01   28.74
  -3  -1  -7  545.47   36.33
   3   1   8 1255.24   43.78
  -3  -1  -8 1278.50   39.58
   3   1   9 2840.02   74.55
   3   1  10 3681.47   94.60
   3   1  11 1602.51   56.85
   3   1  12 1355.98   54.96
   3   1  13    7.42   26.14
   3   1  14  813.04   47.97
   3   2 -12  505.09   64.68
  -3  -2  12  618.67  120.85
   3   2 -11   83.71   47.11
  -3  -2  11   79.65  115.21
   3   2 -10  647.37   68.79
  -3  -2  10  657.22  137.83
   3   2  -9  418.20   62.99
  -3  -2   9  410.63  136.33
   3   2  -8  116.21   51.19
  -3  -2   8  222.73  118.42
   3   2  -7  245.21   52.23
  -3  -2   7  237.13  113.77
   3   2  -6  231.65   80.51
  -3  -2   6  349.04  109.47
   3   2  -5 1075.85  104.81
  -3  -2   5 1121.18  216.42
   3   2  -4  531.32   86.95
  -3  -2   4  634.75  126.26
   3   2  -3  -11.33   61.20
  -3  -2   3   91.11   86.64
   3   2  -2  703.89   52.87
  -3  -2   2  753.35   27.35
  -3  -2   2  844.69  186.44
   3   2  -1 1043.26   55.64
  -3  -2   1 1096.21   34.52
  -3  -2   1 1165.67  110.32
   3   2   0    0.47   27.08
  -3  -2   0   -5.91   16.43
  -3  -2   0   16.76   58.10
   3   2   1 3955.41   97.21
  -3  -2  -1 4013.37   80.59
  -3  -2  -1 4227.95  163.64
   3   2   2  119.78   31.20
  -3  -2  -2  124.92   14.97
  -3  -2  -2  166.55   56.33
   3   2   3  313.01   28.61
  -3  -2  -3  301.45   19.40
  -3  -2  -3  323.85   54.72
   3   2   4  214.66   18.31
   3   2   4  212.13   14.59
  -3  -2  -4  193.22   28.42
  -3  -2  -4  172.12   45.07
   3   2   5  901.38   31.74
   3   2   5  881.13   20.23
  -3  -2  -5  894.33   44.08
   3   2   6 6350.51  136.67
   3   2   6 6179.25  105.99
  -3  -2  -6 6332.82  136.55
  -3  -2  -6 6366.23  181.98
   3   2   7   15.97   17.34
   3   2   7    9.52    5.33
  -3  -2  -7   10.58   17.58
  -3  -2  -7    3.50   18.21
   3   2   8 2381.72   77.14
  -3  -2  -8 2331.89   60.53
   3   2   9  352.74   29.58
  -3  -2  -9  349.25   26.37
   3   2  10 1244.38   48.14
  -3  -2 -10 1217.92   42.23
   3   2  11  118.89   27.05
   3   2  12   28.53   26.11
   3   2  13  622.65   41.63
   3   2  14   38.82   28.46
   3   3 -11  205.97   48.08
  -3  -3  11  221.17  141.38
   3   3 -10   59.52   41.42
  -3  -3  10   -9.85  195.17
   3   3  -9  316.59   73.71
  -3  -3   9  201.95  125.37
   3   3  -8   88.85   72.89
  -3  -3   8  -11.41  180.38
   3   3  -7   61.02   41.18
  -3  -3   7   11.18  107.11
   3   3  -6 3099.50  107.63
  -3  -3   6 3247.15  210.30
   3   3  -5 1787.59   79.09
  -3  -3   5 1877.22  160.23
   3   3  -4  258.10   45.05
  -3  -3   4  177.52  108.23
   3   3  -3  172.74   70.60
  -3  -3   3  471.60   99.05
   3   3  -2 1899.90   66.20
  -3  -3   2 2090.48  137.12
   3   3  -1  255.77   34.31
  -3  -3   1  400.21  114.41
   3   3   0  913.88   62.57
  -3  -3   0  842.75   26.92
  -3  -3   0  864.00   82.51
   3   3   1 1326.24   45.40
  -3  -3  -1 1355.58   36.53
  -3  -3  -1 1496.55   87.48
   3   3   2  -22.26   17.28
  -3  -3  -2  -13.29   14.15
  -3  -3  -2   -8.93   73.04
   3   3   3  461.10   22.29
  -3  -3  -3  472.39   23.90
  -3  -3  -3  421.28   46.93
   3   3   4 1298.26   31.94
  -3  -3  -4 1343.67   39.50
  -3  -3  -4 1316.36   60.00
   3   3   5 5381.14   97.37
  -3  -3  -5 5515.79  120.31
  -3  -3  -5 5345.27  134.60
   3   3   6 1284.77   40.15
   3   3   6 1234.88   24.48
  -3  -3  -6 1212.46   40.42
  -3  -3  -6 1193.89   63.72
   3   3   7   42.42   30.88
  -3  -3  -7   21.50   32.12
  -3  -3  -7   59.91   35.21
   3   3   8   -2.63   19.73
   3   3   8   12.43    6.92
  -3  -3  -8    6.37   19.34
  -3  -3  -8   43.88   24.20
   3   3   9 3614.42   89.83
   3   3   9 3374.67   54.98
  -3  -3  -9 3492.56   86.82
   3   3  10  153.17   41.27
  -3  -3 -10  147.14   23.96
   3   3  11  222.75   30.38
  -3  -3 -11  214.13   37.99
   3   3  12  134.91   28.74
  -3  -3 -12  132.93   25.34
   3   3  13  204.95   31.53
   3   3  14  120.15   29.92
   3   4 -11 2454.67  131.94
  -3  -4  11 2530.13  228.11
   3   4 -10  302.23   46.98
  -3  -4  10  360.24  135.30
   3   4  -9   14.62   35.03
  -3  -4   9   95.17  115.90
   3   4  -8   47.87   35.72
  -3  -4   8   48.30  184.02
   3   4  -7  118.96   36.85
  -3  -4   7   88.54  113.29
   3   4  -6 1127.37   57.69
  -3  -4   6 1383.09  210.13
   3   4  -5  262.96   37.61
  -3  -4   5  288.00   98.14
   3   4  -4  550.04   42.21
  -3  -4   4  695.41  145.05
   3   4  -3   51.36   29.07
  -3  -4   3   11.34   73.24
   3   4  -2 1101.54   70.21
  -3  -4   2 1800.70  171.54
   3   4  -1  752.18   39.96
  -3  -4   1  732.17   78.31
   3   4   0 2292.77   86.26
  -3  -4   0 2287.85   54.64
  -3  -4   0 2315.24  109.65
   3   4   1  256.48   24.90
  -3  -4  -1  267.31   20.54
  -3  -4  -1  257.15   50.95
   3   4   2   47.39   17.23
  -3  -4  -2   57.79   17.22
  -3  -4  -2   72.25   41.48
   3   4   3  130.67   16.61
  -3  -4  -3  119.45   19.72
  -3  -4  -3  191.64   65.28
   3   4   4 1404.46   34.40
  -3  -4  -4 1444.18   43.86
  -3  -4  -4 1425.29   57.45
   3   4   5  242.53   14.05
  -3  -4  -5  231.56   37.89
  -3  -4  -5  245.15   31.68
   3   4   6   -0.37    7.84
  -3  -4  -6    6.78   28.79
  -3  -4  -6  -13.19   20.84
   3   4   7 1297.54   26.35
  -3  -4  -7 1290.41   45.34
  -3  -4  -7 1383.51   45.86
   3   4   8   95.17    7.74
  -3  -4  -8   92.42   22.78
  -3  -4  -8  115.78   19.31
   3   4   9  129.13   24.09
   3   4   9  109.43   12.93
  -3  -4  -9  121.21   25.18
  -3  -4  -9  114.52   16.68
   3   4  10    8.00   21.72
  -3  -4 -10   26.51   21.99
  -3  -4 -10   11.08   12.65
   3   4  11  -11.82   22.92
  -3  -4 -11  -14.23   33.35
   3   4  12  156.97   42.45
  -3  -4 -12  145.43   27.52
   3   4  13  187.78   43.39
  -3  -4 -13  154.25   28.11
   3   4  14  381.23   52.66
   3   5 -10  955.01   83.07
  -3  -5  10 1064.37  185.69
   3   5  -9 1075.75   90.07
  -3  -5   9 1107.91  170.43
   3   5  -8   58.08   57.04
  -3  -5   8  114.73  113.68
   3   5  -7   -0.90   53.17
  -3  -5   7 -143.75  101.50
   3   5  -6  242.77   59.06
  -3  -5   6  278.72  180.90
   3   5  -5  128.11   49.76
  -3  -5   5  144.35   87.24
   3   5  -4   57.09   27.48
  -3  -5   4   40.44  105.08
   3   5  -3  255.05   30.55
  -3  -5   3  247.59   71.93
   3   5  -2 1786.51   58.23
  -3  -5   2 2025.73  145.62
   3   5  -1 2976.53   94.38
  -3  -5   1 3403.04  131.38
   3   5   0  220.81   25.13
  -3  -5   0  410.76   90.54
   3   5   1   18.64   17.82
  -3  -5  -1    6.32   16.67
  -3  -5  -1   28.40   36.68
   3   5   2   21.03   28.01
  -3  -5  -2   27.25   18.08
  -3  -5  -2   18.38   35.45
   3   5   3  272.90   19.88
  -3  -5  -3  269.19   24.74
  -3  -5  -3  274.30   37.79
   3   5   4 1147.24   31.49
  -3  -5  -4 1167.56   42.01
  -3  -5  -4 1194.29   54.01
   3   5   5  579.25   28.15
  -3  -5  -5  575.32   31.75
  -3  -5  -5  599.37   39.50
   3   5   6 2328.98   47.40
  -3  -5  -6 2344.86   81.69
  -3  -5  -6 2536.75   84.80
   3   5   7    5.59    8.31
  -3  -5  -7   29.16   21.40
  -3  -5  -7  -21.91   18.22
   3   5   8  602.67   17.97
  -3  -5  -8  621.54   36.07
  -3  -5  -8  589.81   31.05
   3   5   9  191.14   11.74
  -3  -5  -9  189.48   28.07
  -3  -5  -9  220.44   22.73
   3   5  10   64.64   10.60
  -3  -5 -10   81.11   24.93
  -3  -5 -10   82.46   27.73
  -3  -5 -11   -0.31   36.54
  -3  -5 -11    7.93   13.62
  -3  -5 -12  179.67   29.51
  -3  -5 -13   73.09   27.17
   3   6  -9  171.64   35.56
  -3  -6   9  228.78  219.61
   3   6  -8   -6.46   27.24
  -3  -6   8   69.18  103.60
   3   6  -7  392.15   38.81
  -3  -6   7  294.90  180.42
   3   6  -6  -24.88   27.86
  -3  -6   6   -6.99   88.70
   3   6  -5   90.72   29.14
  -3  -6   5  120.87   77.44
   3   6  -4  153.35   30.41
  -3  -6   4  200.31   78.68
   3   6  -3  125.05   29.66
  -3  -6   3  159.63   68.85
   3   6  -2 1697.25   55.23
  -3  -6   2 1849.82  107.85
   3   6  -1 3361.45   86.09
  -3  -6   1 3317.61  126.48
   3   6   015409.25  370.81
  -3  -6   016481.15  443.59
   3   6   1 3067.77   74.64
  -3  -6  -1 3054.45   77.45
  -3  -6  -1 3016.99  106.91
   3   6   2  865.70   31.17
  -3  -6  -2  907.61   52.59
  -3  -6  -2  905.17   57.92
   3   6   3  120.45   28.11
  -3  -6  -3  173.51   24.03
  -3  -6  -3  136.34   60.75
   3   6   4  368.73   20.28
  -3  -6  -4  359.39   29.35
  -3  -6  -4  362.53   38.09
   3   6   5 1107.72   31.52
  -3  -6  -5 1152.47   45.58
  -3  -6  -5 1174.40   51.39
   3   6   6  117.86   21.70
  -3  -6  -6  126.96   26.38
  -3  -6  -6  159.86   45.36
   3   6   7   57.85   12.02
  -3  -6  -7   21.08   38.83
  -3  -6  -7   69.88   34.30
   3   6   8   21.02   10.79
  -3  -6  -8   38.27   38.44
  -3  -6  -8    1.30   19.81
   3   6   9   32.95   18.30
  -3  -6  -9   30.17   25.21
  -3  -6  -9   16.15   18.87
   3   6  10 3160.76   69.08
  -3  -6 -10 3144.80   94.73
  -3  -6 -10 3172.41   80.66
   3   6  11 2465.67   58.72
  -3  -6 -11 2462.13   81.27
  -3  -6 -11 2347.75   73.94
  -3  -6 -12   57.19   28.31
   3   7  -7  223.03   37.28
  -3  -7   7  339.59  112.19
   3   7  -6  138.56   32.79
  -3  -7   6  162.81   88.44
   3   7  -5   61.54   30.21
  -3  -7   5   44.62   80.21
   3   7  -4  560.26   61.85
  -3  -7   4  644.39   93.84
   3   7  -3  379.90   33.60
  -3  -7   3  392.53   87.04
   3   7  -2  665.74   38.29
  -3  -7   2  655.04   78.50
   3   7  -1  376.15   31.55
  -3  -7   1  470.78   65.14
   3   7   0   18.09   20.67
  -3  -7   0   62.62   44.50
   3   7   1  216.95   24.64
  -3  -7  -1  219.53   51.84
   3   7   2  232.28   22.83
  -3  -7  -2  237.38   28.35
  -3  -7  -2  232.79   69.28
   3   7   3   53.78   28.42
  -3  -7  -3  111.51   25.42
  -3  -7  -3   95.83   37.26
   3   7   4   80.97   16.82
  -3  -7  -4   63.41   26.09
  -3  -7  -4   90.71   35.25
   3   7   5  340.55   20.79
  -3  -7  -5  360.95   49.62
  -3  -7  -5  395.41   54.45
   3   7   6   13.08   13.62
  -3  -7  -6   30.31   24.40
  -3  -7  -6   17.87   25.24
   3   7   7  144.68   16.20
  -3  -7  -7  116.53   29.35
  -3  -7  -7  145.25   28.49
   3   7   8 1632.70   52.15
  -3  -7  -8 1644.72   63.24
  -3  -7  -8 1732.07   59.31
   3   7   9 1542.38   42.27
  -3  -7  -9 1531.78   60.58
  -3  -7  -9 1612.81   55.19
   3   7  10 1153.81   36.63
  -3  -7 -10 1179.10   76.59
  -3  -7 -10 1186.81   46.49
   3   7  11    1.03   22.24
  -3  -7 -11    2.42   27.51
  -3  -7 -11   -9.56   19.29
   3   8  -5   80.37   49.72
  -3  -8   5  213.25  132.85
   3   8  -4  222.21   49.59
  -3  -8   4  335.70   89.15
   3   8  -3  183.17   30.89
  -3  -8   3  153.52   72.17
   3   8  -2  510.55   36.56
  -3  -8   2  571.06   82.51
   3   8  -1  336.11   48.31
  -3  -8   1  403.72   67.80
   3   8   0  778.92   37.90
  -3  -8   0  823.34   76.88
   3   8   1   27.71   20.91
  -3  -8  -1    5.21   76.93
   3   8   2    1.05   18.03
  -3  -8  -2  -15.82   23.52
  -3  -8  -2    3.35   39.22
   3   8   3  286.06   36.75
  -3  -8  -3  266.97   31.86
  -3  -8  -3  258.20   49.84
   3   8   4   -4.69   16.03
  -3  -8  -4   -2.37   37.24
  -3  -8  -4   33.06   46.22
   3   8   5  221.99   21.28
  -3  -8  -5  242.54   31.91
  -3  -8  -5  217.63   37.55
   3   8   6  427.37   24.78
  -3  -8  -6  456.31   38.43
  -3  -8  -6  403.49   40.90
   3   8   7   96.54   17.54
  -3  -8  -7  102.74   30.51
  -3  -8  -7   93.13   31.07
  -3  -8  -8   35.16   46.48
  -3  -8  -8   59.21   44.44
   3   8   9  199.91   20.64
  -3  -8  -9  196.87   35.53
  -3  -8  -9  196.77   48.95
   3   8  10 1193.08   42.09
  -3  -8 -10 1209.52   59.18
  -3  -8 -10 1127.45   64.77
   3   9  -2  154.60   30.45
  -3  -9   2  119.32   76.26
   3   9  -1   -1.67   36.13
  -3  -9   1    6.92   55.89
   3   9   0   51.97   25.31
  -3  -9   0  102.59   59.61
   3   9   1  199.41   28.36
  -3  -9  -1  221.37   89.90
   3   9   2  221.07   27.44
  -3  -9  -2  216.80   33.38
  -3  -9  -2  247.28   54.59
   3   9   3   -3.23   31.55
  -3  -9  -3   -5.46   27.56
  -3  -9  -3  -22.29   42.71
   3   9   4  809.34   36.21
  -3  -9  -4  794.28   48.22
  -3  -9  -4  771.10   85.53
   3   9   5  681.92   33.65
  -3  -9  -5  719.17   46.84
  -3  -9  -5  668.03   54.20
   3   9   6  475.90   43.41
  -3  -9  -6  472.48   42.61
  -3  -9  -6  486.40   47.37
   3   9   7   22.73   18.42
  -3  -9  -7    2.23   47.70
  -3  -9  -7   38.33   32.25
   4  -6  -5  362.47   38.01
   4  -6  -4 1708.86  320.02
   4  -6  -4 1357.11   55.58
   4  -6  -3  599.87  150.39
   4  -6  -3  671.55   37.88
   4  -6  -2  312.43  127.18
   4  -6  -2  353.07   31.23
   4  -6  -1    7.73   93.28
   4  -6  -1   -9.30   32.99
   4  -6   0  245.95  138.07
   4  -6   0  323.21   25.59
   4  -6   1   32.34   11.31
   4  -6   1   31.00   70.78
   4  -6   1   52.75   28.18
   4  -6   2  204.70   22.77
   4  -6   2  233.84   75.40
   4  -6   2  210.74   20.18
   4  -6   3  480.13   22.84
   4  -6   3  354.75   82.71
   4  -6   4  119.75   61.67
   4  -6   4   71.62   15.86
   4  -6   5  214.58   21.81
   4  -6   5  231.80   63.83
   4  -6   5  222.75   18.22
   4  -5  -7  114.26  134.90
   4  -5  -7   22.31   47.42
   4  -5  -6   59.69  135.30
   4  -5  -6   73.66   30.49
   4  -5  -5  143.20  204.59
   4  -5  -5   17.35   27.16
   4  -5  -4  -92.62  123.60
   4  -5  -4   50.40   25.73
   4  -5  -3  -35.43  110.13
   4  -5  -3    8.65   23.64
   4  -5  -2  -64.86  170.92
   4  -5  -2   29.46   22.22
   4  -5  -1  -27.56   81.30
   4  -5  -1   -2.15   18.93
   4  -5   0   99.24    9.96
   4  -5   0   73.06   85.27
   4  -5   0   95.68   30.83
   4  -5   1  336.35   15.72
   4  -5   1  340.28   95.15
   4  -5   1  391.79   23.20
   4  -5   2   65.18   12.15
   4  -5   2   48.45   74.27
   4  -5   2   63.87   15.83
   4  -5   3    7.58   12.03
   4  -5   3   50.99  100.07
   4  -5   3    4.48   12.87
   4  -5   4  324.01   21.49
   4  -5   4  372.94  119.17
   4  -5   4  340.41   18.67
   4  -5   5    3.33   25.04
   4  -5   5   79.56   86.22
   4  -5   5   17.43   11.18
   4  -5   6  345.01   37.70
   4  -5   6  309.22   67.01
   4  -5   6  354.31   17.03
   4  -5   7   97.91   34.10
   4  -5   7   50.05   50.66
   4  -5   7   71.83   19.06
   4  -5   8   20.42   21.52
   4  -4  -8 1218.28  213.22
   4  -4  -8 1225.29   64.11
   4  -4  -7  -24.70  139.10
   4  -4  -7   41.16   34.47
   4  -4  -6  482.19  250.10
   4  -4  -6  457.25   43.23
   4  -4  -5   75.45  129.45
   4  -4  -5  156.46   52.68
   4  -4  -4  -44.55  104.72
   4  -4  -4   -7.90   25.38
   4  -4  -3 1062.41  233.48
   4  -4  -3 1110.44   48.53
   4  -4  -2 1617.21  171.80
   4  -4  -2 1857.55   60.01
   4  -4  -1  890.44  125.77
   4  -4  -1  775.20   35.03
   4  -4   0  545.30  109.53
   4  -4   0  529.51   28.15
   4  -4   1  325.41   14.48
   4  -4   1  324.97   93.21
   4  -4   1  324.42   21.80
   4  -4   2 1232.24   38.46
   4  -4   2 1221.29  169.14
   4  -4   2 1351.63   47.74
   4  -4   3  625.13  134.76
   4  -4   3  533.11   30.70
   4  -4   4  153.95   24.71
   4  -4   4  159.32  102.53
   4  -4   4  141.91   20.68
   4  -4   5   22.54   23.33
   4  -4   5   11.79   53.85
   4  -4   5   13.22    9.79
   4  -4   6   23.54   17.12
   4  -4   6   34.46   49.09
   4  -4   7  290.06   25.49
   4  -4   7  251.50   84.34
   4  -4   8   25.62   21.52
   4  -4   9    4.42   22.05
   4  -3  -9  185.39  169.20
   4  -3  -9   -6.64   33.63
   4  -3  -8  373.06  143.36
   4  -3  -8  182.89   42.45
   4  -3  -7  455.41  149.06
   4  -3  -7  484.19   46.65
   4  -3  -6 1220.00  279.31
   4  -3  -6 1138.64   59.49
   4  -3  -5  -80.11  114.18
   4  -3  -5   27.30   30.09
   4  -3  -4  325.60  125.08
   4  -3  -4  260.89   36.92
   4  -3  -3  507.60  190.73
   4  -3  -3  270.86   53.82
   4  -3  -2  313.05  106.74
   4  -3  -2  380.89   31.33
   4  -3  -1  -43.16   79.54
   4  -3  -1   31.71   21.20
   4  -3   0  467.11   14.18
   4  -3   0  442.21   94.00
   4  -3   0  498.76   40.18
   4  -3   1  117.45   10.19
   4  -3   1   84.27   72.71
   4  -3   1  129.37   18.46
   4  -3   2  109.29   12.01
   4  -3   2   73.57   65.36
   4  -3   2  108.21   15.70
   4  -3   3 1767.93   43.08
   4  -3   3 1706.25  107.31
   4  -3   3 1840.73   42.44
   4  -3   4 1211.67   34.56
   4  -3   4 1049.97   84.04
   4  -3   5   26.61   22.41
   4  -3   5  -11.80   44.04
   4  -3   5   10.98    8.37
   4  -3   6 1486.99   45.20
   4  -3   6 1443.26  113.93
   4  -3   7  369.52   26.73
   4  -3   7  320.28   47.53
   4  -3   8  355.37   30.08
   4  -3   9  130.20   26.47
   4  -3  10  189.15   29.90
   4  -3  11  316.34   36.71
   4  -2 -10  256.37  120.47
   4  -2  -9  187.91  174.78
   4  -2  -8  342.90  131.23
   4  -2  -7  175.81  118.11
   4  -2  -6 1213.85  259.37
   4  -2  -5 2471.10  196.30
   4  -2  -4  291.12  114.81
   4  -2  -3  513.22  115.66
   4  -2  -2  165.13  155.79
   4  -2  -1  933.53  114.68
   4  -2   0 3210.25   58.76
   4  -2   0 3303.65  166.94
   4  -2   0 3334.49   81.20
   4  -2   1  160.43   15.49
   4  -2   1  191.20   72.21
   4  -2   1  168.85   20.53
   4  -2   2 4094.38   86.85
   4  -2   2 3903.76  166.06
   4  -2   2 4182.82   89.72
   4  -2   3 2032.11   53.52
   4  -2   3 2025.83  152.11
   4  -2   3 2120.60   48.13
   4  -2   4 1855.72   46.12
   4  -2   4 1711.26   87.47
   4  -2   4 1881.37   40.09
   4  -2   5  460.95   33.55
   4  -2   5  449.95   50.92
   4  -2   5  499.10   21.08
   4  -2   6  340.69   23.34
   4  -2   6  315.93   38.35
   4  -2   7  147.22   22.66
   4  -2   7  113.05   23.72
   4  -2   7  151.30   10.40
   4  -2   8  443.45   30.99
   4  -2   9  214.80   29.48
   4  -2  10  811.87   44.12
   4  -2  11   56.60   29.39
   4  -2  12  772.36   49.30
   4  -1 -10   -0.73   78.34
   4  -1  -9  -29.86  129.79
   4  -1  -8    5.47   88.91
   4  -1  -7  578.14  119.54
   4  -1  -6  113.06   91.84
   4  -1  -5  155.13  168.40
   4  -1  -4 8733.03  334.57
   4  -1  -3 4467.74  212.48
   4  -1  -2   -9.86   69.73
   4  -1  -1  476.18   83.02
   4  -1   0  659.67   81.30
   4  -1   1  493.33   16.02
   4  -1   1  532.00   69.94
   4  -1   2   41.93   10.30
   4  -1   2   62.18   48.03
   4  -1   3  120.41   13.56
   4  -1   3   84.69   70.84
   4  -1   3  129.54   15.82
   4  -1   4  841.10   27.74
   4  -1   4  802.15   50.21
   4  -1   4  864.40   24.34
   4  -1   5  216.72   19.00
   4  -1   5  157.26   41.09
   4  -1   6  150.47   30.42
   4  -1   6  153.16   29.96
   4  -1   7  739.06   33.14
   4  -1   7  728.10   28.25
   4  -1   7  698.34   13.54
   4  -1   8  129.10   24.16
   4  -1   9  217.27   29.44
   4  -1  10  246.58   31.92
   4  -1  11  423.71   38.17
   4  -1  12  149.62   34.22
   4   0 -10  573.44  104.62
   4   0  -9  419.75   94.86
   4   0  -8  -40.88  132.06
   4   0  -7  -10.75   73.09
   4   0  -6  805.72  101.19
   4   0  -5 1625.84  116.62
   4   0  -4  373.45  121.83
  -4   0   4  471.06    9.84
   4   0  -3  141.74  118.99
  -4   0   3  106.02    6.28
   4   0  -2  810.79  137.33
  -4   0   2  805.56   17.51
   4   0  -1   54.28   91.08
  -4   0   1   49.76    7.48
   4   0   0  -10.36   59.43
  -4   0   0    0.99    7.50
   4   0   1  158.08   40.46
  -4   0  -1  117.12   15.85
   4   0   2    4.03   14.61
   4   0   2  -25.31   30.59
  -4   0  -2    3.45    9.36
   4   0   3  171.33   21.72
   4   0   3  137.87   46.95
  -4   0  -3  179.07   14.55
   4   0   4 1082.19   32.79
   4   0   4 1062.07   44.75
   4   0   5 3126.02   72.65
   4   0   5 3094.93   72.81
   4   0   6 9907.11  219.77
   4   0   6 9892.19  201.13
   4   0   610296.27  192.42
   4   0   7   -5.33   17.60
   4   0   7   -4.76    8.65
   4   0   7    0.95    3.53
   4   0   8 1087.06   43.54
   4   0   9  219.23   27.97
   4   0  10    7.53   23.61
   4   0  11   85.52   29.66
   4   0  12  187.45   34.87
   4   0  13  792.79   51.47
   4   1 -10  382.05   82.49
   4   1  -9   44.44   63.08
   4   1  -8   38.91   60.01
  -4  -1   8   14.18   97.51
   4   1  -7  501.45  135.25
  -4  -1   7  424.89  121.43
   4   1  -6   25.87   63.18
  -4  -1   6   62.16  139.02
   4   1  -5   58.93   60.86
  -4  -1   5   39.11   11.06
  -4  -1   5   57.74  167.18
   4   1  -4  772.95   83.53
  -4  -1   4  832.56   20.31
  -4  -1   4  872.30  132.68
   4   1  -3  502.86   69.18
  -4  -1   3  536.25   21.41
  -4  -1   3  601.89  110.17
   4   1  -2  823.47   71.69
  -4  -1   2  852.59   22.88
  -4  -1   2  814.46  113.62
   4   1  -1  177.10   49.30
  -4  -1   1  248.33   82.92
   4   1   0  880.05   92.22
  -4  -1   0  929.54   32.55
  -4  -1   0  942.94  105.00
   4   1   1  290.77   37.81
  -4  -1  -1  307.32   17.20
  -4  -1  -1  396.23   77.57
   4   1   2  683.38   42.17
  -4  -1  -2  517.66   99.79
   4   1   3   54.20   13.65
   4   1   3   49.65   23.26
  -4  -1  -3   42.64   14.36
  -4  -1  -3   77.91   42.85
   4   1   4 4541.49   97.15
   4   1   4 4322.73  110.15
  -4  -1  -4 4374.49  103.75
   4   1   5   47.42   16.97
   4   1   5   43.22   13.03
  -4  -1  -5   44.26   15.95
   4   1   6   83.22   19.82
   4   1   6   81.66   14.27
  -4  -1  -6   85.45   26.95
   4   1   7 2186.35   61.04
   4   1   7 2141.56   39.31
   4   1   7 2194.30   39.68
  -4  -1  -7 2181.89   57.75
   4   1   8 4802.17  116.83
   4   1   9   21.86   23.86
   4   1  10   30.47   25.82
   4   1  11  701.60   43.76
   4   1  12  356.66   38.24
   4   1  13   12.13   30.23
   4   2 -10 1032.45  143.87
  -4  -2  10  957.79  157.75
   4   2  -9  887.12   89.48
  -4  -2   9  988.37  176.15
   4   2  -8  971.88   86.41
  -4  -2   8 1086.69  178.60
   4   2  -7    6.29   50.35
  -4  -2   7    4.33   13.09
  -4  -2   7   46.52  109.57
   4   2  -6   83.65   56.57
  -4  -2   6  115.88   11.31
  -4  -2   6  130.20  131.97
   4   2  -5  215.82   58.23
  -4  -2   5  275.87   19.65
  -4  -2   5  373.78  133.97
   4   2  -4 1143.47   77.44
  -4  -2   4 1314.68   31.61
  -4  -2   4 1348.15  166.22
   4   2  -3  502.22   55.41
  -4  -2   3  533.83   19.16
  -4  -2   3  574.99  129.27
   4   2  -2    5.38   40.85
  -4  -2   2   58.95   11.42
  -4  -2   2  123.62  138.63
   4   2  -1  285.74   43.67
  -4  -2   1  287.06   23.34
  -4  -2   1  203.99   95.33
   4   2   0  873.08   52.42
  -4  -2   0  856.98  107.52
   4   2   1 1031.33   48.65
  -4  -2  -1 1119.96   32.92
  -4  -2  -1 1132.31  106.46
   4   2   2 1813.08   59.57
  -4  -2  -2 1926.25   58.31
  -4  -2  -2 1830.80  163.83
   4   2   3  516.31   28.07
  -4  -2  -3  534.54   25.00
  -4  -2  -3  629.99   77.73
   4   2   4  141.93   16.61
  -4  -2  -4  144.09   19.44
  -4  -2  -4  184.91   55.80
   4   2   5   -9.52   15.69
   4   2   5    7.18   10.31
  -4  -2  -5    7.44   26.40
  -4  -2  -5  -22.99   55.90
   4   2   6  193.63   34.45
   4   2   6  165.16   10.40
  -4  -2  -6  169.82   22.24
  -4  -2  -6  100.62   47.26
   4   2   7 2607.83   69.88
   4   2   7 2459.86   47.05
  -4  -2  -7 2522.86   66.14
   4   2   8   95.91   23.87
  -4  -2  -8   96.02   22.04
   4   2   9   13.63   22.31
  -4  -2  -9   -2.88   18.85
   4   2  10   39.10   25.74
  -4  -2 -10   24.98   21.83
   4   2  11   32.23   28.45
   4   2  12   23.18   28.65
   4   2  13   37.76   31.41
   4   3  -9   -6.22   71.18
  -4  -3   9   65.45  128.18
   4   3  -8  217.07   61.88
  -4  -3   8  169.34  156.61
   4   3  -7  363.85   62.68
  -4  -3   7  255.98  251.13
   4   3  -6  165.26   54.09
  -4  -3   6  213.75  125.38
   4   3  -5  646.08   64.20
  -4  -3   5  665.78   23.70
  -4  -3   5  739.13  150.26
   4   3  -4   34.55   38.44
  -4  -3   4   -0.07   11.07
  -4  -3   4  -28.50  158.09
   4   3  -3  -22.32   37.09
  -4  -3   3   10.91   11.61
  -4  -3   3   -8.35  100.13
   4   3  -2  164.09   63.89
  -4  -3   2  139.44   15.41
  -4  -3   2  130.15  100.32
   4   3  -1  490.75   40.26
  -4  -3   1  504.43   22.58
  -4  -3   1  564.52  110.82
   4   3   0 1173.52   52.10
  -4  -3   0 1226.36   45.65
  -4  -3   0 1245.71  127.53
   4   3   1  707.84   57.52
  -4  -3  -1  676.73   27.23
  -4  -3  -1  745.34  161.15
   4   3   2  123.91   21.57
  -4  -3  -2  111.49   18.19
  -4  -3  -2  111.65  107.98
   4   3   3  125.85   19.01
  -4  -3  -3  140.94   29.69
  -4  -3  -3  111.06  106.12
   4   3   4  380.79   20.01
  -4  -3  -4  359.64   25.69
  -4  -3  -4  408.33   68.62
   4   3   5   13.79   10.65
  -4  -3  -5   19.18   18.49
  -4  -3  -5   46.89   45.51
   4   3   6   17.38   12.69
  -4  -3  -6    1.11   19.81
  -4  -3  -6   33.08   62.04
   4   3   7   38.86   21.69
   4   3   7   28.76   10.04
  -4  -3  -7   28.00   21.65
  -4  -3  -7   25.65   33.78
   4   3   8  249.67   28.76
  -4  -3  -8  263.99   28.04
  -4  -3  -8  264.03   46.90
   4   3   9  385.95   48.64
  -4  -3  -9  395.09   46.40
   4   3  10 2773.68   84.69
  -4  -3 -10 2791.37   81.21
   4   3  11 1846.96   66.49
  -4  -3 -11 1750.05   61.28
   4   3  12  164.50   34.56
   4   3  13   -7.30   29.26
   4   4  -8   43.96   43.34
  -4  -4   8  299.14  138.30
   4   4  -7  350.88   78.63
  -4  -4   7  245.26  241.09
   4   4  -6  283.82   73.34
  -4  -4   6  336.56  147.40
   4   4  -5  211.47   67.64
  -4  -4   5  127.35  141.79
   4   4  -4   84.58   36.31
  -4  -4   4   89.51   17.03
  -4  -4   4  122.56  182.42
   4   4  -3   93.09   35.05
  -4  -4   3  119.13   17.48
  -4  -4   3  214.75  109.99
   4   4  -2  441.61   41.05
  -4  -4   2  451.74   24.34
  -4  -4   2  545.38  117.93
   4   4  -1   28.78   26.51
  -4  -4   1    1.44   24.14
  -4  -4   1  -54.90  132.73
   4   4   0  606.84   36.83
  -4  -4   0  658.87   28.76
  -4  -4   0  615.10  100.24
   4   4   1  600.40   33.97
  -4  -4  -1  558.67   27.86
  -4  -4  -1  597.18   93.35
   4   4   2   10.04   17.46
  -4  -4  -2    7.90   16.28
  -4  -4  -2  -10.08   60.85
   4   4   3   -4.74   22.88
  -4  -4  -3   -1.04   26.99
  -4  -4  -3  -28.76   54.69
   4   4   4   50.67   23.53
  -4  -4  -4   40.65   20.53
  -4  -4  -4   35.74   54.50
   4   4   5 1454.22   43.85
  -4  -4  -5 1560.99   51.31
  -4  -4  -5 1612.37   91.55
   4   4   6  312.28   14.61
  -4  -4  -6  351.66   42.33
  -4  -4  -6  343.55   53.36
  -4  -4  -7  951.77   43.63
  -4  -4  -7 1137.89   92.50
   4   4   8  289.55   15.43
  -4  -4  -8  320.15   31.89
  -4  -4  -8  298.04   41.83
   4   4   9    2.52    8.30
  -4  -4  -9   34.66   35.63
  -4  -4  -9  -17.70   26.59
  -4  -4 -10  158.95   30.50
   4   4  11   -5.61   26.55
  -4  -4 -11   11.12   24.80
   4   4  12   35.57   29.84
  -4  -4 -12   95.04   44.72
   4   5  -8  -24.79   39.87
  -4  -5   8   14.34  142.36
   4   5  -7   28.75   38.03
  -4  -5   7  -76.90  138.67
   4   5  -6  750.43   57.61
  -4  -5   6  962.90  175.93
   4   5  -5  834.91   56.44
  -4  -5   5  988.88  167.36
   4   5  -4   17.92   32.61
  -4  -5   4   14.21  164.49
   4   5  -3   15.00   30.18
  -4  -5   3  -13.36   97.63
   4   5  -2  848.61   66.55
  -4  -5   2  909.36   35.62
  -4  -5   2  951.78  131.13
   4   5  -1   40.46   25.49
  -4  -5   1   14.68   17.87
  -4  -5   1   22.13  114.54
   4   5   0  681.34   38.33
  -4  -5   0  690.61   45.44
  -4  -5   0  615.21   94.54
   4   5   1   -8.54   18.45
  -4  -5  -1   10.52   18.15
  -4  -5  -1   -0.48   58.00
   4   5   2  174.85   22.66
  -4  -5  -2  192.09   24.68
  -4  -5  -2  230.09   68.51
  -4  -5  -3  191.43   39.19
  -4  -5  -3  343.05  103.82
   4   5   4 1421.91   39.89
  -4  -5  -4 1454.56   52.27
  -4  -5  -4 1465.55  119.24
   4   5   5  868.32   27.39
  -4  -5  -5  857.90   42.05
  -4  -5  -5  883.58   94.83
   4   5   6  464.06   19.35
  -4  -5  -6  479.31   51.10
  -4  -5  -6  472.49   76.41
  -4  -5  -7  338.91   33.23
  -4  -5  -7  424.71   78.94
   4   5   8  764.84   21.23
  -4  -5  -8  755.34   43.77
  -4  -5  -8  753.35   55.05
   4   5   9  825.78   21.69
  -4  -5  -9  904.83   46.95
  -4  -5  -9  736.52   49.75
  -4  -5 -10  228.96   35.86
  -4  -5 -11  137.22   33.26
  -4  -5 -12   22.91   28.57
   4   6  -6  451.63   48.99
  -4  -6   6  438.23  264.37
   4   6  -5  108.95   38.23
  -4  -6   5  129.52  126.57
   4   6  -4  232.32   62.83
  -4  -6   4  367.49  131.66
   4   6  -3   54.43   29.48
  -4  -6   3   11.40   92.21
   4   6  -2   29.49   26.41
  -4  -6   2  -37.15   84.59
   4   6  -1 1685.27   61.12
  -4  -6   1 1670.13   54.51
  -4  -6   1 1795.25  137.54
   4   6   0  144.38   41.58
  -4  -6   0  162.58   24.65
  -4  -6   0   99.17   71.48
   4   6   1   96.51   24.39
  -4  -6  -1  121.28   38.05
  -4  -6  -1  163.83   63.62
   4   6   2   20.98   18.35
  -4  -6  -2   33.97   22.89
  -4  -6  -2   40.99   52.34
   4   6   3   65.70   18.59
  -4  -6  -3   54.09   25.35
  -4  -6  -3   75.39   84.46
   4   6   4  432.43   23.86
  -4  -6  -4  441.00   51.53
  -4  -6  -4  477.66   88.19
   4   6   5  811.59   28.73
  -4  -6  -5  810.10   44.19
  -4  -6  -5  858.02   65.43
  -4  -6  -6  411.30   36.44
  -4  -6  -6  468.70   52.86
  -4  -6  -7   95.93   45.12
  -4  -6  -7   57.34   38.95
   4   6   8   27.14   16.96
  -4  -6  -8   57.77   29.07
  -4  -6  -8    2.95   33.72
   4   6   9    5.76    9.62
  -4  -6  -9   -2.95   28.10
  -4  -6  -9    6.01   46.75
  -4  -6 -10   17.03   30.51
   4   7  -4  125.73   33.96
  -4  -7   4  139.42  110.04
   4   7  -3   73.45   30.90
  -4  -7   3   89.25   99.98
   4   7  -2  394.20   37.08
  -4  -7   2  370.08  141.54
   4   7  -1 1257.41   74.89
  -4  -7   1 1183.77   49.28
  -4  -7   1 1304.27  114.03
   4   7   0  115.68   26.71
  -4  -7   0  131.74   41.47
  -4  -7   0   49.59   74.03
   4   7   1  314.04   28.81
  -4  -7  -1  307.14   31.70
  -4  -7  -1  279.85  108.17
   4   7   2   49.83   20.85
  -4  -7  -2   72.55   25.71
  -4  -7  -2   40.48   56.55
   4   7   3  179.86   33.96
  -4  -7  -3  165.26   29.44
  -4  -7  -3  164.27   58.31
   4   7   4   -8.13   16.43
  -4  -7  -4  -27.23   26.81
  -4  -7  -4  -44.75   46.83
   4   7   5   88.97   17.23
  -4  -7  -5  121.45   30.47
  -4  -7  -5  105.72   65.70
   4   7   6  541.11   24.49
  -4  -7  -6  542.50   43.10
  -4  -7  -6  540.45   53.30
   4   7   7  176.61   16.87
  -4  -7  -7  193.77   34.55
  -4  -7  -7  152.87   40.41
   4   7   8   18.79   12.39
  -4  -7  -8    4.94   29.44
  -4  -7  -8   19.40   32.12
   4   7   9  307.73   26.04
  -4  -7  -9  357.70   40.60
  -4  -7  -9  329.04   63.19
   4   8  -2  326.87   36.69
  -4  -8   2  313.25  100.90
   4   8  -1 3034.10  111.80
  -4  -8   1 2974.47   92.73
  -4  -8   1 3189.26  250.99
   4   8   0 2991.21   89.83
  -4  -8   0 3127.12  118.27
  -4  -8   0 3180.69  164.30
   4   8   1  847.04   60.14
  -4  -8  -1  826.82   46.77
  -4  -8  -1  880.30   99.01
   4   8   2   65.88   23.05
  -4  -8  -2   81.74   46.16
  -4  -8  -2  116.64   64.96
   4   8   3  189.06   37.55
  -4  -8  -3  194.04   33.52
  -4  -8  -3  171.03   56.50
   4   8   4  136.27   22.15
  -4  -8  -4  175.40   53.61
   4   8   5  113.09   20.16
  -4  -8  -5   92.83   34.19
  -4  -8  -5  123.70   49.97
   4   8   6    7.67   15.57
  -4  -8  -6   10.22   29.82
  -4  -8  -6   57.07   41.53
   5  -4  -2  164.07  126.93
   5  -4  -2  207.41   50.08
   5  -4  -1  116.92  106.08
   5  -4  -1   77.10   24.01
   5  -4   0   37.47   90.15
   5  -4   0  -15.91   20.34
   5  -4   1  141.79   92.30
   5  -4   1   87.48   19.60
   5  -4   2   82.68   13.68
   5  -4   2   96.15   86.91
   5  -4   3  340.79   88.27
   5  -4   3  230.81   19.16
   5  -4   4   19.21   22.18
   5  -4   4   45.45   68.10
   5  -4   4   28.78   12.77
   5  -4   5  186.29   99.01
   5  -3  -4  -19.09  183.11
   5  -3  -4   23.31   31.23
   5  -3  -3  -60.95  104.24
   5  -3  -3    8.12   27.37
   5  -3  -2   96.15   94.70
   5  -3  -2   14.25   26.40
   5  -3  -1   87.55   94.78
   5  -3  -1   92.79   26.82
   5  -3   0  156.81   89.67
   5  -3   0  142.64   24.39
   5  -3   1    3.60   12.75
   5  -3   1   34.42   70.88
   5  -3   1   11.34   18.31
   5  -3   2   38.26   11.05
   5  -3   2   21.80   69.37
   5  -3   2   56.38   16.68
   5  -3   3   90.03   13.99
   5  -3   3   29.02   66.37
   5  -3   3   99.50   23.89
   5  -3   4  107.25   24.13
   5  -3   4   -2.45   96.10
   5  -3   5    2.36   14.80
   5  -3   5   -7.96   43.45
   5  -3   5    2.54   15.07
   5  -3   6  370.74   37.00
   5  -3   6  330.51   80.39
   5  -3   7   55.64   21.11
   5  -2  -6  499.06  129.80
   5  -2  -5  -17.91  146.98
   5  -2  -4  243.53  192.58
   5  -2  -3  346.59  117.64
   5  -2  -2 1133.67  133.53
   5  -2  -1 1267.14  128.37
   5  -2  -1 1325.17   53.01
   5  -2   0   79.19   70.51
   5  -2   0   14.73   22.39
   5  -2   1   86.07   70.00
   5  -2   1  109.07   22.01
   5  -2   2 1206.86   31.57
   5  -2   2 1162.15   99.66
   5  -2   3  588.94   22.85
   5  -2   3  644.84   98.11
   5  -2   3  641.38   26.95
   5  -2   4   48.01   21.89
   5  -2   4   22.97   41.32
   5  -2   4   36.59   12.71
   5  -2   5   24.35   15.37
   5  -2   5   21.60   54.63
   5  -2   5    9.99   10.22
   5  -2   6  118.54   30.71
   5  -2   6  123.31   29.14
   5  -2   6  109.11   15.24
   5  -2   7  118.04   22.33
   5  -2   8  -12.41   21.43
   5  -1  -6   55.63   85.59
   5  -1  -5  170.55  140.98
   5  -1  -4   31.24  141.21
   5  -1  -3   97.63   86.51
   5  -1  -2  133.24   81.02
   5  -1  -1  248.88   75.83
   5  -1   0  129.22   65.74
   5  -1   1   30.27   85.05
   5  -1   2  270.23   50.75
   5  -1   3  459.61   28.42
   5  -1   3  460.30   49.84
   5  -1   3  491.29   26.90
   5  -1   4 1077.75   42.86
   5  -1   4 1186.58   76.27
   5  -1   4 1164.45   34.28
   5  -1   5  199.82   19.95
   5  -1   5  187.94   31.65
   5  -1   5  227.86   15.03
   5  -1   6  605.16   40.71
   5  -1   6  551.65   31.15
   5  -1   6  559.22   22.52
   5  -1   7  365.55   28.20
   5  -1   8  420.52   31.25
   5  -1   9   60.32   39.65
   5   0  -7   97.78   84.39
   5   0  -6  454.15   97.63
   5   0  -5 1711.59  124.58
   5   0  -4  730.96  141.91
   5   0  -3  151.46  107.08
   5   0  -2  195.61   99.20
   5   0  -1  720.09  108.57
   5   0   0  816.33   70.53
   5   0   1   51.09   41.55
   5   0   2 3251.51  110.98
   5   0   3  919.94   48.64
   5   0   4 1196.15   36.32
   5   0   4 1158.04   50.04
   5   0   5  706.80   30.26
   5   0   5  698.70   35.16
   5   0   5  736.88   25.73
   5   0   6   10.65   25.62
   5   0   6    4.85   14.30
   5   0   6   -5.38   14.35
   5   0   7  457.13   29.36
   5   0   8  111.17   24.35
   5   0   9   32.23   39.12
   5   0  10 1057.15   50.77
   5   1  -7  319.28   82.39
   5   1  -6  197.90   75.03
   5   1  -5  730.56   87.76
   5   1  -4 3355.11  145.78
   5   1  -3 2213.89  115.01
  -5  -1   3 2310.89   47.18
   5   1  -2   31.03   47.39
  -5  -1   2   15.89    9.18
   5   1  -1  345.32   55.24
  -5  -1   1  323.62   22.57
   5   1   0  349.03   50.00
  -5  -1   0  324.31   23.12
   5   1   1  249.94   66.14
  -5  -1  -1  232.04   16.24
   5   1   2  -12.80   27.42
  -5  -1  -2   -3.88   12.26
   5   1   3   64.15   43.47
  -5  -1  -3   66.01   23.66
   5   1   4   14.39   22.38
  -5  -1  -4   62.16   15.44
   5   1   5 1240.55   40.90
   5   1   5 1251.16   39.70
  -5  -1  -5 1222.71   40.73
   5   1   6  409.47   26.14
   5   1   6  371.24   20.28
   5   1   7  712.42   35.67
   5   1   8   -6.84   22.05
   5   1   9   50.31   40.59
   5   1  10   25.98   27.41
   5   2  -6  249.09   74.81
  -5  -2   6  319.04  128.09
   5   2  -5 1031.46   89.28
  -5  -2   5  828.42  277.86
   5   2  -4  253.16   62.31
  -5  -2   4  217.22   14.85
  -5  -2   4  217.16  130.71
   5   2  -3   65.74   52.59
  -5  -2   3   61.26   12.54
  -5  -2   3   55.32  109.84
   5   2  -2  161.85   50.72
  -5  -2   2  130.94   22.11
  -5  -2   2  208.75  105.95
   5   2  -1   51.42   67.00
  -5  -2   1   49.21   92.08
   5   2   0   22.02   33.00
  -5  -2   0   -1.23   20.45
  -5  -2   0    9.60   78.96
   5   2   1   94.01   34.66
  -5  -2  -1  135.25   17.63
  -5  -2  -1  186.58   84.24
   5   2   2  175.54   52.65
  -5  -2  -2  204.91   20.33
  -5  -2  -2  238.22  127.70
   5   2   3   12.47   20.80
  -5  -2  -3    1.67   15.83
  -5  -2  -3   18.57   50.24
   5   2   4  907.20   36.20
  -5  -2  -4 1013.24   37.22
  -5  -2  -4 1001.91   77.17
   5   2   5 3018.86   70.94
  -5  -2  -5 3025.08   90.67
   5   2   6 2114.96   49.43
  -5  -2  -6 2118.36   61.58
   5   2   7  387.52   30.48
  -5  -2  -7  363.99   41.87
   5   2   8  840.69   42.28
  -5  -2  -8  854.06   40.03
   5   2   9  251.22   48.01
   5   2  10  110.17   30.73
   5   3  -6   50.80   88.77
  -5  -3   6   -2.51  135.74
   5   3  -5  217.58  100.15
  -5  -3   5  248.10   25.70
  -5  -3   5  251.37  258.26
   5   3  -4  309.90   97.31
  -5  -3   4  415.98  153.98
   5   3  -3  569.77   98.44
  -5  -3   3  552.70   33.61
  -5  -3   3  595.35  156.57
   5   3  -2   81.14   39.34
  -5  -3   2   84.29   16.26
  -5  -3   2  132.02  115.84
   5   3  -1  199.75   40.75
  -5  -3   1  203.18   19.35
  -5  -3   1  202.79  119.01
   5   3   0  455.63   44.01
  -5  -3   0  462.81   25.08
  -5  -3   0  525.64  126.06
   5   3   1   32.86   45.48
  -5  -3  -1   35.16   16.72
  -5  -3  -1   49.87   88.88
   5   3   2   67.80   24.94
  -5  -3  -2   75.84   18.79
  -5  -3  -2   18.68   85.33
  -5  -3  -3  297.68   25.90
  -5  -3  -3  360.39   90.57
   5   3   4  549.06   40.96
  -5  -3  -4  516.63   31.80
  -5  -3  -4  631.61   90.37
   5   3   5  553.63   36.05
  -5  -3  -5  625.12   34.26
  -5  -3  -5  614.94   75.94
   5   3   6  475.15   26.81
  -5  -3  -6  500.87   33.03
  -5  -3  -6  471.31   96.72
   5   3   7 1747.93   40.80
  -5  -3  -7 1786.88   60.70
  -5  -3  -8 1192.32   49.08
  -5  -3  -9  129.94   29.16
   5   3  10   78.74   30.57
  -5  -3 -10  107.02   27.20
   5   4  -5   45.33   43.17
  -5  -4   5   53.51   15.97
  -5  -4   5   37.82  217.91
   5   4  -4  548.47   55.32
  -5  -4   4  563.42   27.45
  -5  -4   4  499.23  167.82
   5   4  -3  109.22   42.28
  -5  -4   3  149.81   19.48
  -5  -4   3  195.01  130.65
   5   4  -2   96.85   38.19
  -5  -4   2  131.84   29.54
  -5  -4   2  205.79  122.11
   5   4  -1   -0.35   31.98
  -5  -4   1   24.21   16.98
  -5  -4   1   80.28  102.05
   5   4   0  111.41   47.70
  -5  -4   0   96.16   31.04
  -5  -4   0  177.47  164.01
   5   4   1  521.13   37.59
  -5  -4  -1  481.77   29.32
  -5  -4  -1  593.94  188.05
   5   4   2 1184.27   65.62
  -5  -4  -2 1152.60   57.45
  -5  -4  -2 1391.11  209.33
  -5  -4  -3    9.94   20.50
  -5  -4  -3   70.76  112.16
   5   4   4   15.94   16.03
  -5  -4  -4    8.06   21.15
  -5  -4  -4   21.50   67.39
   5   4   5  114.91   16.54
  -5  -4  -5  130.28   26.11
  -5  -4  -5  177.14   69.67
   5   4   6  140.51   14.73
  -5  -4  -6  138.41   28.10
  -5  -4  -6   71.80   93.58
   5   4   7  283.43   21.80
  -5  -4  -7  337.04   34.31
  -5  -4  -7  284.65   62.39
  -5  -4  -8  112.53   28.00
  -5  -4  -9    2.47   40.48
   5   5  -4  116.79   41.47
  -5  -5   4   66.99   21.34
   5   5  -3  174.06   42.54
  -5  -5   3  191.33   24.61
  -5  -5   3  132.57  142.83
  -5  -5   2   25.68   31.86
  -5  -5   2   95.10  121.54
   5   5  -1  385.91   59.14
  -5  -5   1  392.14   29.55
  -5  -5   1  377.38  143.19
   5   5   0  729.01   43.95
  -5  -5   0  755.53   51.85
  -5  -5   0  867.40  212.16
   5   5   1   13.60   24.79
  -5  -5  -1   20.02   21.76
  -5  -5  -1   32.50   91.30
   5   5   2   72.24   22.69
  -5  -5  -2   62.87   37.48
  -5  -5  -2  173.34   90.91
   5   5   3  271.95   39.31
  -5  -5  -3  427.67   96.45
   5   5   4   28.91   17.28
  -5  -5  -4   15.08   24.13
  -5  -5  -4   20.90   72.54
   5   5   5   66.89   16.23
  -5  -5  -5   89.05   27.29
  -5  -5  -5   78.62  107.95
   5   5   6   23.08   12.40
  -5  -5  -6    8.55   26.25
  -5  -5  -6   -7.50   64.39
   5   5   7  166.94   21.23
  -5  -5  -7  186.38   49.80
  -5  -5  -7  169.94   65.55
  -5  -5  -8   67.29   31.14
   5   6  -1  275.47   36.60
  -5  -6   1  286.75   45.44
  -5  -6   1  356.88  132.13
   5   6   0   65.00   28.10
  -5  -6   0   50.76   24.80
  -5  -6   0  -46.60  175.20
   5   6   1  223.75   44.49
  -5  -6  -1  189.70   45.21
  -5  -6  -1  197.42  162.39
   5   6   2  116.08   25.01
  -5  -6  -2  105.97   28.94
  -5  -6  -2  213.75   93.36
   5   6   3  113.70   21.68
  -5  -6  -3   92.98   43.91
  -5  -6  -3   61.36   87.36
   5   6   4  124.17   32.29
  -5  -6  -4  110.75   30.54
  -5  -6  -4  162.07   85.89
   5   6   5  236.59   20.27
  -5  -6  -5  223.59   52.48
  -5  -6  -5  275.39   85.47
   5   6   6  606.00   26.50
  -5  -6  -6  620.18   44.69
  -5  -6  -6  689.02  136.48
   0   0   0    0.00    0.00
;
_shelx_hkl_checksum              25528
loop_
_space_group_symop_operation_xyz
'x, y, z'
'-x, -y, -z'
loop_
_atom_site_label
_atom_site_type_symbol
_atom_site_fract_x
_atom_site_fract_y
_atom_site_fract_z
_atom_site_U_iso_or_equiv
_atom_site_adp_type
_atom_site_occupancy
_atom_site_site_symmetry_order
_atom_site_calc_flag
_atom_site_refinement_flags_posn
_atom_site_refinement_flags_adp
C1 C 0.0317(3) 0.74290(15) 0.23546(10) 0.0226(3) Uani 1 1 d . .
H1 H 0.091095 0.715639 0.305869 0.027 Uiso 1 1 calc R U
C2 C -0.2017(3) 0.86242(15) 0.22197(10) 0.0224(3) Uani 1 1 d . .
H2 H -0.296463 0.915850 0.283168 0.027 Uiso 1 1 calc R U
N1 N -0.3021(2) 0.90714(12) 0.12483(9) 0.0196(2) Uani 1 1 d . .
H7 H -0.452589 0.984102 0.117813 0.023 Uiso 1 1 calc R U
C3 C -0.1635(3) 0.82961(14) 0.03866(10) 0.0179(3) Uani 1 1 d . .
C4 C 0.0791(3) 0.71102(14) 0.04754(10) 0.0179(3) Uani 1 1 d . .
C5 C 0.1896(3) 0.65754(14) 0.14766(10) 0.0192(3) Uani 1 1 d . .
N2 N 0.1555(2) 0.66199(12) -0.05580(8) 0.0191(2) Uani 1 1 d . .
H8 H 0.302073 0.587767 -0.076659 0.023 Uiso 1 1 calc R U
C6 C -0.0379(3) 0.74983(14) -0.11845(11) 0.0205(3) Uani 1 1 d . .
H3 H -0.033001 0.738407 -0.193538 0.025 Uiso 1 1 calc R U
N3 N -0.2357(2) 0.85376(12) -0.06525(9) 0.0200(2) Uani 1 1 d . .
O1 O 0.4062(2) 0.54388(10) 0.15834(7) 0.0239(2) Uani 1 1 d . .
C7 C 0.6702(5) 0.2287(2) 0.48507(14) 0.0518(5) Uani 1 1 d . .
H4 H 0.622026 0.115813 0.511980 0.078 Uiso 1 1 calc R U
H5 H 0.588160 0.306835 0.538770 0.078 Uiso 1 1 calc R U
H6 H 0.884420 0.228777 0.472632 0.078 Uiso 1 1 calc R U
C8 C 0.5417(3) 0.28199(18) 0.38077(11) 0.0308(3) Uani 1 1 d . .
O2 O 0.4208(3) 0.19185(14) 0.33414(10) 0.0464(3) Uani 1 1 d . .
O3 O 0.5791(3) 0.43835(12) 0.34507(9) 0.0403(3) Uani 1 1 d . .
H9 H 0.505371 0.463417 0.286579 0.060 Uiso 1 1 calc R U
loop_
_atom_site_aniso_label
_atom_site_aniso_U_11
_atom_site_aniso_U_22
_atom_site_aniso_U_33
_atom_site_aniso_U_23
_atom_site_aniso_U_13
_atom_site_aniso_U_12
C1 0.0247(7) 0.0237(6) 0.0190(6) -0.0022(5) -0.0056(6) 0.0022(5)
C2 0.0229(7) 0.0228(6) 0.0208(6) -0.0038(5) -0.0007(5) 0.0000(5)
N1 0.0167(5) 0.0180(5) 0.0228(5) -0.0023(4) -0.0027(4) 0.0034(4)
C3 0.0168(6) 0.0156(5) 0.0213(6) -0.0006(4) -0.0038(5) -0.0016(4)
C4 0.0162(6) 0.0164(5) 0.0207(6) -0.0028(4) -0.0021(5) 0.0001(4)
C5 0.0183(6) 0.0162(5) 0.0227(6) -0.0002(4) -0.0040(5) -0.0003(4)
N2 0.0173(5) 0.0178(5) 0.0215(5) -0.0036(4) -0.0032(5) 0.0032(4)
C6 0.0186(6) 0.0206(6) 0.0220(6) -0.0027(5) -0.0036(5) 0.0008(4)
N3 0.0182(5) 0.0195(5) 0.0219(5) -0.0022(4) -0.0039(5) 0.0013(4)
O1 0.0240(5) 0.0231(4) 0.0226(5) -0.0020(3) -0.0060(4) 0.0087(4)
C7 0.0717(13) 0.0487(10) 0.0352(9) 0.0091(7) -0.0207(10) -0.0044(9)
C8 0.0340(8) 0.0307(7) 0.0247(7) -0.0031(5) -0.0017(6) 0.0068(6)
O2 0.0656(9) 0.0344(6) 0.0419(7) -0.0048(5) -0.0178(7) -0.0035(5)
O3 0.0597(8) 0.0344(6) 0.0291(6) 0.0023(4) -0.0198(6) -0.0043(5)
loop_
_atom_type_symbol
_atom_type_description
_atom_type_scat_dispersion_real
_atom_type_scat_dispersion_imag
_atom_type_scat_source
C C 0.0033 0.0016 'International Tables Vol C Tables 4.2.6.8 and 6.1.1.4'
H H 0.0000 0.0000 'International Tables Vol C Tables 4.2.6.8 and 6.1.1.4'
N N 0.0061 0.0033 'International Tables Vol C Tables 4.2.6.8 and 6.1.1.4'
O O 0.0106 0.0060 'International Tables Vol C Tables 4.2.6.8 and 6.1.1.4'
loop_
_geom_angle_atom_site_label_1
_geom_angle_atom_site_label_2
_geom_angle_atom_site_label_3
_geom_angle
C2 C1 C5 122.57(11)
C2 C1 H1 118.7
C5 C1 H1 118.7
N1 C2 C1 122.44(12)
N1 C2 H2 118.8
C1 C2 H2 118.8
C2 N1 C3 117.81(10)
C2 N1 H7 121.1
C3 N1 H7 121.1
N1 C3 N3 126.75(10)
N1 C3 C4 121.94(11)
N3 C3 C4 111.31(11)
N2 C4 C3 104.64(10)
N2 C4 C5 132.81(11)
C3 C4 C5 122.47(11)
O1 C5 C4 123.47(12)
O1 C5 C1 123.80(11)
C4 C5 C1 112.73(10)
C6 N2 C4 106.71(10)
C6 N2 H8 126.6
C4 N2 H8 126.6
N3 C6 N2 113.56(11)
N3 C6 H3 123.2
N2 C6 H3 123.2
C6 N3 C3 103.79(10)
C8 C7 H4 109.5
C8 C7 H5 109.5
H4 C7 H5 109.5
C8 C7 H6 109.5
H4 C7 H6 109.5
H5 C7 H6 109.5
O2 C8 O3 123.78(13)
O2 C8 C7 124.00(14)
O3 C8 C7 112.21(13)
C8 O3 H9 109.5
loop_
_geom_bond_atom_site_label_1
_geom_bond_atom_site_label_2
_geom_bond_distance
C1 C2 1.3700(17)
C1 C5 1.4308(18)
C1 H1 0.9500
C2 N1 1.3515(16)
C2 H2 0.9500
N1 C3 1.3539(16)
N1 H7 0.8800
C3 N3 1.3693(16)
C3 C4 1.3889(16)
C4 N2 1.3820(16)
C4 C5 1.4156(17)
C5 O1 1.2816(14)
N2 C6 1.3473(15)
N2 H8 0.8800
C6 N3 1.3261(17)
C6 H3 0.9500
C7 C8 1.500(2)
C7 H4 0.9800
C7 H5 0.9800
C7 H6 0.9800
C8 O2 1.2064(18)
C8 O3 1.3187(18)
O3 H9 0.8400
loop_
_geom_hbond_atom_site_label_D
_geom_hbond_atom_site_label_H
_geom_hbond_atom_site_label_A
_geom_hbond_distance_DH
_geom_hbond_distance_HA
_geom_hbond_distance_DA
_geom_hbond_angle_DHA
_geom_hbond_site_symmetry_A
N1 H7 N3 0.88 1.95 2.8139(14) 166.1 2_475
N2 H8 O1 0.88 1.88 2.7338(14) 164.5 2_665
O3 H9 O1 0.84 1.76 2.5862(13) 168.4 .
O3 H9 O1 0.84 1.76 2.5862(13) 168.4 .
loop_
_geom_torsion_atom_site_label_1
_geom_torsion_atom_site_label_2
_geom_torsion_atom_site_label_3
_geom_torsion_atom_site_label_4
_geom_torsion
C5 C1 C2 N1 0.8(2)
C1 C2 N1 C3 -0.10(19)
C2 N1 C3 N3 178.19(12)
C2 N1 C3 C4 -1.71(18)
N1 C3 C4 N2 179.92(11)
N3 C3 C4 N2 0.01(14)
N1 C3 C4 C5 2.96(19)
N3 C3 C4 C5 -176.95(11)
N2 C4 C5 O1 1.3(2)
C3 C4 C5 O1 177.33(11)
N2 C4 C5 C1 -178.12(13)
C3 C4 C5 C1 -2.13(17)
C2 C1 C5 O1 -179.11(12)
C2 C1 C5 C4 0.35(18)
C3 C4 N2 C6 -0.17(13)
C5 C4 N2 C6 176.34(13)
C4 N2 C6 N3 0.29(14)
N2 C6 N3 C3 -0.28(14)
N1 C3 N3 C6 -179.75(12)
C4 C3 N3 C6 0.16(14)
