#------------------------------------------------------------------------------
#$Date: 2019-11-24 13:56:51 +0200 (Sun, 24 Nov 2019) $
#$Revision: 238072 $
#$URL: file:///home/coder/svn-repositories/cod/cif/1/55/47/1554721.cif $
#------------------------------------------------------------------------------
#
# This file is available in the Crystallography Open Database (COD),
# http://www.crystallography.net/
#
# All data on this site have been placed in the public domain by the
# contributors.
#
data_1554721
loop_
_publ_author_name
'Bar\/l\'og, Maciej'
'Kulai, Ihor'
'Ji, Xiaozhou'
'Bhuvanesh, Nattamai'
'Dey, Somnath'
'Sliwinski, Eric Pierre'
'Bazzi, Hassan S.'
'Fang, Lei'
'Al-Hashimi, Mohammed'
_publ_section_title
;
 Synthesis, characterization and crystal structures of novel fluorinated
 di(thiazolyl)benzene derivatives
;
_journal_issue                   6
_journal_name_full               'Organic Chemistry Frontiers'
_journal_page_first              780
_journal_paper_doi               10.1039/C9QO00044E
_journal_volume                  6
_journal_year                    2019
_chemical_formula_moiety         'C12 H4 F4 N2 S2'
_chemical_formula_sum            'C12 H4 F4 N2 S2'
_chemical_formula_weight         316.29
_space_group_crystal_system      monoclinic
_space_group_IT_number           14
_space_group_name_Hall           '-P 2yn'
_space_group_name_H-M_alt        'P 1 21/n 1'
_atom_sites_solution_hydrogens   geom
_atom_sites_solution_primary     dual
_audit_creation_date             2018-02-23
_audit_creation_method
;
Olex2 1.2-beta
(compiled 2017.03.28 svn.r3405 for OlexSys, GUI svn.r5335)
;
_audit_update_record
;
2018-07-19 deposited with the CCDC.
2019-01-30 downloaded from the CCDC.
;
_cell_angle_alpha                90
_cell_angle_beta                 95.290(3)
_cell_angle_gamma                90
_cell_formula_units_Z            2
_cell_length_a                   3.8531(6)
_cell_length_b                   23.868(3)
_cell_length_c                   6.1210(9)
_cell_measurement_reflns_used    3829
_cell_measurement_temperature    110.0
_cell_measurement_theta_max      27.493
_cell_measurement_theta_min      3.414
_cell_volume                     560.53(14)
_computing_cell_refinement       'SAINT v8.37A (Bruker, 2015)'
_computing_data_reduction        'SAINT v8.37A (Bruker, 2015)'
_computing_molecular_graphics    'Olex2 (Dolomanov et al., 2009)'
_computing_publication_material  'Olex2 (Dolomanov et al., 2009)'
_computing_structure_refinement  'ShelXL (Sheldrick, 2015)'
_computing_structure_solution    'XT (Sheldrick, 2015)'
_diffrn_ambient_temperature      110.0
_diffrn_measured_fraction_theta_full 0.996
_diffrn_measured_fraction_theta_max 0.994
_diffrn_measurement_device_type  'Bruker APEX-II CCD'
_diffrn_measurement_method       '\f and \w scans'
_diffrn_radiation_type           MoK\a
_diffrn_radiation_wavelength     0.71073
_diffrn_reflns_av_R_equivalents  0.0496
_diffrn_reflns_av_unetI/netI     0.0323
_diffrn_reflns_Laue_measured_fraction_full 0.996
_diffrn_reflns_Laue_measured_fraction_max 0.994
_diffrn_reflns_limit_h_max       5
_diffrn_reflns_limit_h_min       -5
_diffrn_reflns_limit_k_max       31
_diffrn_reflns_limit_k_min       -30
_diffrn_reflns_limit_l_max       7
_diffrn_reflns_limit_l_min       -7
_diffrn_reflns_number            7415
_diffrn_reflns_point_group_measured_fraction_full 0.996
_diffrn_reflns_point_group_measured_fraction_max 0.994
_diffrn_reflns_theta_full        25.242
_diffrn_reflns_theta_max         27.499
_diffrn_reflns_theta_min         3.414
_diffrn_standards_number         0
_exptl_absorpt_coefficient_mu    0.517
_exptl_absorpt_correction_T_max  0.7456
_exptl_absorpt_correction_T_min  0.5486
_exptl_absorpt_correction_type   multi-scan
_exptl_absorpt_process_details
'SADABS-2014/5 (Bruker,2014/5) was used for absorption correction. wR2(int) was 0.1391 before and 0.0648 after correction. The Ratio of minimum to maximum transmission is 0.7358. The \l/2 correction factor is Not present.'
_exptl_crystal_colour            colourless
_exptl_crystal_colour_primary    colourless
_exptl_crystal_density_diffrn    1.874
_exptl_crystal_description       plate
_exptl_crystal_F_000             316
_exptl_crystal_size_max          0.9
_exptl_crystal_size_mid          0.755
_exptl_crystal_size_min          0.066
_refine_diff_density_max         0.294
_refine_diff_density_min         -0.254
_refine_diff_density_rms         0.058
_refine_ls_extinction_method     none
_refine_ls_goodness_of_fit_ref   1.079
_refine_ls_hydrogen_treatment    constr
_refine_ls_matrix_type           full
_refine_ls_number_parameters     91
_refine_ls_number_reflns         1261
_refine_ls_number_restraints     0
_refine_ls_restrained_S_all      1.079
_refine_ls_R_factor_all          0.0320
_refine_ls_R_factor_gt           0.0301
_refine_ls_shift/su_max          0.001
_refine_ls_shift/su_mean         0.000
_refine_ls_structure_factor_coef Fsqd
_refine_ls_weighting_details
'w=1/[\s^2^(Fo^2^)+(0.0296P)^2^+0.3654P] where P=(Fo^2^+2Fc^2^)/3'
_refine_ls_weighting_scheme      calc
_refine_ls_wR_factor_gt          0.0761
_refine_ls_wR_factor_ref         0.0773
_reflns_Friedel_coverage         0.000
_reflns_number_gt                1184
_reflns_number_total             1261
_reflns_threshold_expression     'I > 2\s(I)'
_cod_data_source_file            c9qo00044e2.cif
_cod_data_source_block           4f_CCDC1
_cod_database_code               1554721
_shelx_shelxl_version_number     2017/1
_shelx_space_group_comment
;
The symmetry employed for this shelxl refinement is uniquely defined
by the following loop, which should always be used as a source of
symmetry information in preference to the above space-group names.
They are only intended as comments.
;
_shelx_estimated_absorpt_t_max   0.967
_shelx_estimated_absorpt_t_min   0.653
_olex2_refinement_description
;
1. Fixed Uiso
 At 1.2 times of:
  All C(H) groups
2.a Aromatic/amide H refined with riding coordinates:
 C2(H2), C3(H3)
;
_shelx_res_file
;
TITL 4f_a.res in P2(1)/n
    4f.res
    created by SHELXL-2017/1 at 15:27:13 on 23-Feb-2018
REM Old TITL 4F in P2(1)/n
REM SHELXT solution in P2(1)/n
REM R1 0.080, Rweak 0.005, Alpha 0.031, Orientation as input
REM Formula found by SHELXT: C6 N F2 S
CELL 0.71073 3.8531 23.8684 6.121 90 95.29 90
ZERR 2 0.0006 0.0033 0.0009 0 0.003 0
LATT 1
SYMM 0.5-X,0.5+Y,0.5-Z
SFAC C H F N S
UNIT 24 8 8 4 4

L.S. 10
PLAN  20
SIZE 0.066 0.755 0.9
TEMP -163.15
BOND $H
more -1
wpdb -1
htab
fmap 2
conf
acta
OMIT -4 55
OMIT 0 2 0
OMIT 1 0 1
OMIT -1 7 2
OMIT 1 12 1
REM <olex2.extras>
REM <HklSrc "%.\\4F.hkl">
REM </olex2.extras>

WGHT    0.029600    0.365400
FVAR       0.85185
S1    5    0.496509    0.672094    0.419622    11.00000    0.01959    0.01200 =
         0.01835    0.00294    0.00552   -0.00011
F1    3    0.203007    0.528349    0.867569    11.00000    0.02534    0.01676 =
         0.01517    0.00117    0.00975   -0.00082
F2    3    0.286194    0.423068    0.782993    11.00000    0.02564    0.01392 =
         0.01633    0.00445    0.00793   -0.00286
N1    4    0.264867    0.699266    0.784746    11.00000    0.02315    0.01515 =
         0.02105   -0.00096    0.00301   -0.00014
C1    1    0.403179    0.618460    0.596326    11.00000    0.01242    0.01357 =
         0.01432    0.00177    0.00045   -0.00077
C2    1    0.283276    0.642048    0.781267    11.00000    0.02085    0.01511 =
         0.01629    0.00102    0.00255    0.00002
AFIX  43
H2    2    0.217360    0.619796    0.899310    11.00000   -1.20000
AFIX   0
C3    1    0.369544    0.719820    0.604457    11.00000    0.01957    0.01404 =
         0.02247   -0.00030    0.00237   -0.00005
AFIX  43
H3    2    0.374829    0.758998    0.577587    11.00000   -1.20000
AFIX   0
C4    1    0.452787    0.559172    0.547984    11.00000    0.01122    0.01300 =
         0.01285    0.00193   -0.00153   -0.00073
C5    1    0.354523    0.516154    0.683973    11.00000    0.01212    0.01678 =
         0.01148    0.00046    0.00232   -0.00056
C6    1    0.398355    0.460171    0.638785    11.00000    0.01273    0.01540 =
         0.01238    0.00570    0.00092   -0.00248
HKLF 4




REM  4f_a.res in P2(1)/n
REM R1 =  0.0301 for    1184 Fo > 4sig(Fo)  and  0.0320 for all    1261 data
REM     91 parameters refined using      0 restraints

END

WGHT      0.0296      0.3654

REM Instructions for potential hydrogen bonds
HTAB C2 F1
EQIV $2 x+1/2, -y+3/2, z-1/2
HTAB C3 N1_$2

REM Highest difference peak  0.294,  deepest hole -0.254,  1-sigma level  0.058
Q1    1   0.5233  0.4515  0.5636  11.00000  0.05    0.29
Q2    1   0.5898  0.5502  0.4823  11.00000  0.05    0.29
Q3    1   0.4499  0.5400  0.6388  11.00000  0.05    0.27
Q4    1   0.3063  0.4903  0.6187  11.00000  0.05    0.27
Q5    1   0.4176  0.4893  0.6640  11.00000  0.05    0.25
Q6    1   0.3626  0.5380  0.5977  11.00000  0.05    0.25
Q7    1   0.4501  0.5862  0.5779  11.00000  0.05    0.23
Q8    1   0.2535  0.5226  0.7536  11.00000  0.05    0.23
Q9    1   0.3634  0.6286  0.7001  11.00000  0.05    0.23
Q10   1   0.2029  0.6706  0.7602  11.00000  0.05    0.23
Q11   1   0.4909  0.6713  0.2822  11.00000  0.05    0.22
Q12   1   0.5356  0.6886  0.5627  11.00000  0.05    0.21
Q13   1   0.2596  0.7095  0.6819  11.00000  0.05    0.18
Q14   1   0.3517  0.6966  0.4988  11.00000  0.05    0.18
Q15   1   0.7180  0.6623  0.4313  11.00000  0.05    0.17
Q16   1   0.3443  0.6305  0.8889  11.00000  0.05    0.17
Q17   1   0.7142  0.6732  0.5829  11.00000  0.05    0.16
Q18   1   0.2995  0.7107  0.8908  11.00000  0.05    0.16
Q19   1   0.3537  0.6398  0.4768  11.00000  0.05    0.15
Q20   1   0.3077  0.6489  0.4370  11.00000  0.05    0.15
;
_shelx_res_checksum              92141
_shelx_hkl_file
;
  -1   0   0   -0.70    0.40
  -1   0   0   -0.10    0.20
  -1   0   0    1.00    0.40
  -1   0   0   -0.10    0.50
  -2   0   0   82.49    5.90
  -2   0   0   80.19    6.00
  -2   0   0   70.79    6.30
  -2   0   0   82.19    6.60
   3   0   0   -0.80    0.80
  -3   0   0    1.00    0.90
  -3   0   0   -0.20    1.10
  -3   0   0    0.10    0.70
   4   0   0  175.68   15.40
  -4   0   0  205.58   16.60
  -4   0   0  233.58   15.30
   0  -1   0    0.00    0.10
   0   1   0    0.00    0.10
  -1  -1   0 3907.81  274.57
  -1  -1   0 4141.39  274.47
  -1  -1   0 4289.67  274.77
  -1   1   0 4291.67  274.87
  -1   1   0 3954.10  274.67
  -1   1   0 4535.05  274.77
  -1   1   0 4324.87  274.77
  -2  -1   0  314.87   20.10
  -2  -1   0  278.17   20.60
  -2  -1   0  298.07   20.30
  -2   1   0  298.87   20.20
  -2   1   0  317.97   20.20
  -2   1   0  278.27   20.80
  -2   1   0  286.07   20.60
  -3  -1   0   15.10    2.80
  -3  -1   0   20.60    2.80
  -3   1   0   18.40    2.60
  -3   1   0   13.40    2.70
  -3   1   0   17.80    2.50
   3   1   0   18.80    3.10
  -4  -1   0   10.20    2.20
   4  -1   0    9.40    2.70
  -4  -1   0   11.40    3.10
  -4   1   0    8.50    3.00
   4   1   0    6.90    2.60
  -4   1   0    9.10    2.10
   0  -2   0    0.00    0.10
  -1  -2   0  913.71   61.19
  -1  -2   0  913.51   61.09
  -1  -2   0  951.70   60.79
   1   2   0  814.32   61.09
  -1   2   0  965.10   60.89
  -1   2   0  941.11   61.29
  -1   2   0  981.70   61.29
  -1   2   0  952.30   61.09
  -2  -2   0  443.56   28.80
  -2  -2   0  423.36   29.50
  -2  -2   0  433.46   29.20
  -2   2   0  412.06   29.70
   2   2   0  386.06   29.30
  -2   2   0  455.95   29.00
  -2   2   0  448.46   29.10
  -2   2   0  458.75   29.60
  -3  -2   0   22.80    3.60
  -3  -2   0   25.50    3.30
  -3   2   0   21.70    3.70
  -3   2   0   23.70    3.60
  -3   2   0   29.70    3.40
  -3   2   0   26.80    3.10
   3   2   0   22.40    3.50
  -4  -2   0  122.59    9.10
   4  -2   0   94.49    9.20
  -4  -2   0  106.39    7.30
  -4  -2   0  109.49    9.70
   4   2   0   97.99    9.30
  -4   2   0  120.49   10.70
   0  -3   0    7.20    0.60
  -1  -3   0 1566.64  103.39
  -1  -3   0 1616.24  103.49
  -1   3   0 1619.64  103.09
   1   3   0 1424.96  103.39
  -1   3   0 1607.44  103.39
  -1   3   0 1629.34  103.59
  -2  -3   0  138.39   10.90
  -2  -3   0  149.09   10.70
  -2  -3   0  154.38   10.10
  -2  -3   0  156.98    9.80
   2   3   0  127.89   10.70
  -2   3   0  161.78   10.70
  -2   3   0  152.28   10.40
  -2   3   0  148.49   11.00
  -2   3   0  140.49   11.20
  -3  -3   0  160.88   13.20
  -3  -3   0  178.18   11.70
  -3  -3   0  162.88   12.80
  -3   3   0  187.98   13.50
  -3   3   0  189.88   13.00
  -3   3   0  178.08   12.60
   3   3   0  167.98   13.20
  -3   3   0  176.28   13.80
  -4  -3   0  105.39    7.20
  -4  -3   0  104.19    8.80
  -4  -3   0   86.19    9.00
   4   3   0  104.99    9.20
  -4   3   0  118.29    9.80
   0  -4   0   45.70    2.80
   0  -4   0   35.40    2.90
   0   4   0   38.00    2.90
   0   4   0   40.90    2.90
  -1  -4   0 1129.89   73.89
  -1  -4   0 1152.38   73.79
   1  -4   0  992.70   73.59
   1   4   0 1046.60   73.69
   1   4   0 1240.38   73.29
  -1   4   0 1134.09   73.79
  -1   4   0 1151.28   73.39
  -1   4   0 1123.59   73.99
  -2  -4   0  225.38   14.40
  -2  -4   0  199.88   15.40
  -2  -4   0  204.58   15.10
  -2   4   0  204.68   15.60
  -2   4   0  223.68   15.20
  -2   4   0  232.28   15.60
  -2   4   0  225.18   14.80
   2   4   0  225.88   14.50
   2   4   0  201.98   15.30
  -3  -4   0   69.99    6.10
  -3  -4   0   72.89    6.50
  -3  -4   0   69.99    5.00
  -3   4   0   73.89    5.70
   3   4   0   73.59    6.40
  -3   4   0   65.69    6.70
  -3   4   0   69.29    6.50
  -3   4   0   74.09    6.10
  -4  -4   0  116.29    9.40
  -4  -4   0  107.89    7.80
  -4  -4   0  114.29   10.70
   4   4   0  117.29    9.90
   0  -5   0    0.40    0.20
   0  -5   0    0.20    0.20
   0   5   0    0.80    0.30
   0   5   0    0.20    0.20
  -1  -5   0  521.75   33.90
   1  -5   0  465.25   33.60
  -1  -5   0  562.64   33.60
  -1  -5   0  522.75   33.70
  -1   5   0  523.95   33.80
  -1   5   0  482.55   33.90
  -1   5   0  517.45   33.30
   1   5   0  467.75   33.70
  -2  -5   0  161.78   12.00
  -2  -5   0  156.98   12.20
  -2  -5   0  173.68   11.30
  -2   5   0  163.38   12.50
  -2   5   0  172.08   11.60
  -2   5   0  166.38   12.00
   2   5   0  181.08   11.30
   2   5   0  157.58   12.10
  -3  -5   0  147.09   12.00
  -3  -5   0  150.58   11.70
  -3  -5   0  153.28   10.60
  -3   5   0  162.08   11.20
  -3   5   0  166.48   11.80
  -3   5   0  157.38   12.50
   3   5   0  152.48   11.90
   4  -5   0   47.20    5.10
  -4  -5   0   47.00    3.80
  -4  -5   0   41.70    7.00
  -4  -5   0   60.29    5.50
   4   5   0   49.70    5.60
  -4   5   0   53.49    7.20
   0  -6   0 1548.55  103.09
   0  -6   0 1500.75  103.39
   0   6   0 1755.62  103.49
   0   6   0 1512.45  103.29
   1  -6   0  365.46   25.00
  -1  -6   0  388.86   25.10
  -1  -6   0  407.46   25.30
  -1   6   0  381.16   25.30
  -1   6   0  368.96   24.60
   1   6   0  338.07   25.00
  -1   6   0  378.66   25.20
  -2  -6   0  376.16   27.20
  -2  -6   0  392.06   26.90
   2  -6   0  366.16   26.80
  -2  -6   0  405.16   26.20
  -2   6   0  407.36   26.40
  -2   6   0  399.36   27.00
   2   6   0  434.46   26.20
  -2   6   0  383.96   27.40
   2   6   0  386.66   27.10
  -3  -6   0   54.49    5.20
   3  -6   0   51.89    5.10
  -3  -6   0   57.69    4.30
  -3  -6   0   55.89    5.50
  -3   6   0   63.59    4.80
   3   6   0   60.19    5.60
  -3   6   0   59.49    5.40
  -3   6   0   54.59    5.80
  -4  -6   0  172.48   13.30
   4  -6   0  150.58   12.90
  -4  -6   0  156.48   14.50
  -4   6   0  191.48   13.60
   4   6   0  187.88   13.80
  -4   6   0  148.79   16.60
   0  -7   0    0.60    0.40
   0  -7   0    0.20    0.20
   0   7   0    0.50    0.30
   0   7   0    0.20    0.20
  -1  -7   0   18.30    2.00
   1  -7   0   15.50    1.70
  -1  -7   0   18.70    2.20
   1  -7   0   19.10    1.30
  -1   7   0   19.00    2.20
  -1   7   0   16.90    1.40
   1   7   0   13.70    1.60
  -1   7   0   15.50    2.10
  -2  -7   0  168.18   11.60
  -2  -7   0  187.08   12.40
  -2  -7   0  163.88   12.60
   2  -7   0  158.58   12.20
  -2   7   0  165.68   11.70
  -2   7   0  163.38   12.70
   2   7   0  196.08   11.50
  -2   7   0  159.48   12.30
   2   7   0  167.88   12.40
  -3  -7   0   54.89    4.30
   3  -7   0   53.59    5.20
  -3  -7   0   56.99    5.70
  -3  -7   0   58.79    5.40
   3   7   0   66.49    5.80
  -3   7   0   55.49    5.90
  -3   7   0   68.69    5.70
  -4  -7   0    2.70    2.00
   4  -7   0    1.70    1.50
  -4  -7   0    4.30    1.80
   4   7   0    2.30    1.90
  -4   7   0    3.30    1.70
   0  -8   0 1736.63  114.59
   0  -8   0 1730.53  114.99
   0   8   0 1795.82  114.89
   1  -8   0  708.63   41.00
  -1  -8   0  661.33   42.00
  -1  -8   0  604.54   41.70
   1  -8   0  603.34   41.60
   1   8   0  558.44   41.60
  -1   8   0  639.34   41.90
  -1   8   0  611.44   41.30
  -1   8   0  628.54   42.00
  -2  -8   0  218.28   15.60
  -2  -8   0  230.48   15.30
   2  -8   0  208.18   15.10
  -2   8   0  208.28   15.30
  -2   8   0  220.78   14.30
  -2   8   0  199.88   15.60
   2   8   0  223.88   15.40
   3  -8   0  239.48   17.30
  -3  -8   0  231.88   17.80
  -3  -8   0  245.48   17.50
  -3   8   0  229.48   18.10
  -3   8   0  247.18   17.60
   3   8   0  252.47   17.70
  -4  -8   0  359.96   27.60
   4  -8   0  390.16   27.60
   4   8   0  399.96   28.00
  -4   8   0  403.26   28.00
   0   9   0    0.20    0.30
  -1  -9   0 1073.49   66.49
   1  -9   0  966.60   66.09
  -1  -9   0  984.70   66.09
  -1   9   0  984.10   66.29
  -1   9   0 1037.90   66.59
   1   9   0 1009.90   66.19
  -1   9   0  965.30   65.69
  -2  -9   0    0.70    0.80
   2  -9   0    1.50    0.90
  -2  -9   0    2.20    1.10
   2  -9   0    0.60    0.40
  -2   9   0    3.20    1.20
   2   9   0    1.80    1.00
  -2   9   0    0.40    0.90
  -2   9   0    1.00    0.40
  -3  -9   0  658.93   48.60
   3  -9   0  719.13   48.10
  -3  -9   0  711.03   48.30
   3   9   0  777.92   48.60
  -3   9   0  722.43   46.80
  -3   9   0  677.53   48.90
  -3   9   0  717.83   48.50
  -4  -9   0   13.50    3.00
   4  -9   0   17.20    3.40
  -4   9   0   15.70    3.40
   4   9   0   18.10    3.70
  -4   9   0   13.30    1.20
   0 -10   0  106.99    7.40
   0 -10   0   92.49    6.90
   0  10   0  114.39    7.50
   0  10   0   94.19    7.20
   1 -10   0 2822.12  192.28
  -1 -10   0 2890.61  192.28
  -1 -10   0 3186.08  192.78
   1  10   0 2902.41  192.38
  -1  10   0 2970.50  191.98
  -1  10   0 2990.00  192.78
   1  10   0 2848.92  191.68
  -1  10   0 2900.81  192.48
   2 -10   0  186.28   12.30
  -2 -10   0  186.48   13.60
   2 -10   0  174.78   13.00
  -2 -10   0  189.88   13.20
  -2  10   0  169.88   13.50
   2  10   0  189.38   13.30
  -2  10   0  183.08   13.40
  -2  10   0  181.08   12.30
   3 -10   0  116.79    8.70
  -3 -10   0  104.19    9.10
  -3 -10   0  109.19    8.70
  -3  10   0   99.99    9.20
  -3  10   0   98.49    8.70
   3  10   0  118.69    9.10
  -3  10   0  101.99    7.30
   4 -10   0   13.30    3.00
  -4 -10   0   16.40    3.20
  -4  10   0   26.90    4.40
  -4  10   0   15.90    1.50
   4  10   0   21.70    4.00
   0 -11   0    0.20    0.30
   0 -11   0    0.50    0.50
   0  11   0    0.40    0.50
   0  11   0   -0.10    0.40
   0  11   0    2.00    0.70
  -1 -11   0  106.09    8.20
   1 -11   0  105.39    7.80
  -1 -11   0  100.29    7.70
   1  11   0   99.79    7.20
  -1  11   0  102.99    7.50
  -1  11   0  113.69    8.40
  -1  11   0  112.59    8.10
   1  11   0  119.89    8.00
  -2 -11   0   38.90    3.80
   2 -11   0   39.20    3.80
  -2 -11   0   40.70    4.20
   2  11   0   45.60    4.10
  -2  11   0   40.30    3.10
  -2  11   0   36.20    4.10
  -2  11   0   47.20    4.20
  -3 -11   0  142.59   12.30
   3 -11   0  153.58   11.80
  -3 -11   0  172.28   12.20
  -3  11   0  155.78   12.20
  -3  11   0  139.39   12.50
   3  11   0  182.88   12.50
  -3  11   0  153.78   10.70
   4 -11   0   15.80    3.60
  -4 -11   0    9.60    2.70
   4  11   0   16.80    3.70
  -4  11   0   11.50    1.40
  -4  11   0   11.80    3.10
   0 -12   0    2.00    0.80
   0  12   0    9.70    1.30
   0  12   0    6.20    1.10
  -1 -12   0  476.45   32.20
   1 -12   0  482.25   31.70
  -1 -12   0  487.25   31.60
   1  12   0  480.55   31.70
  -1  12   0  454.65   31.30
  -1  12   0  454.45   31.90
   1  12   0  437.06   31.00
  -1  12   0  510.55   32.40
   2 -12   0  416.66   28.40
  -2 -12   0  403.06   29.00
  -2 -12   0  422.06   28.50
  -2  12   0  416.16   27.70
  -2  12   0  420.56   28.70
  -2  12   0  395.56   29.00
   2  12   0  435.46   28.60
  -3 -12   0   61.99    6.60
  -3 -12   0   78.49    6.50
   3 -12   0   63.39    6.10
   3  12   0   83.19    6.80
  -3  12   0   70.59    5.10
  -3  12   0   71.09    6.60
  -3  12   0   60.09    6.60
   4 -12   0  334.47   23.40
  -4 -12   0  295.27   22.40
  -4  12   0  292.27   20.40
   4  12   0  338.27   22.90
  -4  12   0  277.57   22.60
   0 -13   0   -0.10    0.50
   0 -13   0    0.30    0.30
   0  13   0    0.30    0.50
   0  13   0    6.10    1.10
   0  13   0    0.00    0.40
  -1 -13   0    0.70    0.60
   1 -13   0    0.90    0.70
  -1 -13   0    2.10    1.00
   1  13   0    1.60    0.50
   1  13   0    0.90    0.70
  -1  13   0    0.30    0.80
  -1  13   0    1.10    0.60
  -1  13   0    2.00    0.90
  -2 -13   0   89.49    6.90
   2 -13   0   91.09    6.80
  -2 -13   0   83.09    7.30
  -2  13   0   78.09    6.90
   2  13   0   83.49    6.90
  -2  13   0   74.59    7.20
  -2  13   0   83.79    6.10
   3 -13   0   52.09    5.10
  -3 -13   0   50.89    6.50
  -3 -13   0   55.79    5.30
  -3  13   0   43.80    5.80
   3  13   0   64.49    5.70
  -3  13   0   48.30    6.40
  -3  13   0   51.99    4.10
  -4 -13   0    4.50    2.00
  -4  13   0    3.00    1.90
   4  13   0    7.80    2.70
  -4  13   0    3.50    0.90
   0 -14   0  195.98   13.60
   0 -14   0  174.78   12.80
   0  14   0  195.78   13.30
   0  14   0  176.98   13.20
   0  14   0  214.08   13.70
  -1 -14   0   31.80    3.70
   1 -14   0   22.30    2.50
  -1 -14   0   24.00    2.40
  -1  14   0   22.00    2.20
  -1  14   0   24.90    3.50
  -1  14   0   26.60    3.20
   1  14   0   22.00    2.30
   1  14   0   24.40    2.60
  -2 -14   0  765.52   53.69
  -2 -14   0  797.92   52.99
   2 -14   0  796.72   52.99
  -2  14   0  760.12   52.19
  -2  14   0  816.22   53.49
  -2  14   0  727.43   53.59
   2  14   0  874.81   53.29
  -3 -14   0    6.80    2.10
  -3 -14   0   11.90    3.00
   3 -14   0    9.80    2.20
   3  14   0   10.30    2.60
  -3  14   0    5.60    2.30
  -3  14   0    9.10    2.50
  -3  14   0    7.20    1.30
  -4 -14   0   23.70    4.20
   4  14   0   36.10    5.20
  -4  14   0   26.40    2.50
  -4  14   0   30.30    5.10
   0 -15   0    0.50    0.70
   0 -15   0    0.10    0.40
   0  15   0    1.90    0.70
   0  15   0    1.40    0.80
   0  15   0    1.10    0.70
   1 -15   0  225.58   15.40
  -1 -15   0  215.58   15.90
  -1 -15   0  225.68   15.20
   1  15   0  215.28   15.40
  -1  15   0  185.48   15.00
  -1  15   0  238.28   15.70
  -1  15   0  229.78   16.10
   2 -15   0    0.80    1.00
  -2 -15   0    1.40    1.20
  -2 -15   0    2.20    1.10
  -2  15   0    1.40    1.30
   2  15   0    3.00    1.30
  -2  15   0    1.80    0.70
  -2  15   0    2.60    1.30
  -3 -15   0  416.16   29.50
   3 -15   0  458.35   29.50
  -3 -15   0  381.16   30.10
  -3  15   0  413.26   29.90
  -3  15   0  440.76   28.30
   3  15   0  490.25   30.00
  -3  15   0  340.97   29.90
  -4 -15   0    6.80    2.30
   4  15   0   12.40    3.30
  -4  15   0    9.60    1.60
  -4  15   0    9.50    2.90
   0 -16   0   42.30    4.00
   0 -16   0   40.40    3.30
   0  16   0   42.30    3.70
   0  16   0   48.10    4.10
   0  16   0   45.10    3.80
  -1 -16   0   73.89    6.80
  -1 -16   0   86.59    6.30
   1 -16   0   87.09    6.50
   1  16   0   82.39    6.50
  -1  16   0   72.39    6.00
  -1  16   0   83.89    7.10
  -1  16   0   73.69    6.50
   2 -16   0  107.69    8.10
  -2 -16   0   92.29    7.80
  -2 -16   0   97.89    8.70
  -2  16   0   78.29    8.40
  -2  16   0  109.69    7.40
  -2  16   0   97.69    8.30
   2  16   0  110.39    8.30
  -3 -16   0   18.00    3.80
  -3 -16   0   18.60    3.10
   3 -16   0   13.80    2.70
  -3  16   0   10.10    3.00
  -3  16   0   16.80    3.30
  -3  16   0   11.90    1.80
   3  16   0   20.00    3.40
  -4 -16   0   19.00    3.90
   4  16   0   24.70    4.50
  -4  16   0   17.50    2.30
  -4  16   0   20.60    4.40
   0 -17   0    0.90    0.80
   0  17   0    0.30    0.70
   0  17   0    0.30    0.60
   0  17   0   -0.20    0.60
  -1 -17   0  695.73   53.69
   1 -17   0  829.92   53.39
  -1 -17   0  830.72   53.09
   1  17   0  768.72   53.29
  -1  17   0  849.52   53.59
  -1  17   0  812.62   52.99
  -1  17   0  794.22   54.09
  -2 -17   0   12.30    2.20
   2 -17   0    9.50    2.00
  -2 -17   0    8.10    2.40
   2  17   0    9.40    2.20
  -2  17   0    5.30    2.20
  -2  17   0    7.20    1.40
  -2  17   0    7.40    2.10
  -3 -17   0  289.07   23.80
  -3 -17   0  332.37   23.00
   3 -17   0  336.77   22.90
   3  17   0  371.26   23.50
  -3  17   0  281.27   23.70
  -3  17   0  324.27   23.50
  -3  17   0  304.87   21.80
  -4 -17   0    3.40    2.00
  -4  17   0    3.10    1.00
  -4  17   0    5.70    2.70
   4  17   0    3.80    2.50
   0 -18   0    7.50    1.70
   0  18   0   -0.10    0.80
   0  18   0   -0.20    0.50
   0  18   0   -0.20    0.70
  -1 -18   0   12.40    2.50
  -1 -18   0   10.50    1.80
   1 -18   0   14.00    2.20
  -1  18   0    8.50    2.20
  -1  18   0    9.90    2.10
   1  18   0    9.40    1.90
  -1  18   0   11.30    1.80
   2 -18   0 1779.32  111.49
  -2 -18   0 1572.74  112.29
  -2 -18   0 1663.33  111.19
  -2  18   0 1573.34  112.39
  -2  18   0 1589.84  110.69
   2  18   0 1886.21  111.79
  -2  18   0 1705.63  111.79
   3 -18   0  247.68   17.40
  -3 -18   0  238.18   17.30
  -3 -18   0  220.68   18.40
  -3  18   0  189.78   17.90
  -3  18   0  217.58   17.70
   3  18   0  283.47   18.10
  -3  18   0  230.18   16.20
  -4 -18   0    2.70    1.80
  -4  18   0    3.40    2.30
   4  18   0    1.00    2.10
  -4  18   0   -0.20    0.90
   0  19   0    2.80    1.00
  -1 -19   0   14.00    2.70
  -1 -19   0    5.80    1.40
   1 -19   0    4.50    1.40
  -1  19   0    3.70    1.80
  -1  19   0    4.70    1.30
  -1  19   0    8.50    2.00
   1  19   0    5.00    1.50
  -2 -19   0  284.17   21.90
  -2 -19   0  287.37   20.80
   2 -19   0  310.67   21.10
  -2  19   0  283.47   20.30
  -2  19   0  282.57   22.00
   2  19   0  324.07   21.30
  -2  19   0  287.17   21.30
  -3 -19   0    0.70    1.90
  -3 -19   0    1.80    1.50
   3 -19   0    1.80    1.60
   3  19   0    4.60    2.20
  -3  19   0    0.50    0.90
  -3  19   0    1.10    1.60
  -3  19   0   -0.30    1.80
   0 -20   0 1496.75   97.99
   0  20   0 1434.66   97.49
   0  20   0 1472.15   97.49
   0  20   0 1497.55   97.99
   1 -20   0   40.70    4.20
  -1 -20   0   44.70    4.10
  -1 -20   0   39.10    5.10
   1  20   0   39.80    4.10
  -1  20   0   36.50    3.70
  -1  20   0   37.70    5.20
  -1  20   0   47.10    4.40
   2 -20   0  105.19    8.50
  -2 -20   0  100.79    9.30
  -2 -20   0  101.89    8.30
  -2  20   0   93.29    9.30
  -2  20   0  100.19    8.80
   2  20   0  109.59    8.70
  -2  20   0  101.69    7.90
   3 -20   0  238.28   16.60
  -3 -20   0  210.68   16.40
  -3 -20   0  210.48   17.70
  -3  20   0  230.78   17.30
   3  20   0  253.87   17.20
  -3  20   0  216.78   15.60
  -3  20   0  173.28   17.20
   0 -21   0   14.20    2.50
  -1 -21   0  346.37   25.50
   1 -21   0  363.16   25.00
  -1  21   0  304.37   25.40
   1  21   0  369.46   25.00
  -1  21   0  378.16   24.60
  -1  21   0  371.56   25.10
   2 -21   0  118.49    9.30
  -2 -21   0  110.99    8.90
  -2 -21   0   97.59    9.80
  -2  21   0  105.89   10.10
  -2  21   0  117.09    8.60
   2  21   0  119.59    9.40
  -2  21   0  105.59    9.40
   3 -21   0   98.79    8.50
  -3 -21   0   83.29    8.00
  -3 -21   0   96.69    9.50
  -3  21   0   75.99    9.00
  -3  21   0   89.99    8.70
   3  21   0  110.69    9.00
  -3  21   0   93.89    7.40
   0 -22   0   49.60    5.20
   0  22   0   60.09    5.50
  -1 -22   0   78.79    7.20
   1 -22   0   76.79    6.70
  -1  22   0   68.19    7.10
   1  22   0   78.49    6.70
  -1  22   0   72.29    6.70
  -1  22   0   78.09    6.40
  -2 -22   0   93.99    7.70
   2 -22   0   98.89    8.00
  -2 -22   0   82.59    8.60
  -2  22   0  101.19    8.40
  -2  22   0   73.69    8.50
  -2  22   0   93.29    7.40
   2  22   0   93.39    8.10
   3 -22   0   20.30    3.90
  -3 -22   0   21.30    3.70
  -3 -22   0   19.90    4.60
   3  22   0   18.50    3.60
  -3  22   0   19.00    2.90
  -3  22   0   17.20    4.30
  -3  22   0   17.00    3.80
   0 -23   0    1.90    1.40
   0  23   0    1.30    1.20
  -1 -23   0  404.16   29.80
   1 -23   0  440.96   29.40
  -1  23   0  447.26   28.90
  -1  23   0  411.96   29.30
  -1  23   0  386.66   29.80
  -2 -23   0   78.29    8.80
   2 -23   0  103.19    8.40
  -2  23   0   96.29    8.50
  -2  23   0   85.39    9.10
  -2  23   0   98.69    7.70
   2  23   0   96.59    8.40
   3 -23   0   88.49    8.00
  -3 -23   0   75.49   10.10
  -3 -23   0   86.59    7.90
  -3  23   0   82.89    8.40
  -3  23   0   81.39    7.00
   3  23   0   87.59    8.30
   0 -24   0  119.09   10.10
   0  24   0  125.99   10.20
  -1 -24   0    8.80    2.50
  -1  24   0   12.40    3.10
   1  24   0    7.40    2.00
  -1  24   0    4.30    1.50
  -1  24   0    7.50    2.10
  -2 -24   0  109.99   11.30
   2 -24   0  136.09   10.70
  -2  24   0  108.99   11.50
   2  24   0  127.29   10.80
  -2  24   0  146.59   11.20
  -2  24   0  143.99   10.20
  -3 -24   0    7.90    2.70
  -3 -24   0   10.20    3.80
   3 -24   0   12.80    3.10
   3  24   0   13.90    3.40
  -3  24   0   14.00    2.60
  -3  24   0   21.90    4.30
   0 -25   0    2.80    1.60
   0  25   0    3.10    1.60
   1 -25   0   47.20    5.60
  -1 -25   0   41.80    5.80
   1  25   0   42.40    4.70
  -1  25   0   49.90    5.70
  -1  25   0   41.50    4.90
  -1  25   0   38.50    5.90
  -2 -25   0   17.50    4.50
   2 -25   0   33.10    4.60
  -2  25   0   31.00    4.00
  -2  25   0   27.00    5.30
  -2  25   0   32.20    4.80
   2  25   0   24.90    4.20
   0 -26   0  136.69   11.50
   0  26   0  142.39   11.50
  -1 -26   0   37.50    5.50
   1 -26   0   39.20    5.10
  -1  26   0   32.40    5.30
  -1  26   0   30.60    4.50
  -1  26   0   40.70    4.80
   1  26   0   33.80    4.70
  -2 -26   0  287.87   25.00
   2 -26   0  348.17   24.40
   2  26   0  366.06   24.70
  -2  26   0  359.86   23.80
  -2  26   0  278.77   25.20
  -2  26   0  356.96   24.80
   0 -27   0    2.40    1.70
   0  27   0    1.70    1.40
   1 -27   0   67.49    6.70
  -1 -27   0   61.99    6.90
   1  27   0   65.99    6.60
  -1  27   0   70.39    6.30
  -1  27   0   62.99    7.20
   2 -27   0    3.90    2.20
  -2 -27   0    0.20    1.80
   2  27   0    2.40    1.90
  -2  27   0    1.50    1.80
  -2  27   0   -0.50    1.30
  -2  27   0    3.20    2.60
   0 -28   0   73.69    7.30
   0  28   0   69.79    7.10
   1 -28   0   82.19    7.80
  -1 -28   0   81.99    8.30
  -1  28   0   69.69    8.00
   1  28   0   92.19    8.00
  -2 -28   0    2.20    2.40
   2 -28   0    3.50    2.30
  -2  28   0    2.90    1.70
  -2  28   0    1.40    2.20
  -2  28   0    4.50    2.30
   2  28   0    2.60    2.00
   0 -29   0    0.30    1.50
   0  29   0    0.80    1.30
   1 -29   0   85.89    7.80
  -1 -29   0   67.69    8.60
   1  29   0   75.29    7.40
  -1  29   0   66.79    7.70
   0 -30   0   16.30    3.80
   0  30   0   18.10    3.90
   1 -30   0  110.19    9.10
  -1 -30   0   79.69    8.90
  -1  30   0   79.29    8.80
   1  30   0   93.09    8.60
   0  31   0    4.30    2.20
   5   0  -1   15.10    4.20
  -5   0   1   18.10    2.00
   4   0  -1   -1.10    1.50
  -4   0   1    0.70    0.50
  -4   0   1    1.10    1.10
   3   0  -1  459.15   31.80
  -3   0   1  468.15   32.30
  -3   0   1  482.45   32.30
  -3   0   1  481.55   33.60
  -2   0   1    0.00    0.40
   2   0  -1    0.00    0.40
  -2   0   1   -0.60    0.40
  -2   0   1   -0.60    0.70
  -1   0   1  431.66   28.30
  -1   0   1  446.86   28.50
  -1   0   1  403.16   29.00
   1   0  -1  434.26   28.40
   0   0   1    0.60    0.30
   0   0  -1    0.20    0.30
   0   0  -1    0.10    0.20
   0   0   1    0.20    0.10
   1   0   1 7456.15  573.24
  -1   0  -1 9999.00  573.84
   1   0   1 8896.21  572.94
   2   0   1   -1.60    0.80
  -2   0  -1    2.70    0.90
  -2   0  -1   -2.10    0.80
  -3   0  -1    7.30    1.60
  -3   0  -1    7.80    2.20
   3   0   1    7.10    1.90
   3   0   1    5.70    1.30
  -4   0  -1   -0.90    1.30
   4   0   1   -0.70    0.80
   5  -1  -1   27.00    5.50
  -5  -1   1   29.30    2.70
  -5   1   1   30.60    2.60
   5   1  -1   33.20    5.90
  -4  -1   1    0.10    0.50
   4  -1  -1   -0.30    1.40
  -4  -1   1    2.70    1.40
  -4   1   1   -0.60    0.30
  -4   1   1   -0.40    1.10
   4   1  -1    1.70    2.10
   3  -1  -1    9.40    1.70
  -3  -1   1    5.30    1.60
  -3  -1   1    3.90    1.30
  -3  -1   1    5.10    0.70
  -3  -1   1    4.90    0.60
   3   1  -1    5.30    1.20
  -3   1   1    1.10    1.40
  -3   1   1    4.70    1.30
  -3   1   1    4.80    1.50
  -2  -1   1  184.98   13.30
  -2  -1   1  205.68   12.60
  -2  -1   1  180.18   13.40
  -2  -1   1  201.48   14.30
   2  -1  -1  191.28   13.10
  -2   1   1  189.28   13.30
  -2   1   1  188.28   13.30
   2   1  -1  187.08   13.00
  -2   1   1  174.98   14.10
  -1  -1   1    1.80    0.80
  -1  -1   1    1.70    0.40
  -1  -1   1    2.50    0.60
   1  -1  -1    2.80    0.60
   1   1  -1    3.40    0.60
  -1   1   1    2.90    0.60
  -1   1   1    3.30    1.00
   0  -1  -1 1456.35   94.29
   0  -1  -1 1436.66   94.19
   0  -1   1 1439.36   94.19
   0  -1   1 1387.26   94.09
   0   1  -1 1305.57   94.19
   0   1  -1 1520.15   94.29
   0   1   1 1494.55   94.09
   0   1   1 1485.65   94.19
   1  -1   1  198.88   12.70
  -1  -1  -1  180.08   13.20
  -1  -1  -1  192.08   12.70
   1   1   1  197.68   12.70
   1   1   1  160.48   12.60
  -1   1  -1  191.98   13.30
  -1   1  -1  193.98   12.70
  -1   1  -1  191.78   12.70
  -2  -1  -1 2806.42  183.58
  -2  -1  -1 2877.71  181.98
  -2  -1  -1 2835.62  182.68
   2  -1   1 2861.91  182.48
  -2   1  -1 2845.12  183.58
   2   1   1 2554.44  182.68
  -2   1  -1 2749.62  182.88
  -3  -1  -1  414.26   30.80
   3  -1   1  443.86   29.60
   3  -1   1  411.06   30.00
  -3  -1  -1  498.85   29.90
  -3   1  -1  485.05   30.10
  -3   1  -1  422.96   30.90
   3   1   1  394.86   29.90
   4  -1   1    0.60    1.00
  -4  -1  -1    2.20    1.80
   4   1   1    2.90    1.30
  -4   1  -1    0.70    1.60
  -4  -2   1    8.30    2.20
  -4  -2   1    5.50    1.10
   4   2  -1    7.20    2.60
  -4   2   1    8.90    2.10
  -3  -2   1  226.98   14.80
   3  -2  -1  225.08   15.60
  -3  -2   1  208.58   15.90
  -3  -2   1  213.28   16.00
  -3   2   1  241.68   15.90
   3   2  -1  185.08   16.20
  -3   2   1  219.68   17.10
  -3   2   1  237.48   16.10
   3   2  -1  231.78   15.40
  -2  -2   1    1.60    0.40
  -2  -2   1    3.30    1.00
  -2  -2   1    0.40    0.60
   2  -2  -1    2.30    0.70
  -2   2   1    3.00    1.30
  -2   2   1    4.10    1.00
  -2   2   1    1.80    0.80
   2   2  -1    1.60    0.60
  -1  -2   1  763.82   51.69
   1  -2  -1  708.83   51.59
   1  -2  -1  814.82   51.89
  -1  -2   1  802.62   52.49
  -1  -2   1  828.92   51.89
  -1   2   1  805.22   51.79
  -1   2   1  766.52   52.39
   1   2  -1  821.82   51.79
   0  -2  -1  107.19    7.00
   0  -2   1   94.69    7.00
   0  -2  -1  104.89    7.10
   0  -2   1   99.19    6.90
   0   2   1  116.29    7.00
   0   2  -1   90.89    6.90
   0   2   1  112.69    7.10
  -1  -2  -1  356.66   25.60
  -1  -2  -1  379.26   25.00
   1  -2   1  413.96   25.10
   1   2   1  339.57   25.00
   1   2   1  394.86   25.10
  -1   2  -1  388.76   25.70
  -1   2  -1  356.86   25.10
  -1   2  -1  400.96   25.20
  -2  -2  -1  845.62   53.49
   2  -2   1  815.72   53.29
  -2  -2  -1  758.42   54.29
  -2   2  -1  807.12   53.79
  -2   2  -1  846.82   54.49
  -2   2  -1  830.62   53.99
   2   2   1  754.12   53.59
   3  -2   1   59.29    6.00
  -3  -2  -1   73.39    7.00
   3  -2   1   76.79    5.80
  -3   2  -1   75.49    7.00
  -3   2  -1   93.39    6.50
   3   2   1   72.89    6.20
  -4  -2  -1   78.39    7.90
   4  -2   1   71.49    6.30
  -4   2  -1   82.99    8.00
   4   2   1   79.79    6.60
  -4  -3   1  389.16   25.90
   4  -3  -1  387.96   26.90
  -4  -3   1  380.86   27.40
   4   3  -1  356.36   27.90
  -4   3   1  383.36   29.00
  -4   3   1  429.26   27.20
  -3  -3   1  220.28   16.40
  -3  -3   1  243.28   15.30
   3  -3  -1  221.48   15.90
  -3  -3   1  227.18   16.40
  -3   3   1  232.88   17.60
   3   3  -1  196.78   16.60
   3   3  -1  229.48   15.70
  -3   3   1  237.18   16.10
  -2  -3   1  261.97   19.50
  -2  -3   1  297.87   19.70
  -2  -3   1  299.67   19.00
   2  -3  -1  293.97   19.40
  -2   3   1  301.07   19.50
   2   3  -1  296.07   19.20
  -2   3   1  282.37   20.40
   2   3  -1  244.68   19.80
  -1  -3   1  126.89    8.60
  -1  -3   1  131.19    8.80
   1  -3  -1  128.99    8.80
   1  -3  -1  122.29    8.50
  -1   3   1  131.39    9.40
  -1   3   1  133.69    8.60
   1   3  -1  104.69    8.90
   1   3  -1  130.59    8.60
   0  -3  -1 1877.81  118.99
   0  -3   1 1728.33  118.89
   0  -3  -1 1945.51  118.89
   0  -3   1 1771.72  118.79
   0   3   1 2128.99  118.79
   0   3  -1 1643.64  118.79
   0   3  -1 1641.74  118.89
  -1  -3  -1    0.80    0.30
   1  -3   1    1.90    0.40
  -1  -3  -1    0.30    0.70
   1   3   1    2.90    0.60
  -1   3  -1    1.10    0.50
  -1   3  -1    2.10    0.90
   1   3   1    1.80    0.40
  -1   3  -1    1.60    0.50
   2  -3   1  368.86   24.40
  -2  -3  -1  404.16   24.60
  -2  -3  -1  369.86   24.80
  -2  -3  -1  339.17   25.40
   2   3   1  330.27   24.70
  -2   3  -1  373.96   25.00
  -2   3  -1  371.26   25.50
  -2   3  -1  362.66   25.00
   3  -3   1   47.10    4.30
  -3  -3  -1   55.09    5.60
  -3   3  -1   52.99    5.50
  -3   3  -1   57.69    5.00
   3   3   1   52.49    4.90
  -4  -3  -1   45.50    6.50
   4  -3   1   42.20    4.20
   4   3   1   47.30    4.50
  -4   3  -1   49.30    6.70
   4  -4  -1    3.40    1.60
  -4  -4   1    0.50    1.20
  -4  -4   1    2.20    0.80
   4   4  -1    6.10    2.50
  -4   4   1    1.30    2.10
  -4   4   1    3.50    2.20
  -3  -4   1  372.96   26.60
  -3  -4   1  377.26   26.60
   3  -4  -1  352.86   26.10
  -3  -4   1  410.66   25.50
   3  -4  -1  400.86   26.30
  -3   4   1  376.06   27.70
   3   4  -1  356.06   27.00
  -3   4   1  411.56   26.30
  -2  -4   1 1311.77   82.29
  -2  -4   1 1273.77   82.99
   2  -4  -1 1314.57   82.79
  -2  -4   1 1184.38   82.79
   2  -4  -1 1168.18   82.49
  -2   4   1 1266.17   82.69
   2   4  -1 1147.39   83.19
  -2   4   1 1240.48   83.79
   2   4  -1 1391.96   82.49
   1  -4  -1  187.18   12.80
  -1  -4   1  205.38   13.10
   1  -4  -1  198.78   13.10
  -1  -4   1  183.48   13.10
  -1  -4   1  205.88   13.00
   1   4  -1  190.18   12.90
  -1   4   1  204.48   12.90
  -1   4   1  178.18   13.50
   1   4  -1  168.18   13.20
   0  -4   1  443.96   31.10
   0  -4  -1  502.55   31.30
   0  -4  -1  504.65   31.20
   0  -4   1  457.65   31.00
   0   4  -1  426.76   31.10
   0   4  -1  438.66   31.10
   0   4   1  537.35   31.10
  -1  -4  -1   31.40    2.30
  -1  -4  -1   28.70    2.90
   1  -4   1   36.70    2.40
   1   4   1   31.30    2.50
  -1   4  -1   32.10    2.70
  -1   4  -1   28.50    2.60
  -1   4  -1   32.20    3.10
   1   4   1   32.10    2.50
  -2  -4  -1  742.53   51.09
   2  -4   1  708.03   49.90
  -2  -4  -1  768.72   50.49
  -2  -4  -1  836.62   50.09
  -2   4  -1  741.93   50.69
   2   4   1  738.13   50.29
  -2   4  -1  752.12   50.59
  -2   4  -1  776.02   51.19
   3  -4   1  104.89    7.60
  -3  -4  -1   94.99    8.80
  -3   4  -1  107.39    8.70
   3   4   1   97.29    8.10
  -3   4  -1  106.19    8.30
  -3   4  -1  107.09    9.10
   4  -4   1   20.90    2.80
  -4  -4  -1   21.90    4.40
  -4   4  -1   21.30    4.40
   4   4   1   16.80    2.90
   4  -5  -1   20.10    3.30
  -4  -5   1   15.20    1.90
  -4  -5   1   12.40    2.80
  -4   5   1   20.80    4.40
   4   5  -1   11.90    3.40
   3  -5  -1  335.77   24.10
  -3  -5   1  336.77   24.50
   3  -5  -1  381.56   24.40
  -3  -5   1  337.07   24.50
  -3  -5   1  365.56   23.50
   3   5  -1  327.47   24.90
  -3   5   1  366.46   24.10
  -3   5   1  357.56   25.70
  -2  -5   1  269.37   18.30
   2  -5  -1  245.98   17.80
  -2  -5   1  261.07   17.60
  -2  -5   1  231.18   18.00
   2   5  -1  252.77   18.50
  -2   5   1  281.37   17.20
   2   5  -1  284.67   17.70
  -2   5   1  264.27   17.80
  -2   5   1  256.17   18.90
  -1  -5   1    4.00    0.80
   1  -5  -1    3.70    0.80
   1  -5  -1    3.50    0.60
  -1  -5   1    3.10    0.60
  -1  -5   1    3.50    0.70
   1   5  -1    3.00    0.50
  -1   5   1    3.30    0.50
  -1   5   1    3.00    1.00
   1   5  -1    2.40    0.80
   0  -5  -1  389.56   24.40
   0  -5   1  353.46   24.40
   0  -5  -1  386.36   24.60
   0  -5   1  349.27   24.30
   0   5   1  409.36   24.30
   0   5  -1  364.56   24.30
   0   5  -1  325.37   24.30
   1  -5   1   57.09    3.80
   1  -5   1   46.60    4.10
  -1  -5  -1   54.09    4.50
  -1  -5  -1   53.69    3.70
  -1   5  -1   55.29    4.10
  -1   5  -1   48.10    4.00
   1   5   1   53.59    3.90
  -2  -5  -1  228.08   16.00
  -2  -5  -1  213.48   16.50
   2  -5   1  224.38   15.40
  -2  -5  -1  255.57   15.50
  -2   5  -1  251.17   16.80
  -2   5  -1  222.18   16.10
   2   5   1  203.18   15.70
  -2   5  -1  227.58   16.10
   3  -5   1  256.57   16.50
  -3  -5  -1  231.28   17.10
  -3  -5  -1  212.18   17.70
  -3   5  -1  246.28   17.30
   3   5   1  236.68   17.10
  -3   5  -1  225.28   17.50
  -3   5  -1  259.57   18.20
  -4  -5  -1   35.70    5.60
   4   5   1   29.00    3.90
  -4   5  -1   33.60    4.70
   4  -6  -1   15.00    2.80
  -4  -6   1    7.00    2.30
  -4  -6   1   11.60    1.60
   4   6  -1    8.70    3.00
  -4   6   1   10.80    3.40
   3  -6  -1  184.58   13.50
  -3  -6   1  169.68   13.90
  -3  -6   1  193.98   13.00
   3  -6  -1  197.68   13.80
  -3  -6   1  190.58   14.10
  -3   6   1  204.28   13.50
   3   6  -1  178.48   14.40
  -3   6   1  194.98   15.10
  -2  -6   1   74.29    6.10
  -2  -6   1   75.49    6.00
   2  -6  -1   71.39    5.70
  -2  -6   1   73.39    5.50
   2   6  -1   67.19    6.20
   2   6  -1   82.29    5.50
  -2   6   1   79.69    5.20
  -2   6   1   81.69    5.70
  -2   6   1   75.49    6.70
  -1  -6   1  531.35   35.20
  -1  -6   1  611.54   35.30
  -1  -6   1  522.75   35.00
   1  -6  -1  567.04   35.00
  -1   6   1  520.95   35.70
   1   6  -1  486.25   35.30
   1   6  -1  512.75   34.80
  -1   6   1  502.45   34.80
  -1   6   1  513.45   34.90
   0  -6  -1  108.79    7.70
   0  -6  -1  124.09    8.00
   0  -6   1  100.49    7.60
   0  -6   1  103.29    7.70
   0   6  -1   97.09    7.70
   0   6   1  123.99    7.60
   0   6  -1  109.09    7.70
   0   6   1  134.89    8.10
   1  -6   1  577.94   42.20
   1  -6   1  695.73   41.70
  -1  -6  -1  611.84   42.50
  -1  -6  -1  611.84   41.60
  -1   6  -1  637.04   42.10
  -1   6  -1  673.43   42.20
   1   6   1  634.04   42.00
   2  -6   1  304.67   19.40
  -2  -6  -1  310.57   19.30
  -2  -6  -1  261.47   20.40
  -2  -6  -1  280.87   19.90
  -2   6  -1  262.47   20.00
  -2   6  -1  306.97   20.20
   2   6   1  281.77   19.80
  -3  -6  -1  117.19    9.20
   3  -6   1  121.79    8.50
  -3  -6  -1  112.69    9.90
   3   6   1  117.29    9.10
  -3   6  -1  109.79    9.20
  -3   6  -1  118.19    9.70
   4  -6   1   26.10    4.20
  -4  -6  -1   29.70    5.10
  -4   6  -1   31.00    4.50
  -4  -7   1    5.80    2.20
   4  -7  -1    2.40    1.60
  -4  -7   1    3.20    1.00
  -4   7   1    3.00    0.50
  -4   7   1    2.90    2.50
   4   7  -1    1.30    1.90
   3  -7  -1   45.10    4.20
  -3  -7   1   43.20    5.00
   3  -7  -1   44.20    4.00
  -3  -7   1   40.80    3.50
  -3  -7   1   41.00    4.40
  -3   7   1   41.10    5.90
   3   7  -1   42.00    5.30
  -3   7   1   43.30    3.00
  -3   7   1   42.30    3.80
   2  -7  -1   50.79    4.30
  -2  -7   1   64.79    4.90
  -2  -7   1   51.29    4.20
  -2  -7   1   61.19    4.80
   2   7  -1   55.29    5.00
  -2   7   1   54.19    3.90
  -2   7   1   51.49    5.30
  -2   7   1   57.79    4.30
   2   7  -1   55.69    4.10
  -1  -7   1 2602.04  151.38
  -1  -7   1 2302.57  151.18
  -1  -7   1 2261.07  150.98
   1  -7  -1 2441.86  151.08
  -1   7   1 2164.28  150.78
  -1   7   1 2290.67  150.98
  -1   7   1 2205.88  151.68
   1   7  -1 2220.28  151.38
   1   7  -1 2297.57  150.88
   0  -7  -1   16.30    1.50
   0  -7   1   15.40    1.50
   0  -7   1   15.90    1.30
   0  -7  -1   16.10    1.70
   0   7  -1   13.40    1.40
   0   7   1   19.50    1.80
   0   7  -1   17.00    1.50
   0   7   1   15.90    1.30
   1  -7   1   21.20    2.20
  -1  -7  -1   23.30    2.50
  -1  -7  -1   20.10    1.60
   1  -7   1   26.90    1.80
   1   7   1   22.50    2.10
  -1   7  -1   23.30    2.20
  -1   7  -1   23.30    2.20
   2  -7   1   13.30    1.50
  -2  -7  -1    9.60    2.20
   2  -7   1   14.00    2.20
  -2  -7  -1   13.70    2.10
  -2   7  -1   14.90    2.30
   2   7   1   11.80    1.90
  -2   7  -1   14.20    2.30
  -3  -7  -1   37.10    5.40
  -3  -7  -1   44.50    4.40
   3  -7   1   41.30    4.50
   3  -7   1   45.10    3.70
   3   7   1   47.00    4.50
  -3   7  -1   38.50    4.90
  -3   7  -1   50.59    5.50
   4  -7   1   20.60    3.80
  -4  -7  -1   17.90    4.20
  -4   7  -1   22.40    4.00
   4  -8  -1    6.60    2.20
  -4  -8   1    8.30    2.40
  -4  -8   1    6.70    1.40
  -4   8   1    7.10    0.90
   4   8  -1    2.90    2.30
  -4   8   1    7.90    3.00
   3  -8  -1  815.22   51.89
  -3  -8   1  729.93   52.29
  -3  -8   1  788.32   51.39
  -3  -8   1  805.62   52.49
   3   8  -1  763.62   52.79
  -3   8   1  723.23   53.29
  -3   8   1  798.72   50.89
   2  -8  -1  994.40   71.19
  -2  -8   1 1085.69   71.69
  -2  -8   1 1026.40   71.59
  -2  -8   1 1124.09   71.09
  -2   8   1 1121.09   70.79
   2   8  -1 1126.49   70.79
  -2   8   1 1122.19   70.99
   2   8  -1 1093.69   72.09
  -2   8   1 1042.10   72.39
  -2   8   1 1054.59   71.79
  -1  -8   1  191.28   13.30
  -1  -8   1  186.68   13.10
   1  -8  -1  208.88   13.30
  -1  -8   1  219.78   13.50
  -1   8   1  192.68   13.90
   1   8  -1  181.48   13.50
   1   8  -1  190.98   13.00
  -1   8   1  189.68   13.10
  -1   8   1  183.48   12.80
   0  -8  -1   87.49    6.30
   0  -8  -1   90.79    6.60
   0  -8   1   81.09    6.30
   0   8  -1   79.59    6.30
   0   8  -1   87.09    6.30
   0   8   1  102.79    6.80
   0   8   1   96.39    6.10
  -1  -8  -1  856.81   61.19
   1  -8   1  930.71   61.89
  -1  -8  -1  963.20   62.29
   1  -8   1  957.40   61.29
  -1   8  -1  946.71   61.99
   1   8   1  961.90   61.69
  -1   8  -1  961.10   61.89
  -1   8  -1  918.91   61.49
  -2  -8  -1  501.85   34.30
   2  -8   1  553.54   33.60
   2  -8   1  461.15   34.30
  -2  -8  -1  472.35   34.80
  -2   8  -1  523.15   34.50
   2   8   1  532.05   34.20
  -2   8  -1  495.15   34.50
  -3  -8  -1  115.59   10.50
  -3  -8  -1  122.99   10.00
   3  -8   1  123.29   10.00
  -3   8  -1  135.19   10.20
   3   8   1  134.39   10.00
   4  -8   1   14.70    3.20
  -4  -8  -1   13.60    3.70
  -4   8  -1   16.90    3.40
   4  -9  -1  326.77   23.00
  -4  -9   1  310.77   21.70
  -4  -9   1  310.87   23.10
   4   9  -1  331.37   23.80
  -4   9   1  320.47   21.20
  -4   9   1  308.37   24.50
   3  -9  -1    3.90    1.40
  -3  -9   1    4.70    1.10
  -3  -9   1    5.40    1.70
  -3   9   1    6.50    0.90
   3   9  -1    8.30    2.30
  -3   9   1    2.60    1.70
  -2  -9   1 1152.68   74.39
  -2  -9   1 1052.69   74.99
   2  -9  -1 1151.48   74.59
  -2  -9   1 1173.08   74.99
  -2   9   1 1155.88   74.09
  -2   9   1 1043.50   75.59
  -2   9   1 1113.69   75.19
   2   9  -1 1087.89   75.19
  -2   9   1 1166.38   74.19
   2   9  -1 1195.38   74.69
  -1  -9   1   82.19    6.00
  -1  -9   1   78.79    6.10
   1  -9  -1   88.89    6.10
  -1  -9   1   89.49    6.40
  -1   9   1   96.59    6.60
   1   9  -1   73.89    6.30
  -1   9   1   82.59    6.80
   1   9  -1   82.19    5.80
  -1   9   1   84.89    5.60
  -1   9   1   77.99    6.00
   0  -9  -1  726.13   47.10
   0  -9   1  654.73   46.50
   0  -9   1  686.83   46.80
   0   9   1  725.83   46.50
   0   9  -1  673.53   46.70
   0   9   1  766.32   47.20
   0   9  -1  728.23   46.80
  -1  -9  -1  415.66   28.50
   1  -9   1  422.86   27.40
   1  -9   1  394.66   28.10
  -1  -9  -1  379.86   27.30
  -1   9  -1  466.45   28.20
  -1   9  -1  415.16   27.70
  -1   9  -1  413.26   28.20
   1   9   1  433.26   28.00
   2  -9   1  501.85   29.60
  -2  -9  -1  397.56   30.80
  -2  -9  -1  448.56   30.40
   2  -9   1  434.96   30.40
  -2   9  -1  470.65   30.70
   2   9   1  465.65   30.20
  -2   9  -1  387.46   30.30
   3  -9   1   14.10    2.80
  -3  -9  -1   19.40    3.70
  -3  -9  -1   13.40    2.60
  -3   9  -1   23.90    3.50
   3   9   1   16.70    2.80
  -4  -9  -1  268.87   22.10
   4  -9   1  304.17   21.60
  -4   9  -1  298.47   21.70
  -4 -10   1   11.40    2.80
  -4 -10   1   10.30    1.70
   4 -10  -1   12.40    2.80
  -4  10   1    8.60    1.20
  -4  10   1    7.80    3.00
   4  10  -1   10.80    3.10
  -3 -10   1   17.20    2.80
   3 -10  -1   12.30    2.20
  -3 -10   1    8.90    1.60
  -3 -10   1   10.40    2.40
  -3  10   1    9.40    3.10
   3  10  -1   14.70    3.00
  -3  10   1   13.00    1.50
   2 -10  -1    6.80    1.30
  -2 -10   1    5.50    1.10
  -2 -10   1    4.10    1.30
  -2 -10   1    8.20    1.70
  -2  10   1    7.10    1.00
  -2  10   1    8.20    1.80
  -2  10   1    4.30    1.60
   2  10  -1    7.40    1.80
   1 -10  -1  334.17   22.80
  -1 -10   1  320.77   22.80
  -1 -10   1  367.16   23.10
  -1  10   1  337.17   22.60
  -1  10   1  350.36   23.60
  -1  10   1  296.87   23.00
  -1  10   1  353.36   22.10
   1  10  -1  319.37   22.90
   1  10  -1  349.96   22.40
   0 -10  -1 4732.53  304.77
   0 -10   1 4682.43  304.97
   0 -10  -1 4697.93  305.17
   0 -10   1 4439.56  304.57
   0  10   1 4997.40  305.37
   0  10  -1 4910.51  304.97
   0  10  -1 4333.47  304.77
   0  10  -1 4546.85  304.77
  -1 -10  -1   49.50    4.60
   1 -10   1   50.59    4.20
   1 -10   1   50.99    3.60
  -1 -10  -1   49.30    3.50
  -1  10  -1   51.59    4.30
  -1  10  -1   51.59    3.90
  -1  10  -1   49.90    4.30
   1  10   1   49.80    4.10
   2 -10   1  404.46   28.50
  -2 -10  -1  413.16   28.40
   2 -10   1  444.16   27.60
  -2 -10  -1  385.16   29.00
   2  10   1  446.06   28.30
  -2  10  -1  427.96   28.70
  -2  10  -1  379.16   28.50
  -2  10  -1  411.06   27.60
  -3 -10  -1   76.09    7.50
   3 -10   1   73.99    6.80
  -3 -10  -1   78.29    6.90
   3  10   1   81.29    6.80
  -3  10  -1   78.49    7.00
   4 -10   1  112.09    9.70
  -4 -10  -1  113.69   10.50
  -4  10  -1  106.69    9.80
  -4 -11   1  376.16   26.60
   4 -11  -1  361.16   26.30
   4  11  -1  407.16   27.30
  -4  11   1  358.46   24.60
  -4  11   1  346.07   27.60
  -3 -11   1   36.70    3.30
   3 -11  -1   38.70    3.80
  -3 -11   1   26.90    4.20
  -3 -11   1   39.00    4.70
   3  11  -1   36.10    4.80
  -3  11   1   34.90    5.40
  -3  11   1   37.30    2.90
  -2 -11   1  179.98   13.30
   2 -11  -1  188.88   13.00
  -2 -11   1  194.78   12.90
  -2 -11   1  179.88   13.50
  -2  11   1  179.28   13.60
  -2  11   1  193.28   12.70
   2  11  -1  190.28   13.70
  -2  11   1  163.18   13.90
   1 -11  -1   16.70    2.10
  -1 -11   1   16.20    2.20
  -1 -11   1   11.90    1.80
  -1  11   1   13.80    2.50
  -1  11   1   17.40    1.20
  -1  11   1   19.30    2.00
   1  11  -1   17.30    1.50
  -1  11   1   14.90    2.30
   1  11  -1   15.80    2.10
   0 -11  -1   71.19    5.40
   0 -11  -1   70.79    4.90
   0 -11   1   58.29    4.60
   0 -11   1   63.89    5.00
   0  11  -1   67.99    4.90
   0  11   1   68.09    5.10
   0  11   1   62.19    4.60
   0  11   1   72.89    5.40
   0  11  -1   62.99    4.90
   0  11  -1   63.79    5.00
   1 -11   1  629.04   40.70
  -1 -11  -1  636.14   42.10
   1 -11   1  628.14   41.50
  -1 -11  -1  612.64   40.70
   1  11   1  599.54   41.40
  -1  11  -1  632.84   41.70
  -1  11  -1  627.84   41.60
  -1  11  -1  602.74   41.10
  -2 -11  -1   31.60    4.30
   2 -11   1   28.10    3.60
  -2 -11  -1   28.10    3.50
  -2  11  -1   28.30    3.70
   2  11   1   32.90    3.10
  -2  11  -1   26.90    3.20
  -2  11  -1   30.30    2.60
  -3 -11  -1   19.20    4.00
  -3 -11  -1   24.70    3.60
   3 -11   1   21.80    3.50
   3  11   1   30.10    3.70
  -3  11  -1   24.50    2.20
  -3  11  -1   27.50    4.00
   4 -11   1   60.29    6.40
  -4  11  -1   63.19    7.60
  -4  11  -1   63.09    4.70
  -4 -12   1   52.29    6.30
   4 -12  -1   53.89    6.50
  -4  12   1   52.19    4.20
  -4  12   1   47.60    7.30
   4  12  -1   61.59    7.40
  -3 -12   1  567.54   44.00
  -3 -12   1  645.54   44.00
   3 -12  -1  672.03   43.50
   3  12  -1  705.23   44.60
  -3  12   1  612.44   45.00
  -3  12   1  664.03   42.80
  -2 -12   1  258.47   18.20
   2 -12  -1  252.47   17.60
  -2 -12   1  262.27   17.90
  -2  12   1  253.27   17.20
  -2  12   1  230.58   18.60
   2  12  -1  277.27   18.30
  -2  12   1  236.58   18.10
   1 -12  -1  325.97   21.80
  -1 -12   1  312.07   21.70
  -1 -12   1  318.27   22.00
  -1  12   1  288.27   22.00
  -1  12   1  325.07   21.60
  -1  12   1  337.17   22.70
   1  12  -1  313.07   21.90
   1  12  -1  332.07   21.30
   0 -12   1  219.28   15.60
   0 -12  -1  220.88   15.40
   0 -12  -1  218.28   15.80
   0 -12   1  216.78   15.10
   0  12  -1  232.28   15.40
   0  12   1  217.78   15.60
   0  12  -1  223.38   15.50
   0  12   1  270.27   16.10
   0  12   1  211.58   15.00
   0  12  -1  230.48   15.60
   1 -12   1    3.30    1.10
  -1 -12  -1    6.20    0.80
   1 -12   1    4.60    0.60
  -1 -12  -1    3.40    1.30
  -1  12  -1    5.20    1.30
  -1  12  -1    5.10    1.30
  -1  12  -1    4.50    0.90
   1  12   1    3.50    1.00
   2 -12   1  287.37   20.30
  -2 -12  -1  296.87   21.00
  -2 -12  -1  291.97   20.20
  -2  12  -1  287.57   19.40
  -2  12  -1  259.97   20.30
   2  12   1  308.97   20.10
  -2  12  -1  281.57   20.40
  -3 -12  -1  173.98   14.80
  -3 -12  -1  183.08   14.10
   3 -12   1  185.48   14.10
   3  12   1  193.48   14.00
  -3  12  -1  192.68   12.90
  -3  12  -1  181.58   14.20
   4 -12   1    9.50    2.90
  -4 -12  -1    7.60    2.90
  -4  12  -1    6.10    2.50
  -4  12  -1    6.00    1.20
   4 -13  -1  175.38   14.30
  -4 -13   1  182.58   14.40
  -4  13   1  187.58   12.70
  -4  13   1  156.88   15.30
   4  13  -1  200.38   15.20
   3 -13  -1   71.19    6.10
  -3 -13   1   81.99    6.80
  -3 -13   1   62.19    6.60
  -3  13   1   79.39    5.50
   3  13  -1   75.79    7.10
  -3  13   1   60.89    7.10
  -2 -13   1   75.99    6.30
  -2 -13   1   70.99    6.40
   2 -13  -1   78.19    6.00
  -2  13   1   69.49    6.90
  -2  13   1   79.89    5.70
   2  13  -1   70.29    6.40
  -2  13   1   74.99    6.60
  -1 -13   1  702.53   48.50
  -1 -13   1  680.53   48.80
   1 -13  -1  739.43   48.60
  -1  13   1  715.63   48.40
  -1  13   1  749.33   49.50
  -1  13   1  770.72   49.00
   1  13  -1  741.03   48.10
   1  13  -1  743.23   48.70
   0 -13   1    0.70    0.40
   0 -13  -1    0.30    0.50
   0 -13  -1    0.10    0.50
   0 -13   1    1.50    0.70
   0  13  -1    0.40    0.50
   0  13   1    0.70    0.30
   0  13   1    0.70    0.60
   0  13  -1    0.80    0.60
   0  13   1    1.20    0.70
   0  13  -1    0.60    0.50
  -1 -13  -1  143.99    9.70
   1 -13   1  119.19    8.00
   1 -13   1  123.39    8.90
  -1  13  -1  112.89    8.40
  -1  13  -1  107.79    8.90
   1  13   1  108.89    8.70
  -1  13  -1  119.09    9.10
  -2 -13  -1    0.70    1.20
  -2 -13  -1   -0.60    0.70
   2 -13   1   -0.40    0.90
   2  13   1    0.30    0.90
  -2  13  -1    2.10    1.20
  -2  13  -1   -0.30    0.50
  -2  13  -1   -0.40    0.80
   3 -13   1    9.10    2.50
  -3 -13  -1   11.80    2.50
  -3 -13  -1   14.20    3.30
   3  13   1   11.50    2.40
  -3  13  -1   13.20    2.80
  -3  13  -1   10.20    1.50
   4 -13   1   21.30    4.00
  -4 -13  -1   23.50    5.00
  -4  13  -1   16.40    3.70
  -4  13  -1   19.90    2.30
   4 -14  -1  278.07   21.60
  -4 -14   1  294.47   21.70
  -4  14   1  261.07   22.70
  -4  14   1  306.07   20.00
   4  14  -1  316.17   22.50
  -3 -14   1    1.00    1.30
  -3 -14   1    1.50    1.40
   3 -14  -1    1.90    1.20
  -3  14   1    0.80    0.70
  -3  14   1    0.60    1.60
   3  14  -1   -0.50    1.50
   2 -14  -1    0.50    0.80
  -2 -14   1    0.70    0.90
  -2 -14   1    1.60    1.10
   2  14  -1   -0.60    0.90
  -2  14   1   -0.60    1.10
  -2  14   1    0.50    0.60
  -2  14   1    6.70    1.90
   1 -14  -1 1197.48   83.29
  -1 -14   1 1186.88   83.19
  -1 -14   1 1185.38   83.59
   1  14  -1 1285.37   82.89
  -1  14   1 1270.47   83.69
  -1  14   1 1316.67   83.19
  -1  14   1 1353.06   84.49
   1  14  -1 1306.67   83.49
   0 -14  -1  194.38   13.60
   0 -14   1  194.38   13.30
   0 -14  -1  191.88   14.00
   0 -14   1  181.38   13.70
   0  14  -1  193.78   13.70
   0  14   1  189.18   13.20
   0  14  -1  220.38   13.90
   0  14   1  206.08   14.20
   0  14  -1  190.88   13.60
   0  14   1  196.18   13.80
  -1 -14  -1   94.19    7.90
   1 -14   1   91.89    7.30
  -1  14  -1   95.59    7.50
  -1  14  -1   95.39    6.90
   1  14   1   86.89    7.20
  -1  14  -1  101.79    7.70
  -2 -14  -1   14.50    3.10
  -2 -14  -1   17.00    2.60
   2 -14   1   14.90    2.60
  -2  14  -1   16.10    2.00
   2  14   1   18.00    2.60
  -2  14  -1   15.30    2.80
  -2  14  -1   14.50    2.80
  -3 -14  -1  235.78   20.00
  -3 -14  -1  267.37   19.30
   3 -14   1  267.77   19.30
  -3  14  -1  261.07   18.00
  -3  14  -1  255.27   19.40
   3  14   1  289.17   19.30
  -4 -14  -1   22.40    4.80
   4 -14   1   13.60    3.30
  -4  14  -1   11.20    1.80
  -4  14  -1   20.50    4.00
  -4 -15   1    3.50    2.20
   4 -15  -1    1.60    1.90
  -4  15   1    3.80    1.10
  -4  15   1    0.90    2.20
   4  15  -1    2.70    2.20
   3 -15  -1    1.00    1.20
  -3 -15   1   -0.50    1.00
  -3 -15   1    0.40    1.20
  -3  15   1    1.00    1.70
  -3  15   1   -0.30    0.50
   3  15  -1    2.40    1.70
  -2 -15   1  466.65   33.10
  -2 -15   1  504.95   33.80
   2 -15  -1  479.85   32.90
  -2  15   1  505.15   33.80
  -2  15   1  466.85   34.30
  -2  15   1  485.65   32.60
   2  15  -1  493.25   33.50
  -1 -15   1   54.69    4.90
  -1 -15   1   63.89    5.40
   1 -15  -1   58.59    5.10
  -1  15   1   60.29    5.90
   1  15  -1   63.99    4.70
  -1  15   1   67.49    5.10
  -1  15   1   57.39    5.40
   1  15  -1   69.29    5.40
   0 -15  -1  238.08   17.30
   0 -15   1  240.48   17.50
   0 -15  -1  252.97   17.90
   0 -15   1  227.58   17.00
   0  15  -1  286.27   17.70
   0  15   1  225.08   17.50
   0  15   1  269.87   18.00
   0  15  -1  249.97   17.50
   0  15  -1  293.27   17.50
   0  15   1  247.78   16.90
  -1 -15  -1   46.10    4.70
   1 -15   1   49.10    4.20
   1  15   1   43.80    4.10
  -1  15  -1   48.60    4.50
  -1  15  -1   44.60    3.80
  -1  15  -1   38.70    4.10
   2 -15   1   87.29    6.90
  -2 -15  -1   81.69    6.70
  -2 -15  -1   70.89    7.30
  -2  15  -1   81.49    6.10
   2  15   1   87.79    6.80
  -2  15  -1   63.79    6.80
  -2  15  -1   82.59    7.00
  -3 -15  -1    7.80    2.80
  -3 -15  -1    6.70    2.10
   3 -15   1    9.40    2.50
   3  15   1    8.40    2.20
  -3  15  -1    6.40    1.30
  -3  15  -1    5.50    2.00
  -4 -15  -1  148.89   14.30
   4 -15   1  176.28   13.40
   4  15   1  208.48   16.80
  -4  15  -1  153.88   13.40
  -4  15  -1  149.29   11.40
   4 -16  -1    9.80    3.00
  -4 -16   1    9.80    2.70
  -4  16   1    1.30    2.20
  -4  16   1    6.20    1.40
   4  16  -1    7.00    2.70
  -3 -16   1   65.89    6.50
  -3 -16   1   65.09    7.00
   3 -16  -1   74.49    6.30
  -3  16   1   76.79    5.70
  -3  16   1   60.69    7.30
   3  16  -1   82.79    7.30
   2 -16  -1   56.59    4.80
  -2 -16   1   49.00    4.80
  -2 -16   1   50.59    5.30
   2  16  -1   52.89    5.20
  -2  16   1   48.80    5.20
  -2  16   1   49.70    6.60
  -2  16   1   56.49    4.40
  -1 -16   1   73.89    6.50
  -1 -16   1   72.89    6.10
   1 -16  -1   82.89    6.50
  -1  16   1   81.09    6.20
  -1  16   1   79.49    7.20
   1  16  -1   82.29    6.50
  -1  16   1   81.99    6.70
   0 -16   1  527.75   36.90
   0 -16   1  534.65   37.60
   0 -16  -1  537.25   37.20
   0 -16  -1  568.94   37.90
   0  16  -1  598.64   37.70
   0  16   1  569.74   36.80
   0  16  -1  548.25   37.50
   0  16   1  556.54   37.60
   0  16  -1  531.65   37.30
   0  16   1  605.34   38.10
   1 -16   1   22.00    2.80
  -1 -16  -1   16.40    3.00
  -1  16  -1   15.90    2.80
  -1  16  -1   21.00    3.00
   1  16   1   23.40    2.50
  -1  16  -1   19.20    2.30
  -2 -16  -1   18.10    2.80
   2 -16   1   21.00    3.10
  -2 -16  -1   15.40    3.40
  -2  16  -1   17.00    3.00
  -2  16  -1   15.70    2.20
  -2  16  -1   19.10    3.40
   2  16   1   16.70    2.70
   3 -16   1   73.09    6.70
  -3 -16  -1   59.39    8.10
   3  16   1   81.19    6.70
  -3  16  -1   61.59    5.40
  -3  16  -1   71.39    6.80
  -4 -16  -1   64.09    9.10
   4 -16   1   73.29    7.50
  -4  16  -1   75.39    7.60
   4  16   1   72.89    6.80
  -4  16  -1   65.89    5.60
   4  16   1   81.49    7.70
  -4 -17   1   84.79    8.30
   4 -17  -1   81.19    8.40
   4  17  -1  109.89    9.40
  -4  17   1   76.29    9.20
  -4  17   1   91.79    7.00
  -3 -17   1   20.00    4.00
  -3 -17   1   20.40    3.40
   3 -17  -1   26.30    3.60
  -3  17   1   24.50    4.90
   3  17  -1   23.00    4.00
  -3  17   1   21.80    2.80
  -2 -17   1  233.98   16.60
   2 -17  -1  245.48   16.50
  -2 -17   1  205.48   17.00
  -2  17   1  234.68   17.20
   2  17  -1  258.97   17.10
  -2  17   1  202.98   17.60
  -2  17   1  224.58   16.10
   1 -17  -1   96.29    7.20
  -1 -17   1   84.59    7.20
  -1 -17   1   83.79    6.70
   1  17  -1   95.19    7.20
  -1  17   1   83.69    6.80
  -1  17   1   90.29    7.40
  -1  17   1   78.09    7.70
   0 -17  -1 1412.16   97.09
   0 -17   1 1458.25   96.79
   0 -17  -1 1420.36   96.39
   0  17   1 1399.46   96.79
   0  17   1 1532.65   97.29
   0  17  -1 1632.24   96.99
   0  17  -1 1454.55   96.49
   0  17  -1 1404.66   96.69
  -1 -17  -1   55.49    5.60
   1 -17   1   61.89    5.20
  -1  17  -1   45.90    5.20
  -1  17  -1   58.99    4.80
  -1  17  -1   59.59    5.30
   1  17   1   67.99    5.30
  -2 -17  -1  209.88   15.10
  -2 -17  -1  204.58   16.30
   2 -17   1  226.38   15.50
  -2  17  -1  186.98   15.60
   2  17   1  218.18   15.30
  -2  17  -1  188.58   15.30
  -2  17  -1  213.78   14.60
   3 -17   1    3.50    1.90
  -3 -17  -1    5.10    2.40
  -3  17  -1    1.60    0.90
  -3  17  -1    6.50    2.10
   3  17   1    4.50    2.00
   4 -17   1  201.68   15.30
  -4 -17  -1  158.58   15.90
   4  17   1  194.18   14.60
  -4  17  -1  174.08   13.30
   4  17   1  232.28   15.70
  -4  17  -1  179.58   15.40
  -4 -18   1   85.19    8.30
   4 -18  -1   82.69    8.50
   4  18  -1  102.49    9.30
  -4  18   1   88.29    7.00
  -4  18   1   75.99   10.60
  -3 -18   1    0.40    1.40
   3 -18  -1   -0.20    1.10
  -3 -18   1   -0.80    1.20
  -3  18   1    0.70    0.90
  -3  18   1    0.10    1.60
   3  18  -1    1.30    1.90
  -2 -18   1  151.88   13.00
   2 -18  -1  167.28   12.40
  -2 -18   1  161.78   12.40
   2  18  -1  184.38   13.00
  -2  18   1  171.78   13.20
  -2  18   1  178.88   12.20
  -2  18   1  149.99   13.60
   1 -18  -1 2278.17  143.29
  -1 -18   1 2105.39  142.79
  -1 -18   1 2232.48  143.59
  -1  18   1 2223.28  143.49
  -1  18   1 2023.10  144.09
   1  18  -1 2150.98  143.19
  -1  18   1 2206.38  142.99
   0 -18  -1   77.99    6.70
   0 -18  -1   81.39    7.30
   0 -18   1   88.49    7.10
   0  18   1   83.39    7.10
   0  18  -1   96.29    7.20
   0  18  -1   92.89    6.90
   0  18  -1   89.29    7.00
   0  18   1   93.59    7.50
   1 -18   1    1.10    1.10
  -1 -18  -1    1.40    1.30
  -1  18  -1    0.20    0.90
   1  18   1    2.10    0.80
   1  18   1    1.40    1.00
  -1  18  -1    0.70    0.70
  -1  18  -1    1.30    1.10
   2 -18   1   17.20    3.00
  -2 -18  -1   17.30    3.60
  -2  18  -1   12.40    2.70
   2  18   1    9.70    2.20
  -2  18  -1   15.70    3.10
  -2  18  -1   12.10    2.00
  -3 -18  -1  600.84   47.40
   3 -18   1  706.23   46.40
   3  18   1  756.02   46.50
  -3  18  -1  618.34   46.30
  -3  18  -1  672.03   45.10
  -3 -19   1    5.70    2.50
  -3 -19   1    5.70    2.10
   3 -19  -1    7.80    2.20
  -3  19   1    4.30    2.50
   3  19  -1    5.80    2.50
  -3  19   1    4.60    1.40
  -2 -19   1   22.10    3.90
   2 -19  -1   21.10    3.10
  -2 -19   1   23.50    3.30
   2  19  -1   19.70    3.30
  -2  19   1   18.40    2.70
  -2  19   1   19.20    4.20
  -2  19   1   48.10    5.30
   1 -19  -1  175.08   12.20
  -1 -19   1  157.08   12.30
  -1 -19   1  169.08   11.70
  -1  19   1  170.18   11.90
  -1  19   1  135.39   12.60
   1  19  -1  155.98   12.00
   0 -19  -1  151.28   11.40
   0 -19  -1  144.69   10.60
   0 -19   1  143.29   11.00
   0  19  -1  141.59   10.70
   0  19  -1  158.68   11.10
   0  19   1  140.59   11.00
   0  19  -1  136.79   10.80
   0  19   1  152.28   11.40
  -1 -19  -1  180.78   15.60
   1 -19   1  221.88   15.20
  -1  19  -1  186.08   15.30
   1  19   1  197.78   14.30
  -1  19  -1  202.58   15.20
  -1  19  -1  215.78   14.70
   1  19   1  237.38   15.30
   2 -19   1   20.30    3.30
  -2 -19  -1   23.20    4.40
  -2  19  -1   21.00    2.70
  -2  19  -1   22.80    4.10
  -2  19  -1   20.00    3.50
   2  19   1   20.60    3.30
   3 -19   1  378.76   24.90
  -3 -19  -1  310.57   25.80
  -3  19  -1  331.47   24.80
  -3  19  -1  319.77   23.30
   3  19   1  359.86   24.70
  -3 -20   1   43.40    6.60
  -3 -20   1   37.30    5.10
   3 -20  -1   53.29    5.10
  -3  20   1   36.10    6.50
  -3  20   1   44.10    4.20
   3  20  -1   44.50    6.10
  -2 -20   1  140.29   10.60
   2 -20  -1  129.99   10.60
  -2 -20   1  112.79   11.10
  -2  20   1  138.59   10.30
   2  20  -1  161.48   11.30
  -2  20   1  163.58   11.60
  -2  20   1  119.89   11.80
  -1 -20   1  108.29    8.70
   1 -20  -1  119.39    8.60
  -1 -20   1  111.89    8.10
   1  20  -1  101.39    8.40
  -1  20   1  101.39    8.20
  -1  20   1   83.69    8.90
   0 -20   1   18.30    2.90
   0 -20  -1   19.90    3.00
   0 -20  -1   18.60    3.20
   0  20  -1   23.30    3.00
   0  20  -1   18.50    2.90
   0  20  -1   17.70    2.70
   0  20   1   23.60    3.50
  -1 -20  -1  728.93   57.89
   1 -20   1  876.31   57.49
   1  20   1  961.80   57.69
  -1  20  -1  853.61   57.49
  -1  20  -1  839.62   57.89
  -1  20  -1  857.11   56.99
  -2 -20  -1   58.49    7.70
   2 -20   1   69.49    6.10
  -2  20  -1   61.19    6.40
   2  20   1   62.89    5.80
  -2  20  -1   51.79    5.00
  -2  20  -1   59.79    5.90
  -3 -20  -1   45.70    7.30
   3 -20   1   54.09    5.80
   3  20   1   55.19    5.80
  -3  20  -1   46.90    4.50
  -3  20  -1   46.80    6.30
  -3 -21   1    2.40    2.10
   3 -21  -1    5.90    2.00
  -3 -21   1    5.30    2.10
  -3  21   1    4.00    1.50
  -3  21   1    1.70    2.30
   3  21  -1    4.70    2.40
  -2 -21   1  126.09   12.30
   2 -21  -1  149.88   11.80
  -2 -21   1  158.08   11.70
  -2  21   1  165.58   11.60
   2  21  -1  184.28   12.60
  -2  21   1  134.79   13.00
   1 -21  -1  327.17   21.20
  -1 -21   1  279.37   21.20
  -1  21   1  307.37   20.80
   1  21  -1  270.97   20.80
   0 -21  -1  213.08   16.40
   0 -21   1  219.48   16.10
   0  21   1  216.68   16.40
   0  21  -1  238.28   16.20
   0  21  -1  213.38   15.80
   1 -21   1  116.39    8.90
  -1 -21  -1   89.39    9.10
   1  21   1  107.89    8.70
  -1  21  -1  104.69    9.10
  -1  21  -1  106.89    8.30
  -1  21  -1  111.49    8.80
   2 -21   1  284.27   19.00
  -2 -21  -1  244.88   19.90
  -2  21  -1  271.87   18.10
  -2  21  -1  240.68   18.80
  -2  21  -1  237.68   19.40
   2  21   1  250.17   18.70
   3 -21   1   27.20    4.50
  -3 -21  -1   22.70    5.30
   3  21   1   29.80    4.40
  -3  21  -1   23.70    3.20
  -3  21  -1   24.30    4.50
  -3 -22   1    1.00    1.80
  -3 -22   1   -0.10    1.30
   3 -22  -1   -0.70    1.20
   3 -22  -1   -0.20    1.60
   3  22  -1    1.20    2.30
  -3  22   1   -0.90    1.90
  -3  22   1   -0.60    1.00
  -2 -22   1    3.00    1.40
  -2 -22   1    5.20    2.20
   2 -22  -1    4.80    1.80
  -2  22   1    4.00    1.60
  -2  22   1    1.60    1.90
   2  22  -1    5.90    2.00
  -1 -22   1  100.19    8.80
   1 -22  -1  112.19    8.70
   1  22  -1  104.19    8.50
  -1  22   1  121.89    8.60
  -1  22   1   80.19    8.90
   0 -22   1  484.55   34.20
   0 -22  -1  492.45   34.50
   0  22  -1  520.65   34.30
   0  22   1  472.15   34.40
   0  22  -1  507.75   34.40
   1 -22   1   43.90    4.50
  -1 -22  -1   32.90    5.30
   1  22   1   43.90    4.50
  -1  22  -1   43.30    5.10
  -1  22  -1   36.20    4.40
  -1  22  -1   38.00    5.20
   2 -22   1   17.90    3.30
  -2 -22  -1   17.50    4.10
   2  22   1   15.00    2.40
  -2  22  -1   12.30    2.40
  -2  22  -1   12.80    3.30
   2  22   1   14.90    3.00
  -2  22  -1   21.00    3.70
  -3 -22  -1   40.30    7.20
   3 -22   1   46.50    6.00
   3  22   1   41.80    5.60
  -3  22  -1   43.60    4.30
  -3  22  -1   36.90    5.80
   3  22   1   45.70    5.20
   3 -23  -1   37.00    5.00
  -3 -23   1   30.40    4.60
  -3 -23   1   33.10    6.10
   3 -23  -1   38.80    5.60
   3  23  -1   39.80    5.80
  -3  23   1   40.00    7.00
  -3  23   1   41.90    4.70
  -2 -23   1   42.30    5.30
   2 -23  -1   52.19    5.30
  -2 -23   1   41.10    6.30
   2  23  -1   58.39    5.70
  -2  23   1   53.89    7.70
  -2  23   1   50.19    4.90
   1 -23  -1  160.28   11.40
  -1 -23   1  130.39   11.30
  -1  23   1  130.19   11.90
  -1  23   1  143.69   11.00
   1  23  -1  141.89   11.10
   0 -23   1  508.65   34.80
   0 -23  -1  475.35   35.00
   0  23   1  471.75   35.00
   0  23  -1  553.94   35.00
  -1 -23  -1   24.70    4.50
   1 -23   1   25.20    3.80
   1  23   1   24.70    3.70
  -1  23  -1   20.10    3.70
  -1  23  -1   29.80    4.00
  -1  23  -1   26.60    3.50
   2 -23   1  159.68   11.20
  -2 -23  -1  115.69   11.60
  -2  23  -1  102.29   10.90
  -2  23  -1  128.69   10.70
  -2  23  -1  122.09    9.90
   2  23   1  145.79   10.90
   3 -23   1   43.70    5.70
  -3 -23  -1   27.50    6.10
  -3  23  -1   42.80    4.70
  -3  23  -1   36.80    5.70
   3  23   1   39.30    4.70
   3  23   1   36.70    5.30
  -3 -24   1   19.90    3.90
  -3 -24   1   34.70    7.40
   3 -24  -1   25.30    4.40
  -3  24   1   28.00    3.90
   3  24  -1   30.70    5.00
  -3  24   1   21.70    5.70
   2 -24  -1   21.90    3.70
  -2 -24   1   19.00    4.20
  -2  24   1   18.70    4.70
   2  24  -1   21.30    3.80
  -2  24   1   33.00    4.10
   1 -24  -1   99.09    8.70
  -1 -24   1   97.49    8.90
   1 -24  -1   98.79    8.40
  -1  24   1   93.29    9.30
   1  24  -1  115.29    8.90
  -1  24   1  111.69    8.60
   0 -24  -1   14.40    3.00
   0 -24   1   16.00    2.90
   0  24  -1   13.90    2.70
   0  24   1   12.60    2.70
  -1 -24  -1   54.39    7.50
   1 -24   1   68.29    6.50
  -1  24  -1   73.49    7.00
   1  24   1   74.39    6.70
  -1  24  -1   73.19    6.20
  -1  24  -1   68.99    6.50
  -2 -24  -1   38.40    6.50
   2 -24   1   42.20    5.60
   2  24   1   44.10    5.00
  -2  24  -1   43.40    5.80
  -2  24  -1   31.90    6.60
  -2  24  -1   52.69    5.30
   3 -24   1   78.79    7.60
  -3 -24  -1   76.19   10.30
  -3  24  -1   58.19    6.10
  -3  24  -1   71.59    8.40
   3  24   1   76.09    7.40
   3  24   1   68.79    6.40
   2 -25  -1   39.80    5.20
   2 -25  -1   38.80    5.20
  -2 -25   1   35.20    5.90
  -2  25   1   40.30    4.80
   2  25  -1   36.00    5.20
  -2  25   1   29.00    5.90
   1 -25  -1    5.70    1.90
  -1 -25   1    2.90    1.80
   1 -25  -1   13.40    2.70
  -1  25   1    4.40    1.70
  -1  25   1    7.80    2.50
   1  25  -1   11.10    2.40
   0 -25  -1   74.29    7.00
   0 -25   1   74.49    6.70
   0  25   1   61.99    6.60
   0  25  -1   68.29    6.60
   1 -25   1   84.79    7.80
  -1 -25  -1   85.29    8.60
  -1  25  -1   84.19    8.20
  -1  25  -1   81.89    7.30
  -1  25  -1   90.19    7.80
   1  25   1   95.19    8.00
  -2 -25  -1   10.30    3.60
   2 -25   1    9.20    2.80
  -2  25  -1   12.90    2.60
   2  25   1   11.50    2.80
  -2  25  -1   14.90    3.30
   2 -26  -1    8.50    2.70
  -2 -26   1    7.50    3.00
   2 -26  -1    8.60    2.60
  -2  26   1   10.30    3.40
  -2  26   1    7.40    2.40
   2  26  -1    8.00    2.70
  -1 -26   1  394.56   28.70
   1 -26  -1  418.76   28.60
  -1  26   1  412.66   28.20
   1  26  -1  434.76   28.50
  -1  26   1  332.07   28.90
   0 -26  -1   33.20    5.20
   0 -26   1   44.60    5.50
   0  26  -1   41.60    4.60
   0  26   1   35.90    5.40
  -1 -26  -1   78.69    8.70
   1 -26   1  100.89    8.50
   1  26   1  102.29    8.50
  -1  26  -1   95.79    8.30
  -1  26  -1   99.09    8.00
  -1  26  -1   78.89    8.40
   2 -26   1   15.20    3.50
  -2 -26  -1    8.20    3.30
  -2  26  -1   11.90    3.20
   2  26   1   11.20    2.90
  -2  26  -1   16.50    2.80
  -2 -27   1  109.89   11.00
   2 -27  -1  136.89   10.70
   2 -27  -1  123.39   10.40
  -2  27   1  132.59   10.30
   2  27  -1  120.79   10.60
  -2  27   1   98.79   11.40
  -1 -27   1   88.39    8.60
   1 -27  -1  101.69    8.70
  -1  27   1   78.69    8.80
   1  27  -1   97.69    8.40
   0 -27   1   75.09    6.90
   0 -27  -1   60.59    6.90
   0  27   1   65.09    6.80
   0  27  -1   69.79    6.70
  -1 -27  -1    7.20    3.00
   1 -27   1    6.40    2.20
  -1  27  -1   10.70    2.50
  -1  27  -1    7.20    2.40
  -1  27  -1    9.20    2.80
   1  27   1    6.00    2.10
  -2 -27  -1   15.50    4.30
   2 -27   1   20.80    3.90
  -2  27  -1   19.40    3.30
   2  27   1   19.90    3.80
  -2  27  -1   18.30    3.80
   2 -28  -1  166.48   13.40
   2 -28  -1  195.78   13.90
  -2 -28   1  148.59   14.10
  -2  28   1  147.89   14.80
   2  28  -1  166.88   14.00
  -1 -28   1    2.20    1.90
   1 -28  -1    2.10    1.90
   1  28  -1    4.60    2.00
  -1  28   1    3.10    2.20
   0 -28  -1    4.50    2.40
   0 -28   1    3.50    2.00
   0  28   1    7.50    2.60
   0  28  -1    5.20    2.10
  -1 -28  -1   38.40    6.50
   1 -28   1   47.80    6.10
   1  28   1   42.40    5.80
  -1  28  -1   44.00    6.40
   1 -29  -1   11.80    3.20
  -1 -29   1   11.20    3.10
  -1  29   1   11.60    3.50
   1  29  -1   14.00    3.30
   0 -29   1   31.20    4.90
   0 -29  -1   23.50    4.60
   0  29  -1   23.40    4.10
   0  29   1   26.40    4.60
  -1 -29  -1   14.80    4.00
   1 -29   1   15.00    3.60
  -1  29  -1   15.10    3.80
   1  29   1   17.40    3.60
  -1 -30   1   15.10    3.70
   1 -30  -1   17.00    3.80
  -1  30   1   16.80    4.30
   1  30  -1   16.20    3.50
   0 -30   1  229.58   17.20
   0 -30  -1  210.98   17.30
   0  30   1  201.68   17.00
   0  30  -1  222.68   17.00
   1 -30   1    6.10    3.00
  -1  30  -1    5.20    2.50
  -4   0   2    1.30    0.90
  -4   0   2    1.80    1.40
   3   0  -2   -0.30    0.70
  -3   0   2   -0.40    0.50
  -3   0   2   -0.20    0.70
  -3   0   2    0.50    1.50
  -2   0   2  280.87   18.60
   2   0  -2  275.37   18.80
  -2   0   2  273.27   20.10
  -2   0   2  270.57   18.90
  -1   0   2    0.90    0.40
  -1   0   2    0.20    0.40
  -1   0   2    0.50    0.60
   1   0  -2    0.20    0.50
   0   0  -2  419.16   28.40
   0   0   2  437.46   28.20
   0   0  -2  415.76   28.30
   0   0   2  427.76   28.30
   1   0   2    0.40    0.20
  -1   0  -2    0.70    0.40
   1   0   2    0.20    0.30
  -1   0  -2   -0.50    0.60
  -2   0  -2 5530.55  363.66
  -2   0  -2 5468.35  364.76
   2   0   2 5852.81  363.56
   2   0   2 5409.36  363.26
   3   0   2    7.00    1.50
  -3   0  -2    5.50    2.00
  -3   0  -2    1.40    1.10
   4   0   2   28.00    3.70
  -4   0  -2   28.00    5.00
  -4  -1   2  200.88   16.10
  -4  -1   2  226.38   15.00
  -4   1   2  226.98   14.90
   4   1  -2  183.08   16.70
  -4   1   2  224.78   16.20
  -3  -1   2   32.70    2.80
  -3  -1   2   29.70    3.90
  -3  -1   2   26.40    4.70
   3  -1  -2   31.90    3.20
  -3   1   2   29.10    3.80
   3   1  -2   30.10    3.10
  -3   1   2   25.00    4.50
  -3   1   2   33.60    2.70
  -2  -1   2   50.79    5.10
  -2  -1   2   51.39    4.20
   2  -1  -2   44.60    3.60
  -2  -1   2   49.40    3.90
  -2  -1   2   50.79    3.80
   2  -1  -2   51.29    4.20
  -2   1   2   47.30    4.10
  -2   1   2   50.69    5.10
   2   1  -2   51.09    4.10
  -2   1   2   53.79    3.90
  -1  -1   2  513.85   32.90
  -1  -1   2  467.25   33.50
   1  -1  -2  506.95   33.00
  -1  -1   2  512.65   32.90
  -1   1   2  471.95   33.50
  -1   1   2  482.35   32.80
  -1   1   2  518.05   32.90
   1   1  -2  483.85   32.90
   0  -1   2  319.77   21.90
   0  -1  -2  316.07   22.00
   0  -1  -2  329.27   22.10
   0  -1   2  314.97   22.00
   0   1   2  344.77   22.10
   0   1  -2  319.87   22.00
   0   1  -2  348.27   22.20
   0   1   2  341.47   21.90
  -1  -1  -2    3.60    1.30
   1  -1   2    5.00    0.90
  -1  -1  -2    4.60    0.90
  -1   1  -2    4.80    0.90
  -1   1  -2    4.60    1.40
   1   1   2    5.70    0.60
   1   1   2    6.00    1.00
  -2  -1  -2  251.07   18.30
   2  -1   2  213.68   16.80
  -2  -1  -2  245.28   17.20
   2  -1   2  262.47   17.10
  -2   1  -2  244.18   18.20
   2   1   2  266.47   17.10
  -2   1  -2  268.17   17.30
   2   1   2  252.27   16.90
   3  -1   2 1319.57   84.49
  -3  -1  -2 1438.76   85.89
  -3  -1  -2 1245.38   86.09
  -3   1  -2 1182.08   84.99
  -3   1  -2 1241.48   86.09
   3   1   2 1255.67   84.49
  -4  -1  -2  342.37   27.60
   4  -1   2  377.46   25.80
   4   1   2  387.06   25.90
  -4   1  -2  374.46   27.90
   4  -2  -2    7.90    2.10
  -4  -2   2    8.60    2.40
  -4  -2   2    5.50    1.40
  -4   2   2    7.50    1.40
  -4   2   2    6.20    2.20
   4   2  -2    7.90    2.90
  -4   2   2   11.20    3.60
  -3  -2   2  159.88   11.30
  -3  -2   2  155.58   12.10
   3  -2  -2  168.78   11.80
  -3   2   2  149.29   11.90
   3   2  -2  158.18   11.60
  -3   2   2  170.08   13.60
  -3   2   2  167.28   11.10
   2  -2  -2  349.57   23.90
  -2  -2   2  362.56   23.60
  -2  -2   2  343.27   25.00
   2  -2  -2  328.17   23.20
  -2  -2   2  371.36   24.00
  -2  -2   2  352.76   23.50
  -2   2   2  344.77   25.00
  -2   2   2  352.26   23.50
   2   2  -2  362.26   23.80
  -2   2   2  353.46   23.90
  -1  -2   2   51.09    3.40
   1  -2  -2   52.79    4.00
   1  -2  -2   49.30    3.40
  -1  -2   2   44.80    3.80
  -1  -2   2   47.30    3.80
  -1  -2   2   48.60    4.40
  -1   2   2   46.40    4.40
  -1   2   2   51.19    3.70
  -1   2   2   49.10    3.80
   1   2  -2   47.70    3.80
   0  -2  -2  314.37   21.70
   0  -2   2  308.47   21.40
   0  -2  -2  317.57   21.50
   0   2   2  347.07   21.50
   0   2  -2  306.67   21.50
   0   2  -2  339.17   21.70
   0   2   2  319.77   21.60
   1  -2   2  125.69    8.30
  -1  -2  -2  111.29    8.30
  -1  -2  -2  114.89    9.00
   1   2   2  124.99    8.10
   1   2   2  123.89    8.40
  -1   2  -2  111.49    8.40
  -1   2  -2  114.89    9.00
   2  -2   2   87.19    7.40
   2  -2   2  117.29    7.70
  -2  -2  -2  114.19    7.80
  -2  -2  -2  100.69    8.80
   2   2   2  110.09    7.80
   2   2   2  102.19    7.50
  -2   2  -2  119.59    8.10
  -2   2  -2  109.09    8.90
   3  -2   2  548.45   35.80
  -3  -2  -2  497.75   37.30
  -3   2  -2  513.05   36.40
   3   2   2  562.34   36.00
  -3   2  -2  528.55   37.50
  -4  -2  -2    3.70    2.30
   4  -2   2    2.10    1.20
  -4   2  -2    1.10    1.90
   4   2   2    4.60    1.60
  -4  -3   2   33.40    3.10
   4  -3  -2   28.40    4.00
  -4  -3   2   35.10    4.80
  -4   3   2   32.70    3.00
  -4   3   2   41.80    4.80
   4   3  -2   28.40    5.30
  -4   3   2   29.40    5.80
  -3  -3   2  214.68   14.40
   3  -3  -2  203.18   14.90
  -3  -3   2  207.28   15.30
  -3   3   2  218.38   15.10
   3   3  -2  214.48   14.70
  -3   3   2  199.08   16.50
   3   3  -2  196.28   15.80
  -3   3   2  211.08   14.20
  -2  -3   2  228.88   15.90
   2  -3  -2  228.78   15.80
  -2  -3   2  220.78   15.40
  -2  -3   2  232.68   15.50
   2  -3  -2  223.38   15.20
  -2   3   2  216.38   15.70
   2   3  -2  233.08   15.70
  -2   3   2  231.28   15.30
  -2   3   2  228.68   17.00
  -1  -3   2  268.67   19.30
  -1  -3   2  332.17   19.00
   1  -3  -2  306.77   19.00
  -1  -3   2  274.97   19.30
   1  -3  -2  280.27   19.40
  -1   3   2  268.57   20.00
  -1   3   2  284.47   19.30
  -1   3   2  269.17   19.20
   1   3  -2  277.77   19.30
   0  -3  -2    0.10    0.40
   0  -3  -2    0.60    0.40
   0  -3   2    0.30    0.30
   0   3   2    0.30    0.40
   0   3  -2   -0.20    0.30
   0   3   2    0.50    0.30
   0   3  -2    0.10    0.30
  -1  -3  -2  449.86   33.10
  -1  -3  -2  454.05   32.40
   1  -3   2  508.95   32.40
   1   3   2  524.75   32.30
  -1   3  -2  489.75   33.30
   1   3   2  520.25   32.50
  -1   3  -2  466.85   32.60
  -2  -3  -2    1.80    1.40
   2  -3   2   -0.50    0.70
   2  -3   2    3.40    0.80
  -2  -3  -2    3.80    1.00
   2   3   2    2.40    0.80
  -2   3  -2    0.30    1.10
  -2   3  -2    2.30    0.90
   2   3   2    2.80    0.70
  -3  -3  -2   20.20    3.70
   3  -3   2   20.00    2.50
   3   3   2   18.90    2.70
  -3   3  -2   25.30    4.30
  -3   3  -2   22.30    3.30
  -4  -3  -2    9.80    3.30
   4  -3   2    7.90    1.90
  -4   3  -2   11.70    3.40
   4   3   2   12.90    2.50
  -4  -4   2   94.59    8.60
  -4  -4   2   97.09    7.40
   4  -4  -2   99.09    8.20
   4   4  -2   87.49    9.10
  -4   4   2  102.39    7.20
  -4   4   2  102.19   10.10
  -3  -4   2    9.90    2.10
  -3  -4   2   10.30    1.50
   3  -4  -2   11.20    2.00
  -3   4   2    8.60    1.90
   3   4  -2    8.60    1.70
  -3   4   2    9.80    1.30
   3   4  -2    8.40    2.40
  -3   4   2   10.70    2.80
  -2  -4   2  808.42   52.49
  -2  -4   2  749.53   52.39
   2  -4  -2  827.12   52.19
   2  -4  -2  802.82   52.79
  -2  -4   2  830.42   52.89
   2   4  -2  710.63   53.19
  -2   4   2  775.42   53.89
  -2   4   2  779.52   52.59
  -2   4   2  812.42   52.29
   2   4  -2  834.02   52.59
  -1  -4   2 3903.01  265.77
  -1  -4   2 4595.34  265.67
   1  -4  -2 4000.50  265.87
   1  -4  -2 4601.14  265.47
  -1  -4   2 3870.31  265.77
   1   4  -2 3896.61  265.77
  -1   4   2 3889.01  265.57
  -1   4   2 3737.73  266.37
  -1   4   2 4097.89  265.67
   0  -4   2   21.50    1.90
   0  -4  -2   23.60    2.20
   0  -4   2   22.00    1.90
   0  -4  -2   21.20    2.00
   0   4   2   24.20    2.20
   0   4  -2   19.80    1.90
   0   4  -2   20.30    1.80
   0   4   2   27.10    2.00
  -1  -4  -2    1.50    0.50
   1  -4   2    0.70    0.40
  -1  -4  -2    1.10    0.90
  -1   4  -2    0.70    0.50
   1   4   2    2.40    0.60
  -1   4  -2    1.80    0.90
  -1   4  -2    1.40    0.40
   1   4   2    1.30    0.50
  -2  -4  -2   20.30    2.20
  -2  -4  -2   14.30    2.90
   2  -4   2   17.60    2.00
  -2   4  -2   12.20    2.70
  -2   4  -2   18.90    2.50
   2   4   2   14.70    1.70
   2   4   2   16.30    2.10
  -2   4  -2   22.60    2.70
   3  -4   2  379.46   25.50
  -3  -4  -2  340.27   27.10
   3   4   2  403.16   25.90
  -3   4  -2  387.66   27.40
  -3   4  -2  364.66   26.30
  -4  -4  -2   18.30    4.40
   4  -4   2   23.70    3.10
   4   4   2   31.80    3.90
  -4   4  -2   16.30    4.30
   4  -5  -2  108.49    9.00
  -4  -5   2  112.99    8.30
  -4  -5   2  108.29    9.50
  -4   5   2  112.19    7.90
   4   5  -2  106.59   10.10
  -4   5   2  107.99   10.80
  -3  -5   2    6.30    1.80
   3  -5  -2    5.40    1.60
  -3  -5   2    5.00    1.10
   3   5  -2    4.70    2.10
  -3   5   2    9.20    1.80
  -3   5   2    4.10    0.80
  -3   5   2    6.40    2.30
  -2  -5   2  771.22   53.49
   2  -5  -2  866.51   53.29
  -2  -5   2  856.01   53.99
  -2  -5   2  823.52   53.59
   2  -5  -2  807.22   53.79
  -2   5   2  817.62   53.59
  -2   5   2  808.62   53.29
   2   5  -2  715.43   54.29
   2   5  -2  860.41   53.59
  -2   5   2  761.32   54.89
  -1  -5   2   81.29    6.30
   1  -5  -2   84.29    6.50
  -1  -5   2   86.59    6.40
   1  -5  -2  100.69    6.20
  -1  -5   2  103.59    6.20
  -1   5   2   87.39    6.20
   1   5  -2   72.49    6.60
  -1   5   2   88.39    6.30
   1   5  -2   77.79    6.30
  -1   5   2   79.59    6.90
   0  -5   2  376.26   26.50
   0  -5  -2  409.96   26.60
   0  -5  -2  392.46   26.70
   0   5  -2  371.86   26.60
   0   5  -2  371.56   26.30
   0   5   2  413.16   26.80
   0   5   2  456.95   26.50
  -1  -5  -2   11.30    1.40
   1  -5   2   16.00    1.40
  -1  -5  -2   12.80    2.20
  -1   5  -2   17.10    2.50
  -1   5  -2   12.40    1.20
   1   5   2   13.70    1.60
   1   5   2   16.20    1.50
  -1   5  -2   12.10    1.70
  -2  -5  -2   86.09    6.40
  -2  -5  -2   81.59    7.50
   2  -5   2   90.19    6.40
   2   5   2   84.39    6.60
   2   5   2   87.79    6.40
  -2   5  -2   88.49    6.90
  -2   5  -2   83.99    7.60
   3  -5   2   55.49    4.70
  -3  -5  -2   57.99    7.20
  -3   5  -2   56.39    6.20
   3   5   2   58.19    5.10
  -3   5  -2   66.29    5.70
  -4  -5  -2  149.49   13.60
   4   5   2  151.38   11.90
  -4   5  -2  165.58   13.80
   4  -6  -2  313.77   22.60
  -4  -6   2  305.97   23.10
  -4  -6   2  328.77   21.90
   4   6  -2  317.37   23.90
  -4   6   2  321.57   24.80
   3  -6  -2   74.79    6.30
  -3  -6   2   71.69    5.70
  -3  -6   2   72.39    6.50
  -3   6   2   75.79    6.10
   3   6  -2   75.59    7.10
  -3   6   2   74.89    7.60
  -3   6   2   74.79    5.40
   2  -6  -2   18.30    1.70
   2  -6  -2   20.10    2.50
  -2  -6   2   16.50    2.30
  -2  -6   2   19.40    2.20
  -2  -6   2   17.10    2.10
  -2   6   2   18.70    2.20
   2   6  -2   16.90    2.10
   2   6  -2   21.50    3.10
  -2   6   2   17.10    1.70
  -2   6   2   14.40    3.00
   1  -6  -2   32.30    2.90
  -1  -6   2   29.00    2.70
   1  -6  -2   38.90    2.70
  -1  -6   2   32.90    2.80
  -1  -6   2   35.30    2.60
   1   6  -2   29.60    2.60
   1   6  -2   27.70    2.90
  -1   6   2   28.00    2.50
  -1   6   2   27.50    3.20
  -1   6   2   33.10    2.70
   0  -6  -2   82.99    6.60
   0  -6   2   83.09    6.40
   0  -6  -2   91.89    6.50
   0  -6   2   88.49    6.30
   0   6  -2   85.69    6.40
   0   6   2   97.09    6.80
   0   6   2   93.49    6.30
   0   6  -2   88.19    6.20
  -1  -6  -2    2.10    1.10
   1  -6   2    1.90    0.80
   1  -6   2    1.50    0.50
  -1  -6  -2    1.60    0.50
   1   6   2    2.20    0.60
   1   6   2    2.80    0.70
  -1   6  -2    2.00    0.70
  -1   6  -2    1.40    0.50
  -2  -6  -2   76.69    5.60
  -2  -6  -2   67.39    6.70
   2  -6   2   76.09    5.60
  -2   6  -2   74.19    6.20
   2   6   2   73.49    5.90
   2   6   2   80.99    5.80
  -2   6  -2   76.49    7.00
   3  -6   2  126.99    9.20
  -3  -6  -2  115.49   10.90
  -3   6  -2  131.69   11.10
  -3   6  -2  136.49   10.30
   3   6   2  123.39    9.60
  -4  -6  -2   13.20    3.90
  -4   6  -2    6.00    2.20
   4   6   2    8.60    2.20
  -4  -7   2   39.20    3.60
   4  -7  -2   39.00    4.90
  -4  -7   2   42.10    5.40
   4   7  -2   33.00    5.50
  -4   7   2   27.30    5.70
   3  -7  -2   12.30    2.40
  -3  -7   2   12.60    2.50
  -3  -7   2   13.70    2.00
  -3   7   2   13.70    3.40
   3   7  -2   12.30    3.00
  -3   7   2   16.00    1.80
  -3   7   2   18.90    2.80
  -2  -7   2  230.28   16.00
  -2  -7   2  208.38   15.50
  -2  -7   2  228.38   15.50
   2  -7  -2  223.58   15.90
   2  -7  -2  244.38   15.30
   2   7  -2  204.38   16.30
  -2   7   2  228.68   15.50
   2   7  -2  231.28   15.50
  -2   7   2  235.88   15.30
  -2   7   2  206.98   16.70
  -1  -7   2    8.20    1.30
   1  -7  -2    9.70    1.30
  -1  -7   2    8.70    1.30
  -1  -7   2    8.60    1.20
   1  -7  -2    8.60    1.40
  -1   7   2    7.70    1.80
   1   7  -2    8.70    1.20
  -1   7   2   11.20    1.50
  -1   7   2    8.80    1.10
   1   7  -2    8.50    1.60
   0  -7   2 4034.10  278.97
   0  -7  -2 4313.07  279.27
   0  -7  -2 4396.76  279.07
   0  -7   2 4096.99  278.87
   0   7  -2 3940.91  278.97
   0   7  -2 4163.08  278.87
   0   7   2 4741.53  279.47
   0   7   2 4607.94  278.87
   0   7  -2 4146.59  279.27
  -1  -7  -2   10.10    2.00
   1  -7   2    8.70    1.20
   1  -7   2    8.40    1.60
  -1  -7  -2   11.30    1.20
   1   7   2   11.90    1.60
   1   7   2    9.90    1.40
  -1   7  -2   11.50    1.20
  -1   7  -2   12.40    1.70
   2  -7   2   43.60    4.00
  -2  -7  -2   43.50    5.10
  -2   7  -2   55.79    4.70
   2   7   2   55.89    4.40
   2   7   2   59.29    4.30
   3  -7   2    9.70    1.60
  -3  -7  -2    9.00    2.90
   3   7   2   13.10    2.20
  -3   7  -2   11.80    2.60
   4  -7   2  115.09   10.30
  -4  -7  -2  111.49   11.10
  -4   7  -2  122.99   10.30
   4   7   2  127.19    9.80
   4  -8  -2   -1.50    1.20
  -4  -8   2    1.90    1.60
  -4  -8   2    0.00    0.90
  -4   8   2   -0.20    0.60
  -4   8   2   -1.00    1.80
   4   8  -2   -2.00    1.60
   3  -8  -2   80.99    7.10
  -3  -8   2   94.89    7.50
  -3  -8   2   91.49    6.60
   3   8  -2   69.29    7.60
  -3   8   2   92.49    6.30
  -3   8   2   78.69    8.20
   2  -8  -2 1122.29   72.19
   2  -8  -2 1130.29   71.49
  -2  -8   2 1134.29   72.19
  -2  -8   2 1062.99   71.79
  -2  -8   2 1063.49   71.69
   2   8  -2  993.70   72.49
  -2   8   2 1015.90   73.09
  -2   8   2 1091.79   71.49
   2   8  -2 1106.99   71.59
  -2   8   2 1136.69   71.59
   1  -8  -2 1841.62  122.69
   1  -8  -2 2002.40  122.49
  -1  -8   2 1795.62  122.49
  -1  -8   2 1879.31  122.49
  -1  -8   2 1937.91  122.49
   1   8  -2 1859.91  122.39
  -1   8   2 1760.22  123.29
  -1   8   2 1850.01  122.19
   1   8  -2 1771.02  122.79
  -1   8   2 1976.40  122.59
   0  -8   2   18.00    1.90
   0  -8   2   22.40    1.90
   0  -8  -2   22.90    2.60
   0  -8  -2   19.80    2.00
   0   8   2   21.70    1.90
   0   8  -2   20.40    1.90
   0   8  -2   19.90    2.00
   0   8   2   24.70    2.40
   0   8  -2   18.00    2.10
  -1  -8  -2   70.29    5.40
   1  -8   2   74.09    5.40
   1  -8   2   71.19    6.00
  -1  -8  -2   65.19    6.20
   1   8   2   74.69    5.60
  -1   8  -2   71.59    5.80
  -1   8  -2   80.49    5.60
   1   8   2   91.89    5.90
   2  -8   2  185.08   12.20
  -2  -8  -2  152.08   13.40
   2  -8   2  158.58   12.90
  -2   8  -2  181.68   12.90
   2   8   2  174.68   12.50
   2   8   2  191.78   12.50
   3  -8   2  177.48   14.80
  -3  -8  -2  189.38   15.70
   3  -8   2  217.38   14.40
  -3   8  -2  204.88   15.00
   3   8   2  202.38   14.40
  -4  -8  -2   34.60    6.10
   4  -8   2   27.10    4.70
   4   8   2   38.70    4.70
  -4   8  -2   30.00    4.70
   4  -9  -2   33.30    4.90
  -4  -9   2   39.00    5.30
  -4  -9   2   32.90    3.70
  -4   9   2   32.10    6.10
   4   9  -2   32.10    5.50
   3  -9  -2  275.47   19.40
  -3  -9   2  265.77   19.60
  -3  -9   2  270.57   18.70
   3   9  -2  267.27   20.10
  -3   9   2  278.37   18.40
  -3   9   2  260.27   20.70
  -2  -9   2  112.79    8.40
   2  -9  -2  109.09    8.40
  -2  -9   2   99.49    7.90
  -2  -9   2  101.79    8.00
   2  -9  -2  116.89    7.80
  -2   9   2  120.39    7.80
   2   9  -2  102.19    8.70
  -2   9   2   95.59    9.00
   2   9  -2  110.19    7.80
  -2   9   2  102.29    7.70
  -1  -9   2  870.61   61.29
  -1  -9   2  916.41   61.39
  -1  -9   2  960.60   61.29
   1  -9  -2  973.20   61.39
   1  -9  -2  946.71   61.59
   1   9  -2  918.41   61.19
  -1   9   2  906.01   62.19
  -1   9   2  992.90   61.39
  -1   9   2  899.61   60.99
   1   9  -2  905.71   61.69
   0  -9   2  251.27   18.80
   0  -9  -2  288.17   19.30
   0  -9  -2  280.17   18.90
   0  -9   2  254.17   18.60
   0   9  -2  294.67   18.80
   0   9  -2  269.07   18.80
   0   9   2  314.67   19.50
   0   9  -2  258.77   18.90
   0   9   2  294.07   18.70
   1  -9   2   60.39    4.60
  -1  -9  -2   58.19    4.60
  -1  -9  -2   54.69    5.50
   1  -9   2   60.49    5.20
   1   9   2   63.79    4.90
  -1   9  -2   73.19    5.00
  -1   9  -2   59.69    5.00
  -1   9  -2   59.09    4.80
   1   9   2   76.09    5.10
   2  -9   2  488.55   32.50
  -2  -9  -2  448.96   34.00
   2  -9   2  476.35   33.50
   2   9   2  543.25   33.00
   2   9   2  461.15   32.90
  -2   9  -2  502.35   33.40
  -3  -9  -2   77.89    7.90
   3  -9   2   75.29    7.00
  -3   9  -2   79.29    7.10
   3   9   2   80.69    6.60
   4  -9   2   14.90    3.40
  -4  -9  -2    9.90    3.60
  -4   9  -2   11.20    2.90
   4   9   2    8.90    2.40
  -4 -10   2    0.10    1.40
   4 -10  -2    1.70    1.80
  -4 -10   2    3.10    1.20
  -4  10   2    0.70    2.20
  -4  10   2   -0.20    0.70
   4  10  -2    0.50    2.10
  -3 -10   2  136.89   11.00
   3 -10  -2  143.49   11.00
  -3 -10   2  137.89   10.30
  -3  10   2  126.79   12.00
  -3  10   2  146.59   10.00
   3  10  -2  149.29   11.70
   2 -10  -2    0.40    0.60
  -2 -10   2    1.20    0.70
   2 -10  -2    1.40    1.00
  -2 -10   2    0.50    0.70
  -2 -10   2    4.30    1.30
   2  10  -2    0.60    1.10
   2  10  -2    0.10    0.60
  -2  10   2    0.10    0.50
  -2  10   2   -0.10    1.00
   1 -10  -2  212.88   13.90
   1 -10  -2  209.58   14.00
  -1 -10   2  181.98   13.70
  -1 -10   2  196.98   13.80
  -1 -10   2  215.68   13.90
  -1  10   2  192.78   14.70
  -1  10   2  185.68   13.30
   1  10  -2  194.48   14.10
   1  10  -2  196.48   13.70
  -1  10   2  202.58   13.80
   0 -10  -2  233.48   16.40
   0 -10   2  222.28   15.80
   0 -10   2  221.98   16.00
   0 -10  -2  232.58   16.00
   0  10  -2  223.98   16.00
   0  10   2  250.27   16.20
   0  10   2  235.38   15.70
   0  10  -2  236.38   15.90
   0  10   2  254.37   16.60
   0  10  -2  226.68   15.90
  -1 -10  -2 2542.35  173.68
   1 -10   2 2701.93  173.78
  -1 -10  -2 2618.04  174.98
   1 -10   2 2523.15  174.38
   1  10   2 3006.00  174.38
  -1  10  -2 2492.15  174.28
  -1  10  -2 2972.80  174.18
   1  10   2 2495.65  173.98
  -1  10  -2 2560.34  173.98
   2 -10   2   12.50    1.50
  -2 -10  -2    9.00    2.50
   2 -10   2   14.80    2.50
   2  10   2   10.80    1.80
  -2  10  -2   11.50    2.20
   2  10   2    8.90    1.70
   3 -10   2   -1.00    1.20
  -3 -10  -2   -0.90    1.40
   3  10   2    0.10    0.80
  -3  10  -2    1.20    1.20
   4 -10   2   27.20    4.70
  -4 -10  -2   21.30    5.20
  -4  10  -2   29.80    4.80
   4  10   2   32.90    4.40
   4 -11  -2    0.30    1.60
  -4 -11   2   -0.60    0.90
  -4 -11   2   -1.70    1.10
  -4  11   2   -0.80    1.90
  -4  11   2    1.80    0.90
   4  11  -2    2.70    2.20
  -3 -11   2  416.86   27.10
  -3 -11   2  405.16   27.90
   3 -11  -2  395.46   27.80
  -3  11   2  338.27   28.70
  -3  11   2  409.26   26.80
   3  11  -2  406.66   28.50
   2 -11  -2  355.16   24.40
  -2 -11   2  346.67   23.90
  -2 -11   2  362.06   24.30
  -2 -11   2  341.67   24.30
   2 -11  -2  353.76   23.80
   2  11  -2  363.66   24.80
  -2  11   2  355.56   23.80
  -2  11   2  327.57   25.30
   1 -11  -2   96.09    7.30
  -1 -11   2   89.19    7.00
  -1 -11   2  101.69    7.20
  -1 -11   2   95.89    7.10
   1 -11  -2  107.09    7.30
  -1  11   2   88.69    6.60
   1  11  -2   89.09    7.30
   1  11  -2  100.19    7.00
  -1  11   2   89.29    7.90
  -1  11   2   95.59    7.10
   0 -11  -2    0.60    0.60
   0 -11   2   -0.30    0.40
   0 -11   2    0.00    0.40
   0 -11  -2    0.60    0.70
   0  11   2    0.00    0.60
   0  11  -2    0.00    0.50
   0  11   2    0.10    0.60
   0  11   2    0.40    0.30
   0  11  -2   -0.40    0.40
   1 -11   2    0.20    0.40
  -1 -11  -2    0.60    1.00
  -1 -11  -2    0.10    0.40
   1 -11   2    1.10    0.70
   1  11   2    0.60    0.60
  -1  11  -2    0.90    0.70
  -1  11  -2    1.30    0.70
  -1  11  -2    1.90    0.80
   1  11   2    1.00    0.60
   2 -11   2  863.11   52.09
   2 -11   2  765.72   52.59
  -2 -11  -2  713.23   53.19
   2  11   2  831.02   52.09
  -2  11  -2  748.53   52.49
   2  11   2  750.82   52.09
  -3 -11  -2    2.80    2.20
   3 -11   2    0.20    1.40
   3  11   2    2.10    1.60
  -3  11  -2    4.20    1.80
   3  11   2    5.90    1.70
  -4 -11  -2   12.20    4.00
   4 -11   2    8.40    2.80
   4  11   2    8.50    2.40
  -4  11  -2   13.60    3.20
  -4 -12   2  117.69   10.50
  -4 -12   2  122.89    9.40
   4 -12  -2  120.29   10.40
   4  12  -2  135.49   11.40
  -4  12   2  124.59    9.10
  -4  12   2  109.79   11.60
  -3 -12   2  189.98   14.10
   3 -12  -2  178.68   13.90
  -3 -12   2  181.48   13.20
  -3  12   2  184.98   13.00
  -3  12   2  156.28   14.80
   3  12  -2  212.68   14.90
   2 -12  -2  880.11   57.39
  -2 -12   2  893.31   57.89
  -2 -12   2  834.62   57.79
   2 -12  -2  836.42   57.89
  -2 -12   2  875.41   57.49
  -2  12   2  841.02   58.99
   2  12  -2  913.51   58.39
  -2  12   2  843.62   57.39
  -1 -12   2  335.57   24.50
   1 -12  -2  376.46   24.80
   1 -12  -2  395.36   24.80
  -1 -12   2  378.36   24.70
  -1 -12   2  369.16   24.50
  -1  12   2  355.86   25.60
   1  12  -2  365.16   24.40
  -1  12   2  329.37   24.00
  -1  12   2  370.16   24.70
   1  12  -2  355.46   24.80
   0 -12   2   18.70    1.90
   0 -12  -2   18.30    2.70
   0 -12  -2   21.30    2.40
   0 -12   2   20.30    2.10
   0  12   2   19.80    2.50
   0  12  -2   20.30    2.00
   0  12   2   22.50    1.90
   0  12   2   21.90    3.00
   0  12  -2   23.40    2.50
   0  12  -2   14.10    2.10
   1 -12   2    7.50    1.10
   1 -12   2    6.60    1.50
  -1 -12  -2    9.50    2.10
  -1 -12  -2    7.20    1.10
  -1  12  -2    6.20    1.50
  -1  12  -2   10.70    1.70
  -1  12  -2    5.20    1.20
   1  12   2   13.80    2.00
   1  12   2    8.80    1.40
  -2 -12  -2   39.30    5.30
   2 -12   2   39.30    4.20
   2  12   2   38.30    3.60
   2  12   2   35.60    3.50
  -2  12  -2   40.50    4.10
  -2  12  -2   36.90    3.40
   3 -12   2   96.79    8.70
  -3 -12  -2   87.69    9.30
  -3  12  -2  103.19    8.70
   3  12   2  116.99    8.50
   3  12   2   90.69    8.00
   4 -12   2   16.90    3.90
  -4 -12  -2   31.00    5.90
  -4  12  -2   20.20    4.00
   4  12   2   22.40    3.70
  -4  12  -2   21.80    2.60
  -4 -13   2  255.27   18.40
  -4 -13   2  253.87   19.60
   4 -13  -2  260.77   19.60
  -4  13   2  259.97   18.10
  -4  13   2  239.88   20.90
   4  13  -2  290.27   20.70
  -3 -13   2  182.98   14.10
  -3 -13   2  185.68   13.30
   3 -13  -2  182.88   14.10
  -3  13   2  186.18   13.10
  -3  13   2  177.48   15.30
   3  13  -2  189.68   14.70
   2 -13  -2  487.85   33.80
  -2 -13   2  484.95   33.70
  -2 -13   2  521.75   33.30
  -2 -13   2  497.55   33.70
   2 -13  -2  490.05   33.20
  -2  13   2  466.65   34.80
   2  13  -2  514.95   34.10
  -2  13   2  479.95   33.20
  -1 -13   2   29.20    2.80
  -1 -13   2   30.50    2.90
   1 -13  -2   25.00    3.20
  -1 -13   2   31.30    2.80
   1 -13  -2   31.60    3.00
  -1  13   2   25.80    3.90
  -1  13   2   27.60    3.20
   1  13  -2   27.40    3.00
   1  13  -2   28.50    2.70
   0 -13  -2 1184.38   81.39
   0 -13   2 1202.78   80.89
   0 -13  -2 1262.97   80.89
   0  13   2 1199.08   81.49
   0  13   2 1121.29   80.39
   0  13  -2 1224.78   80.79
   0  13  -2 1332.47   80.79
   0  13  -2 1177.78   80.79
   0  13   2 1337.07   81.19
   1 -13   2    3.40    0.80
   1 -13   2    2.60    1.00
  -1 -13  -2    3.00    1.40
   1  13   2    2.90    1.10
  -1  13  -2    3.90    1.20
  -1  13  -2    2.80    1.10
  -1  13  -2    3.90    1.00
   1  13   2    4.00    1.00
  -2 -13  -2  185.48   15.20
   2 -13   2  204.08   14.60
   2  13   2  198.38   14.00
  -2  13  -2  197.18   13.70
  -2  13  -2  194.98   14.50
   2  13   2  183.38   13.80
   3 -13   2    5.20    2.20
  -3 -13  -2    7.10    2.70
  -3  13  -2    7.40    1.50
   3  13   2    5.90    1.80
   3  13   2    6.10    1.90
  -3  13  -2    6.60    2.10
   4 -13   2   43.40    6.00
  -4 -13  -2   42.80    7.20
  -4  13  -2   44.30    6.20
  -4  13  -2   43.30    3.90
   4  13   2   42.70    5.40
  -4 -14   2  214.68   16.80
   4 -14  -2  214.08   16.80
   4  14  -2  256.07   18.00
  -4  14   2  218.48   18.70
  -4  14   2  196.08   15.30
  -3 -14   2  780.42   50.49
  -3 -14   2  790.62   51.39
   3 -14  -2  727.43   51.29
   3  14  -2  820.02   52.09
  -3  14   2  765.92   50.39
  -3  14   2  634.34   52.29
  -2 -14   2  159.88   11.50
  -2 -14   2  154.78   11.30
   2 -14  -2  149.79   10.90
   2 -14  -2  147.29   11.40
  -2 -14   2  146.99   10.90
  -2  14   2  143.09   10.90
  -2  14   2  135.49   12.30
   2  14  -2  159.78   11.80
   1 -14  -2   14.10    2.20
   1 -14  -2   14.70    2.30
  -1 -14   2   16.40    2.20
  -1 -14   2   12.40    1.80
   1  14  -2   10.50    1.90
  -1  14   2   13.20    2.10
  -1  14   2    9.30    2.40
   1  14  -2   12.40    1.80
   0 -14  -2  778.82   50.99
   0 -14   2  763.12   50.39
   0 -14   2  756.82   49.99
   0 -14  -2  799.12   50.29
   0  14  -2  742.63   50.29
   0  14   2  700.33   49.80
   0  14   2  701.43   50.89
   0  14  -2  772.82   50.29
   0  14  -2  769.92   50.29
   0  14   2  782.62   50.59
  -1 -14  -2  229.98   17.90
   1 -14   2  253.07   17.40
  -1  14  -2  223.28   17.20
   1  14   2  223.08   16.70
   1  14   2  280.47   17.40
  -1  14  -2  242.78   16.90
  -1  14  -2  254.27   17.30
  -2 -14  -2   13.50    3.10
   2 -14   2   11.60    2.40
   2  14   2    9.50    1.90
  -2  14  -2   10.60    2.30
  -2  14  -2   10.90    1.70
   2  14   2   12.90    2.10
   3 -14   2   38.60    5.30
  -3 -14  -2   37.10    6.20
   3  14   2   48.90    4.60
  -3  14  -2   42.00    5.60
  -3  14  -2   44.50    3.90
   3  14   2   42.10    5.00
   4 -14   2   41.80    5.80
  -4 -14  -2   45.30    7.40
  -4  14  -2   39.60    3.70
  -4  14  -2   39.00    5.80
   4  14   2   33.20    4.90
   4 -15  -2    8.30    2.90
  -4 -15   2    8.80    2.70
  -4  15   2    8.40    1.90
  -4  15   2   10.00    3.70
   4  15  -2   15.00    4.00
  -3 -15   2    1.90    1.40
  -3 -15   2    3.40    1.30
   3 -15  -2    4.40    1.90
  -3  15   2    0.80    1.70
   3  15  -2    3.40    2.10
  -3  15   2    0.40    0.80
   2 -15  -2    8.60    2.20
   2 -15  -2   14.80    2.20
  -2 -15   2    6.20    1.80
  -2 -15   2   13.10    2.50
  -2  15   2    6.30    2.50
  -2  15   2   12.40    2.10
   2  15  -2   10.20    2.40
  -1 -15   2   94.79    7.50
   1 -15  -2   94.89    7.80
   1 -15  -2  102.49    7.90
  -1 -15   2  109.39    7.90
  -1  15   2  107.49    8.90
   1  15  -2   99.39    7.40
  -1  15   2  100.59    7.80
   1  15  -2   95.79    7.80
   0 -15   2  171.88   11.80
   0 -15   2  165.58   12.30
   0 -15  -2  167.68   12.80
   0 -15  -2  173.58   12.20
   0  15  -2  167.68   12.10
   0  15  -2  169.08   12.20
   0  15   2  177.38   12.50
   0  15   2  158.08   12.80
   0  15   2  166.38   11.70
   0  15  -2  186.48   12.30
  -1 -15  -2   86.39    7.90
   1 -15   2   88.09    7.20
  -1  15  -2   79.59    7.10
   1  15   2  100.29    7.30
  -1  15  -2   87.59    6.80
   1  15   2   82.19    6.60
  -1  15  -2   95.99    7.30
  -2 -15  -2   98.59    9.30
   2 -15   2  113.29    8.70
  -2  15  -2   97.59    7.70
  -2  15  -2  104.19    8.60
   2  15   2   98.59    7.90
   2  15   2  100.19    8.10
   3 -15   2    1.10    1.70
  -3 -15  -2    2.00    2.20
  -3  15  -2    2.20    1.50
   3  15   2    1.70    1.30
   3  15   2    2.70    1.60
  -3  15  -2    1.20    0.90
   4 -15   2   13.00    3.40
  -4 -15  -2   14.10    4.20
  -4  15  -2    7.30    2.50
  -4  15  -2    9.40    1.80
   4  15   2    6.20    2.20
  -4 -16   2   40.50    5.90
   4 -16  -2   48.50    6.50
  -4  16   2   46.60    7.80
  -4  16   2   41.60    4.80
   4  16  -2   51.59    7.10
   3 -16  -2   61.59    6.10
  -3 -16   2   56.69    5.80
  -3  16   2   57.19    5.10
   3  16  -2   59.89    6.40
  -3  16   2   55.29    8.00
  -2 -16   2  177.98   13.90
   2 -16  -2  182.18   13.90
  -2 -16   2  177.48   13.70
   2 -16  -2  194.78   13.50
  -2  16   2  185.08   13.50
   2  16  -2  214.28   14.50
  -2  16   2  166.78   14.90
   1 -16  -2  304.87   22.20
  -1 -16   2  300.37   21.90
   1 -16  -2  345.77   22.40
  -1 -16   2  340.67   22.30
   1  16  -2  331.57   21.80
  -1  16   2  281.07   22.10
   1  16  -2  330.17   22.30
  -1  16   2  320.27   23.40
   0 -16   2   30.00    2.70
   0 -16   2   37.10    3.30
   0 -16  -2   31.80    4.10
   0 -16  -2   28.70    3.00
   0  16   2   27.50    3.90
   0  16  -2   25.30    3.10
   0  16  -2   28.90    3.00
   0  16  -2   30.80    3.10
   0  16   2   33.70    3.90
   0  16   2   27.30    2.50
  -1 -16  -2  809.82   56.19
   1 -16   2  828.22   55.39
  -1  16  -2  821.92   54.99
   1  16   2  934.91   55.59
   1  16   2  795.92   54.69
  -1  16  -2  806.52   55.49
  -1  16  -2  783.92   55.39
  -2 -16  -2    0.80    1.60
   2 -16   2    0.00    1.30
   2  16   2    0.80    0.90
   2  16   2    1.10    1.00
  -2  16  -2   -0.10    0.70
  -2  16  -2    1.10    1.20
   3 -16   2   96.69    8.80
  -3 -16  -2   82.99    9.30
   3  16   2   92.59    8.10
  -3  16  -2  114.09    9.10
  -3  16  -2   97.19    7.60
   3  16   2  104.29    8.40
   4 -17  -2    6.70    2.80
  -4 -17   2    4.20    2.20
  -4  17   2    5.70    3.30
  -4  17   2    3.20    1.50
   4  17  -2    3.30    2.70
  -3 -17   2   84.59    7.70
   3 -17  -2   82.99    7.90
   3  17  -2   95.79    8.50
  -3  17   2   73.09    8.80
  -3  17   2   92.39    7.20
   2 -17  -2   40.20    3.90
   2 -17  -2   41.50    4.90
  -2 -17   2   37.70    4.50
  -2 -17   2   31.70    4.50
  -2  17   2   38.80    5.90
   2  17  -2   34.60    4.60
  -2  17   2   36.40    4.20
   1 -17  -2   22.80    3.10
  -1 -17   2   15.00    2.30
   1 -17  -2   19.10    2.90
  -1 -17   2   19.70    2.90
  -1  17   2   18.90    3.70
  -1  17   2   19.40    3.00
   1  17  -2   21.30    2.90
   0 -17   2  193.68   13.50
   0 -17  -2  194.38   13.80
   0 -17   2  177.48   13.90
   0 -17  -2  169.18   14.40
   0  17   2  169.38   14.40
   0  17   2  201.58   14.30
   0  17  -2  238.68   14.10
   0  17  -2  222.98   14.10
   0  17  -2  188.28   13.90
  -1 -17  -2 1060.39   73.69
   1 -17   2 1120.59   72.79
   1  17   2 1067.69   72.09
   1  17   2 1226.98   72.99
  -1  17  -2 1120.79   72.39
  -1  17  -2  996.90   72.69
  -1  17  -2 1046.40   72.79
  -2 -17  -2  144.39   11.90
   2 -17   2  130.59   10.70
  -2  17  -2  133.29    9.90
  -2  17  -2  127.39   10.70
   2  17   2  138.69   10.40
   2  17   2  128.59   10.00
   3 -17   2    7.30    2.60
  -3 -17  -2    4.80    2.90
   3  17   2    9.50    2.30
  -3  17  -2    6.60    1.60
   3  17   2    8.10    2.10
  -3  17  -2    6.80    2.30
   3 -18  -2  285.57   21.10
  -3 -18   2  270.27   20.70
   3  18  -2  326.77   21.70
  -3  18   2  248.28   22.20
  -3  18   2  287.57   20.20
   2 -18  -2   29.60    3.70
  -2 -18   2   29.30    4.30
  -2 -18   2   25.20    3.60
   2 -18  -2   34.50    4.40
  -2  18   2   24.20    4.70
  -2  18   2   29.00    3.60
   2  18  -2   23.70    3.80
   1 -18  -2   56.89    5.10
  -1 -18   2   54.39    5.00
  -1 -18   2   52.39    4.70
   1 -18  -2   50.09    5.00
  -1  18   2   51.69    5.00
   1  18  -2   57.09    5.00
  -1  18   2   54.59    5.90
   0 -18   2 1106.69   78.19
   0 -18  -2 1004.60   78.59
   0 -18  -2 1145.49   77.99
   0  18   2 1150.58   78.89
   0  18  -2 1378.26   78.49
   0  18  -2 1232.58   78.29
   0  18  -2 1226.98   78.09
   1 -18   2   71.39    6.00
  -1 -18  -2   56.39    6.40
  -1  18  -2   63.19    5.90
   1  18   2   71.39    5.90
  -1  18  -2   60.19    5.80
  -1  18  -2   65.09    5.50
   1  18   2   64.09    5.20
   2 -18   2    9.70    2.40
  -2 -18  -2    8.50    3.00
   2  18   2    8.50    1.80
  -2  18  -2    7.10    1.60
  -2  18  -2    3.60    1.80
   2  18   2    9.70    2.10
  -3 -18  -2   51.29    7.90
   3 -18   2   53.89    6.40
   3  18   2   50.49    5.30
   3  18   2   49.99    5.50
  -3  18  -2   42.10    4.30
  -3  18  -2   41.60    6.00
  -3 -19   2    6.30    2.20
   3 -19  -2    4.50    2.20
  -3  19   2    1.60    2.20
   3  19  -2    2.30    2.00
  -3  19   2    3.10    1.50
  -2 -19   2  184.38   16.60
   2 -19  -2  247.28   16.50
  -2 -19   2  217.38   16.40
   2 -19  -2  225.28   16.80
   2  19  -2  248.68   17.10
  -2  19   2  236.18   16.40
  -2  19   2  217.98   18.20
   1 -19  -2   85.69    7.00
  -1 -19   2   85.59    6.90
   1 -19  -2   73.29    6.60
  -1 -19   2   81.59    6.50
   1  19  -2   79.89    6.70
  -1  19   2   75.19    6.70
  -1  19   2   70.59    7.60
   0 -19   2   69.79    6.20
   0 -19  -2   75.29    6.90
   0 -19  -2   70.09    6.10
   0  19  -2   67.69    6.10
   0  19   2   74.39    6.80
   0  19  -2   76.99    6.10
   0  19  -2   85.39    6.40
  -1 -19  -2  259.57   20.30
   1 -19   2  275.77   19.50
   1  19   2  295.57   19.60
  -1  19  -2  272.87   19.60
  -1  19  -2  269.27   19.00
   1  19   2  260.07   18.60
  -1  19  -2  259.57   19.50
   2 -19   2  416.46   27.80
  -2 -19  -2  383.96   29.00
  -2  19  -2  401.96   26.90
  -2  19  -2  358.16   27.60
   2  19   2  375.46   26.80
   2  19   2  405.66   27.40
  -3 -19  -2   27.60    5.90
   3 -19   2   31.20    4.90
   3  19   2   37.90    4.60
  -3  19  -2   30.40    4.80
  -3  19  -2   29.50    3.60
   3  19   2   27.20    4.20
   3 -20  -2   65.59    7.50
  -3 -20   2   50.89    6.30
  -3  20   2   59.99    5.60
  -3  20   2   46.40    8.00
   3  20  -2   69.99    7.00
   2 -20  -2    0.50    1.20
  -2 -20   2    3.20    1.50
  -2 -20   2    1.20    1.50
   2 -20  -2    1.60    1.50
  -2  20   2   10.00    2.10
  -2  20   2    2.60    1.90
   2  20  -2    2.10    1.60
   1 -20  -2   42.50    4.50
  -1 -20   2   38.80    4.20
  -1 -20   2   52.79    4.80
   1 -20  -2   50.09    4.80
  -1  20   2   46.40    5.20
   1  20  -2   49.40    4.70
  -1  20   2   41.40    6.20
   0 -20   2   60.49    5.40
   0 -20  -2   51.79    5.70
   0  20  -2   64.99    5.40
   0  20  -2   65.69    5.60
   0  20  -2   50.09    5.10
   0  20   2   54.49    5.70
   1 -20   2    8.70    2.20
  -1 -20  -2    9.10    2.80
   1  20   2   14.20    2.70
  -1  20  -2   10.30    2.40
  -1  20  -2   10.50    2.40
  -1  20  -2    5.60    1.60
  -2 -20  -2  187.58   17.50
   2 -20   2  225.88   16.80
   2  20   2  222.18   15.90
   2  20   2  239.98   16.60
  -2  20  -2  214.88   16.70
  -2  20  -2  226.58   15.90
   3 -20   2   70.19    6.90
  -3 -20  -2   53.89    8.40
  -3  20  -2   62.89    5.60
   3  20   2   65.59    6.00
   3  20   2   53.69    6.10
  -3  20  -2   66.99    7.60
   3 -21  -2    4.30    2.30
  -3 -21   2    2.00    1.70
  -3  21   2    2.60    1.50
  -3  21   2    0.00    2.10
  -2 -21   2   44.20    6.30
  -2 -21   2   51.59    5.30
   2 -21  -2   58.99    5.60
   2 -21  -2   53.69    6.30
  -2  21   2   59.09    8.20
   2  21  -2   59.69    5.90
  -2  21   2   62.69    5.60
   1 -21  -2   95.89    7.80
   1 -21  -2  104.09    8.10
  -1 -21   2  107.69    8.10
   1  21  -2   86.59    7.60
  -1  21   2   73.49    8.40
  -1  21   2   83.69    7.60
   0 -21  -2  324.57   23.80
   0 -21   2  326.77   23.10
   0  21   2  308.57   23.60
   0  21  -2  351.06   23.20
  -1 -21  -2   42.80    6.40
   1 -21   2   51.29    5.20
  -1  21  -2   55.59    4.80
   1  21   2   45.40    5.00
  -1  21  -2   44.70    5.50
  -1  21  -2   55.19    5.40
   2 -21   2  257.07   17.60
  -2 -21  -2  208.68   18.40
  -2  21  -2  195.38   17.10
  -2  21  -2  239.38   16.60
   2  21   2  225.18   16.40
   2  21   2  248.98   17.30
   3 -21   2   92.49    8.40
  -3 -21  -2   82.29   10.90
   3  21   2   85.09    7.80
   3  21   2   81.29    7.30
  -3  21  -2   79.99    7.00
  -3  21  -2   78.89    8.00
  -3 -22   2  488.95   37.50
   3 -22  -2  536.35   38.20
   3  22  -2  643.24   39.00
  -3  22   2  585.44   37.50
  -3  22   2  444.26   39.40
  -2 -22   2    0.00    1.40
  -2 -22   2    0.40    1.20
   2 -22  -2    0.10    1.40
   2 -22  -2    0.30    1.40
  -2  22   2    0.70    1.10
   2  22  -2    1.00    1.50
  -2  22   2   -0.20    1.80
  -1 -22   2    1.00    1.10
   1 -22  -2    4.00    1.70
   1 -22  -2   -0.40    1.10
  -1  22   2    1.40    1.30
   1  22  -2    3.40    1.50
  -1  22   2    1.80    1.60
   0 -22   2   33.30    4.50
   0 -22  -2   40.80    5.50
   0  22  -2   38.50    4.70
   0  22   2   37.40    5.20
   0  22  -2   45.10    4.40
   1 -22   2  742.73   48.80
  -1 -22  -2  602.14   49.40
  -1  22  -2  749.23   49.10
  -1  22  -2  681.73   48.70
  -1  22  -2  697.73   48.20
   1  22   2  806.82   49.10
  -2 -22  -2   11.90    3.50
   2 -22   2   18.10    3.40
   2  22   2   13.00    2.40
   2  22   2   18.40    3.20
  -2  22  -2   18.80    2.90
  -2  22  -2   15.90    3.40
  -3 -22  -2   90.89   12.00
   3 -22   2  119.89    9.80
  -3  22  -2   97.19    9.30
  -3  22  -2   99.49    8.40
   3  22   2   96.19    8.50
   3  22   2  108.49    9.40
  -3 -23   2   26.20    4.30
   3 -23  -2   27.00    4.90
  -3  23   2   27.70    6.20
   3  23  -2   44.60    6.20
  -3  23   2   27.40    4.10
  -2 -23   2    5.60    1.90
   2 -23  -2    6.50    2.10
  -2 -23   2    2.70    2.00
   2 -23  -2    5.40    2.20
   2  23  -2    9.60    2.70
  -2  23   2   12.80    2.60
  -2  23   2    5.40    3.00
   1 -23  -2   20.50    3.40
   1 -23  -2    0.50    1.20
  -1 -23   2    2.00    1.40
  -1  23   2    1.50    1.70
  -1  23   2    2.30    1.40
   1  23  -2    2.10    1.40
   0 -23   2   95.79    8.30
   0 -23  -2   99.99    8.90
   0  23   2   93.79    8.70
   0  23  -2  101.99    8.30
   1 -23   2  258.27   18.10
  -1 -23  -2  194.48   18.50
  -1  23  -2  238.38   18.20
  -1  23  -2  236.18   18.00
   1  23   2  254.77   18.20
  -1  23  -2  269.67   17.60
   2 -23   2   60.99    6.30
  -2 -23  -2   48.10    7.80
  -2  23  -2   61.39    5.50
   2  23   2   55.09    5.80
  -2  23  -2   54.09    6.80
   3 -24  -2   38.10    6.00
  -3 -24   2   42.40    5.50
  -3  24   2   36.80    5.10
  -3  24   2   29.90    6.70
   2 -24  -2   10.30    2.80
   2 -24  -2   13.00    2.90
  -2 -24   2    8.20    2.80
  -2  24   2   12.50    3.80
   2  24  -2   14.80    3.00
  -2  24   2    8.20    2.40
   1 -24  -2  169.38   12.70
  -1 -24   2  177.98   13.10
   1 -24  -2  175.68   13.10
   1  24  -2  158.38   12.70
  -1  24   2  126.79   13.40
  -1  24   2  177.48   13.00
   0 -24   2   17.40    3.10
   0 -24  -2   16.90    3.50
   0  24   2   20.80    3.90
   0  24  -2   15.80    2.90
   1 -24   2   40.40    5.00
  -1 -24  -2   31.90    5.50
   1  24   2   39.20    5.10
  -1  24  -2   37.10    5.10
  -1  24  -2   28.10    4.00
  -1  24  -2   39.20    5.10
   2 -24   2    7.50    2.80
  -2 -24  -2    7.30    3.40
  -2  24  -2    9.70    2.20
  -2  24  -2    8.30    2.60
   2  24   2    7.90    2.50
  -2 -25   2  278.97   22.80
   2 -25  -2  333.57   22.60
   2 -25  -2  314.17   22.70
   2  25  -2  327.77   23.00
  -2  25   2  249.68   23.80
  -2  25   2  333.87   22.50
  -1 -25   2   20.80    3.70
   1 -25  -2   21.10    3.90
  -1  25   2   21.70    4.60
  -1  25   2   13.00    3.10
   1  25  -2   19.80    3.40
   0 -25   2   66.59    6.50
   0 -25  -2   65.69    7.00
   0  25  -2   77.59    6.70
   0  25   2   59.99    6.70
  -1 -25  -2   46.80    7.00
   1 -25   2   53.29    5.60
  -1  25  -2   56.59    6.60
  -1  25  -2   43.80    5.40
   1  25   2   58.69    5.80
  -2 -25  -2  127.89   14.10
   2 -25   2  185.68   13.90
  -2  25  -2  168.28   12.80
   2  25   2  182.08   13.60
  -2  25  -2  160.38   13.50
  -2 -26   2   59.19    7.90
   2 -26  -2   64.89    7.50
   2 -26  -2   75.79    6.90
   2  26  -2   70.69    7.10
  -2  26   2   46.60    8.50
  -2  26   2   76.89    6.90
   1 -26  -2   54.99    5.60
  -1 -26   2   43.30    5.70
  -1  26   2   31.70    5.90
   1  26  -2   41.00    5.30
   0 -26   2  219.38   15.90
   0 -26  -2  194.58   16.30
   0  26   2  180.48   16.00
   0  26  -2  226.98   15.90
   1 -26   2   10.40    2.70
  -1 -26  -2   11.80    3.60
   1  26   2   15.40    3.30
  -1  26  -2   24.00    3.50
  -1  26  -2   16.70    3.30
  -2 -26  -2   14.50    4.40
   2 -26   2   21.20    4.10
  -2  26  -2   14.90    3.50
  -2  26  -2   20.80    3.40
   2  26   2   22.50    4.00
  -2 -27   2   17.40    4.10
   2 -27  -2   20.70    3.90
   2 -27  -2   21.60    4.10
   2  27  -2   21.70    4.20
  -2  27   2   26.90    4.20
  -2  27   2   11.50    4.30
  -1 -27   2   39.40    5.80
   1 -27  -2   60.89    7.10
   1  27  -2   56.29    5.70
  -1  27   2   41.40    6.80
   0 -27  -2  230.18   19.50
   0 -27   2  267.17   19.20
   0  27   2  224.08   19.30
   0  27  -2  291.37   19.30
   1 -27   2   22.30    4.10
  -1 -27  -2   26.00    5.30
  -1  27  -2   28.40    4.50
   1  27   2   29.00    4.60
  -1 -28   2  333.97   24.40
   1 -28  -2  344.17   24.60
   1  28  -2  368.46   24.40
  -1  28   2  266.77   24.70
   0 -28   2    2.40    1.80
   0 -28  -2    8.00    3.00
   0  28   2    3.30    2.00
   0  28  -2    2.50    1.80
  -1 -28  -2   19.80    4.80
   1 -28   2   24.80    4.40
  -1  28  -2   37.70    7.30
   1  28   2   28.20    4.70
   1 -29  -2  187.68   15.40
  -1 -29   2  194.68   15.40
  -1  29   2  153.48   15.60
   1  29  -2  218.68   15.40
   0 -29   2   46.70    6.10
   0 -29  -2   36.00    6.30
   0  29   2   46.20    6.60
   0  29  -2   50.89    5.60
  -1 -29  -2    6.60    3.40
   1 -29   2    7.30    2.70
   1  29   2    8.80    2.70
  -4   0   3   -1.70    0.90
  -4   0   3   -0.80    1.20
  -3   0   3   80.59    8.40
   3   0  -3   77.89    6.80
  -3   0   3   89.09    6.70
  -3   0   3   89.59    7.20
  -2   0   3    0.10    0.50
   2   0  -3    1.40    0.90
  -2   0   3    0.40    0.70
  -2   0   3   -0.50    0.90
   1   0  -3   17.40    2.20
  -1   0   3   15.40    1.10
  -1   0   3   15.80    2.10
  -1   0   3   15.10    2.50
  -1   0   3   14.00    1.80
   0   0  -3    0.60    0.70
   0   0   3   -0.10    0.30
   0   0   3    0.70    0.60
   0   0  -3    0.70    0.50
  -1   0  -3  143.59   11.30
   1   0   3  154.38   10.50
  -1   0  -3  146.39   10.60
   2   0   3    1.50    0.80
  -2   0  -3   -0.40    0.50
  -2   0  -3    1.90    1.30
  -3   0  -3  748.13   52.59
  -3   0  -3  804.22   51.79
   3   0   3  727.03   50.59
   4   0   3    5.50    1.60
  -4   0  -3   12.20    3.60
  -4  -1   3   -0.90    0.90
   4  -1  -3    2.60    1.80
  -4  -1   3   -0.50    1.20
  -4   1   3    1.90    2.30
  -4   1   3   -1.50    1.00
   4   1  -3   -0.30    2.00
  -4   1   3    0.40    1.50
  -3  -1   3  516.55   36.70
  -3  -1   3  543.75   34.40
   3  -1  -3  480.55   34.50
  -3  -1   3  493.25   34.90
  -3   1   3  511.95   36.70
  -3   1   3  554.54   34.40
   3   1  -3  491.55   34.50
  -3   1   3  475.05   34.70
   2  -1  -3  193.58   13.60
  -2  -1   3  174.78   14.60
  -2  -1   3  183.88   13.40
  -2  -1   3  199.78   13.50
   2   1  -3  195.78   13.60
  -2   1   3  195.68   13.40
  -2   1   3  184.18   14.70
  -2   1   3  187.78   13.40
   1  -1  -3   91.19    6.60
  -1  -1   3   83.29    7.00
  -1  -1   3   80.49    6.40
  -1  -1   3   83.89    6.30
  -1  -1   3   89.29    5.70
   1   1  -3   84.39    6.50
  -1   1   3   83.29    7.00
  -1   1   3   84.59    6.50
  -1   1   3   78.79    6.20
   0  -1  -3  270.97   18.90
   0  -1  -3  286.87   19.10
   0  -1   3  262.47   18.80
   0  -1   3  287.07   18.80
   0   1  -3  275.77   18.90
   0   1   3  271.67   18.90
   0   1   3  286.57   18.80
  -1  -1  -3  359.96   25.50
   1  -1   3  398.96   25.40
  -1  -1  -3  361.26   26.30
  -1   1  -3  365.06   25.50
   1   1   3  396.66   25.50
   1   1   3  373.56   24.90
  -1   1  -3  389.66   26.40
   2  -1   3  132.09    9.40
  -2  -1  -3  133.29    9.60
  -2  -1  -3  136.49   10.90
  -2   1  -3  129.89   10.80
  -2   1  -3  120.39    9.50
   2   1   3  127.19    9.40
   3  -1   3  149.29   11.20
  -3  -1  -3  171.08   13.40
   3   1   3  150.88   11.30
  -3   1  -3  142.89   12.90
  -3   1  -3  159.98   12.00
   4  -1   3  426.76   30.90
  -4  -1  -3  477.15   33.80
   4   1   3  457.55   31.10
  -4   1  -3  456.65   33.60
  -4  -2   3  111.99   10.80
   4  -2  -3  119.69   10.30
  -4  -2   3  144.09   10.10
  -4   2   3  139.59   10.10
  -4   2   3  141.39   13.10
  -4   2   3  147.59   11.10
   4   2  -3  133.89   12.00
   3  -2  -3  136.49   10.40
  -3  -2   3  142.39   10.20
  -3  -2   3  132.19   10.60
  -3   2   3  138.99   12.20
  -3   2   3  141.89   10.10
  -3   2   3  128.19   10.50
   3   2  -3  140.39   10.40
  -2  -2   3  406.96   30.60
  -2  -2   3  452.85   29.40
  -2  -2   3  418.56   29.20
   2  -2  -3  425.66   29.40
  -2   2   3  423.76   30.70
   2   2  -3  436.36   29.40
  -2   2   3  455.75   29.30
  -2   2   3  443.86   29.30
  -1  -2   3  314.57   18.90
   1  -2  -3  290.77   19.80
  -1  -2   3  286.17   19.50
   1  -2  -3  294.07   19.10
  -1  -2   3  269.87   20.20
  -1  -2   3  271.07   19.60
  -1   2   3  267.77   19.40
  -1   2   3  301.37   19.70
   1   2  -3  287.27   19.70
  -1   2   3  273.07   20.30
   0  -2   3   46.50    3.60
   0  -2  -3   43.20    3.80
   0  -2  -3   44.20    3.90
   0   2   3   45.30    3.90
   0   2  -3   47.40    3.80
   0   2   3   49.00    3.70
   0   2  -3   43.90    3.90
  -1  -2  -3    7.60    1.30
  -1  -2  -3    5.40    1.80
   1  -2   3    8.30    1.30
  -1   2  -3    5.40    1.70
  -1   2  -3    5.90    1.20
   1   2   3    8.30    1.30
   1   2   3    7.70    1.00
  -2  -2  -3  174.08   12.10
  -2  -2  -3  163.48   13.20
   2  -2   3  165.58   11.80
  -2   2  -3  166.68   12.10
   2   2   3  166.58   11.90
  -2   2  -3  168.88   13.30
   3  -2   3   44.30    4.10
  -3  -2  -3   46.70    6.60
  -3   2  -3   49.30    4.90
   3   2   3   44.70    4.30
  -3   2  -3   56.79    7.10
  -4  -2  -3  250.47   20.70
   4  -2   3  244.08   18.20
  -4   2  -3  265.47   20.90
   4   2   3  272.57   18.60
  -4  -3   3    7.20    2.20
  -4  -3   3    5.90    1.60
  -4   3   3    5.30    2.00
  -4   3   3   13.60    3.70
   4   3  -3    8.60    2.80
  -3  -3   3  145.89   10.40
   3  -3  -3  137.19   10.70
  -3  -3   3  143.79   11.00
  -3   3   3  137.69   10.80
  -3   3   3  137.59   12.40
  -3   3   3  149.99   10.30
   3   3  -3  149.79   10.70
   3   3  -3  125.99   11.50
  -2  -3   3   10.60    1.80
   2  -3  -3   12.40    2.00
  -2  -3   3   11.20    1.80
  -2   3   3   10.40    1.70
  -2   3   3   13.50    1.90
   2   3  -3   11.60    1.90
  -2   3   3    9.00    2.50
   1  -3  -3   38.50    3.00
  -1  -3   3   37.90    3.90
   1  -3  -3   35.70    3.40
  -1  -3   3   37.60    3.30
  -1  -3   3   42.50    2.80
  -1  -3   3   34.50    3.30
  -1   3   3   37.50    3.20
  -1   3   3   36.40    3.40
  -1   3   3   34.90    3.90
   1   3  -3   42.90    3.50
   0  -3  -3   52.69    4.60
   0  -3  -3   52.89    4.40
   0  -3   3   52.29    4.20
   0   3  -3   56.39    4.40
   0   3   3   54.09    4.50
   0   3   3   56.59    4.20
   0   3  -3   51.79    4.10
   0   3  -3   61.49    4.70
   1  -3   3   70.89    5.00
  -1  -3  -3   62.39    5.80
  -1  -3  -3   58.49    4.90
  -1   3  -3   65.69    5.90
   1   3   3   67.29    4.70
  -1   3  -3   57.99    5.10
   1   3   3   67.79    5.00
   2  -3   3   15.10    2.10
  -2  -3  -3   17.10    3.30
  -2  -3  -3   18.80    2.40
   2   3   3   16.80    2.20
  -2   3  -3   16.90    3.30
  -2   3  -3   19.20    2.60
   3  -3   3    2.10    1.00
  -3  -3  -3    0.90    1.70
   3   3   3    1.70    1.00
  -3   3  -3    2.90    2.00
  -3   3  -3    0.00    1.10
   4  -3   3   17.00    2.70
  -4  -3  -3   22.50    4.90
   4   3   3   17.60    2.90
  -4   3  -3   21.50    4.70
  -4  -4   3 1268.27   84.49
  -4  -4   3 1302.57   83.29
   4  -4  -3 1180.48   83.69
  -4   4   3 1271.47   86.59
  -4   4   3 1318.07   83.19
   4   4  -3 1190.88   85.29
   3  -4  -3  340.87   24.50
  -3  -4   3  362.26   24.90
  -3  -4   3  357.26   24.20
  -3   4   3  358.36   24.60
   3   4  -3  368.36   24.40
  -3   4   3  357.26   26.50
   3   4  -3  304.87   25.30
  -3   4   3  367.46   24.00
  -2  -4   3    9.90    1.70
  -2  -4   3   10.30    1.70
   2  -4  -3   10.70    1.90
   2   4  -3   14.50    2.10
  -2   4   3   12.10    1.70
  -2   4   3   11.30    1.70
  -2   4   3    8.80    2.60
   2   4  -3    7.60    2.00
   1  -4  -3  746.13   49.60
  -1  -4   3  798.42   49.50
   1  -4  -3  787.92   50.29
  -1  -4   3  756.02   50.09
  -1  -4   3  807.02   49.99
  -1   4   3  739.43   50.09
   1   4  -3  651.83   50.19
  -1   4   3  775.32   49.90
   1   4  -3  766.02   50.09
  -1   4   3  706.53   50.79
   0  -4  -3 3205.28  210.78
   0  -4   3 3315.27  210.38
   0  -4  -3 3251.57  210.58
   0  -4   3 2979.20  210.38
   0   4  -3 3016.50  210.18
   0   4   3 3280.97  210.68
   0   4   3 3558.44  210.48
   0   4  -3 3137.39  210.58
  -1  -4  -3    3.10    0.90
  -1  -4  -3    4.50    1.50
   1  -4   3    2.80    0.80
  -1   4  -3    4.20    1.10
   1   4   3    4.10    1.00
  -1   4  -3    2.40    1.30
   1   4   3    5.00    0.90
  -2  -4  -3   54.19    6.10
  -2  -4  -3   65.39    5.20
   2  -4   3   64.39    5.10
  -2   4  -3   66.49    5.40
   2   4   3   62.19    5.20
  -2   4  -3   72.59    6.60
   3  -4   3   12.00    1.90
  -3  -4  -3   15.20    3.60
   3   4   3   12.30    2.20
  -3   4  -3   14.50    2.90
  -3   4  -3   14.70    3.60
   4  -4   3  123.29    9.90
  -4  -4  -3  137.79   12.50
   4   4   3  129.99   10.30
  -4   4  -3  136.69   12.50
  -4  -5   3  101.79    7.90
   4  -5  -3   94.39    8.40
  -4  -5   3  103.59    9.00
  -4   5   3  100.49    7.70
  -4   5   3   98.59   10.40
   4   5  -3   98.39    9.80
  -3  -5   3  483.75   33.40
   3  -5  -3  478.85   33.10
  -3  -5   3  477.05   32.70
  -3   5   3  500.05   33.10
  -3   5   3  476.75   35.00
   3   5  -3  504.15   32.90
   3   5  -3  449.66   34.00
  -3   5   3  491.55   32.50
   2  -5  -3    0.00    0.80
  -2  -5   3    2.80    1.00
  -2  -5   3    0.60    0.60
  -2   5   3    4.20    1.00
  -2   5   3    0.30    1.10
   2   5  -3    0.50    1.00
  -2   5   3   -0.10    0.50
   2   5  -3   -0.10    0.60
   1  -5  -3  684.93   45.30
  -1  -5   3  719.03   45.10
  -1  -5   3  692.73   45.70
   1  -5  -3  712.23   45.90
  -1  -5   3  691.83   45.60
   1   5  -3  713.13   45.70
  -1   5   3  703.93   45.50
  -1   5   3  683.13   45.70
   1   5  -3  614.74   45.90
  -1   5   3  640.94   46.40
   0  -5  -3   20.90    2.40
   0  -5   3   19.80    1.90
   0  -5   3   19.30    2.00
   0  -5  -3   17.70    2.50
   0   5   3   20.70    2.60
   0   5   3   22.90    2.00
   0   5  -3   17.10    1.80
   0   5  -3   22.40    2.20
   1  -5   3  527.75   34.70
  -1  -5  -3  473.45   34.60
  -1  -5  -3  475.95   35.50
   1   5   3  600.44   34.70
   1   5   3  525.45   34.80
  -1   5  -3  532.75   35.80
  -1   5  -3  494.25   34.90
  -2  -5  -3   22.90    4.00
  -2  -5  -3   22.10    2.70
   2  -5   3   22.80    2.60
   2   5   3   26.50    2.90
  -2   5  -3   20.10    2.90
  -2   5  -3   24.70    4.10
   3  -5   3   44.60    4.00
  -3  -5  -3   42.40    6.30
   3   5   3   47.10    4.40
  -3   5  -3   43.60    6.30
  -3   5  -3   47.00    4.80
  -4  -5  -3    6.30    2.90
   4   5   3    6.50    2.00
  -4   5  -3    2.80    2.30
   4  -6  -3  120.39   10.10
  -4  -6   3  121.99    9.50
  -4  -6   3  129.39   10.70
   4   6  -3  132.69   11.60
  -4   6   3  127.29    9.40
  -4   6   3  110.09   12.00
   3  -6  -3  286.67   20.10
  -3  -6   3  283.37   19.70
  -3  -6   3  289.37   20.40
  -3   6   3  279.27   21.80
   3   6  -3  253.37   20.90
  -3   6   3  304.57   20.10
  -3   6   3  282.07   19.50
   2  -6  -3  174.78   12.20
  -2  -6   3  169.38   12.10
  -2  -6   3  162.88   11.90
  -2   6   3  164.68   11.80
   2   6  -3  167.48   12.80
   2   6  -3  160.68   11.90
  -2   6   3  162.38   13.30
  -2   6   3  169.58   11.80
   1  -6  -3  122.19    8.70
   1  -6  -3  126.89    9.20
  -1  -6   3  123.69    8.50
  -1  -6   3  122.89    9.00
  -1  -6   3  130.49    9.00
  -1   6   3  122.59    9.00
   1   6  -3  112.59    9.20
  -1   6   3  109.69    9.60
  -1   6   3  133.89    8.80
   1   6  -3  126.39    9.00
   0  -6  -3    0.60    0.80
   0  -6   3    0.40    0.50
   0  -6   3   -0.10    0.40
   0  -6  -3    0.50    0.70
   0   6   3    0.70    0.70
   0   6  -3    0.50    0.60
   0   6  -3    0.20    0.40
   0   6   3    0.50    0.40
  -1  -6  -3   29.70    3.00
  -1  -6  -3   29.00    4.00
   1  -6   3   43.50    3.10
  -1   6  -3   34.10    3.30
   1   6   3   32.70    3.00
   1   6   3   36.00    3.10
   2  -6   3   37.20    3.30
  -2  -6  -3   38.80    5.40
  -2  -6  -3   36.30    3.60
  -2   6  -3   38.00    3.80
  -2   6  -3   42.10    5.50
   2   6   3   42.00    3.60
   3  -6   3    4.90    1.30
  -3  -6  -3    1.40    2.00
  -3   6  -3    6.10    2.00
  -3   6  -3    3.50    2.10
   3   6   3    5.30    1.60
  -4  -6  -3   49.00    7.70
   4   6   3   44.60    5.30
   4  -7  -3    0.40    1.50
  -4  -7   3    0.70    1.00
  -4  -7   3    1.20    1.70
   4   7  -3   -0.50    2.10
  -4   7   3    1.20    2.20
  -4   7   3    1.60    1.00
  -3  -7   3   85.99    6.90
   3  -7  -3   91.09    7.50
  -3  -7   3   91.69    7.60
  -3   7   3   82.09    8.70
  -3   7   3   91.89    6.80
   3   7  -3   80.99    8.10
   2  -7  -3   65.09    5.20
  -2  -7   3   56.39    4.70
  -2  -7   3   59.19    4.90
  -2   7   3   56.69    4.60
  -2   7   3   51.99    5.80
  -2   7   3   52.39    4.50
   2   7  -3   56.89    4.70
   2   7  -3   51.59    5.40
   1  -7  -3  395.76   25.80
  -1  -7   3  396.06   25.60
  -1  -7   3  375.86   26.00
   1  -7  -3  405.86   26.30
  -1  -7   3  384.56   25.90
  -1   7   3  355.86   26.80
  -1   7   3  372.26   26.00
   1   7  -3  369.36   26.30
  -1   7   3  380.06   25.70
   1   7  -3  401.16   26.10
   0  -7   3  173.88   12.70
   0  -7   3  181.88   12.70
   0  -7  -3  184.88   12.90
   0  -7  -3  172.18   13.10
   0   7   3  197.88   12.70
   0   7   3  173.98   13.10
   0   7  -3  184.68   12.90
   0   7   3  204.28   13.20
   0   7  -3  172.28   12.80
   0   7  -3  188.08   12.50
  -1  -7  -3 2450.05  167.78
  -1  -7  -3 2586.34  166.78
   1  -7   3 2355.06  167.18
   1  -7   3 2662.73  166.68
   1   7   3 2766.92  166.88
  -1   7  -3 2448.06  167.08
   2  -7   3   15.80    2.00
  -2  -7  -3   15.20    3.20
  -2   7  -3   17.10    2.60
   2   7   3   15.00    2.20
  -3  -7  -3   44.60    6.70
   3  -7   3   45.40    4.20
   3   7   3   50.49    4.70
  -3   7  -3   56.39    5.30
  -4  -7  -3    2.60    2.70
   4  -7   3    5.60    2.60
   4   7   3    7.60    2.20
  -4   7  -3    4.40    2.30
  -4  -8   3    0.80    1.10
   4  -8  -3   -0.20    1.50
  -4  -8   3   -1.30    1.30
   4   8  -3   -1.10    2.10
  -4   8   3   -1.10    2.00
  -4   8   3    0.80    0.90
  -3  -8   3   53.39    4.70
   3  -8  -3   53.39    5.10
  -3  -8   3   53.99    5.30
  -3   8   3   57.09    4.50
   3   8  -3   48.70    5.70
  -3   8   3   43.60    6.80
   2  -8  -3  231.88   16.20
  -2  -8   3  229.08   16.10
  -2  -8   3  225.08   15.80
   2   8  -3  224.88   16.70
  -2   8   3  204.08   17.10
  -2   8   3  224.48   15.70
  -2   8   3  224.18   15.70
   2   8  -3  240.78   15.90
   1  -8  -3  608.34   40.70
  -1  -8   3  607.24   40.50
  -1  -8   3  610.24   40.50
   1  -8  -3  624.64   40.40
  -1  -8   3  618.34   40.20
   1   8  -3  608.74   40.80
  -1   8   3  542.65   41.20
   1   8  -3  605.14   40.50
  -1   8   3  613.94   40.20
  -1   8   3  616.94   40.60
   0  -8  -3 1114.99   76.09
   0  -8   3 1110.69   75.59
   0  -8  -3 1192.48   75.89
   0  -8   3 1145.69   75.79
   0   8   3 1158.18   76.19
   0   8  -3 1192.38   75.49
   0   8   3 1176.38   75.69
   0   8  -3 1118.89   75.79
   0   8   3 1149.08   75.99
   0   8  -3 1125.19   75.89
  -1  -8  -3    5.60    1.80
   1  -8   3    8.90    1.80
   1  -8   3    8.80    1.40
  -1  -8  -3    5.10    1.20
  -1   8  -3    5.60    1.40
   1   8   3   10.50    1.50
   1   8   3   14.80    1.90
  -2  -8  -3  219.88   16.80
   2  -8   3  228.68   15.10
   2  -8   3  185.48   15.70
   2   8   3  228.88   15.40
  -2   8  -3  220.58   15.70
  -3  -8  -3    3.50    2.30
   3  -8   3    3.50    1.20
   3  -8   3    3.00    2.00
  -3   8  -3    3.90    1.70
   3   8   3    3.80    1.50
  -4  -8  -3   42.20    7.40
   4  -8   3   38.50    5.90
  -4   8  -3   53.59    6.70
   4   8   3   52.69    5.80
  -4  -9   3    0.40    1.10
   4  -9  -3    0.80    1.60
  -4  -9   3    5.90    2.40
  -4   9   3    2.00    1.00
   4   9  -3    2.20    2.40
  -4   9   3    0.40    1.90
  -3  -9   3   98.09    8.10
   3  -9  -3   99.99    8.00
  -3  -9   3   95.19    7.40
  -3   9   3   82.39    8.90
  -3   9   3   86.69    7.10
   3   9  -3   93.49    8.60
  -2  -9   3   41.90    3.90
   2  -9  -3   40.90    4.10
  -2  -9   3   46.90    4.10
  -2   9   3   42.40    3.80
  -2   9   3   39.20    5.50
   2   9  -3   43.20    3.90
  -2   9   3   39.30    3.60
   2   9  -3   43.70    4.60
  -1  -9   3  243.98   15.60
  -1  -9   3  222.38   15.80
  -1  -9   3  226.48   15.90
   1  -9  -3  244.88   15.90
   1  -9  -3  221.58   16.10
   1   9  -3  225.88   16.10
  -1   9   3  234.88   16.00
  -1   9   3  210.38   15.50
  -1   9   3  220.18   16.80
   1   9  -3  227.98   15.90
   0  -9  -3  196.98   15.20
   0  -9  -3  219.78   15.10
   0  -9   3  208.88   14.80
   0  -9   3  217.08   14.90
   0   9  -3  224.98   14.70
   0   9   3  221.38   14.80
   0   9  -3  216.38   15.00
   0   9   3  208.98   15.10
   0   9   3  212.88   15.40
   0   9  -3  214.08   15.10
  -1  -9  -3  176.58   12.10
   1  -9   3  177.58   12.70
   1  -9   3  174.18   12.00
  -1  -9  -3  159.88   13.00
   1   9   3  191.88   12.40
   1   9   3  165.18   12.10
  -1   9  -3  154.08   12.30
   2  -9   3   25.10    2.50
   2  -9   3   26.40    3.70
  -2  -9  -3   20.70    3.90
  -2   9  -3   22.10    3.20
   2   9   3   23.10    2.90
   3  -9   3  199.38   16.60
  -3  -9  -3  231.98   18.00
   3   9   3  222.38   16.10
  -3   9  -3  239.68   16.90
   4  -9   3    2.50    2.30
  -4  -9  -3    1.70    2.50
   4   9   3    1.40    1.60
  -4   9  -3    0.50    1.60
  -4 -10   3   93.99    7.60
   4 -10  -3   95.59    8.40
  -4 -10   3   81.89    8.40
  -4  10   3   97.19    7.40
   4  10  -3   96.99    9.50
  -4  10   3   85.59    9.80
  -3 -10   3   -0.10    0.90
  -3 -10   3    1.10    1.20
   3 -10  -3    0.70    1.20
  -3  10   3    2.00    2.00
   3  10  -3    1.10    1.70
  -3  10   3   -0.40    0.70
  -2 -10   3  314.07   21.00
   2 -10  -3  309.17   21.40
  -2 -10   3  301.27   21.20
  -2  10   3  268.97   22.30
   2  10  -3  326.87   21.00
   2  10  -3  291.47   21.70
  -2  10   3  307.67   20.90
  -1 -10   3   18.10    2.20
   1 -10  -3   19.60    2.40
  -1 -10   3   18.20    1.90
  -1 -10   3   14.00    2.20
   1 -10  -3   19.20    2.60
  -1  10   3   14.50    2.90
  -1  10   3   19.60    2.50
  -1  10   3   18.10    1.80
   1  10  -3   14.80    2.40
   1  10  -3   16.00    2.20
   0 -10   3  671.53   44.50
   0 -10  -3  661.63   44.70
   0 -10   3  667.13   44.70
   0 -10  -3  641.44   45.10
   0  10   3  678.93   45.30
   0  10   3  670.73   44.50
   0  10  -3  637.14   44.60
   0  10  -3  740.53   44.50
   0  10  -3  650.63   44.80
  -1 -10  -3   56.19    5.40
  -1 -10  -3   52.29    4.40
   1 -10   3   58.69    5.10
   1 -10   3   52.49    4.30
  -1  10  -3   64.69    4.80
   1  10   3   52.19    4.50
   1  10   3   59.09    4.80
  -1  10  -3   49.20    4.70
   2 -10   3  772.92   52.19
  -2 -10  -3  733.93   52.89
   2 -10   3  809.22   51.19
   2  10   3  759.92   51.49
  -2  10  -3  768.12   51.89
  -3 -10  -3    1.80    1.90
   3 -10   3    0.20    1.50
  -3  10  -3    0.90    1.30
   3  10   3    1.00    1.10
   4 -10   3   20.00    4.20
  -4 -10  -3   21.40    5.30
   4  10   3   20.10    3.60
  -4  10  -3   24.00    4.50
   4 -11  -3    1.30    1.70
  -4 -11   3    5.40    1.60
  -4 -11   3    5.40    2.20
   4  11  -3    7.10    3.10
  -4  11   3    3.80    1.40
  -4  11   3    3.30    2.60
   3 -11  -3   22.40    3.30
  -3 -11   3   20.20    2.80
  -3 -11   3   12.10    2.70
  -3  11   3   11.60    2.10
   3  11  -3   18.10    3.60
  -3  11   3   11.60    3.50
   2 -11  -3  166.38   12.10
  -2 -11   3  156.98   11.80
  -2 -11   3  163.38   11.70
  -2  11   3  158.28   11.60
  -2  11   3  142.29   12.90
   2  11  -3  165.98   11.60
   2  11  -3  162.78   12.50
  -1 -11   3  665.13   41.60
   1 -11  -3  647.34   41.90
  -1 -11   3  614.74   41.70
  -1 -11   3  618.34   41.70
   1 -11  -3  641.54   42.00
  -1  11   3  640.74   41.90
   1  11  -3  647.14   41.80
  -1  11   3  562.24   42.60
  -1  11   3  571.24   41.30
   1  11  -3  626.04   42.00
   0 -11  -3    7.60    1.80
   0 -11   3    5.50    1.30
   0 -11   3    8.50    1.40
   0 -11  -3    8.20    1.60
   0  11  -3    8.10    1.60
   0  11   3    9.00    1.80
   0  11  -3    6.10    1.50
   0  11   3    6.30    1.70
   0  11  -3    7.90    1.30
   0  11   3    8.40    1.30
   1 -11   3    0.90    0.60
  -1 -11  -3    0.60    0.60
   1 -11   3    0.60    0.90
  -1 -11  -3    0.40    0.80
   1  11   3    0.10    0.50
   1  11   3    0.40    0.70
  -1  11  -3   -0.20    0.60
  -1  11  -3   -0.70    0.60
   2 -11   3   58.29    5.80
  -2 -11  -3   59.39    6.40
   2  11   3   51.99    5.00
   2  11   3   69.19    5.80
  -2  11  -3   62.59    5.60
   3 -11   3  392.86   27.40
  -3 -11  -3  379.26   28.50
  -3  11  -3  381.26   27.30
   3  11   3  369.96   26.50
  -4 -11  -3   31.40    6.40
   4 -11   3   33.00    5.40
   4  11   3   40.20    5.10
  -4  11  -3   35.60    5.50
  -4 -12   3    2.20    2.00
  -4 -12   3    1.90    1.40
   4 -12  -3    3.80    2.10
  -4  12   3    3.10    2.80
  -4  12   3    4.20    1.40
   4  12  -3    7.70    3.00
  -3 -12   3    5.40    1.60
   3 -12  -3    5.90    2.10
  -3 -12   3    6.20    1.90
  -3  12   3    4.80    1.40
   3  12  -3    3.30    2.00
  -3  12   3    6.50    2.80
   2 -12  -3  368.36   25.10
  -2 -12   3  355.56   24.60
  -2 -12   3  365.16   24.80
  -2  12   3  342.07   26.20
   2  12  -3  364.86   25.40
  -2  12   3  349.27   24.60
   1 -12  -3  562.74   37.40
  -1 -12   3  539.55   37.10
  -1 -12   3  567.44   37.20
  -1 -12   3  610.64   37.10
   1 -12  -3  562.14   37.50
   1  12  -3  569.54   37.20
  -1  12   3  544.35   37.30
   1  12  -3  555.44   37.40
  -1  12   3  540.45   38.40
  -1  12   3  485.25   36.70
   0 -12   3  224.88   15.80
   0 -12  -3  225.38   15.90
   0 -12  -3  214.48   16.30
   0 -12   3  220.38   15.60
   0  12   3  227.38   16.50
   0  12  -3  229.08   15.80
   0  12  -3  246.08   15.70
   0  12  -3  220.28   15.90
   0  12   3  219.18   15.50
   0  12   3  232.98   16.10
   1 -12   3   53.09    4.90
  -1 -12  -3   56.99    4.60
  -1 -12  -3   50.09    5.30
   1 -12   3   56.19    4.30
  -1  12  -3   49.30    4.50
   1  12   3   46.70    4.30
  -1  12  -3   47.70    4.60
   1  12   3   56.59    4.80
  -2 -12  -3   11.80    3.30
   2 -12   3   12.50    2.70
  -2  12  -3   13.10    2.50
  -2  12  -3   10.90    1.90
   2  12   3   16.90    2.50
   2  12   3   16.50    2.40
   3 -12   3   98.59    8.90
  -3 -12  -3  104.79   10.10
  -3  12  -3   91.69    8.70
   3  12   3  102.79    8.20
   4 -12   3   23.30    4.60
  -4 -12  -3   14.60    4.90
  -4  12  -3   26.10    4.70
  -4 -13   3    0.10    1.50
  -4 -13   3   -0.50    1.20
   4 -13  -3    0.70    1.80
  -4  13   3    0.50    1.10
   4  13  -3    1.50    2.20
  -4  13   3    3.90    2.90
  -3 -13   3  362.86   24.30
   3 -13  -3  343.67   24.90
  -3 -13   3  347.77   24.90
  -3  13   3  343.97   24.10
  -3  13   3  324.67   26.30
   3  13  -3  362.06   25.60
  -2 -13   3   64.19    6.00
  -2 -13   3   69.89    5.90
   2 -13  -3   77.99    6.40
   2  13  -3   71.69    6.60
  -2  13   3   70.99    5.90
  -2  13   3   70.79    7.30
  -1 -13   3 1065.09   73.79
   1 -13  -3 1070.89   74.09
   1 -13  -3 1066.89   74.19
  -1 -13   3 1168.48   73.89
  -1 -13   3 1134.79   73.89
  -1  13   3 1106.09   75.29
   1  13  -3 1166.18   73.99
   1  13  -3 1157.68   74.19
  -1  13   3 1101.19   74.09
   0 -13  -3    4.30    1.50
   0 -13   3    4.00    1.10
   0 -13  -3    4.50    1.30
   0 -13   3    4.30    1.00
   0  13  -3    4.30    1.10
   0  13   3    4.60    1.00
   0  13   3    3.30    1.40
   0  13  -3    4.90    1.30
   0  13  -3    5.00    1.30
   0  13   3    2.20    1.10
  -1 -13  -3  740.13   52.99
   1 -13   3  806.42   52.39
   1 -13   3  842.82   51.59
  -1  13  -3  752.02   52.19
   1  13   3  816.42   52.29
   1  13   3  710.93   51.69
  -1  13  -3  774.12   51.89
  -2 -13  -3    9.20    2.90
   2 -13   3    7.80    2.10
   2  13   3   10.60    2.00
  -2  13  -3    7.30    1.60
   2  13   3    6.50    1.60
  -2  13  -3   10.00    2.20
   3 -13   3  128.49   10.60
  -3 -13  -3  133.09   11.90
   3  13   3  108.49    9.60
  -3  13  -3  126.49    9.30
  -3  13  -3  119.99   10.40
   4 -14  -3    0.60    1.70
  -4 -14   3    0.20    1.30
  -4 -14   3   -2.10    1.40
  -4  14   3    0.70    2.30
  -4  14   3    0.90    1.10
   4  14  -3    0.60    2.50
  -3 -14   3  253.17   17.80
  -3 -14   3  245.58   17.00
   3 -14  -3  233.18   17.70
   3  14  -3  243.18   18.30
  -3  14   3  236.58   16.90
  -3  14   3  201.58   18.80
  -2 -14   3 1265.37   80.59
  -2 -14   3 1200.18   80.79
   2 -14  -3 1193.98   80.99
  -2  14   3 1125.99   82.29
  -2  14   3 1199.38   80.59
   2  14  -3 1295.67   81.49
  -1 -14   3  644.04   43.20
  -1 -14   3  655.83   43.20
  -1 -14   3  702.43   43.30
   1 -14  -3  612.64   43.40
   1 -14  -3  618.54   43.50
   1  14  -3  661.53   43.30
   1  14  -3  640.24   43.40
  -1  14   3  605.94   44.50
  -1  14   3  649.54   43.50
   0 -14   3   37.50    3.30
   0 -14  -3   38.10    3.60
   0 -14  -3   38.20    4.60
   0 -14   3   32.70    3.40
   0  14  -3   42.90    3.70
   0  14   3   38.90    4.40
   0  14   3   39.00    4.20
   0  14  -3   34.90    3.40
   0  14   3   35.70    3.20
   0  14  -3   38.40    3.60
   1 -14   3  106.29    8.60
   1 -14   3  112.29    7.80
  -1 -14  -3  101.99    9.20
   1  14   3  112.89    8.60
   1  14   3   98.39    7.90
  -1  14  -3  113.89    8.30
  -1  14  -3  100.39    8.40
   2 -14   3  129.39   10.40
  -2 -14  -3  105.59   10.90
   2  14   3  148.59   10.00
  -2  14  -3  123.89   10.10
  -2  14  -3  121.59    9.50
   2  14   3  123.29    9.60
   3 -14   3    2.30    2.10
  -3 -14  -3    4.30    2.60
   3  14   3    5.70    1.70
  -3  14  -3    3.40    1.30
  -3  14  -3    5.20    1.90
  -4 -15   3   16.10    2.90
   4 -15  -3   16.30    3.80
  -4 -15   3   10.30    3.10
  -4  15   3    7.40    3.30
  -4  15   3    9.90    2.30
   4  15  -3   18.30    4.50
  -3 -15   3    1.20    1.20
  -3 -15   3    2.60    1.90
   3 -15  -3    2.90    1.70
  -3  15   3   -0.20    1.40
   3  15  -3    2.40    2.00
  -3  15   3    1.50    1.10
   2 -15  -3    1.20    1.10
  -2 -15   3    0.80    1.10
  -2 -15   3    2.00    1.20
   2  15  -3    0.50    1.30
  -2  15   3    1.00    1.00
  -2  15   3    1.00    1.70
   1 -15  -3    2.70    1.30
  -1 -15   3    3.60    1.10
  -1 -15   3    2.60    1.10
  -1 -15   3    4.90    1.50
   1 -15  -3    2.70    1.30
  -1  15   3    4.70    1.90
   1  15  -3    2.90    1.30
  -1  15   3    2.60    1.30
   1  15  -3    4.50    1.50
   0 -15  -3   65.59    6.60
   0 -15   3   77.99    6.20
   0 -15   3   80.49    5.90
   0 -15  -3   76.99    6.20
   0  15   3   67.59    5.60
   0  15  -3   81.49    6.10
   0  15  -3   76.89    6.20
   0  15  -3   77.79    6.30
   0  15   3   74.79    6.90
  -1 -15  -3  173.48   13.40
   1 -15   3  171.08   12.60
  -1  15  -3  158.18   12.40
  -1  15  -3  166.88   12.20
   1  15   3  152.28   11.80
   1  15   3  180.58   12.60
   2 -15   3    2.20    1.70
  -2 -15  -3    4.60    2.30
  -2  15  -3    3.20    1.30
   2  15   3    2.30    1.10
  -2  15  -3    1.50    1.20
   2  15   3    2.50    1.30
  -3 -15  -3   82.89   10.40
   3 -15   3   86.79    8.20
   3  15   3   89.69    7.50
  -3  15  -3   83.49    8.10
  -3  15  -3   86.79    7.10
   4 -16  -3  185.48   15.80
  -4 -16   3  187.08   13.60
  -4  16   3  164.28   16.20
  -4  16   3  172.88   13.40
  -3 -16   3   81.89    6.90
   3 -16  -3   78.19    7.50
  -3 -16   3   78.09    7.50
   3  16  -3   85.49    8.10
  -3  16   3   75.39   10.10
   2 -16  -3  108.19    9.10
  -2 -16   3  102.19    8.60
  -2 -16   3  116.89    9.00
  -2  16   3  108.89    8.80
  -2  16   3   99.49   10.20
   2  16  -3  125.29    9.50
  -1 -16   3  286.47   19.70
   1 -16  -3  268.47   20.00
  -1 -16   3  308.57   19.80
   1 -16  -3  267.27   20.00
  -1  16   3  257.77   21.00
   1  16  -3  287.57   19.90
   1  16  -3  289.27   19.70
  -1  16   3  282.77   20.00
   0 -16  -3  331.27   23.20
   0 -16   3  362.26   23.00
   0 -16   3  325.27   23.20
   0 -16  -3  334.27   24.00
   0  16  -3  344.77   23.40
   0  16  -3  373.76   23.30
   0  16   3  296.57   22.60
   0  16  -3  343.77   23.10
   0  16   3  319.67   24.00
  -1 -16  -3    4.00    2.00
   1 -16   3    4.50    1.60
   1  16   3    3.20    1.10
   1  16   3    5.50    1.70
  -1  16  -3    2.90    1.20
  -1  16  -3    5.50    1.60
  -2 -16  -3  562.94   41.40
   2 -16   3  590.64   40.30
  -2  16  -3  583.74   40.20
  -2  16  -3  598.34   39.50
   2  16   3  573.24   39.40
  -3 -16  -3    4.30    2.80
   3 -16   3    2.60    2.20
  -3  16  -3    5.70    1.70
   3  16   3    4.70    1.90
  -3  16  -3    4.40    2.00
  -3 -17   3   38.00    5.10
   3 -17  -3   28.30    4.80
  -3 -17   3   36.20    4.50
   3  17  -3   39.10    5.60
  -3  17   3   34.70    6.50
  -3  17   3   41.10    4.70
   2 -17  -3   15.50    3.00
  -2 -17   3   20.90    3.00
  -2 -17   3    9.80    2.30
  -2  17   3   11.20    3.40
  -2  17   3   17.40    2.90
   2  17  -3   13.90    2.90
   1 -17  -3   16.60    3.00
  -1 -17   3   13.20    2.20
  -1 -17   3   16.80    2.50
   1 -17  -3   16.40    2.80
  -1  17   3   14.00    2.60
   1  17  -3   18.20    2.80
  -1  17   3   11.50    3.10
   1  17  -3   12.50    2.20
   0 -17   3   64.29    5.50
   0 -17  -3   62.99    5.40
   0 -17  -3   62.99    6.10
   0 -17   3   60.29    5.00
   0  17  -3   62.79    5.50
   0  17  -3   64.49    5.50
   0  17   3   52.59    5.90
   0  17  -3   67.39    5.40
  -1 -17  -3  163.58   13.60
   1 -17   3  171.08   12.80
  -1  17  -3  171.88   12.40
  -1  17  -3  163.78   12.70
   1  17   3  172.98   12.90
   1  17   3  163.18   12.00
  -2 -17  -3  393.46   31.40
   2 -17   3  445.76   30.50
  -2  17  -3  419.66   29.50
   2  17   3  495.35   30.10
   2  17   3  403.96   29.40
  -2  17  -3  410.26   30.30
   3 -17   3  149.88   11.70
  -3 -17  -3  129.99   12.80
  -3  17  -3  124.79   11.20
  -3  17  -3  129.89   10.20
   3  17   3  132.29   10.60
   3 -18  -3    3.80    2.10
  -3 -18   3    0.10    1.40
  -3  18   3    2.10    1.40
   3  18  -3    2.30    2.00
  -3  18   3    0.10    2.10
  -2 -18   3  495.65   34.20
   2 -18  -3  453.45   34.30
   2  18  -3  565.44   34.90
  -2  18   3  455.75   35.80
   1 -18  -3   98.99    8.60
   1 -18  -3   90.79    8.30
  -1 -18   3   94.39    8.10
  -1 -18   3  104.29    8.10
   1  18  -3  119.89    8.60
  -1  18   3  110.89    8.60
  -1  18   3  104.89    9.60
   0 -18   3    0.80    0.80
   0 -18  -3    1.30    1.40
   0 -18  -3    0.40    0.90
   0  18  -3    1.40    1.00
   0  18  -3   -1.20    0.90
   0  18   3    0.30    1.10
   0  18  -3   -1.00    1.00
  -1 -18  -3  248.38   18.80
   1 -18   3  254.67   17.80
   1  18   3  219.98   16.80
  -1  18  -3  237.48   17.70
   1  18   3  250.77   17.90
  -1  18  -3  250.97   17.40
  -2 -18  -3   14.00    3.80
   2 -18   3   12.60    3.10
  -2  18  -3   12.10    2.30
   2  18   3   16.00    2.80
  -2  18  -3   14.00    3.00
   2  18   3    9.80    2.10
   3 -18   3    7.70    2.70
  -3 -18  -3    5.80    3.20
  -3  18  -3   11.00    3.00
   3  18   3   10.60    2.40
  -3  18  -3   10.30    2.20
  -3 -19   3  352.76   24.90
   3 -19  -3  326.47   24.90
  -3  19   3  325.37   26.90
  -3  19   3  292.07   24.00
   3  19  -3  418.46   26.00
   2 -19  -3    0.80    1.30
  -2 -19   3    1.60    1.30
   2  19  -3    1.40    1.60
  -2  19   3    0.70    1.20
  -2  19   3    1.80    2.00
  -1 -19   3  509.15   36.20
   1 -19  -3  519.25   36.90
  -1 -19   3  591.04   36.70
   1 -19  -3  477.55   36.50
  -1  19   3  497.25   37.90
  -1  19   3  544.85   36.90
   1  19  -3  594.44   36.80
   0 -19  -3   65.69    7.10
   0 -19   3   79.49    6.60
   0  19   3   61.69    7.00
   0  19  -3   92.29    6.70
   0  19  -3   79.69    6.60
  -1 -19  -3   40.90    6.20
   1 -19   3   50.49    5.00
   1  19   3   41.90    4.00
  -1  19  -3   48.50    4.90
  -1  19  -3   56.29    4.80
   1  19   3   44.00    4.80
  -2 -19  -3  202.08   17.90
   2 -19   3  226.78   16.90
  -2  19  -3  198.28   16.60
   2  19   3  251.67   16.70
  -2  19  -3  232.88   16.10
   2  19   3  201.38   15.70
  -3 -19  -3  229.78   20.50
   3 -19   3  260.47   19.20
   3  19   3  252.17   18.30
  -3  19  -3  229.48   18.90
  -3  19  -3  259.07   18.00
  -3 -20   3   44.50    5.70
   3 -20  -3   33.70    5.40
  -3  20   3   43.20    7.80
  -3  20   3   31.40    4.80
   3  20  -3   50.29    6.50
  -2 -20   3   72.99    6.40
   2 -20  -3   60.09    6.30
   2  20  -3   72.29    6.80
  -2  20   3   65.99    6.30
  -2  20   3   56.49    8.50
  -1 -20   3   82.69    6.90
  -1 -20   3   86.19    7.20
   1 -20  -3   77.19    7.20
   1 -20  -3   81.49    7.60
  -1  20   3   73.39    7.30
   1  20  -3  100.89    7.60
  -1  20   3   83.59    8.50
   0 -20  -3    7.20    2.50
   0 -20   3    7.20    1.80
   0  20  -3    8.90    2.20
   0  20  -3    7.90    1.90
   0  20   3    7.10    2.30
   1 -20   3    7.60    2.10
  -1 -20  -3    7.30    2.80
  -1  20  -3   10.20    2.20
   1  20   3    8.70    2.30
  -1  20  -3    4.90    1.90
   2 -20   3   17.80    3.60
  -2 -20  -3   12.20    3.70
   2  20   3   16.40    2.60
   2  20   3   19.50    3.40
  -2  20  -3   18.20    2.90
  -2  20  -3   11.30    3.00
  -3 -20  -3   10.90    4.00
  -3  20  -3   10.90    2.40
   3  20   3   10.00    2.40
  -3  20  -3    9.40    2.90
   3 -21  -3  112.19   10.50
  -3 -21   3   97.99    9.90
  -3  21   3  126.29   10.10
   3  21  -3  146.09   11.40
  -3  21   3  112.59   12.20
   2 -21  -3   17.90    3.60
  -2 -21   3   23.00    3.60
  -2  21   3   21.30    5.10
   2  21  -3   24.60    4.10
  -2  21   3   26.40    4.00
   1 -21  -3  159.98   12.40
  -1 -21   3  167.98   12.00
   1 -21  -3  140.19   11.90
  -1  21   3  127.59   12.90
  -1  21   3  151.98   12.20
   1  21  -3  175.78   12.20
   0 -21   3    4.10    1.50
   0 -21  -3    1.10    1.70
   0  21  -3    4.20    1.60
   0  21   3    5.00    2.10
   0  21  -3    4.60    1.70
   1 -21   3  218.48   15.80
  -1 -21  -3  178.08   16.50
  -1  21  -3  207.78   15.80
  -1  21  -3  222.28   15.40
   1  21   3  206.28   15.80
  -2 -21  -3    2.40    2.50
   2 -21   3    2.60    2.00
  -2  21  -3    2.80    1.60
  -2  21  -3    2.40    1.70
   2  21   3    1.50    1.10
   2  21   3    1.90    1.60
  -3 -22   3   -0.30    1.80
   3 -22  -3    2.50    2.10
  -3  22   3    0.30    1.60
   3  22  -3    3.90    2.60
  -3  22   3    0.20    2.50
  -2 -22   3  874.81   56.69
   2 -22  -3  838.62   57.09
  -2  22   3  824.62   56.79
  -2  22   3  801.32   58.99
   1 -22  -3    1.70    1.40
   1 -22  -3    0.70    1.40
  -1 -22   3    3.20    1.50
  -1  22   3    2.40    1.60
   1  22  -3    2.70    1.50
  -1  22   3    0.30    1.50
   0 -22  -3    5.10    2.20
   0 -22   3    4.50    1.60
   0  22   3    5.70    2.30
   0  22  -3    7.20    2.00
   0  22  -3    3.60    1.60
  -1 -22  -3    0.40    1.70
   1 -22   3    0.30    1.40
  -1  22  -3    2.60    1.50
   1  22   3   -0.10    1.00
  -1  22  -3    1.60    1.60
   2 -22   3  559.84   37.60
  -2 -22  -3  472.15   38.70
   2  22   3  575.14   37.30
  -2  22  -3  459.05   37.20
  -2  22  -3  577.94   36.70
  -2 -23   3    5.00    2.10
   2 -23  -3    3.10    1.80
  -2  23   3   -0.10    1.60
   2  23  -3    6.90    2.40
  -2  23   3    3.70    2.70
   1 -23  -3    5.10    2.30
   1 -23  -3    4.50    1.90
  -1 -23   3    5.50    1.80
  -1  23   3    3.40    2.10
   1  23  -3    3.30    1.70
  -1  23   3    2.50    2.40
   0 -23   3   63.59    6.00
   0 -23  -3   56.29    7.40
   0  23  -3   58.39    5.90
   0  23  -3   73.19    6.10
   0  23   3   51.89    6.30
   1 -23   3   19.80    3.70
  -1 -23  -3   20.30    4.60
   1  23   3   23.50    4.10
  -1  23  -3   25.80    3.70
  -1  23  -3   25.50    4.10
   2 -23   3   35.90    5.30
  -2 -23  -3   39.70    7.00
   2  23   3   37.20    5.10
  -2  23  -3   38.30    5.60
  -2  23  -3   36.80    4.70
   2 -24  -3   43.50    5.90
   2  24  -3   52.99    6.40
  -2  24   3   38.50    5.40
  -2  24   3   30.50    6.60
   1 -24  -3    6.20    2.50
  -1 -24   3    6.40    2.10
   1  24  -3    7.50    2.30
  -1  24   3    7.30    2.90
   0 -24  -3  222.98   19.50
   0 -24   3  270.97   19.00
   0  24  -3  286.57   19.30
   0  24   3  237.58   19.60
   1 -24   3    9.50    2.60
  -1 -24  -3    7.30    3.10
  -1  24  -3   15.00    2.90
   1  24   3    9.60    2.70
  -1  24  -3   13.70    3.30
   2 -24   3   49.70    6.20
  -2 -24  -3   39.60    7.10
  -2  24  -3   25.10    4.90
  -2  24  -3   42.20    5.10
   2  24   3   36.40    5.20
   2 -25  -3   53.69    6.70
  -2  25   3   34.40    7.30
   2  25  -3   65.69    6.60
   1 -25  -3  381.26   25.90
  -1 -25   3  376.76   25.40
   1  25  -3  365.76   25.30
  -1  25   3  274.27   26.00
   0 -25  -3    6.60    2.80
   0 -25   3    2.80    1.80
   0  25   3    0.60    1.50
   1 -25   3  105.39    8.90
  -1 -25  -3   81.39   10.60
   1  25   3   93.09    8.80
  -1  25  -3   89.59    8.70
  -1  25  -3  101.29    8.40
  -2 -25  -3   26.10    6.10
   2 -25   3   30.80    5.30
  -2  25  -3   26.60    4.80
  -2  25  -3   38.20    4.90
   2  25   3   27.80    4.70
   2 -26  -3    1.50    1.60
   2  26  -3   -0.20    1.70
  -2  26   3    3.80    2.20
  -2  26   3   -1.30    1.90
  -1 -26   3    6.40    2.10
   1 -26  -3    4.90    2.30
   1  26  -3    3.50    2.00
  -1  26   3    5.00    2.70
   0 -26   3   85.09    7.40
   0 -26  -3   74.09    9.10
   0  26   3   66.89    7.70
   1 -26   3   16.10    3.40
  -1 -26  -3   16.20    4.40
  -1  26  -3   22.40    4.30
   1  26   3   20.50    3.90
  -1 -27   3   50.39    6.20
   1 -27  -3   54.49    6.90
   1  27  -3   50.59    5.60
  -1  27   3   35.50    6.70
   0 -27  -3    0.70    1.90
   0 -27   3    1.40    1.80
   0  27   3    1.00    1.70
   1 -27   3  253.47   18.30
  -1 -27  -3  209.68   19.20
   1  27   3  233.68   18.30
  -1 -28   3    0.70    1.40
   1 -28  -3    0.30    2.00
  -1  28   3    1.70    2.20
   1  28  -3   -1.50    1.30
   0 -28   3  297.97   20.10
   0 -28  -3  243.68   20.60
   0  28   3  241.98   20.40
  -4   0   4   39.50    5.50
  -4   0   4   33.40    4.30
  -3   0   4   -0.30    1.50
   3   0  -4    0.30    1.20
  -3   0   4    0.20    1.10
  -3   0   4    0.80    0.90
   2   0  -4  413.36   28.90
  -2   0   4  417.96   30.20
  -2   0   4  416.06   28.80
  -2   0   4  435.06   28.70
  -1   0   4   -0.40    1.00
   1   0  -4   -0.30    0.80
  -1   0   4    0.10    0.80
  -1   0   4    0.60    0.60
   0   0  -4  456.15   31.30
   0   0   4  439.16   30.90
   0   0   4  493.35   31.00
   0   0  -4  449.16   31.10
  -1   0  -4    0.90    0.70
  -1   0  -4   -0.50    1.10
   1   0   4    0.50    0.60
  -2   0  -4   77.59    6.20
   2   0   4   69.89    5.80
  -2   0  -4   72.39    7.40
   3   0   4   -0.30    1.00
  -3   0  -4   -0.60    1.40
   4   0   4   40.70    4.90
  -4   0  -4   49.99    7.80
   4  -1  -4  173.08   13.40
  -4  -1   4  192.08   13.30
  -4  -1   4  175.08   14.10
  -4   1   4  162.08   13.80
  -4   1   4  182.98   13.30
   4   1  -4  152.08   14.60
  -4   1   4  193.58   16.50
  -3  -1   4   24.20    3.30
   3  -1  -4   21.40    3.30
  -3  -1   4   19.50    3.10
  -3  -1   4   21.20    4.60
  -3   1   4   23.20    3.40
   3   1  -4   23.80    3.30
  -3   1   4   22.00    4.70
  -3   1   4   20.20    3.00
  -2  -1   4  518.65   35.90
  -2  -1   4  534.45   35.90
   2  -1  -4  518.15   36.00
  -2  -1   4  545.35   37.50
   2   1  -4  559.84   36.10
  -2   1   4  511.95   35.80
  -2   1   4  538.85   36.00
  -2   1   4  517.75   37.40
  -1  -1   4  288.07   22.10
  -1  -1   4  314.37   21.40
   1  -1  -4  321.07   21.70
  -1  -1   4  320.67   21.60
  -1   1   4  292.87   22.20
  -1   1   4  324.97   21.40
  -1   1   4  320.27   21.60
   1   1  -4  314.67   21.70
   0  -1   4   24.80    2.70
   0  -1  -4   31.60    3.20
   0  -1   4   26.70    2.80
   0  -1  -4   29.30    3.00
   0   1  -4   30.80    3.40
   0   1  -4   33.70    3.30
   0   1   4   30.50    2.80
   0   1   4   27.00    2.80
  -1  -1  -4   28.00    2.80
   1  -1   4   26.30    2.70
  -1  -1  -4   27.40    4.10
   1   1   4   30.20    2.80
  -1   1  -4   21.90    3.00
  -1   1  -4   25.30    3.90
  -2  -1  -4  167.08   11.50
  -2  -1  -4  163.68   12.90
   2  -1   4  142.59   11.00
  -2   1  -4  152.18   12.80
   2   1   4  146.29   11.10
  -2   1  -4  150.48   11.40
   3  -1   4   83.89    7.30
  -3  -1  -4  100.49    9.70
   3   1   4   86.49    7.40
  -3   1  -4   91.89    9.50
  -3   1  -4  120.29    9.10
   4  -1   4   34.40    4.30
  -4  -1  -4   36.30    6.90
   4   1   4   33.30    4.30
  -4   1  -4   38.60    6.80
  -4  -2   4   10.50    2.30
   4  -2  -4   10.20    2.50
  -4  -2   4   16.20    3.50
  -4   2   4    9.80    2.60
  -4   2   4    6.20    1.90
   4   2  -4   11.50    3.60
  -4   2   4    7.20    3.50
  -3  -2   4  150.88   11.10
   3  -2  -4  140.89   11.20
  -3  -2   4  154.78   11.40
  -3   2   4  164.08   11.20
   3   2  -4  145.39   11.20
  -3   2   4  136.79   13.00
  -3   2   4  135.79   11.20
  -2  -2   4  424.66   30.90
  -2  -2   4  435.86   29.40
  -2  -2   4  419.16   29.40
   2  -2  -4  424.76   29.60
  -2   2   4  411.16   30.90
   2   2  -4  424.96   29.60
  -2   2   4  455.75   29.40
  -2   2   4  449.16   29.50
  -1  -2   4  317.57   23.40
   1  -2  -4  342.47   23.00
  -1  -2   4  330.07   22.60
  -1  -2   4  326.27   22.80
  -1   2   4  347.27   22.90
   1   2  -4  326.27   22.90
  -1   2   4  343.57   22.60
  -1   2   4  315.77   23.50
   0  -2  -4   50.39    4.40
   0  -2  -4   47.20    4.50
   0  -2   4   49.60    4.20
   0   2  -4   44.90    4.30
   0   2   4   51.69    4.90
   0   2   4   51.99    4.40
   0   2   4   57.79    4.30
   0   2  -4   49.20    4.60
   1  -2   4   12.90    2.00
  -1  -2  -4   13.80    2.80
  -1  -2  -4   13.90    2.10
  -1   2  -4   12.20    2.10
   1   2   4   16.40    2.20
  -1   2  -4   17.00    3.10
   2  -2   4   19.40    2.50
  -2  -2  -4   21.60    2.90
  -2  -2  -4   17.90    4.00
  -2   2  -4   20.50    4.10
   2   2   4   19.10    2.60
  -2   2  -4   19.00    2.80
   3  -2   4   56.09    5.10
  -3  -2  -4   61.69    8.20
   3   2   4   61.99    5.40
  -3   2  -4   56.89    8.10
  -3   2  -4   62.29    5.90
  -4  -2  -4   27.80    6.00
   4  -2   4   27.60    3.80
  -4   2  -4   36.10    6.80
   4   2   4   36.40    4.30
  -4  -3   4   -0.80    1.10
  -4  -3   4    0.90    1.70
   4  -3  -4    0.40    1.80
  -4   3   4   -0.60    2.00
  -4   3   4    1.80    1.30
   4   3  -4    0.70    2.00
  -3  -3   4   22.20    3.30
   3  -3  -4   24.70    3.40
  -3  -3   4   23.50    3.20
  -3   3   4   22.10    4.60
  -3   3   4   20.00    3.20
  -3   3   4   20.90    3.00
   3   3  -4   14.40    3.50
   3   3  -4   23.40    3.30
  -2  -3   4  421.26   28.40
   2  -3  -4  417.76   28.60
  -2  -3   4  417.96   28.40
   2   3  -4  418.16   28.50
  -2   3   4  418.96   28.30
  -2   3   4  404.86   29.90
  -2   3   4  404.56   28.40
   1  -3  -4  709.13   45.50
  -1  -3   4  658.83   45.20
  -1  -3   4  667.73   45.00
   1   3  -4  688.23   45.30
  -1   3   4  683.33   45.00
  -1   3   4  660.93   45.20
  -1   3   4  654.73   46.00
   0  -3  -4    5.40    1.60
   0  -3   4    6.70    1.30
   0  -3  -4    5.50    1.40
   0   3  -4    5.60    1.40
   0   3   4    4.40    1.30
   0   3   4    3.70    1.30
   0   3  -4    6.00    1.50
   0   3  -4    6.40    1.20
   0   3   4    6.70    1.30
  -1  -3  -4    0.80    0.70
   1  -3   4    1.00    0.70
  -1  -3  -4    1.40    1.40
  -1   3  -4    2.20    1.00
  -1   3  -4    1.10    1.30
   1   3   4    1.90    0.80
  -2  -3  -4   63.79    6.80
   2  -3   4   66.39    5.30
  -2  -3  -4   65.89    5.50
  -2   3  -4   67.49    7.00
  -2   3  -4   59.29    5.50
   2   3   4   62.09    5.30
   3  -3   4   19.70    2.90
  -3  -3  -4   23.80    5.00
  -3   3  -4   25.90    5.20
   3   3   4   25.70    3.30
  -3   3  -4   30.30    4.10
  -4  -3  -4    2.30    2.70
   4  -3   4   -0.20    1.30
   4   3   4   -0.50    1.20
  -4   3  -4    1.20    2.60
  -4  -4   4    6.40    1.90
   4  -4  -4    4.70    2.10
  -4  -4   4    2.50    1.90
   4   4  -4    7.60    2.90
  -4   4   4    5.00    1.70
  -4   4   4    4.20    2.90
  -3  -4   4 1753.42  110.79
   3  -4  -4 1653.83  110.99
  -3  -4   4 1783.12  111.19
  -3   4   4 1621.14  110.89
   3   4  -4 1527.05  111.99
   3   4  -4 1716.13  110.89
  -3   4   4 1644.44  113.09
  -3   4   4 1700.03  110.69
  -2  -4   4  680.93   43.10
   2  -4  -4  646.64   43.30
  -2  -4   4  640.34   43.10
   2   4  -4  653.73   43.20
  -2   4   4  660.53   43.10
   2   4  -4  570.94   43.70
  -2   4   4  652.13   42.90
  -2   4   4  611.44   44.50
  -1  -4   4   25.60    2.80
  -1  -4   4   18.50    2.70
   1  -4  -4   24.00    3.10
  -1   4   4   23.20    3.60
  -1   4   4   25.40    2.40
   1   4  -4   18.20    2.90
   1   4  -4   23.70    3.00
  -1   4   4   24.80    3.10
   0  -4  -4  221.68   15.40
   0  -4   4  206.58   15.10
   0  -4   4  221.18   15.10
   0  -4  -4  212.98   15.50
   0   4  -4  204.68   14.80
   0   4   4  203.78   15.30
   0   4   4  246.68   15.20
   0   4   4  235.28   15.40
   0   4  -4  203.88   15.30
  -1  -4  -4 1180.58   78.89
  -1  -4  -4 1144.29   79.79
   1  -4   4 1225.48   78.69
   1   4   4 1169.28   78.79
  -1   4  -4 1304.37   80.09
  -1   4  -4 1134.69   78.99
  -2  -4  -4   13.40    2.20
  -2  -4  -4   14.80    3.50
   2  -4   4    8.50    1.70
  -2   4  -4   11.00    3.20
   2   4   4   12.80    2.10
  -2   4  -4   10.80    2.20
   3  -4   4   57.89    4.90
  -3  -4  -4   49.99    7.60
  -3   4  -4   61.09    7.90
   3   4   4   50.89    4.90
  -3   4  -4   54.89    5.50
   4  -4   4    6.70    2.00
  -4  -4  -4   13.70    4.50
  -4   4  -4   15.00    4.50
   4   4   4   11.90    2.60
  -4  -5   4  168.88   12.60
  -4  -5   4  187.18   13.80
   4  -5  -4  149.79   12.80
   4   5  -4  154.48   14.20
  -4   5   4  170.48   15.50
  -4   5   4  168.18   12.50
  -3  -5   4    2.60    1.40
   3  -5  -4    8.80    2.10
  -3  -5   4    3.00    1.40
  -3   5   4    4.00    1.50
   3   5  -4    3.20    1.60
   3   5  -4    7.50    2.70
  -3   5   4    4.80    1.30
  -3   5   4    6.90    2.70
  -2  -5   4  993.40   64.79
  -2  -5   4 1009.80   64.89
   2  -5  -4  966.60   64.99
  -2   5   4  936.41   66.29
   2   5  -4 1053.79   64.99
  -2   5   4  951.60   64.59
  -2   5   4  991.20   64.79
   2   5  -4  883.91   65.49
  -1  -5   4    1.50    0.80
  -1  -5   4    0.10    0.80
   1  -5  -4    0.70    0.80
  -1   5   4    0.50    0.80
  -1   5   4    1.30    1.10
   1   5  -4    2.20    1.10
  -1   5   4    1.60    0.70
   1   5  -4    2.20    1.00
   0  -5  -4  149.39   12.00
   0  -5   4  164.98   11.70
   0  -5   4  170.28   11.70
   0  -5  -4  171.98   12.00
   0   5   4  175.98   11.70
   0   5  -4  159.98   11.50
   0   5  -4  161.18   11.90
   0   5   4  162.28   11.90
   0   5   4  155.58   11.90
   1  -5   4  153.98   11.10
  -1  -5  -4  154.68   11.30
  -1  -5  -4  145.99   12.10
   1   5   4  154.48   11.20
  -1   5  -4  154.08   11.50
  -1   5  -4  170.18   12.50
  -2  -5  -4  260.87   20.90
   2  -5   4  274.87   19.30
  -2  -5  -4  289.67   19.60
   2   5   4  280.27   19.50
  -2   5  -4  273.77   19.70
  -2   5  -4  291.77   21.30
   3  -5   4   53.09    5.20
  -3  -5  -4   72.99    9.00
  -3   5  -4   68.29    8.60
  -3   5  -4   65.79    6.20
   3   5   4   66.19    5.60
   4  -6  -4   66.69    6.90
  -4  -6   4   80.59    7.60
  -4  -6   4   73.69    6.50
   4   6  -4   68.49    9.00
  -4   6   4   81.69    6.50
  -4   6   4   63.09    9.70
  -3  -6   4  130.69   10.60
   3  -6  -4  134.29   10.70
  -3  -6   4  148.19   10.50
   3   6  -4  146.19   10.60
   3   6  -4  114.69   11.30
  -3   6   4  139.49   10.50
  -3   6   4  137.19   10.20
  -3   6   4  128.29   12.30
  -2  -6   4   90.59    6.90
  -2  -6   4   91.49    6.90
   2  -6  -4   76.09    6.90
  -2   6   4   73.69    7.90
  -2   6   4   81.49    6.70
   2   6  -4   94.79    7.10
   2   6  -4   74.79    7.40
  -2   6   4   86.89    6.60
   1  -6  -4  139.29   10.00
  -1  -6   4  131.19    9.70
  -1  -6   4  132.59    9.60
  -1   6   4  132.89    9.80
   1   6  -4  133.59    9.90
  -1   6   4  135.89    9.50
  -1   6   4  123.49   10.40
   1   6  -4  117.89    9.80
   0  -6   4  363.66   24.20
   0  -6  -4  343.77   24.60
   0  -6   4  346.67   24.20
   0  -6  -4  358.16   24.40
   0   6   4  330.27   24.50
   0   6   4  321.27   24.80
   0   6  -4  381.26   24.50
   0   6   4  393.16   24.30
  -1  -6  -4    6.50    1.50
   1  -6   4    7.90    1.50
  -1  -6  -4    6.20    2.20
  -1   6  -4    9.80    1.80
   1   6   4    8.70    1.60
  -2  -6  -4  205.38   15.90
   2  -6   4  199.78   14.10
  -2   6  -4  191.58   14.50
   2   6   4  183.18   14.10
  -2   6  -4  226.28   16.20
  -3  -6  -4   36.40    6.30
   3  -6   4   31.40    3.80
   3   6   4   42.10    4.60
  -3   6  -4   45.80    5.50
  -3   6  -4   34.20    6.10
  -4  -7   4   83.49    7.70
   4  -7  -4   70.19    7.10
  -4  -7   4   70.89    6.50
  -4   7   4   86.69   11.00
   4   7  -4   71.89    8.30
  -4   7   4   73.49    6.50
   3  -7  -4   25.90    3.90
  -3  -7   4   26.40    3.80
  -3  -7   4   29.70    3.70
   3   7  -4   26.10    4.80
  -3   7   4   24.50    5.20
  -3   7   4   25.80    3.30
   2  -7  -4   42.10    4.30
  -2  -7   4   39.80    4.10
  -2  -7   4   44.30    4.10
   2   7  -4   38.70    5.20
  -2   7   4   39.30    4.00
   2   7  -4   43.20    4.20
  -2   7   4   47.10    3.90
  -2   7   4   47.60    6.20
  -1  -7   4  122.89    9.00
   1  -7  -4  124.39    9.20
  -1  -7   4  121.79    8.80
  -1   7   4  116.39    9.00
   1   7  -4  114.19    9.10
  -1   7   4  115.79    8.60
   1   7  -4  117.89    9.00
  -1   7   4  113.29    9.70
   0  -7  -4  245.18   18.60
   0  -7  -4  266.17   18.50
   0  -7   4  263.57   18.20
   0  -7   4  279.67   18.30
   0   7   4  276.37   18.20
   0   7  -4  262.37   18.30
   0   7   4  238.08   18.50
   0   7  -4  275.67   18.60
   1  -7   4  214.18   16.60
  -1  -7  -4  220.68   17.20
  -1  -7  -4  239.88   16.30
   1  -7   4  235.28   16.20
  -1   7  -4  237.98   16.60
   1   7   4  241.28   16.30
  -2  -7  -4  825.82   59.49
   2  -7   4  918.31   57.79
   2   7   4  858.91   57.99
  -2   7  -4  864.71   58.29
   3  -7   4   28.20    3.40
  -3  -7  -4   28.90    5.80
   3   7   4   29.30    3.90
  -3   7  -4   38.00    4.80
  -4  -8   4    0.90    1.70
  -4  -8   4   -0.50    1.10
   4  -8  -4    0.80    1.60
  -4   8   4   -1.10    1.70
  -4   8   4    1.00    1.10
   4   8  -4   -0.90    2.00
   3  -8  -4    2.00    1.50
  -3  -8   4   -0.60    0.90
  -3  -8   4    0.40    1.00
  -3   8   4    1.00    1.00
   3   8  -4    0.70    1.70
  -3   8   4    1.30    2.00
   2  -8  -4  223.78   15.20
  -2  -8   4  192.48   14.70
  -2  -8   4  214.88   14.90
   2   8  -4  195.28   15.50
   2   8  -4  226.18   15.00
  -2   8   4  198.88   14.70
  -2   8   4  192.28   14.40
  -2   8   4  203.28   16.30
   1  -8  -4  202.98   14.70
  -1  -8   4  212.98   14.50
  -1  -8   4  201.38   14.30
  -1   8   4  185.38   15.20
  -1   8   4  202.38   14.20
   1   8  -4  199.88   14.60
  -1   8   4  197.98   14.50
   1   8  -4  216.28   14.60
   0  -8   4   56.29    4.60
   0  -8   4   52.79    4.50
   0  -8  -4   49.99    4.90
   0  -8  -4   56.79    4.80
   0   8  -4   56.29    4.70
   0   8   4   48.20    4.80
   0   8   4   58.69    4.60
   0   8  -4   56.29    4.90
   1  -8   4  332.67   21.90
   1  -8   4  321.47   22.50
  -1  -8  -4  337.87   22.10
  -1  -8  -4  289.47   22.80
  -1   8  -4  308.77   22.20
   1   8   4  317.17   21.90
   2  -8   4   26.40    3.90
  -2  -8  -4   30.60    4.90
   2  -8   4   21.90    2.80
   2   8   4   23.70    3.10
  -2   8  -4   22.10    3.30
   3  -8   4  127.39   10.30
  -3  -8  -4  149.88   13.10
   3  -8   4  130.09   11.50
  -3   8  -4  150.68   11.60
   3   8   4  145.59   10.80
   4  -9  -4    2.70    2.10
  -4  -9   4   -0.30    1.50
  -4  -9   4    0.00    1.20
   4   9  -4    0.70    2.40
  -4   9   4    0.10    2.00
  -4   9   4    1.50    1.30
   3  -9  -4   52.99    5.60
  -3  -9   4   60.39    5.30
  -3  -9   4   54.19    5.60
  -3   9   4   57.79    5.20
   3   9  -4   58.39    6.40
  -3   9   4   57.09    8.20
  -2  -9   4  135.99    9.70
  -2  -9   4  131.09    9.60
   2  -9  -4  122.39    9.80
   2   9  -4  112.09   10.10
  -2   9   4  120.49    9.20
  -2   9   4  120.59    9.50
   2   9  -4  135.79    9.70
  -2   9   4  124.19   11.00
  -1  -9   4   38.20    3.70
  -1  -9   4   44.60    3.90
   1  -9  -4   36.70    3.90
  -1   9   4   38.70    5.10
  -1   9   4   43.50    3.60
   1   9  -4   38.80    3.90
  -1   9   4   39.70    4.00
   1   9  -4   39.70    4.00
   0  -9  -4  154.58   11.00
   0  -9   4  152.98   10.80
   0  -9   4  153.58   10.70
   0  -9  -4  131.99   11.00
   0   9   4  150.68   10.60
   0   9  -4  146.99   11.00
   0   9  -4  146.19   10.80
   0   9   4  140.09   11.20
   1  -9   4    0.70    0.90
  -1  -9  -4    1.80    0.90
   1  -9   4    1.10    1.10
  -1  -9  -4    0.90    1.30
  -1   9  -4    1.30    1.00
   1   9   4    1.20    0.80
   2  -9   4   47.40    4.10
   2  -9   4   35.20    5.00
  -2  -9  -4   47.60    6.50
   2   9   4   46.70    4.20
  -2   9  -4   44.50    4.50
   3  -9   4   82.09    7.90
  -3  -9  -4   80.59   10.20
   3   9   4   80.79    7.00
  -3   9  -4   85.79    7.70
  -4 -10   4    0.70    1.50
  -4 -10   4    2.30    1.60
   4 -10  -4    2.60    2.00
  -4  10   4    4.90    1.70
   4  10  -4    3.20    2.70
  -4  10   4    3.50    2.70
  -3 -10   4   86.39    7.20
  -3 -10   4   82.89    7.60
   3 -10  -4   86.09    7.70
  -3  10   4   90.79    7.20
  -3  10   4   74.19    8.80
   3  10  -4   93.39    8.50
  -2 -10   4    0.90    0.90
   2 -10  -4   -0.50    1.00
  -2 -10   4    1.20    1.00
   2  10  -4    0.80    1.40
   2  10  -4   -0.30    1.10
  -2  10   4   -1.20    1.10
  -2  10   4    0.00    0.90
  -1 -10   4  230.08   15.80
   1 -10  -4  227.78   16.10
  -1 -10   4  236.28   15.90
   1  10  -4  212.58   16.00
  -1  10   4  203.98   16.70
   1  10  -4  242.38   16.10
  -1  10   4  227.18   16.00
  -1  10   4  209.88   15.50
   0 -10   4   36.40    3.40
   0 -10  -4   38.10    3.70
   0 -10  -4   31.20    4.10
   0 -10   4   36.30    3.30
   0  10  -4   29.20    3.60
   0  10  -4   35.90    3.60
   0  10   4   35.30    3.20
   0  10   4   30.40    3.60
  -1 -10  -4  523.35   37.60
   1 -10   4  571.34   36.40
  -1 -10  -4  543.45   36.50
   1 -10   4  534.75   37.00
  -1  10  -4  543.55   36.80
   1  10   4  523.75   36.40
   2 -10   4    6.00    2.20
  -2 -10  -4    5.00    2.60
   2 -10   4    6.90    1.50
   2  10   4    7.90    1.80
  -2  10  -4    6.70    1.90
   3 -10   4  138.29   12.00
  -3 -10  -4  145.59   13.30
  -3  10  -4  148.69   11.90
   3  10   4  144.59   11.20
  -4 -11   4    4.50    2.30
   4 -11  -4    4.10    2.40
  -4 -11   4    8.60    2.30
  -4  11   4    8.90    2.20
   4  11  -4    3.80    2.80
  -4  11   4    8.30    3.50
  -3 -11   4    9.70    2.30
  -3 -11   4   11.90    2.60
  -3  11   4   11.80    3.80
   3  11  -4   15.30    3.50
  -3  11   4   11.20    2.30
  -2 -11   4   25.30    3.20
   2 -11  -4   19.40    3.20
  -2 -11   4   18.60    2.90
   2  11  -4   20.10    2.90
   2  11  -4   20.30    3.50
  -2  11   4   15.10    3.70
  -2  11   4   18.20    2.80
  -1 -11   4   -1.00    0.80
   1 -11  -4   -1.50    0.70
  -1 -11   4   -0.10    0.60
  -1  11   4    0.00    1.20
  -1  11   4    0.50    1.00
  -1  11   4    1.10    0.70
   1  11  -4   -0.50    0.90
   1  11  -4   -0.60    0.90
   0 -11  -4  360.76   25.00
   0 -11   4  375.56   24.90
   0 -11  -4  333.07   25.30
   0 -11   4  391.46   24.80
   0  11   4  358.56   24.60
   0  11  -4  364.26   24.90
   0  11  -4  372.56   25.20
   0  11   4  338.27   25.40
   1 -11   4   19.10    2.90
  -1 -11  -4   14.90    2.30
   1 -11   4   17.20    2.30
  -1 -11  -4   12.70    3.00
   1  11   4   14.80    2.20
  -1  11  -4   11.30    2.10
   1  11   4   13.40    2.50
  -1  11  -4   14.60    2.50
   2 -11   4    1.30    1.10
  -2 -11  -4    2.60    2.20
   2 -11   4    2.20    1.40
   2  11   4    2.50    1.20
  -2  11  -4    0.70    1.10
   3 -11   4  112.89    9.50
  -3 -11  -4  100.49   10.40
   3  11   4   91.29    8.20
  -3  11  -4  103.39    9.10
   4 -12  -4   59.99    7.20
  -4 -12   4   45.30    5.70
  -4 -12   4   53.19    7.10
  -4  12   4   50.19    8.60
  -4  12   4   59.29    5.60
   4  12  -4   65.59    8.40
   3 -12  -4    7.40    2.40
  -3 -12   4    3.50    1.80
  -3 -12   4    6.80    2.00
  -3  12   4    3.80    2.70
  -3  12   4    6.80    1.80
   3  12  -4    4.20    2.30
  -2 -12   4   80.59    6.60
   2 -12  -4   74.69    6.90
  -2 -12   4   72.79    6.50
   2  12  -4   77.49    7.20
  -2  12   4   76.99    6.60
  -2  12   4   72.49    7.80
   2  12  -4   87.29    6.70
  -1 -12   4  409.46   26.90
   1 -12  -4  389.16   27.10
  -1 -12   4  394.46   26.70
  -1  12   4  373.66   26.90
   1  12  -4  414.06   27.00
  -1  12   4  348.47   26.20
   1  12  -4  430.56   27.00
  -1  12   4  357.06   27.70
   0 -12  -4   81.59    7.30
   0 -12   4   98.79    7.30
   0 -12   4   96.99    7.20
   0 -12  -4   90.29    7.80
   0  12   4   86.99    7.00
   0  12  -4   93.29    7.40
   0  12  -4   99.29    7.60
   0  12   4   90.29    7.90
  -1 -12  -4   73.59    7.70
   1 -12   4   92.99    6.70
   1 -12   4   87.19    7.30
   1  12   4   76.29    6.60
  -1  12  -4   97.79    7.20
  -1  12  -4   77.59    7.00
   1  12   4   91.49    7.20
   2 -12   4  130.69   10.40
  -2 -12  -4  129.29   11.30
   2  12   4  114.09    9.40
  -2  12  -4  123.69   10.00
   3 -12   4   16.20    3.40
  -3 -12  -4   14.60    4.20
   3  12   4   14.20    2.70
  -3  12  -4   12.40    3.10
   3 -13  -4    4.80    2.10
  -3 -13   4    4.00    2.00
  -3 -13   4    2.40    1.40
  -3  13   4    0.10    2.00
   3  13  -4   -0.70    1.70
  -3  13   4    2.30    1.30
   2 -13  -4  192.58   14.20
  -2 -13   4  183.58   13.80
  -2 -13   4  193.68   13.70
  -2  13   4  178.28   15.30
   2  13  -4  190.08   14.40
  -2  13   4  175.48   13.70
  -1 -13   4    0.00    0.80
   1 -13  -4    0.20    1.10
  -1  13   4   -0.10    1.20
   1  13  -4    1.70    1.20
  -1  13   4    1.10    1.20
   1  13  -4    0.70    1.00
   0 -13  -4 1126.99   73.29
   0 -13  -4 1021.30   73.59
   0 -13   4 1169.28   72.99
   0 -13   4 1148.59   73.09
   0  13   4 1088.19   73.89
   0  13   4  983.20   72.69
   0  13  -4 1111.79   73.39
   0  13  -4 1154.88   73.19
   1 -13   4   44.90    4.50
  -1 -13  -4   42.60    5.80
   1 -13   4   47.00    3.90
  -1  13  -4   40.40    4.20
   1  13   4   43.00    4.40
   1  13   4   35.50    3.80
  -1  13  -4   44.10    4.70
   2 -13   4  251.87   18.50
  -2 -13  -4  254.57   19.60
  -2  13  -4  243.48   18.10
   2  13   4  237.68   17.60
  -2  13  -4  251.27   17.70
   3 -13   4    8.30    2.90
  -3 -13  -4    4.90    3.20
  -3  13  -4    6.80    2.40
   3  13   4    6.70    2.00
   3 -14  -4    3.90    2.00
  -3 -14   4    1.60    1.80
  -3 -14   4    2.90    1.50
   3  14  -4    3.60    2.50
  -3  14   4    2.40    2.60
  -3  14   4    1.10    1.20
  -2 -14   4   97.59    7.70
  -2 -14   4   83.59    7.40
   2 -14  -4   95.89    8.10
  -2  14   4   98.49    7.70
   2  14  -4   95.39    8.30
  -2  14   4   76.09    8.70
  -1 -14   4 1030.10   69.19
   1 -14  -4 1024.00   69.59
  -1  14   4  939.71   70.49
  -1  14   4 1001.10   69.49
   1  14  -4 1124.49   69.59
   1  14  -4 1113.69   69.49
   0 -14  -4  679.73   51.59
   0 -14   4  819.82   51.09
   0 -14   4  794.32   50.89
   0 -14  -4  767.32   51.19
   0  14   4  669.73   50.59
   0  14  -4  796.52   51.09
   0  14   4  736.23   51.89
   0  14  -4  837.02   51.49
   1 -14   4   55.59    4.30
  -1 -14  -4   45.90    6.10
   1 -14   4   50.89    4.90
   1  14   4   41.10    4.60
   1  14   4   38.60    4.00
  -1  14  -4   42.00    4.50
  -1  14  -4   46.20    4.50
   2 -14   4   12.00    2.90
  -2 -14  -4   14.00    3.90
  -2  14  -4   12.80    2.50
  -2  14  -4   13.40    2.80
   2  14   4   11.90    2.20
  -3 -14  -4   36.80    6.80
   3 -14   4   34.10    5.30
  -3  14  -4   33.30    5.20
   3  14   4   34.40    4.50
  -3  14  -4   27.70    3.80
   3 -15  -4   65.29    6.60
  -3 -15   4   63.09    5.90
  -3 -15   4   69.39    6.60
  -3  15   4   63.89    5.90
  -3  15   4   50.69    8.40
   3  15  -4   59.39    6.90
   2 -15  -4   24.70    4.00
  -2 -15   4   25.40    3.60
  -2 -15   4   24.00    3.40
  -2  15   4   19.70    4.50
  -2  15   4   32.30    4.00
   2  15  -4   29.30    4.30
   1 -15  -4    3.60    1.60
  -1 -15   4    4.00    1.40
  -1  15   4    5.50    2.20
   1  15  -4    4.90    1.60
  -1  15   4    3.50    1.60
   1  15  -4    4.90    1.60
   0 -15  -4    6.40    1.80
   0 -15  -4    7.00    2.30
   0 -15   4    5.70    1.40
   0 -15   4    5.40    1.50
   0  15   4    5.70    2.10
   0  15  -4    3.70    1.50
   0  15   4    5.50    1.30
  -1 -15  -4  369.66   28.90
   1 -15   4  444.06   28.40
  -1  15  -4  456.65   28.00
   1  15   4  379.76   28.10
   1  15   4  360.06   27.30
  -1  15  -4  413.16   28.10
  -2 -15  -4   58.39    8.10
   2 -15   4   66.09    6.50
  -2  15  -4   65.19    5.80
  -2  15  -4   57.79    6.00
   2  15   4   64.19    5.60
   3 -15   4   16.00    3.70
  -3 -15  -4   14.20    4.40
   3  15   4   15.60    3.00
  -3  15  -4   17.20    3.70
  -3  15  -4   17.50    3.00
  -3 -16   4  283.57   21.60
   3 -16  -4  277.87   21.80
  -3 -16   4  295.67   21.10
  -3  16   4  300.17   21.20
  -3  16   4  264.07   23.40
   3  16  -4  335.47   22.70
   2 -16  -4   75.99    7.40
  -2 -16   4   92.29    7.30
  -2 -16   4   80.09    7.10
  -2  16   4   77.59    7.20
  -2  16   4   77.49    8.60
   2  16  -4   93.19    7.90
   1 -16  -4   68.69    6.60
  -1 -16   4   77.39    6.30
   1  16  -4   77.99    6.50
  -1  16   4   66.69    6.50
   1  16  -4   82.69    6.60
  -1  16   4   69.19    7.50
   0 -16  -4  210.38   15.40
   0 -16  -4  196.48   16.00
   0 -16   4  216.78   15.10
   0 -16   4  228.08   15.40
   0  16  -4  229.78   15.70
   0  16   4  187.28   16.00
   0  16   4  205.08   16.10
  -1 -16  -4  110.19   10.00
   1 -16   4  127.29    9.40
   1  16   4  100.49    9.00
  -1  16  -4  115.79    8.90
  -1  16  -4  113.59    9.10
   1  16   4   98.59    8.30
   2 -16   4    1.40    1.80
  -2 -16  -4    1.70    2.20
  -2  16  -4    0.60    1.20
   2  16   4    1.20    1.00
  -2  16  -4    0.30    1.30
  -3 -16  -4  237.68   19.40
   3 -16   4  249.68   17.90
   3  16   4  194.08   16.40
  -3  16  -4  207.98   17.40
  -3  16  -4  237.78   16.50
   3 -17  -4   59.49    7.30
  -3 -17   4   69.29    7.40
  -3 -17   4   55.39    6.30
   3  17  -4   62.89    6.90
  -3  17   4   51.29    8.80
  -3  17   4   59.39    6.60
  -2 -17   4   55.99    5.50
   2 -17  -4   56.29    6.00
  -2 -17   4   57.39    5.70
   2  17  -4   67.79    6.30
  -2  17   4   63.19    8.40
  -2  17   4   50.49    6.10
   1 -17  -4   28.10    4.00
  -1 -17   4   24.70    3.40
   1  17  -4   29.60    3.80
  -1  17   4   20.40    4.40
  -1  17   4   26.40    4.00
   1  17  -4   30.70    3.90
   0 -17   4    2.30    1.30
   0 -17   4    1.50    1.10
   0 -17  -4    3.20    1.90
   0 -17  -4    1.10    1.30
   0  17  -4    2.60    1.40
   0  17   4    1.20    1.40
  -1 -17  -4  170.98   14.40
   1 -17   4  180.18   13.50
  -1  17  -4  176.88   13.40
  -1  17  -4  192.18   13.20
   1  17   4  166.78   13.50
   1  17   4  162.78   12.50
   2 -17   4   56.09    6.10
  -2 -17  -4   59.99    8.40
  -2  17  -4   59.39    6.00
  -2  17  -4   57.19    5.50
   2  17   4   56.69    5.20
   3 -17   4  102.79    9.50
  -3 -17  -4   87.49   11.80
  -3  17  -4   95.69    8.20
  -3  17  -4   93.49    9.10
   3  17   4   95.09    8.30
   3 -18  -4    2.70    2.50
  -3 -18   4    5.20    2.00
  -3 -18   4    7.70    2.50
  -3  18   4    5.10    2.00
  -3  18   4    3.20    3.10
   3  18  -4    9.30    3.10
  -2 -18   4   52.59    5.20
   2 -18  -4   53.29    6.30
   2  18  -4   58.19    5.80
  -2  18   4   41.80    5.70
  -2  18   4   46.80    7.40
  -1 -18   4  419.96   28.50
   1 -18  -4  366.86   28.70
   1  18  -4  427.76   28.70
   1  18  -4  445.96   28.80
  -1  18   4  384.76   30.10
  -1  18   4  415.56   29.00
   0 -18  -4  154.08   12.90
   0 -18   4  172.58   12.10
   0  18   4  139.89   12.70
   0  18  -4  164.18   12.30
  -1 -18  -4    6.50    2.70
   1 -18   4    9.60    2.40
   1  18   4    9.90    1.90
  -1  18  -4    6.00    1.90
  -1  18  -4    9.00    2.30
   1  18   4    9.50    2.60
   2 -18   4    5.70    2.30
  -2 -18  -4    3.80    3.20
  -2  18  -4    4.20    1.80
  -2  18  -4    4.80    2.10
   2  18   4    3.90    1.40
  -3 -19   4    2.40    2.00
  -3 -19   4   -0.70    1.40
   3 -19  -4   -0.40    1.80
   3  19  -4    1.30    2.00
  -3  19   4    1.10    1.60
  -3  19   4    0.30    2.20
  -2 -19   4  248.78   18.00
   2 -19  -4  222.48   18.10
   2  19  -4  279.17   18.60
  -2  19   4  225.68   18.00
  -2  19   4  227.58   19.80
   1 -19  -4    1.10    1.30
  -1 -19   4    0.40    1.10
   1  19  -4   -0.30    1.00
  -1  19   4    0.30    1.70
  -1  19   4   -1.10    1.10
   0 -19  -4  444.16   32.60
   0 -19   4  493.05   31.70
   0  19  -4  494.25   32.00
   0  19   4  395.26   32.40
   1 -19   4   28.80    4.20
  -1 -19  -4   23.30    4.80
  -1  19  -4   26.90    4.10
  -1  19  -4   27.40    3.90
   1  19   4   27.70    4.50
  -2 -19  -4   53.29    8.10
   2 -19   4   54.39    6.60
   2  19   4   49.90    4.90
  -2  19  -4   51.89    5.70
  -2  19  -4   49.40    6.40
   3 -20  -4   20.10    4.40
  -3 -20   4   22.10    4.10
   3  20  -4   27.50    4.90
  -3  20   4   15.70    5.00
  -3  20   4   23.50    4.10
   2 -20  -4    1.80    1.90
  -2 -20   4    6.30    2.00
  -2  20   4    8.10    3.40
  -2  20   4    5.80    2.20
   2  20  -4    6.60    2.60
  -1 -20   4   34.00    4.30
   1 -20  -4   33.00    4.70
   1  20  -4   44.30    4.40
  -1  20   4   30.30    5.70
   0 -20  -4  263.87   20.40
   0 -20   4  295.57   19.50
   0  20  -4  288.77   19.70
   0  20   4  222.18   20.00
  -1 -20  -4    2.90    2.40
   1 -20   4    2.70    1.70
   1  20   4    2.90    1.80
  -1  20  -4    2.60    1.80
  -1  20  -4    2.70    1.60
  -2 -20  -4    2.30    2.80
   2 -20   4    2.80    2.20
  -2  20  -4    3.90    1.80
   2  20   4    3.90    1.50
  -2  20  -4    3.10    1.90
  -2 -21   4   64.69    7.00
   2 -21  -4   78.59    7.60
   2  21  -4   93.09    7.90
  -2  21   4   78.99   10.60
  -2  21   4   65.09    7.80
   1 -21  -4   76.99    7.60
   1  21  -4  105.09    8.00
  -1  21   4   65.89    9.50
   0 -21  -4  163.98   13.40
   0  21   4  140.79   13.00
   0  21  -4  165.08   12.40
  -1 -21  -4   30.80    5.70
   1 -21   4   40.70    5.10
   1  21   4   31.80    5.10
  -1  21  -4   36.90    4.80
  -1  21  -4   40.20    5.30
  -2 -21  -4   59.69    9.10
   2 -21   4   61.69    7.50
   2  21   4   61.09    5.80
  -2  21  -4   74.49    6.50
  -2  21  -4   66.19    7.90
   2 -22  -4   10.40    3.00
  -2 -22   4    4.90    2.40
   2  22  -4    9.00    2.80
  -2  22   4    9.20    2.80
  -2  22   4    9.00    3.70
   1 -22  -4  651.23   47.40
   1  22  -4  814.32   47.70
  -1  22   4  596.64   48.70
   0 -22  -4    0.70    2.00
   0 -22   4    3.00    1.50
   0  22   4   -0.40    1.70
   0  22  -4    0.20    1.30
   1 -22   4    1.40    1.70
  -1 -22  -4   -1.30    2.00
  -1  22  -4    0.30    1.50
  -1  22  -4    3.90    2.00
   1  22   4    0.90    1.60
   2 -22   4    7.40    2.90
  -2 -22  -4    3.80    3.10
  -2  22  -4    6.20    2.20
  -2  22  -4    6.90    2.60
   2 -23  -4    1.00    2.00
  -2 -23   4    2.90    1.80
   2  23  -4    4.30    2.50
  -2  23   4    0.90    2.40
  -2  23   4    2.10    1.90
   1  23  -4  116.29    9.20
  -1  23   4   79.09    9.70
   0 -23   4   24.80    3.80
   0 -23  -4   21.30    4.50
   0  23  -4   22.50    3.80
   0  23   4   22.20    4.80
  -1 -23  -4  143.29   14.40
   1 -23   4  181.28   13.60
  -1  23  -4  223.48   14.30
  -1  23  -4  152.98   13.40
   1  23   4  149.69   13.60
   2 -24  -4   97.59    9.40
   2  24  -4  116.69    9.80
  -2  24   4  100.69   11.30
  -2  24   4   84.99    9.10
  -1  24   4   20.40    4.80
   0 -24  -4   57.49    8.00
   0 -24   4   57.19    5.80
   0  24   4   55.89    7.80
   1 -24   4  184.78   14.00
  -1 -24  -4  161.58   15.10
   1  24   4  156.58   14.00
  -1  24  -4  179.78   14.10
  -1  25   4   33.60    6.30
   0 -25   4  221.38   14.80
   0 -25  -4  154.58   15.20
   0  25   4  173.58   15.40
   1 -25   4    0.90    1.70
  -1 -25  -4    0.10    2.40
   1  25   4   -1.00    1.50
  -1  25  -4    2.40    2.10
  -1  26   4    2.30    2.50
   0 -26  -4    5.10    2.90
   0 -26   4   12.50    2.90
   0  26   4    7.50    3.00
   4   0  -5   -1.40    1.50
  -4   0   5   -1.10    1.30
  -4   0   5   -0.10    1.70
  -3   0   5    0.60    1.10
  -3   0   5    2.90    1.60
   3   0  -5    1.10    1.40
  -3   0   5    2.20    2.10
  -2   0   5   -0.40    1.10
  -2   0   5   -1.60    1.00
  -2   0   5   -0.50    0.70
   2   0  -5    1.60    1.40
  -1   0   5  690.63   45.00
  -1   0   5  646.34   45.70
  -1   0   5  666.53   45.20
   1   0  -5  671.83   45.30
   0   0  -5   -0.50    0.80
   0   0   5   -0.20    0.70
   0   0  -5   -0.10    1.20
   1   0   5  662.63   44.80
  -1   0  -5  686.93   46.20
  -1   0  -5  656.03   45.20
  -2   0  -5   -0.30    0.80
  -2   0  -5   -0.40    1.70
   2   0   5    0.10    0.80
   3   0   5   43.30    4.80
  -3   0  -5   39.80    7.00
   4  -1  -5   11.50    2.80
  -4  -1   5   14.10    3.00
  -4  -1   5   10.40    3.20
  -4   1   5    4.20    2.40
  -4   1   5    6.80    2.40
   4   1  -5    6.10    3.10
   3  -1  -5  126.49   10.00
  -3  -1   5  120.69    9.90
  -3  -1   5  128.79   10.00
   3   1  -5  108.19    9.80
  -3   1   5  133.89   12.20
  -3   1   5  124.99    9.90
  -3   1   5  126.89    9.90
  -2  -1   5   55.59    4.60
  -2  -1   5   49.70    6.50
   2  -1  -5   42.60    5.10
  -2  -1   5   47.70    5.20
  -2   1   5   50.29    4.50
  -2   1   5   42.90    6.20
   2   1  -5   44.50    4.70
  -2   1   5   40.70    4.90
  -1  -1   5  251.47   17.40
   1  -1  -5  239.28   17.50
  -1  -1   5  221.08   17.80
  -1  -1   5  256.77   17.20
   1   1  -5  256.47   17.60
  -1   1   5  215.48   17.80
  -1   1   5  254.97   17.50
  -1   1   5  250.97   17.20
   0  -1  -5  259.07   19.40
   0  -1  -5  271.47   19.40
   0  -1   5  277.07   19.10
   0   1  -5  286.87   19.50
   0   1  -5  263.47   19.30
   0   1   5  273.67   19.00
  -1  -1  -5    2.80    1.30
   1  -1   5    3.80    1.20
  -1  -1  -5    3.30    1.70
  -1   1  -5    5.60    2.10
   1   1   5    5.90    1.40
  -1   1  -5    4.10    1.50
  -2  -1  -5    8.60    3.10
   2  -1   5    6.00    1.60
  -2  -1  -5    9.40    2.20
   2   1   5    3.80    1.40
  -2   1  -5    7.10    2.90
  -2   1  -5    7.50    1.90
  -3  -1  -5   17.80    4.70
   3  -1   5   17.10    2.80
  -3   1  -5   21.50    5.10
   3   1   5   19.80    3.00
  -4  -2   5   82.09    7.10
  -4  -2   5   77.59    7.70
   4  -2  -5   63.99    6.90
  -4   2   5   77.59    7.60
  -4   2   5   73.89   10.90
  -4   2   5   79.99    7.10
   4   2  -5   75.49    9.70
  -3  -2   5    9.80    2.30
   3  -2  -5    7.60    2.20
  -3  -2   5    7.10    2.00
  -3   2   5    7.90    2.20
  -3   2   5   11.30    2.40
  -3   2   5   11.90    3.70
   3   2  -5    5.40    2.20
  -2  -2   5   79.49    6.60
  -2  -2   5   76.69    7.60
  -2  -2   5   74.39    6.20
   2  -2  -5   66.99    6.50
   2   2  -5   70.69    6.50
  -2   2   5   77.29    6.50
  -2   2   5   66.79    7.40
  -2   2   5   76.29    6.20
  -1  -2   5  561.84   36.70
   1  -2  -5  548.45   37.00
  -1  -2   5  521.75   36.80
   1   2  -5  531.45   37.00
  -1   2   5  563.04   36.90
  -1   2   5  555.34   36.60
  -1   2   5  505.95   37.40
   0  -2  -5   45.30    4.90
   0  -2  -5   56.29    5.00
   0  -2   5   50.39    4.50
   0   2   5   47.80    4.50
   0   2  -5   49.20    4.80
   0   2  -5   57.09    5.10
  -1  -2  -5    1.60    1.60
  -1  -2  -5    2.40    1.20
   1  -2   5    4.40    1.30
  -1   2  -5    5.50    1.70
   1   2   5    1.30    0.90
  -1   2  -5    3.90    1.90
  -2  -2  -5   -0.80    1.60
   2  -2   5    1.40    1.10
  -2  -2  -5    3.10    1.40
  -2   2  -5    0.60    1.10
  -2   2  -5    3.40    2.30
   2   2   5    0.10    0.80
   3  -2   5   20.60    3.00
  -3  -2  -5   22.10    5.10
  -3   2  -5   22.30    5.00
   3   2   5   16.30    2.80
  -4  -3   5  109.59    9.10
  -4  -3   5  110.09    9.80
   4  -3  -5   93.69    9.00
   4   3  -5  104.59   10.70
  -4   3   5  119.89    9.30
  -4   3   5  103.39   11.60
  -3  -3   5   10.90    2.60
   3  -3  -5   11.50    2.60
  -3  -3   5   15.40    2.90
   3   3  -5   14.10    2.70
  -3   3   5   14.10    2.80
   3   3  -5   12.70    3.40
  -3   3   5   12.10    2.50
  -3   3   5   14.30    4.00
   2  -3  -5   63.69    5.90
  -2  -3   5   62.49    5.80
  -2  -3   5   61.39    5.50
   2   3  -5   72.59    6.00
  -2   3   5   63.19    5.50
  -2   3   5   56.59    6.60
  -2   3   5   58.69    5.60
  -1  -3   5  569.04   37.60
   1  -3  -5  536.65   37.90
  -1  -3   5  550.24   37.70
  -1   3   5  599.14   37.60
   1   3  -5  606.74   38.10
   1   3  -5  502.15   37.70
  -1   3   5  559.04   37.80
  -1   3   5  525.95   38.40
   0  -3   5 1436.76   92.09
   0  -3  -5 1369.26   92.49
   0  -3  -5 1360.26   92.39
   0   3  -5 1367.86   92.39
   0   3   5 1424.66   92.09
  -1  -3  -5   13.10    2.40
  -1  -3  -5   14.10    3.30
   1  -3   5   14.80    2.30
  -1   3  -5   20.20    3.70
   1   3   5   11.40    2.10
  -1   3  -5   16.30    2.80
  -2  -3  -5   10.60    2.30
   2  -3   5    9.20    1.90
  -2  -3  -5   12.10    3.40
  -2   3  -5   14.20    3.70
   2   3   5    9.80    2.00
  -2   3  -5    7.40    2.00
  -3  -3  -5   36.50    6.50
   3  -3   5   29.60    3.80
  -3   3  -5   35.60    5.00
  -3   3  -5   32.80    6.20
   3   3   5   31.00    4.00
   4  -4  -5    3.60    2.00
  -4  -4   5   -0.60    1.60
  -4  -4   5    2.60    1.60
  -4   4   5    0.40    1.40
   4   4  -5    1.80    2.70
  -4   4   5    0.30    2.30
  -3  -4   5    6.90    1.90
   3  -4  -5    0.30    1.40
  -3  -4   5    1.20    1.40
   3   4  -5   -0.20    1.60
  -3   4   5    0.60    1.00
  -3   4   5   -1.00    1.60
   3   4  -5    2.30    1.80
  -3   4   5    1.70    1.40
  -2  -4   5 1162.58   73.69
  -2  -4   5 1121.29   73.49
   2  -4  -5 1091.39   73.79
  -2   4   5 1106.29   73.39
   2   4  -5 1009.40   74.19
  -2   4   5 1056.69   73.49
  -2   4   5 1091.19   75.19
   2   4  -5 1187.38   73.89
  -1  -4   5  610.94   40.00
   1  -4  -5  609.74   40.40
  -1  -4   5  589.64   40.10
   1   4  -5  527.15   40.10
  -1   4   5  584.14   40.20
  -1   4   5  624.04   40.00
   1   4  -5  637.54   40.50
  -1   4   5  562.64   40.80
   0  -4  -5   42.40    4.20
   0  -4   5   40.00    3.80
   0  -4   5   41.30    3.90
   0  -4  -5   38.10    4.30
   0   4   5   43.90    4.00
   0   4  -5   36.30    4.50
  -1  -4  -5    3.90    1.40
  -1  -4  -5    3.40    2.10
   1  -4   5    3.30    1.20
   1   4   5    5.40    1.40
  -1   4  -5    2.20    1.80
  -1   4  -5    5.90    1.80
  -2  -4  -5  203.38   14.20
   2  -4   5  171.18   13.50
  -2  -4  -5  170.88   15.30
  -2   4  -5  198.78   14.30
  -2   4  -5  219.58   16.10
   2   4   5  179.28   13.70
  -3  -4  -5    2.50    2.50
   3  -4   5    5.10    1.70
   3   4   5    2.30    1.40
  -3   4  -5    4.40    1.90
  -3   4  -5    6.30    3.40
  -4  -5   5   33.20    4.60
   4  -5  -5   25.50    4.50
  -4  -5   5   31.00    5.10
  -4   5   5   32.50    6.80
  -4   5   5   34.70    4.70
   4   5  -5   41.70    6.80
   3  -5  -5   21.10    3.50
  -3  -5   5   20.80    3.40
  -3  -5   5   19.60    3.20
  -3   5   5   16.80    3.00
  -3   5   5   14.70    2.80
  -3   5   5   25.50    5.40
   3   5  -5   24.50    3.60
   3   5  -5   19.40    4.30
   2  -5  -5   55.79    5.70
  -2  -5   5   59.99    5.50
  -2  -5   5   58.79    5.50
   2   5  -5   63.39    6.30
  -2   5   5   65.99    5.40
  -2   5   5   69.49    7.10
   2   5  -5   58.39    5.70
  -2   5   5   62.89    5.70
   1  -5  -5 1046.30   68.49
  -1  -5   5 1048.70   68.19
  -1  -5   5 1046.80   68.09
  -1   5   5 1052.09   67.99
  -1   5   5  984.80   68.99
  -1   5   5  947.81   68.19
   1   5  -5 1074.49   68.49
   1   5  -5  982.20   68.29
   0  -5   5    2.30    1.00
   0  -5  -5    2.80    1.30
   0  -5   5    1.60    1.00
   0  -5  -5   -1.50    1.10
   0   5   5    2.60    1.10
   0   5  -5    1.10    1.20
  -1  -5  -5    3.80    2.10
  -1  -5  -5    6.10    1.60
   1  -5   5    4.00    1.30
  -1   5  -5    4.40    1.60
   1   5   5    2.80    1.20
  -2  -5  -5  181.48   14.30
   2  -5   5  167.38   12.20
  -2   5  -5  180.78   14.40
   2   5   5  151.88   12.20
  -2   5  -5  160.48   12.70
  -3  -5  -5   67.09    9.20
   3  -5   5   63.79    6.00
  -3   5  -5   74.89    7.00
   3   5   5   66.89    6.20
  -3   5  -5   93.39    9.20
  -4  -6   5   -0.80    1.50
   4  -6  -5   -0.90    1.60
  -4  -6   5   -0.20    1.30
  -4   6   5   -0.60    1.30
  -4   6   5   -0.50    2.50
   4   6  -5   -0.80    2.40
   3  -6  -5  237.08   18.90
  -3  -6   5  263.07   18.80
  -3  -6   5  254.97   19.00
  -3   6   5  278.47   21.30
   3   6  -5  273.57   19.00
  -3   6   5  261.37   18.80
  -3   6   5  254.07   18.70
   3   6  -5  256.77   20.10
  -2  -6   5  103.09    8.40
   2  -6  -5  103.79    8.60
  -2  -6   5  110.09    8.40
   2   6  -5   98.29    9.00
   2   6  -5  120.89    8.80
  -2   6   5   91.49    8.00
  -2   6   5   98.69    8.30
  -2   6   5  105.39    9.80
  -1  -6   5    2.60    1.20
   1  -6  -5    4.20    1.50
  -1  -6   5    2.60    1.30
   1   6  -5    2.50    1.50
  -1   6   5    3.00    1.20
  -1   6   5    4.70    2.10
  -1   6   5    3.20    1.50
   1   6  -5    1.00    1.30
   0  -6   5   21.10    2.70
   0  -6  -5   15.80    3.00
   0  -6   5   18.90    2.60
   0  -6  -5   15.70    2.80
   0   6  -5   15.20    2.70
   0   6   5   19.60    2.70
  -1  -6  -5  316.07   20.80
  -1  -6  -5  277.57   21.50
   1  -6   5  262.17   20.70
   1  -6   5  308.87   20.50
   1   6   5  297.37   20.50
  -1   6  -5  292.27   20.90
   2  -6   5    3.30    1.30
  -2  -6  -5    4.40    2.40
   2   6   5    2.90    1.30
  -2   6  -5    7.60    2.10
   3  -6   5  200.28   15.10
  -3  -6  -5  207.68   17.80
  -3   6  -5  231.38   16.30
   3   6   5  199.88   15.30
   4   7  -5    4.00    3.20
   3  -7  -5   40.10    5.30
  -3  -7   5   42.40    5.10
  -3  -7   5   47.20    5.40
  -3   7   5   42.90    5.00
  -3   7   5   50.49    7.70
   3   7  -5   42.40    6.30
   3   7  -5   48.80    6.60
   2  -7  -5  113.89    9.00
  -2  -7   5  113.89    8.70
  -2  -7   5  111.89    8.80
  -2   7   5  100.19    9.90
  -2   7   5  108.59    8.50
  -2   7   5  102.39    8.70
   2   7  -5  104.09    9.40
   2   7  -5  112.89    9.00
   1  -7  -5    5.30    1.70
  -1  -7   5    4.20    1.40
  -1   7   5    3.80    1.90
  -1   7   5    1.70    1.20
  -1   7   5    5.30    1.40
   1   7  -5    2.70    1.50
   1   7  -5    6.10    1.90
   0  -7  -5   92.89    8.00
   0  -7   5  102.79    7.70
   0  -7  -5   90.69    8.10
   0  -7   5  103.69    7.70
   0   7  -5   96.79    8.10
   0   7   5   98.39    7.70
  -1  -7  -5   83.09    6.50
   1  -7   5   79.19    6.30
   1  -7   5   67.19    6.50
  -1  -7  -5   69.89    7.10
  -1   7  -5   74.69    6.60
   1   7   5   74.69    6.20
  -2  -7  -5  141.69   12.40
   2  -7   5  138.29   10.50
  -2   7  -5  143.69   11.20
   2   7   5  138.49   10.60
  -3  -7  -5  208.38   17.00
   3  -7   5  188.58   14.00
   3   7   5  177.08   14.20
  -3   7  -5  199.58   15.10
   3  -8  -5   16.00    3.40
  -3  -8   5   31.60    4.20
  -3  -8   5   24.90    3.60
  -3   8   5   18.80    3.20
   3   8  -5   24.70    4.90
  -3   8   5   18.20    4.70
  -2  -8   5    2.20    1.20
   2  -8  -5    0.30    1.30
  -2  -8   5    2.10    1.30
  -2   8   5    1.10    1.00
  -2   8   5    3.70    2.10
   2   8  -5   -0.10    1.60
  -2   8   5    1.20    1.10
   2   8  -5    1.30    1.50
   1  -8  -5  257.77   19.10
  -1  -8   5  275.37   18.70
  -1   8   5  249.97   18.50
   1   8  -5  279.77   19.80
  -1   8   5  262.27   19.00
   1   8  -5  291.87   19.20
  -1   8   5  242.38   19.60
   0  -8   5   52.49    4.70
   0  -8   5   52.89    4.70
   0  -8  -5   54.09    5.00
   0  -8  -5   43.40    5.00
   0   8   5   54.89    4.70
   0   8  -5   55.59    5.10
  -1  -8  -5   21.20    3.00
  -1  -8  -5   18.60    3.60
   1  -8   5   14.00    2.90
   1  -8   5   20.20    2.80
   1   8   5   20.40    2.80
  -1   8  -5   18.30    3.00
  -2  -8  -5   50.49    7.10
   2  -8   5   41.70    4.20
   2  -8   5   40.70    5.50
  -2   8  -5   49.50    4.90
   2   8   5   48.20    4.50
  -3  -8  -5   19.40    4.80
   3  -8   5   17.60    3.80
   3   8   5   16.40    3.00
  -3   8  -5   19.40    3.70
  -3  -9   5    2.20    1.70
   3  -9  -5    4.30    2.00
  -3  -9   5    4.50    1.70
  -3   9   5    5.00    1.80
   3   9  -5    2.80    2.50
  -3   9   5    6.30    3.20
  -2  -9   5  148.99   11.00
  -2  -9   5  150.28   11.00
   2  -9  -5  132.69   11.20
  -2   9   5  132.99   10.60
   2   9  -5  152.98   11.20
   2   9  -5  142.19   11.70
  -2   9   5  143.19   11.00
  -2   9   5  136.59   12.40
  -1  -9   5   89.69    7.10
   1  -9  -5   85.29    7.50
  -1   9   5   88.39    8.10
   1   9  -5   87.09    7.40
  -1   9   5   88.89    7.40
  -1   9   5   87.09    7.00
   0  -9  -5  162.48   12.20
   0  -9  -5  142.59   12.30
   0  -9   5  163.08   11.90
   0  -9   5  169.68   11.90
   0   9   5  155.98   11.80
   0   9  -5  175.38   12.50
   1  -9   5   38.10    4.80
   1  -9   5   43.00    3.90
  -1  -9  -5   38.40    5.60
  -1  -9  -5   40.60    4.10
   1   9   5   36.20    4.20
  -1   9  -5   37.00    4.70
  -2  -9  -5   55.59    7.50
   2  -9   5   52.49    5.70
   2  -9   5   56.09    4.80
   2   9   5   47.00    4.70
  -2   9  -5   48.90    5.20
  -3  -9  -5    9.30    3.90
   3  -9   5    8.50    2.80
  -3   9  -5   10.20    2.90
   3   9   5   12.60    2.50
  -3 -10   5    3.60    1.80
  -3 -10   5    3.20    1.70
   3 -10  -5    1.50    1.70
  -3  10   5    6.30    3.00
   3  10  -5    1.40    2.10
  -3  10   5    1.60    1.40
   2 -10  -5    5.60    2.10
  -2 -10   5    7.50    2.00
  -2 -10   5    7.90    1.90
   2  10  -5    5.10    1.80
   2  10  -5    8.40    2.50
  -2  10   5    1.90    1.20
  -2  10   5    4.40    2.40
  -1 -10   5    3.40    1.40
   1 -10  -5    3.30    1.50
  -1  10   5    2.50    1.80
  -1  10   5    2.30    1.00
  -1  10   5    5.70    1.80
   1  10  -5    3.50    1.50
   0 -10  -5   50.39    5.20
   0 -10   5   46.90    4.60
   0 -10   5   54.99    4.60
   0 -10  -5   49.90    4.90
   0  10  -5   47.90    5.00
   0  10   5   48.10    4.50
   1 -10   5   21.90    3.70
  -1 -10  -5   22.80    4.20
   1 -10   5   29.40    3.40
  -1 -10  -5   30.60    3.80
   1  10   5   22.60    3.20
  -1  10  -5   27.20    3.90
   2 -10   5  187.98   13.70
  -2 -10  -5  183.98   15.70
   2 -10   5  194.28   14.80
   2  10   5  176.08   13.80
  -2  10  -5  201.98   14.60
  -3 -10  -5   -0.50    2.50
   3 -10   5    4.80    2.40
  -3  10  -5   -0.70    1.30
   3  10   5    2.10    1.30
  -3 -11   5    0.70    1.30
   3 -11  -5    1.10    1.70
  -3 -11   5   -0.60    1.20
  -3  11   5    1.70    2.30
  -3  11   5    1.50    1.30
   3  11  -5   -1.30    1.80
   2 -11  -5   59.89    6.40
  -2 -11   5   67.79    6.30
  -2 -11   5   73.39    6.40
   2  11  -5   77.99    6.50
   2  11  -5   75.09    7.00
  -2  11   5   73.89    7.80
  -2  11   5   67.19    6.30
  -1 -11   5    1.90    1.10
   1 -11  -5    2.20    1.50
  -1  11   5   -0.20    1.40
  -1  11   5    3.00    1.10
  -1  11   5   -0.10    1.10
   1  11  -5    2.00    1.40
   0 -11  -5   56.29    5.20
   0 -11   5   57.29    4.90
   0 -11  -5   43.70    5.10
   0 -11   5   57.69    4.90
   0  11  -5   57.19    5.30
   0  11   5   49.70    5.30
   0  11   5   45.60    4.50
   1 -11   5   90.69    6.50
   1 -11   5   74.99    6.80
  -1 -11  -5   61.19    7.10
  -1  11  -5   71.49    6.50
   1  11   5   67.59    6.20
  -1  11  -5   82.29    6.90
   2 -11   5   50.99    6.00
  -2 -11  -5   40.70    6.50
   2 -11   5   41.40    4.50
   2  11   5   34.60    4.40
  -2  11  -5   37.30    5.00
   3 -11   5    2.10    2.00
  -3 -11  -5    2.40    3.00
  -3  11  -5    1.20    1.50
   3  11   5   -0.20    0.90
   3 -12  -5  199.98   16.60
  -3 -12   5  226.08   16.20
  -3 -12   5  226.58   16.60
   3  12  -5  225.08   17.50
  -3  12   5  197.28   18.30
  -3  12   5  222.18   16.30
   2 -12  -5    5.80    2.10
  -2 -12   5    3.20    1.50
  -2 -12   5    2.70    1.60
  -2  12   5    0.60    1.70
   2  12  -5   -0.30    1.50
   2  12  -5    2.70    1.60
  -2  12   5    1.90    1.50
   1 -12  -5  187.28   14.20
  -1 -12   5  196.68   13.90
   1  12  -5  213.88   14.40
  -1  12   5  188.08   13.60
  -1  12   5  160.28   14.70
  -1  12   5  185.48   14.10
   0 -12   5  209.28   14.80
   0 -12  -5  181.48   15.30
   0 -12  -5  221.58   15.30
   0 -12   5  222.78   14.90
   0  12   5  186.98   15.40
   0  12  -5  205.58   15.30
   0  12   5  202.68   14.60
   1 -12   5    3.70    1.70
   1 -12   5    2.20    1.20
  -1 -12  -5    2.00    2.10
   1  12   5    1.70    1.00
  -1  12  -5    1.80    1.40
  -1  12  -5    1.90    1.40
  -2 -12  -5   27.00    5.60
   2 -12   5   32.70    5.00
   2  12   5   37.50    4.40
  -2  12  -5   36.30    4.90
   3 -12   5  124.39   10.50
  -3 -12  -5  107.39   11.40
  -3  12  -5  105.99    9.80
   3  12   5   97.89    9.00
  -3 -13   5  161.68   13.20
   3 -13  -5  166.48   13.60
  -3 -13   5  164.38   12.90
  -3  13   5  158.08   12.90
   3  13  -5  180.48   14.40
  -3  13   5  168.78   15.40
  -2 -13   5   19.90    3.10
  -2 -13   5   17.30    2.90
   2 -13  -5    9.80    2.70
   2  13  -5   17.80    3.20
   2  13  -5   17.80    3.50
  -2  13   5   10.20    2.50
  -2  13   5   15.40    4.00
   1 -13  -5    9.40    2.40
  -1 -13   5    6.60    1.70
  -1  13   5    5.40    2.30
   1  13  -5    7.60    2.20
  -1  13   5    9.20    2.40
   0 -13  -5   21.80    3.50
   0 -13   5   38.40    4.00
   0 -13  -5   31.20    4.60
   0 -13   5   29.50    3.60
   0  13  -5   24.40    3.80
   0  13   5   27.20    4.30
   0  13   5   26.20    3.40
   1 -13   5  673.43   41.60
   1 -13   5  661.23   42.30
  -1 -13  -5  580.44   42.80
   1  13   5  532.05   41.30
  -1  13  -5  654.13   41.90
  -1  13  -5  581.74   42.00
  -2 -13  -5   41.60    6.80
   2 -13   5   44.50    5.90
   2  13   5   47.60    5.20
  -2  13  -5   42.60    5.20
  -2  13  -5   41.90    5.50
  -3 -14   5  204.88   15.10
   3 -14  -5  174.58   15.10
  -3 -14   5  206.38   14.70
  -3  14   5  173.68   14.50
  -3  14   5  183.88   16.90
   3  14  -5  205.08   16.00
  -2 -14   5   13.30    2.60
   2 -14  -5    9.90    2.80
  -2  14   5    9.80    3.40
   2  14  -5   11.50    3.00
  -2  14   5    5.70    2.00
   1 -14  -5   -0.20    1.30
  -1 -14   5    1.10    1.10
  -1  14   5   -0.40    1.40
   1  14  -5   -0.80    1.40
   0 -14  -5  416.76   28.20
   0 -14   5  435.06   28.00
   0 -14  -5  392.76   28.60
   0 -14   5  434.06   27.90
   0  14   5  371.66   28.60
   0  14   5  345.77   27.40
   0  14  -5  433.16   28.50
   1 -14   5  522.25   32.30
  -1 -14  -5  420.76   33.50
   1 -14   5  525.85   33.10
   1  14   5  395.86   31.90
  -1  14  -5  474.55   32.90
  -1  14  -5  488.35   32.60
  -2 -14  -5   36.30    6.20
   2 -14   5   35.10    5.10
  -2  14  -5   31.80    4.70
   2  14   5   29.10    4.00
  -2  14  -5   34.10    4.40
   3 -15  -5   25.70    4.70
  -3 -15   5   26.40    4.30
  -3 -15   5   27.20    4.00
   3  15  -5   25.20    4.90
  -3  15   5   27.80    4.30
  -3  15   5   22.00    5.60
   2 -15  -5  342.57   24.60
  -2 -15   5  344.67   24.10
  -2  15   5  312.07   25.80
  -2  15   5  301.27   24.00
   2  15  -5  382.96   24.90
   1 -15  -5   33.20    4.50
  -1 -15   5   35.50    4.20
  -1  15   5   37.10    5.70
   1  15  -5   32.80    4.50
   0 -15   5    3.70    1.50
   0 -15   5    4.60    1.60
   0 -15  -5    3.20    1.90
   0 -15  -5    6.10    2.00
   0  15  -5    3.90    1.70
   0  15   5    4.40    1.40
   0  15   5    3.40    1.80
  -1 -15  -5   38.80    5.90
   1 -15   5   39.60    5.00
   1  15   5   36.50    4.20
  -1  15  -5   37.60    4.90
  -1  15  -5   30.90    4.30
  -2 -15  -5  455.95   33.60
   2 -15   5  500.75   32.50
   2  15   5  403.96   31.10
  -2  15  -5  422.76   31.90
  -2  15  -5  488.45   31.70
   3 -16  -5   22.20    4.40
  -3 -16   5   30.00    4.40
  -3 -16   5   21.60    4.10
  -3  16   5   21.00    5.70
   3  16  -5   30.10    5.20
  -3  16   5   30.50    4.50
  -2 -16   5  203.08   14.80
   2 -16  -5  181.48   15.00
   2  16  -5  222.08   15.50
  -2  16   5  180.48   14.70
  -2  16   5  169.58   16.20
   1 -16  -5   41.40    5.60
  -1 -16   5   50.89    4.90
  -1  16   5   47.50    6.90
   1  16  -5   56.69    5.50
   0 -16  -5    7.00    2.20
   0 -16   5    5.80    2.00
   0 -16   5    6.30    1.70
   0 -16  -5    5.00    2.30
   0  16  -5    5.60    2.10
   0  16   5    3.40    1.80
   1 -16   5   84.19    7.40
  -1 -16  -5   78.49    8.20
   1  16   5   64.29    6.30
  -1  16  -5   84.79    7.20
  -1  16  -5   80.49    7.30
   2 -16   5    7.50    2.60
  -2 -16  -5    2.40    2.70
  -2  16  -5    3.20    1.80
   2  16   5    6.40    1.90
  -2  16  -5    5.50    2.10
   3 -17  -5   49.99    7.60
  -3 -17   5   32.50    5.40
  -3 -17   5   35.90    5.00
  -3  17   5   48.10    8.60
  -3  17   5   43.50    5.70
   3  17  -5   58.49    7.20
  -2 -17   5  202.48   15.90
   2 -17  -5  201.88   16.40
  -2  17   5  194.58   17.80
  -2  17   5  213.08   16.20
   2  17  -5  242.78   16.70
   1 -17  -5   38.80    5.20
  -1 -17   5   45.50    5.00
   1  17  -5   39.40    5.00
  -1  17   5   39.00    6.30
   0 -17   5  119.39   10.20
   0 -17  -5  107.19   10.50
   0 -17   5  136.99    9.70
   0  17   5  112.59   10.60
   0  17  -5  134.19   10.30
  -1 -17  -5   18.90    4.70
   1 -17   5   30.60    4.40
  -1  17  -5   32.60    4.70
  -1  17  -5   27.10    4.00
   1  17   5   30.00    3.70
   2 -17   5  175.88   12.90
  -2 -17  -5  127.19   13.40
  -2  17  -5  135.69   12.10
  -2  17  -5  168.28   12.10
   2  17   5  137.69   11.30
   2 -18  -5   -1.30    1.70
  -2 -18   5    1.40    1.50
  -2  18   5   -0.30    1.90
  -2  18   5   -1.40    1.40
   2  18  -5    0.60    1.70
  -1 -18   5  186.18   12.90
   1 -18  -5  164.38   13.20
   1  18  -5  190.38   13.30
  -1  18   5  129.49   13.80
   0 -18  -5  151.18   13.00
   0  18   5  145.79   12.80
   0  18  -5  159.18   12.30
  -1 -18  -5  121.69   12.00
   1 -18   5  150.98   11.30
  -1  18  -5  151.08   11.10
  -1  18  -5  132.89   11.10
   1  18   5  119.09   10.10
  -2 -18  -5    9.80    4.00
   2 -18   5   15.00    3.60
  -2  18  -5    4.50    2.10
  -2  18  -5   11.90    2.80
   2  18   5   11.50    2.40
   2 -19  -5    1.00    2.00
  -2 -19   5    3.10    1.80
   2  19  -5    0.90    2.00
  -2  19   5   -0.60    2.10
  -2  19   5   -1.30    1.60
  -1 -19   5   53.39    5.10
   1 -19  -5   39.60    5.60
  -1  19   5   45.00    7.20
   1  19  -5   52.79    7.40
   0 -19  -5   -0.30    1.90
   0  19   5    1.50    1.70
   0  19  -5    1.10    1.50
   1 -19   5  206.08   14.90
  -1 -19  -5  156.48   15.50
  -1  19  -5  179.58   14.80
  -1  19  -5  208.28   14.70
  -2 -19  -5   -1.00    2.50
   2 -19   5    2.40    2.30
   2  19   5    2.90    1.50
  -2  19  -5   -0.30    1.60
  -2  19  -5   -0.90    1.50
   2 -20  -5    8.50    2.90
  -2 -20   5    6.90    2.50
  -2  20   5    4.70    3.20
  -2  20   5    4.60    2.30
   2  20  -5    7.10    2.60
  -1 -20   5   98.19    8.40
   1 -20  -5   98.49    8.80
  -1  20   5   97.09   10.00
   0  20   5    4.00    2.40
   0  20  -5    3.70    2.10
   1 -20   5  360.06   23.90
  -1 -20  -5  300.77   24.90
  -1  20  -5  307.37   23.70
  -2 -21   5  237.68   16.00
   2 -21  -5  175.18   15.80
  -2  21   5  204.18   16.10
  -2  21   5  190.68   17.80
   1 -21  -5    9.90    2.80
  -1  21   5    5.90    3.00
   0  21   5   70.49    7.70
  -1 -21  -5   81.39   10.40
   1 -21   5   91.59    8.30
  -1  21  -5   87.79    8.40
  -1  22   5    4.60    2.90
   0  22  -5  244.28   16.80
   0  22   5  185.98   17.10
  -1 -22  -5    5.80    3.20
   1 -22   5    1.60    1.90
  -1  22  -5    2.40    1.90
  -1  23   5   14.90    4.30
   0  23   5  166.98   16.10
   0  23  -5  232.88   16.00
   0  24  -5    8.10    2.90
   0  24   5    3.80    2.90
  -3   0   6   -1.60    1.30
   3   0  -6    1.10    1.80
  -3   0   6    0.60    1.30
   2   0  -6   16.40    3.10
  -2   0   6   18.80    2.90
  -2   0   6    8.90    3.00
  -2   0   6   20.10    3.30
  -1   0   6    1.70    1.10
   1   0  -6    1.20    1.50
   0   0   6  511.55   34.70
   0   0  -6  501.95   35.10
  -1   0  -6    1.10    1.90
  -1   0  -6    1.10    1.50
   1   0   6   -0.20    1.00
  -2   0  -6  484.25   32.80
  -2   0  -6  468.05   31.10
   2   0   6  384.66   30.10
  -3  -1   6   72.19    7.00
   3  -1  -6   71.99    7.20
  -3  -1   6   73.49    7.20
  -3   1   6   82.89    9.20
  -3   1   6   82.29    7.30
  -3   1   6   85.19    7.40
   3   1  -6   77.39    7.30
   2  -1  -6   19.70    3.40
  -2  -1   6   16.60    3.00
  -2  -1   6   18.60    3.00
   2   1  -6   15.00    3.20
  -2   1   6   19.70    3.00
  -2   1   6   14.30    2.90
  -2   1   6   17.40    4.00
  -1  -1   6   39.00    4.70
   1  -1  -6   45.80    5.40
   1   1  -6   43.00    5.30
  -1   1   6   40.60    4.70
   0  -1  -6   34.50    4.50
   0  -1   6   33.10    4.00
   0   1  -6   25.30    4.00
  -1  -1  -6  120.39   10.70
  -1  -1  -6  116.69   10.00
   1  -1   6  130.79    9.70
   1   1   6  117.19    9.50
  -1   1  -6  120.29   10.10
  -1   1  -6  129.69   11.00
  -2  -1  -6   67.09    6.30
   2  -1   6   56.39    5.60
  -2  -1  -6   66.39    8.50
  -2   1  -6   69.89    6.40
  -2   1  -6   64.59    8.50
   2   1   6   56.29    5.60
  -3  -2   6   16.50    3.30
   3  -2  -6   19.10    3.70
  -3  -2   6   19.00    3.40
   3   2  -6   16.80    4.10
   3   2  -6   14.90    3.20
  -3   2   6   18.90    3.30
  -3   2   6   19.20    5.10
  -3   2   6   15.80    3.20
   2  -2  -6   52.79    6.20
  -2  -2   6   59.09    5.30
  -2  -2   6   49.10    5.80
  -2   2   6   52.19    6.00
  -2   2   6   50.19    5.10
  -2   2   6   58.29    7.60
   2   2  -6   55.39    5.60
   1  -2  -6    6.00    2.20
  -1  -2   6   12.40    2.30
  -1   2   6    9.50    2.20
   1   2  -6    9.40    2.50
   0  -2  -6  361.76   25.10
   0  -2   6  348.87   24.50
   0   2  -6  354.76   25.00
   0   2   6  339.37   24.50
  -1  -2  -6   21.90    4.00
  -1  -2  -6   17.40    3.20
   1  -2   6   17.80    2.80
  -1   2  -6   16.70    3.20
  -1   2  -6   15.30    3.70
   1   2   6   16.50    2.80
  -2  -2  -6   30.40    5.60
  -2  -2  -6   26.70    4.20
   2  -2   6   28.90    3.70
  -2   2  -6   31.20    5.70
   2   2   6   22.00    3.40
  -2   2  -6   27.40    4.20
  -3  -3   6  238.48   17.30
  -3  -3   6  228.98   17.30
   3  -3  -6  201.08   17.10
  -3   3   6  252.27   19.90
  -3   3   6  227.58   17.20
  -3   3   6  234.78   17.20
   3   3  -6  239.68   17.40
   3   3  -6  225.38   18.50
  -2  -3   6   54.39    6.00
  -2  -3   6   55.09    5.10
   2  -3  -6   45.00    5.70
  -2   3   6   53.89    7.30
   2   3  -6   49.10    5.70
  -2   3   6   45.10    5.50
   2   3  -6   53.69    6.10
  -2   3   6   55.59    5.10
   1  -3  -6   75.69    6.70
  -1  -3   6   79.39    6.30
  -1   3   6   64.09    6.10
   1   3  -6   60.49    6.40
   0  -3   6  421.56   28.20
   0  -3  -6  385.86   28.50
   0   3   6  400.46   28.10
   0   3  -6  416.36   28.60
  -1  -3  -6 1122.09   76.89
  -1  -3  -6 1181.58   76.19
   1  -3   6 1107.09   75.59
   1   3   6 1086.29   75.59
  -1   3  -6 1181.68   76.29
   2  -3   6    2.90    1.50
  -2  -3  -6    3.10    2.70
  -2   3  -6    2.00    1.70
   2   3   6    1.90    1.30
  -2   3  -6    4.70    2.90
  -3  -4   6   17.40    3.20
   3  -4  -6   17.90    3.50
  -3  -4   6   13.80    3.00
  -3   4   6   21.40    5.20
  -3   4   6   14.60    2.90
  -3   4   6   20.30    3.60
   3   4  -6   20.00    3.70
   3   4  -6   18.00    4.40
   2  -4  -6   18.70    3.40
  -2  -4   6   16.90    3.00
  -2  -4   6   18.90    3.00
  -2   4   6   15.40    2.70
  -2   4   6   18.30    4.30
   2   4  -6   18.10    3.70
   2   4  -6   16.40    3.30
  -2   4   6   23.60    3.70
   1  -4  -6  277.27   20.80
  -1  -4   6  291.97   20.50
   1   4  -6  297.77   21.00
  -1   4   6  283.37   20.40
   0  -4   6  287.97   20.40
   0  -4  -6  269.77   20.80
   0   4   6  301.77   20.50
   0   4  -6  289.27   20.90
   1  -4   6   34.30    4.10
  -1  -4  -6   27.80    4.10
  -1  -4  -6   34.20    5.20
   1   4   6   37.10    4.30
  -1   4  -6   29.10    4.30
   2  -4   6    9.70    2.30
  -2  -4  -6   18.70    4.60
  -2   4  -6   20.10    3.60
  -2   4  -6   16.00    4.40
   2   4   6   13.40    2.60
   3  -5  -6   49.30    6.30
  -3  -5   6   59.39    6.50
  -3  -5   6   67.59    6.90
  -3   5   6   55.79    6.40
   3   5  -6   52.39    6.40
  -3   5   6   49.80    8.20
  -3   5   6   46.90    5.80
   3   5  -6   50.19    7.40
   2  -5  -6   37.50    5.00
  -2  -5   6   46.30    4.90
  -2  -5   6   35.90    4.80
  -2   5   6   31.70    5.60
   2   5  -6   43.10    5.20
  -2   5   6   41.70    4.70
  -2   5   6   25.80    4.20
   2   5  -6   32.80    5.20
  -1  -5   6  170.08   12.50
   1  -5  -6  149.79   12.60
   1   5  -6  165.58   12.80
  -1   5   6  170.88   12.40
   0  -5  -6  554.04   39.60
   0  -5   6  586.64   39.20
   0   5  -6  575.94   39.70
   0   5   6  581.64   39.20
  -1  -5  -6    2.50    1.60
   1  -5   6    0.20    1.20
   1  -5   6   -0.30    1.00
  -1  -5  -6    2.60    2.30
  -1   5  -6    0.70    1.40
   1   5   6    2.00    1.20
   2  -5   6    9.80    2.20
  -2  -5  -6   11.20    3.70
  -2   5  -6   15.20    3.10
   2   5   6   13.40    2.70
   3  -6  -6    0.80    1.80
  -3  -6   6    0.20    1.50
  -3  -6   6    2.00    1.50
  -3   6   6   -0.70    1.40
  -3   6   6   -0.20    2.10
   3   6  -6   -1.00    2.00
   3   6  -6    1.90    2.00
  -2  -6   6  356.96   23.60
   2  -6  -6  328.97   23.90
  -2  -6   6  340.77   23.70
  -2   6   6  313.97   25.00
  -2   6   6  320.57   23.30
   2   6  -6  316.97   24.40
   2   6  -6  364.06   24.10
  -2   6   6  307.57   23.50
   1  -6  -6   61.39    5.90
  -1  -6   6   61.29    5.50
  -1   6   6   53.19    5.40
   1   6  -6   62.69    6.00
   0  -6   6   68.69    6.00
   0  -6  -6   61.69    6.40
   0   6  -6   67.89    6.50
   0   6   6   69.49    6.10
  -1  -6  -6    5.70    2.70
   1  -6   6    8.00    2.20
   1  -6   6    9.00    2.10
  -1  -6  -6    8.30    2.30
   1   6   6   10.30    2.10
  -1   6  -6    7.40    2.20
  -2  -6  -6  114.69   11.60
   2  -6   6  124.19    9.80
  -2   6  -6  149.69   11.00
   2   6   6  116.29    9.80
   3  -7  -6    1.20    1.90
  -3  -7   6    1.70    1.70
  -3  -7   6    4.20    1.80
   3   7  -6    1.30    2.60
  -3   7   6    3.90    1.90
  -3   7   6    2.50    2.80
   3   7  -6    0.60    1.90
  -2  -7   6   -0.60    1.30
  -2  -7   6   -0.20    0.90
   2  -7  -6    1.30    1.60
   2   7  -6    1.90    3.00
   2   7  -6    0.60    1.70
  -2   7   6    0.80    1.00
  -2   7   6    1.30    1.30
  -2   7   6    0.10    1.60
   1  -7  -6  129.79   11.30
  -1  -7   6  145.99   11.10
   1   7  -6  156.38   11.60
  -1   7   6  140.69   10.90
   0  -7   6  111.79    8.70
   0  -7  -6   99.89    9.00
   0   7  -6  111.99    9.30
   0   7   6  106.09    8.60
   1  -7   6   40.90    5.20
  -1  -7  -6   39.00    6.10
  -1  -7  -6   45.10    5.40
   1  -7   6   49.90    4.60
   1   7   6   42.00    4.90
  -1   7  -6   41.00    5.30
   2  -7   6    3.20    2.30
  -2  -7  -6   -0.70    2.10
   2  -7   6    1.30    1.20
   2   7   6    2.30    1.30
  -2   7  -6    2.70    1.60
   3  -8  -6   16.90    3.60
  -3  -8   6   11.80    2.90
  -3  -8   6   22.10    3.60
  -3   8   6   16.60    4.80
   3   8  -6   14.30    4.10
  -3   8   6    9.60    2.60
  -2  -8   6   63.79    6.10
   2  -8  -6   56.79    6.90
  -2   8   6   61.59    6.10
  -2   8   6   58.99    8.20
  -2   8   6   61.99    5.80
   2   8  -6   87.59    7.00
   1  -8  -6   19.50    3.60
  -1  -8   6   23.10    3.30
  -1   8   6   23.60    3.30
   1   8  -6   23.90    3.80
   0  -8  -6  141.59   11.60
   0  -8   6  143.39   11.10
   0   8  -6  145.79   11.70
   0   8   6  149.29   11.20
  -1  -8  -6   -0.40    2.10
   1  -8   6   -0.10    1.10
  -1  -8  -6    2.20    1.40
   1  -8   6    0.60    1.30
   1   8   6    0.60    0.90
  -1   8  -6    0.00    1.20
   2  -8   6   45.60    5.00
  -2  -8  -6   36.70    6.50
   2  -8   6   50.59    6.30
   2   8   6   35.00    4.70
  -2   8  -6   41.50    5.60
   3  -9  -6  265.27   22.10
  -3  -9   6  318.67   22.10
  -3  -9   6  313.47   22.20
  -3   9   6  288.27   21.90
   3   9  -6  335.97   23.60
  -3   9   6  294.77   24.30
   2  -9  -6    4.70    2.10
  -2  -9   6    5.20    1.90
   2   9  -6    8.10    2.60
  -2   9   6    9.40    2.30
  -2   9   6    6.20    2.90
  -2   9   6    6.30    2.60
  -1  -9   6  142.29   11.00
   1  -9  -6  150.88   11.60
   1   9  -6  147.09   11.60
  -1   9   6  133.19   10.90
   0  -9   6   35.80    4.30
   0  -9  -6   32.50    4.60
   0   9  -6   32.10    4.70
   0   9   6   35.40    4.30
  -1  -9  -6  106.29   10.60
   1  -9   6  123.89   10.20
   1  -9   6  124.09    9.60
  -1  -9  -6  131.99   10.10
  -1   9  -6  125.79   10.30
   1   9   6  114.69    9.50
   2  -9   6    2.90    2.20
   2  -9   6    3.40    1.60
  -2  -9  -6    8.90    3.50
  -2   9  -6    2.30    1.70
   2   9   6    2.40    1.40
  -3 -10   6   29.70    4.40
  -3 -10   6   35.20    4.90
   3 -10  -6   22.70    4.30
   3  10  -6   34.00    5.70
  -3  10   6   34.10    6.60
  -3  10   6   36.40    4.80
   2 -10  -6    1.50    1.80
  -2 -10   6    1.70    1.50
  -2  10   6    1.40    2.00
   2  10  -6    2.90    1.80
  -2  10   6    1.60    1.50
  -1 -10   6   41.50    4.80
   1 -10  -6   43.70    5.50
   1  10  -6   46.20    5.50
  -1  10   6   38.30    4.60
   0 -10   6    0.80    1.30
   0 -10  -6    2.10    1.50
   0  10   6    2.00    1.30
   0  10  -6    1.40    1.60
   1 -10   6    0.60    1.60
  -1 -10  -6   -0.40    1.60
   1 -10   6    1.60    1.40
  -1  10  -6    1.50    1.50
  -1  10  -6    0.60    1.30
   1  10   6    0.10    0.90
   2 -10   6   13.30    3.30
  -2 -10  -6    1.80    2.70
   2 -10   6    8.10    2.10
  -2  10  -6   10.80    2.80
   2  10   6    7.90    2.20
  -3 -11   6  296.97   21.50
   3 -11  -6  254.97   21.30
  -3 -11   6  311.87   21.20
  -3  11   6  258.87   23.10
   3  11  -6  335.87   22.80
  -3  11   6  265.77   20.90
   2 -11  -6   13.60    3.10
  -2 -11   6   13.70    2.80
  -2  11   6   12.90    2.90
  -2  11   6    9.30    3.40
   2  11  -6   20.40    3.60
  -1 -11   6  103.49    8.70
   1 -11  -6  105.69    9.20
  -1  11   6  104.49    8.50
   1  11  -6  114.99    9.40
   0 -11   6   11.70    2.40
   0 -11  -6   13.50    3.00
   0  11  -6    8.00    2.60
   0  11   6   10.10    2.10
   1 -11   6   66.59    5.80
  -1 -11  -6   52.99    7.30
   1 -11   6   61.49    6.20
   1  11   6   57.09    5.60
  -1  11  -6   64.49    6.10
  -1  11  -6   59.09    6.20
   2 -11   6    0.70    2.20
   2 -11   6    2.30    1.50
  -2 -11  -6    2.10    2.90
  -2  11  -6    1.70    1.50
   2  11   6    1.00    1.10
   3  12  -6   11.10    3.60
   2 -12  -6  347.57   24.60
  -2 -12   6  338.67   24.00
   2  12  -6  401.16   24.70
  -2  12   6  296.17   23.90
  -2  12   6  294.67   25.40
  -1 -12   6   -0.90    1.20
   1 -12  -6   -0.10    1.40
  -1  12   6    1.20    1.10
  -1  12   6    1.30    1.70
   1  12  -6    1.70    1.70
   0 -12  -6  145.09   11.60
   0 -12   6  146.69   11.10
   0  12   6  120.29   10.70
   0  12  -6  169.58   12.10
   1 -12   6   66.59    5.60
   1 -12   6   65.39    6.00
  -1 -12  -6   59.79    7.60
  -1  12  -6   38.60    5.50
   1  12   6   47.80    5.10
  -1  12  -6   62.69    7.00
   2 -12   6   22.50    4.20
  -2 -12  -6   15.30    4.50
  -2  12  -6   15.70    3.20
   2  12   6    8.70    2.40
  -2  12  -6   14.70    3.30
  -2 -13   6   69.09    6.30
   2 -13  -6   55.69    7.00
   2  13  -6   69.39    6.60
  -2  13   6   60.29    7.00
  -2  13   6   55.69    8.40
   1 -13  -6   20.50    3.80
  -1 -13   6   22.30    3.40
  -1  13   6   18.90    4.10
   1  13  -6   27.00    4.30
   0 -13   6   51.79    5.10
   0 -13  -6   46.40    5.80
   0  13   6   47.90    4.80
   0  13  -6   59.49    6.60
   1 -13   6   31.30    4.10
  -1 -13  -6   23.10    5.00
   1 -13   6   38.60    4.90
  -1  13  -6   31.00    4.30
   1  13   6   22.20    3.50
  -1  13  -6   27.50    4.40
   2 -13   6  226.18   16.50
  -2 -13  -6  183.18   17.00
   2  13   6  176.98   15.00
  -2  13  -6  215.08   15.70
  -2  13  -6  219.88   16.20
  -2 -14   6  158.98   11.80
   2 -14  -6  143.29   12.10
  -2  14   6  125.19   12.90
  -2  14   6  147.99   11.80
  -1 -14   6   19.70    3.30
   1 -14  -6   22.80    4.10
  -1  14   6   23.90    4.70
   1  14  -6   23.20    4.00
   0 -14   6   39.80    4.90
   0 -14  -6   38.80    5.20
   0  14  -6   37.20    5.40
   0  14   6   39.80    4.60
  -1 -14  -6   57.09    8.00
   1 -14   6   83.39    7.30
   1 -14   6   77.29    6.70
   1  14   6   59.79    6.10
  -1  14  -6   81.89    7.40
  -2 -14  -6  165.58   15.30
   2 -14   6  191.98   14.50
  -2  14  -6  187.28   15.40
   2  14   6  144.59   13.00
  -2  14  -6  189.38   13.90
  -2 -15   6    2.40    1.70
   2 -15  -6    1.50    2.00
  -2  15   6    3.70    1.80
  -2  15   6    2.10    2.40
   1 -15  -6  448.36   31.70
  -1 -15   6  452.55   31.10
   1  15  -6  506.05   31.90
  -1  15   6  379.86   32.10
   0 -15  -6   11.60    3.60
   0 -15   6   16.70    3.00
   0  15   6   11.10    2.60
   0  15  -6   10.80    2.90
   1 -15   6    0.10    1.60
  -1 -15  -6    1.60    2.50
   1  15   6    0.10    1.00
  -1  15  -6   -0.10    1.40
   2 -16  -6   52.49    6.90
  -2 -16   6   67.39    6.20
  -2  16   6   48.00    8.30
  -2  16   6   58.89    8.70
  -1 -16   6   32.60    4.50
   1 -16  -6   30.50    4.90
  -1  16   6   37.40    6.10
   1  16  -6   35.60    5.20
   0 -16   6   16.10    3.00
   0  16  -6   10.50    3.00
  -1 -16  -6   17.20    4.30
   1 -16   6   23.70    4.10
  -1  16  -6   12.40    3.20
   1  16   6   16.00    2.90
  -2 -17   6    8.10    2.60
   2 -17  -6   16.60    3.90
  -2  17   6   10.00    3.90
  -1 -17   6  338.37   23.30
   1 -17  -6  341.87   23.90
   1  17  -6  349.96   23.90
  -1  17   6  264.57   24.20
   0 -17   6    5.40    2.10
   0  17  -6    7.80    2.70
   1 -17   6  142.39   10.80
  -1 -17  -6  111.19   11.30
  -1  17  -6  117.59   10.50
   1  17   6  110.89    9.40
   1 -18  -6    8.10    2.70
  -1 -18   6    9.20    2.50
  -1  18   6    4.40    2.70
   1  18  -6    4.60    2.50
   0  18  -6  235.48   18.10
   1 -18   6   21.70    4.50
  -1 -18  -6   14.80    4.40
  -1  18  -6   15.50    3.60
   1 -19  -6    0.20    1.80
  -1 -19   6    1.30    1.50
  -1  19   6    1.10    2.20
   1  19  -6    3.80    2.20
   0  19  -6    4.20    2.30
   0  20  -6  165.38   13.70
  -2   0   7   -1.10    1.00
   2   0  -7   -0.90    1.60
  -1   0   7   37.50    4.90
   1   0  -7   41.50    5.70
   0   0  -7   -0.90    1.40
   0   0   7   -0.30    1.10
  -1   0  -7  203.48   15.10
   1   0   7  171.98   14.00
  -2  -1   7  164.08   13.00
   2  -1  -7  173.48   13.60
  -2   1   7  157.58   13.00
   2   1  -7  174.38   13.60
   1  -1  -7   11.50    3.00
  -1  -1   7    9.80    2.40
  -1   1   7    8.90    2.40
   1   1  -7    8.30    2.70
   0  -1  -7    7.60    2.50
   0  -1   7   11.80    2.60
   0   1   7   20.10    3.30
   0   1  -7    7.20    2.50
   1  -1   7    3.90    1.70
  -1  -1  -7    1.70    2.10
  -1   1  -7    5.90    2.30
   1   1   7    5.40    2.00
  -2  -2   7    5.00    1.90
   2  -2  -7    4.40    2.20
   2   2  -7    5.40    2.40
  -2   2   7    8.80    2.40
   1  -2  -7   59.29    7.20
  -1  -2   7   63.99    6.00
  -1   2   7   60.89    6.00
   1   2  -7   55.69    6.90
   0  -2   7    6.20    2.00
   0  -2  -7    7.60    2.50
   0   2  -7    2.50    1.90
   0   2   7    7.80    2.20
   1  -2   7  147.19   10.90
  -1  -2  -7  145.09   11.50
  -1   2  -7  130.49   11.40
   1   2   7  116.69   10.50
   2  -3  -7  160.18   14.10
  -2  -3   7  185.28   13.90
   2   3  -7  175.98   14.30
  -2   3   7  195.28   14.00
   1  -3  -7   62.39    7.30
  -1  -3   7   68.69    6.30
   1   3  -7   69.79    6.80
  -1   3   7   55.69    6.00
   0  -3  -7   32.40    4.90
   0  -3   7   29.90    4.20
   0   3   7   29.70    4.20
   0   3  -7   35.90    5.20
  -1  -3  -7  186.48   13.90
   1  -3   7  154.78   12.90
  -1   3  -7  181.38   13.90
   1   3   7  160.28   12.90
   2  -4  -7   55.19    6.70
  -2  -4   7   64.29    5.80
   2   4  -7   45.40    6.40
  -2   4   7   47.10    5.90
   1  -4  -7   32.90    5.00
  -1  -4   7   36.30    4.70
   1   4  -7   34.50    5.10
  -1   4   7   25.80    4.10
   0  -4  -7    2.60    2.00
   0  -4   7    5.20    1.90
   0   4   7    6.30    2.00
   0   4  -7   10.80    2.90
  -1  -4  -7   72.79    7.40
   1  -4   7   76.29    6.90
  -1   4  -7   76.69    7.50
   1   4   7   77.29    6.90
  -2  -5   7   40.20    5.40
   2  -5  -7   52.19    6.40
  -2   5   7   55.09    6.00
   2   5  -7   46.70    6.30
   1  -5  -7  158.18   13.00
  -1  -5   7  153.78   12.50
   1   5  -7  162.78   13.00
  -1   5   7  163.08   12.60
   0  -5  -7  111.59    9.90
   0  -5   7  108.89    9.30
   0   5  -7  117.09   10.10
   0   5   7  113.29    9.40
   1  -5   7  165.48   13.20
  -1  -5  -7  185.48   14.10
   1   5   7  165.78   13.20
  -1   5  -7  173.88   14.00
   2  -6  -7    9.10    2.80
  -2  -6   7    9.50    2.50
  -2   6   7    9.90    2.50
   2   6  -7    9.20    3.00
   1  -6  -7  185.78   15.50
  -1  -6   7  195.28   15.10
   1   6  -7  213.08   15.80
  -1   6   7  203.68   15.20
   0  -6  -7   23.60    4.30
   0  -6   7   16.20    3.30
   0   6   7   21.10    3.50
   0   6  -7   25.70    4.40
  -1  -6  -7   54.69    6.80
   1  -6   7   49.10    5.80
  -1   6  -7   56.49    7.00
   1   6   7   58.29    5.60
   2  -7  -7    0.70    1.90
  -2  -7   7    1.70    1.60
  -2   7   7    0.30    1.20
   2   7  -7   -0.70    1.90
   1  -7  -7   74.09    7.50
  -1  -7   7   73.99    6.90
  -1   7   7   69.99    6.80
   1   7  -7   74.39    7.40
   0  -7   7   94.09    7.90
   0  -7  -7   73.59    8.10
   0   7   7   84.69    7.70
   0   7  -7  102.99    8.70
   1  -7   7  193.98   14.50
  -1  -7  -7  201.88   15.20
  -1   7  -7  192.88   15.20
   1   7   7  171.88   14.20
  -2  -8   7   79.99    7.10
   2  -8  -7   62.69    7.80
  -2   8   7   66.99    6.60
   2   8  -7   74.99    7.40
  -1  -8   7   74.99    7.10
   1  -8  -7   74.89    7.60
  -1   8   7   75.69    7.10
   1   8  -7   87.59    8.00
   0  -8  -7   75.79    7.20
   0  -8   7   69.99    6.40
   0   8  -7   60.29    7.40
   0   8   7   57.29    6.00
   1  -8   7   36.10    4.60
  -1   8  -7   30.70    5.10
   1   8   7   29.80    4.40
  -2  -9   7  318.97   23.20
   2  -9  -7  289.77   23.50
   2   9  -7  354.76   23.90
   1  -9  -7    5.50    2.60
  -1  -9   7    4.40    2.10
   1   9  -7    2.80    2.00
  -1   9   7    5.60    1.90
   0  -9  -7   61.19    7.30
   0  -9   7   55.39    6.50
   0   9   7   57.89    5.80
   0   9  -7   68.69    7.70
   1  -9   7    5.80    2.10
   1   9   7    1.30    1.50
  -1   9  -7    4.30    2.30
   2 -10  -7    8.40    3.00
  -2 -10   7   12.20    2.90
   2  10  -7   13.50    3.50
  -1 -10   7    2.10    1.50
   1 -10  -7    0.80    1.80
   1  10  -7    2.50    2.10
  -1  10   7    0.00    1.50
   0 -10  -7  156.28   12.40
   0 -10   7  159.78   11.90
   0  10  -7  151.08   12.40
   0  10   7  125.09   11.30
   1 -10   7    0.70    1.40
   1  10   7    0.80    1.30
  -1  10  -7    0.70    1.60
  -1 -11   7   51.29    6.00
   1 -11  -7   50.09    6.50
  -1  11   7   45.80    5.70
   1  11  -7   54.89    6.80
   0 -11  -7   76.59    7.90
   0 -11   7   87.29    7.50
   0  11   7   75.29    7.10
   0  11  -7   84.59    8.20
   1 -11   7   40.80    5.10
   1  11   7   28.70    4.30
  -1  11  -7   41.60    6.00
  -1 -12   7  294.47   22.00
   1 -12  -7  289.07   22.50
   1  12  -7  328.07   22.90
   0 -12   7    2.60    1.70
   0 -12  -7    0.80    1.90
   0  12  -7    1.90    2.30
   0  12   7    1.80    1.40
  -1 -13   7   -0.10    1.40
   1 -13  -7   -0.70    1.70
   1  13  -7    0.50    2.00
   0 -13   7    7.80    2.50
   0 -13  -7   14.60    3.60
   0  13   7    7.60    2.20
   0  13  -7    7.90    3.00
  -1 -14   7   47.70    5.80
   1 -14  -7   47.60    6.50
   1  14  -7   46.30    6.50
   0 -14   7   15.40    3.40
   0  14  -7   15.20    3.90
   0  14   7   20.70    3.40
   0   0   0    0.00    0.00

_computing_structure_solution     'SHELXT 2014/5 (Sheldrick, 2014)'
;
_shelx_hkl_checksum              32023
_olex2_submission_special_instructions 'No special instructions were received'
loop_
_space_group_symop_operation_xyz
'x, y, z'
'-x+1/2, y+1/2, -z+1/2'
'-x, -y, -z'
'x-1/2, -y-1/2, z-1/2'
loop_
_atom_site_label
_atom_site_type_symbol
_atom_site_fract_x
_atom_site_fract_y
_atom_site_fract_z
_atom_site_U_iso_or_equiv
_atom_site_adp_type
_atom_site_occupancy
_atom_site_site_symmetry_order
_atom_site_calc_flag
_atom_site_refinement_flags_posn
S1 S 0.49651(10) 0.67209(2) 0.41962(6) 0.01641(14) Uani 1 1 d .
F1 F 0.2030(2) 0.52835(4) 0.86757(15) 0.0186(2) Uani 1 1 d .
F2 F 0.2862(2) 0.42307(4) 0.78299(14) 0.0183(2) Uani 1 1 d .
N1 N 0.2649(4) 0.69927(6) 0.7847(2) 0.0197(3) Uani 1 1 d .
C1 C 0.4032(4) 0.61846(6) 0.5963(2) 0.0135(3) Uani 1 1 d .
C2 C 0.2833(4) 0.64205(7) 0.7813(3) 0.0174(3) Uani 1 1 d .
H2 H 0.217360 0.619796 0.899310 0.021 Uiso 1 1 calc R
C3 C 0.3695(4) 0.71982(7) 0.6045(3) 0.0187(3) Uani 1 1 d .
H3 H 0.374829 0.758998 0.577587 0.022 Uiso 1 1 calc R
C4 C 0.4528(4) 0.55917(6) 0.5480(2) 0.0125(3) Uani 1 1 d .
C5 C 0.3545(4) 0.51615(6) 0.6840(2) 0.0134(3) Uani 1 1 d .
C6 C 0.3984(4) 0.46017(6) 0.6388(2) 0.0135(3) Uani 1 1 d .
loop_
_atom_site_aniso_label
_atom_site_aniso_U_11
_atom_site_aniso_U_22
_atom_site_aniso_U_33
_atom_site_aniso_U_23
_atom_site_aniso_U_13
_atom_site_aniso_U_12
S1 0.0196(2) 0.0120(2) 0.0183(2) 0.00294(13) 0.00552(15) -0.00011(13)
F1 0.0253(5) 0.0168(5) 0.0152(5) 0.0012(3) 0.0097(4) -0.0008(4)
F2 0.0256(5) 0.0139(5) 0.0163(4) 0.0044(3) 0.0079(4) -0.0029(4)
N1 0.0231(7) 0.0151(7) 0.0210(7) -0.0010(5) 0.0030(5) -0.0001(5)
C1 0.0124(7) 0.0136(7) 0.0143(7) 0.0018(6) 0.0005(5) -0.0008(5)
C2 0.0208(8) 0.0151(7) 0.0163(7) 0.0010(6) 0.0026(6) 0.0000(6)
C3 0.0196(8) 0.0140(7) 0.0225(8) -0.0003(6) 0.0024(6) 0.0000(6)
C4 0.0112(7) 0.0130(7) 0.0128(7) 0.0019(5) -0.0015(5) -0.0007(5)
C5 0.0121(7) 0.0168(7) 0.0115(7) 0.0005(6) 0.0023(5) -0.0006(5)
C6 0.0127(7) 0.0154(7) 0.0124(7) 0.0057(5) 0.0009(5) -0.0025(5)
loop_
_atom_type_symbol
_atom_type_description
_atom_type_scat_dispersion_real
_atom_type_scat_dispersion_imag
_atom_type_scat_source
C C 0.0033 0.0016 'International Tables Vol C Tables 4.2.6.8 and 6.1.1.4'
H H 0.0000 0.0000 'International Tables Vol C Tables 4.2.6.8 and 6.1.1.4'
F F 0.0171 0.0103 'International Tables Vol C Tables 4.2.6.8 and 6.1.1.4'
N N 0.0061 0.0033 'International Tables Vol C Tables 4.2.6.8 and 6.1.1.4'
S S 0.1246 0.1234 'International Tables Vol C Tables 4.2.6.8 and 6.1.1.4'
loop_
_geom_angle_atom_site_label_1
_geom_angle_atom_site_label_2
_geom_angle_atom_site_label_3
_geom_angle
_geom_angle_site_symmetry_1
_geom_angle_site_symmetry_3
C3 S1 C1 89.47(8) . .
C3 N1 C2 109.98(13) . .
C2 C1 S1 108.32(11) . .
C2 C1 C4 128.33(14) . .
C4 C1 S1 123.34(11) . .
N1 C2 C1 116.19(14) . .
N1 C2 H2 121.9 . .
C1 C2 H2 121.9 . .
S1 C3 H3 122.0 . .
N1 C3 S1 116.04(12) . .
N1 C3 H3 122.0 . .
C5 C4 C1 122.93(13) . .
C5 C4 C6 113.42(13) . 3_666
C6 C4 C1 123.65(13) 3_666 .
F1 C5 C4 120.10(13) . .
F1 C5 C6 116.62(13) . .
C6 C5 C4 123.27(14) . .
F2 C6 C4 119.77(13) . 3_666
F2 C6 C5 116.91(13) . .
C5 C6 C4 123.32(14) . 3_666
loop_
_geom_bond_atom_site_label_1
_geom_bond_atom_site_label_2
_geom_bond_distance
_geom_bond_site_symmetry_2
S1 C1 1.7349(15) .
S1 C3 1.7085(16) .
F1 C5 1.3451(17) .
F2 C6 1.3493(16) .
N1 C2 1.368(2) .
N1 C3 1.305(2) .
C1 C2 1.381(2) .
C1 C4 1.462(2) .
C2 H2 0.9500 .
C3 H3 0.9500 .
C4 C5 1.396(2) .
C4 C6 1.404(2) 3_666
C5 C6 1.378(2) .
loop_
_geom_torsion_atom_site_label_1
_geom_torsion_atom_site_label_2
_geom_torsion_atom_site_label_3
_geom_torsion_atom_site_label_4
_geom_torsion
_geom_torsion_site_symmetry_1
_geom_torsion_site_symmetry_4
S1 C1 C2 N1 0.05(17) . .
S1 C1 C4 C5 -175.43(11) . .
S1 C1 C4 C6 4.3(2) . 3_666
F1 C5 C6 F2 -0.2(2) . .
F1 C5 C6 C4 179.01(12) . 3_666
C1 S1 C3 N1 0.03(13) . .
C1 C4 C5 F1 0.8(2) . .
C1 C4 C5 C6 179.56(14) . .
C2 N1 C3 S1 -0.01(17) . .
C2 C1 C4 C5 5.3(2) . .
C2 C1 C4 C6 -175.00(15) . 3_666
C3 S1 C1 C2 -0.05(12) . .
C3 S1 C1 C4 -179.48(13) . .
C3 N1 C2 C1 -0.03(19) . .
C4 C1 C2 N1 179.45(14) . .
C4 C5 C6 F2 -178.95(12) . .
C4 C5 C6 C4 0.2(3) . 3_666
C6 C4 C5 F1 -178.95(12) 3_666 .
C6 C4 C5 C6 -0.2(2) 3_666 .
