#------------------------------------------------------------------------------
#$Date: 2019-11-24 08:24:24 +0200 (Sun, 24 Nov 2019) $
#$Revision: 237291 $
#$URL: file:///home/coder/svn-repositories/cod/cif/1/55/45/1554500.cif $
#------------------------------------------------------------------------------
#
# This file is available in the Crystallography Open Database (COD),
# http://www.crystallography.net/
#
# All data on this site have been placed in the public domain by the
# contributors.
#
data_1554500
loop_
_publ_author_name
'Zhang, Dong-Liang'
'Li, Cheng-Kun'
'Zeng, Run-Sheng'
'Shoberu, Adedamola'
'Zou, Jian-Ping'
_publ_section_title
;
 Manganese(iii)-mediated selective phosphorylation of enamides: direct
 synthesis of \b-phosphoryl enamides
;
_journal_issue                   2
_journal_name_full               'Organic Chemistry Frontiers'
_journal_page_first              236
_journal_paper_doi               10.1039/C8QO01098F
_journal_volume                  6
_journal_year                    2019
_chemical_formula_moiety         'C27 H22 N O2 P'
_chemical_formula_sum            'C27 H22 N O2 P'
_chemical_formula_weight         423.43
_chemical_properties_physical    ', Heat-sensitive,Light-sensitive'
_space_group_crystal_system      triclinic
_space_group_IT_number           1
_space_group_name_Hall           'P 1'
_space_group_name_H-M_alt        'P 1'
_atom_sites_solution_hydrogens   geom
_audit_creation_method           SHELXL-2014/7
_audit_update_record
;
2017-03-14 deposited with the CCDC.
2018-12-11 downloaded from the CCDC.
;
_cell_angle_alpha                75.005(3)
_cell_angle_beta                 76.437(3)
_cell_angle_gamma                89.090(3)
_cell_formula_units_Z            1
_cell_length_a                   6.0253(6)
_cell_length_b                   9.0011(9)
_cell_length_c                   10.3679(11)
_cell_measurement_reflns_used    4758
_cell_measurement_temperature    120(2)
_cell_measurement_theta_max      28.27
_cell_measurement_theta_min      2.34
_cell_volume                     527.40(9)
_computing_structure_refinement  'SHELXL-2014/7 (Sheldrick, 2014)'
_diffrn_ambient_temperature      120(2)
_diffrn_measured_fraction_theta_full 0.998
_diffrn_measured_fraction_theta_max 0.995
_diffrn_measurement_device_type  'Bruker APEX-II CCD'
_diffrn_radiation_type           MoK\a
_diffrn_radiation_wavelength     0.71073
_diffrn_reflns_av_R_equivalents  0.0304
_diffrn_reflns_av_unetI/netI     0.0601
_diffrn_reflns_Laue_measured_fraction_full 0.998
_diffrn_reflns_Laue_measured_fraction_max 0.995
_diffrn_reflns_limit_h_max       7
_diffrn_reflns_limit_h_min       -8
_diffrn_reflns_limit_k_max       11
_diffrn_reflns_limit_k_min       -12
_diffrn_reflns_limit_l_max       13
_diffrn_reflns_limit_l_min       -13
_diffrn_reflns_number            8754
_diffrn_reflns_point_group_measured_fraction_full 0.986
_diffrn_reflns_point_group_measured_fraction_max 0.972
_diffrn_reflns_theta_full        25.242
_diffrn_reflns_theta_max         28.306
_diffrn_reflns_theta_min         2.345
_exptl_absorpt_coefficient_mu    0.155
_exptl_absorpt_correction_T_max  0.977
_exptl_absorpt_correction_T_min  0.963
_exptl_crystal_colour            colourless
_exptl_crystal_density_diffrn    1.333
_exptl_crystal_description       block
_exptl_crystal_F_000             222
_exptl_crystal_recrystallization_method 'Re-crystallisation from solvent'
_exptl_crystal_size_max          0.300
_exptl_crystal_size_mid          0.200
_exptl_crystal_size_min          0.150
_refine_diff_density_max         0.264
_refine_diff_density_min         -0.277
_refine_diff_density_rms         0.050
_refine_ls_abs_structure_details
;
 Flack x determined using 1917 quotients [(I+)-(I-)]/[(I+)+(I-)]
 (Parsons, Flack and Wagner, Acta Cryst. B69 (2013) 249-259).
;
_refine_ls_abs_structure_Flack   0.06(4)
_refine_ls_extinction_method     none
_refine_ls_goodness_of_fit_ref   1.067
_refine_ls_hydrogen_treatment    constr
_refine_ls_matrix_type           full
_refine_ls_number_parameters     280
_refine_ls_number_reflns         5091
_refine_ls_number_restraints     3
_refine_ls_restrained_S_all      1.067
_refine_ls_R_factor_all          0.0488
_refine_ls_R_factor_gt           0.0427
_refine_ls_shift/su_max          0.000
_refine_ls_shift/su_mean         0.000
_refine_ls_structure_factor_coef Fsqd
_refine_ls_weighting_details
'w=1/[\s^2^(Fo^2^)+(0.0303P)^2^+0.1175P] where P=(Fo^2^+2Fc^2^)/3'
_refine_ls_weighting_scheme      calc
_refine_ls_wR_factor_gt          0.0850
_refine_ls_wR_factor_ref         0.0879
_reflns_Friedel_coverage         0.953
_reflns_Friedel_fraction_full    0.974
_reflns_Friedel_fraction_max     0.948
_reflns_number_gt                4703
_reflns_number_total             5236
_reflns_threshold_expression     'I > 2\s(I)'
_cod_data_source_file            c8qo01098f2.cif
_cod_data_source_block           mo_zdl3_0m_a
_cod_original_formula_sum        ' C27 H22 N O2 P'
_cod_database_code               1554500
_shelx_shelxl_version_number     2014/7
_shelx_space_group_comment
;
The symmetry employed for this shelxl refinement is uniquely defined
by the following loop, which should always be used as a source of
symmetry information in preference to the above space-group names.
They are only intended as comments.
;
_shelx_estimated_absorpt_t_min   0.955
_shelx_estimated_absorpt_t_max   0.977
_shelx_res_file
;

    mo_zdl3_0m_a.res created by SHELXL-2014/7


TITL mo_zdl3_0m_a.res in P1
REM Old TITL mo_zdl3_0m in P1

REM SHELXT solution in P1
REM R1 0.069,  Rweak 0.041,  Alpha 0.000,  Orientation as input
REM Flack x =  0.044 ( 0.042 ) from Parsons' quotients
REM Formula found by SHELXT:  C27 N O2 P

CELL  0.71073   6.0253   9.0011  10.3679   75.005   76.437   89.090
ZERR    8.000   0.0006   0.0009   0.0011    0.003    0.003    0.003
LATT -1
SFAC C H N O P
UNIT 27 22 1 2 1
TEMP -153.140
L.S. 10
BOND $H
LIST 4
omit     0   0   1
omit     0   0  -1
omit 0 1 0
acta
htab
EQIV $1 x+1, y, z
HTAB C17 O2_$1
conf
size 0.2 0.15 0.3
FMAP 2
PLAN 20
WGHT    0.030300    0.117500
FVAR       1.37073
P1    5    0.167693    0.513355    0.389673    11.00000    0.01255    0.01225 =
         0.01398   -0.00382   -0.00533    0.00215
N1    3    0.527068    0.405902    0.682459    11.00000    0.02074    0.01462 =
         0.01477   -0.00427   -0.00730   -0.00021
AFIX  43
H1    2    0.517102    0.487207    0.715423    11.00000   -1.20000
AFIX   0
O1    4    0.656832    0.166554    0.700686    11.00000    0.03191    0.01588 =
         0.02430   -0.00705   -0.01448    0.00554
C1    1    0.778362    0.312254    0.835182    11.00000    0.01659    0.01499 =
         0.01275   -0.00205   -0.00303   -0.00057
O2    4   -0.080445    0.543756    0.421973    11.00000    0.01464    0.02064 =
         0.02372   -0.00864   -0.00624    0.00478
C2    1    0.943449    0.208361    0.867056    11.00000    0.02013    0.02059 =
         0.01950   -0.00472   -0.00688    0.00386
AFIX  43
H2    2    0.965410    0.122801    0.828429    11.00000   -1.20000
AFIX   0
C3    1    1.075474    0.228134    0.954008    11.00000    0.02352    0.02597 =
         0.02211   -0.00202   -0.01003    0.00481
AFIX  43
H3    2    1.188309    0.156893    0.974628    11.00000   -1.20000
AFIX   0
C4    1    1.043036    0.352200    1.011183    11.00000    0.02865    0.02986 =
         0.01912   -0.00365   -0.01249   -0.00304
AFIX  43
H4    2    1.135208    0.366818    1.070137    11.00000   -1.20000
AFIX   0
C5    1    0.877418    0.454488    0.982781    11.00000    0.03736    0.02344 =
         0.02428   -0.01184   -0.01148    0.00200
AFIX  43
H5    2    0.854428    0.538599    1.023273    11.00000   -1.20000
AFIX   0
C6    1    0.744520    0.435311    0.895634    11.00000    0.02701    0.01678 =
         0.02166   -0.00559   -0.00856    0.00668
AFIX  43
H6    2    0.630033    0.505885    0.876820    11.00000   -1.20000
AFIX   0
C7    1    0.649697    0.286570    0.735264    11.00000    0.01516    0.01460 =
         0.01290   -0.00197   -0.00201    0.00073
C8    1    0.417607    0.404787    0.579328    11.00000    0.01854    0.01379 =
         0.01342   -0.00312   -0.00390   -0.00131
AFIX  43
H8    2    0.419836    0.314148    0.548319    11.00000   -1.20000
AFIX   0
C9    1    0.308189    0.525659    0.520785    11.00000    0.01443    0.01595 =
         0.01372   -0.00373   -0.00524   -0.00012
C10   1    0.298307    0.672931    0.561754    11.00000    0.01884    0.01376 =
         0.00936   -0.00106   -0.00582    0.00168
C11   1    0.498456    0.759510    0.546641    11.00000    0.01464    0.01817 =
         0.01796   -0.00564   -0.00443    0.00410
AFIX  43
H11   2    0.642330    0.725837    0.506795    11.00000   -1.20000
AFIX   0
C12   1    0.488589    0.893167    0.589067    11.00000    0.01823    0.01907 =
         0.01736   -0.00508   -0.00503   -0.00048
AFIX  43
H12   2    0.625771    0.950002    0.579290    11.00000   -1.20000
AFIX   0
C13   1    0.280263    0.945090    0.645783    11.00000    0.02911    0.01573 =
         0.01585   -0.00607   -0.00755    0.00398
AFIX  43
H13   2    0.274112    1.037394    0.674532    11.00000   -1.20000
AFIX   0
C14   1    0.080866    0.861378    0.660278    11.00000    0.01938    0.02598 =
         0.02046   -0.00942   -0.00496    0.00679
AFIX  43
H14   2   -0.062451    0.896878    0.698746    11.00000   -1.20000
AFIX   0
C15   1    0.088774    0.726383    0.619148    11.00000    0.01657    0.02185 =
         0.01906   -0.00770   -0.00548    0.00234
AFIX  43
H15   2   -0.049042    0.669699    0.629987    11.00000   -1.20000
AFIX   0
C16   1    0.321446    0.649571    0.234304    11.00000    0.02004    0.01200 =
         0.01282   -0.00530   -0.00290    0.00242
C17   1    0.542897    0.708247    0.213041    11.00000    0.01731    0.01849 =
         0.01767   -0.00149   -0.00532    0.00331
AFIX  43
H17   2    0.625226    0.676391    0.282463    11.00000   -1.20000
AFIX   0
C18   1    0.643005    0.813631    0.089809    11.00000    0.02100    0.01919 =
         0.02581   -0.00049   -0.00176    0.00338
AFIX  43
H18   2    0.793468    0.854877    0.075992    11.00000   -1.20000
AFIX   0
C19   1    0.527440    0.859306   -0.012758    11.00000    0.02926    0.01912 =
         0.01906    0.00055    0.00069    0.00439
AFIX  43
H19   2    0.597638    0.931727   -0.096597    11.00000   -1.20000
AFIX   0
C20   1    0.307898    0.798932    0.007075    11.00000    0.03744    0.02694 =
         0.02000   -0.00171   -0.01478    0.00637
AFIX  43
H20   2    0.228361    0.828109   -0.063960    11.00000   -1.20000
AFIX   0
C21   1    0.205029    0.695920    0.130863    11.00000    0.02533    0.02129 =
         0.01910   -0.00316   -0.01088    0.00114
AFIX  43
H21   2    0.053321    0.656611    0.145100    11.00000   -1.20000
AFIX   0
C22   1    0.216658    0.329038    0.352750    11.00000    0.02053    0.01088 =
         0.01264   -0.00326   -0.00655    0.00249
C23   1    0.028097    0.227015    0.381270    11.00000    0.01668    0.02096 =
         0.01632   -0.00279   -0.00387   -0.00117
AFIX  43
H23   2   -0.118093    0.251255    0.427396    11.00000   -1.20000
AFIX   0
C24   1    0.430356    0.291454    0.285589    11.00000    0.01615    0.01692 =
         0.02317   -0.00255   -0.00531    0.00041
AFIX  43
H24   2    0.559295    0.359887    0.266614    11.00000   -1.20000
AFIX   0
C25   1    0.456045    0.155163    0.246349    11.00000    0.02448    0.02007 =
         0.02506   -0.00832   -0.00614    0.00864
AFIX  43
H25   2    0.601884    0.130523    0.200099    11.00000   -1.20000
AFIX   0
C26   1    0.267699    0.054480    0.274856    11.00000    0.03519    0.01430 =
         0.02214   -0.00613   -0.01098    0.00526
AFIX  43
H26   2    0.284803   -0.039200    0.248200    11.00000   -1.20000
AFIX   0
C27   1    0.054759    0.090798    0.342229    11.00000    0.02816    0.01903 =
         0.01922   -0.00307   -0.00761   -0.00374
AFIX  43
H27   2   -0.073516    0.021670    0.361661    11.00000   -1.20000
REM #####
AFIX   0
HKLF 4

REM  mo_zdl3_0m_a.res in P1
REM R1 =  0.0427 for    4703 Fo > 4sig(Fo)  and  0.0488 for all    5091 data
REM    280 parameters refined using      3 restraints

END

WGHT      0.0303      0.1175

REM Instructions for potential hydrogen bonds
HTAB C17 O2_$1

REM Highest difference peak  0.264,  deepest hole -0.277,  1-sigma level  0.050
Q1    1   0.2041  0.5202  0.4737  11.00000  0.05    0.26
Q2    1   0.0378  0.5685  0.3939  11.00000  0.05    0.26
Q3    1   0.2795  0.5639  0.2954  11.00000  0.05    0.23
Q4    1   0.8179  0.4047  0.8275  11.00000  0.05    0.22
Q5    1   0.1855  0.8649  0.6995  11.00000  0.05    0.21
Q6    1   0.1141  0.2947  0.3213  11.00000  0.05    0.21
Q7    1   0.3161  0.3171  0.2825  11.00000  0.05    0.20
Q8    1   0.7307  0.2989  0.7860  11.00000  0.05    0.20
Q9    1   0.0909  0.8230  0.6052  11.00000  0.05    0.20
Q10   1   0.3420  0.6210  0.4992  11.00000  0.05    0.20
Q11   1   0.2081  0.6805  0.6321  11.00000  0.05    0.20
Q12   1   0.2393  0.6113  0.3215  11.00000  0.05    0.19
Q13   1   0.3204  0.8770 -0.1208  11.00000  0.05    0.19
Q14   1   0.0586  0.4163  0.2725  11.00000  0.05    0.18
Q15   1   1.0338  0.1818  0.7964  11.00000  0.05    0.18
Q16   1   0.1715  0.0472  0.3444  11.00000  0.05    0.18
Q17   1   0.4544  0.4002  0.6378  11.00000  0.05    0.18
Q18   1   0.1470  0.3949  0.4101  11.00000  0.05    0.18
Q19   1   0.4640  0.2800  0.5422  11.00000  0.05    0.17
Q20   1  -0.1485  0.4413  0.4812  11.00000  0.05    0.17
;
_shelx_res_checksum              13201
_shelx_hkl_file
;
  -1   0   0 1706.43   33.40
  -1   0   0 1769.12   30.20
  -1   0   0 1801.32   27.20
  -1   0   0 1746.93   33.50
   1   0   0 1706.13   33.00
   1   0   0 1585.04   29.90
   1   0   0 1818.22   27.20
   1   0   0 1772.32   34.10
  -2   0   0  436.36   17.10
  -2   0   0  455.65    9.80
  -2   0   0  452.45   17.20
  -2   0   0  432.76   13.40
   2   0   0  411.36   16.20
   2   0   0  455.65   17.80
   2   0   0  437.16   14.00
   2   0   0  453.45   10.00
  -3   0   0  106.59    7.10
  -3   0   0  113.89    9.90
  -3   0   0  103.99    4.60
  -3   0   0  110.99   10.00
   3   0   0  112.29    4.90
   3   0   0  120.39    8.30
   3   0   0  119.49   10.00
  -4   0   0   27.10    2.70
  -4   0   0   28.70    7.10
  -4   0   0   31.10    4.20
   4   0   0   31.20    5.90
   4   0   0   34.40    2.80
  -5   0   0  130.89    6.70
  -5   0   0  150.88   18.50
  -5   0   0  146.19    9.90
  -5   0   0  134.39   14.50
   5   0   0  144.49   13.00
   5   0   0  139.89    7.10
  -6   0   0   26.50    8.40
  -6   0   0   21.50    4.80
   6   0   0   24.60    4.00
  -7   0   0  131.09   10.10
  -7   0   0   98.29   18.30
   7   0   0  109.39    8.00
   7  -1   0   85.89    7.20
  -7   1   0   82.69   16.10
  -7   1   0   92.29    9.60
   6  -1   0   19.60    4.90
  -6   1   0   11.50    5.80
  -6   1   0   16.10    4.30
   5  -1   0   37.40    3.50
  -5   1   0   34.60    3.50
  -5   1   0   39.70    6.90
  -5   1   0   33.30    8.70
   4  -1   0  149.29   11.10
   4  -1   0  157.28    6.60
   4  -1   0  156.68   13.30
  -4   1   0  141.69    6.10
  -4   1   0  145.29   10.60
  -4   1   0  150.38   13.50
  -4   1   0  150.08   15.70
   3  -1   0 1210.28   32.80
   3  -1   0 1267.97   23.40
   3  -1   0 1223.78   36.70
  -3   1   0 1251.97   43.40
  -3   1   0 1194.68   36.90
  -3   1   0 1240.58   32.50
  -3   1   0 1269.77   38.30
  -3   1   0 1226.98   22.90
   2  -1   0  151.38    8.50
   2  -1   0  144.09    9.40
  -2   1   0  150.68    9.90
  -2   1   0  134.19    8.10
  -2   1   0  138.49    9.30
  -2   1   0  154.68    4.70
  -2   1   0  149.39   11.80
   1  -1   0 2083.59   43.90
   1  -1   0 2072.99   47.30
   1  -1   0 2256.57   34.90
   1  -1   0 2225.68   41.60
  -1   1   0 2226.18   40.80
  -1   1   0 2197.58   62.59
  -1   1   0 2228.88   34.70
  -1   1   0 2304.67   34.70
  -1   1   0 2344.77   43.20
   0  -1   0 1130.99   22.70
   0  -1   0  970.00   20.00
   0   1   0  852.41   16.10
  -1  -1   0  471.75   13.60
  -1  -1   0  474.95    9.70
   1   1   0  476.35    9.90
   1   1   0  468.55   13.70
   1   1   0  477.45   10.10
  -2  -1   0  434.46   10.40
  -2  -1   0  428.06   11.50
  -2  -1   0  430.66   17.00
  -2  -1   0  450.55   17.10
   2   1   0  436.96   12.70
   2   1   0  444.26   10.50
   2   1   0  439.96   17.60
  -3  -1   0  103.89    5.00
  -3  -1   0  102.79    6.10
  -3  -1   0  104.19    9.60
  -3  -1   0  106.79    9.50
   3   1   0  119.79   10.60
   3   1   0   96.99    7.10
   3   1   0  108.69    5.10
  -4  -1   0  540.35   17.50
  -4  -1   0  559.24   16.50
  -4  -1   0  518.95   25.80
   4   1   0  543.05   20.60
   4   1   0  536.85   14.70
  -5  -1   0 1014.70   24.20
  -5  -1   0 1047.10   28.00
  -5  -1   0  977.50   41.20
   5   1   0 1037.10   24.00
   5   1   0  985.10   33.10
  -6  -1   0  106.29   14.50
  -6  -1   0  132.49    9.00
   6   1   0  125.59    7.70
  -7  -1   0   92.79    8.10
  -7  -1   0   60.19   14.00
   7   1   0   77.59    7.20
   7  -2   0  181.18   10.00
  -7   2   0  207.28   18.00
  -7   2   0  210.98   22.00
  -7   2   0  196.28    9.40
   6  -2   0    3.90    2.00
  -6   2   0    1.20    2.10
  -6   2   0   10.60    3.30
  -6   2   0   -1.00    3.20
  -6   2   0   -0.80    4.00
   5  -2   0  110.79   12.80
   5  -2   0  128.59    6.90
  -5   2   0  126.39   14.00
  -5   2   0  135.69   11.60
  -5   2   0  124.19    6.30
   4  -2   0   68.89    4.50
   4  -2   0   55.99    7.90
   4  -2   0   79.19    9.20
  -4   2   0   77.39    9.80
  -4   2   0   79.09    8.00
  -4   2   0   67.29   12.90
  -4   2   0   63.39    4.00
   3  -2   0 1483.65   39.50
   3  -2   0 1528.15   27.70
   3  -2   0 1440.16   41.90
  -3   2   0 1438.76   38.90
  -3   2   0 1452.85   42.90
  -3   2   0 1383.36   26.40
  -3   2   0 1407.16   48.70
  -3   2   0 1496.65   43.80
  -3   2   0 1477.25   27.40
   2  -2   0  577.94   13.20
   2  -2   0  613.04   21.50
   2  -2   0  587.24   28.00
  -2   2   0  620.44   22.30
  -2   2   0  583.24   26.00
  -2   2   0  602.94   12.80
  -2   2   0  586.54   20.40
  -2   2   0  581.34   12.80
   1  -2   0  905.21   30.10
   1  -2   0  963.70   24.90
   1  -2   0  943.91   17.50
  -1   2   0  963.30   24.70
  -1   2   0  957.50   29.20
  -1   2   0  916.61   18.00
  -1   2   0  982.90   17.70
  -1   2   0  899.31   25.50
   0  -2   0  858.61   16.50
   0  -2   0  882.51   23.40
   0  -2   0  822.12   25.00
   0   2   0  852.31   21.80
   0   2   0  876.01   24.40
   0   2   0  881.61   16.60
  -1  -2   0  907.91   19.60
  -1  -2   0  916.21   18.20
  -1  -2   0  909.11   22.20
   1   2   0  932.81   18.30
   1   2   0  919.41   18.10
   1   2   0  949.80   22.60
  -2  -2   0  784.12   16.90
  -2  -2   0  753.82   23.70
  -2  -2   0  761.82   17.00
   2   2   0  783.82   17.00
   2   2   0  781.42   18.20
   2   2   0  809.92   25.10
  -3  -2   0   16.90    2.10
  -3  -2   0   19.40    4.80
  -3  -2   0   20.50    2.40
  -3  -2   0   28.20    6.10
   3   2   0   18.00    2.70
   3   2   0   17.50    5.10
   3   2   0   17.00    3.30
  -4  -2   0  223.88    9.00
  -4  -2   0  196.68   15.40
  -4  -2   0  209.58    9.20
   4   2   0  216.78    8.90
   4   2   0  223.08   12.40
  -5  -2   0  214.98   10.20
  -5  -2   0  212.68   18.10
   5   2   0  217.78    9.70
   5   2   0  214.38   14.10
  -6  -2   0   46.00   11.00
  -6  -2   0   58.09    5.50
   6   2   0   48.70    5.40
  -7  -2   0   92.19   17.10
   7   2   0  113.49    8.40
  -7   3   0   77.89    5.40
  -7   3   0   53.59   12.50
  -7   3   0   60.89   11.60
   6  -3   0   37.00   10.10
   6  -3   0   20.20    5.00
  -6   3   0   39.10    8.80
  -6   3   0   28.00    8.50
  -6   3   0   19.80    5.30
   5  -3   0   67.09    5.30
   5  -3   0   75.69   13.70
  -5   3   0   70.49    4.90
  -5   3   0   71.49    4.90
  -5   3   0   76.29    9.40
  -5   3   0   53.09   10.70
   4  -3   0  388.56   12.50
   4  -3   0  415.16   23.30
  -4   3   0  388.16   11.60
  -4   3   0  387.16   23.40
  -4   3   0  373.06   20.50
  -4   3   0  360.86   10.90
   3  -3   0  164.18   12.90
  -3   3   0  175.08    6.80
  -3   3   0  180.28   14.40
  -3   3   0  174.38    6.90
  -3   3   0  175.48   16.60
  -3   3   0  194.08   13.00
   2  -3   0  169.68    6.40
   2  -3   0  149.19   14.80
   2  -3   0  162.28   11.20
  -2   3   0  154.58    6.00
  -2   3   0  163.08    6.40
  -2   3   0  161.08   11.10
  -2   3   0  163.38   12.10
  -2   3   0  150.98   13.50
   1  -3   0  998.90   20.00
   1  -3   0  968.70   28.50
   1  -3   0 1017.90   35.90
  -1   3   0 1053.09   20.50
  -1   3   0  997.90   31.90
  -1   3   0 1003.80   32.50
   0  -3   0  386.46   19.00
   0  -3   0  420.86   18.20
   0  -3   0  436.56   11.20
   0   3   0  399.26   15.60
   0   3   0  408.66   11.00
   0   3   0  407.86   18.00
  -1  -3   0   83.29    4.60
  -1  -3   0   80.99    6.70
  -1  -3   0   84.09    6.40
   1   3   0   94.29    5.30
   1   3   0   86.49    6.20
  -2  -3   0  392.16   16.60
  -2  -3   0  381.96   12.70
  -2  -3   0  394.86   11.80
   2   3   0  391.66   11.80
   2   3   0  378.06   17.00
   2   3   0  396.76   11.90
  -3  -3   0   56.89    7.00
  -3  -3   0   49.60    6.80
  -3  -3   0   54.69    4.20
  -3  -3   0   53.79    4.20
   3   3   0   54.49    5.00
   3   3   0   47.40    6.80
   3   3   0   53.19    4.20
  -4  -3   0  310.47   19.50
  -4  -3   0  313.27   11.60
   4   3   0  315.97   11.90
   4   3   0  314.37   15.60
  -5  -3   0   39.40    4.30
  -5  -3   0   43.70    9.40
   5   3   0   33.80    5.10
   5   3   0   34.10    6.80
  -6  -3   0  212.08   10.60
  -6  -3   0  198.08   19.20
   6   3   0  203.68   10.90
  -7  -3   0   46.80    5.30
  -7  -3   0   29.30   13.40
   7   3   0   37.70    7.20
  -7   4   0   96.69   22.00
  -7   4   0   89.59   12.30
  -7   4   0  106.99    6.50
   6  -4   0    7.80    5.60
  -6   4   0   18.80    2.90
  -6   4   0   10.30    6.80
   5  -4   0  144.79   15.60
  -5   4   0  152.18   14.30
  -5   4   0  143.59   15.90
  -5   4   0  142.19    7.00
  -5   4   0  156.18    7.60
   4  -4   0  129.19   12.90
  -4   4   0  129.49   12.70
  -4   4   0  144.19    6.70
  -4   4   0  131.79    6.60
   3  -4   0   79.89   14.60
   3  -4   0   79.39   10.50
  -3   4   0   72.29    4.80
  -3   4   0   68.99    4.40
  -3   4   0   76.99    9.00
   2  -4   0  238.38    8.80
   2  -4   0  246.78   20.90
   2  -4   0  226.88   14.10
  -2   4   0  247.58    9.20
  -2   4   0  240.68    8.80
  -2   4   0  229.18   14.90
  -2   4   0  236.28   17.90
  -2   4   0  220.68   16.70
   1  -4   0  562.74   14.50
   1  -4   0  559.44   22.80
   1  -4   0  562.64   28.70
  -1   4   0  577.64   27.40
  -1   4   0  565.34   28.50
  -1   4   0  567.64   14.60
   0  -4   0   99.39    9.80
   0  -4   0   88.89   10.10
   0  -4   0   92.69    5.30
   0   4   0   84.69    9.00
   0   4   0   89.79    7.80
   0   4   0   89.69    5.20
  -1  -4   0  456.55   19.40
  -1  -4   0  444.06   22.10
  -1  -4   0  452.95   13.50
   1   4   0  460.15   16.90
   1   4   0  453.75   13.50
   1   4   0  448.16   14.90
  -2  -4   0  110.99    8.10
  -2  -4   0  117.79    9.30
  -2  -4   0  113.79    6.50
   2   4   0  122.29    6.60
   2   4   0  128.89    6.90
   2   4   0  134.99   14.70
  -3  -4   0   63.39    5.70
  -3  -4   0   72.39    8.20
   3   4   0   71.79    6.00
   3   4   0   75.59    5.30
  -4  -4   0  166.08    9.40
  -4  -4   0  142.69   13.10
   4   4   0  148.09    8.40
   4   4   0  161.28   10.80
  -5  -4   0    4.90    1.90
  -5  -4   0    6.80    4.50
   5   4   0    6.00    2.90
  -6  -4   0   42.90   10.90
  -6  -4   0   45.70    5.30
   6   4   0   32.30    5.80
  -7  -4   0   -1.90    6.20
   7   4   0    2.60    3.50
   7  -5   0   75.09   16.30
  -7   5   0   85.79   17.20
  -7   5   0   82.59   14.80
   6  -5   0    7.10    5.90
  -6   5   0   12.80    2.70
  -6   5   0   10.40    4.50
  -6   5   0   16.20    6.00
   5  -5   0   59.29   12.00
  -5   5   0   34.80    9.70
  -5   5   0   47.70   10.30
  -5   5   0   39.70    4.10
   4  -5   0  146.59   20.20
  -4   5   0  167.18    9.70
  -4   5   0  166.38   15.60
   3  -5   0  402.96   31.40
   3  -5   0  443.66   23.40
  -3   5   0  431.76   14.00
  -3   5   0  387.06   23.00
  -3   5   0  430.86   13.70
   2  -5   0  124.99   11.30
   2  -5   0  155.08   17.70
   2  -5   0  126.09    6.70
  -2   5   0  112.69   11.50
  -2   5   0  129.29    7.10
  -2   5   0  110.89    6.50
  -2   5   0  114.79   13.70
   1  -5   0  373.26   20.30
   1  -5   0  352.56   24.80
   1  -5   0  373.36   12.20
  -1   5   0  373.26   12.40
  -1   5   0  346.67   23.10
   0  -5   0  446.66   24.90
   0  -5   0  547.15   28.10
   0  -5   0  474.45   14.60
   0   5   0  481.75   15.00
   0   5   0  474.85   22.40
   0   5   0  479.55   20.70
  -1  -5   0  219.58   15.10
  -1  -5   0  199.58   17.40
   1   5   0  205.38   10.80
   1   5   0  204.08   12.00
  -2  -5   0  290.87   18.20
  -2  -5   0  281.87   16.20
   2   5   0  283.57   11.80
   2   5   0  286.57   11.60
   2   5   0  289.77   16.20
  -3  -5   0  146.79   12.70
  -3  -5   0  151.88   10.90
   3   5   0  163.68    8.80
   3   5   0  156.98    9.10
  -4  -5   0   66.89    9.70
   4   5   0   82.19    6.80
  -5  -5   0   33.50    6.20
  -5  -5   0   23.50    7.60
   5   5   0   20.50    4.50
  -6  -5   0   51.79   11.30
  -6  -5   0   48.80    6.30
   6   5   0   40.40    6.70
   6  -6   0  224.68   21.40
  -6   6   0  221.68   11.60
  -6   6   0  250.57   23.20
  -6   6   0  275.47   21.90
   5  -6   0    4.00    4.40
  -5   6   0    6.30    2.70
  -5   6   0   -1.50    3.90
  -5   6   0    3.50    3.70
   4  -6   0  142.79   14.90
  -4   6   0  150.78   15.00
  -4   6   0  129.29    7.70
   3  -6   0   20.20    9.40
   3  -6   0   34.60    8.00
  -3   6   0   25.40    7.20
  -3   6   0   35.10    3.80
   2  -6   0  108.39   11.40
   2  -6   0   82.19   15.90
  -2   6   0  101.89   11.80
  -2   6   0  100.89    6.50
  -2   6   0   95.79   14.50
   1  -6   0  163.28   18.60
   1  -6   0  191.38   15.20
  -1   6   0  170.98   17.60
  -1   6   0  171.58    8.90
   0  -6   0  379.26   24.80
   0  -6   0  417.46   26.20
   0   6   0  349.07   21.50
   0   6   0  400.36   14.40
  -1  -6   0  584.34   34.00
  -1  -6   0  571.84   29.20
   1   6   0  530.15   21.60
   1   6   0  541.65   17.90
  -2  -6   0 1012.20   44.80
  -2  -6   0  965.00   36.90
   2   6   0 1057.69   27.50
  -3  -6   0  221.18   17.70
  -3  -6   0  237.48   16.60
   3   6   0  257.47   12.10
  -4  -6   0   80.99    8.80
  -4  -6   0   60.49   11.30
   4   6   0   62.19    6.50
  -5  -6   0  181.38   14.20
  -5  -6   0  182.58   17.90
   5   6   0  170.18   11.30
  -6  -6   0   23.50    9.10
   6   6   0   12.40    3.90
   6  -7   0  100.09   17.40
  -6   7   0  111.99   16.50
  -6   7   0   86.69    6.80
  -6   7   0   98.79   17.30
   5  -7   0   37.20    9.80
  -5   7   0   25.10   10.40
  -5   7   0   37.50    5.40
   4  -7   0   72.09   13.40
  -4   7   0   77.89   14.30
  -4   7   0   81.89    8.60
   3  -7   0  114.49   23.80
   3  -7   0  149.59   14.70
  -3   7   0  118.39   14.60
  -3   7   0  124.49    7.80
   2  -7   0   69.19    9.80
   2  -7   0   55.49   15.70
  -2   7   0   56.49   11.10
  -2   7   0   58.09    5.70
   1  -7   0  905.01   40.30
   1  -7   0  865.41   49.80
  -1   7   0  770.92   53.49
  -1   7   0  922.91   25.20
   0  -7   0   69.19   13.30
   0  -7   0   82.59   15.80
   0   7   0   90.59   10.20
   0   7   0   88.09    9.50
  -1  -7   0  501.45   30.20
  -1  -7   0  531.15   40.10
   1   7   0  518.25   18.60
  -2  -7   0   94.69   11.70
  -2  -7   0   88.29   17.70
   2   7   0   81.39    7.20
  -3  -7   0   85.59   17.40
  -3  -7   0   67.29   11.80
   3   7   0   88.59    7.30
  -4  -7   0    5.80    6.50
  -4  -7   0    8.60    5.90
   4   7   0    3.40    2.60
  -5  -7   0   22.00    9.40
  -5  -7   0   39.90    8.20
   5   7   0   21.60    5.10
  -6  -7   0   70.59   13.10
   5  -8   0    9.00    6.50
  -5   8   0   19.00    3.60
  -5   8   0   26.40    8.90
   4  -8   0  220.48   26.50
  -4   8   0  212.48   11.20
  -4   8   0  163.78   19.00
   3  -8   0  256.37   21.00
   3  -8   0  270.27   32.60
  -3   8   0  253.27   22.50
  -3   8   0  250.77   12.70
   2  -8   0  273.47   20.60
  -2   8   0  326.47   36.60
  -2   8   0  253.57   12.60
   1  -8   0  604.84   32.20
   1  -8   0  605.64   42.40
  -1   8   0  622.74   21.20
   0  -8   0  165.38   17.20
   0  -8   0  169.18   20.80
   0   8   0  155.08   10.20
  -1  -8   0  105.89   18.20
  -1  -8   0  108.79   20.40
   1   8   0  101.59    8.30
  -2  -8   0  290.07   28.60
  -2  -8   0  287.47   24.30
   2   8   0  278.57   14.50
  -3  -8   0   56.99   16.10
  -3  -8   0   74.09   14.50
   3   8   0   66.09    7.20
  -4  -8   0   64.19   13.80
  -4  -8   0   52.99   15.50
   4   8   0   60.09    9.10
  -5  -8   0   61.49   16.60
  -5  -8   0   72.69   12.50
   5   8   0   40.80    7.60
   5  -9   0   17.40   12.60
  -5   9   0   16.90   11.00
  -5   9   0   32.00    5.60
   4  -9   0   83.79   15.20
  -4   9   0   82.69   16.60
  -4   9   0  114.89    9.10
   3  -9   0   18.50    8.10
   3  -9   0   42.70   12.80
  -3   9   0   34.70    5.70
  -3   9   0   28.70    9.70
   2  -9   0  118.49   24.50
   2  -9   0   94.69   13.20
  -2   9   0   80.99   15.40
  -2   9   0   98.49    7.90
   1  -9   0   45.30   15.10
   1  -9   0   43.20   11.30
  -1   9   0   63.39    6.50
  -1   9   0   38.90   10.30
   0  -9   0  191.08   21.10
   0  -9   0  201.58   25.40
   0   9   0  211.38   12.70
  -1  -9   0  139.79   27.20
  -1  -9   0  160.48   22.40
   1   9   0  162.18   11.20
  -2  -9   0  122.59   24.90
  -2  -9   0  106.49   29.90
   2   9   0  105.29    9.40
  -3  -9   0   68.99   21.60
  -3  -9   0   74.89   14.60
   3   9   0   73.09    7.30
  -4  -9   0   43.10   17.70
  -4  -9   0   78.19   15.10
   4   9   0   46.60   11.10
   4 -10   0   40.00   11.70
  -4  10   0   59.09    8.40
  -4  10   0   58.09   13.70
   3 -10   0   64.09   13.40
   3 -10   0   56.79   22.80
  -3  10   0   82.89    7.50
  -3  10   0   77.29   16.40
   2 -10   0  115.99   15.50
   2 -10   0  102.89   25.70
  -2  10   0   93.59   17.90
  -2  10   0  117.19    9.50
   1 -10   0   30.80   13.10
   1 -10   0   30.80   10.50
  -1  10   0   31.70    6.00
  -1  10   0   59.09   13.20
   0 -10   0   66.69   17.00
   0 -10   0   71.89   16.60
   0  10   0   70.19    7.70
  -1 -10   0  104.89   21.70
  -1 -10   0  108.29   22.60
   1  10   0  116.89    9.90
  -2 -10   0   12.70   12.00
  -2 -10   0  -19.60    7.60
   2  10   0    2.50    3.00
  -3 -10   0   66.29   16.90
  -3 -10   0    6.30   16.50
   3  10   0   40.20    7.90
   2 -11   0   63.79   14.40
   2 -11   0  109.59   24.30
  -2  11   0   57.69   14.00
  -2  11   0   81.89    8.50
  -1  11   0   88.19    9.00
  -1  11   0   75.59   23.00
   0 -11   0   78.19   21.40
   0 -11   0   93.49   16.20
   0  11   0  102.39   17.70
   0  11   0   87.69   13.20
  -1 -11   0  150.88   28.50
  -1 -11   0  169.08   39.40
   1  11   0  147.49   11.80
  -2 -11   0   89.79   23.30
   2  11   0   70.29    8.50
   1  11  -1   74.89   15.20
   1  11  -1   63.79    9.70
  -1 -11   1  101.99   23.70
  -1 -11   1   61.59   18.70
   0  11  -1   -9.20    6.30
   0  11  -1    7.10    3.20
   0 -11   1   31.70   12.90
   0 -11   1    3.80   10.20
  -1  11  -1   22.00    6.40
  -1  11  -1   22.40    9.70
   1 -11   1   31.60   11.60
   1 -11   1   12.20   13.60
  -2  11  -1   12.00    8.90
   2 -11   1   24.70   15.50
   2 -11   1   10.90   10.70
   3  10  -1   26.50    5.90
  -3 -10   1   46.20   13.20
  -3 -10   1   24.60   19.60
   2  10  -1   41.70    9.80
  -2 -10   1   15.20   17.40
  -2 -10   1   54.79   16.40
   1  10  -1  122.49   10.00
  -1 -10   1  143.99   25.90
  -1 -10   1   85.09   21.60
   0  10  -1   14.60    3.70
   0  10  -1    3.70    6.60
   0 -10   1   17.90   11.40
   0 -10   1   -2.30    8.20
  -1  10  -1  100.59   18.30
  -1  10  -1  111.89    9.00
   1 -10   1  102.59   18.80
   1 -10   1   98.69   23.90
  -2  10  -1  177.38   20.60
  -2  10  -1  164.98   11.70
   2 -10   1  169.08   20.00
   2 -10   1  207.68   28.90
  -3  10  -1  289.97   32.80
  -3  10  -1  305.37   15.80
   3 -10   1  294.87   48.70
   3 -10   1  291.97   26.20
  -4  10  -1   65.99    6.60
   4 -10   1   49.10   13.70
   4   9  -1   16.90    5.10
  -4  -9   1    3.90    8.00
  -4  -9   1   -9.80   11.20
   3   9  -1   30.60    6.10
  -3  -9   1   31.20   16.90
  -3  -9   1   29.10   16.70
   2   9  -1   13.40    3.40
  -2  -9   1    9.90   12.40
  -2  -9   1   -5.20   15.50
   1   9  -1  119.99    9.90
  -1  -9   1  125.39   23.00
  -1  -9   1  106.69   21.70
   0   9  -1  210.58   12.90
   0  -9   1  229.18   25.50
   0  -9   1  257.07   28.20
  -1   9  -1  120.69    9.30
  -1   9  -1  143.29   17.40
   1  -9   1  133.99   27.40
   1  -9   1  150.08   19.30
  -2   9  -1    9.90    6.80
  -2   9  -1   26.20    4.90
   2  -9   1   25.50    8.80
   2  -9   1    9.70   11.00
  -3   9  -1  200.68   20.90
  -3   9  -1  211.78   11.70
   3  -9   1  225.78   29.90
   3  -9   1  220.78   21.20
  -4   9  -1   28.40    4.90
  -4   9  -1   52.59   13.00
   4  -9   1   31.40   11.10
  -5   9  -1   -0.70    7.90
  -5   9  -1   14.30    3.70
   5  -9   1   11.80    9.50
   5   8  -1  105.49   10.30
  -5  -8   1   79.79   20.80
  -5  -8   1  125.29   17.00
   4   8  -1   61.39    7.60
  -4  -8   1   87.39   12.20
  -4  -8   1   46.20   15.20
   3   8  -1   28.80    5.50
  -3  -8   1   14.00    9.80
  -3  -8   1   26.10   15.20
   2   8  -1   42.60    6.90
  -2  -8   1   60.09   17.10
  -2  -8   1   68.69   14.50
   1   8  -1   71.69    7.20
  -1  -8   1   57.09   13.50
   0   8  -1  322.57   15.00
   0  -8   1  343.57   31.10
   0  -8   1  359.76   29.30
  -1   8  -1   73.29   13.70
  -1   8  -1   84.39    7.50
   1  -8   1   93.79   19.70
   1  -8   1   96.69   13.50
  -2   8  -1  185.88   10.70
  -2   8  -1  211.08   19.50
   2  -8   1  167.88   17.90
   2  -8   1  188.88   26.50
  -3   8  -1   40.80   10.70
  -3   8  -1   42.10    6.30
   3  -8   1   49.30   11.30
   3  -8   1   62.59   17.60
  -4   8  -1   20.00    7.00
  -4   8  -1   15.60    4.10
   4  -8   1   21.40    6.50
  -5   8  -1   43.70    4.50
  -5   8  -1   31.50    8.70
   5   7  -1   42.80    7.40
  -5  -7   1   13.90    9.90
  -5  -7   1   62.49   10.60
   4   7  -1   39.90    7.00
  -4  -7   1   55.89   14.00
  -4  -7   1   57.69   11.20
   3   7  -1   97.89    8.10
  -3  -7   1  101.59   12.70
  -3  -7   1  110.39   20.90
   2   7  -1  262.27   13.40
  -2  -7   1  284.87   28.10
  -2  -7   1  256.37   20.80
   1   7  -1  577.64   20.20
  -1  -7   1  553.34   32.70
  -1  -7   1  619.54   40.30
   0   7  -1  320.67   14.10
   0  -7   1  328.67   27.20
   0  -7   1  326.37   26.60
  -1   7  -1   23.60    4.00
  -1   7  -1   19.80    6.80
   1  -7   1   30.60    9.10
   1  -7   1   25.60   10.10
  -2   7  -1   55.29    5.00
  -2   7  -1   39.40    9.30
   2  -7   1   55.69   15.20
   2  -7   1   46.40    9.70
  -3   7  -1  150.48   16.40
  -3   7  -1  153.18    8.90
   3  -7   1  144.79   15.30
   3  -7   1  153.58   28.00
  -4   7  -1  164.18   18.30
  -4   7  -1  163.38    8.90
   4  -7   1  171.88   17.30
  -5   7  -1   14.80    7.20
  -5   7  -1   25.90    5.40
   5  -7   1   23.10    7.70
  -6   7  -1    7.40    7.10
  -6   7  -1   21.40    9.50
  -6   7  -1   21.40    3.80
   6  -7   1   22.20    9.70
   6   6  -1    1.40    4.00
   5   6  -1   43.50    6.70
  -5  -6   1   38.70   10.00
  -5  -6   1   63.29    8.60
   4   6  -1   41.60    6.40
  -4  -6   1   52.99   11.20
  -4  -6   1   59.59   10.20
   3   6  -1   42.70    4.80
  -3  -6   1   37.70    8.00
  -3  -6   1   29.80    9.20
   2   6  -1   45.10    5.20
  -2  -6   1   48.70    9.40
  -2  -6   1   49.70   12.40
   1   6  -1   82.09    6.60
  -1  -6   1   71.59   12.60
  -1  -6   1   85.59   13.10
   0   6  -1  609.54   27.60
   0   6  -1  628.24   19.20
   0  -6   1  604.34   35.40
   0  -6   1  591.24   33.40
  -1   6  -1  363.26   29.60
  -1   6  -1  363.56   21.70
  -1   6  -1  373.06   13.80
   1  -6   1  379.16   25.00
   1  -6   1  372.56   28.30
  -2   6  -1   55.79    4.80
  -2   6  -1   57.39   11.00
   2  -6   1   52.39   10.30
   2  -6   1   52.49   14.00
  -3   6  -1  261.77   20.60
  -3   6  -1  293.27   11.70
   3  -6   1  275.27   20.30
   3  -6   1  280.87   29.80
  -4   6  -1  244.98   20.20
  -4   6  -1  259.27   10.90
   4  -6   1  254.27   20.70
  -5   6  -1   79.89    5.60
  -5   6  -1   73.09   13.90
   5  -6   1   74.79   14.00
  -6   6  -1  123.89   15.90
  -6   6  -1   91.99    6.50
  -6   6  -1  107.69   15.70
   6  -6   1   81.79   16.30
   6   5  -1   16.10    4.50
  -6  -5   1   24.20    8.30
   5   5  -1   12.70    4.00
   5   5  -1   12.70    5.50
  -5  -5   1   14.90    5.30
  -5  -5   1   31.50    5.60
   4   5  -1   84.69    7.20
   4   5  -1   79.29    7.80
  -4  -5   1   97.69   11.70
  -4  -5   1   99.59    8.80
   3   5  -1  711.33   20.50
  -3  -5   1  670.13   31.00
  -3  -5   1  752.92   27.50
   2   5  -1  249.48   11.40
   2   5  -1  247.18   10.50
  -2  -5   1  254.67   19.60
  -2  -5   1  263.77   16.30
   1   5  -1  133.19    9.00
   1   5  -1  117.09    7.20
   1   5  -1  136.99   10.50
  -1  -5   1  135.19   15.50
  -1  -5   1  116.79   11.70
   0   5  -1 1453.85   42.00
   0   5  -1 1503.25   32.10
   0   5  -1 1505.15   46.30
   0  -5   1 1435.26   50.49
   0  -5   1 1577.44   33.90
   0  -5   1 1445.56   54.49
  -1   5  -1  459.15   27.20
  -1   5  -1  472.45   14.50
  -1   5  -1  423.16   27.70
   1  -5   1  477.55   44.50
   1  -5   1  475.95   14.30
   1  -5   1  483.45   26.50
  -2   5  -1   96.29   13.80
  -2   5  -1   94.59    5.90
  -2   5  -1  111.79   11.10
   2  -5   1  114.69   15.90
   2  -5   1  111.79   11.60
   2  -5   1  110.79    6.00
  -3   5  -1  219.18   17.30
  -3   5  -1  216.98    9.50
  -3   5  -1  220.48    9.00
   3  -5   1  231.18   24.80
   3  -5   1  231.68   17.60
   3  -5   1  209.38    9.10
  -4   5  -1  307.97   22.30
  -4   5  -1  347.87   11.70
  -4   5  -1  338.97   11.60
   4  -5   1  353.56   23.50
  -5   5  -1  291.07   10.50
  -5   5  -1  312.07   24.70
  -5   5  -1  303.87   11.00
   5  -5   1  289.07   30.80
  -6   5  -1  212.88   22.50
  -6   5  -1  187.78   19.10
   6  -5   1  212.98   22.00
  -7   5  -1   13.40    8.60
  -7   5  -1   28.50    7.90
   7  -5   1   21.20    9.00
   6   4  -1   14.30    4.50
  -6  -4   1    4.70    5.70
  -6  -4   1   22.60    4.00
   5   4  -1  193.48   11.00
   5   4  -1  188.78   13.20
  -5  -4   1  207.18   11.10
  -5  -4   1  193.48   17.30
   4   4  -1  191.18   11.10
  -4  -4   1  205.78   11.10
  -4  -4   1  199.18   16.50
   3   4  -1  219.18   10.00
   3   4  -1  214.78   10.30
  -3  -4   1  202.38   14.80
  -3  -4   1  234.78   12.00
   2   4  -1   75.69    8.50
   2   4  -1   85.09    6.10
   2   4  -1   81.19    5.10
  -2  -4   1   81.29    7.40
  -2  -4   1  104.19    9.30
   1   4  -1  322.57   11.60
   1   4  -1  333.27   15.70
   1   4  -1  326.27   13.00
  -1  -4   1  327.57   17.60
  -1  -4   1  343.47   21.30
   0   4  -1  238.28   16.00
   0   4  -1  213.08   13.10
   0   4  -1  219.08    8.80
   0  -4   1  230.08   16.30
   0  -4   1  228.18   18.60
   0  -4   1  240.08   10.80
  -1   4  -1  330.27   19.50
  -1   4  -1  294.37    9.90
  -1   4  -1  272.87   20.40
  -1   4  -1  267.97   15.50
   1  -4   1  296.07   21.40
   1  -4   1  293.07    9.70
   1  -4   1  273.67   18.40
  -2   4  -1   27.00    6.40
  -2   4  -1   29.50    2.80
  -2   4  -1   41.00    8.80
  -2   4  -1   32.60    8.20
   2  -4   1   30.40    3.00
   2  -4   1   25.50    6.60
   2  -4   1   39.60   10.90
  -3   4  -1  770.22   18.10
  -3   4  -1  724.03   17.30
  -3   4  -1  717.83   30.20
   3  -4   1  739.43   31.50
  -4   4  -1  271.87    9.40
  -4   4  -1  257.57    9.10
  -4   4  -1  297.67   19.90
   4  -4   1  265.47   19.70
  -5   4  -1  220.18   18.10
  -5   4  -1  221.68    8.60
  -5   4  -1  224.68   20.40
   5  -4   1  234.18   19.70
  -6   4  -1  355.96   27.90
  -6   4  -1  324.87   10.70
  -6   4  -1  351.76   23.60
  -6   4  -1  360.56   11.40
   6  -4   1  367.46   27.20
  -7   4  -1   79.89   13.10
  -7   4  -1   39.80   12.70
   7  -4   1   40.10   15.10
   7   3  -1  215.88   13.10
  -7  -3   1  233.58   23.80
   6   3  -1  111.59    8.70
  -6  -3   1  122.09    7.50
  -6  -3   1  125.69   14.50
   5   3  -1   45.10    5.10
  -5  -3   1   41.50    9.20
  -5  -3   1   57.29    4.70
   4   3  -1   63.39    5.30
   4   3  -1   66.19    6.60
  -4  -3   1   62.29   15.50
  -4  -3   1   71.39    5.10
   3   3  -1   13.60    3.60
   3   3  -1   17.50    3.00
  -3  -3   1   16.30    4.50
  -3  -3   1   18.80    2.40
   2   3  -1   16.50    2.90
   2   3  -1   13.20    3.20
   2   3  -1   15.70    1.90
  -2  -3   1   15.30    3.00
  -2  -3   1    9.80    2.30
  -2  -3   1   14.10    3.10
   1   3  -1  832.92   19.00
   1   3  -1  814.82   19.70
   1   3  -1  808.32   24.20
  -1  -3   1  832.42   18.80
  -1  -3   1  817.82   28.40
  -1  -3   1  774.42   24.10
   0   3  -1   26.20    5.00
   0   3  -1   24.20    2.40
   0   3  -1   18.80    4.90
   0  -3   1   21.30    6.40
   0  -3   1   25.90    2.40
   0  -3   1   31.50    6.20
  -1   3  -1  219.38   12.30
  -1   3  -1  213.38   16.20
  -1   3  -1  212.18   14.90
  -1   3  -1  200.88    7.00
   1  -3   1  201.88   14.00
   1  -3   1  221.28    7.20
  -2   3  -1 1217.38   36.00
  -2   3  -1 1175.78   40.60
  -2   3  -1 1448.96   64.39
  -2   3  -1 1194.18   23.20
  -2   3  -1 1240.78   24.10
   2  -3   1 1194.48   37.10
   2  -3   1 1232.18   23.20
   2  -3   1 1174.18   47.20
  -3   3  -1   45.00    3.00
  -3   3  -1   34.70    2.70
  -3   3  -1   36.20    6.90
  -3   3  -1   45.10    9.60
  -3   3  -1   30.80    7.50
   3  -3   1   44.20    8.50
   3  -3   1   38.40    7.30
  -4   3  -1   86.09    4.40
  -4   3  -1   84.99    4.40
  -4   3  -1   84.29    9.10
   4  -3   1   78.89   10.40
  -5   3  -1   24.10    2.50
  -5   3  -1   22.00    7.30
  -5   3  -1   22.80    2.50
  -5   3  -1   16.20    5.40
   5  -3   1   13.30    6.50
  -6   3  -1   52.29    3.70
  -6   3  -1   52.89    3.90
  -6   3  -1   47.90   10.00
  -6   3  -1   34.60   10.10
   6  -3   1   59.79   13.00
  -7   3  -1   81.79    5.10
  -7   3  -1   88.39   17.80
  -7   3  -1   80.59   10.70
   7  -3   1   77.69   15.80
   7   2  -1   29.90    6.00
  -7  -2   1   13.10    8.00
  -7  -2   1   31.00    3.70
   6   2  -1   56.59    6.10
   6   2  -1   56.19   10.30
  -6  -2   1   55.29   12.10
  -6  -2   1   74.39    5.30
   5   2  -1  224.08   13.80
   5   2  -1  223.18   10.80
  -5  -2   1  230.98   19.00
  -5  -2   1  224.38    9.30
   4   2  -1  567.54   19.40
   4   2  -1  557.84   16.90
  -4  -2   1  573.44   27.60
  -4  -2   1  611.64   15.40
   3   2  -1   84.29    5.40
   3   2  -1   78.89    5.60
  -3  -2   1   90.29    9.70
  -3  -2   1   83.29    4.40
  -3  -2   1   80.39    5.20
   2   2  -1  854.01   19.20
   2   2  -1  848.82   27.60
   2   2  -1  847.72   18.00
  -2  -2   1  853.41   26.70
  -2  -2   1  830.22   17.90
  -2  -2   1  845.92   19.20
   1   2  -1 3082.59   50.89
   1   2  -1 3149.68   50.19
   1   2  -1 3076.49   58.19
  -1  -2   1 3065.29   50.69
  -1  -2   1 3132.49   54.59
  -1  -2   1 2975.60   58.59
   0   2  -1  724.13   24.90
   0   2  -1  733.73   14.90
   0   2  -1  717.33   21.40
   0  -2   1  728.03   23.20
   0  -2   1  672.73   26.50
   0  -2   1  742.13   15.00
  -1   2  -1  674.53   13.30
  -1   2  -1  648.14   20.10
  -1   2  -1  677.43   25.30
   1  -2   1  667.83   13.30
  -2   2  -1  591.74   12.20
  -2   2  -1  567.34   13.40
  -2   2  -1  574.84   23.40
  -2   2  -1  559.14   20.90
   2  -2   1  608.44   12.20
   2  -2   1  567.44   22.00
  -3   2  -1  769.72   26.90
  -3   2  -1  707.93   35.00
  -3   2  -1  731.33   14.80
  -3   2  -1  735.23   14.60
   3  -2   1  694.33   25.90
   3  -2   1  734.93   28.60
  -4   2  -1  122.09   12.90
  -4   2  -1  118.49   10.60
  -4   2  -1  119.79    4.80
  -4   2  -1  113.79    4.90
   4  -2   1  114.29    5.30
   4  -2   1  131.59   12.90
  -5   2  -1    1.40    1.10
  -5   2  -1    1.90    2.00
  -5   2  -1    0.50    2.30
  -5   2  -1    3.80    1.00
   5  -2   1    3.40    3.00
   5  -2   1    0.10    1.30
  -6   2  -1  109.09   11.20
  -6   2  -1   80.59    4.80
  -6   2  -1   83.49   15.40
  -6   2  -1  101.09    5.30
   6  -2   1   92.29    5.70
   6  -2   1   99.59   17.00
  -7   2  -1   59.69   11.20
  -7   2  -1   74.39   16.10
  -7   2  -1   67.69    4.40
   7   1  -1    3.20    3.00
  -7  -1   1    7.00    6.30
   6   1  -1   12.20    4.50
  -6  -1   1   12.40    6.20
   5   1  -1  151.48    8.20
  -5  -1   1  161.38   15.80
  -5  -1   1  153.38    8.30
   4   1  -1  149.88    9.90
   4   1  -1  154.68    7.60
  -4  -1   1  160.98    7.70
  -4  -1   1  161.98   14.20
  -4  -1   1  162.68    7.60
   3   1  -1  192.18    9.10
   3   1  -1  180.08   13.80
   3   1  -1  193.88    7.70
  -3  -1   1  183.28   13.20
  -3  -1   1  198.68    7.70
  -3  -1   1  180.88    7.10
  -3  -1   1  203.58   13.80
   2   1  -1   65.39    6.60
   2   1  -1   74.79    4.10
   2   1  -1   75.39    4.20
  -2  -1   1   74.19    4.00
  -2  -1   1   66.69    3.10
  -2  -1   1   68.69    6.70
   0   1  -1  397.16    8.30
   0   1  -1  391.36   10.30
   0   1  -1  380.96   14.60
   0  -1   1  367.46   12.80
   0  -1   1  383.06    8.20
  -1   1  -1  704.23   11.70
  -1   1  -1  677.43   18.30
  -1   1  -1  659.03   23.80
   1  -1   1  662.73   11.50
   1  -1   1  682.03   18.40
  -2   1  -1  541.15    9.80
  -2   1  -1  510.75   20.00
  -2   1  -1  517.15    9.60
   2  -1   1  515.65   19.30
   2  -1   1  508.25   17.90
   2  -1   1  530.15   10.00
  -3   1  -1  263.27   16.20
  -3   1  -1  271.67   14.10
  -3   1  -1  272.47    6.90
   3  -1   1  281.87   14.60
   3  -1   1  263.87   15.60
   3  -1   1  300.27   10.00
  -4   1  -1   48.20    9.60
  -4   1  -1   40.10   10.00
  -4   1  -1   40.50    2.70
  -4   1  -1   43.20    7.20
   4  -1   1   33.60    7.10
   4  -1   1   38.10    2.80
   4  -1   1   47.00    8.90
  -5   1  -1  101.49    9.60
  -5   1  -1   87.99   12.50
  -5   1  -1   94.49    4.80
   5  -1   1   96.29    5.20
   5  -1   1   87.99   11.50
  -6   1  -1   34.20    9.30
  -6   1  -1   43.40    3.70
  -6   1  -1   38.80    7.60
   6  -1   1   40.80    3.70
   6  -1   1   52.99   12.00
  -7   1  -1  182.58   15.70
  -7   1  -1  175.48    8.10
  -7   1  -1  198.98   20.60
   7  -1   1  168.88    8.60
   7   0  -1  133.99    9.20
  -7   0   1  142.49    9.10
  -7   0   1  147.29   18.10
   6   0  -1   -0.50    1.80
  -6   0   1    3.50    4.00
  -6   0   1    8.40    2.30
   5   0  -1   74.39    8.80
   5   0  -1   82.59    5.70
  -5   0   1   89.29   12.10
  -5   0   1   83.49    6.90
  -5   0   1   77.69   13.60
   4   0  -1  148.29    9.90
   4   0  -1  144.29    7.10
  -4   0   1  137.79   13.80
  -4   0   1  143.99    7.10
  -4   0   1  123.99    8.00
  -4   0   1  151.48   13.40
   3   0  -1  154.38    8.60
   3   0  -1  159.08    6.70
   3   0  -1  162.08   12.50
  -3   0   1  149.88    6.40
  -3   0   1  155.88   11.70
  -3   0   1  138.99    7.40
  -3   0   1  148.29   11.70
   2   0  -1  143.49    5.60
   2   0  -1  150.28   10.20
  -2   0   1  136.29    6.10
  -2   0   1  145.49    9.50
  -2   0   1  157.28   10.10
  -2   0   1  148.99    5.60
   1   0  -1 4509.35   76.09
  -1   0   1 4468.45   75.89
  -1   0   1 4590.34   68.39
   0   0  -1    0.00    0.10
   0   0  -1   -0.20    0.40
   0   0   1   -0.20    0.10
  -1   0  -1 2074.79   38.10
  -1   0  -1 2082.89   40.20
   1   0   1 2213.98   39.60
   1   0   1 2254.17   40.50
  -2   0  -1    6.10    2.30
  -2   0  -1    7.00    1.90
   2   0   1   10.90    2.70
   2   0   1    4.60    2.10
   2   0   1    6.80    0.70
  -3   0  -1  277.47   16.60
  -3   0  -1  288.07    7.20
  -3   0  -1  289.87   13.00
  -3   0  -1  295.47   16.60
   3   0   1  273.27   15.50
   3   0   1  295.57    7.40
   3   0   1  274.77   13.70
  -4   0  -1  185.78   14.70
  -4   0  -1  169.98    6.10
  -4   0  -1  167.18   10.60
   4   0   1  178.38   12.60
   4   0   1  187.78    6.50
   4   0   1  198.18   14.90
  -5   0  -1  187.68   16.80
  -5   0  -1  156.88   11.30
  -5   0  -1  163.98    6.80
   5   0   1  165.98    6.90
   5   0   1  148.29   14.90
  -6   0  -1  181.18   18.60
  -6   0  -1  196.08   13.20
  -6   0  -1  189.88    7.80
   6   0   1  181.98    8.10
  -7   0  -1  140.59   18.10
  -7   0  -1  135.59   11.70
   7   0   1  146.89    9.70
   7  -1  -1   14.70    4.20
  -7   1   1   19.00    8.10
  -7   1   1   28.30    5.10
   6  -1  -1   47.90    5.20
  -6   1   1   61.89    7.00
  -6   1   1   53.79   11.90
   5  -1  -1  101.59   10.70
  -5   1   1  127.19    9.30
  -5   1   1  139.69   16.20
  -5   1   1  101.99   12.80
   4  -1  -1  409.46   12.90
   4  -1  -1  406.36   18.40
  -4   1   1  433.76   17.80
  -4   1   1  403.36   22.80
  -4   1   1  411.96   23.90
  -4   1   1  424.96   12.70
   3  -1  -1  993.80   20.90
   3  -1  -1 1016.90   27.50
  -3   1   1  956.20   32.60
  -3   1   1  924.41   26.00
  -3   1   1  943.41   32.60
  -3   1   1  980.70   20.30
  -3   1   1  965.90   33.90
   2  -1  -1  762.12   15.90
   2  -1  -1  737.43   23.20
  -2   1   1  730.43   23.60
  -2   1   1  746.43   20.10
  -2   1   1  773.82   15.60
  -2   1   1  764.02   25.30
  -2   1   1  734.83   23.60
   1  -1  -1 2046.40   39.40
   1  -1  -1 2043.40   41.70
   1  -1  -1 2092.99   38.70
  -1   1   1 1997.40   39.60
  -1   1   1 2037.30   39.30
  -1   1   1 2011.30   33.10
  -1   1   1 2035.70   38.70
  -1  -1  -1   27.20    2.60
  -1  -1  -1   30.90    1.60
  -1  -1  -1   28.00    2.60
   1   1   1   29.70    2.50
   1   1   1   21.60    2.30
   1   1   1   25.20    1.50
  -2  -1  -1  645.04   20.50
  -2  -1  -1  651.03   16.60
  -2  -1  -1  645.94   20.90
  -2  -1  -1  640.04   12.70
   2   1   1  646.24   12.80
   2   1   1  656.93   20.30
   2   1   1  635.24   17.60
  -3  -1  -1  767.62   32.10
  -3  -1  -1  804.62   28.30
  -3  -1  -1  755.42   21.20
  -3  -1  -1  811.42   16.30
   3   1   1  808.82   23.90
   3   1   1  809.52   16.30
   3   1   1  811.42   27.40
  -4  -1  -1  676.63   15.80
  -4  -1  -1  682.93   21.50
  -4  -1  -1  687.63   29.80
   4   1   1  705.43   16.00
   4   1   1  720.33   25.30
  -5  -1  -1  876.61   38.20
  -5  -1  -1  912.51   27.70
   5   1   1  932.41   20.80
  -6  -1  -1  374.56   26.60
  -6  -1  -1  340.27   12.40
  -6  -1  -1  368.06   17.10
   6   1   1  368.36   12.40
  -7  -1  -1    0.40    5.20
  -7  -1  -1   15.20    3.90
   7   1   1   14.10    3.00
   7  -2  -1    8.30    4.10
  -7   2   1   14.30    4.70
  -7   2   1   10.50    3.10
  -7   2   1   28.90    9.60
   6  -2  -1   42.00    5.70
  -6   2   1   39.80    7.70
  -6   2   1   36.40   10.00
   5  -2  -1   83.89    8.60
  -5   2   1   87.99   12.10
  -5   2   1   97.29    8.70
   4  -2  -1  300.87   19.10
   4  -2  -1  316.27   11.10
  -4   2   1  291.17   10.10
  -4   2   1  287.77   15.80
  -4   2   1  292.97   19.20
  -4   2   1  263.17   20.30
   3  -2  -1  332.37   17.70
   3  -2  -1  325.87   10.60
  -3   2   1  331.57   17.90
  -3   2   1  332.27    9.90
  -3   2   1  316.07   15.40
  -3   2   1  356.06   20.70
  -3   2   1  348.67   18.50
   2  -2  -1   68.99    8.40
   2  -2  -1   66.19    3.90
   2  -2  -1   58.19    6.00
  -2   2   1   65.29    3.60
  -2   2   1   59.09    6.90
  -2   2   1   61.49    5.80
  -2   2   1   58.59    6.30
  -2   2   1   60.69    6.40
   1  -2  -1 2403.56   40.10
   1  -2  -1 2378.06   52.49
   1  -2  -1 2421.96   50.69
  -1   2   1 2419.16   45.30
  -1   2   1 2392.16   49.50
  -1   2   1 2324.97   39.60
  -1   2   1 2371.76   39.50
   0  -2  -1 5109.09   79.69
   0  -2  -1 4931.21   83.59
   0   2   1 5143.69   81.59
   0   2   1 5059.39   81.59
  -1  -2  -1  481.35   10.90
  -1  -2  -1  489.25   12.20
  -1  -2  -1  495.55   13.20
   1   2   1  499.85   13.60
   1   2   1  494.45   11.10
   1   2   1  483.15   11.70
  -2  -2  -1   79.89    4.50
  -2  -2  -1   77.29    3.90
  -2  -2  -1   73.69    6.30
  -2  -2  -1   74.79    6.40
   2   2   1   73.29    6.50
   2   2   1   74.49    3.90
   2   2   1   73.29    5.00
  -3  -2  -1   70.69    7.60
  -3  -2  -1   80.09    8.10
  -3  -2  -1   71.09    5.10
  -3  -2  -1   74.99    4.10
   3   2   1   73.39    4.20
   3   2   1   64.49    5.90
   3   2   1   68.69    7.90
  -4  -2  -1  205.98    9.90
  -4  -2  -1  210.38    8.20
  -4  -2  -1  203.98   15.40
   4   2   1  197.58   12.40
   4   2   1  205.78    8.20
  -5  -2  -1  154.58   14.90
  -5  -2  -1  159.88    7.80
  -5  -2  -1  159.98    9.40
   5   2   1  163.78    7.90
  -6  -2  -1   19.90    8.00
  -6  -2  -1   20.00    4.00
   6   2   1   23.00    3.90
  -7  -2  -1  138.19   17.50
  -7  -2  -1  138.19    9.80
   7   2   1  144.89    8.60
   7  -3  -1   80.99    8.10
  -7   3   1  109.89   11.30
  -7   3   1   93.99    7.10
  -7   3   1   69.79   15.90
   6  -3  -1  136.19    8.70
  -6   3   1  120.89   16.00
  -6   3   1  126.29    7.90
  -6   3   1  114.59   12.10
   5  -3  -1   92.19   12.00
   5  -3  -1   96.49    6.80
  -5   3   1   82.79    6.10
  -5   3   1   95.19   13.00
  -5   3   1   94.79    9.90
   4  -3  -1  148.39    7.70
   4  -3  -1  141.39   13.00
  -4   3   1  139.19    7.30
  -4   3   1  138.19   11.90
  -4   3   1  137.49    6.80
  -4   3   1  139.09   13.30
   3  -3  -1  878.81   20.80
   3  -3  -1  826.02   30.00
  -3   3   1  866.81   31.90
  -3   3   1  837.12   34.70
  -3   3   1  813.82   31.00
  -3   3   1  849.72   29.30
  -3   3   1  815.72   19.60
  -3   3   1  847.42   19.20
   2  -3  -1  222.88   12.60
   2  -3  -1  226.98    8.70
   2  -3  -1  218.48   17.10
  -2   3   1  245.68   13.80
  -2   3   1  221.08   15.00
  -2   3   1  236.18    8.20
  -2   3   1  247.08    8.30
  -2   3   1  246.78   13.50
   1  -3  -1  344.37    9.90
   1  -3  -1  313.07   12.80
  -1   3   1  350.96   16.30
  -1   3   1  363.56   10.40
  -1   3   1  343.17   14.60
  -1   3   1  345.77    9.80
   0  -3  -1  412.96   15.00
   0  -3  -1  405.86   16.60
   0  -3  -1  410.26   10.80
   0   3   1  421.76   11.00
   0   3   1  405.16   14.40
   0   3   1  419.16   15.30
  -1  -3  -1  198.88    8.60
  -1  -3  -1  203.78    7.20
  -1  -3  -1  190.48    9.10
   1   3   1  206.08    7.20
   1   3   1  197.98    7.80
   1   3   1  196.58    8.60
  -2  -3  -1  351.66   10.60
  -2  -3  -1  335.27   11.40
  -2  -3  -1  349.47   14.60
   2   3   1  333.07   15.00
   2   3   1  349.17   10.50
   2   3   1  338.57   11.60
  -3  -3  -1  676.63   25.80
  -3  -3  -1  694.43   25.80
  -3  -3  -1  691.03   17.80
  -3  -3  -1  686.83   18.50
   3   3   1  663.83   20.70
   3   3   1  697.73   27.00
   3   3   1  693.93   17.20
  -4  -3  -1   49.99    4.50
  -4  -3  -1   42.00    3.80
  -4  -3  -1   44.70    6.70
   4   3   1   44.50    6.90
   4   3   1   50.29    4.10
  -5  -3  -1  188.08    9.90
  -5  -3  -1  189.38   16.70
   5   3   1  196.58    9.10
  -6  -3  -1   18.90    4.10
  -6  -3  -1   17.30    7.20
   6   3   1   16.30    3.80
  -7  -3  -1   70.29    6.90
  -7  -3  -1   58.49   14.40
   7   3   1   70.49    7.00
  -7   4   1   91.49   25.50
  -7   4   1   88.29   13.60
  -7   4   1  113.39    7.40
  -6   4   1   38.40   10.50
  -6   4   1   69.79   12.20
  -6   4   1   54.59    5.40
   5  -4  -1   19.00    3.60
   5  -4  -1    6.00    4.10
  -5   4   1   11.30    4.70
  -5   4   1    9.50    5.10
  -5   4   1   11.20    2.50
   4  -4  -1   82.99    6.40
   4  -4  -1   64.79    9.20
  -4   4   1   71.39    8.90
  -4   4   1   85.09    5.40
  -4   4   1   86.29   11.10
  -4   4   1   77.59    5.50
   3  -4  -1  119.09   11.00
   3  -4  -1  117.29   15.90
  -3   4   1  105.49    5.90
  -3   4   1  124.19   11.70
  -3   4   1  102.29   11.30
  -3   4   1  117.19    6.20
   2  -4  -1  245.88   13.90
   2  -4  -1  264.87   20.40
  -2   4   1  246.98   15.50
  -2   4   1  259.47    9.30
  -2   4   1  252.27    9.60
  -2   4   1  239.58   17.00
  -2   4   1  266.77   15.80
   1  -4  -1   55.69    5.70
   1  -4  -1   73.69    4.50
   1  -4  -1   70.59    9.00
  -1   4   1   62.89    7.40
  -1   4   1   67.59    4.80
  -1   4   1   73.89    8.30
  -1   4   1   68.99    4.50
   0  -4  -1 1392.76   40.20
   0  -4  -1 1439.66   37.80
   0  -4  -1 1481.45   28.80
   0   4   1 1424.06   35.40
   0   4   1 1430.06   36.70
   0   4   1 1482.45   29.00
  -1  -4  -1  996.60   30.50
  -1  -4  -1 1026.10   22.50
  -1  -4  -1  994.90   28.90
   1   4   1  994.70   24.10
   1   4   1 1003.40   22.50
   1   4   1 1008.00   25.00
  -2  -4  -1   62.79    5.80
  -2  -4  -1   64.79    4.60
  -2  -4  -1   67.09    6.40
   2   4   1   56.69    4.60
   2   4   1   66.09    6.60
   2   4   1   67.19    4.70
  -3  -4  -1   42.30    4.20
  -3  -4  -1   52.69    6.70
  -3  -4  -1   48.70    4.00
  -3  -4  -1   48.30    6.40
   3   4   1   54.49    5.30
   3   4   1   52.89    4.50
   3   4   1   52.19    7.00
  -4  -4  -1  116.39    7.60
  -4  -4  -1  125.69   11.80
   4   4   1  109.99    6.90
   4   4   1  114.29    9.50
  -5  -4  -1   43.30    8.70
  -5  -4  -1   56.49    5.60
   5   4   1   39.80    4.50
  -6  -4  -1   53.59    5.70
  -6  -4  -1   47.30   11.20
   6   4   1   48.60    5.40
  -7  -4  -1    9.00    3.00
  -7  -4  -1    1.70    5.00
   7   4   1   -3.50    4.50
  -7   5   1  154.88   16.70
  -7   5   1  182.68    9.80
  -7   5   1  142.09   19.90
   6  -5  -1   18.30    7.50
  -6   5   1   25.90    7.50
  -6   5   1   24.70    7.90
  -6   5   1   25.90    4.20
   5  -5  -1   11.80    6.00
  -5   5   1   15.70    3.20
  -5   5   1   10.30    5.60
   4  -5  -1   60.49    9.00
  -4   5   1   41.10   11.50
  -4   5   1   39.70    8.70
  -4   5   1   43.40    4.40
   3  -5  -1  228.98   15.70
   3  -5  -1  200.68   21.50
  -3   5   1  177.28   14.70
  -3   5   1  204.38   12.90
   2  -5  -1  184.08   12.70
   2  -5  -1  181.18    8.60
   2  -5  -1  169.28   17.10
  -2   5   1  169.78   15.30
  -2   5   1  182.68    8.70
  -2   5   1  184.08    8.50
   1  -5  -1  152.58   15.10
   1  -5  -1  152.98    7.60
   1  -5  -1  161.98   11.20
  -1   5   1  157.38    7.80
  -1   5   1  175.58   14.80
  -1   5   1  165.88   13.10
   0  -5  -1  408.86   22.90
   0  -5  -1  450.45   13.90
   0  -5  -1  419.56   20.70
   0   5   1  447.56   19.30
   0   5   1  450.15   14.10
   0   5   1  444.46   18.80
  -1  -5  -1  795.62   20.50
  -1  -5  -1  818.82   30.20
  -1  -5  -1  794.22   32.50
   1   5   1  803.92   20.70
   1   5   1  793.02   23.10
   1   5   1  766.02   22.50
  -2  -5  -1   23.10    4.90
  -2  -5  -1   25.40    5.40
   2   5   1   21.60    3.00
   2   5   1   14.80    2.80
   2   5   1   26.60    5.10
  -3  -5  -1   40.60    5.60
  -3  -5  -1   35.90    9.40
   3   5   1   41.70    3.80
   3   5   1   35.00    6.50
  -4  -5  -1  192.38   14.80
  -4  -5  -1  168.38   10.90
   4   5   1  175.88    9.50
  -5  -5  -1  251.47   14.00
  -5  -5  -1  262.87   19.80
   5   5   1  232.38   11.80
  -6  -5  -1   80.39   15.00
  -6  -5  -1   71.69    8.10
   6   5   1   73.39    7.50
  -7  -5  -1    1.60    3.60
  -7  -5  -1   12.60    7.90
   7   5   1    5.60    3.60
   6  -6  -1   11.00    7.50
  -6   6   1    7.10    2.50
  -6   6   1   15.50    7.90
  -6   6   1   19.80    8.80
   5  -6  -1   69.29   13.80
  -5   6   1  100.99   14.30
  -5   6   1   90.49   15.60
  -5   6   1   97.39    7.70
   4  -6  -1    8.70    4.40
  -4   6   1   10.70    6.00
  -4   6   1    5.40    3.70
  -4   6   1    8.90    2.10
   3  -6  -1  550.64   39.40
   3  -6  -1  575.84   27.20
  -3   6   1  541.95   17.20
  -3   6   1  558.94   29.10
   2  -6  -1 1054.19   35.40
   2  -6  -1 1122.39   52.39
  -2   6   1 1085.29   26.60
  -2   6   1 1042.20   43.30
   1  -6  -1   41.40    9.90
   1  -6  -1   50.09    6.50
  -1   6   1   59.39   11.50
  -1   6   1   49.70    4.50
   0  -6  -1    4.50    2.80
   0  -6  -1    8.70    4.00
   0   6   1   12.10    3.30
   0   6   1    5.30    2.10
  -1  -6  -1  513.25   26.60
  -1  -6  -1  585.54   30.80
   1   6   1  539.05   17.50
   1   6   1  562.34   20.20
  -2  -6  -1  372.06   23.40
  -2  -6  -1  352.26   20.40
   2   6   1  371.36   14.50
   2   6   1  415.16   19.20
  -3  -6  -1   24.00    6.50
  -3  -6  -1   28.20    6.50
   3   6   1   27.80    6.80
  -4  -6  -1  163.98   12.20
  -4  -6  -1  157.88   14.70
   4   6   1  146.29    9.40
  -5  -6  -1  146.39   13.00
  -5  -6  -1  157.18   22.40
   5   6   1  137.29   11.30
  -6  -6  -1   77.19    9.50
  -6  -6  -1   69.49   13.40
   6   6   1   68.39    7.50
   6  -7  -1  133.79   19.00
  -6   7   1  143.19   17.30
  -6   7   1  138.59   18.40
  -6   7   1  136.89    9.40
   5  -7  -1   84.79   15.00
  -5   7   1   90.99    7.50
  -5   7   1  105.09   14.80
  -5   7   1  108.89   18.40
   4  -7  -1   37.20   15.00
   4  -7  -1   55.39   11.10
  -4   7   1   29.60    9.00
   3  -7  -1  249.38   26.90
   3  -7  -1  214.58   16.60
  -3   7   1  222.88   17.40
  -3   7   1  213.38   18.70
   2  -7  -1  706.43   42.40
   2  -7  -1  757.82   45.90
  -2   7   1  678.33   21.10
  -2   7   1  706.13   34.30
   1  -7  -1   38.70   19.00
   1  -7  -1   43.80    8.20
  -1   7   1   39.60    4.20
  -1   7   1   36.40    9.90
   0  -7  -1  175.18   18.70
   0  -7  -1  219.48   17.20
   0   7   1  221.88   11.10
   0   7   1  224.28   16.50
  -1  -7  -1   27.70    9.50
  -1  -7  -1   13.50    6.00
   1   7   1   13.60    3.20
   1   7   1   25.70    5.20
  -2  -7  -1  363.86   29.40
  -2  -7  -1  299.97   21.30
   2   7   1  304.47   13.90
  -3  -7  -1   26.90    6.60
  -3  -7  -1   20.10    7.60
   3   7   1   19.10    4.30
  -4  -7  -1   13.00    5.80
  -4  -7  -1   24.90    7.00
   4   7   1   17.50    4.30
  -5  -7  -1  124.99   13.90
  -5  -7  -1  136.99   15.60
   5   7   1  125.49   10.20
  -6  -7  -1  163.58   18.80
  -6  -7  -1  120.79   17.40
   6   7   1  126.59   10.60
   5  -8  -1    9.00    7.50
  -5   8   1    3.50    6.10
  -5   8   1    5.30    5.30
  -5   8   1   12.00    3.30
   4  -8  -1  125.59   27.60
   4  -8  -1  110.29   14.10
  -4   8   1  127.59   20.60
  -4   8   1  120.79    8.30
   3  -8  -1  353.26   36.10
   3  -8  -1  361.96   27.00
  -3   8   1  380.76   27.30
  -3   8   1  356.86   15.30
   2  -8  -1  163.28   15.00
   2  -8  -1  176.28   24.50
  -2   8   1  178.78   18.40
  -2   8   1  162.58   10.00
   1  -8  -1  327.77   30.30
   1  -8  -1  321.57   20.80
  -1   8   1  304.57   14.20
  -1   8   1  304.47   25.70
   0  -8  -1  272.37   20.30
   0  -8  -1  245.08   23.80
   0   8   1  248.88   12.80
   0   8   1  267.47   15.80
  -1  -8  -1   19.10    7.70
  -1  -8  -1   10.00    8.00
   1   8   1   15.20    4.20
  -2  -8  -1   33.90   12.80
  -2  -8  -1   55.19   12.30
   2   8   1   63.09    7.70
  -3  -8  -1    8.50   10.20
  -3  -8  -1   22.60    7.60
   3   8   1   14.40    4.00
  -4  -8  -1   46.10   11.50
  -4  -8  -1   39.60   12.80
   4   8   1   48.90    8.00
  -5  -8  -1  107.69   18.80
  -5  -8  -1  102.19   14.10
   5   8   1  120.69   10.20
   5  -9  -1   44.80   13.40
  -5   9   1   48.80   12.00
  -5   9   1   80.39    7.10
  -5   9   1   89.79   16.90
   4  -9  -1   31.00   15.30
   4  -9  -1   51.39   12.00
  -4   9   1   70.69    6.60
  -4   9   1   70.49   14.80
   3  -9  -1   31.80   14.70
   3  -9  -1   35.00    9.10
  -3   9   1   17.90    4.40
  -3   9   1   12.40    6.40
   2  -9  -1    2.90    9.00
   2  -9  -1    2.80    5.10
  -2   9   1    8.00    2.70
  -2   9   1    8.00    4.80
   1  -9  -1  224.78   27.80
   1  -9  -1  225.38   18.00
  -1   9   1  212.28   12.60
   0  -9  -1  167.58   17.40
   0  -9  -1  182.08   22.50
   0   9   1  172.38   11.40
  -1  -9  -1  112.49   23.00
  -1  -9  -1  150.88   17.60
   1   9   1  133.19   10.00
  -2  -9  -1  147.19   21.40
  -2  -9  -1  182.58   22.10
   2   9   1  152.78   10.90
  -3  -9  -1  108.69   23.20
  -3  -9  -1  103.89   18.70
   3   9   1  112.29    9.40
  -4  -9  -1  169.88   30.20
  -4  -9  -1  155.88   19.20
   4   9   1  147.59   11.80
   4 -10  -1   58.39   21.00
   4 -10  -1   67.89   13.80
  -4  10   1   67.39   15.20
  -4  10   1   83.19    8.30
   3 -10  -1  102.69   23.40
   3 -10  -1  113.99   17.90
  -3  10   1  113.09   15.50
  -3  10   1   99.79    8.90
   2 -10  -1   84.99   21.40
   2 -10  -1  106.29   15.40
  -2  10   1  112.69    9.60
  -2  10   1   64.59   13.90
   1 -10  -1    7.60   11.40
   1 -10  -1   24.50    8.10
  -1  10   1   19.90    4.70
   0 -10  -1   57.09   12.10
   0 -10  -1   31.70   12.30
   0  10   1   61.49    9.00
  -1 -10  -1   28.90   10.90
  -1 -10  -1   35.50   10.20
   1  10   1   26.10    5.70
  -2 -10  -1  115.49   22.20
  -2 -10  -1   85.19   21.90
   2  10   1  116.59   10.00
  -3 -10  -1  -20.30   12.30
  -3 -10  -1    2.90    8.90
   3  10   1   -1.40    2.70
   3 -11  -1   22.50   11.20
   3 -11  -1   85.79   23.00
  -3  11   1   40.80   11.20
  -3  11   1   65.39   12.80
   2 -11  -1   47.70   18.80
   2 -11  -1   25.50   11.00
  -2  11   1   38.30    6.80
  -2  11   1   43.70   13.50
   1 -11  -1   47.60   20.30
   1 -11  -1   47.50   12.20
  -1  11   1   62.99   17.70
  -1  11   1   62.19    7.00
   0 -11  -1  138.09   25.40
   0 -11  -1  120.79   17.70
   0  11   1  155.28   12.00
  -1 -11  -1   68.99   17.50
  -1 -11  -1  103.09   20.80
   1  11   1   60.09    9.20
  -2 -11  -1   33.80   11.30
  -2 -11  -1   17.50   15.10
   2  11   1   40.50    7.10
  -1  11  -2   80.29    8.30
  -1  11  -2   63.19   16.50
   1 -11   2   81.89   21.70
   1 -11   2   47.30   16.70
   2  10  -2  100.39    9.80
   2  10  -2   91.19   17.20
  -2 -10   2  116.49   30.00
  -2 -10   2  166.28   23.10
   1  10  -2  180.98   17.00
   1  10  -2  166.58   20.30
  -1 -10   2  201.88   34.20
  -1 -10   2  164.28   29.70
   0  10  -2  144.69   11.30
   0  10  -2  113.39   18.00
   0 -10   2  111.79   23.20
   0 -10   2  150.28   28.50
  -1  10  -2   19.50    4.40
  -1  10  -2   -0.20    6.50
   1 -10   2   -0.50    9.00
   1 -10   2   21.40   10.80
  -2  10  -2   13.10    3.50
  -2  10  -2   14.30    8.00
   2 -10   2   -3.10    7.20
   2 -10   2   21.40   13.30
  -3  10  -2  176.88   21.90
  -3  10  -2  161.98   11.40
   3 -10   2  168.18   22.30
   3   9  -2   77.19    9.20
  -3  -9   2   45.40   20.40
  -3  -9   2   87.19   19.00
   2   9  -2   22.70    5.20
  -2  -9   2   23.10   13.60
  -2  -9   2   23.40   15.50
   1   9  -2   53.89   12.90
   1   9  -2   68.09    7.80
  -1  -9   2   65.49   19.70
  -1  -9   2  102.49   19.40
   0   9  -2  454.55   29.90
   0   9  -2  409.96   18.50
   0  -9   2  373.26   34.50
   0  -9   2  449.76   37.30
  -1   9  -2   67.09    6.80
  -1   9  -2   65.29   13.80
   1  -9   2   55.79   13.30
   1  -9   2   59.19   15.50
  -2   9  -2   51.19   13.30
  -2   9  -2   31.30    5.00
   2  -9   2   43.30   15.00
   2  -9   2   28.40   10.10
  -3   9  -2  303.27   27.10
  -3   9  -2  297.27   14.40
   3  -9   2  279.67   25.10
  -4   9  -2   57.89   21.40
  -4   9  -2   95.09    7.60
   4  -9   2   62.49   15.70
   4   8  -2   91.49   10.90
  -4  -8   2   62.69   21.40
  -4  -8   2  126.29   16.70
   3   8  -2   74.39    8.00
  -3  -8   2   64.69   13.20
  -3  -8   2   67.29   20.00
   2   8  -2   47.20    7.60
  -2  -8   2   67.19   19.30
  -2  -8   2   48.10   13.60
   1   8  -2  396.46   17.60
  -1  -8   2  378.36   30.20
  -1  -8   2  359.96   35.90
   0   8  -2   93.69   15.70
   0   8  -2   88.49   12.30
   0  -8   2   76.89   18.70
   0  -8   2   82.19   19.60
  -1   8  -2   25.30    4.70
  -1   8  -2   31.30    8.70
   1  -8   2   41.40   12.00
   1  -8   2   46.60   15.20
  -2   8  -2  225.78   20.80
  -2   8  -2  209.18   11.40
   2  -8   2  203.18   20.80
   2  -8   2  214.18   28.50
  -3   8  -2   50.19   12.60
  -3   8  -2   61.69    5.90
   3  -8   2   56.89   15.20
  -4   8  -2   97.99   16.80
  -4   8  -2   90.69    7.10
   4  -8   2   98.79   18.10
  -5   8  -2   71.39    6.20
   5  -8   2   50.79   11.50
   5   7  -2   58.19   10.40
  -5  -7   2   74.79   18.40
   4   7  -2   59.59    7.30
  -4  -7   2   72.39   17.70
  -4  -7   2   75.29   12.30
   3   7  -2    6.50    3.00
  -3  -7   2    2.80   10.10
  -3  -7   2   18.00    5.90
   2   7  -2  246.78   14.10
  -2  -7   2  328.17   23.80
  -2  -7   2  231.08   27.70
   1   7  -2  585.74   20.70
  -1  -7   2  575.54   35.40
  -1  -7   2  561.04   62.69
   0   7  -2  489.35   26.50
   0   7  -2  457.55   17.50
   0  -7   2  442.96   32.70
   0  -7   2  504.25   36.50
  -1   7  -2  101.59   12.40
  -1   7  -2  103.09    7.50
   1  -7   2  131.69   16.80
   1  -7   2   91.49   18.80
  -2   7  -2   62.39    5.90
  -2   7  -2   65.69   11.90
   2  -7   2   69.29   13.90
   2  -7   2   45.80   14.90
  -3   7  -2   21.20    3.90
  -3   7  -2   24.80    9.20
   3  -7   2   22.90    8.30
  -4   7  -2   89.09   16.60
  -4   7  -2   84.49    6.60
   4  -7   2  106.09   13.40
  -5   7  -2   21.00    8.30
  -5   7  -2   17.60    3.40
   5  -7   2   15.80    8.00
  -6   7  -2   41.60   11.50
  -6   7  -2   35.50    5.20
   6  -7   2   53.89   14.30
   5   6  -2   26.30    5.70
  -5  -6   2   31.40    9.50
   4   6  -2  210.48   12.90
   4   6  -2  223.18   13.10
  -4  -6   2  276.47   17.30
  -4  -6   2  207.08   20.80
   3   6  -2  127.39    8.50
   3   6  -2  125.69    9.30
  -3  -6   2  149.88   13.30
  -3  -6   2  158.48   19.60
   2   6  -2   18.80    3.90
  -2  -6   2   14.40    5.80
  -2  -6   2    9.30   10.30
   1   6  -2  182.58   11.50
  -1  -6   2  195.28   17.90
  -1  -6   2  187.98   22.20
   0   6  -2  188.18   14.70
   0   6  -2  186.58    9.90
   0  -6   2  215.38   19.90
   0  -6   2  162.28   20.10
  -1   6  -2  143.19    8.30
  -1   6  -2  136.89   12.70
   1  -6   2  153.88   17.30
   1  -6   2  141.59   17.60
   2  -6   2   10.50   11.50
   2  -6   2   10.20    4.30
  -3   6  -2  393.16   25.40
  -3   6  -2  378.36   13.40
   3  -6   2  400.36   26.60
  -4   6  -2  215.28   27.70
  -4   6  -2  185.28    8.80
   4  -6   2  174.58   18.40
  -5   6  -2   64.69    5.00
  -5   6  -2   64.69   12.90
   5  -6   2   40.20   10.40
  -6   6  -2   36.70    6.40
  -6   6  -2   42.10   11.00
   6  -6   2   26.60    9.50
   6   5  -2   28.60    6.20
  -6  -5   2   30.30   13.30
   5   5  -2   26.20    5.50
  -5  -5   2   27.30    8.80
   4   5  -2   88.19    7.90
   4   5  -2   99.29    8.70
  -4  -5   2   98.69    9.20
  -4  -5   2  100.29   14.00
   3   5  -2   15.90    3.40
   3   5  -2   10.50    3.00
  -3  -5   2   17.00    4.90
  -3  -5   2   16.50    6.10
   2   5  -2   47.40    5.70
   2   5  -2   53.39    5.40
  -2  -5   2   77.39   11.80
  -2  -5   2   55.09    9.10
   1   5  -2  144.49    9.70
   1   5  -2  145.89    8.40
  -1  -5   2  168.08   18.60
  -1  -5   2  162.98   14.50
   0   5  -2  135.69   13.10
   0   5  -2  148.09   12.10
   0   5  -2  118.39    7.20
   0   5  -2  121.79   10.60
   0  -5   2  114.79   13.80
   0  -5   2  132.29   16.90
  -1   5  -2  105.19    6.40
  -1   5  -2  125.29   16.10
  -1   5  -2  122.69   11.30
   1  -5   2  122.69   15.60
   1  -5   2  111.69    6.70
   1  -5   2  150.28   15.90
  -2   5  -2   93.19    5.70
  -2   5  -2  106.49   11.10
   2  -5   2   96.29   12.20
   2  -5   2   87.39    5.60
   2  -5   2  106.79   19.60
  -3   5  -2   28.00    3.80
  -3   5  -2   23.90    7.40
  -3   5  -2   25.60    3.60
   3  -5   2   29.40    3.40
   3  -5   2   23.40    6.00
  -4   5  -2  151.68   15.60
  -4   5  -2  143.09    7.30
  -4   5  -2  156.38    7.20
   4  -5   2  157.38   16.10
  -5   5  -2  150.78    6.90
  -5   5  -2  137.59   15.40
  -5   5  -2  169.18    7.10
   5  -5   2  147.49   17.30
  -6   5  -2   51.89    3.70
  -6   5  -2   32.40    9.80
  -6   5  -2   48.10   11.00
   6  -5   2   49.60   12.70
  -7   5  -2   75.79   17.00
  -7   5  -2   56.69   12.50
   7  -5   2   72.59   15.90
   6   4  -2   45.00    7.40
  -6  -4   2   51.99   12.30
   5   4  -2   26.20    5.30
  -5  -4   2   27.40    7.90
   4   4  -2   -0.30    1.90
   4   4  -2    2.20    2.70
  -4  -4   2    8.90    3.00
  -4  -4   2   10.40    2.90
   3   4  -2  186.58    8.60
   3   4  -2  179.08    9.70
  -3  -4   2  179.58   15.00
  -3  -4   2  169.38   10.90
   2   4  -2   58.79    5.20
   2   4  -2   59.39    4.30
  -2  -4   2   73.49    7.60
  -2  -4   2   67.79    9.30
   1   4  -2  160.38   11.60
   1   4  -2  150.58    8.90
  -1  -4   2  152.88   16.40
  -1  -4   2  160.38   12.50
   0   4  -2 1071.29   24.20
   0   4  -2 1020.70   37.80
   0   4  -2 1031.60   31.20
   0   4  -2 1027.70   33.00
   0  -4   2 1005.90   45.20
   0  -4   2 1003.50   23.30
   0  -4   2 1071.89   39.90
  -1   4  -2  253.27   18.20
  -1   4  -2  271.17    9.60
  -1   4  -2  280.37   15.70
  -1   4  -2  255.27   21.40
   1  -4   2  253.87   21.00
   1  -4   2  260.57   19.70
   1  -4   2  257.87    9.40
  -2   4  -2  257.27    9.00
   2  -4   2  257.97    8.90
   2  -4   2  281.47   19.00
  -3   4  -2  125.09    6.10
  -3   4  -2  122.69   12.00
  -3   4  -2  124.69    5.70
   3  -4   2  130.29   12.50
   3  -4   2  123.39    5.80
  -4   4  -2  243.78    8.30
  -4   4  -2  248.58   19.60
  -4   4  -2  234.48    8.30
  -5   4  -2  274.47    8.60
  -5   4  -2  290.17    9.00
  -5   4  -2  280.27   21.20
   5  -4   2  300.37   23.50
  -6   4  -2  179.98   17.90
  -6   4  -2  213.78   22.20
   6  -4   2  213.38   21.20
  -7   4  -2   38.70   14.70
  -7   4  -2   22.00    7.50
   7  -4   2   35.80   18.60
   6   3  -2    6.80    3.70
  -6  -3   2    1.30    4.40
   5   3  -2   82.99    7.10
  -5  -3   2   70.59   10.80
   4   3  -2  116.69    9.80
  -4  -3   2  120.99    7.00
  -4  -3   2  105.49   12.30
   3   3  -2  481.85   16.20
  -3  -3   2  528.35   16.60
  -3  -3   2  503.75   24.60
   2   3  -2  663.23   14.70
   2   3  -2  644.44   25.90
   2   3  -2  650.03   18.10
  -2  -3   2  611.14   20.10
  -2  -3   2  655.83   26.40
   1   3  -2 1466.95   38.20
   1   3  -2 1408.66   29.10
   1   3  -2 1418.26   30.60
  -1  -3   2 1430.96   29.20
  -1  -3   2 1423.56   45.70
  -1  -3   2 1366.16   37.30
   0   3  -2  368.16   11.10
   0   3  -2  376.66   15.50
   0   3  -2  376.96   20.40
   0   3  -2  371.26   17.60
   0  -3   2  373.86   20.10
   0  -3   2  379.66   11.20
   0  -3   2  372.76   24.20
  -1   3  -2  406.96   17.80
  -1   3  -2  406.06   25.00
  -1   3  -2  420.96   11.30
  -1   3  -2  413.96   22.80
   1  -3   2  442.26   24.10
   1  -3   2  400.26   24.20
   1  -3   2  416.56   11.20
  -2   3  -2  668.23   25.60
  -2   3  -2  639.54   32.80
  -2   3  -2  641.84   14.40
  -2   3  -2  641.44   31.80
   2  -3   2  654.03   25.20
   2  -3   2  635.74   27.90
   2  -3   2  659.23   14.50
  -3   3  -2  137.99    5.30
  -3   3  -2  143.79    5.60
  -3   3  -2  158.68   12.90
   3  -3   2  129.19   12.60
  -4   3  -2   71.79    3.70
  -4   3  -2   79.29    3.70
  -4   3  -2   77.49    9.30
   4  -3   2   68.29    9.50
  -5   3  -2  475.35   26.40
  -5   3  -2  508.05   12.00
  -5   3  -2  523.45   11.80
   5  -3   2  558.74   31.30
  -6   3  -2   62.39   13.50
  -6   3  -2   62.39   16.80
   6  -3   2   96.59   13.70
  -7   3  -2   23.10   10.40
  -7   3  -2   45.40   10.10
   7  -3   2   53.49   14.20
   7   2  -2    2.90    3.80
  -7  -2   2   11.90    6.20
   6   2  -2    4.90    3.10
  -6  -2   2    4.40    4.90
   5   2  -2  256.97   12.40
  -5  -2   2  237.08   27.20
  -5  -2   2  284.67   17.30
   4   2  -2  397.66   14.60
  -4  -2   2  368.36   22.50
   3   2  -2  271.37   12.10
  -3  -2   2  287.27   17.50
   2   2  -2 1993.00   49.20
   2   2  -2 1928.71   37.20
  -2  -2   2 1971.50   48.30
  -2  -2   2 1913.91   36.90
   1   2  -2  136.89    9.10
   1   2  -2  137.59    6.10
   1   2  -2  132.39    6.70
  -1  -2   2  126.99    7.80
  -1  -2   2  120.99    5.70
  -1  -2   2  145.39   10.30
   0   2  -2   14.60    1.70
   0   2  -2   13.30    4.20
   0   2  -2   15.90    3.10
   0   2  -2   15.60    3.90
   0  -2   2   19.20    5.50
   0  -2   2   15.70    1.70
   0  -2   2   19.00    4.40
  -1   2  -2 1639.44   37.80
  -1   2  -2 1627.34   46.80
  -1   2  -2 1549.74   48.30
  -1   2  -2 1630.14   28.00
   1  -2   2 1600.14   27.90
   1  -2   2 1634.64   46.50
   1  -2   2 1662.43   37.90
  -2   2  -2  164.68   13.90
  -2   2  -2  160.18    5.00
  -2   2  -2  167.58   15.80
  -2   2  -2  180.18   11.60
   2  -2   2  161.68   12.60
   2  -2   2  170.18    5.00
   2  -2   2  170.08   11.30
  -3   2  -2  167.48   17.60
  -3   2  -2  173.58   12.30
  -3   2  -2  162.28    4.70
  -3   2  -2  154.78   14.00
   3  -2   2  163.18   13.20
   3  -2   2  169.88   12.50
  -4   2  -2  331.07   19.00
   4  -2   2  341.47   21.20
  -5   2  -2   41.50   10.50
  -5   2  -2   38.10    9.60
   5  -2   2   36.60    9.40
  -6   2  -2   23.20    6.50
  -6   2  -2   10.00    4.40
   6  -2   2   14.70    6.60
  -7   2  -2   63.89   15.10
  -7   2  -2   80.69   10.90
   7  -2   2   75.29   16.10
   7   1  -2   81.39    8.60
  -7  -1   2   82.19   15.60
   6   1  -2   45.10    5.50
  -6  -1   2   49.20   11.60
   5   1  -2   45.70    4.80
   5   1  -2   37.10    6.40
  -5  -1   2   40.10    3.30
  -5  -1   2   35.60    8.20
  -5  -1   2   37.50    8.50
   4   1  -2  559.14   17.40
   4   1  -2  561.24   17.20
  -4  -1   2  534.25   27.10
  -4  -1   2  551.54   13.60
  -4  -1   2  554.34   23.00
   3   1  -2  291.57   10.60
  -3  -1   2  277.37   10.40
  -3  -1   2  289.97   17.10
   2   1  -2  760.82   17.70
   2   1  -2  749.03   25.90
  -2  -1   2  735.83   17.40
  -2  -1   2  703.23   24.40
   1   1  -2 2456.75   49.30
   1   1  -2 2458.65   41.60
  -1  -1   2 2361.86   48.90
  -1  -1   2 2436.36   41.20
   0   1  -2 9999.00  160.18
  -1   1  -2 3653.43   76.99
  -1   1  -2 3780.32   66.69
   1  -1   2 3902.01   67.49
   1  -1   2 3640.44   74.89
  -2   1  -2  351.46   15.20
  -2   1  -2  359.96   18.10
   2  -1   2  416.06   16.70
   2  -1   2  380.56   17.50
  -3   1  -2  192.58   14.50
  -3   1  -2  187.08   11.90
   3  -1   2  193.78   13.60
  -4   1  -2  368.26   19.00
   4  -1   2  391.66   22.10
  -5   1  -2  167.98   16.60
  -5   1  -2  176.78   13.30
   5  -1   2  148.19   14.90
  -6   1  -2  496.85   24.70
  -6   1  -2  483.65   31.50
   6  -1   2  470.05   30.20
  -7   1  -2   84.19   13.10
  -7   1  -2   98.29   18.60
   7   0  -2  126.09    9.80
  -7   0   2   91.89   17.60
  -7   0   2  119.89    7.90
   6   0  -2    8.20    3.40
  -6   0   2    8.80    5.70
  -6   0   2   12.60    2.60
   5   0  -2   92.69    6.80
  -5   0   2  113.19    7.20
  -5   0   2  100.19   12.10
  -5   0   2  102.79   12.70
   4   0  -2  142.79    7.70
  -4   0   2  127.99   11.50
  -4   0   2  161.68   14.40
  -4   0   2  164.78    8.00
   3   0  -2  115.09   11.00
   3   0  -2  107.09    5.90
  -3   0   2  117.09    8.50
  -3   0   2  100.89    5.50
  -3   0   2  107.99   10.00
  -3   0   2  103.69   10.00
  -3   0   2  107.19    5.80
   2   0  -2  410.96   18.10
   2   0  -2  400.26   11.30
  -2   0   2  394.56   11.30
  -2   0   2  398.26   17.30
   1   0  -2 4311.07   68.29
   1   0  -2 4434.46   76.39
  -1   0   2 4280.37   75.29
   0   0  -2   21.20    1.80
   0   0  -2   22.00    1.60
   0   0   2   26.60    2.10
   0   0   2   24.00    4.50
  -1   0  -2 2445.86   51.09
  -1   0  -2 2456.05   44.70
  -1   0  -2 2594.34   37.40
   1   0   2 2517.95   37.30
   1   0   2 2390.26   45.10
   1   0   2 2428.86   49.10
  -2   0  -2   37.30    4.20
  -2   0  -2   33.50    4.90
   2   0   2   32.00    4.50
   2   0   2   31.00    4.10
  -3   0  -2   98.49   10.80
  -3   0  -2   99.19    7.70
   3   0   2  103.59    9.40
   3   0   2   97.39    8.40
  -4   0  -2  349.67   16.80
  -4   0  -2  309.07   19.90
   4   0   2  322.27   19.40
   4   0   2  349.07   18.70
  -5   0  -2  698.63   14.70
  -5   0  -2  662.33   33.40
  -5   0  -2  688.63   26.60
   5   0   2  731.63   15.10
   5   0   2  699.03   33.20
  -6   0  -2   27.40    8.70
  -6   0  -2   47.70    3.30
  -6   0  -2   46.40    8.30
   6   0   2   46.90   10.10
  -7   0  -2  130.29   15.70
  -7   0  -2  118.39   20.70
  -8   0  -2   28.20   10.60
  -8   0  -2   59.19    7.90
   7  -1  -2   19.50    4.30
  -7   1   2   19.10   15.40
   6  -1  -2   21.50    4.70
  -6   1   2   27.20    7.80
  -6   1   2   24.90    4.60
   5  -1  -2  124.59    7.80
  -5   1   2  106.59   13.30
  -5   1   2  137.29    9.20
  -5   1   2  124.39   13.60
   4  -1  -2  331.77   12.80
  -4   1   2  356.06   21.50
  -4   1   2  345.37   19.50
  -4   1   2  341.67   14.50
   3  -1  -2  297.37   10.20
   3  -1  -2  278.17   17.20
  -3   1   2  279.97   16.70
  -3   1   2  285.07   16.70
  -3   1   2  273.87   11.70
  -3   1   2  272.07   12.00
  -3   1   2  276.97   14.90
   2  -1  -2 1347.57   26.40
   2  -1  -2 1415.46   36.70
  -2   1   2 1376.36   26.10
  -2   1   2 1304.67   31.10
  -2   1   2 1340.57   35.10
  -2   1   2 1400.46   35.70
  -2   1   2 1283.17   29.20
   1  -1  -2 1478.65   32.10
   1  -1  -2 1461.55   26.70
   1  -1  -2 1436.26   30.30
  -1   1   2 1522.75   31.70
  -1   1   2 1534.85   27.50
  -1   1   2 1454.65   26.30
   0  -1  -2 1413.76   24.80
   0  -1  -2 1429.86   25.90
   0  -1  -2 1377.76   24.10
   0   1   2 1390.56   23.90
   0   1   2 1413.66   24.10
   0   1   2 1390.96   27.20
  -1  -1  -2 3085.99   46.80
  -1  -1  -2 3036.40   51.19
  -1  -1  -2 3104.49   53.89
   1   1   2 3097.39   47.00
   1   1   2 2967.00   46.60
   1   1   2 2977.90   52.39
  -2  -1  -2    8.70    2.20
  -2  -1  -2    9.40    1.00
  -2  -1  -2    8.10    2.40
   2   1   2    7.10    2.50
   2   1   2    8.60    0.90
   2   1   2   10.90    2.70
  -3  -1  -2  156.68    9.20
  -3  -1  -2  147.89   11.20
  -3  -1  -2  154.28   11.60
  -3  -1  -2  152.28    4.80
   3   1   2  157.38   11.20
   3   1   2  149.39    9.90
  -4  -1  -2  365.96    9.50
  -4  -1  -2  368.26   21.20
  -4  -1  -2  388.06   16.50
   4   1   2  375.96   18.50
   4   1   2  394.16   21.00
   4   1   2  382.16    9.60
  -5  -1  -2  161.48   15.00
  -5  -1  -2  150.58    6.10
  -5  -1  -2  160.08   11.10
   5   1   2  167.28   15.30
   5   1   2  162.28    6.40
  -6  -1  -2   33.50    9.50
  -6  -1  -2   27.30    3.00
  -6  -1  -2   37.10    6.70
   6   1   2   36.30    3.40
  -7  -1  -2  270.37   25.00
  -7  -1  -2  271.27   16.50
   7   1   2  272.17   10.10
   7  -2  -2   43.30    6.80
  -7   2   2   41.70    6.50
   6  -2  -2   53.19    6.20
  -6   2   2   62.39   13.60
  -6   2   2   61.09    7.80
   5  -2  -2    8.80    2.40
  -5   2   2   11.00    4.50
  -5   2   2    7.50    5.10
   4  -2  -2  323.77   12.20
  -4   2   2  365.16   27.00
  -4   2   2  329.47   15.90
  -4   2   2  302.07   20.00
   3  -2  -2   46.40    3.90
  -3   2   2   45.70    6.70
  -3   2   2   40.70    5.10
  -3   2   2   45.70    3.70
  -3   2   2   46.60    6.50
  -3   2   2   43.70    7.20
   2  -2  -2   66.29    4.20
   2  -2  -2   75.59    8.20
  -2   2   2   65.09    6.40
  -2   2   2   60.99    3.80
  -2   2   2   66.29    6.60
  -2   2   2   62.79    6.60
  -2   2   2   56.39    5.40
   1  -2  -2  403.96   10.90
   1  -2  -2  393.56   15.80
  -1   2   2  418.26   13.50
  -1   2   2  401.26   10.50
  -1   2   2  401.66   13.20
  -1   2   2  372.36   13.20
   0  -2  -2 3613.14   57.99
   0  -2  -2 3666.63   58.69
   0  -2  -2 3596.34   61.59
   0   2   2 3693.43   58.29
   0   2   2 3616.54   57.89
   0   2   2 3726.13   59.59
  -1  -2  -2   56.19    3.00
  -1  -2  -2   55.19    3.50
  -1  -2  -2   56.39    3.50
   1   2   2   56.49    3.40
   1   2   2   51.89    3.60
   1   2   2   50.09    2.80
  -2  -2  -2 2390.46   49.00
  -2  -2  -2 2444.66   44.80
  -2  -2  -2 2483.05   49.40
  -2  -2  -2 2503.15   40.30
   2   2   2 2506.25   46.90
   2   2   2 2329.67   48.00
   2   2   2 2419.36   40.20
  -3  -2  -2   71.39    7.80
  -3  -2  -2   88.99    8.30
  -3  -2  -2   79.69    5.80
  -3  -2  -2   73.79    3.80
   3   2   2   75.49    6.90
   3   2   2   82.59    4.10
   3   2   2   75.09    7.20
  -4  -2  -2  461.75   16.90
  -4  -2  -2  458.55   12.20
  -4  -2  -2  495.35   24.20
   4   2   2  482.85   12.40
   4   2   2  468.35   20.70
  -5  -2  -2   22.00    3.10
  -5  -2  -2   19.80    4.40
  -5  -2  -2   23.40    6.80
   5   2   2   22.00    2.60
  -6  -2  -2  137.89   10.10
  -6  -2  -2  129.59    6.60
  -6  -2  -2  114.79   14.80
   6   2   2  129.79    6.80
  -7  -2  -2   57.39   12.40
  -7  -2  -2   52.69    6.90
   7   2   2   49.30    5.00
   7  -3  -2  123.89   10.50
  -7   3   2  117.69   11.60
  -7   3   2   93.89    8.50
  -7   3   2  126.39   24.90
   6  -3  -2   53.79    7.10
  -6   3   2   47.70    5.70
  -6   3   2   54.29   12.40
  -6   3   2   64.49    8.60
   5  -3  -2   80.69    6.60
  -5   3   2   84.09    9.00
  -5   3   2   78.19   11.80
   4  -3  -2  137.59    7.80
  -4   3   2  138.19   13.80
  -4   3   2  135.49   13.30
  -4   3   2  127.69   10.90
   3  -3  -2  368.06   24.80
   3  -3  -2  359.16   18.70
   3  -3  -2  357.96   12.50
  -3   3   2  343.47   22.80
  -3   3   2  363.56   19.20
  -3   3   2  364.96   12.40
  -3   3   2  369.66   11.70
  -3   3   2  350.86   19.30
  -3   3   2  350.16   17.20
   2  -3  -2  252.77    9.60
   2  -3  -2  251.87   17.40
   2  -3  -2  260.47   13.40
  -2   3   2  234.98   13.10
  -2   3   2  216.68   12.50
  -2   3   2  257.87   14.70
  -2   3   2  252.77    8.90
  -2   3   2  256.97    9.40
   1  -3  -2 1219.38   27.60
   1  -3  -2 1284.57   26.20
   1  -3  -2 1243.68   36.50
  -1   3   2 1270.07   25.40
  -1   3   2 1253.97   25.20
  -1   3   2 1281.07   32.20
  -1   3   2 1277.07   28.70
  -1   3   2 1260.97   28.90
   0  -3  -2 3039.10   58.09
   0  -3  -2 3018.60   50.09
   0   3   2 2975.80   53.69
   0   3   2 2967.40   49.90
   0   3   2 2952.30   50.69
  -1  -3  -2  245.48    7.90
  -1  -3  -2  232.88    9.60
  -1  -3  -2  238.28    7.90
  -1  -3  -2  246.98    8.00
   1   3   2  244.78    8.00
   1   3   2  246.88    8.30
   1   3   2  239.68    8.90
  -2  -3  -2   -0.70    0.50
  -2  -3  -2    0.70    1.00
  -2  -3  -2    0.00    0.50
  -2  -3  -2   -1.00    1.10
   2   3   2   -0.70    1.30
   2   3   2   -0.50    0.40
   2   3   2    0.50    0.80
  -3  -3  -2  324.17   12.10
  -3  -3  -2  324.37   21.50
  -3  -3  -2  325.17   16.50
  -3  -3  -2  329.57   10.10
   3   3   2  348.67   10.60
   3   3   2  311.77   17.90
   3   3   2  318.87   14.20
  -4  -3  -2  287.57   10.00
  -4  -3  -2  290.27   18.20
  -4  -3  -2  280.17   12.90
   4   3   2  291.57   10.10
  -5  -3  -2  232.38   11.80
  -5  -3  -2  243.28   19.10
  -5  -3  -2  228.48    9.30
   5   3   2  249.97   10.00
  -6  -3  -2   16.70    3.90
  -6  -3  -2   17.50    6.60
   6   3   2   20.20    3.60
  -7  -3  -2   78.19    7.30
  -7  -3  -2   76.89   15.00
   7   3   2   80.19    6.70
   7  -4  -2   96.09   11.20
  -7   4   2  107.19   11.30
  -7   4   2  122.29   17.10
  -7   4   2  133.59   12.60
   6  -4  -2   10.60    3.70
  -6   4   2   12.60    7.80
  -6   4   2   13.20    2.70
  -6   4   2   20.20    6.70
   5  -4  -2   62.39    6.10
  -5   4   2   63.39   12.80
  -5   4   2   70.69    9.20
  -5   4   2   53.29    5.20
   4  -4  -2  159.08    9.00
   4  -4  -2  156.08   14.10
  -4   4   2  169.68    8.70
  -4   4   2  163.18   13.60
  -4   4   2  168.68   14.40
   3  -4  -2  549.54   24.00
   3  -4  -2  529.15   16.80
   3  -4  -2  533.55   32.50
  -3   4   2  529.65   23.80
  -3   4   2  521.25   24.10
  -3   4   2  511.55   24.50
  -3   4   2  513.35   27.50
  -3   4   2  519.25   15.80
  -3   4   2  520.95   15.40
   2  -4  -2  133.39    7.40
   2  -4  -2  131.39    9.70
   2  -4  -2  124.79   13.60
  -2   4   2  120.19    6.50
  -2   4   2  124.49    6.60
  -2   4   2  123.49    9.60
  -2   4   2  127.59   11.30
  -2   4   2  127.89   10.50
   1  -4  -2 1669.63   36.20
   1  -4  -2 1668.93   48.70
   1  -4  -2 1728.93   33.40
  -1   4   2 1637.94   39.80
  -1   4   2 1691.03   32.80
  -1   4   2 1692.23   33.50
  -1   4   2 1654.83   41.80
   0  -4  -2 2429.46   43.90
   0  -4  -2 2356.46   55.39
   0  -4  -2 2449.45   43.40
   0   4   2 2367.16   46.40
   0   4   2 2428.86   48.60
   0   4   2 2385.76   43.10
  -1  -4  -2   87.19    7.10
  -1  -4  -2   83.99    6.50
  -1  -4  -2   86.69    5.00
   1   4   2   92.59    5.20
   1   4   2   92.99    6.00
   1   4   2   92.29    5.40
  -2  -4  -2   44.60    5.00
  -2  -4  -2   47.40    4.90
  -2  -4  -2   43.80    4.60
   2   4   2   49.70    3.90
   2   4   2   48.80    5.10
   2   4   2   50.09    4.40
  -3  -4  -2    6.90    2.70
  -3  -4  -2    3.00    2.00
  -3  -4  -2    2.80    1.40
  -3  -4  -2    2.50    1.40
   3   4   2   -1.40    2.00
   3   4   2    2.60    1.30
   3   4   2    1.80    1.50
  -4  -4  -2  167.88    9.60
  -4  -4  -2  155.58   13.10
   4   4   2  178.88   11.40
  -5  -4  -2  102.89   12.00
  -5  -4  -2   94.79    7.30
   5   4   2  102.59    6.60
  -6  -4  -2    2.40    3.70
  -6  -4  -2    2.10    1.80
   6   4   2    0.90    2.00
  -7  -4  -2   -3.90    5.90
   7   4   2   -1.10    3.30
  -6   5   2   50.79   12.30
  -6   5   2   45.10    5.50
  -6   5   2   50.59   10.00
   5  -5  -2   -4.90    3.10
  -5   5   2    0.30    3.80
  -5   5   2    2.80    1.50
  -5   5   2    1.90    3.60
   4  -5  -2  246.18   18.10
  -4   5   2  238.68   17.50
  -4   5   2  270.57   18.90
  -4   5   2  248.08   11.10
   3  -5  -2  775.82   42.40
  -3   5   2  727.53   31.10
  -3   5   2  746.43   20.70
  -3   5   2  763.12   46.00
   2  -5  -2  238.08   20.40
   2  -5  -2  247.78   13.90
  -2   5   2  238.98   14.40
  -2   5   2  230.28   15.70
   1  -5  -2  208.78    9.10
   1  -5  -2  195.48   16.50
   1  -5  -2  225.08   11.30
  -1   5   2  209.18   13.60
  -1   5   2  213.58   14.20
  -1   5   2  216.08    9.20
  -1   5   2  207.48    9.50
   0  -5  -2  149.88   12.60
   0  -5  -2  146.79    7.30
   0  -5  -2  135.39    8.60
   0   5   2  142.39    8.70
   0   5   2  133.29    9.20
   0   5   2  139.59    7.30
  -1  -5  -2  329.47   17.30
  -1  -5  -2  325.07   17.50
  -1  -5  -2  308.97   11.30
   1   5   2  319.27   12.00
   1   5   2  327.67   13.00
   1   5   2  326.17   11.80
  -2  -5  -2   39.20    4.90
  -2  -5  -2   41.30    5.20
   2   5   2   49.00    4.60
   2   5   2   39.80    4.50
   2   5   2   44.30    5.70
  -3  -5  -2   59.29    6.90
  -3  -5  -2   59.59    6.00
  -3  -5  -2   53.49    7.40
   3   5   2   51.99    7.20
   3   5   2   54.99    4.70
  -4  -5  -2  198.18   14.40
  -4  -5  -2  177.98   11.20
   4   5   2  175.88    9.10
  -5  -5  -2  327.17   19.60
  -5  -5  -2  309.27   21.30
  -6  -5  -2   70.49    8.10
  -6  -5  -2   73.29   13.30
   6   5   2   67.59    7.00
  -7  -5  -2   -1.10    5.30
  -7  -5  -2    6.10    3.60
   7   5   2   -0.20    3.30
  -6   6   2    9.70    2.70
  -6   6   2   11.00    7.60
  -6   6   2   13.40    5.90
   5  -6  -2  111.09   16.70
  -5   6   2   86.19   12.90
  -5   6   2   85.29   15.80
  -5   6   2   94.59    7.20
   4  -6  -2    7.40    5.50
   4  -6  -2    1.10    8.10
  -4   6   2    0.80    3.60
  -4   6   2    4.80    3.70
   3  -6  -2 1608.14   47.50
   3  -6  -2 1748.93  100.09
  -3   6   2 1512.45   59.59
  -3   6   2 1521.25   35.00
  -3   6   2 1536.15   48.20
   2  -6  -2   55.29   12.50
   2  -6  -2   36.90    6.70
  -2   6   2   42.20    4.20
  -2   6   2   49.99   10.90
   1  -6  -2   35.40    5.30
   1  -6  -2   35.00    9.40
  -1   6   2   27.20    6.50
  -1   6   2   35.10    4.00
   0  -6  -2   15.90    5.50
   0  -6  -2   14.50    4.20
   0   6   2   22.20    4.20
   0   6   2   16.20    3.20
  -1  -6  -2  514.05   26.00
  -1  -6  -2  559.54   26.50
   1   6   2  543.25   17.30
   1   6   2  557.64   18.10
  -2  -6  -2   27.80    6.80
  -2  -6  -2   38.50    7.50
   2   6   2   34.20    6.00
   2   6   2   31.00    3.50
  -3  -6  -2   68.29    7.40
  -3  -6  -2   54.59    9.00
  -3  -6  -2   49.20    7.00
   3   6   2   44.30    4.50
   3   6   2   51.69    7.50
  -4  -6  -2   83.09    9.80
  -4  -6  -2   96.59    8.90
   4   6   2   76.99    6.60
  -5  -6  -2  157.48   15.60
  -5  -6  -2  157.68   12.20
   5   6   2  167.18    9.80
  -6  -6  -2  106.69   10.10
  -6  -6  -2   84.79   15.20
   6   6   2   93.29    8.30
  -6   7   2   41.30    6.30
  -6   7   2   33.10    9.80
  -6   7   2   46.30   11.70
   5  -7  -2   42.20   10.00
  -5   7   2   27.00    8.80
  -5   7   2   26.00    4.70
  -5   7   2   41.80   10.80
   4  -7  -2   78.19   12.80
   4  -7  -2   60.59   18.10
  -4   7   2   67.59    6.40
  -4   7   2   62.49   12.80
  -4   7   2   67.09   12.70
   3  -7  -2   45.80    9.00
   3  -7  -2   54.49   14.50
  -3   7   2   51.99    5.30
  -3   7   2   40.80    9.50
   2  -7  -2  687.13   26.70
   2  -7  -2  614.94   40.80
  -2   7   2  615.94   33.90
   1  -7  -2   65.89    7.90
   1  -7  -2   70.69   19.70
  -1   7   2   75.09    6.20
  -1   7   2   80.69   14.10
   0  -7  -2  137.59   15.90
   0  -7  -2  132.89   11.30
   0   7   2  143.29    8.70
   0   7   2  154.78    9.70
  -1  -7  -2  226.28   18.60
  -1  -7  -2  177.38   16.40
   1   7   2  194.58   11.20
   1   7   2  195.08   13.10
  -2  -7  -2  841.02   37.90
  -2  -7  -2  814.52   35.60
   2   7   2  782.52   24.00
   2   7   2  795.22   27.80
  -3  -7  -2  496.65   27.10
  -3  -7  -2  478.05   25.50
   3   7   2  493.95   18.30
  -4  -7  -2   57.09   12.40
  -4  -7  -2   56.39    9.50
   4   7   2   48.20    5.40
  -5  -7  -2   40.00   10.30
  -5  -7  -2   34.50    8.10
   5   7   2   42.70    6.50
  -6  -7  -2  233.58   21.70
  -6  -7  -2  268.07   18.70
   6   7   2  255.67   14.30
   5  -8  -2    7.50    7.20
  -5   8   2   20.50    6.90
  -5   8   2   16.50    3.40
  -5   8   2   13.00    7.00
   4  -8  -2  116.79   26.10
   4  -8  -2  129.19   15.30
  -4   8   2  118.19   15.80
  -4   8   2  109.49   14.00
  -4   8   2  143.89   10.40
   3  -8  -2   82.19   20.10
   3  -8  -2   73.49   10.50
  -3   8   2   81.99   15.20
  -3   8   2   76.29    7.10
   2  -8  -2  257.87   28.10
  -2   8   2  252.07   12.80
   1  -8  -2    4.10    3.40
   1  -8  -2    8.40    5.40
  -1   8   2   11.90    3.20
  -1   8   2   11.70    6.20
   0  -8  -2   80.59    9.60
   0  -8  -2   72.29   15.20
   0   8   2   64.09    7.00
   0   8   2   70.59    6.60
  -1  -8  -2   94.69   17.10
  -1  -8  -2  114.69   13.60
   1   8   2   97.59    7.90
  -2  -8  -2  152.48   17.10
  -2  -8  -2  182.78   18.80
   2   8   2  169.28   10.90
   2   8   2  184.68   12.90
  -3  -8  -2  136.39   15.90
  -3  -8  -2  183.88   20.00
   3   8   2  139.99   10.10
  -4  -8  -2   71.19   13.20
  -4  -8  -2   58.99   13.10
   4   8   2   49.99    6.00
  -5  -8  -2  104.49   17.40
  -5  -8  -2  138.49   15.40
   5   8   2  104.99    9.60
   5  -9  -2  163.78   20.30
  -5   9   2  177.78   11.70
  -5   9   2  193.58   21.70
  -5   9   2  180.98   18.80
   4  -9  -2  120.49   28.40
   4  -9  -2  115.09   15.60
  -4   9   2  150.88   10.50
  -4   9   2  139.49   16.50
  -4   9   2  141.89   18.10
   3  -9  -2   64.89   15.40
   3  -9  -2   49.70   16.20
  -3   9   2   57.39   13.10
  -3   9   2   60.49    6.60
   2  -9  -2   91.89   22.30
   2  -9  -2  119.19   11.20
  -2   9   2  102.89    8.20
   1  -9  -2   41.50   14.90
   1  -9  -2   42.40    7.50
  -1   9   2   25.50    8.00
  -1   9   2   32.20    5.60
   0  -9  -2   40.50    9.00
   0  -9  -2   38.00   13.00
   0   9   2   50.99    6.50
   0   9   2   37.10    6.10
  -1  -9  -2  296.67   21.20
  -1  -9  -2  253.87   25.20
   1   9   2  262.87   15.20
   1   9   2  225.18   13.20
  -2  -9  -2  133.99   17.90
  -2  -9  -2  124.69   21.00
   2   9   2  145.49   10.80
  -3  -9  -2   -3.10    7.90
  -3  -9  -2   12.90    7.30
   3   9   2    9.20    3.50
  -4  -9  -2   23.50    8.10
  -4  -9  -2   17.70   10.80
   4   9   2   11.90    4.40
  -5  -9  -2  150.18   25.00
  -5  -9  -2  169.08   17.90
   5   9   2  134.09   12.30
   4 -10  -2   11.90    7.80
   4 -10  -2   47.30   18.90
  -4  10   2   19.00    8.40
  -4  10   2   14.40    6.70
  -4  10   2   23.90    4.90
   3 -10  -2   43.50   17.20
   3 -10  -2   27.60    8.20
  -3  10   2   26.60    9.20
  -3  10   2   22.20    5.00
   2 -10  -2  135.69   25.90
   2 -10  -2  141.49   14.60
  -2  10   2  135.49   10.70
  -2  10   2  137.19   18.10
   1 -10  -2  232.88   16.70
   1 -10  -2  246.88   29.70
  -1  10   2  240.38   14.00
   0 -10  -2   47.70   15.70
   0 -10  -2   58.59   16.30
   0  10   2   79.79    8.00
  -1 -10  -2   97.79   14.00
  -1 -10  -2  104.19   21.20
   1  10   2   85.39    8.70
  -2 -10  -2  110.09   19.30
  -2 -10  -2  155.08   20.40
   2  10   2  130.19   11.00
  -3 -10  -2   14.90   13.40
  -3 -10  -2   27.00    9.40
   3  10   2   19.60    5.00
  -4 -10  -2   39.80   21.90
  -4 -10  -2   95.39   18.30
   4  10   2   84.19    9.00
   3 -11  -2   29.90   14.00
   3 -11  -2   -3.70   10.00
  -3  11   2   15.70    6.00
  -3  11   2   19.00    8.40
   2 -11  -2  171.08   17.80
   2 -11  -2  174.48   32.30
  -2  11   2  210.78   13.70
  -2  11   2  207.78   24.10
   1 -11  -2   57.29   11.40
   1 -11  -2   73.39   21.60
  -1  11   2   75.29    7.80
   0 -11  -2   25.10   11.50
   0 -11  -2   11.50    8.90
   0  11   2    9.00    3.60
  -1 -11  -2   26.20   10.40
  -1 -11  -2   42.30   14.30
   1  11   2   40.00   10.60
  -2 -11  -2   56.49   13.50
  -2 -11  -2   31.00   24.00
   2  11   2   40.00    7.00
   1  10  -3   86.99    8.30
   1  10  -3   59.59   14.30
  -1 -10   3  114.79   22.50
  -1 -10   3   34.80   19.40
   0  10  -3   48.50   10.90
   0  10  -3   36.10    7.50
   0 -10   3   37.80   16.60
   0 -10   3   45.80   16.10
  -1  10  -3   27.30    5.80
  -1  10  -3    4.90    7.80
   1 -10   3   21.40   14.50
   1 -10   3   29.40   12.50
  -2  10  -3   71.29    7.20
  -2  10  -3   29.70   13.10
   2 -10   3   52.49   16.20
  -3  10  -3   15.10   10.10
  -3  10  -3   46.00    7.00
   3 -10   3   24.20   11.40
   3   9  -3   72.29   14.10
   3   9  -3   91.19   10.10
  -3  -9   3   85.89   27.40
   2   9  -3  173.18   15.10
   2   9  -3  198.88   19.20
  -2  -9   3  180.98   34.30
  -2  -9   3  180.48   32.60
   1   9  -3   11.50    8.40
   1   9  -3   18.80    5.10
  -1  -9   3   10.20   11.20
  -1  -9   3   16.00   10.10
   0   9  -3   31.30    8.70
   0   9  -3   28.80    5.70
   0  -9   3   20.80   12.50
   0  -9   3   22.40   12.90
  -1   9  -3   12.00    7.40
  -1   9  -3   22.30    5.20
   1  -9   3   23.30    9.30
   1  -9   3   -6.20    8.70
  -2   9  -3   23.00    5.00
  -2   9  -3   25.90    9.90
   2  -9   3    7.30    7.90
   2  -9   3   12.80   13.50
  -3   9  -3   42.20   10.70
  -3   9  -3   36.40    5.90
   3  -9   3   36.60   11.00
  -4   9  -3   62.09    5.90
  -4   9  -3   47.20   12.10
   4  -9   3   51.19   14.00
   4   8  -3   16.40    4.60
  -4  -8   3   13.00   22.90
   3   8  -3   20.90    4.70
   3   8  -3   14.60    6.20
  -3  -8   3   10.50   15.50
   2   8  -3  285.17   20.90
   2   8  -3  310.17   16.40
  -2  -8   3  300.67   27.90
  -2  -8   3  290.47   36.10
   1   8  -3  683.93   33.10
   1   8  -3  643.24   24.20
  -1  -8   3  683.23   42.20
  -1  -8   3  658.33   53.39
   0   8  -3   33.70    9.50
   0   8  -3   55.49    6.00
   0  -8   3   49.70   14.60
   0  -8   3   58.49   15.10
  -1   8  -3   12.20    7.80
   1  -8   3   14.80    8.70
  -2   8  -3  138.69    9.20
  -2   8  -3  120.99   15.50
   2  -8   3  140.39   28.50
  -3   8  -3  181.68   10.00
  -3   8  -3  141.09   17.60
   3  -8   3  143.39   19.60
  -4   8  -3  230.58   23.40
  -4   8  -3  213.88   10.70
   4  -8   3  192.98   21.40
  -5   8  -3  169.78   20.80
  -5   8  -3  147.99    8.50
   5  -8   3  144.89   20.20
   4   7  -3   14.30    4.50
  -4  -7   3   10.50    9.40
   3   7  -3   59.29    7.00
  -3  -7   3   64.49   18.50
  -3  -7   3   55.69   12.30
   2   7  -3   54.69    7.90
   2   7  -3   42.50    8.80
  -2  -7   3   49.70   16.70
  -2  -7   3   66.79   13.10
   1   7  -3  214.88   15.40
   1   7  -3  202.58   16.00
  -1  -7   3  205.38   19.60
  -1  -7   3  214.68   26.60
   0   7  -3  166.18   10.30
   0  -7   3  177.78   38.80
   0  -7   3  196.68   25.50
  -1   7  -3   59.39    5.60
  -1   7  -3   40.20    9.20
   1  -7   3   70.19   16.50
   1  -7   3   48.80   14.00
  -2   7  -3   73.09   13.10
  -2   7  -3   72.49    5.90
   2  -7   3   65.99   14.40
   2  -7   3   54.19   15.50
  -3   7  -3  239.68   21.40
  -3   7  -3  252.97   11.40
   3  -7   3  285.27   25.60
  -4   7  -3  238.78   10.70
  -4   7  -3  214.68   21.50
   4  -7   3  246.68   23.20
  -5   7  -3   21.70    3.70
  -5   7  -3   12.70    5.80
   5  -7   3   20.80    8.60
  -6   7  -3    6.30    7.40
   6  -7   3   -9.10    6.00
   5   6  -3   59.39    9.10
  -5  -6   3   72.79   16.90
   4   6  -3  221.78   13.80
  -4  -6   3  230.08   25.80
   3   6  -3  189.28   10.00
   3   6  -3  197.38   12.20
  -3  -6   3  177.38   16.20
  -3  -6   3  182.68   26.10
   2   6  -3   77.29    7.10
   2   6  -3   72.29    6.40
  -2  -6   3   73.39   19.00
  -2  -6   3   84.69   13.90
   1   6  -3  126.39   11.70
   1   6  -3  122.39    8.60
  -1  -6   3  112.49   25.90
  -1  -6   3  130.59   14.80
   0   6  -3  131.49   10.80
   0   6  -3  127.79   12.10
   0  -6   3  131.29   15.50
   0  -6   3  165.38   20.60
  -1   6  -3    1.60    1.60
   1  -6   3    0.50    4.60
   1  -6   3    3.70    5.30
  -2   6  -3   92.29    6.40
  -2   6  -3   91.49   11.80
  -3   6  -3   32.20    4.70
  -3   6  -3   19.80    6.90
   3  -6   3   25.80    9.30
  -4   6  -3  553.84   32.90
  -4   6  -3  546.75   16.40
   4  -6   3  604.94   42.70
  -5   6  -3   56.79    4.50
  -5   6  -3   44.90   11.40
  -5   6  -3   58.29    5.30
   5  -6   3   66.59   14.60
  -6   6  -3   63.49   13.40
   6  -6   3   74.89   16.60
   5   5  -3   49.99    8.00
  -5  -5   3   46.30   11.70
   4   5  -3  186.28   11.90
  -4  -5   3  179.88   19.70
   3   5  -3   66.19    6.60
   3   5  -3   74.19    5.70
  -3  -5   3   79.29   15.40
  -3  -5   3   83.99    9.40
   2   5  -3   16.00    3.30
   2   5  -3   14.90    3.60
  -2  -5   3   21.50    5.30
  -2  -5   3   10.20    7.00
   1   5  -3  250.07   14.70
   1   5  -3  258.87   11.70
   1   5  -3  243.68   13.30
  -1  -5   3  261.37   25.40
  -1  -5   3  265.67   19.30
   0   5  -3  130.79   10.90
   0   5  -3  124.09   11.70
   0   5  -3  129.09    7.80
   0  -5   3  120.29   14.50
   0  -5   3  151.58   19.90
  -1   5  -3  482.85   15.40
  -1   5  -3  491.15   24.00
   1  -5   3  493.45   33.50
   1  -5   3  497.15   32.90
  -2   5  -3   47.90    4.00
  -2   5  -3   39.80    8.30
   2  -5   3   43.60    4.00
   2  -5   3   46.30   10.80
  -3   5  -3  214.18   17.90
  -3   5  -3  197.68    8.30
   3  -5   3  244.68   30.00
   3  -5   3  213.38    8.60
  -4   5  -3  247.68    8.90
  -4   5  -3  232.58   19.70
   4  -5   3  229.68   20.20
  -5   5  -3   42.80   10.60
  -5   5  -3   69.49    3.90
  -5   5  -3   51.39    3.50
   5  -5   3   31.50    9.70
  -6   5  -3   55.19   12.00
   6  -5   3   34.40    9.90
  -7   5  -3   14.70    7.90
  -7   5  -3   14.60    7.30
   7  -5   3   23.90   10.30
   6   4  -3  154.88   12.00
  -6  -4   3  166.18   20.50
   5   4  -3   32.20    5.70
  -5  -4   3   33.40    8.10
   4   4  -3  213.28   11.90
  -4  -4   3  201.58   25.70
   3   4  -3   17.30    3.90
  -3  -4   3   18.30    6.10
   2   4  -3  100.59    5.30
   2   4  -3   98.99    6.90
  -2  -4   3  105.99    9.50
  -2  -4   3   97.69   13.30
   1   4  -3   31.10    3.70
   1   4  -3   32.10    5.50
   1   4  -3   34.60    5.50
  -1  -4   3   20.50    5.40
  -1  -4   3   32.20    9.90
   0   4  -3  282.47   17.40
   0   4  -3  308.17   20.90
   0   4  -3  307.97   15.60
   0   4  -3  313.97   11.40
   0  -4   3  291.97   20.50
   0  -4   3  281.67   25.50
   0  -4   3  297.77   11.10
  -1   4  -3  237.78   21.90
  -1   4  -3  190.98   17.00
  -1   4  -3  215.78    8.80
  -1   4  -3  240.18   14.60
   1  -4   3  201.98   19.70
   1  -4   3  223.18    8.90
   1  -4   3  231.28   20.80
  -2   4  -3   98.09   10.10
  -2   4  -3  102.79    5.30
   2  -4   3   98.19   12.10
   2  -4   3   95.19    5.30
  -3   4  -3   16.80    4.80
  -3   4  -3   22.30    2.30
   3  -4   3   13.80    5.10
   3  -4   3   22.30    3.00
  -4   4  -3  212.58    7.20
  -4   4  -3  208.08    7.40
  -4   4  -3  214.88   17.60
   4  -4   3  204.48   18.70
  -5   4  -3   25.00    7.80
  -6   4  -3   21.60    8.30
   6  -4   3   27.50    9.80
  -7   4  -3   82.19   21.10
   7  -4   3  111.89   23.90
   6   3  -3    0.00    2.70
  -6  -3   3   -1.20    4.60
   5   3  -3   33.10    6.00
  -5  -3   3   33.40    8.40
   4   3  -3   34.20    5.50
  -4  -3   3   54.59   10.80
   3   3  -3  214.88   10.70
  -3  -3   3  221.28   16.70
   2   3  -3  242.58   10.60
  -2  -3   3  224.78   16.60
   1   3  -3  278.87   11.80
   1   3  -3  290.17   11.70
   1   3  -3  276.17   10.70
   1   3  -3  286.27   16.00
  -1  -3   3  263.07   20.70
  -1  -3   3  266.77   15.50
   0   3  -3 1120.19   39.50
   0   3  -3 1115.29   30.50
   0   3  -3 1155.18   35.20
   0   3  -3 1126.79   24.30
   0  -3   3 1116.09   39.70
   0  -3   3 1103.49   47.90
  -1   3  -3    7.70    4.90
  -1   3  -3   10.30    2.00
  -1   3  -3    5.40    2.00
  -1   3  -3   13.20    4.70
   1  -3   3   13.70    2.40
   1  -3   3   15.90    6.20
  -2   3  -3    7.80    4.50
  -2   3  -3   16.80    4.90
  -2   3  -3   23.90    7.70
  -2   3  -3   13.10    2.00
   2  -3   3   15.90    5.60
   2  -3   3   17.20    2.40
   2  -3   3   15.00    4.50
  -3   3  -3  121.19   11.40
  -3   3  -3  109.19    4.90
  -3   3  -3  111.49    4.50
   3  -3   3  114.59    4.50
   3  -3   3  106.99   11.90
  -4   3  -3  247.48   17.60
   4  -3   3  219.38   18.50
  -5   3  -3  150.08   14.90
   5  -3   3  141.39   15.90
  -6   3  -3  112.59   16.30
  -6   3  -3  118.49   14.00
   6  -3   3  102.69   15.20
  -7   3  -3   51.19   12.40
  -7   3  -3   50.69   10.50
   7  -3   3   54.49   13.30
   6   2  -3   18.80    4.50
  -6  -2   3   20.30    7.00
   5   2  -3   49.99    5.70
  -5  -2   3   42.50   10.10
   4   2  -3  167.18    9.50
  -4  -2   3  150.48   14.70
   3   2  -3 1055.49   26.10
  -3  -2   3  985.90   36.50
   2   2  -3  484.55   15.00
  -2  -2   3  495.95   15.80
  -2  -2   3  488.55   23.80
   1   2  -3 1073.09   23.50
   1   2  -3 1044.00   33.90
   1   2  -3 1082.09   23.10
  -1  -2   3 1074.89   37.50
  -1  -2   3 1062.29   24.30
   0   2  -3 1363.16   37.40
   0   2  -3 1317.27   41.10
   0   2  -3 1336.17   26.10
   0   2  -3 1318.97   30.80
   0  -2   3 1302.07   25.80
   0  -2   3 1335.77   48.90
  -1   2  -3  910.71   18.20
  -1   2  -3  840.82   26.00
  -1   2  -3  960.00   36.20
   1  -2   3  879.21   26.20
   1  -2   3  902.41   37.00
   1  -2   3  869.61   18.00
  -2   2  -3  570.84   22.30
  -2   2  -3  579.44   11.80
   2  -2   3  469.25   30.20
   2  -2   3  605.94   26.90
   2  -2   3  570.14   11.80
  -3   2  -3 1153.98   74.09
   3  -2   3 1189.48   46.70
  -4   2  -3  211.88   15.30
   4  -2   3  217.88   17.30
  -5   2  -3  798.52   33.80
   5  -2   3  748.53   36.80
  -6   2  -3   31.40    9.30
  -6   2  -3   44.50   11.10
   6  -2   3   51.69   11.20
  -7   2  -3    5.70    5.10
  -7   2  -3   -1.00    4.00
   7  -2   3    9.60    4.50
   7   1  -3   56.09    8.60
  -7  -1   3   62.49   12.10
   6   1  -3   54.69    6.30
  -6  -1   3   37.90    9.00
   5   1  -3  241.08   12.10
  -5  -1   3  237.98   20.30
   4   1  -3  889.71   24.20
  -4  -1   3  899.71   36.90
   3   1  -3 1096.49   26.10
  -3  -1   3 1073.19   37.20
   2   1  -3  826.42   20.50
   2   1  -3  830.32   29.30
  -2  -1   3  848.82   20.40
  -2  -1   3  840.02   28.70
   1   1  -3 1125.99   23.50
   1   1  -3 1173.18   31.60
  -1  -1   3 1112.89   23.40
  -1  -1   3 1099.89   32.20
   0   1  -3 1748.03   44.70
   0   1  -3 1688.93   30.80
   0  -1   3 1719.83   51.19
   0  -1   3 1732.03   30.80
   0  -1   3 1791.62   34.70
  -1   1  -3  142.39    4.90
  -1   1  -3  156.88    9.00
   1  -1   3  153.58    4.90
   1  -1   3  152.98    9.00
   2  -1   3  243.58   15.10
   2  -1   3  220.48   12.80
  -3   1  -3  251.77   14.80
  -3   1  -3  262.87   18.40
   3  -1   3  273.77   16.10
   3  -1   3  252.27   16.50
  -4   1  -3  552.84   24.00
   4  -1   3  544.65   27.20
  -5   1  -3  141.89   14.90
  -5   1  -3  130.39   15.10
   5  -1   3  106.39   13.00
  -6   1  -3  303.97   19.90
  -6   1  -3  283.77   24.00
   6  -1   3  316.27   24.30
  -7   1  -3    6.20    3.50
  -7   1  -3    8.80    5.10
   7  -1   3    0.10    5.20
  -8   1  -3   43.10   14.60
   7   0  -3   19.30    5.90
  -7   0   3   24.30    7.20
   6   0  -3   53.99    6.50
  -6   0   3   37.00    9.70
   5   0  -3   36.00    5.50
  -5   0   3   59.49   17.90
   4   0  -3  590.04   18.30
  -4   0   3  532.65   29.20
   3   0  -3  200.58   10.90
  -3   0   3  205.18   14.60
   2   0  -3 2059.59   52.49
   2   0  -3 2158.28   39.60
  -2   0   3 2101.19   40.40
  -2   0   3 2103.59   49.40
   1   0  -3  200.78    7.40
   1   0  -3  185.38   10.30
  -1   0   3  206.18   10.80
  -1   0   3  209.48    7.40
   0   0  -3 2944.21   46.30
   0   0  -3 2781.22   55.59
   0   0  -3 2794.12   46.80
   0   0   3 2863.01   56.09
   0   0   3 2828.52   46.10
   0   0   3 2735.83   62.99
  -1   0  -3 5178.98   85.09
  -1   0  -3 4962.70   99.19
   1   0   3 5152.58   86.29
   1   0   3 5063.99   95.99
  -2   0  -3  464.25   16.90
  -2   0  -3  471.85   21.60
   2   0   3  464.85   18.00
   2   0   3  484.25   19.80
  -3   0  -3  172.88   11.10
  -3   0  -3  156.98   12.80
   3   0   3  183.78   13.00
   3   0   3  174.48   12.10
  -4   0  -3  305.57   16.50
   4   0   3  316.07   19.30
  -5   0  -3  650.73   33.20
  -5   0  -3  641.14   26.70
   5   0   3  672.93   32.40
  -6   0  -3  450.55   22.80
  -6   0  -3  411.56   28.80
   6   0   3  399.66   27.30
  -7   0  -3   23.40    7.70
  -7   0  -3   43.50    8.70
   7   0   3   50.19   12.90
  -8   0  -3  124.59   12.30
  -8   0  -3  135.69   19.50
   7  -1  -3    5.40    4.20
  -7   1   3   12.90    7.20
   6  -1  -3   43.30    6.60
  -6   1   3   51.79    5.10
  -6   1   3   44.50   10.60
   5  -1  -3  165.68    9.90
  -5   1   3  179.48   12.30
  -5   1   3  185.28    9.70
  -5   1   3  165.68   16.50
   4  -1  -3   97.39    6.60
  -4   1   3   89.29    6.40
  -4   1   3  106.19   11.50
  -4   1   3   98.69    8.70
   3  -1  -3  398.86   13.40
  -3   1   3  402.36   13.00
  -3   1   3  405.16   21.10
  -3   1   3  386.16   13.10
  -3   1   3  409.16   14.40
   2  -1  -3  277.97   13.00
   2  -1  -3  298.27   15.50
   2  -1  -3  263.67    9.80
  -2   1   3  275.57    9.60
  -2   1   3  284.97    9.70
  -2   1   3  305.07   14.90
   1  -1  -3  627.84   15.30
   1  -1  -3  667.93   20.20
   1  -1  -3  651.13   16.30
  -1   1   3  682.33   19.60
  -1   1   3  657.33   15.20
  -1   1   3  664.73   13.10
   0  -1  -3   16.20    2.30
   0  -1  -3   17.30    1.80
   0  -1  -3   16.50    1.70
   0   1   3   17.40    1.90
   0   1   3   16.00    4.30
   0   1   3   14.80    1.60
  -1  -1  -3  306.17   14.30
  -1  -1  -3  302.17   10.30
  -1  -1  -3  291.67    8.70
   1   1   3  308.67    7.40
   1   1   3  307.57   12.40
   1   1   3  284.47   15.60
  -2  -1  -3  587.74   17.90
  -2  -1  -3  593.44   21.50
   2   1   3  614.74   20.40
   2   1   3  562.74   18.80
   2   1   3  599.84   11.10
   2   1   3  567.64   10.90
  -3  -1  -3  991.90   32.70
  -3  -1  -3 1006.70   27.80
   3   1   3  968.70   30.90
   3   1   3  890.61   28.80
  -4  -1  -3   64.19    6.70
  -4  -1  -3   58.59    8.20
   4   1   3   72.89    8.40
  -5  -1  -3  259.17   14.90
  -5  -1  -3  244.28   20.40
   5   1   3  249.48   18.90
  -6  -1  -3  516.25   35.40
  -6  -1  -3  523.65   23.40
   6   1   3  471.25   31.00
  -7  -1  -3   18.80    7.70
  -7  -1  -3   14.70    4.90
  -8  -1  -3    9.00    7.50
  -8  -1  -3    3.20    3.20
   7  -2  -3   14.70    4.80
  -7   2   3   14.50    9.90
   6  -2  -3   30.80    5.80
  -6   2   3   16.00    6.90
  -6   2   3   42.30    5.50
   5  -2  -3  182.98   12.90
  -5   2   3  167.88   11.20
  -5   2   3  187.78   17.70
  -5   2   3  195.08   14.60
   4  -2  -3  174.78    9.30
  -4   2   3  177.98   12.80
  -4   2   3  167.58   14.60
  -4   2   3  174.68   10.90
   3  -2  -3   25.50    3.20
  -3   2   3   29.80    3.10
  -3   2   3   36.90    4.40
  -3   2   3   28.80    4.90
  -3   2   3   21.40    5.60
   2  -2  -3   90.49    8.80
   2  -2  -3   98.69    8.70
   2  -2  -3   95.99    5.70
  -2   2   3   94.69    8.20
  -2   2   3   98.79    8.30
  -2   2   3  100.89    8.30
  -2   2   3   94.39    6.60
   1  -2  -3  135.79    8.40
   1  -2  -3  136.99    6.20
   1  -2  -3  139.39    8.00
  -1   2   3  135.99    5.90
  -1   2   3  141.99    6.40
  -1   2   3  139.39    7.70
  -1   2   3  150.28    7.80
   0  -2  -3  235.18    8.50
   0  -2  -3  237.78    7.20
   0  -2  -3  230.28    7.80
   0   2   3  224.98    7.60
   0   2   3  232.68    7.50
   0   2   3  225.68    7.60
   0   2   3  227.68    8.70
  -1  -2  -3  568.24   14.70
  -1  -2  -3  587.84   12.90
  -1  -2  -3  551.54   16.30
   1   2   3  553.24   15.30
   1   2   3  569.04   12.60
   1   2   3  553.24   14.20
   1   2   3  564.34   12.80
  -2  -2  -3  182.78   10.20
  -2  -2  -3  180.88    9.90
  -2  -2  -3  176.48    5.80
   2   2   3  171.28    5.60
   2   2   3  175.88    9.40
   2   2   3  168.58    9.30
  -3  -2  -3 1827.72   46.80
  -3  -2  -3 1816.72   46.20
  -3  -2  -3 1860.41   40.20
  -3  -2  -3 1851.11   31.70
   3   2   3 1856.41   31.70
   3   2   3 1807.52   44.80
   3   2   3 1972.30   44.90
  -4  -2  -3  272.27   17.10
  -4  -2  -3  251.27    7.70
  -4  -2  -3  258.47   13.20
   4   2   3  276.27   16.90
   4   2   3  265.17    7.80
  -5  -2  -3  143.49    6.00
  -5  -2  -3  158.68   22.80
  -5  -2  -3  138.39   10.20
   5   2   3  137.69    5.90
  -6  -2  -3   90.89   21.50
  -6  -2  -3  101.39    5.30
  -6  -2  -3  117.29    9.80
   6   2   3  115.59    5.60
  -7  -2  -3    3.90    5.30
  -7  -2  -3   17.40    4.40
   7  -3  -3   16.60    5.60
  -7   3   3   23.00    4.60
  -7   3   3   20.20    5.80
  -7   3   3   17.50    8.00
   6  -3  -3   52.09    7.70
  -6   3   3   71.49    7.80
  -6   3   3   51.19   12.10
   5  -3  -3   59.59    6.30
  -5   3   3   77.59    7.90
  -5   3   3   44.20    9.50
   4  -3  -3  211.78   10.70
  -4   3   3  194.18   13.20
  -4   3   3  210.88   16.80
  -4   3   3  203.28   15.00
   3  -3  -3  116.39   12.40
   3  -3  -3  106.09   10.10
  -3   3   3  107.59   10.20
  -3   3   3  104.39    8.80
  -3   3   3  104.39    9.70
  -3   3   3  111.49    9.60
   2  -3  -3  424.56   13.80
   2  -3  -3  439.66   22.70
  -2   3   3  422.06   17.20
  -2   3   3  401.36   17.40
  -2   3   3  418.96   12.90
  -2   3   3  428.76   17.90
   1  -3  -3   89.89    5.40
   1  -3  -3   89.29    7.90
  -1   3   3   85.19    5.80
  -1   3   3   82.29    6.00
  -1   3   3   85.19    5.80
  -1   3   3   85.19    5.20
  -1   3   3   87.09    5.10
   0  -3  -3  540.45   17.60
   0  -3  -3  569.74   15.10
   0   3   3  558.14   14.20
   0   3   3  565.14   15.30
   0   3   3  558.24   14.50
  -1  -3  -3  351.06   12.20
  -1  -3  -3  362.36   10.40
   1   3   3  378.56   11.00
   1   3   3  383.46   10.50
   1   3   3  352.56   11.70
  -2  -3  -3  267.67   11.80
  -2  -3  -3  276.47    8.60
  -2  -3  -3  276.67   11.80
  -2  -3  -3  272.97   10.70
   2   3   3  256.37    8.50
   2   3   3  276.77   11.80
  -3  -3  -3   35.40    3.90
  -3  -3  -3   33.30    6.10
  -3  -3  -3   31.60    2.90
  -3  -3  -3   23.40    5.00
   3   3   3   34.60    2.80
   3   3   3   25.80    4.60
  -4  -3  -3   24.50    4.40
  -4  -3  -3   21.60    2.70
  -4  -3  -3   25.50    6.50
   4   3   3   26.90    2.80
  -5  -3  -3   25.40    3.40
  -5  -3  -3   25.50    8.60
  -5  -3  -3   40.20    4.60
   5   3   3   28.60    3.80
  -6  -3  -3  130.39    9.80
  -6  -3  -3  115.79   15.80
  -6  -3  -3  139.29    6.90
   6   3   3  132.69    7.00
  -7  -3  -3  100.29   14.60
  -7  -3  -3   92.19    8.70
   7   3   3   88.49    6.70
   6  -4  -3   49.30    7.60
  -6   4   3   46.50    6.80
  -6   4   3   67.19    8.00
  -6   4   3   55.49   13.00
   5  -4  -3   29.10    5.20
  -5   4   3   32.90    8.60
  -5   4   3   32.10    5.40
  -5   4   3   40.90    7.30
   4  -4  -3  208.28   11.10
  -4   4   3  215.88   10.90
  -4   4   3  201.18   14.50
  -4   4   3  222.58   17.00
   3  -4  -3  188.28    9.90
   3  -4  -3  182.28   18.00
  -3   4   3  192.78   13.50
  -3   4   3  169.28   13.10
  -3   4   3  168.98   13.10
  -3   4   3  172.38    9.10
  -3   4   3  171.48   14.40
   2  -4  -3   95.29   11.30
   2  -4  -3   81.59    5.90
   2  -4  -3   91.19    7.50
  -2   4   3   86.79    8.20
  -2   4   3   78.49    7.20
  -2   4   3   88.89    5.80
  -2   4   3   84.29    8.10
  -2   4   3   86.89    5.50
   1  -4  -3 1062.09   24.80
   1  -4  -3 1134.19   36.90
   1  -4  -3 1128.79   26.20
  -1   4   3 1022.90   25.00
  -1   4   3 1080.29   24.40
  -1   4   3 1055.69   27.00
  -1   4   3 1073.59   24.70
  -1   4   3 1094.99   32.90
   0  -4  -3 2190.68   50.39
   0  -4  -3 2141.59   43.80
   0   4   3 2193.38   44.50
   0   4   3 2227.28   44.10
   0   4   3 2185.98   40.40
  -1  -4  -3  546.75   18.70
  -1  -4  -3  558.44   14.90
   1   4   3  555.34   15.00
  -2  -4  -3  243.98   10.90
  -2  -4  -3  243.98   11.10
  -2  -4  -3  237.08    8.90
  -2  -4  -3  229.88   10.40
   2   4   3  226.68   10.80
   2   4   3  225.28    8.80
  -3  -4  -3   -3.60    2.10
  -3  -4  -3    0.90    1.20
  -3  -4  -3    3.60    1.70
  -3  -4  -3    1.90    1.50
   3   4   3    0.30    1.00
  -4  -4  -3  160.68    7.50
  -4  -4  -3  146.39   12.10
  -4  -4  -3  168.78   10.00
   4   4   3  162.48    7.80
  -5  -4  -3  336.57   23.00
  -5  -4  -3  317.47   21.30
   5   4   3  335.07   12.30
  -6  -4  -3   50.09    6.10
  -6  -4  -3   31.90    9.00
   6   4   3   42.50    4.40
  -7  -4  -3    2.50    6.50
  -7  -4  -3   21.00    4.80
   7   4   3   18.00    4.40
   6  -5  -3   18.60    5.10
  -6   5   3   14.60    7.40
  -6   5   3   13.80    3.30
  -6   5   3   19.40    6.30
   5  -5  -3   12.90    4.20
  -5   5   3   17.00    4.40
  -5   5   3   20.40    4.20
  -5   5   3   22.70    6.80
   4  -5  -3  431.36   33.60
   4  -5  -3  426.46   20.40
  -4   5   3  385.56   23.30
  -4   5   3  374.76   22.10
   3  -5  -3  171.88   10.10
   3  -5  -3  177.08   18.40
   3  -5  -3  183.98   18.40
  -3   5   3  157.58   13.80
  -3   5   3  171.68    9.20
   2  -5  -3 1168.88   32.50
   2  -5  -3 1157.18   47.10
  -2   5   3 1157.58   27.40
  -2   5   3 1088.59   34.40
  -2   5   3 1127.49   32.80
   1  -5  -3  357.06   21.80
   1  -5  -3  364.86   13.20
  -1   5   3  362.06   13.70
  -1   5   3  362.76   16.90
  -1   5   3  364.56   16.40
   0  -5  -3  257.77   16.50
   0  -5  -3  239.58   10.10
   0   5   3  247.78   10.60
   0   5   3  249.18   10.00
   0   5   3  233.88   11.70
  -1  -5  -3  355.66   17.50
  -1  -5  -3  343.27   12.20
   1   5   3  354.46   13.70
   1   5   3  345.67   12.30
  -2  -5  -3  171.28    9.20
  -2  -5  -3  171.28    8.30
  -2  -5  -3  167.58   10.80
  -2  -5  -3  167.48    9.00
   2   5   3  181.58    8.30
   2   5   3  182.38    9.90
  -3  -5  -3   79.39    7.00
  -3  -5  -3   80.19    7.60
  -3  -5  -3   84.49    9.00
   3   5   3   77.19    8.80
   3   5   3   83.89    5.90
  -4  -5  -3  357.26   19.60
  -4  -5  -3  357.46   16.00
   4   5   3  365.16   13.40
  -5  -5  -3  407.86   18.20
  -5  -5  -3  420.76   24.40
   5   5   3  443.26   15.60
  -6  -5  -3   -3.30    4.30
  -6  -5  -3   12.60    3.40
   6   5   3    7.70    3.20
  -7  -5  -3   21.80    8.90
  -7  -5  -3   36.40    6.30
   7   5   3   16.60    4.60
  -6   6   3   49.80   11.10
  -6   6   3   55.09    5.90
  -6   6   3   39.20    9.50
  -5   6   3    7.30    4.20
  -5   6   3   20.20    3.50
  -5   6   3    6.30    5.30
   4  -6  -3   70.99   14.30
   4  -6  -3   74.19   18.40
  -4   6   3   65.69   11.80
  -4   6   3   62.59   11.80
  -4   6   3   62.99    5.90
   3  -6  -3  355.36   19.40
   3  -6  -3  356.96   45.70
  -3   6   3  322.77   18.70
  -3   6   3  350.66   16.50
   2  -6  -3  691.23   24.30
   2  -6  -3  687.03   38.20
  -2   6   3  694.83   25.30
  -2   6   3  667.73   20.20
  -2   6   3  666.53   29.10
   1  -6  -3  170.98    9.60
   1  -6  -3  178.28   16.70
  -1   6   3  196.08   13.70
  -1   6   3  165.18    8.90
   0  -6  -3  279.07   19.50
   0   6   3  271.17   11.60
  -1  -6  -3   78.29    9.10
  -1  -6  -3   53.69    8.00
   1   6   3   67.69    4.90
   1   6   3   66.59    5.40
  -2  -6  -3  775.52   27.50
  -2  -6  -3  748.83   22.40
  -2  -6  -3  801.52   29.50
   2   6   3  733.03   21.20
   2   6   3  724.93   23.20
  -3  -6  -3  406.96   19.70
  -3  -6  -3  447.66   19.80
  -3  -6  -3  421.46   18.60
   3   6   3  428.66   15.50
   3   6   3  390.76   19.70
  -4  -6  -3   33.90    7.20
  -4  -6  -3   36.70    7.20
   4   6   3   28.50    5.30
  -5  -6  -3   87.79    8.70
  -5  -6  -3   88.69   10.90
   5   6   3   90.39    7.20
  -6  -6  -3   14.00    4.10
  -6  -6  -3    7.80    5.30
   6   6   3    2.90    3.00
  -6   7   3   10.00    6.90
  -6   7   3    6.70    5.60
  -5   7   3   31.30    5.40
  -5   7   3   50.59   10.20
  -5   7   3   22.40    8.30
   4  -7  -3   20.80    7.20
   4  -7  -3    5.20   11.70
  -4   7   3    6.20    4.70
  -4   7   3   19.70    4.40
  -4   7   3   12.60    8.30
   3  -7  -3  801.72   31.40
   3  -7  -3  771.02   49.10
  -3   7   3  817.82   32.40
  -3   7   3  907.51   40.00
  -3   7   3  806.52   24.40
   2  -7  -3   93.69    8.90
   2  -7  -3   83.29   17.00
  -2   7   3   98.39    9.20
  -2   7   3   84.49    7.00
  -2   7   3  106.89   14.00
   1  -7  -3   76.49   17.10
   1  -7  -3   65.39    6.40
  -1   7   3   69.89   11.40
   0  -7  -3   79.99    6.70
   0  -7  -3   77.39   14.00
   0   7   3   96.49    6.00
   0   7   3   82.89    6.70
  -1  -7  -3   99.09   12.30
  -1  -7  -3   90.89    9.40
   1   7   3  100.19    6.70
   1   7   3   94.49    7.80
  -2  -7  -3  446.16   27.00
  -2  -7  -3  456.75   17.60
  -2  -7  -3  444.86   25.10
   2   7   3  431.66   18.00
   2   7   3  469.95   17.20
  -3  -7  -3  205.68   16.10
  -3  -7  -3  205.48   13.90
  -3  -7  -3  212.58   15.60
   3   7   3  219.08   11.60
   3   7   3  212.58   14.50
  -4  -7  -3  150.68   13.50
  -4  -7  -3  156.18   13.40
   4   7   3  150.28    9.90
  -5  -7  -3  269.27   19.80
  -5  -7  -3  275.57   20.10
   5   7   3  281.57   18.00
  -6  -7  -3   21.80    8.20
  -6  -7  -3   34.70    8.40
   6   7   3   38.10    7.30
  -5   8   3   77.99   14.50
  -5   8   3   99.49   13.40
  -5   8   3   95.29    8.30
   4  -8  -3   11.20    6.30
   4  -8  -3    6.90   11.60
  -4   8   3   23.80    7.60
  -4   8   3   18.90    6.10
  -4   8   3   16.20    4.10
   3  -8  -3  330.77   20.00
   3  -8  -3  349.37   34.90
  -3   8   3  317.97   25.10
  -3   8   3  353.56   22.90
  -3   8   3  358.56   21.30
   2  -8  -3   51.79    8.60
   2  -8  -3   52.49   16.40
  -2   8   3   49.20    5.40
  -2   8   3   49.50   12.30
   1  -8  -3   59.59   15.00
   1  -8  -3   55.69    6.60
  -1   8   3   62.49    6.60
  -1   8   3   63.19   10.80
   0  -8  -3    7.00    5.80
   0  -8  -3    4.40    2.90
   0   8   3    5.60    2.30
   0   8   3    5.20    2.60
  -1  -8  -3   43.50   11.10
  -1  -8  -3   36.60    7.40
   1   8   3   36.40    5.90
   1   8   3   29.50    4.50
  -2  -8  -3  168.88   16.90
  -2  -8  -3  184.48   17.70
   2   8   3  185.48   11.00
   2   8   3  190.78   12.00
  -3  -8  -3    9.00    6.30
  -3  -8  -3   25.20    9.50
   3   8   3   18.10    6.60
  -4  -8  -3  300.17   21.40
  -4  -8  -3  284.37   22.00
   4   8   3  303.37   14.90
  -5  -8  -3  261.37   21.50
  -5  -8  -3  285.97   21.10
   5   8   3  256.97   14.10
   5  -9  -3   53.09   12.30
  -5   9   3   50.39    7.70
  -5   9   3   78.29   14.60
  -5   9   3   33.80   11.10
   4  -9  -3   24.70    9.30
   4  -9  -3   35.30   16.40
  -4   9   3   24.20    7.90
  -4   9   3   31.70    5.50
  -4   9   3   31.20    8.70
   3  -9  -3  136.99   13.50
   3  -9  -3  110.49   26.70
  -3   9   3  132.69   10.10
  -3   9   3  147.29   14.00
  -3   9   3  154.18   18.90
   2  -9  -3  168.68   13.30
   2  -9  -3  136.99   26.10
  -2   9   3  171.58   11.30
  -2   9   3   93.99   21.50
   1  -9  -3   41.90    7.60
   1  -9  -3   37.10   12.00
  -1   9   3   41.40    6.70
  -1   9   3   45.90    8.20
   0  -9  -3  106.69   20.00
   0  -9  -3   91.39    9.00
   0   9   3   87.49    7.40
   0   9   3   94.59    8.40
  -1  -9  -3   96.99   11.00
  -1  -9  -3   72.59   16.40
   1   9   3   89.49    8.40
   1   9   3  112.39    9.00
  -2  -9  -3  378.56   25.60
  -2  -9  -3  366.86   28.70
   2   9   3  403.26   18.50
   2   9   3  382.46   17.60
  -3  -9  -3   88.59   16.60
  -3  -9  -3   63.69   15.30
   3   9   3   67.59    7.70
  -4  -9  -3   51.79   12.30
  -4  -9  -3   46.70   15.00
   4   9   3   42.20    6.90
  -5  -9  -3    9.50    7.30
  -5  -9  -3  -16.80    9.50
   5   9   3    6.80    4.30
   4 -10  -3    6.40   14.10
  -4  10   3    7.90    3.50
  -4  10   3    4.30    5.90
  -4  10   3   23.80    6.90
   3 -10  -3  155.78   30.10
  -3  10   3  140.69   15.00
  -3  10   3  154.18   10.90
  -3  10   3  133.09   17.10
   2 -10  -3  200.88   34.30
   2 -10  -3  206.48   15.20
  -2  10   3  191.18   12.50
   1 -10  -3  120.39   24.90
   1 -10  -3  107.29   10.90
  -1  10   3  104.89    9.10
   0 -10  -3   84.49   20.00
   0 -10  -3   75.69    9.00
   0  10   3   76.59    7.90
  -1 -10  -3  268.77   27.70
  -1 -10  -3  260.67   17.00
   1  10   3  280.07   15.30
  -2 -10  -3  104.79   17.90
  -2 -10  -3  101.09   18.70
   2  10   3   97.79    9.20
  -3 -10  -3   50.99   11.70
  -3 -10  -3   48.40   14.30
   3  10   3   42.70    7.40
  -4 -10  -3   -7.30   14.20
  -4 -10  -3   17.30    9.90
   3 -11  -3   32.90   15.50
  -3  11   3   30.10   11.30
  -3  11   3   35.50    5.90
  -3  11   3   21.60    9.40
   2 -11  -3   95.09   24.60
   2 -11  -3   89.49   13.70
  -2  11   3   77.99   17.70
  -2  11   3   85.39    9.70
   1 -11  -3   65.09    9.90
   1 -11  -3   67.19   18.60
  -1  11   3   85.69    8.30
   0 -11  -3   12.10    8.90
   0 -11  -3   -0.20    5.30
   0  11   3   17.60    4.30
  -1 -11  -3  109.49   17.80
  -1 -11  -3  131.39   24.60
   1  11   3  128.79   10.60
  -2 -11  -3   16.70    9.50
   2  11   3   10.70    3.50
   3  11   3   62.49    9.50
   0  10  -4  260.67   15.50
   0  10  -4  257.47   25.20
   0 -10   4  248.88   35.60
   0 -10   4  270.27   34.20
  -1  10  -4   25.70   10.60
   1 -10   4   -1.10   14.00
  -2  10  -4   24.40    9.90
  -2  10  -4   29.40    5.30
   2 -10   4   26.10   13.30
   2   9  -4   52.09   11.50
   2   9  -4   49.60    8.60
  -2  -9   4   78.49   18.70
  -2  -9   4   61.29   23.10
   1   9  -4  247.38   20.40
   1   9  -4  257.17   15.40
  -1  -9   4  222.58   33.80
  -1  -9   4  271.47   30.10
   0   9  -4  -10.70    5.40
   0  -9   4  -12.30    9.00
   0  -9   4   23.00   10.90
  -1   9  -4   56.79    6.40
  -1   9  -4   35.80   11.20
   1  -9   4   49.60   17.60
  -2   9  -4   61.19    6.70
  -2   9  -4   52.69   12.50
   2  -9   4   44.40   14.10
  -3   9  -4   25.50    8.60
  -3   9  -4   18.80    3.90
   3  -9   4   39.60   11.90
  -4   9  -4  109.19   19.60
  -4   9  -4  142.59    9.30
   4  -9   4   90.39   30.40
   3   8  -4   97.79   12.50
   3   8  -4  120.09   11.30
  -3  -8   4  114.59   30.60
   2   8  -4  177.18   12.90
   2   8  -4  167.58   16.20
  -2  -8   4  180.88   19.80
  -2  -8   4  173.98   32.20
   1   8  -4  144.89   15.70
   1   8  -4  160.98   11.50
  -1  -8   4  130.19   24.60
  -1  -8   4  180.48   33.80
   0   8  -4   64.49   13.40
   0   8  -4   73.29    7.40
   0  -8   4   97.29   20.30
   0  -8   4   47.90   16.60
  -1   8  -4    6.90    3.10
  -1   8  -4    3.50    5.20
   1  -8   4    7.50    6.80
  -2   8  -4   -0.40    4.60
   2  -8   4   -8.50    5.50
  -3   8  -4   92.99    7.50
  -3   8  -4   99.39   18.80
   3  -8   4   74.49   16.50
  -4   8  -4  169.38    9.30
  -4   8  -4  207.48   21.70
   4  -8   4  186.38   21.70
  -5   8  -4   37.90   12.00
  -5   8  -4   42.40    4.70
   5  -8   4   39.70   12.60
   4   7  -4   98.39   10.60
   3   7  -4  116.29   18.90
   3   7  -4  119.59   10.30
  -3  -7   4  135.99   29.30
   2   7  -4   89.39    8.70
   2   7  -4  104.69   10.30
  -2  -7   4   94.49   25.20
  -2  -7   4   91.19   16.30
   1   7  -4    3.30    2.50
   1   7  -4    3.90    4.10
  -1  -7   4   18.80    8.60
  -1  -7   4   -6.10    7.30
   0   7  -4  211.48   11.80
   0   7  -4  237.78   18.60
   0  -7   4  211.08   24.70
   0  -7   4  218.18   27.30
  -1   7  -4   13.60    6.20
  -1   7  -4   11.60    3.40
   1  -7   4   18.10   11.40
  -2   7  -4  235.18   11.50
  -2   7  -4  244.18   21.20
   2  -7   4  271.77   28.40
  -3   7  -4  650.23   22.80
  -3   7  -4  597.74   34.90
   3  -7   4  603.54   39.40
  -4   7  -4  146.79    8.30
  -4   7  -4  131.19   17.00
   4  -7   4  129.39   17.90
  -5   7  -4   78.89    5.50
  -5   7  -4   88.69   17.00
   5  -7   4   73.99   16.10
  -6   7  -4   72.69   15.10
   6  -7   4   70.89   16.80
   5   6  -4   67.09    9.80
  -5  -6   4   75.89   20.90
   4   6  -4  136.99   10.70
  -4  -6   4  153.38   27.80
   3   6  -4  109.09    7.70
   3   6  -4  125.49    9.30
   3   6  -4  113.29    9.70
  -3  -6   4  147.79   28.50
  -3  -6   4  146.69   13.20
   2   6  -4   74.09    6.60
   2   6  -4   81.79    8.50
   2   6  -4   84.69    7.90
  -2  -6   4  114.79   13.40
   1   6  -4   96.69    9.80
   1   6  -4  102.19    8.10
  -1  -6   4  115.99   15.10
  -1  -6   4  106.69   22.90
   0   6  -4   88.99    7.20
   0   6  -4   90.99   10.10
   0  -6   4   58.49   15.00
   0  -6   4   83.49   18.40
  -1   6  -4  146.69   14.00
  -1   6  -4  129.09    8.30
   1  -6   4  144.79   20.50
  -2   6  -4  213.68   10.10
  -2   6  -4  210.88   18.10
   2  -6   4  180.98   21.40
  -3   6  -4  306.67   11.80
  -3   6  -4  316.57   23.50
   3  -6   4  326.77   27.10
  -4   6  -4  147.09    7.60
  -4   6  -4  132.79   16.20
   4  -6   4  176.88   20.10
  -5   6  -4   86.29    5.20
  -5   6  -4   87.29   15.10
   5  -6   4  115.89   16.80
   6  -6   4    4.00    9.60
   5   5  -4   48.50    7.80
  -5  -5   4   45.90   16.70
   4   5  -4   62.89    7.30
  -4  -5   4   57.09   13.70
   3   5  -4   50.39    6.10
  -3  -5   4   61.79   16.70
   2   5  -4   66.59    6.50
   2   5  -4   58.39    6.70
   2   5  -4   56.29    4.90
  -2  -5   4   61.59   15.90
  -2  -5   4   82.99   10.50
   1   5  -4  159.28   11.20
   1   5  -4  161.88    9.80
   1   5  -4  162.48   11.10
  -1  -5   4  134.49   20.00
  -1  -5   4  176.78   16.00
   0   5  -4  122.29    8.00
   0   5  -4  130.99   11.20
   0  -5   4  115.79   23.40
   0  -5   4  135.69   20.50
  -1   5  -4  400.76   14.10
  -1   5  -4  406.36   22.00
   1  -5   4  369.96   30.40
  -2   5  -4  516.85   27.20
  -2   5  -4  491.75   18.00
   2  -5   4  576.54   39.00
  -3   5  -4  159.68    7.40
  -3   5  -4  172.58   16.20
   3  -5   4  157.68    7.60
   3  -5   4  165.98   17.80
  -4   5  -4  131.29    6.20
  -4   5  -4  117.49    9.30
  -4   5  -4  120.79   16.10
   4  -5   4  116.79    7.40
   4  -5   4  120.29   15.40
  -5   5  -4   11.20    4.90
   5  -5   4    6.70    6.70
  -6   5  -4   21.90    8.20
   6  -5   4   14.00    6.70
  -7   5  -4   73.49   14.80
  -7   5  -4   65.59   15.80
   7  -5   4   43.60   14.60
   5   4  -4   71.89    8.30
  -5  -4   4  112.19   16.80
   4   4  -4  161.88   11.00
  -4  -4   4  125.19   16.50
   3   4  -4   72.29    6.90
  -3  -4   4   61.49   13.70
   2   4  -4   10.60    2.10
   2   4  -4   11.80    3.40
   2   4  -4    7.70    3.10
  -2  -4   4    8.20    5.40
  -2  -4   4   22.60    5.00
   1   4  -4  551.24   20.40
   1   4  -4  571.24   18.10
   1   4  -4  571.54   20.00
  -1  -4   4  540.85   37.30
  -1  -4   4  551.44   27.10
   0   4  -4  139.29   13.70
   0   4  -4  120.39    9.90
   0   4  -4  124.59    7.20
   0  -4   4  153.58   19.70
  -1   4  -4  355.86   24.30
  -1   4  -4  326.07   18.30
  -1   4  -4  324.47   11.50
   1  -4   4  366.36   28.60
   1  -4   4  329.37   11.80
  -2   4  -4   47.10    3.70
  -2   4  -4   60.89    8.40
   2  -4   4   46.00    3.90
   2  -4   4   64.49   13.30
  -3   4  -4   70.09    9.30
  -3   4  -4   66.49    4.20
   3  -4   4   85.29   11.40
   3  -4   4   60.79    4.20
  -4   4  -4   91.39    4.40
  -4   4  -4   99.39   12.50
  -4   4  -4   99.29    4.80
   4  -4   4   85.19   12.20
  -5   4  -4  105.39   14.00
   5  -4   4  104.79   14.80
  -6   4  -4   73.39   13.20
   6  -4   4   53.19   13.30
  -7   4  -4  121.89   20.30
  -7   4  -4  106.39   21.30
   7  -4   4  131.89   18.40
   6   3  -4   25.50    5.50
  -6  -3   4   17.70    9.60
   5   3  -4   15.20    4.20
  -5  -3   4   15.60    7.30
   4   3  -4  162.48   11.10
  -4  -3   4  180.38   18.00
   3   3  -4  265.07   12.80
  -3  -3   4  275.47   20.60
   2   3  -4  439.36   16.00
  -2  -3   4  433.26   27.10
   1   3  -4  362.06   14.10
   1   3  -4  372.66   14.00
   1   3  -4  359.56   13.10
  -1  -3   4  336.47   26.20
   0   3  -4  415.46   17.10
   0   3  -4  378.86   19.90
   0   3  -4  385.06   12.70
   0  -3   4  384.16   12.60
   0  -3   4  394.06   35.70
  -1   3  -4  638.04   31.90
  -1   3  -4  605.74   35.30
  -1   3  -4  634.34   16.00
  -1   3  -4  611.04   23.70
   1  -3   4  603.44   23.70
   1  -3   4  620.64   16.00
  -2   3  -4   35.10    7.80
  -2   3  -4   47.80    3.30
   2  -3   4   45.20    9.30
   2  -3   4   43.00    3.40
  -3   3  -4   45.90    9.10
  -3   3  -4   50.19    3.00
   3  -3   4   56.29    3.20
   3  -3   4   47.00    9.80
  -4   3  -4  243.28   18.40
   4  -3   4  243.88   20.10
  -5   3  -4    5.60    3.90
   5  -3   4   13.10    6.10
  -6   3  -4   74.99   12.90
   6  -3   4   52.99   11.90
  -7   3  -4   11.80    6.40
  -7   3  -4    4.90    4.50
   7  -3   4    8.60    5.40
   6   2  -4   10.10    3.50
  -6  -2   4   10.60    9.00
   5   2  -4    8.60    2.90
  -5  -2   4   18.60    6.20
   4   2  -4  516.85   18.80
  -4  -2   4  493.25   28.30
   3   2  -4  230.58   11.30
  -3  -2   4  232.88   19.50
   2   2  -4  404.66   14.40
  -2  -2   4  431.66   23.40
   1   2  -4  429.86   12.60
   1   2  -4  431.46   13.80
   1   2  -4  452.95   20.80
  -1  -2   4  396.56   13.10
  -1  -2   4  445.26   26.60
   0   2  -4  683.63   20.30
   0   2  -4  674.93   16.90
   0   2  -4  662.53   28.20
   0   2  -4  664.03   26.30
   0  -2   4  660.33   20.50
   0  -2   4  616.54   35.30
   0  -2   4  669.33   17.30
  -1   2  -4  902.31   19.10
  -1   2  -4  897.01   27.40
  -1   2  -4  885.51   37.20
   1  -2   4  868.21   18.90
   1  -2   4  896.01   27.80
  -2   2  -4  133.49    5.10
  -2   2  -4  147.49   11.20
  -2   2  -4  138.99   15.70
  -2   2  -4  143.69   16.20
   2  -2   4  134.99   13.90
   2  -2   4  157.58   11.90
   2  -2   4  133.69    5.10
  -3   2  -4   53.49    7.20
   3  -2   4   32.00    7.70
  -4   2  -4  209.58   15.80
   4  -2   4  202.08   17.50
  -5   2  -4  145.19   14.10
   5  -2   4  146.39   16.50
  -6   2  -4  312.47   21.90
   6  -2   4  297.57   25.20
  -7   2  -4   54.89   14.20
  -7   2  -4   37.90    8.10
   7  -2   4   51.69   12.30
   6   1  -4    5.20    2.80
  -6  -1   4   10.90    5.80
   5   1  -4  113.39   12.60
  -5  -1   4   95.79   13.60
   4   1  -4  509.85   18.30
  -4  -1   4  497.25   27.50
   3   1  -4 1029.70   26.60
  -3  -1   4 1053.29   38.00
   2   1  -4  301.37   11.60
  -2  -1   4  289.97   17.20
   1   1  -4  125.59    6.60
   1   1  -4  113.39    9.50
  -1  -1   4  122.09   11.30
  -1  -1   4  111.39    6.10
   0   1  -4   46.70    4.10
   0   1  -4   47.90    3.40
   0   1  -4   27.20    5.60
   0  -1   4   41.50    3.30
   0  -1   4   44.30    4.40
   0  -1   4   59.39   11.80
  -1   1  -4  749.82   15.80
  -1   1  -4  736.33   34.80
  -1   1  -4  740.53   22.60
   1  -1   4  770.42   23.90
   1  -1   4  765.22   34.10
   1  -1   4  752.42   15.80
  -2   1  -4   88.19    4.60
  -2   1  -4   90.09    8.10
   2  -1   4   89.49    3.40
   2  -1   4  104.19   11.00
  -3   1  -4   51.39    9.60
   3  -1   4   65.29    8.60
  -4   1  -4   42.10    7.80
   4  -1   4   56.39    8.30
  -5   1  -4 1764.52   51.79
   5  -1   4 1689.33   58.19
  -6   1  -4  198.68   20.80
   6  -1   4  224.78   21.00
  -7   1  -4   -0.40    5.90
  -7   1  -4    3.70    3.40
   7  -1   4   12.80    6.40
   6   0  -4   25.90    5.70
  -6   0   4   36.00    9.30
   5   0  -4    8.30    3.10
  -5   0   4   16.90    6.40
   4   0  -4   37.20    5.40
  -4   0   4   36.80    8.30
   3   0  -4  433.46   15.10
  -3   0   4  429.36   22.30
   2   0  -4  270.87   16.20
   2   0  -4  241.88   10.10
  -2   0   4  253.07   10.10
  -2   0   4  250.97   14.90
   1   0  -4  586.54   15.60
   1   0  -4  588.74   21.50
  -1   0   4  601.74   17.00
  -1   0   4  588.34   22.40
   0   0  -4  204.08    7.30
   0   0  -4  188.18    7.20
   0   0  -4  173.48   10.90
   0   0   4  172.58   14.60
   0   0   4  201.88    7.10
   0   0   4  195.38    8.40
  -1   0  -4 3124.89   76.19
  -1   0  -4 3135.79   50.59
  -1   0  -4 3162.08   58.09
   1   0   4 3173.08   73.89
   1   0   4 3050.49   59.59
   1   0   4 3217.88   50.49
  -2   0  -4 1357.16   22.60
  -2   0  -4 1336.47   34.20
  -2   0  -4 1380.56   44.80
   2   0   4 1392.36   22.50
   2   0   4 1291.07   35.80
   2   0   4 1401.56   40.60
  -3   0  -4   14.60    3.60
  -3   0  -4   15.80    5.90
   3   0   4   15.10    4.50
   3   0   4   14.00    4.30
  -4   0  -4  609.44   25.30
   4   0   4  615.94   28.80
  -5   0  -4  658.43   27.80
  -5   0  -4  668.23   34.30
   5   0   4  590.74   31.30
  -6   0  -4   90.79   10.60
  -6   0  -4  103.69   14.90
   6   0   4  117.39   14.30
  -7   0  -4    8.40    4.60
  -7   0  -4   15.30    7.50
   7   0   4    0.20    4.60
  -8   0  -4    9.80    7.90
   6  -1  -4   76.99    8.00
  -6   1   4   88.59   12.60
   5  -1  -4   28.30    4.80
  -5   1   4   34.90    9.10
   4  -1  -4  146.49    9.60
  -4   1   4  189.58   15.90
   3  -1  -4  149.69    8.30
  -3   1   4  142.99   12.10
   2  -1  -4  145.09   11.30
   2  -1  -4  134.69    7.20
  -2   1   4  140.09   10.40
  -2   1   4  133.09    7.10
   1  -1  -4  370.76   11.70
   1  -1  -4  368.96   10.90
   1  -1  -4  381.06   15.80
  -1   1   4  376.66   15.40
  -1   1   4  357.16   11.10
  -1   1   4  369.86    9.40
   0  -1  -4  312.27    9.10
   0  -1  -4  293.37    9.30
   0  -1  -4  318.37   12.60
   0   1   4  321.87   10.40
   0   1   4  316.97   17.20
   0   1   4  311.17    9.30
  -1  -1  -4   67.69    5.00
  -1  -1  -4   69.79    8.30
  -1  -1  -4   67.49    3.50
   1   1   4   77.19    7.80
   1   1   4   68.39    3.40
   1   1   4   74.09    5.80
  -2  -1  -4 2394.86   57.89
  -2  -1  -4 2293.07   38.10
  -2  -1  -4 2331.67   47.60
   2   1   4 2302.47   50.19
   2   1   4 2334.67   37.20
   2   1   4 2286.57   37.30
   2   1   4 2363.26   52.69
  -3  -1  -4  423.36   17.80
  -3  -1  -4  443.06   23.90
   3   1   4  442.76   20.30
   3   1   4  473.35   20.70
  -4  -1  -4  723.43   26.00
   4   1   4  711.93   29.90
  -5  -1  -4  101.99   13.00
  -5  -1  -4  134.39   16.90
   5   1   4  122.59   13.00
  -6  -1  -4  102.59   10.80
  -6  -1  -4   94.39   21.90
   6   1   4  105.79   15.60
  -7  -1  -4   17.00    7.50
  -7  -1  -4   21.00    5.50
  -8  -1  -4   39.90    8.10
  -8  -1  -4   26.20   10.60
   6  -2  -4   63.29    8.50
  -6   2   4   87.09   13.20
   5  -2  -4  176.68   11.00
  -5   2   4  192.98   18.10
  -5   2   4  182.88   10.10
  -5   2   4  193.98   11.40
   4  -2  -4   51.09    5.40
  -4   2   4   74.79    6.60
  -4   2   4   71.99    6.60
  -4   2   4   67.59    9.20
   3  -2  -4  236.98   10.60
  -3   2   4  252.87   15.90
  -3   2   4  239.38   10.50
  -3   2   4  225.78   11.00
   2  -2  -4   33.50    7.80
   2  -2  -4   26.40    3.20
   2  -2  -4   29.80    5.90
  -2   2   4   34.00    8.00
  -2   2   4   28.80    2.90
  -2   2   4   25.60    5.20
  -2   2   4   17.80    2.90
   1  -2  -4  202.88    8.50
   1  -2  -4  196.88   10.50
   1  -2  -4  185.08    9.60
  -1   2   4  191.18    9.00
  -1   2   4  198.58    7.10
  -1   2   4  192.38    9.90
   0  -2  -4   78.89    5.10
   0  -2  -4   80.09    4.80
   0  -2  -4   81.49    4.70
   0   2   4   83.59    4.50
   0   2   4   83.79    7.40
   0   2   4   87.99    5.00
  -1  -2  -4 1094.99   22.50
  -1  -2  -4 1072.69   24.30
  -1  -2  -4 1117.89   31.60
   1   2   4 1125.89   26.40
   1   2   4 1113.59   22.10
   1   2   4 1179.38   38.10
   1   2   4 1092.89   21.80
  -2  -2  -4  640.04   23.20
  -2  -2  -4  612.94   18.40
   2   2   4  597.54   13.20
   2   2   4  631.14   13.70
   2   2   4  597.24   19.80
  -3  -2  -4  104.89   10.20
  -3  -2  -4   96.59    7.60
  -3  -2  -4  106.69    4.20
   3   2   4  106.79    4.20
   3   2   4  105.99    4.60
   3   2   4  122.69    9.80
   3   2   4  105.19    9.10
  -4  -2  -4  104.19    4.20
  -4  -2  -4   99.09    8.40
  -4  -2  -4   88.69   10.40
   4   2   4  116.49   11.00
   4   2   4  111.59    4.30
  -5  -2  -4   72.49   15.50
  -5  -2  -4   51.09   12.30
  -6  -2  -4   21.10    5.30
  -6  -2  -4   31.70   11.50
   6   2   4   23.20   10.40
  -7  -2  -4   10.80    6.10
  -7  -2  -4   27.10    5.80
   6  -3  -4   31.80    6.30
  -6   3   4   40.40   11.50
   5  -3  -4  108.89    9.00
  -5   3   4  113.39   10.80
  -5   3   4  135.29   14.70
  -5   3   4  136.79   17.10
   4  -3  -4  104.59   11.80
  -4   3   4   87.49    8.70
  -4   3   4   93.49    8.60
  -4   3   4   76.89   16.50
   3  -3  -4  166.88   15.60
   3  -3  -4  182.58    9.70
  -3   3   4  187.08   11.20
  -3   3   4  177.08   10.50
  -3   3   4  180.58   13.60
   2  -3  -4  141.39    9.20
   2  -3  -4  133.29   10.70
   2  -3  -4  145.49   12.20
  -2   3   4  133.79    9.60
  -2   3   4  134.49    8.00
  -2   3   4  142.79   10.50
   1  -3  -4  564.24   16.40
   1  -3  -4  583.24   18.60
   1  -3  -4  562.04   21.40
  -1   3   4  577.04   17.50
  -1   3   4  571.34   15.60
  -1   3   4  579.64   16.20
  -1   3   4  559.84   17.60
   0  -3  -4 1034.90   25.90
   0   3   4 1012.10   23.00
   0   3   4 1030.00   22.80
   0   3   4 1008.50   24.20
   0   3   4 1022.50   22.30
  -1  -3  -4  129.09    7.20
   1   3   4  137.09    6.20
   1   3   4  130.49    6.00
   1   3   4  132.09    7.40
  -2  -3  -4  142.79    7.90
  -2  -3  -4  147.29    9.20
  -2  -3  -4  154.78    6.20
  -2  -3  -4  145.69    8.40
   2   3   4  139.49    8.90
   2   3   4  142.29    6.10
   2   3   4  136.29    7.70
   2   3   4  140.59    6.40
  -3  -3  -4   18.40    4.40
  -3  -3  -4   19.00    5.10
  -3  -3  -4   18.00    2.20
  -3  -3  -4   19.00    6.00
   3   3   4   25.30    2.40
   3   3   4   25.90    5.10
  -4  -3  -4   41.80    3.20
  -4  -3  -4   47.90    5.40
   4   3   4   43.80    3.40
   4   3   4   48.20    9.30
  -5  -3  -4  198.18    7.30
  -5  -3  -4  179.78   12.00
  -5  -3  -4  167.98   15.10
   5   3   4  184.98    7.30
  -6  -3  -4  107.99    5.70
  -6  -3  -4  120.39   15.60
  -6  -3  -4  113.39    9.90
   6   3   4  102.09    5.60
  -7  -3  -4   26.10    5.70
  -7  -3  -4   38.80    9.40
   6  -4  -4   76.29    8.60
  -6   4   4   74.39   14.70
  -6   4   4   68.19    7.80
  -6   4   4   78.39   10.10
   5  -4  -4  104.19    8.80
  -5   4   4  115.09    8.70
  -5   4   4   63.19   14.50
  -5   4   4  115.29   10.80
   4  -4  -4   94.29    7.90
  -4   4   4  101.59   10.30
  -4   4   4   87.19    7.20
   3  -4  -4  163.18   16.20
   3  -4  -4  150.18    8.90
  -3   4   4  162.28   12.30
  -3   4   4  143.19   12.20
  -3   4   4  146.89   11.00
  -3   4   4  166.38    9.40
   2  -4  -4  253.87   18.30
   2  -4  -4  235.48   10.90
  -2   4   4  229.28   12.80
  -2   4   4  231.98   12.20
  -2   4   4  232.98   10.70
  -2   4   4  223.48   13.30
   1  -4  -4  106.59    6.80
   1  -4  -4  109.49    9.90
  -1   4   4  115.29    7.60
  -1   4   4   98.99    6.40
  -1   4   4  106.79    6.40
  -1   4   4  113.69    6.70
  -1   4   4  113.89    6.90
   0  -4  -4 1010.00   29.70
   0   4   4  950.30   22.80
   0   4   4 1001.10   24.60
   0   4   4  984.80   23.10
  -1  -4  -4  341.57   13.60
   1   4   4  347.77   11.30
   1   4   4  323.57   12.80
  -2  -4  -4  434.26   15.90
  -2  -4  -4  439.16   15.20
  -2  -4  -4  439.96   14.30
  -2  -4  -4  463.25   13.90
   2   4   4  410.36   14.60
   2   4   4  430.36   12.90
   2   4   4  430.66   16.30
  -3  -4  -4  130.29   10.10
  -3  -4  -4  124.49    8.30
  -3  -4  -4  142.39    9.60
  -3  -4  -4  137.59    8.00
   3   4   4  133.39    6.60
  -4  -4  -4  208.58    8.70
  -4  -4  -4  223.28   12.10
  -4  -4  -4  227.58   22.40
   4   4   4  231.88    9.20
  -5  -4  -4   58.39    6.60
  -5  -4  -4   58.89    9.00
  -5  -4  -4   82.69    5.00
   5   4   4   61.19    4.90
  -6  -4  -4   24.50   11.00
  -6  -4  -4   27.40    5.40
  -7  -4  -4   30.10    9.80
  -7  -4  -4   34.50    6.60
   7   4   4   28.30    4.50
   6  -5  -4   29.50    7.10
  -6   5   4   35.80    8.10
  -6   5   4   33.50    5.60
  -6   5   4   31.10    8.30
   5  -5  -4   59.59    9.80
  -5   5   4   67.69    9.20
  -5   5   4   56.19   10.30
  -5   5   4   60.99   12.00
   4  -5  -4  216.98   12.40
   4  -5  -4  191.78   22.50
  -4   5   4  222.88   16.30
  -4   5   4  208.98   20.20
  -4   5   4  232.08   12.00
   3  -5  -4 1190.58   31.50
   3  -5  -4 1165.68   51.19
  -3   5   4 1145.19   37.70
  -3   5   4 1217.98   40.70
  -3   5   4 1183.58   30.10
   2  -5  -4  452.35   16.60
   2  -5  -4  466.95   28.20
  -2   5   4  448.06   15.70
  -2   5   4  420.56   19.20
  -2   5   4  466.95   18.80
   1  -5  -4  709.13   39.50
  -1   5   4  673.33   19.30
  -1   5   4  665.03   20.30
  -1   5   4  629.14   17.90
   0  -5  -4   69.39    8.10
   0   5   4   59.69    6.10
   0   5   4   64.69    8.80
  -1  -5  -4  555.54   22.10
  -1  -5  -4  537.45   16.40
   1   5   4  567.74   17.40
   1   5   4  560.24   16.40
  -2  -5  -4   39.00    4.10
  -2  -5  -4   44.10    5.40
  -2  -5  -4   40.20    3.70
  -2  -5  -4   47.80    4.00
   2   5   4   39.50    3.70
  -3  -5  -4   24.00    4.70
  -3  -5  -4   26.90    6.00
  -3  -5  -4   28.30    5.20
  -4  -5  -4  190.88   17.60
  -4  -5  -4  210.18   17.70
   4   5   4  218.68    9.90
  -5  -5  -4   77.39    7.70
   5   5   4   77.19    6.10
  -6  -5  -4   61.89   12.50
  -6  -5  -4   70.09    7.60
   6   5   4   79.09    6.30
  -7  -5  -4  106.69   10.10
  -7  -5  -4   66.89   13.20
   7   5   4   88.39    7.80
  -6   6   4   58.79   13.70
  -6   6   4   60.89   11.90
  -6   6   4   76.99    7.50
   5  -6  -4   70.89    8.40
  -5   6   4   73.09   10.90
  -5   6   4   69.79   11.50
  -5   6   4   82.89    7.40
   4  -6  -4  323.57   16.40
   4  -6  -4  292.97   29.60
  -4   6   4  331.57   21.90
  -4   6   4  329.57   21.60
  -4   6   4  366.46   15.70
   3  -6  -4   -0.90    4.50
  -3   6   4   -0.30    1.30
  -3   6   4    6.00    2.60
  -3   6   4    6.50    4.20
   2  -6  -4  184.88   18.60
  -2   6   4  186.08   13.80
  -2   6   4  195.58   10.40
  -2   6   4  182.28   11.40
   1  -6  -4  144.79   15.20
  -1   6   4  132.19   10.00
  -1   6   4  136.49    7.70
  -1   6   4  145.39    8.50
   0  -6  -4  344.17   21.50
   0   6   4  380.86   14.00
  -1  -6  -4  155.78   12.80
   1   6   4  156.58    8.60
  -2  -6  -4  647.94   21.60
  -2  -6  -4  610.54   25.40
   2   6   4  608.14   18.80
  -3  -6  -4  341.37   15.60
  -3  -6  -4  344.37   16.50
   3   6   4  344.47   13.60
  -4  -6  -4  667.93   26.50
  -4  -6  -4  638.74   25.10
   4   6   4  623.24   19.60
  -5  -6  -4   23.80    5.20
  -5  -6  -4   17.60    5.70
   5   6   4   16.00    3.20
  -6  -6  -4   69.39    8.40
  -6  -6  -4   47.10   11.10
   6   6   4   75.89    7.10
  -7  -6  -4   10.30    7.20
  -7  -6  -4    9.50    4.20
   7   6   4    1.70    4.30
  -5   7   4   96.29   16.20
  -5   7   4   93.89    8.60
  -5   7   4   90.09   14.80
  -4   7   4  329.97   15.60
  -4   7   4  349.77   22.60
   3  -7  -4   57.89   16.40
  -3   7   4   55.89    6.00
  -3   7   4   40.80    9.70
   2  -7  -4   48.20   12.70
   2  -7  -4   72.79    6.90
  -2   7   4   76.99    7.00
  -2   7   4   53.19    9.60
  -2   7   4   56.59    6.00
   1  -7  -4   93.59   16.10
  -1   7   4   92.29    9.90
  -1   7   4  100.19    7.50
  -1   7   4   87.59    6.80
   0  -7  -4   21.80   10.40
   0   7   4   13.20    3.60
  -1  -7  -4  115.29   12.90
  -2  -7  -4   39.40    8.20
   2   7   4   32.80    5.00
  -3  -7  -4   64.69    8.30
  -3  -7  -4   80.29    8.20
  -3  -7  -4   74.59    9.30
   3   7   4   78.19    6.70
  -4  -7  -4  281.47   16.80
  -4  -7  -4  259.57   17.60
   4   7   4  266.27   13.00
  -5  -7  -4  182.08   14.50
  -5  -7  -4  156.28   14.90
   5   7   4  161.68   10.70
  -6  -7  -4   35.00   10.40
  -6  -7  -4   48.20    9.30
   6   7   4   35.90    6.30
  -5   8   4   89.69   12.00
  -5   8   4   84.79   15.30
  -5   8   4   72.19    7.50
   4  -8  -4   49.00   17.30
  -4   8   4   63.09    7.00
  -4   8   4   65.29   12.50
  -4   8   4   68.79   12.10
   3  -8  -4  249.38   29.20
  -3   8   4  274.07   22.90
  -3   8   4  279.07   17.40
  -3   8   4  282.27   14.10
   2  -8  -4   66.09    8.10
   2  -8  -4   77.29   16.90
  -2   8   4   78.59    7.20
  -2   8   4   85.49    8.20
  -2   8   4   40.20   13.60
   1  -8  -4   39.60   11.70
  -1   8   4   25.50    4.40
  -1   8   4   42.60    6.70
   0  -8  -4   15.10    6.90
   0   8   4   12.60    3.30
  -1  -8  -4  220.08   20.20
   1   8   4  210.58   11.80
  -2  -8  -4   34.70    8.70
   2   8   4   44.30    5.20
  -3  -8  -4   87.99   14.60
  -3  -8  -4   86.89   12.70
  -3  -8  -4   80.09   18.70
   3   8   4   79.29    7.60
  -4  -8  -4    2.20    4.50
  -4  -8  -4    6.00    5.20
   4   8   4    9.60    4.00
  -5  -8  -4  100.59   12.20
  -5  -8  -4   89.99   14.10
   5   8   4   89.09    8.80
  -6  -8  -4   14.20    6.20
   6   8   4   -5.00    3.20
   4  -9  -4   24.10   16.10
  -4   9   4   39.20    8.40
  -4   9   4   38.50    6.40
  -4   9   4   50.49   11.10
   3  -9  -4  158.98   13.50
   3  -9  -4  150.48   29.00
  -3   9   4  167.38   11.30
  -3   9   4  144.59   18.30
  -3   9   4  172.58   13.40
   2  -9  -4   31.50    6.40
   2  -9  -4   13.40   10.00
  -2   9   4   45.70    7.00
  -2   9   4   47.60    6.20
   1  -9  -4   40.30   11.40
  -1   9   4   49.20    7.70
   0  -9  -4  114.89   20.40
   0   9   4  134.69    9.90
  -1  -9  -4  137.09   21.80
   1   9   4   89.49    8.20
  -2  -9  -4  160.68   18.20
   2   9   4  117.29    9.00
  -3  -9  -4   51.99    9.90
  -3  -9  -4   36.10   10.60
  -3  -9  -4   35.20   11.60
   3   9   4   23.90    5.40
  -4  -9  -4   33.90    9.00
  -4  -9  -4   39.50   12.40
   4   9   4   26.40    5.40
  -5  -9  -4   31.40    8.60
  -5  -9  -4   10.10   10.70
   5   9   4   17.80    4.80
   4 -10  -4  102.49   27.40
  -4  10   4  128.09   17.00
  -4  10   4  119.29   19.00
  -4  10   4   90.79   11.60
   3 -10  -4  102.99   12.40
   3 -10  -4   98.19   25.30
  -3  10   4  140.69   11.60
  -3  10   4  101.79   18.90
  -3  10   4  107.89    9.60
   2 -10  -4   91.49   10.30
   2 -10  -4   98.39   20.50
  -2  10   4  121.59    9.90
  -2  10   4  108.89    9.50
   1 -10  -4   -0.50    9.40
  -1  10   4   17.60    4.40
   0 -10  -4  146.69   25.50
   0  10   4  106.19    9.80
  -1 -10  -4    9.80    6.20
   1  10   4   11.60    3.80
  -2 -10  -4  185.38   19.90
   2  10   4  144.09   11.10
  -3 -10  -4   42.20   13.90
  -3 -10  -4   96.69   18.40
   3  10   4   62.19    7.50
  -4 -10  -4   37.70   11.50
  -4 -10  -4    9.20   15.60
   4  10   4   15.60    4.80
   2 -11  -4   69.69   18.40
  -2  11   4   83.09    9.60
   1 -11  -4  122.79   37.30
  -1  11   4   77.79    8.60
   0 -11  -4   48.40   15.00
   0  11   4   20.30    4.90
  -1 -11  -4   80.29   20.80
   1  11   4   66.19    8.10
  -2 -11  -4  312.07   33.20
   2  11   4  302.57   21.80
  -3 -11  -4  174.88   22.00
   3  11   4  121.49   11.60
   1   9  -5  114.29   17.10
   1   9  -5  127.59   10.30
   0   9  -5   24.70    5.40
   0   9  -5   16.00    8.70
   0  -9   5   28.50   14.10
  -1   9  -5    5.50    6.10
  -1   9  -5   23.60    4.70
   1  -9   5   -1.30    9.50
  -2   9  -5   18.80    4.60
  -2   9  -5   23.40    8.40
   2  -9   5   26.80   12.10
  -3   9  -5   79.79    7.30
  -3   9  -5   44.20   14.00
   3  -9   5   69.39   26.80
   2   8  -5   14.60    4.80
  -2  -8   5   30.70   16.80
   1   8  -5   28.60    5.40
   1   8  -5   15.40    8.50
  -1  -8   5   24.80   14.60
   0   8  -5  101.29    8.60
   0   8  -5  101.09   16.30
   0  -8   5  119.39   27.30
  -1   8  -5   33.20    6.10
  -1   8  -5   39.90    9.80
   1  -8   5   22.40   11.50
  -2   8  -5   97.19   16.50
  -2   8  -5  122.49    8.80
   2  -8   5  110.99   22.60
  -3   8  -5  102.19   17.10
   3  -8   5   96.29   18.70
  -4   8  -5   83.49    6.30
  -4   8  -5   76.99   20.80
   4  -8   5   66.99   16.00
  -3  -7   5  101.09   26.40
   2   7  -5   98.69   10.10
   2   7  -5   79.69    8.40
  -2  -7   5   76.29   26.10
   1   7  -5   86.29    8.00
   1   7  -5   80.99   12.00
  -1  -7   5   46.60   19.40
   0   7  -5   66.69    6.90
   0   7  -5   65.09   11.70
   0  -7   5   48.90   16.80
  -1   7  -5   43.90   10.90
  -1   7  -5   39.50    6.00
   1  -7   5   14.80    9.60
  -2   7  -5    9.00    2.90
  -2   7  -5   22.00    7.80
  -3   7  -5   33.40   10.10
  -3   7  -5   27.20    4.60
   3  -7   5    7.30    7.90
  -4   7  -5   50.89    4.90
  -4   7  -5   53.39   11.80
   4  -7   5   45.80   13.20
  -5   7  -5   20.70    8.10
  -5   7  -5   18.90    3.30
   5  -7   5   18.00    8.90
   4   6  -5   47.20    7.90
  -4  -6   5   17.80   24.10
   3   6  -5  109.29    9.70
  -3  -6   5   85.79   20.60
   2   6  -5   59.99    6.40
   2   6  -5   49.00    7.50
   2   6  -5   42.90    7.60
  -2  -6   5   48.60   14.90
   1   6  -5   15.90    5.00
   1   6  -5    6.30    2.80
  -1  -6   5   13.30    8.80
   0   6  -5   51.89    5.90
   0   6  -5   72.99    9.10
   0  -6   5   78.19   18.80
  -1   6  -5  107.69    7.70
  -1   6  -5  121.99   13.40
   1  -6   5  134.99   20.30
  -2   6  -5  156.98    8.80
  -2   6  -5  149.69   15.60
   2  -6   5  152.58   21.30
  -3   6  -5  178.58   18.10
  -3   6  -5  162.28    8.40
   3  -6   5  163.28   21.40
  -4   6  -5   50.09   11.70
  -4   6  -5   60.79    4.60
   4  -6   5   72.69   16.00
  -5   6  -5  212.88   20.90
  -5   6  -5  216.98    8.00
   5  -6   5  196.38   23.70
  -6   6  -5   24.50   10.20
   6  -6   5   17.20   10.90
   5   5  -5   11.40    4.30
  -5  -5   5   14.60   11.10
   4   5  -5   60.79    6.90
  -4  -5   5   32.50   13.50
   3   5  -5   40.50    7.10
  -3  -5   5   32.70   12.50
   2   5  -5   40.10    6.60
   2   5  -5   28.40    3.80
   2   5  -5   40.70    5.50
  -2  -5   5   25.70   15.00
   1   5  -5    4.00    3.10
   1   5  -5    9.90    3.80
   1   5  -5   14.60    4.10
  -1  -5   5    9.60    7.80
   0   5  -5  333.87   18.90
   0   5  -5  340.17   14.10
   0  -5   5  315.47   32.20
  -1   5  -5  317.47   12.80
  -1   5  -5  315.77   19.30
   1  -5   5  342.97   32.10
  -2   5  -5  405.16   25.00
  -2   5  -5  420.86   14.20
   2  -5   5  393.36   32.00
  -3   5  -5  262.27   20.10
  -3   5  -5  256.47   10.00
   3  -5   5  255.67   10.20
   3  -5   5  259.87   24.60
  -4   5  -5   94.39   13.30
  -4   5  -5  103.59    5.50
  -4   5  -5  128.39    8.60
   4  -5   5  115.49   17.00
  -5   5  -5  122.59   16.10
   5  -5   5  117.99   17.60
  -6   5  -5    1.40    5.00
   6  -5   5    9.50    7.10
   5   4  -5  124.89   10.50
  -5  -4   5   89.39   20.50
   4   4  -5   10.90    4.20
  -4  -4   5   21.70    9.60
   3   4  -5   53.69    7.70
  -3  -4   5   38.00   12.80
   2   4  -5  175.78   10.60
  -2  -4   5  183.98   22.90
   1   4  -5  286.77   14.20
   1   4  -5  329.47   13.80
   1   4  -5  298.87   14.60
  -1  -4   5  286.17   29.60
   0   4  -5  110.99    9.70
   0   4  -5   96.39   11.60
   0   4  -5  104.09    7.00
   0  -4   5  120.49   24.00
  -1   4  -5  227.18   15.20
  -1   4  -5  214.58    9.60
   1  -4   5  208.68   23.80
  -2   4  -5  129.19    6.80
  -2   4  -5  132.69   12.20
   2  -4   5  123.59    6.80
   2  -4   5  126.79   17.80
  -3   4  -5   56.19   10.20
  -3   4  -5   64.69    4.30
   3  -4   5   62.49    4.40
   3  -4   5   75.19   15.30
  -4   4  -5  162.98   16.00
  -4   4  -5  141.59    6.20
  -4   4  -5  146.69    5.70
   4  -4   5  150.08   17.70
   4  -4   5  155.78    6.20
  -5   4  -5   31.10    7.90
   5  -4   5   38.70   10.90
  -6   4  -5   24.30    8.90
   6  -4   5   17.40    7.60
  -7   4  -5  165.58   19.20
   7  -4   5  152.78   19.60
   5   3  -5  133.59   10.80
  -5  -3   5  123.79   16.90
   4   3  -5   40.40    6.60
  -4  -3   5   55.69   12.00
   3   3  -5  294.87   14.50
  -3  -3   5  342.27   25.60
   2   3  -5   96.49    7.40
  -2  -3   5  111.99   15.40
   1   3  -5  187.58    9.40
   1   3  -5  170.48    9.90
   1   3  -5  186.98    9.70
  -1  -3   5  161.18   19.80
   0   3  -5   94.09    7.80
   0   3  -5   86.59    6.00
   0   3  -5   90.79   10.80
   0  -3   5   95.09   19.50
  -1   3  -5  231.18   14.20
  -1   3  -5  186.78   18.10
  -1   3  -5  205.28    8.80
   1  -3   5  233.18    9.30
   1  -3   5  240.28   15.00
   1  -3   5  212.18   22.60
  -2   3  -5  113.09   10.60
  -2   3  -5  109.69    5.60
   2  -3   5  117.79    5.90
   2  -3   5  129.79   15.40
  -3   3  -5  352.36   21.30
  -3   3  -5  356.36    9.70
   3  -3   5  330.07   24.70
   3  -3   5  354.46    9.90
  -4   3  -5  656.93   31.60
   4  -3   5  687.13   36.70
  -5   3  -5   68.59   12.30
   5  -3   5   76.69   15.30
  -6   3  -5   72.49   12.90
   6  -3   5   66.99   14.20
  -7   3  -5  103.59   23.30
  -7   3  -5  150.48   16.80
   7  -3   5  113.99   21.40
   6   2  -5   48.90    7.30
  -6  -2   5   65.59   13.90
   5   2  -5  193.08   12.40
  -5  -2   5  192.88   19.20
   4   2  -5 1164.28   32.40
  -4  -2   5 1172.08   48.40
   3   2  -5  374.26   15.60
  -3  -2   5  368.06   24.60
   2   2  -5    2.90    1.50
  -2  -2   5    0.60    2.90
   1   2  -5    2.60    1.40
  -1  -2   5    4.70    4.30
   0   2  -5   53.59    4.30
   0   2  -5   56.99    5.60
   0   2  -5   56.79   10.00
   0  -2   5   57.29    4.40
   0  -2   5   59.79    6.00
   0  -2   5   76.19   17.60
  -1   2  -5  224.28   12.80
  -1   2  -5  207.48    8.10
  -1   2  -5  213.38   19.20
   1  -2   5  230.48   14.20
   1  -2   5  205.08    8.10
  -2   2  -5   49.00    3.30
  -2   2  -5   34.50   10.30
  -2   2  -5   46.00    6.30
   2  -2   5   50.89   10.30
   2  -2   5   53.49    3.60
   2  -2   5   56.49    7.50
  -3   2  -5   69.89    3.20
  -3   2  -5   76.39    8.80
   3  -2   5   85.09   11.90
  -4   2  -5 1074.59   39.90
   4  -2   5 1119.99   45.10
  -5   2  -5   56.09   10.70
   5  -2   5   61.09   13.00
  -6   2  -5   27.00    7.90
   6  -2   5   26.20    8.70
  -7   2  -5   10.10    6.80
  -7   2  -5   10.00    5.30
   7  -2   5   14.90    7.60
   6   1  -5   28.50    6.10
  -6  -1   5   24.40    9.90
   5   1  -5   45.10    7.40
  -5  -1   5   44.90   10.30
   4   1  -5  222.78   12.10
   3   1  -5  155.28    9.30
  -3  -1   5  137.69   13.80
   2   1  -5   49.20    4.80
  -2  -1   5   46.80    8.90
   1   1  -5  145.89    9.30
  -1  -1   5  147.39   16.90
   0   1  -5  805.62   19.50
   0   1  -5  807.82   21.00
   0   1  -5  850.31   30.50
   0  -1   5  784.32   40.00
   0  -1   5  773.82   22.50
   0  -1   5  816.62   19.40
  -1   1  -5 3172.48   53.59
  -1   1  -5 3151.78   85.29
  -1   1  -5 3126.19   62.29
   1  -1   5 3205.68   53.29
   1  -1   5 3206.18   65.49
   1  -1   5 3221.18   86.89
  -2   1  -5  915.71   29.00
  -2   1  -5  900.71   42.70
  -2   1  -5  888.31   18.00
   2  -1   5  966.00   39.60
   2  -1   5  914.41   31.10
   2  -1   5  927.41   18.00
  -3   1  -5   10.70    4.10
   3  -1   5    2.20    2.70
  -4   1  -5  756.82   30.40
   4  -1   5  726.03   34.30
  -5   1  -5  235.88   17.50
   5  -1   5  229.98   20.00
  -6   1  -5   80.19   11.10
   6  -1   5   60.89   12.60
  -7   1  -5   21.60    7.80
  -7   1  -5    8.20    4.80
   7  -1   5   20.40    8.40
   6   0  -5  127.19   10.40
  -6   0   5  130.29   18.70
   5   0  -5   30.70    5.70
  -5   0   5   11.10    6.00
   4   0  -5    5.40    3.00
  -4   0   5    4.50    3.50
   3   0  -5  207.08   11.30
  -3   0   5  201.78   15.70
   2   0  -5   26.10    3.20
  -2   0   5   33.50    7.20
   1   0  -5  321.77   11.60
   1   0  -5  334.57   16.80
  -1   0   5  318.97   19.50
  -1   0   5  315.37   11.50
   0   0  -5  262.57    9.60
   0   0  -5  271.37   14.60
   0   0  -5  276.87    9.70
   0   0   5  251.57   19.90
   0   0   5  274.97   11.50
   0   0   5  271.77    9.40
  -1   0  -5 1248.08   24.50
  -1   0  -5 1279.07   30.50
  -1   0  -5 1247.48   45.50
   1   0   5 1252.97   32.90
   1   0   5 1233.18   24.30
   1   0   5 1284.77   45.80
  -2   0  -5  726.63   15.00
  -2   0  -5  780.52   24.80
  -2   0  -5  722.13   47.80
   2   0   5  764.62   26.80
   2   0   5  748.83   14.90
   2   0   5  737.73   30.80
  -3   0  -5  294.17   16.00
  -3   0  -5  295.97   21.90
   3   0   5  312.37   18.90
  -4   0  -5   57.99    7.50
   4   0   5   73.39    9.10
  -5   0  -5  242.08   17.00
   5   0   5  248.68   20.20
  -6   0  -5  180.18   19.10
  -6   0  -5  187.48   15.70
   6   0   5  191.68   18.80
  -7   0  -5  142.79   18.90
  -7   0  -5  139.09   14.00
   7   0   5  198.08   20.20
   6  -1  -5   33.10    6.20
  -6   1   5   24.40    9.60
   5  -1  -5    7.50    3.40
  -5   1   5   10.70    5.80
   4  -1  -5  248.18   12.70
  -4   1   5  252.87   19.30
   3  -1  -5  205.48   10.60
  -3   1   5  210.68   15.40
   2  -1  -5  420.66   14.80
   2  -1  -5  443.66   23.00
  -2   1   5  433.46   20.30
   1  -1  -5  303.67    9.80
   1  -1  -5  299.07   11.20
   1  -1  -5  299.17   15.20
  -1   1   5  294.77   15.80
  -1   1   5  299.87    9.60
  -1   1   5  303.07   10.90
   0  -1  -5  262.37    9.40
   0  -1  -5  249.38    8.60
   0  -1  -5  249.38   12.50
   0   1   5  257.37    9.00
   0   1   5  217.48   16.80
   0   1   5  253.17   10.40
  -1  -1  -5  892.11   34.40
  -1  -1  -5  883.71   19.00
  -1  -1  -5  904.41   22.80
   1   1   5  847.82   32.70
   1   1   5  893.91   18.60
   1   1   5  858.81   24.60
  -2  -1  -5  119.89    4.90
  -2  -1  -5  117.39    8.10
  -2  -1  -5  119.99   12.90
   2   1   5  128.09    4.70
   2   1   5  126.39   10.40
   2   1   5  142.89   10.00
   2   1   5  122.29    4.90
  -3  -1  -5  286.27   20.20
  -3  -1  -5  285.77   14.80
   3   1   5  308.87   17.40
  -4  -1  -5  367.46   18.50
   4   1   5  369.76   21.50
  -5  -1  -5  586.54   31.80
  -5  -1  -5  562.74   24.70
   5   1   5  552.44   29.50
  -6  -1  -5   33.10    8.50
  -6  -1  -5   49.10   12.20
   6   1   5   34.80    9.10
  -7  -1  -5   67.99    9.00
  -7  -1  -5  107.19   15.70
   7   1   5   91.09   12.80
   6  -2  -5   25.80    6.00
  -6   2   5   49.20   11.30
   5  -2  -5   45.80    7.40
  -5   2   5   46.90   10.40
   4  -2  -5  265.77   13.30
  -4   2   5  271.57   19.80
   3  -2  -5  192.18   10.20
  -3   2   5  171.88    6.70
  -3   2   5  182.78    9.40
  -3   2   5  191.88   14.00
   2  -2  -5  229.08   10.60
   2  -2  -5  259.07   15.80
   2  -2  -5  222.18   13.00
  -2   2   5  243.98   14.10
  -2   2   5  249.58    8.10
   1  -2  -5  255.37   11.30
   1  -2  -5  284.97   14.10
   1  -2  -5  253.67   10.40
  -1   2   5  266.47    9.10
  -1   2   5  270.87   10.10
  -1   2   5  266.27   13.40
   0  -2  -5   68.59    5.50
   0  -2  -5   70.29    4.70
   0  -2  -5   61.09    4.40
   0   2   5   61.99    4.80
   0   2   5   57.49    4.20
   0   2   5   68.49    7.90
  -1  -2  -5  192.78    8.70
  -1  -2  -5  213.98   13.90
  -1  -2  -5  189.38    7.60
   1   2   5  197.98   12.40
   1   2   5  190.18    7.20
   1   2   5  195.48   10.00
  -2  -2  -5  396.66   20.80
  -2  -2  -5  392.26   14.90
   2   2   5  403.16   17.30
   2   2   5  382.16   16.60
   2   2   5  376.16   10.30
   2   2   5  408.16   10.60
  -3  -2  -5   11.00    4.90
  -3  -2  -5    4.20    1.90
   3   2   5    3.20    1.00
   3   2   5    4.60    1.40
  -4  -2  -5  321.37   16.20
  -4  -2  -5  298.37   19.20
   4   2   5  285.57   18.10
  -5  -2  -5   90.49    8.90
   5   2   5   70.49   18.80
  -6  -2  -5   14.20    7.20
  -6  -2  -5   18.50    6.50
  -7  -2  -5   11.80    5.80
  -7  -2  -5    4.00    3.70
   6  -3  -5   68.39    8.30
  -6   3   5   69.99   13.60
   5  -3  -5   37.60    6.60
  -5   3   5   57.39    6.20
  -5   3   5   61.49    5.70
  -5   3   5   37.90    9.60
   4  -3  -5  280.17   13.90
  -4   3   5  240.58   12.10
  -4   3   5  266.57   18.80
  -4   3   5  244.68   13.80
   3  -3  -5  464.05   25.10
   3  -3  -5  455.35   17.00
  -3   3   5  455.15   15.10
  -3   3   5  454.35   22.20
  -3   3   5  452.15   18.50
   2  -3  -5  132.09   10.90
   2  -3  -5  134.79   11.50
   2  -3  -5  135.59    8.20
  -2   3   5  123.29   10.40
  -2   3   5  140.29   10.20
  -2   3   5  146.99    7.20
   1  -3  -5  152.38   10.20
   1  -3  -5  157.68    9.70
  -1   3   5  146.19   10.10
  -1   3   5  142.59    7.10
  -1   3   5  148.69    8.80
   0  -3  -5   49.30    4.00
   0  -3  -5   50.09    4.10
   0  -3  -5   45.10    4.50
   0   3   5   56.09    4.30
   0   3   5   49.60    4.30
   0   3   5   52.29    6.20
   0   3   5   47.10    4.10
  -1  -3  -5  292.47   10.60
  -1  -3  -5  302.77   11.80
   1   3   5  295.17   10.00
   1   3   5  297.47   12.30
   1   3   5  298.27   10.00
   1   3   5  278.77   11.10
  -2  -3  -5  178.38   12.40
  -2  -3  -5  212.58   10.30
   2   3   5  205.18    7.90
   2   3   5  194.08    7.50
   2   3   5  183.38   10.90
   2   3   5  195.38   10.00
  -3  -3  -5  185.08   12.20
  -3  -3  -5  187.18   10.80
  -3  -3  -5  181.08   13.30
  -3  -3  -5  183.28    7.20
   3   3   5  177.58    7.20
   3   3   5  184.18    7.00
   3   3   5  172.08   11.10
  -4  -3  -5   96.89    4.90
  -4  -3  -5   84.29    7.80
   4   3   5  104.99   12.90
   4   3   5   89.89    5.00
   4   3   5  102.69    5.00
  -5  -3  -5   61.09    3.70
  -5  -3  -5   61.29    8.30
  -5  -3  -5   51.29    6.80
   5   3   5   49.00    9.40
   5   3   5   50.29    4.00
   5   3   5   46.90    3.50
  -6  -3  -5   57.29   11.40
  -6  -3  -5   48.80    6.70
  -7  -3  -5   31.70    7.20
  -7  -3  -5   26.10    8.90
   6  -4  -5  103.09   10.20
  -6   4   5  150.18   11.00
  -6   4   5  125.09   10.20
  -6   4   5  108.99   15.30
   5  -4  -5  141.19   11.10
  -5   4   5  131.19   11.90
  -5   4   5  153.38   15.70
   4  -4  -5  163.98   11.10
  -4   4   5  204.88   15.00
  -4   4   5  172.08   15.30
   3  -4  -5  165.28   10.30
   3  -4  -5  175.58   16.70
  -3   4   5  171.98   10.30
  -3   4   5  143.89   12.40
  -3   4   5  146.99   11.80
   2  -4  -5  528.95   18.20
   2  -4  -5  544.85   26.90
  -2   4   5  528.35   20.50
  -2   4   5  523.05   17.50
  -2   4   5  538.35   22.40
  -2   4   5  544.35   18.10
   1  -4  -5   12.70    3.50
   1  -4  -5    9.20    2.70
  -1   4   5   15.10    3.00
  -1   4   5   13.40    3.00
  -1   4   5   10.40    2.60
  -1   4   5   15.30    3.20
   0  -4  -5  162.58    8.60
   0  -4  -5  169.88   10.70
   0   4   5  150.18    7.80
   0   4   5  169.08    8.00
   0   4   5  153.28    8.20
  -1  -4  -5  639.44   20.50
   1   4   5  623.74   19.60
   1   4   5  607.54   16.90
   1   4   5  620.54   17.20
  -2  -4  -5  140.79    7.10
  -2  -4  -5  139.39    9.20
  -2  -4  -5  129.49    7.10
  -2  -4  -5  150.78    9.00
   2   4   5  138.69    7.10
   2   4   5  132.69    6.60
   2   4   5  129.79    6.90
  -3  -4  -5   34.00    2.90
  -3  -4  -5   33.10    5.80
  -3  -4  -5   19.90    5.40
  -3  -4  -5   31.10    4.20
   3   4   5   36.20    3.90
   3   4   5   32.80    4.80
   3   4   5   37.40    3.40
  -4  -4  -5   19.00    3.00
  -4  -4  -5   19.20    5.10
  -4  -4  -5   11.10    5.50
   4   4   5   18.80    3.20
   4   4   5   15.40    2.80
  -5  -4  -5   94.89    8.70
  -5  -4  -5   93.99    5.50
  -5  -4  -5  125.39   12.70
   5   4   5  117.59    6.30
  -6  -4  -5   31.60    8.40
  -6  -4  -5   49.30    4.20
  -6  -4  -5   28.20    6.00
   6   4   5   39.10    3.60
  -7  -4  -5   12.90    6.30
  -7  -4  -5   16.90    4.50
   6  -5  -5  196.28   14.60
  -6   5   5  218.78   16.90
  -6   5   5  200.28   13.10
  -6   5   5  224.88   21.90
   5  -5  -5  209.48   14.00
  -5   5   5  192.88   17.90
  -5   5   5  207.18   12.70
  -5   5   5  218.68   16.20
   4  -5  -5   20.40   10.50
   4  -5  -5   25.00    5.40
  -4   5   5   17.60    4.50
  -4   5   5   26.40    6.80
  -4   5   5   21.20    6.20
   3  -5  -5    6.90    4.80
   3  -5  -5   10.50    3.60
  -3   5   5   15.70    3.60
  -3   5   5    5.70    2.20
   2  -5  -5  183.58   10.50
   2  -5  -5  172.98   16.00
  -2   5   5  188.48   11.30
  -2   5   5  185.08   12.20
  -2   5   5  183.08   10.00
   1  -5  -5  130.59   12.50
   1  -5  -5  127.99    8.50
  -1   5   5  124.29    7.70
  -1   5   5  125.29    6.70
  -1   5   5  123.39    7.80
   0  -5  -5   75.39    8.10
   0   5   5   82.09    6.00
  -1  -5  -5  100.49    8.70
   1   5   5  107.39    6.50
  -2  -5  -5  399.06   17.40
   2   5   5  435.16   19.50
  -3  -5  -5  981.10   27.80
  -3  -5  -5  923.81   29.40
  -3  -5  -5  993.30   29.30
  -4  -5  -5   36.20    6.90
  -4  -5  -5   26.20    5.10
  -4  -5  -5   40.30    8.40
   4   5   5   41.10    4.00
  -5  -5  -5  134.59   10.50
  -5  -5  -5  133.49   13.10
   5   5   5  144.89    8.00
  -6  -5  -5  215.78   19.80
  -6  -5  -5  257.17   15.70
   6   5   5  235.48   10.50
  -7  -5  -5    0.30    2.50
  -7  -5  -5   -7.50    5.10
   7   5   5    4.50    3.90
   5  -6  -5  144.29   11.80
  -5   6   5  168.68   16.10
  -5   6   5  171.88   11.80
  -5   6   5  188.08   17.90
   4  -6  -5   23.00    4.70
   4  -6  -5    0.60    8.90
  -4   6   5   27.90    5.00
  -4   6   5   13.60    6.20
  -4   6   5   17.20    6.40
   3  -6  -5   50.99   16.90
   3  -6  -5   47.10    7.60
  -3   6   5   65.89    6.30
  -3   6   5   85.89    8.80
   2  -6  -5  422.36   28.10
   2  -6  -5  387.96   17.10
  -2   6   5  373.16   15.50
  -2   6   5  390.66   16.80
  -2   6   5  367.86   18.60
   1  -6  -5  481.55   27.70
  -1   6   5  470.25   17.10
   0  -6  -5  162.38   14.30
   0   6   5  175.78    9.50
  -1  -6  -5  287.37   17.50
   1   6   5  304.27   12.30
  -2  -6  -5  885.61   30.70
   2   6   5  877.61   23.70
  -3  -6  -5  810.52   26.30
  -3  -6  -5  881.81   24.80
  -3  -6  -5  895.11   30.10
   3   6   5  896.21   23.80
  -4  -6  -5  106.39    9.70
  -4  -6  -5  113.49   11.60
  -4  -6  -5  111.49    9.70
   4   6   5  117.99    7.50
  -5  -6  -5   87.19    8.90
  -5  -6  -5   87.09   10.50
   5   6   5   86.39    6.70
  -6  -6  -5   35.50    6.60
   6   6   5   29.70    5.50
  -7  -6  -5   39.20   11.40
  -7  -6  -5   36.50    7.60
   7   6   5   24.70    6.00
  -5   7   5   18.10    5.50
  -5   7   5   21.10    7.90
  -4   7   5  109.99    9.10
  -4   7   5  106.29   23.30
  -4   7   5   82.89   11.00
   3  -7  -5   66.59   17.10
  -3   7   5   60.49    7.00
  -3   7   5   86.89    9.20
   2  -7  -5  571.24   37.10
  -2   7   5  547.05   25.00
  -2   7   5  534.75   19.60
  -2   7   5  541.55   20.20
   1  -7  -5  209.58   20.20
  -1   7   5  225.38   11.90
   0  -7  -5  126.39   14.60
   0   7   5  120.99    8.30
  -1  -7  -5  168.48   15.10
   1   7   5  142.79    9.10
  -2  -7  -5   39.60    8.20
   2   7   5   38.40    5.80
  -3  -7  -5  711.73   23.70
  -3  -7  -5  744.43   30.70
  -3  -7  -5  721.13   23.80
   3   7   5  730.53   22.60
  -4  -7  -5   75.89   10.20
  -4  -7  -5  100.09    8.90
  -4  -7  -5   97.69   11.90
   4   7   5   89.09    7.50
  -5  -7  -5  102.59   11.20
  -5  -7  -5  103.39   11.90
   5   7   5  114.79    8.80
  -6  -7  -5   59.89   12.20
  -6  -7  -5   81.39    9.50
   6   7   5   67.89   12.40
  -5   8   5   30.00    9.40
  -5   8   5   46.80    9.50
  -5   8   5   37.30    6.60
   4  -8  -5   71.39   21.10
  -4   8   5  105.99    8.70
  -4   8   5   86.79   10.40
  -4   8   5   79.09   14.80
  -3   8   5   39.30    5.30
  -3   8   5   22.40    4.70
   2  -8  -5  286.57   52.99
  -2   8   5  303.17   14.80
  -2   8   5  338.07   14.80
   1  -8  -5   51.69   13.10
  -1   8   5   56.79    6.20
   0  -8  -5  154.38   17.20
   0   8   5  138.29    9.50
  -1  -8  -5  197.68   18.90
   1   8   5  185.18   11.00
  -2  -8  -5   53.79   10.40
   2   8   5   61.19    6.30
  -3  -8  -5   -0.10    3.10
   3   8   5    9.20    2.60
  -4  -8  -5  209.98   15.30
  -4  -8  -5  223.98   17.10
  -4  -8  -5  191.08   25.50
   4   8   5  230.48   12.70
  -5  -8  -5   25.30    6.70
   5   8   5   27.80    5.40
  -6  -8  -5   79.89   10.90
  -6  -8  -5   30.90   10.90
   6   8   5   51.09    8.40
   4  -9  -5   12.10   14.00
  -4   9   5   47.70   11.70
  -4   9   5   43.20    7.80
  -4   9   5   37.60    7.00
   3  -9  -5  165.68   28.70
  -3   9   5  218.28   21.90
  -3   9   5  203.58   13.90
  -3   9   5  207.28   12.70
   2  -9  -5  116.39   23.90
  -2   9   5  148.29   10.30
  -2   9   5  125.49    9.10
  -2   9   5  124.89   16.60
   1  -9  -5  111.69   21.70
  -1   9   5   98.19    8.40
   0  -9  -5   60.19   14.80
   0   9   5   50.99    6.20
  -1  -9  -5  130.49   16.60
   1   9   5  126.49    9.80
  -2  -9  -5   45.00   10.70
   2   9   5   38.40    6.40
  -3  -9  -5   48.20   11.40
   3   9   5   62.19    8.80
  -4  -9  -5    2.20    3.60
  -4  -9  -5  -14.60   11.30
   4   9   5    9.10    3.90
  -5  -9  -5   15.10   11.70
  -5  -9  -5   13.80    6.80
   5   9   5   21.70    4.90
   3 -10  -5   76.09   24.30
  -3  10   5  142.59   22.50
  -3  10   5  126.69   12.70
  -3  10   5  140.39   10.80
   2 -10  -5   -2.10    9.50
  -2  10   5   20.30    4.10
   1 -10  -5   63.79   16.50
  -1  10   5   40.30    7.00
   0 -10  -5    6.60    5.60
   0  10   5   -0.70    1.90
  -1 -10  -5  160.38   20.40
   1  10   5  174.28   12.30
  -2 -10  -5  268.47   25.10
   2  10   5  252.27   15.00
  -3 -10  -5   73.59   14.20
   3  10   5   51.69    8.30
  -4 -10  -5   67.49   13.00
   4  10   5   45.00    7.90
   2 -11  -5   52.59   19.00
  -2  11   5   20.70    5.20
   1 -11  -5   25.80   12.80
  -1  11   5   22.20    8.20
   0 -11  -5   36.30   14.70
   0  11   5   25.50    5.10
  -1 -11  -5   27.90   13.40
   1  11   5   47.70    8.20
  -2 -11  -5  137.09   33.50
   2  11   5  125.69   14.20
  -3 -11  -5   15.60   12.40
   3  11   5   22.00    5.50
  -1   9  -6   13.60    9.00
  -1   9  -6   19.20    5.00
   1  -9   6   38.90   14.20
  -2   9  -6   47.40    7.30
  -2   9  -6   43.40   14.60
   2  -9   6   67.69   20.50
   2   8  -6   22.70    5.70
  -2  -8   6   30.90   21.40
   1   8  -6   43.30   10.20
   1   8  -6   43.60   10.50
  -1  -8   6   10.10   25.00
   0   8  -6  230.78   14.00
   0   8  -6  202.18   19.20
   0  -8   6  214.78   38.50
  -1   8  -6  178.38   11.40
  -1   8  -6  182.38   19.00
   1  -8   6  192.38   32.70
  -2   8  -6   34.90    5.80
  -2   8  -6   42.00   10.80
   2  -8   6   41.10   15.70
  -3   8  -6   67.79   13.20
  -3   8  -6   63.49    6.60
   3  -8   6   68.09   16.70
  -4   8  -6    4.60    8.70
   4  -8   6   15.10   11.70
   3   7  -6   34.80    7.40
  -3  -7   6   46.90   21.70
   2   7  -6   16.00    5.10
  -2  -7   6   24.20   15.60
   1   7  -6   90.19   11.40
   1   7  -6   82.59    8.00
  -1  -7   6  107.69   26.10
   0   7  -6  142.59   10.20
   0   7  -6  129.19   14.90
   0  -7   6  133.49   28.40
  -1   7  -6  222.08   12.40
  -1   7  -6  183.28   18.10
   1  -7   6  161.08   30.00
  -2   7  -6   56.29   12.10
  -2   7  -6   69.79    6.10
   2  -7   6   57.49   17.80
  -3   7  -6   17.10    7.70
  -3   7  -6   27.80    4.30
   3  -7   6   30.80   11.60
  -4   7  -6  137.29    8.10
  -4   7  -6  111.49   18.40
   4  -7   6   99.89   21.20
  -5   7  -6   83.89   17.50
   5  -7   6  100.79   19.90
   3   6  -6   27.00    5.60
  -3  -6   6   66.49   22.40
   2   6  -6   29.80    5.40
  -2  -6   6   20.60   14.00
   1   6  -6  224.38   13.20
   1   6  -6  221.28   15.30
  -1  -6   6  228.38   33.40
   0   6  -6  129.39    9.30
   0   6  -6  106.79   11.80
   0  -6   6   93.79   22.70
  -1   6  -6  131.99   14.00
  -1   6  -6  152.58    9.40
   1  -6   6  163.88   24.90
  -2   6  -6  263.27   20.90
  -2   6  -6  279.37   12.30
   2  -6   6  302.57   31.50
  -3   6  -6   33.30    9.60
  -3   6  -6   29.50    4.30
   3  -6   6   38.20   11.20
  -4   6  -6   83.69    5.40
  -4   6  -6   88.39   16.10
   4  -6   6   73.39   17.70
  -5   6  -6   86.79   12.10
   5  -6   6   57.69   13.90
  -6   6  -6    9.50    7.20
   6  -6   6   -3.20    8.20
   4   5  -6   32.00    6.80
  -4  -5   6   44.80   17.20
   3   5  -6  219.28   13.70
  -3  -5   6  200.68   37.00
   2   5  -6   48.60    7.40
  -2  -5   6   39.90   15.60
   1   5  -6   31.20    6.20
   1   5  -6   38.40    6.70
   1   5  -6   41.10    8.40
  -1  -5   6   33.50   16.30
   0   5  -6   24.10    5.50
   0   5  -6   22.70    4.20
   0  -5   6   12.90    9.60
  -1   5  -6   19.20    5.10
  -1   5  -6   15.60    3.10
   1  -5   6   14.20    8.80
  -2   5  -6  130.59   13.50
  -2   5  -6  132.59    7.60
   2  -5   6  131.99   20.00
  -3   5  -6   86.29   12.10
  -3   5  -6  114.99    6.40
   3  -5   6  116.39   21.70
  -4   5  -6  128.99   15.80
  -4   5  -6  121.59    6.10
   4  -5   6  100.49   19.00
   4  -5   6  101.69    6.80
  -5   5  -6  196.88   19.70
   5  -5   6  208.48   23.10
  -6   5  -6  125.39   16.60
   6  -5   6  126.79   19.30
   5   4  -6   41.10    8.10
  -5  -4   6   38.40   13.80
   4   4  -6  145.49   11.40
  -4  -4   6  162.48   28.30
   3   4  -6  180.58   12.10
  -3  -4   6  127.39   25.60
   2   4  -6   76.29    7.50
  -2  -4   6   88.29   21.50
   1   4  -6   42.60    6.60
   1   4  -6   43.30    5.80
   1   4  -6   40.70    6.10
  -1  -4   6   50.99   17.40
   0   4  -6   82.59    8.20
   0   4  -6   74.69   11.80
   0   4  -6   88.99    8.80
   0  -4   6  107.09   23.70
  -1   4  -6  102.59    6.70
  -1   4  -6  121.29   11.50
   1  -4   6  110.89   22.60
  -2   4  -6  324.77   12.00
  -2   4  -6  374.86   21.60
   2  -4   6  328.37   29.90
  -3   4  -6  250.77   19.00
  -3   4  -6  249.08    9.30
   3  -4   6  242.88    9.50
   3  -4   6  231.38   22.70
  -4   4  -6  243.98   19.70
  -4   4  -6  196.48    7.10
   4  -4   6  213.08   22.20
   4  -4   6  192.18    7.30
  -5   4  -6  131.59   15.50
   5  -4   6  112.39   16.30
  -6   4  -6   71.99   13.90
   6  -4   6   58.89   14.10
  -7   4  -6   44.50   11.80
   7  -4   6   35.80   11.30
   5   3  -6   20.10    9.70
  -5  -3   6   33.40    9.60
   4   3  -6  260.87   14.70
  -4  -3   6  240.48   24.40
   3   3  -6  123.39    9.60
  -3  -3   6  108.69   16.60
   2   3  -6   19.30    4.00
  -2  -3   6   36.20   12.40
   1   3  -6   60.79    6.70
   1   3  -6   62.69    5.80
   1   3  -6   65.19    5.60
  -1  -3   6   73.09   17.70
   0   3  -6  261.17   13.50
   0   3  -6  228.78   10.70
   0   3  -6  247.98   18.50
   0  -3   6  234.68   26.30
  -1   3  -6  177.28    8.40
  -1   3  -6  174.88   19.60
  -1   3  -6  159.48   11.90
   1  -3   6  156.58   14.90
   1  -3   6  193.58   22.20
  -2   3  -6  273.17   17.50
  -2   3  -6  253.37    9.60
   2  -3   6  282.57   26.20
   2  -3   6  260.77    9.90
  -3   3  -6  525.85   26.60
  -3   3  -6  495.75   13.10
   3  -3   6  521.65   33.30
   3  -3   6  509.05   13.30
  -4   3  -6   19.70    6.90
   4  -3   6    5.80    5.30
  -5   3  -6   11.50    5.30
   5  -3   6   16.80    8.00
  -6   3  -6   59.59   12.80
   6  -3   6   42.90   12.20
  -7   3  -6   18.70    7.80
   7  -3   6   15.50    6.80
   5   2  -6  184.68   12.90
  -5  -2   6  211.58   22.10
   4   2  -6   95.89    8.50
  -4  -2   6  105.59   15.70
   3   2  -6  277.57   16.40
  -3  -2   6  259.87   26.40
   2   2  -6  130.39    8.80
  -2  -2   6  116.39   17.10
   1   2  -6  192.18   10.10
  -1  -2   6  196.58   21.80
   0   2  -6  165.78    9.70
   0   2  -6  156.08   14.10
   0   2  -6  166.38    8.60
   0  -2   6  152.48   10.40
   0  -2   6  154.18   19.80
  -1   2  -6  997.30   44.00
  -1   2  -6 1021.90   31.10
  -1   2  -6  975.50   23.20
   1  -2   6  972.30   22.60
   1  -2   6 1001.90   32.50
  -2   2  -6   75.89    8.30
  -2   2  -6   79.59    4.70
   2  -2   6   86.89    4.90
   2  -2   6   86.49   12.30
  -3   2  -6  353.46   20.20
  -3   2  -6  326.77    9.00
   3  -2   6  352.26   25.30
   3  -2   6  333.77    9.20
  -4   2  -6  110.29   12.00
   4  -2   6  124.19   14.70
  -5   2  -6   91.69   11.30
   5  -2   6   62.19   13.30
  -6   2  -6   55.79   11.80
   6  -2   6   49.70   12.40
  -7   2  -6   15.00    5.90
  -7   2  -6   10.00    7.80
   7  -2   6    9.50   12.80
   5   1  -6  110.99   10.10
  -5  -1   6   95.29   14.50
   4   1  -6   58.59    6.70
  -4  -1   6   72.39   13.60
   3   1  -6  124.89    8.90
  -3  -1   6  120.19   14.20
   2   1  -6   76.59    6.50
  -2  -1   6   84.99   12.70
   1   1  -6   33.30    3.90
  -1  -1   6   47.90   11.80
   0   1  -6  762.82   23.80
   0   1  -6  760.02   20.90
   0  -1   6  789.02   43.10
   0  -1   6  768.72   23.40
  -1   1  -6  963.10   28.00
  -1   1  -6  953.80   21.80
   1  -1   6  945.31   21.50
   1  -1   6  980.60   44.70
  -2   1  -6  688.33   16.20
  -2   1  -6  742.03   30.80
   2  -1   6  696.83   36.10
   2  -1   6  724.53   16.20
  -3   1  -6  100.79    9.60
   3  -1   6   98.99    3.90
   3  -1   6   85.39   11.30
  -4   1  -6  361.46   20.90
   4  -1   6  368.26   26.10
  -5   1  -6   29.70    7.40
   5  -1   6   26.80    7.30
  -6   1  -6   49.70   10.10
   6  -1   6   45.00   11.30
  -7   1  -6   12.20    4.70
  -7   1  -6   -5.60    5.40
   7  -1   6    3.70    6.20
   6   0  -6   42.60    9.10
  -6   0   6   43.90   11.00
   5   0  -6   70.19    7.80
  -5   0   6  112.19   14.30
   4   0  -6  135.09   10.00
  -4   0   6  149.19   15.30
   3   0  -6   17.30    3.70
  -3   0   6    8.60    4.00
   2   0  -6   59.39    5.40
  -2   0   6   50.19    7.50
   1   0  -6  101.79    6.70
  -1   0   6  105.89   13.10
   0   0  -6  517.45   14.90
   0   0  -6  530.35   23.00
   0   0  -6  527.25   15.50
   0   0   6  512.15   17.80
   0   0   6  522.05   32.50
   0   0   6  506.75   15.20
  -1   0  -6  234.18   19.40
  -1   0  -6  237.18   11.50
  -1   0  -6  220.58    8.50
   1   0   6  227.08   13.10
   1   0   6  233.78    8.70
   1   0   6  235.28   20.20
  -2   0  -6   73.79    4.10
  -2   0  -6   72.39    6.90
  -2   0  -6   75.59   14.20
   2   0   6   75.99    8.20
   2   0   6   74.79    4.10
   2   0   6   85.59   11.10
  -3   0  -6   71.09    7.70
   3   0   6   61.49    9.00
  -4   0  -6  528.15   27.90
   4   0   6  563.24   29.50
  -5   0  -6  106.89   11.60
   5   0   6  103.19   13.30
  -6   0  -6  533.45   28.00
   6   0   6  556.04   33.70
  -7   0  -6   95.89   18.70
  -7   0  -6  103.19   12.60
   7   0   6  109.79   16.10
   6  -1  -6    4.30    3.20
  -6   1   6    0.90    4.10
   5  -1  -6   45.60    7.70
  -5   1   6   56.09   12.30
   4  -1  -6    6.70    4.10
  -4   1   6   11.30    6.10
   3  -1  -6   34.60    5.60
  -3   1   6   32.00    6.70
  -2   1   6  236.88   16.30
   1  -1  -6  453.65   20.30
   1  -1  -6  435.36   12.70
   1  -1  -6  445.46   15.10
  -1   1   6  429.46   24.30
  -1   1   6  430.66   13.40
   0  -1  -6  121.79    6.20
   0  -1  -6  129.39    9.80
   0  -1  -6  128.79    6.90
   0   1   6  118.29    6.40
   0   1   6  127.09    7.70
   0   1   6  130.09   14.60
  -1  -1  -6  888.11   20.40
  -1  -1  -6  892.41   35.80
  -1  -1  -6  906.71   23.50
   1   1   6  880.81   19.90
   1   1   6  906.11   27.00
   1   1   6  859.41   36.40
  -2  -1  -6   23.70    2.20
  -2  -1  -6   20.10    4.00
  -2  -1  -6   13.50    8.40
   2   1   6   14.00    4.50
   2   1   6   19.00    5.80
   2   1   6   22.00    2.80
  -3  -1  -6   92.79   13.80
  -3  -1  -6  102.69    8.90
   3   1   6  106.39    4.20
   3   1   6  114.59   10.50
   3   1   6  112.19    4.10
  -4  -1  -6   65.29   13.30
   4   1   6   51.79    7.10
  -5  -1  -6  223.18   15.70
   5   1   6  227.08   18.40
  -6  -1  -6   83.99   10.70
  -6  -1  -6   41.10   10.50
   6   1   6   58.79   11.80
  -7  -1  -6  150.78   18.90
  -7  -1  -6  145.69   14.40
   7   1   6  137.69   18.00
   6  -2  -6   -1.20    3.80
  -6   2   6   15.30    8.00
   5  -2  -6    9.90    3.50
  -5   2   6    0.10    4.70
   4  -2  -6  396.56   22.80
  -4   2   6  333.47   22.40
   3  -2  -6  333.37   14.60
  -3   2   6  298.97   19.20
   2  -2  -6  286.97   14.40
   2  -2  -6  280.87   12.50
  -2   2   6  290.17   16.90
  -2   2   6  282.37    9.30
   1  -2  -6   26.90    4.40
   1  -2  -6   18.10    3.40
  -1   2   6   22.30    5.40
  -1   2   6   26.80    2.90
   0  -2  -6  237.88    9.90
   0  -2  -6  239.88    9.70
   0  -2  -6  231.68   11.90
   0   2   6  231.98   10.60
   0   2   6  231.58   17.70
   0   2   6  230.78    9.30
  -1  -2  -6   33.80    3.60
  -1  -2  -6   22.90    2.80
  -1  -2  -6   43.10    8.20
   1   2   6   26.90    4.80
   1   2   6   37.10    3.50
   1   2   6   38.20    8.20
  -2  -2  -6  208.98   10.90
  -2  -2  -6  191.68   15.90
  -2  -2  -6  207.08    8.10
   2   2   6  204.98   13.10
   2   2   6  198.48    7.30
   2   2   6  244.08   16.60
   2   2   6  207.78    7.70
  -3  -2  -6  367.16   16.70
  -3  -2  -6  362.16   23.20
   3   2   6  354.36    9.50
   3   2   6  358.76   19.00
   3   2   6  362.76    9.70
   4   2   6  349.17   20.10
  -5  -2  -6  415.36   20.90
  -5  -2  -6  414.66   25.90
   5   2   6  402.56   24.30
  -6  -2  -6   25.70    7.10
   6   2   6   30.30    8.30
  -7  -2  -6   33.10    6.90
  -7  -2  -6   19.50    8.50
   7   2   6   39.00   10.30
   6  -3  -6   48.30    8.40
  -6   3   6   55.79   22.50
   5  -3  -6  200.18   13.10
  -5   3   6  168.28   17.10
   4  -3  -6  226.78   19.90
  -4   3   6  211.68   17.20
  -4   3   6  199.98    8.40
  -4   3   6  238.28   12.10
   3  -3  -6  131.59   13.40
   3  -3  -6  129.19    9.30
  -3   3   6  153.58   12.70
  -3   3   6  141.99    9.90
  -3   3   6  141.59    6.90
   2  -3  -6  167.68    9.80
   2  -3  -6  166.08   12.90
   2  -3  -6  199.48   14.00
  -2   3   6  160.48    7.40
  -2   3   6  154.18   12.10
  -2   3   6  161.78   11.80
   1  -3  -6  115.39    8.80
   1  -3  -6  121.29    9.30
   1  -3  -6  112.49    7.50
  -1   3   6  118.89    9.40
  -1   3   6  133.69    6.90
   0  -3  -6   46.40    4.80
   0  -3  -6   48.50    4.60
   0  -3  -6   44.50    4.80
   0   3   6   45.20    8.30
   0   3   6   41.60    4.60
  -1  -3  -6 1003.80   25.30
  -1  -3  -6  952.80   23.30
  -1  -3  -6  976.80   26.20
   1   3   6  954.00   22.70
   1   3   6  960.90   22.10
   1   3   6  940.51   26.90
   1   3   6  906.01   27.90
  -2  -3  -6  605.04   19.50
  -2  -3  -6  595.74   27.00
   2   3   6  591.24   15.40
   2   3   6  578.54   15.20
   2   3   6  575.54   20.20
  -3  -3  -6   11.70    2.90
  -3  -3  -6    6.50    4.80
   3   3   6   12.80    3.10
   3   3   6    7.10    1.80
   3   3   6    6.70    1.60
  -4  -3  -6  453.15   23.20
  -4  -3  -6  451.15   19.70
   4   3   6  385.26   20.90
   4   3   6  447.76   11.60
   4   3   6  410.06   11.40
  -5  -3  -6  160.38   12.40
  -5  -3  -6  186.08   16.10
   5   3   6  178.38   16.70
  -6  -3  -6   20.90    5.70
  -6  -3  -6   13.60    7.20
   6   3   6   16.30    5.50
  -7  -3  -6    7.80    5.70
  -7  -3  -6   16.10    4.00
   6  -4  -6  149.39   13.00
  -6   4   6  225.98   21.90
  -6   4   6  152.88   12.30
   5  -4  -6  105.59    9.90
  -5   4   6  126.09   13.70
  -5   4   6  145.89   11.30
   4  -4  -6  112.69    9.40
  -4   4   6  103.89    7.30
  -4   4   6   98.79    9.70
  -4   4   6  119.69   12.50
   3  -4  -6  335.87   23.70
   3  -4  -6  346.17   15.70
  -3   4   6  327.57   12.90
  -3   4   6  327.17   18.30
  -3   4   6  354.86   18.30
   2  -4  -6  347.67   21.40
   2  -4  -6  335.17   18.70
  -2   4   6  360.56   17.00
  -2   4   6  335.37   17.50
  -2   4   6  335.37   12.90
   1  -4  -6  133.39    9.40
   1  -4  -6  126.89    8.30
   1  -4  -6  143.89   11.80
  -1   4   6  140.49    7.70
  -1   4   6  132.89    8.30
  -1   4   6  140.69    9.00
  -1   4   6  132.69    8.90
   0  -4  -6  128.29    8.10
   0  -4  -6  130.99    6.90
   0  -4  -6  133.59    9.90
   0   4   6  135.99    7.90
   0   4   6  132.99   10.40
   0   4   6  134.09    7.90
  -1  -4  -6 1490.85   33.30
  -1  -4  -6 1494.85   36.00
   1   4   6 1460.85   31.50
   1   4   6 1427.46   31.40
  -2  -4  -6  496.75   21.50
  -2  -4  -6  537.55   19.00
   2   4   6  501.55   15.80
   2   4   6  523.95   15.40
   2   4   6  524.95   15.30
  -3  -4  -6   84.89    7.80
  -3  -4  -6   87.99   10.40
  -3  -4  -6   85.49    7.60
   3   4   6   85.59    5.70
   3   4   6   88.89    5.40
   3   4   6   89.19    7.10
  -4  -4  -6   84.29   12.00
  -4  -4  -6   97.49    6.20
  -4  -4  -6  111.19    9.10
  -4  -4  -6  121.69   10.50
   4   4   6  116.69    6.10
   4   4   6  121.29    6.50
   4   4   6  120.79   10.40
  -5  -4  -6   27.60    7.10
  -5  -4  -6   38.80    6.70
   5   4   6   32.40    6.50
   5   4   6   40.00    3.80
  -6  -4  -6   -2.10    4.60
  -6  -4  -6   10.20    2.80
   6   4   6    9.80    2.20
  -7  -4  -6   -1.70    5.20
  -7  -4  -6    2.80    2.60
   5  -5  -6    0.00    2.90
  -5   5   6   16.70    4.40
  -5   5   6   -3.60    4.40
  -5   5   6    4.90    3.10
   4  -5  -6   96.19    9.20
   4  -5  -6  106.89   19.90
  -4   5   6  110.49    9.50
  -4   5   6  108.79   11.60
  -4   5   6  124.19   11.40
   3  -5  -6   71.49   14.30
   3  -5  -6   65.69    6.80
  -3   5   6   65.59    8.00
  -3   5   6   64.49    6.80
   2  -5  -6  152.18   10.20
   2  -5  -6  155.08   15.70
  -2   5   6  162.98   10.10
  -2   5   6  146.49   12.90
  -2   5   6  144.09   10.40
   1  -5  -6  286.07   13.50
   1  -5  -6  290.97   18.90
  -1   5   6  268.87   11.70
  -1   5   6  260.17   12.20
  -1   5   6  265.27   11.90
   0  -5  -6  153.08   11.90
   0  -5  -6  142.19    9.00
   0   5   6  155.68    8.60
  -1  -5  -6   72.89    7.40
   1   5   6   68.59    5.30
  -2  -5  -6 1063.49   31.10
   2   5   6 1081.59   25.90
  -3  -5  -6  537.45   19.00
  -3  -5  -6  529.25   20.80
  -3  -5  -6  498.65   22.30
   3   5   6  528.25   16.10
  -4  -5  -6   98.89    9.90
  -4  -5  -6   94.19    8.80
  -4  -5  -6   81.79   11.00
   4   5   6  110.59    6.60
  -5  -5  -6   97.19   11.00
  -5  -5  -6   80.39    8.40
   5   5   6   80.89    5.90
  -6  -5  -6  120.99   10.90
  -6  -5  -6  114.49   14.60
   6   5   6  126.09    7.30
  -7  -5  -6   24.20    8.70
  -7  -5  -6   27.90    6.20
   5  -6  -6   20.70    5.80
  -5   6   6   37.90    9.70
  -5   6   6   37.90    8.50
  -5   6   6   31.50    5.60
   4  -6  -6   97.09    9.70
   4  -6  -6  103.79   18.30
  -4   6   6  110.09    9.30
  -4   6   6  107.59   15.50
  -4   6   6  110.69   12.10
   3  -6  -6    9.10    3.80
  -3   6   6   12.40    3.70
   2  -6  -6  172.18   17.70
   2  -6  -6  140.39   10.30
  -2   6   6  133.69   10.90
  -2   6   6  123.69    8.90
  -2   6   6  143.49    9.30
   1  -6  -6   76.89   10.70
  -1   6   6   52.89    5.80
   0  -6  -6   81.59    9.90
   0   6   6   86.19    7.00
  -1  -6  -6  135.39   11.50
   1   6   6  129.59    7.80
  -2  -6  -6  310.77   17.40
   2   6   6  301.47   12.70
  -3  -6  -6  173.28    9.30
  -3  -6  -6  166.58   11.90
  -3  -6  -6  185.88   13.10
   3   6   6  196.08    9.70
  -4  -6  -6   53.89   10.20
  -4  -6  -6   44.00    6.30
  -4  -6  -6   50.29    6.90
   4   6   6   52.19    5.30
  -5  -6  -6   54.79    8.40
  -5  -6  -6   53.49    7.50
   5   6   6   67.79    6.00
  -6  -6  -6   72.69   12.30
  -6  -6  -6   79.79    9.50
   6   6   6   65.49    7.70
  -5   7   6   82.49   14.20
  -5   7   6   85.29   11.80
  -5   7   6   72.49    8.30
   4  -7  -6   96.49   34.30
  -4   7   6  111.79   11.80
  -4   7   6  102.99    9.00
  -4   7   6  129.89   25.60
   3  -7  -6  149.09   25.50
  -3   7   6  145.99   11.40
  -3   7   6  158.98   10.90
   2  -7  -6  112.69   19.00
  -2   7   6  134.19   11.30
  -2   7   6  119.79    8.40
   1  -7  -6  232.08   21.30
  -1   7   6  215.18   11.90
   0  -7  -6   29.40    8.00
   0   7   6   22.00    4.60
  -1  -7  -6  349.96   22.30
   1   7   6  333.67   14.40
  -2  -7  -6   14.90    4.80
   2   7   6   18.40    4.30
  -3  -7  -6   40.20    8.10
   3   7   6   45.30    4.80
  -4  -7  -6    5.50    2.50
  -4  -7  -6    3.10    3.30
  -4  -7  -6   -6.50    5.90
   4   7   6    0.90    2.40
  -5  -7  -6   37.70    8.60
  -5  -7  -6   45.60    9.00
   5   7   6   54.59    7.40
  -6  -7  -6   86.69   11.60
  -6  -7  -6   86.29   10.10
   6   7   6   85.89    8.20
   4  -8  -6   25.50   17.20
  -4   8   6   33.00    7.00
  -4   8   6   36.10    6.50
  -4   8   6   23.60    8.80
   3  -8  -6    9.30   10.80
  -3   8   6   19.50    4.50
  -3   8   6   19.40    4.80
   2  -8  -6  140.39   24.40
  -2   8   6  122.79    9.50
  -2   8   6  134.69    8.60
  -2   8   6  139.99   13.70
   1  -8  -6   73.59   16.60
  -1   8   6   96.49    8.20
   0  -8  -6  218.18   21.40
   0   8   6  220.88   17.50
  -1  -8  -6  103.99   18.60
   1   8   6   95.79    8.20
  -2  -8  -6  178.18   16.60
   2   8   6  196.88   11.50
  -3  -8  -6  168.28   15.60
   3   8   6  187.38   11.00
  -4  -8  -6   28.80    7.60
  -4  -8  -6   28.00    6.10
   4   8   6   19.30    5.20
  -5  -8  -6  120.29   13.00
  -5  -8  -6   94.59   11.60
   5   8   6   89.19    8.70
  -6  -8  -6  206.68   19.10
  -6  -8  -6  161.08   17.70
   6   8   6  193.58   12.10
   4  -9  -6  119.29   27.90
  -4   9   6  152.28   18.10
  -4   9   6  134.49   12.20
  -4   9   6  167.38   13.80
   3  -9  -6   99.49   23.90
  -3   9   6  106.89    9.00
  -3   9   6  111.79   10.50
   2  -9  -6  363.36   35.00
  -2   9   6  315.17   16.40
   1  -9  -6  114.89   20.50
  -1   9   6  123.09    9.80
   0  -9  -6  140.19   19.00
   0   9   6  129.29    9.90
  -1  -9  -6  135.19   17.10
   1   9   6  129.29    9.70
  -2  -9  -6   24.50    8.60
   2   9   6   15.60    4.80
  -3  -9  -6   79.39   14.00
   3   9   6   74.59    7.40
  -4  -9  -6   38.40    9.80
   4   9   6   50.39    6.90
  -5  -9  -6   47.50   12.00
   5   9   6   17.00    5.50
   3 -10  -6    7.10   18.90
  -3  10   6   16.40    3.70
  -3  10   6   12.10    7.70
   2 -10  -6    2.50   11.40
  -2  10   6    3.60    2.90
   1 -10  -6   33.50   13.20
  -1  10   6   24.50    5.00
   0 -10  -6   37.80   11.90
   0  10   6   34.10    6.30
  -1 -10  -6   59.79   12.60
   1  10   6   64.39    7.80
  -2 -10  -6  115.29   20.30
   2  10   6   76.99    8.40
  -3 -10  -6  271.47   25.40
   3  10   6  256.87   15.40
  -4 -10  -6   95.99   16.70
   4  10   6  101.19    9.40
   2 -11  -6    1.70   16.20
   1 -11  -6   95.09   21.30
  -1  11   6   55.89    8.90
   0 -11  -6   19.40   13.10
   0  11   6   12.40    5.30
  -1 -11  -6   76.69   21.80
   1  11   6   46.70   12.00
  -2 -11  -6   24.60   10.60
   2  11   6   27.40    6.30
  -3 -11  -6    8.40    9.80
   3  11   6    8.00    4.90
   0   8  -7  182.28   19.60
   0   8  -7  211.88   15.60
   0  -8   7  176.08   33.70
  -1   8  -7   28.70   11.20
  -1   8  -7   48.60    7.90
   1  -8   7   34.60   19.30
  -2   8  -7  113.29   18.30
  -2   8  -7  119.59    9.20
   2  -8   7  100.59   23.80
  -3   8  -7   44.10   13.40
  -3   8  -7   47.90    5.70
   3  -8   7   31.90   13.90
   2   7  -7   95.59    9.80
  -2  -7   7   86.69   28.00
   1   7  -7   52.49    8.10
   1   7  -7   50.09    9.70
  -1  -7   7   47.50   25.20
   0   7  -7   87.99   14.10
   0   7  -7  115.79    9.90
   0  -7   7  124.69   26.20
  -1   7  -7  176.18   11.70
  -1   7  -7  213.18   19.70
   1  -7   7  211.38   31.50
  -2   7  -7   45.50   11.50
  -2   7  -7   41.50    6.10
   2  -7   7   59.49   18.90
  -3   7  -7   20.60    3.60
  -3   7  -7   29.00    9.50
   3  -7   7   18.70   10.60
  -4   7  -7   92.29    6.50
  -4   7  -7   87.99   20.00
   4  -7   7   77.29   20.60
   3   6  -7   28.50    5.70
   2   6  -7  107.99   10.10
  -2  -6   7   85.59   25.50
   1   6  -7   39.50    7.90
   1   6  -7   38.30    6.60
  -1  -6   7   -2.00   13.60
   0   6  -7  193.48   12.00
   0   6  -7  173.08   16.00
   0  -6   7  204.28   31.30
  -1   6  -7  112.69   13.40
  -1   6  -7  126.79    9.10
   1  -6   7   98.09   23.00
  -2   6  -7   46.30    5.50
  -2   6  -7   47.00   10.40
   2  -6   7   42.40   15.40
  -3   6  -7   16.40    3.30
  -3   6  -7   15.80    7.00
   3  -6   7   25.20   11.10
  -4   6  -7  127.69   16.30
  -4   6  -7  132.09    7.50
   4  -6   7  147.19   22.40
  -5   6  -7   40.40   11.50
   5  -6   7   43.20   14.50
   3   5  -7   -3.20    2.60
  -3  -5   7    1.70   12.20
   2   5  -7   25.50    5.70
  -2  -5   7   22.90   12.40
   1   5  -7   61.89    7.50
   1   5  -7   55.29    8.90
   1   5  -7   60.79    6.50
  -1  -5   7   61.69   19.40
   0   5  -7    8.40    4.70
   0   5  -7    4.60    4.30
   0  -5   7   13.70   10.30
  -1   5  -7  161.28   21.40
  -1   5  -7  136.39    9.10
   1  -5   7  118.99   24.30
  -2   5  -7   34.50    9.00
  -2   5  -7   39.30    6.10
   2  -5   7   51.59   15.50
  -3   5  -7   80.59    5.90
  -3   5  -7   89.49   15.10
   3  -5   7   87.69   19.80
  -4   5  -7  216.18    8.60
  -4   5  -7  217.88   20.40
   4  -5   7  180.18   23.10
  -5   5  -7  116.49   15.00
   5  -5   7  130.49   22.70
  -6   5  -7   17.40    7.60
   6  -5   7    7.50    8.20
   4   4  -7   18.30    4.90
  -4  -4   7    6.50    9.90
   3   4  -7   70.99    7.60
  -3  -4   7   59.89   17.30
  -2  -4   7   19.30    9.30
   1   4  -7   48.40    5.70
   1   4  -7   51.19    8.20
   1   4  -7   53.79    7.40
  -1  -4   7   35.10   14.30
   0   4  -7   64.59   15.80
   0   4  -7   80.19    8.60
   0   4  -7   75.89    6.70
   0  -4   7   89.69   22.90
  -1   4  -7  122.29   11.20
   1  -4   7  112.29   23.00
  -2   4  -7   19.50    3.80
  -2   4  -7   10.90    3.80
   2  -4   7   17.90    8.10
  -3   4  -7   46.00    9.70
  -3   4  -7   61.79    5.00
   3  -4   7   56.29    7.40
   3  -4   7   41.60   11.80
  -4   4  -7   14.10    2.30
  -4   4  -7   19.80    5.20
   4  -4   7   19.90    7.70
   4  -4   7   11.50    2.40
  -5   4  -7   98.09   13.70
   5  -4   7   92.19   17.70
   4   3  -7  238.88   14.50
  -4  -3   7  228.68   28.40
   3   3  -7  412.76   19.00
  -3  -3   7  419.26   38.70
   2   3  -7   69.19    7.00
  -2  -3   7   61.09   18.40
   1   3  -7   75.89    7.00
  -1  -3   7   73.19   18.90
   0   3  -7  163.28    9.40
   0   3  -7  186.88   11.60
   0   3  -7  151.38   16.00
   0  -3   7  208.08   27.30
  -1   3  -7  562.54   23.90
  -1   3  -7  507.85   16.70
   1  -3   7  495.75   39.20
  -2   3  -7  728.43   30.60
  -2   3  -7  746.23   20.60
   2  -3   7  741.13   45.50
  -3   3  -7  151.38   14.50
  -3   3  -7  176.68    7.50
   3  -3   7  174.58   10.90
   3  -3   7  141.49   18.80
  -4   3  -7  143.39   24.70
   4  -3   7  121.49   17.90
  -5   3  -7   84.79   14.50
   5  -3   7   97.29   18.30
  -6   3  -7   73.59   14.20
   6  -3   7   76.79   15.90
  -7   3  -7   21.10    8.30
   7  -3   7   28.20   10.10
   5   2  -7   15.70    4.90
  -5  -2   7    4.20    8.00
   4   2  -7   62.49    7.20
  -4  -2   7   67.99   13.80
   3   2  -7   66.89    7.20
  -3  -2   7   54.19   15.30
   2   2  -7  123.59    9.20
  -2  -2   7  153.88   21.30
   1   2  -7   19.00    3.90
  -1  -2   7   23.80    9.90
   0   2  -7   96.19    7.30
   0   2  -7   96.89   12.20
   0   2  -7   87.69    6.60
   0  -2   7   86.69    8.40
  -1   2  -7  761.12   26.40
  -1   2  -7  773.72   20.80
  -1   2  -7  751.72   39.20
   1  -2   7  787.12   29.40
   1  -2   7  784.02   46.30
  -2   2  -7  919.91   21.60
  -2   2  -7  863.21   31.70
   2  -2   7  944.71   54.99
   2  -2   7  896.81   21.30
  -3   2  -7  695.53   30.20
  -3   2  -7  729.33   16.60
   3  -2   7  727.43   16.80
   3  -2   7  764.12   40.70
  -4   2  -7  526.85   27.60
   4  -2   7  532.25   33.90
  -5   2  -7   58.99   10.60
   5  -2   7   58.69   13.80
  -6   2  -7  174.68   17.60
   6  -2   7  191.18   20.30
  -7   2  -7  166.38   16.90
   7  -2   7  146.99   19.30
   5   1  -7   72.29   11.00
  -5  -1   7   79.99   17.10
   4   1  -7   31.20    5.90
  -4  -1   7   24.30    7.70
   3   1  -7   42.30    6.50
  -3  -1   7   48.10   11.70
   2   1  -7  104.59    8.20
  -2  -1   7  106.29   19.90
   1   1  -7   70.69   12.40
  -1  -1   7   78.29   16.40
   0   1  -7   31.10    3.60
   0   1  -7   37.20    4.00
   0  -1   7   33.10    5.90
   0  -1   7   30.30    9.30
  -1   1  -7 1011.90   29.60
  -1   1  -7 1003.90   24.20
   1  -1   7 1024.00   50.79
   1  -1   7 1075.39   28.10
   1  -1   7 1007.30   33.10
  -2   1  -7  119.69   10.40
  -2   1  -7  128.39    6.30
   2  -1   7  130.19   15.50
   2  -1   7  122.79    7.50
  -3   1  -7  794.02   17.00
  -3   1  -7  811.22   31.20
   3  -1   7  814.42   17.10
   3  -1   7  792.52   39.20
  -4   1  -7    5.20    4.00
   4  -1   7   10.00    5.00
  -5   1  -7  200.68   17.00
   5  -1   7  189.48   36.60
  -6   1  -7  161.78   16.20
   6  -1   7  162.78   19.30
  -7   1  -7  166.98   22.60
  -7   1  -7  104.89   21.40
   7  -1   7  165.98   29.00
   5   0  -7    4.50    3.90
  -5   0   7    6.00    6.70
   4   0  -7   62.59    6.80
  -4   0   7   52.39   11.00
   3   0  -7  134.29   11.60
  -3   0   7  122.69   14.50
   2   0  -7  172.48   10.20
  -2   0   7  148.89   16.00
   1   0  -7  397.16   15.00
  -1   0   7  367.66   28.20
   0   0  -7  890.11   23.30
   0   0  -7  946.11   22.50
   0   0   7  895.41   26.60
   0   0   7  922.61   47.10
  -1   0  -7   73.09    5.10
  -1   0  -7   76.49    6.50
   1   0   7   89.79   17.30
   1   0   7   80.09    5.00
   1   0   7   67.29    7.50
  -2   0  -7  209.48   12.70
  -2   0  -7  208.48    8.00
   2   0   7  195.58   18.10
   2   0   7  192.98    7.60
  -3   0  -7   67.39    7.90
  -3   0  -7   63.09    3.60
   3   0   7   65.29    3.50
   3   0   7   77.99   10.50
  -4   0  -7   92.89   10.50
   4   0   7  106.59   20.00
  -5   0  -7   66.69   11.70
   5   0   7   65.09   12.60
  -6   0  -7  257.47   19.60
   6   0   7  275.17   23.40
  -7   0  -7   46.80    9.50
  -7   0  -7   23.40    9.60
   7   0   7   41.90   11.80
   5  -1  -7   37.90    7.10
  -5   1   7   49.00   10.50
   4  -1  -7  126.49   10.10
  -4   1   7  139.49   15.40
   3  -1  -7   88.99    7.60
  -3   1   7   95.49   12.10
   2  -1  -7   21.30    4.40
  -2   1   7   26.20    6.70
   1  -1  -7   15.30    3.40
   1  -1  -7   16.30    3.00
  -1   1   7   19.10    6.30
  -1   1   7   18.10    3.30
   0  -1  -7  330.67   11.50
   0  -1  -7  342.07   17.70
   0  -1  -7  349.87   13.20
   0   1   7  346.67   26.60
   0   1   7  347.47   14.70
  -1  -1  -7   42.00    8.90
  -1  -1  -7   33.30    4.00
  -1  -1  -7   29.40    3.30
   1   1   7   30.20    3.30
   1   1   7   22.60    7.70
   1   1   7   35.60    6.50
  -2  -1  -7   65.09    4.40
  -2  -1  -7   87.19   11.90
  -2  -1  -7   81.59    7.30
   2   1   7   72.89   10.10
   2   1   7   69.19    4.40
  -3  -1  -7   26.00    2.40
  -3  -1  -7   14.80    3.40
   3   1   7   19.60    2.10
   3   1   7   15.10    5.20
   3   1   7   15.60    2.30
  -4  -1  -7  184.58   13.70
   4   1   7  175.98   15.80
  -5  -1  -7   64.99   14.50
   5   1   7   74.49   10.80
  -6  -1  -7   78.59   10.40
  -6  -1  -7   83.49   15.90
   6   1   7   94.79   12.30
  -7  -1  -7    3.00    6.20
  -7  -1  -7    0.90    3.20
   7   1   7    2.60    5.50
   5  -2  -7   45.60    8.90
  -5   2   7   47.90   10.20
   4  -2  -7   89.29    8.30
  -4   2   7   89.49   11.90
   3  -2  -7   72.59    7.30
  -3   2   7   79.49   10.20
   2  -2  -7   16.00    3.70
  -2   2   7   16.80    2.90
  -2   2   7   25.90    6.10
   1  -2  -7   56.89    5.50
   1  -2  -7   58.19    7.60
   1  -2  -7   67.59    5.90
  -1   2   7   63.59   12.40
  -1   2   7   60.79    5.10
   0  -2  -7   71.89   13.30
   0  -2  -7   70.29    5.40
   0  -2  -7   74.69    5.50
   0   2   7   83.79    6.80
   0   2   7   85.19   12.10
  -1  -2  -7  152.58    8.50
  -1  -2  -7  154.68   12.10
  -1  -2  -7  150.28    7.70
   1   2   7  144.39    7.20
   1   2   7  136.59   10.20
   1   2   7  172.78   14.60
  -2  -2  -7   85.09   16.80
  -2  -2  -7   94.39    7.60
  -2  -2  -7   89.89    5.40
   2   2   7   86.29    9.40
   2   2   7   87.49    5.20
   2   2   7   86.89    5.30
  -3  -2  -7   97.59   16.30
  -3  -2  -7  127.59    9.50
   3   2   7  134.39   11.60
   3   2   7  122.79    5.40
   3   2   7  106.19    5.20
  -4  -2  -7   13.70    4.00
   4   2   7   12.90    4.30
  -5  -2  -7  146.89   18.20
   5   2   7   97.49   11.90
  -6  -2  -7   12.40    7.40
  -6  -2  -7   23.90    6.40
   6   2   7   21.10    6.50
  -7  -2  -7   54.89    9.60
  -7  -2  -7   60.39   12.40
   7   2   7   45.20   12.10
   5  -3  -7   53.59    8.90
  -5   3   7   46.90    9.60
   4  -3  -7   16.70    4.40
  -4   3   7   27.30    9.70
   3  -3  -7   11.20    3.90
   3  -3  -7   12.60    5.90
  -3   3   7   14.40    2.50
  -3   3   7   18.90    6.90
  -3   3   7   19.00    4.80
   2  -3  -7  142.99   12.40
   2  -3  -7  133.49    9.30
  -2   3   7  143.49    7.40
  -2   3   7  132.29   12.00
   1  -3  -7   68.69    7.60
   1  -3  -7   50.39    5.20
   1  -3  -7   63.09    6.80
  -1   3   7   66.89    8.60
  -1   3   7   56.29    8.20
   0  -3  -7  348.37   14.20
   0  -3  -7  341.07   13.60
   0  -3  -7  343.87   15.00
   0   3   7  337.97   14.30
   0   3   7  311.17   21.10
  -1  -3  -7 1015.50   27.90
  -1  -3  -7  984.60   28.80
   1   3   7  969.80   26.20
   1   3   7 1011.30   34.00
  -2  -3  -7  152.18   15.10
  -2  -3  -7  159.78    9.70
  -2  -3  -7  155.88    7.90
   2   3   7  166.18    7.70
   2   3   7  161.68    7.60
   2   3   7  156.38   11.30
  -3  -3  -7   56.39   10.30
  -3  -3  -7   62.09    6.60
   3   3   7   59.49    4.00
   3   3   7   65.59    7.40
   3   3   7   55.29    4.20
  -4  -3  -7  136.49   10.90
   4   3   7  140.99   12.00
   4   3   7  127.89    5.80
   4   3   7  121.69    5.80
  -5  -3  -7   65.99    9.30
  -5  -3  -7   62.99   17.80
   5   3   7  105.59   12.60
  -6  -3  -7   34.30    7.70
  -6  -3  -7   42.50   15.70
  -7  -3  -7   47.90   12.00
  -7  -3  -7   42.80    8.30
   7   3   7   57.39   13.20
   5  -4  -7    2.40    4.00
  -5   4   7   15.20    6.40
   4  -4  -7  122.49   10.50
  -4   4   7  120.09    7.80
  -4   4   7  157.18   10.70
  -4   4   7  134.69   13.50
   3  -4  -7   55.99   11.80
   3  -4  -7   50.29   11.10
  -3   4   7   60.79    8.10
  -3   4   7   58.99    4.90
   2  -4  -7  302.87   19.70
   2  -4  -7  274.27   13.90
   2  -4  -7  260.37   21.50
  -2   4   7  261.67   16.50
  -2   4   7  281.07   11.50
  -2   4   7  337.27   26.00
   1  -4  -7   53.49    9.00
   1  -4  -7   51.19    6.20
  -1   4   7   54.79    5.10
  -1   4   7   58.89    6.70
  -1   4   7   59.49    8.10
   0  -4  -7   46.70    4.70
   0  -4  -7   42.40    4.90
   0  -4  -7   54.69    6.00
   0   4   7   52.99    4.80
   0   4   7   60.19    8.10
  -1  -4  -7  462.45   17.70
  -1  -4  -7  466.55   14.10
  -1  -4  -7  467.05   16.30
   1   4   7  457.15   16.40
   1   4   7  458.95   15.40
  -2  -4  -7    8.00    4.20
  -2  -4  -7    9.10    2.40
   2   4   7    9.40    2.20
  -3  -4  -7  108.09   13.20
  -3  -4  -7  100.79    8.40
   3   4   7  110.69    6.40
   3   4   7   95.59    6.00
   3   4   7  105.19    8.80
  -4  -4  -7  208.98   15.00
  -4  -4  -7  240.68   14.20
   4   4   7  226.18    9.00
   4   4   7  213.28    8.80
   4   4   7  211.38   20.50
  -5  -4  -7  259.17   18.60
  -5  -4  -7  257.47   15.60
   5   4   7  251.47    9.00
   5   4   7  245.48   17.20
   5   4   7  246.78    9.10
  -6  -4  -7  214.78   15.10
  -6  -4  -7  228.58   20.40
  -7  -4  -7   38.40    8.10
  -7  -4  -7   40.30   11.90
   5  -5  -7  100.79   10.80
  -5   5   7  111.79   14.30
  -5   5   7  109.49   10.80
   4  -5  -7  122.99   11.10
   4  -5  -7  105.79   20.60
  -4   5   7  152.78   12.60
  -4   5   7  129.39   11.00
  -4   5   7  129.89   13.90
   3  -5  -7   80.99    7.90
   3  -5  -7   83.19   15.30
  -3   5   7   65.69    7.60
  -3   5   7   79.79    8.70
   2  -5  -7  337.27   16.20
   2  -5  -7  366.16   23.90
  -2   5   7  325.17   18.20
  -2   5   7  334.37   16.50
  -2   5   7  360.36   16.40
   1  -5  -7  669.03   30.20
   1  -5  -7  674.63   23.00
  -1   5   7  635.14   21.70
  -1   5   7  639.34   24.60
  -1   5   7  634.74   21.10
   0  -5  -7   19.30    5.20
   0  -5  -7   26.30    4.70
   0   5   7   18.80    3.30
  -1  -5  -7  159.78   11.10
   1   5   7  169.78    9.00
  -2  -5  -7  620.74   33.80
   2   5   7  561.94   17.50
  -3  -5  -7  437.96   17.20
  -3  -5  -7  460.95   23.50
  -3  -5  -7  461.45   19.60
   3   5   7  453.05   15.20
  -4  -5  -7  247.78   15.40
  -4  -5  -7  240.88   19.80
  -4  -5  -7  253.07   15.10
   4   5   7  261.07   10.70
  -5  -5  -7  110.19   10.20
  -5  -5  -7   96.69   10.90
  -6  -5  -7   77.69    9.10
  -6  -5  -7   67.19   12.40
   6   5   7   51.89    5.40
  -7  -5  -7   30.20    9.90
  -7  -5  -7   53.29   11.30
   5  -6  -7   -0.20    5.40
  -5   6   7   12.50    5.90
  -5   6   7    1.10    6.30
   4  -6  -7    5.70   13.30
   4  -6  -7   16.70    5.30
  -4   6   7   23.30    6.20
  -4   6   7   11.60    3.70
  -4   6   7    9.80    4.50
   3  -6  -7   42.00   13.60
   3  -6  -7   54.59    8.60
  -3   6   7   45.60    7.30
  -3   6   7   58.69    7.30
   2  -6  -7  140.59   17.10
  -2   6   7  167.78   15.00
  -2   6   7  159.98   15.30
  -2   6   7  180.78   11.10
   1  -6  -7   19.00    5.10
   1  -6  -7    8.50    5.00
  -1   6   7   20.30    4.50
   0  -6  -7  202.08   17.40
   0   6   7  196.48   11.00
  -1  -6  -7  101.39   10.60
   1   6   7   99.99    9.50
  -2  -6  -7  476.85   22.00
   2   6   7  492.35   17.00
  -3  -6  -7  382.86   19.30
   3   6   7  378.36   14.50
  -4  -6  -7  264.37   16.30
  -4  -6  -7  279.07   14.90
  -4  -6  -7  289.97   19.70
   4   6   7  256.67   11.90
  -5  -6  -7   21.70    5.80
  -5  -6  -7   24.20    5.90
   5   6   7   24.70    4.20
  -6  -6  -7   15.90    5.40
  -6  -6  -7   13.10    6.50
   6   6   7   14.40    3.70
   4  -7  -7    3.00   18.20
   4  -7  -7   12.10    4.70
  -4   7   7    5.30    3.30
  -4   7   7    8.50    4.00
  -4   7   7    8.30    5.80
   3  -7  -7   14.50    4.70
   3  -7  -7    7.60    8.70
  -3   7   7   22.50    4.90
  -3   7   7   19.60    4.80
   2  -7  -7   36.80   11.70
  -2   7   7   56.79    6.60
  -2   7   7   75.99    6.30
  -2   7   7   81.09    8.30
   1  -7  -7   44.80   10.80
  -1   7   7   52.79   10.80
   0  -7  -7  128.19   14.80
   0   7   7  137.59    9.40
  -1  -7  -7  111.69   12.20
   1   7   7  108.49    8.20
  -2  -7  -7  323.37   20.10
   2   7   7  303.57   14.00
  -3  -7  -7   25.40    6.30
   3   7   7   25.50    4.90
  -4  -7  -7   64.89    6.50
  -4  -7  -7   66.49    8.80
  -4  -7  -7   47.10   10.50
   4   7   7   61.49    6.40
  -5  -7  -7   54.69    9.40
  -5  -7  -7   90.29    9.70
   5   7   7   62.09    6.70
  -6  -7  -7   71.49   10.00
  -6  -7  -7   71.49   12.10
   6   7   7   77.79    7.30
   4  -8  -7   -0.80   15.40
  -4   8   7   37.20    7.20
  -4   8   7   24.10    9.70
  -4   8   7   40.90   10.80
   3  -8  -7   91.19   21.50
  -3   8   7   84.39    8.40
  -3   8   7  102.79    8.80
   2  -8  -7   11.10    8.80
  -2   8   7    6.20    3.40
   1  -8  -7  222.98   23.90
  -1   8   7  197.98   12.40
   0  -8  -7   23.30    7.40
   0   8   7   30.60    5.40
  -1  -8  -7   -1.80    2.70
   1   8   7    4.80    2.20
  -2  -8  -7   85.09   11.70
   2   8   7   90.99   14.60
  -3  -8  -7   74.19   10.30
  -4  -8  -7    4.50    3.20
   4   8   7    0.80    2.80
  -5  -8  -7  201.38   14.70
  -5  -8  -7  232.28   17.80
   5   8   7  211.08   12.50
   3  -9  -7   59.59   15.30
   2  -9  -7   78.59   17.30
  -2   9   7   73.39    8.50
   1  -9  -7  254.37   27.80
  -1   9   7  224.78   13.60
   0  -9  -7   57.99   13.60
   0   9   7   51.39    8.20
  -1  -9  -7   60.69   13.40
   1   9   7   69.19    6.90
  -2  -9  -7  241.18   22.60
   2   9   7  220.58   13.10
  -3  -9  -7   66.09   13.50
   3   9   7   76.19    7.00
  -4  -9  -7   18.10    6.70
   4   9   7    4.80    4.10
  -5  -9  -7    4.40    6.10
   5   9   7    8.00    4.80
   2 -10  -7  206.38   28.60
  -2  10   7  194.68   13.70
   1 -10  -7   71.29   19.20
  -1  10   7   67.39    8.10
   0 -10  -7   84.89   20.20
   0  10   7   79.39    8.70
  -1 -10  -7   84.59   18.00
   1  10   7   88.79    8.10
  -2 -10  -7  104.29   18.80
   2  10   7  115.89   10.60
  -3 -10  -7   65.29   15.90
   3  10   7   56.29    8.40
  -4 -10  -7   18.10    9.00
   4  10   7   11.20    5.40
   1 -11  -7  103.69   23.40
  -1  11   7   71.19   10.40
   0 -11  -7  158.58   25.30
   0  11   7  164.08   13.10
  -1 -11  -7   20.20   11.80
   1  11   7   23.00    6.10
  -2 -11  -7   17.00    7.80
   2  11   7   15.50    5.20
   0   7  -8  112.69   10.20
   0   7  -8   97.89   15.90
   0  -7   8   68.19   20.90
  -1   7  -8   11.80    8.30
  -1   7  -8   58.69    6.40
   1  -7   8   32.90   17.70
  -2   7  -8   28.80    9.40
   2  -7   8   29.00   15.60
  -3   7  -8  102.29    7.70
  -3   7  -8   88.39   15.50
   3  -7   8   75.09   21.90
   2   6  -8   20.50    5.10
  -2  -6   8   -2.20   15.70
   1   6  -8   74.69    9.50
   1   6  -8   87.59    8.40
   0   6  -8   96.89   11.80
   0   6  -8  124.29    9.50
   0  -6   8   87.79   25.20
  -1   6  -8   68.29    7.10
  -1   6  -8   63.19   11.20
   1  -6   8   59.79   19.60
  -2   6  -8   38.40   10.80
  -2   6  -8   43.90    6.40
   2  -6   8   23.20   12.90
  -3   6  -8  100.39   16.40
  -3   6  -8  118.19    7.60
   3  -6   8  102.99   21.30
  -4   6  -8  139.69    7.70
  -4   6  -8  102.29   18.40
   4  -6   8  145.69   27.50
   3   5  -8   77.69    9.20
  -3  -5   8   44.40   20.60
   2   5  -8   64.29    7.80
  -2  -5   8   92.69   22.40
   1   5  -8   38.40    7.00
   1   5  -8   51.19    6.00
  -1  -5   8   24.80   12.00
   0   5  -8  133.89   12.60
   0   5  -8  137.09    9.80
   0  -5   8  132.69   28.90
  -1   5  -8   46.20   10.00
  -1   5  -8   54.39   10.10
   1  -5   8   44.10   14.10
  -2   5  -8   63.99   12.20
  -2   5  -8   56.39    5.60
   2  -5   8   30.40   12.20
  -3   5  -8   14.80    7.20
  -3   5  -8   32.60    4.70
   3  -5   8   23.30    9.20
  -4   5  -8  161.48    7.60
  -4   5  -8  173.48   17.70
   4  -5   8  170.78   21.60
  -5   5  -8    4.00    7.90
   5  -5   8   16.70    7.20
  -3  -4   8   38.50   19.50
   2   4  -8   17.40    4.30
  -2  -4   8   17.60   11.30
   1   4  -8   65.99    8.50
   1   4  -8   72.89    7.50
  -1  -4   8   84.19   22.80
   0   4  -8  185.88   13.60
   0   4  -8  216.68   13.60
   0  -4   8  192.98   28.80
  -1   4  -8  142.39    9.00
  -1   4  -8  145.69   13.40
   1  -4   8  158.98   30.80
  -2   4  -8   50.09   10.40
  -2   4  -8   58.89    6.80
   2  -4   8   70.49   17.90
  -3   4  -8  105.99    6.50
  -3   4  -8   93.29   12.70
   3  -4   8   89.69   19.00
  -4   4  -8    9.70    5.20
  -4   4  -8   12.70    2.40
   4  -4   8   13.90    7.60
  -5   4  -8    9.00    5.60
   5  -4   8    9.20    5.80
  -6   4  -8   47.20   11.20
   6  -4   8   50.59   13.30
  -4  -3   8   24.20   12.20
   3   3  -8   20.20    4.70
  -3  -3   8   22.90   11.20
   2   3  -8   47.30    7.00
  -2  -3   8   37.50   12.70
   1   3  -8   46.10    5.40
  -1  -3   8   50.99   18.80
   0   3  -8   55.99   11.80
   0   3  -8   50.99    5.60
   0   3  -8   75.79    7.30
  -1   3  -8  380.46   19.40
  -1   3  -8  378.36   14.80
   1  -3   8  434.56   37.60
  -2   3  -8  240.28   17.10
  -2   3  -8  274.97   11.50
   2  -3   8  280.27   28.20
  -3   3  -8  114.99    6.50
  -3   3  -8  119.29   12.90
   3  -3   8  113.89   22.00
   3  -3   8  114.59    6.60
  -4   3  -8   74.39   12.90
   4  -3   8   66.89   15.40
  -5   3  -8  162.48   16.80
   5  -3   8  142.39   19.10
  -6   3  -8   58.39   18.60
   6  -3   8   31.70   15.90
   4   2  -8   22.70    7.60
   3   2  -8  372.86   17.80
  -3  -2   8  351.76   34.70
   2   2  -8  153.88   10.70
  -2  -2   8  136.79   26.40
   1   2  -8   24.90    4.50
  -1  -2   8   14.50   11.60
   0   2  -8  164.58   17.30
   0   2  -8  185.28   10.30
   0   2  -8  193.48   10.60
   0  -2   8  185.38   26.10
   0  -2   8  196.98   13.30
  -1   2  -8   62.69    5.50
  -1   2  -8   78.09    7.80
   1  -2   8   53.49   15.10
  -2   2  -8  672.83   18.70
  -2   2  -8  672.83   27.60
   2  -2   8  654.73   42.20
  -3   2  -8   12.20    4.70
  -3   2  -8   21.60    3.30
   3  -2   8   18.50    3.40
   3  -2   8   17.10    8.20
  -4   2  -8  136.49   13.80
   4  -2   8  135.39   17.80
  -5   2  -8  101.59   13.50
   5  -2   8  120.99   17.00
  -6   2  -8  127.69   15.00
   6  -2   8   77.19   16.90
  -7   2  -8   14.30    6.60
   7  -2   8   12.50    7.80
   4   1  -8  150.68   11.60
  -4  -1   8  184.28   22.60
   3   1  -8   26.80    5.70
  -3  -1   8   34.60   12.90
   2   1  -8   60.79    8.30
  -2  -1   8   46.00   15.50
   1   1  -8   98.29    7.60
  -1  -1   8   92.09   20.40
   0   1  -8  115.19   15.20
   0   1  -8  118.59   12.30
   0   1  -8  129.79    7.80
   0  -1   8  124.69   23.50
   0  -1   8  124.69   10.40
  -1   1  -8  469.95   15.50
   1  -1   8  438.36   37.90
  -2   1  -8  766.72   19.60
  -2   1  -8  758.52   28.10
   2  -1   8  769.82   62.89
   2  -1   8  717.63   19.00
  -3   1  -8    6.90    3.90
  -3   1  -8    8.40    1.80
   3  -1   8    8.10    2.00
   3  -1   8   10.10    5.30
  -4   1  -8   13.40    5.30
   4  -1   8   21.80    7.50
  -5   1  -8   79.69   11.20
   5  -1   8   97.99   17.50
  -6   1  -8  108.19   13.50
   6  -1   8  119.19   16.40
  -7   1  -8  227.68   20.60
   7  -1   8  253.87   24.50
   5   0  -8   -1.10    4.20
  -5   0   8    2.50    6.90
   4   0  -8   28.30    5.90
  -4   0   8   17.70    9.10
   3   0  -8    5.90    3.30
  -3   0   8    4.50    6.10
   2   0  -8  148.49   12.00
  -2   0   8  141.29   20.20
   1   0  -8  485.95   18.00
  -1   0   8  475.85   37.80
   0   0  -8  180.58    8.70
   0   0  -8  168.38    9.30
   0   0   8  159.78   11.10
   0   0   8  176.98   20.30
  -1   0  -8  417.96   14.50
  -1   0  -8  406.26   16.80
   1   0   8  459.75   32.50
   1   0   8  439.56   25.00
  -2   0  -8   26.60    5.40
  -2   0  -8   27.70    3.20
   2   0   8   28.30    4.00
   2   0   8   33.50    9.00
  -3   0  -8   15.20    4.80
  -3   0  -8   13.50    2.20
   3   0   8   27.30    7.50
   3   0   8   16.90    2.70
  -4   0  -8   -0.10    2.40
   4   0   8    7.00    4.50
  -5   0  -8  124.89   13.00
   5   0   8  104.19   23.90
  -6   0  -8   71.49   12.30
   6   0   8   63.89   13.50
  -7   0  -8  284.17   28.50
  -7   0  -8  337.07   23.40
   7   0   8  354.66   31.20
   5  -1  -8   17.90    6.50
  -5   1   8   32.70   11.60
   4  -1  -8   36.90    7.00
  -4   1   8   32.80    8.90
   3  -1  -8   55.49    8.40
   2  -1  -8  105.09    8.50
  -2   1   8   96.69   14.10
   1  -1  -8   12.30    3.50
   1  -1  -8   17.10    3.10
  -1   1   8   18.70    8.00
  -1   1   8   13.90    3.40
   0  -1  -8   92.79    6.00
   0  -1  -8   95.79    7.00
   0   1   8  101.99   15.10
  -1  -1  -8    9.80    2.40
  -1  -1  -8   10.30    2.80
   1   1   8   11.90    5.40
  -2  -1  -8  247.68    9.90
  -2  -1  -8  238.98   13.50
   2   1   8  275.57   21.20
   2   1   8  241.38    9.40
  -3  -1  -8   99.89    9.80
  -3  -1  -8   94.39    5.30
   3   1   8   86.99    5.10
   3   1   8   93.59    5.20
   3   1   8   98.59   11.70
  -4  -1  -8   94.89   10.20
   4   1   8   94.89   14.40
  -5  -1  -8  225.78   16.90
   5   1   8  222.78   19.20
  -6  -1  -8  155.38   14.70
   6   1   8  165.28   18.20
  -7  -1  -8   20.00    7.80
  -7  -1  -8   19.30    8.80
   7   1   8   30.60    9.60
   5  -2  -8   93.29    9.90
  -5   2   8   85.09   16.40
   4  -2  -8   53.49    8.30
  -4   2   8   61.59   13.00
   3  -2  -8  117.19    9.30
  -3   2   8  112.39   13.60
   2  -2  -8  143.49    9.90
  -2   2   8  129.59   15.10
   1  -2  -8   83.59    7.00
   1  -2  -8   86.99    7.20
  -1   2   8  112.29   14.30
  -1   2   8   80.19    6.50
   0  -2  -8  310.37   13.40
   0  -2  -8  323.57   17.30
   0  -2  -8  316.47   12.60
   0   2   8  327.37   25.10
   0   2   8  307.87   15.00
  -1  -2  -8   75.69    8.90
  -1  -2  -8   77.19    6.30
  -1  -2  -8   89.09    6.20
   1   2   8   75.49   11.30
  -2  -2  -8  158.58   10.20
  -2  -2  -8  155.28   17.20
  -2  -2  -8  152.18    7.80
   2   2   8  152.28    7.80
   2   2   8  147.09    7.30
   2   2   8  160.58   14.00
  -3  -2  -8    7.20    2.40
  -3  -2  -8    5.20    1.70
   3   2   8    2.50    1.40
   3   2   8    6.50    2.00
   3   2   8    4.90    3.80
  -4  -2  -8   35.00    6.50
   4   2   8   41.80    3.10
   4   2   8   47.80    9.90
   4   2   8   39.00    3.00
  -5  -2  -8   36.50    7.10
   5   2   8   40.10    8.30
  -6  -2  -8   60.39   10.50
  -6  -2  -8   55.79   13.00
   6   2   8   51.69   11.80
  -7  -2  -8   32.60   10.00
  -7  -2  -8   50.09   13.60
   7   2   8   36.10    9.70
   5  -3  -8  169.18   13.20
  -5   3   8  152.48   18.10
   4  -3  -8   44.30    7.90
  -4   3   8   40.10    9.70
   3  -3  -8  140.09   10.60
  -3   3   8  136.09   13.30
   2  -3  -8    3.80    4.00
   2  -3  -8    5.10    2.40
  -2   3   8   12.40    3.90
  -2   3   8    4.30    2.10
   1  -3  -8   10.80    3.20
   1  -3  -8   12.90    6.10
   1  -3  -8    7.90    3.40
  -1   3   8   18.30    5.90
  -1   3   8    8.10    2.70
   0  -3  -8  104.69    7.80
   0  -3  -8   93.89    9.10
   0  -3  -8   92.69    7.40
   0   3   8   98.69    8.50
   0   3   8  107.49   12.70
  -1  -3  -8  288.17   12.40
  -1  -3  -8  287.07   13.10
  -1  -3  -8  317.27   15.30
   1   3   8  287.77   12.30
   1   3   8  279.67   18.10
  -2  -3  -8  101.19   12.80
  -2  -3  -8   91.19    7.30
   2   3   8   95.99    7.90
   2   3   8   77.19    8.80
  -3  -3  -8  109.69    9.30
  -3  -3  -8   76.79   13.90
   3   3   8   99.59    5.80
   3   3   8  120.79   10.80
   3   3   8   99.09    5.90
  -4  -3  -8   84.39    8.70
   4   3   8   84.19    4.90
   4   3   8   76.29    4.70
   4   3   8   83.19   10.30
  -5  -3  -8  194.18   14.70
  -5  -3  -8  185.98   17.40
   5   3   8  212.38   17.10
  -6  -3  -8   52.29   12.20
  -6  -3  -8   68.89    9.30
   6   3   8   65.99   12.40
  -7  -3  -8   39.90    8.40
  -7  -3  -8   17.80    9.60
   7   3   8   24.90    9.90
   5  -4  -8   16.00    5.50
  -5   4   8   15.20    7.90
   4  -4  -8   19.30    4.90
  -4   4   8   17.40    7.20
   3  -4  -8   15.60    8.10
   3  -4  -8   20.70    5.50
  -3   4   8   35.00    3.90
  -3   4   8   27.00    7.10
   2  -4  -8  342.57   20.90
   2  -4  -8  288.87   19.70
  -2   4   8  348.07   20.60
  -2   4   8  323.57   13.40
   1  -4  -8  436.76   18.30
   1  -4  -8  461.75   21.10
   1  -4  -8  495.95   28.20
  -1   4   8  485.05   27.00
   0  -4  -8  184.38   11.20
   0  -4  -8  220.88   17.40
   0  -4  -8  215.18   12.80
   0   4   8  190.08   16.40
   0   4   8  213.48   16.40
  -1  -4  -8  303.17   12.80
  -1  -4  -8  291.87   13.30
  -1  -4  -8  300.67   14.50
   1   4   8  302.67   12.90
   1   4   8  303.37   16.00
  -2  -4  -8  404.16   20.50
  -2  -4  -8  383.16   18.40
   2   4   8  393.86   16.80
   2   4   8  387.36   13.80
  -3  -4  -8   20.40    4.80
  -3  -4  -8   13.40    7.40
   3   4   8   33.20    4.90
   3   4   8   21.20    3.90
  -4  -4  -8   24.50    6.50
  -4  -4  -8   13.50    4.20
   4   4   8   16.80    3.10
   4   4   8   16.10    4.00
   4   4   8   18.00    3.10
  -5  -4  -8  106.89   12.60
  -5  -4  -8  107.99   10.50
   5   4   8  114.89    5.80
   5   4   8  105.29    6.10
   5   4   8  119.39   17.40
  -6  -4  -8  188.08   19.70
  -6  -4  -8  219.38   15.80
   6   4   8  226.88   28.80
  -7  -4  -8   63.69    8.60
  -7  -4  -8   43.50   13.40
   4  -5  -8   67.29   10.10
  -4   5   8   85.89    8.60
  -4   5   8   68.69   12.10
  -4   5   8   95.89   10.30
   3  -5  -8   46.70    7.80
   3  -5  -8   42.00   10.10
  -3   5   8   48.70   11.60
  -3   5   8   40.90    7.20
   2  -5  -8  391.46   18.30
   2  -5  -8  360.86   24.70
  -2   5   8  414.66   26.00
  -2   5   8  355.56   17.40
   1  -5  -8  238.08   13.60
   1  -5  -8  250.37   14.30
   1  -5  -8  238.78   18.10
  -1   5   8  248.98   13.50
  -1   5   8  246.38   13.20
  -1   5   8  242.08   17.40
   0  -5  -8   12.80    4.00
   0  -5  -8   16.70    4.20
   0   5   8   16.80    3.60
  -1  -5  -8  558.44   23.90
  -1  -5  -8  555.64   21.80
   1   5   8  524.45   18.70
  -2  -5  -8  248.48   14.20
   2   5   8  244.28   11.10
  -3  -5  -8  205.58   11.90
  -3  -5  -8  180.68   17.10
  -3  -5  -8  205.18   13.30
   3   5   8  199.68   11.10
   3   5   8  208.38    9.90
  -4  -5  -8  249.97   22.60
  -4  -5  -8  308.77   17.10
  -4  -5  -8  315.37   16.80
   4   5   8  298.27   11.80
   4   5   8  311.37   16.40
  -5  -5  -8   97.39    9.60
  -5  -5  -8   73.39   10.20
  -6  -5  -8   52.49   11.30
  -6  -5  -8   42.80    8.00
   6   5   8   40.10    4.90
   4  -6  -8   14.50    4.80
  -4   6   8    8.20    5.70
  -4   6   8    8.30    5.00
  -4   6   8   13.80    4.10
   3  -6  -8  105.39   20.10
   3  -6  -8  106.39   10.60
  -3   6   8  122.39   10.10
  -3   6   8  114.59   11.00
   2  -6  -8  368.76   18.70
   2  -6  -8  401.26   30.10
  -2   6   8  401.26   19.20
  -2   6   8  390.76   18.20
  -2   6   8  396.46   19.10
   1  -6  -8   23.20    7.40
   1  -6  -8   17.20    7.30
  -1   6   8   29.60    8.30
   0  -6  -8   17.20    5.50
   0  -6  -8    8.70    3.00
   0   6   8    4.80    2.10
  -1  -6  -8  936.21   34.70
   1   6   8  928.71   26.60
  -2  -6  -8   34.00    6.50
   2   6   8   29.20    4.80
  -3  -6  -8  547.95   28.90
   3   6   8  532.45   19.90
  -4  -6  -8  165.28   11.60
  -4  -6  -8  159.18   12.70
   4   6   8  141.99    8.90
  -5  -6  -8   14.40    5.10
  -5  -6  -8   10.40    5.70
   5   6   8   12.30    3.50
  -6  -6  -8   42.20    9.60
  -6  -6  -8   43.70    8.30
   6   6   8   39.20    5.80
   4  -7  -8    4.50   17.60
  -4   7   8   13.90    5.70
  -4   7   8    9.10    5.80
  -4   7   8    4.60    2.70
   3  -7  -8   27.00    5.60
   3  -7  -8   43.60   15.00
  -3   7   8   50.69    7.50
  -3   7   8   48.90    5.90
   2  -7  -8  162.98   12.90
   2  -7  -8  177.38   21.50
  -2   7   8  197.48   12.20
  -2   7   8  188.68   13.00
  -2   7   8  156.58   11.60
   1  -7  -8   90.29   16.30
  -1   7   8   88.09    8.10
   0  -7  -8   36.50    9.20
   0   7   8   32.50    5.90
  -1  -7  -8   33.80    8.20
   1   7   8   25.60    4.80
  -2  -7  -8  110.69   11.40
   2   7   8   93.79    7.50
  -3  -7  -8  129.99   12.40
   3   7   8  115.99    8.70
  -4  -7  -8    7.20    4.40
   4   7   8   17.80    4.50
  -5  -7  -8   67.29    8.60
  -5  -7  -8   58.29    9.20
   5   7   8   55.99    7.20
  -6  -7  -8  222.68   16.60
  -6  -7  -8  210.88   18.30
   6   7   8  180.38   11.20
   3  -8  -8   94.39   21.40
  -3   8   8  100.29    9.10
   2  -8  -8  162.68   21.20
  -2   8   8  143.89   11.40
   1  -8  -8   -4.70    6.70
  -1   8   8   22.50    4.90
   0  -8  -8   20.50    8.70
   0   8   8   23.10    5.30
  -1  -8  -8   32.10    7.40
   1   8   8   40.70    6.70
  -2  -8  -8   95.19   12.40
   2   8   8   91.79    7.80
  -3  -8  -8   13.20    6.50
   3   8   8    1.90    2.90
  -4  -8  -8   69.39   12.40
   4   8   8   56.49    7.40
   5   8   8   71.79    8.50
   3  -9  -8   40.10   18.80
  -3   9   8   25.30    7.00
   2  -9  -8   64.59   18.40
  -2   9   8   82.49    8.90
   1  -9  -8  175.48   27.70
  -1   9   8  194.98   13.00
   0  -9  -8   39.30   12.40
   0   9   8   19.70    5.10
  -1  -9  -8  154.88   19.20
   1   9   8  159.98   11.60
  -2  -9  -8  106.19   17.20
   2   9   8  103.59    9.20
  -3  -9  -8   22.70    7.30
   3   9   8   43.10    7.80
  -4  -9  -8    5.30    8.30
   4   9   8    5.60    3.40
   2 -10  -8   91.39   28.70
  -2  10   8   84.09    9.30
   1 -10  -8  156.98   27.90
  -1  10   8  171.68   13.30
   0 -10  -8    6.40    8.70
   0  10   8   11.30    3.90
  -1 -10  -8   37.90   12.80
   1  10   8   26.50    5.80
  -2 -10  -8   31.20   11.00
   2  10   8   32.30    7.00
  -3 -10  -8   29.10   11.10
   3  10   8   10.80    4.10
  -4 -10  -8  109.19   19.70
   0 -11  -8  129.59   27.40
   0  11   8  135.49   11.50
  -1 -11  -8  185.98   23.60
   1  11   8  168.58   12.90
  -2 -11  -8   10.60    8.30
   2  11   8   -6.20    3.30
   0   6  -9   -2.00    6.10
   0  -6   9    2.00   14.70
  -1   6  -9  176.78   17.10
  -1   6  -9  184.58   11.30
   1  -6   9  150.18   32.70
  -2   6  -9   84.59   15.20
  -2   6  -9  105.89    8.10
   2  -6   9   39.80   19.40
  -3   6  -9   77.59   15.70
  -3   6  -9   87.89    7.40
   3  -6   9   88.09   20.10
   2   5  -9  101.89   10.40
  -2  -5   9  105.89   31.80
   1   5  -9   84.99    8.60
  -1  -5   9   57.29   23.70
   0   5  -9   46.60    8.60
   0  -5   9   63.39   20.80
  -1   5  -9    1.10    4.30
  -1   5  -9   -0.60    2.10
   1  -5   9   14.30   11.40
  -2   5  -9   38.40    8.60
  -2   5  -9   26.80    7.70
   2  -5   9   34.70   16.20
  -3   5  -9   24.70    8.00
   3  -5   9   17.80   11.30
  -4   5  -9    5.50    5.50
  -4   5  -9   14.20    2.80
   4  -5   9   -1.30    8.00
  -5   5  -9  146.19   19.20
   5  -5   9  146.19   26.70
  -2  -4   9  -10.70   10.10
   1   4  -9   19.30    4.90
  -1  -4   9   10.60   11.10
   0   4  -9  393.86   17.70
   0   4  -9  402.16   18.70
   0  -4   9  462.85   44.80
  -1   4  -9   82.49   10.90
  -1   4  -9   71.29    7.80
   1  -4   9   85.79   24.70
  -2   4  -9  376.76   15.10
  -2   4  -9  361.66   22.90
   2  -4   9  347.57   36.60
  -3   4  -9  154.28    8.60
  -3   4  -9  115.79   14.60
   3  -4   9  214.28   26.50
  -4   4  -9   80.79    6.20
  -4   4  -9   55.59   12.30
   4  -4   9   98.29   19.60
   5  -4   9   55.79   15.80
   3   3  -9   77.79    9.00
  -3  -3   9  114.79   28.60
   2   3  -9  103.99    9.60
  -2  -3   9   95.09   25.70
   1   3  -9  132.29    9.80
  -1  -3   9   97.29   23.50
   0   3  -9  190.18   12.40
   0   3  -9  194.68   11.50
   0  -3   9  192.58   29.00
  -1   3  -9  429.46   21.30
  -1   3  -9  419.76   16.70
   1  -3   9  454.85   41.70
  -2   3  -9    1.30    2.80
  -2   3  -9    8.90    2.60
   2  -3   9    6.00    7.80
  -3   3  -9   92.99    6.00
  -3   3  -9   65.59   11.10
   3  -3   9   67.19   16.90
  -4   3  -9   67.79    4.20
  -4   3  -9   41.30    9.80
   4  -3   9   74.39   16.40
  -5   3  -9   77.29   14.00
   5  -3   9   80.19   16.90
  -6   3  -9   23.10    6.30
   6  -3   9   49.99   11.90
   3   2  -9  247.18   15.50
  -3  -2   9  227.58   39.70
   2   2  -9  114.39    9.80
  -2  -2   9  141.79   28.40
   1   2  -9  106.69    8.80
  -1  -2   9  109.59   24.80
   0   2  -9   22.40    9.50
   0   2  -9   25.10    5.10
   0   2  -9   29.00    4.80
   0  -2   9   24.10   11.90
  -1   2  -9  277.97   12.60
  -1   2  -9  252.07   15.10
   1  -2   9  238.88   28.20
  -2   2  -9  150.18    8.40
  -2   2  -9  141.89   12.80
   2  -2   9  136.89   29.00
  -3   2  -9   72.59    9.70
   3  -2   9   93.79   18.40
  -4   2  -9   55.39   11.10
   4  -2   9   48.50   13.10
  -5   2  -9  143.19   15.60
   5  -2   9  199.58   21.10
  -6   2  -9  111.99   15.00
   6  -2   9  100.89   29.70
  -4  -1   9   18.60   11.00
   3   1  -9   66.69    7.70
  -3  -1   9   82.49   19.00
   2   1  -9   99.19    8.70
  -2  -1   9  124.89   24.30
   1   1  -9   69.99    6.80
   0   1  -9  240.98   10.90
   0   1  -9  234.28   12.30
   0   1  -9  221.58   21.90
   0  -1   9  268.27   30.00
   0  -1   9  226.28   14.60
  -1   1  -9   16.30    5.10
  -1   1  -9   16.00    4.30
   1  -1   9    9.10    7.20
  -2   1  -9  235.58   10.40
  -2   1  -9  250.57   16.30
   2  -1   9  195.58   21.60
  -3   1  -9  109.79   11.40
  -3   1  -9  120.89    6.50
   3  -1   9  139.89   17.50
   3  -1   9  101.79    6.30
  -4   1  -9   77.89   10.10
   4  -1   9   66.29   14.40
  -5   1  -9   49.20    9.50
   5  -1   9   72.89   14.70
  -6   1  -9  163.68   17.60
   6  -1   9  198.78   21.30
   4   0  -9   21.40    5.70
  -4   0   9   28.50   12.00
   3   0  -9   85.09    8.70
  -3   0   9  127.29   24.60
   2   0  -9   82.79    8.00
  -2   0   9   79.69   20.10
   1   0  -9   10.40    3.20
  -1   0   9    8.70    7.40
   0   0  -9   10.70    2.60
   0   0  -9    6.60    2.60
   0   0   9   10.40    3.50
  -1   0  -9  253.07   11.70
  -1   0  -9  259.47   12.80
   1   0   9  226.98   27.60
  -2   0  -9  121.89   10.30
  -2   0  -9  158.08    8.20
   2   0   9  138.89   18.10
  -3   0  -9   79.29    9.10
  -3   0  -9   71.09    4.90
   3   0   9   72.89    5.20
   3   0   9   64.79   13.90
  -4   0  -9  425.36   22.80
   4   0   9  378.66   27.00
  -5   0  -9  251.17   18.70
   5   0   9  241.68   22.60
  -6   0  -9  172.78   16.20
   6   0   9  163.88   19.00
  -7   0  -9   19.90    7.50
   7   0   9   12.00    9.20
  -4   1   9  139.79   18.90
   3  -1  -9   36.70    6.00
  -3   1   9   40.10   13.90
   2  -1  -9   34.00    6.70
  -2   1   9   55.99   12.70
   1  -1  -9   12.80    3.70
   1  -1  -9    8.50    3.00
  -1   1   9   25.70   11.30
  -1   1   9   20.50    4.10
   0  -1  -9  132.89    8.90
   0  -1  -9  122.49    7.60
   0   1   9  134.59   19.20
   0   1   9  127.29   10.60
  -1  -1  -9  571.04   18.50
  -1  -1  -9  593.04   20.20
   1   1   9  586.54   37.20
  -2  -1  -9   80.89    7.80
  -2  -1  -9   84.39    5.90
   2   1   9   91.59   13.00
  -3  -1  -9   38.90    7.70
  -3  -1  -9   42.10    3.80
   3   1   9   49.20    4.00
   3   1   9   59.49   12.00
   3   1   9   43.90    4.20
  -4  -1  -9  115.59   14.90
   4   1   9  162.18   15.90
  -5  -1  -9  128.19   13.10
   5   1   9  123.69   25.50
  -6  -1  -9   78.89   10.70
   6   1   9   88.39   13.30
  -7  -1  -9   36.90   10.70
  -7  -1  -9   42.80    9.90
   7   1   9   64.39   19.30
   4  -2  -9   12.20    4.80
  -4   2   9    9.40    7.50
   3  -2  -9  119.49   10.30
  -3   2   9  142.99   16.90
   2  -2  -9  174.68   11.70
  -2   2   9  203.68   21.50
   1  -2  -9   46.70    5.80
   1  -2  -9   44.00    6.60
  -1   2   9   70.09   15.40
  -1   2   9   52.19    6.00
   0  -2  -9   80.09    7.10
   0  -2  -9   88.49    6.70
   0   2   9   88.69    8.30
   0   2   9  132.19   16.10
  -1  -2  -9  537.65   18.50
  -1  -2  -9  530.85   17.70
   1   2   9  462.95   30.30
  -2  -2  -9  189.18    9.60
  -2  -2  -9  187.88   11.80
   2   2   9  217.28   17.80
  -3  -2  -9   67.09    7.60
  -3  -2  -9   59.29    4.70
   3   2   9   76.69   10.30
   3   2   9   68.69    5.10
   3   2   9   68.99    4.90
  -4  -2  -9   17.80    4.90
   4   2   9   26.20    3.20
   4   2   9   27.40    2.80
   4   2   9   38.00   11.00
  -5  -2  -9   57.49   10.20
   5   2   9   52.39   10.60
  -6  -2  -9   95.29   11.60
   6   2   9  113.39   14.60
  -7  -2  -9   65.89   14.20
  -7  -2  -9   77.99   10.30
   7   2   9   83.59   16.10
   4  -3  -9   13.20    4.40
  -4   3   9   14.90    6.50
   3  -3  -9   54.59    8.90
  -3   3   9   63.19   13.70
   2  -3  -9   47.20    7.70
   2  -3  -9   52.29    9.10
  -2   3   9   58.89    5.50
  -2   3   9   48.00   11.90
   1  -3  -9   74.09    7.30
   1  -3  -9   69.49    7.80
  -1   3   9   70.09    7.20
  -1   3   9   79.39   17.00
   0  -3  -9  415.66   16.90
   0  -3  -9  381.86   16.50
   0  -3  -9  371.86   20.30
   0   3   9  430.36   30.50
  -1  -3  -9  212.18   13.60
  -1  -3  -9  194.78   11.10
  -1  -3  -9  208.68   11.10
   1   3   9  207.58   17.30
  -2  -3  -9  175.38   16.20
  -2  -3  -9  154.18    9.20
  -2  -3  -9  176.08   11.60
   2   3   9  162.78    9.10
   2   3   9  178.48   13.90
  -3  -3  -9   71.39    7.40
   3   3   9   74.19    5.60
   3   3   9   83.19    9.20
  -4  -3  -9   10.60    3.30
   4   3   9    7.90    2.50
   4   3   9   24.30    6.10
  -5  -3  -9  103.09   10.80
   5   3   9   89.89   11.80
  -6  -3  -9  114.79   12.10
  -6  -3  -9   92.59   16.10
   6   3   9  145.79   15.90
  -7  -3  -9   24.20    6.70
  -7  -3  -9   25.60   11.10
   7   3   9   19.10    8.70
  -4   4   9   15.20    7.60
   3  -4  -9   75.79    7.80
   3  -4  -9   71.79   12.60
  -3   4   9   64.29   12.40
   2  -4  -9  238.18   18.30
   2  -4  -9  207.68   13.40
  -2   4   9  232.68   20.30
   1  -4  -9  904.41   33.40
   1  -4  -9  928.31   34.40
  -1   4   9 1058.89   55.69
   0  -4  -9  653.93   22.90
   0  -4  -9  646.74   27.70
   0  -4  -9  642.44   24.60
   0   4   9  657.03   22.50
   0   4   9  630.94   32.30
  -1  -4  -9  244.98   13.10
  -1  -4  -9  251.17   13.00
  -1  -4  -9  274.37   14.20
   1   4   9  259.77   13.00
   1   4   9  292.47   17.10
  -2  -4  -9   52.89    8.50
  -2  -4  -9   55.89    6.40
  -2  -4  -9   58.39    5.70
   2   4   9   68.39    7.00
   2   4   9   52.49    5.30
  -3  -4  -9    1.20    1.40
  -3  -4  -9   -8.50    6.60
   3   4   9    1.90    1.40
  -4  -4  -9   95.69    9.60
   4   4   9  117.99   10.90
   4   4   9   95.89    7.80
   4   4   9  114.29    6.40
  -5  -4  -9   64.59    8.20
  -5  -4  -9   43.40   10.10
   5   4   9   76.19   10.00
   5   4   9   53.19    4.50
  -6  -4  -9   44.80   11.80
  -6  -4  -9   52.59    9.20
   6   4   9   49.10   10.70
   4  -5  -9   28.20    7.00
  -4   5   9   39.90    9.40
  -4   5   9   20.10    4.60
   3  -5  -9   25.00    6.80
   3  -5  -9   11.20    9.70
  -3   5   9   24.60    8.60
  -3   5   9   21.10    5.50
   2  -5  -9  124.39   15.50
   2  -5  -9  135.49   10.90
  -2   5   9  113.59   10.00
  -2   5   9  109.69   13.30
   1  -5  -9    5.90    2.70
   1  -5  -9   14.70    4.70
   1  -5  -9    1.70    4.80
  -1   5   9   15.70    4.10
  -1   5   9    9.00    3.40
  -1   5   9   27.70    6.60
   0  -5  -9  150.18   14.40
   0  -5  -9  154.38   10.00
   0  -5  -9  164.18   11.00
   0   5   9  175.58   11.10
   0   5   9  144.59   13.40
  -1  -5  -9   61.29    7.40
  -1  -5  -9   61.39    6.30
   1   5   9   55.49    6.00
  -2  -5  -9   15.00    4.50
   2   5   9   23.00    6.30
  -3  -5  -9  215.48   20.20
  -3  -5  -9  203.28   18.10
  -3  -5  -9  230.18   13.60
   3   5   9  235.68   12.50
   3   5   9  219.58   10.60
  -4  -5  -9  529.45   23.70
  -4  -5  -9  490.55   34.10
  -4  -5  -9  526.45   23.60
   4   5   9  563.04   23.40
   4   5   9  550.04   17.10
  -5  -5  -9  227.18   16.80
  -5  -5  -9  204.58   14.60
   5   5   9  223.88   16.10
   5   5   9  209.78    9.50
  -6  -5  -9   58.69   12.50
  -6  -5  -9   54.79   11.10
   4  -6  -9   56.49    9.50
   4  -6  -9   60.09   27.20
  -4   6   9   50.59   10.30
  -4   6   9   60.69    7.40
  -4   6   9   52.29   10.70
   3  -6  -9   21.60   14.10
   3  -6  -9   58.19    9.10
  -3   6   9   61.69   11.10
  -3   6   9   78.99    9.10
   2  -6  -9   56.49   13.10
   2  -6  -9   66.39   10.00
  -2   6   9   67.49    7.90
   1  -6  -9   12.30    4.20
   1  -6  -9   24.90    8.00
  -1   6   9   25.60    4.90
  -1   6   9   42.80    5.80
   0  -6  -9   13.00    4.80
   0  -6  -9    6.10    4.60
   0   6   9   23.90    5.10
  -1  -6  -9   89.99   10.60
   1   6   9  102.79    8.30
  -2  -6  -9   38.20    8.00
   2   6   9   44.50    5.40
  -3  -6  -9  234.78   15.60
   3   6   9  232.08   11.80
  -4  -6  -9  120.39    9.00
  -4  -6  -9   98.19   10.40
   4   6   9   88.49    9.20
  -5  -6  -9  158.98   13.60
  -5  -6  -9  142.69   13.40
   5   6   9  175.58    9.40
  -6  -6  -9   77.49   14.60
  -6  -6  -9   84.39   10.70
   3  -7  -9  166.78   29.60
   3  -7  -9  182.88   22.40
  -3   7   9  185.48   14.20
   2  -7  -9   53.69   13.50
   2  -7  -9   40.40    7.40
  -2   7   9   42.40    7.40
   1  -7  -9   28.60    9.00
   1  -7  -9   30.20    6.50
  -1   7   9   37.50    6.70
   0  -7  -9    4.40    5.90
   0   7   9    6.80    3.00
  -1  -7  -9   47.70   10.70
   1   7   9   43.20    6.60
  -2  -7  -9   20.80    5.50
   2   7   9   15.70    3.50
  -3  -7  -9  214.28   16.40
   3   7   9  215.08   12.00
  -4  -7  -9  134.89   12.60
   4   7   9  133.29    9.70
  -5  -7  -9   97.39   11.10
   5   7   9   98.49    7.80
   3  -8  -9   13.70   16.50
  -3   8   9   37.80    7.20
   2  -8  -9   82.19   18.10
  -2   8   9   98.39    9.60
   1  -8  -9   19.50    9.90
  -1   8   9   12.90    3.70
   0  -8  -9  123.99   16.80
   0   8   9  155.08   11.20
  -1  -8  -9   63.49   13.00
   1   8   9   54.19    7.80
  -2  -8  -9   85.69   14.00
   2   8   9  117.89    9.50
  -3  -8  -9   80.09   13.20
   3   8   9   73.19    7.30
  -4  -8  -9   43.30    8.70
   4   8   9   38.40    6.50
  -5  -8  -9   22.10    6.70
   5   8   9   15.00    4.20
   2  -9  -9  172.08   30.50
  -2   9   9  157.18   12.00
   1  -9  -9   65.29   15.20
  -1   9   9   87.09    9.00
   0  -9  -9   66.69   17.10
   0   9   9   67.79    7.80
  -1  -9  -9   83.59   16.20
   1   9   9   50.39    7.40
  -2  -9  -9  200.58   20.80
   2   9   9  210.98   12.60
  -3  -9  -9   -4.40    4.10
   3   9   9    8.40    3.40
  -4  -9  -9   46.50   10.70
   4   9   9   35.40    7.50
  -1  10   9   75.59   10.90
   0 -10  -9   47.10   15.10
   0  10   9   69.19    7.50
  -1 -10  -9   46.00   22.10
  -2 -10  -9   54.99   12.80
   2  10   9   78.19    7.90
  -3 -10  -9  235.18   23.80
   3  10   9  222.08   14.20
   0   5 -10   54.99   14.50
   0   5 -10   73.09    7.60
   0  -5  10   54.29   18.30
  -1   5 -10   88.99   13.50
  -1   5 -10   91.19    8.60
   1  -5  10   98.79   22.50
  -2   5 -10  133.19    9.60
  -2   5 -10  108.89   16.60
   2  -5  10   99.29   23.50
  -3   5 -10   19.50    7.70
  -3   5 -10   33.00    6.80
   3  -5  10   44.60   15.10
  -1  -4  10   66.59   23.90
   0   4 -10   29.90    6.30
   0  -4  10   45.70   17.40
  -1   4 -10  323.47   20.10
  -1   4 -10  319.97   15.40
   1  -4  10  336.07   38.00
  -2   4 -10   20.80    6.60
  -2   4 -10   14.00    3.50
   2  -4  10   23.30   11.20
  -3   4 -10    2.20    4.80
  -3   4 -10    6.50    2.50
   3  -4  10   13.40   10.10
  -4   4 -10   42.20   10.40
  -4   4 -10   53.99    5.30
   4  -4  10   54.19   13.70
   2   3 -10  405.16   20.30
  -2  -3  10  429.96   48.20
   1   3 -10   60.99    6.50
  -1  -3  10   25.50   18.10
   0   3 -10  152.48   10.60
   0   3 -10  152.58   10.30
   0  -3  10  217.78   28.10
  -1   3 -10   27.70    5.00
  -1   3 -10   19.70    6.00
   1  -3  10   40.60   14.20
  -2   3 -10  103.39   12.20
  -2   3 -10  115.79    8.30
   2  -3  10  170.78   23.60
  -3   3 -10   11.20    5.80
  -3   3 -10   18.20    3.10
   3  -3  10   30.20   11.70
  -4   3 -10  106.09    6.00
  -4   3 -10   84.49   14.40
   4  -3  10  122.89   23.00
  -5   3 -10   96.89   19.10
   5  -3  10   98.19   21.40
   3   2 -10  108.59   10.80
  -3  -2  10   97.09   27.00
   2   2 -10   84.39    9.00
  -2  -2  10   88.39   23.90
   1   2 -10   43.20    7.20
  -1  -2  10   21.70   15.10
   0   2 -10  203.08   12.20
   0   2 -10  226.98   11.10
   0   2 -10  165.18   27.60
   0  -2  10  231.88   31.70
  -1   2 -10    1.90    2.40
  -1   2 -10    5.50    3.10
   1  -2  10   16.90   12.10
  -2   2 -10  369.86   14.70
  -2   2 -10  346.97   20.20
   2  -2  10  331.57   32.40
  -3   2 -10  368.96   13.40
  -3   2 -10  364.36   22.40
   3  -2  10  385.66   34.30
  -4   2 -10   52.49   11.50
  -4   2 -10   56.89    3.80
   4  -2  10   63.69   16.00
  -5   2 -10  194.48   18.40
   5  -2  10  142.99   21.20
  -6   2 -10   46.80   10.70
   6  -2  10   28.00   10.50
   3   1 -10   68.79    8.30
  -3  -1  10   56.99   31.80
   2   1 -10   11.30    4.00
  -2  -1  10    2.70   11.40
   1   1 -10  138.49   10.10
  -1  -1  10  191.58   35.80
   0   1 -10  184.98    9.80
   0   1 -10  167.08   20.60
   0   1 -10  188.98   11.30
   0  -1  10  197.48   13.20
   0  -1  10  247.88   30.80
  -1   1 -10  177.18   11.70
  -1   1 -10  180.68   10.50
   1  -1  10  185.38   32.70
  -2   1 -10   56.69    5.80
  -2   1 -10   53.79    7.50
   2  -1  10   64.29   18.90
  -3   1 -10  139.59    7.50
  -3   1 -10  146.49   19.20
   3  -1  10  158.48   19.60
  -4   1 -10   32.60    8.50
  -4   1 -10   34.40    3.30
   4  -1  10   26.90    8.50
  -5   1 -10  165.58   16.90
   5  -1  10  185.58   21.00
  -6   1 -10   18.80    6.10
   3   0 -10   32.80    8.40
  -3   0  10   58.89   18.70
   2   0 -10   78.09    7.90
  -2   0  10   57.49   18.50
   1   0 -10   40.20    6.60
  -1   0  10   45.30   15.70
   0   0 -10   43.90    6.80
   0   0 -10   57.39    5.30
   0   0  10   22.10   12.30
   0   0  10   75.69    8.10
  -1   0 -10    6.00    2.90
  -1   0 -10    1.60    1.80
   1   0  10   -2.30    5.40
  -2   0 -10   11.20    4.20
  -2   0 -10   16.90    3.50
   2   0  10   12.00    8.00
  -3   0 -10   69.79    5.30
  -3   0 -10   73.79    8.70
   3   0  10   58.79   13.50
  -4   0 -10  198.98   16.20
  -4   0 -10  194.88    7.50
   4   0  10  182.88   20.30
   4   0  10  179.08    7.10
   4   0  10  174.18    7.40
  -5   0 -10  111.49   12.50
   5   0  10   91.49   17.90
  -6   0 -10   99.69   13.10
   6   0  10   81.19   17.60
   3  -1 -10   67.49    8.20
  -3   1  10   49.20   16.70
   2  -1 -10   43.50    7.50
  -2   1  10   68.49   15.70
   1  -1 -10    5.10    2.70
  -1   1  10    2.90    7.50
   0  -1 -10   15.40    3.60
   0  -1 -10   21.40    4.20
   0   1  10   24.70   10.10
  -1  -1 -10   48.40    5.70
  -1  -1 -10   54.09    5.40
   1   1  10   52.19   13.40
  -2  -1 -10   75.69    7.70
  -2  -1 -10   73.79    6.20
   2   1  10   70.29   14.20
  -3  -1 -10   93.99    9.50
  -3  -1 -10   83.79    6.30
   3   1  10   99.39    6.70
   3   1  10  121.69   14.20
  -4  -1 -10   67.19    9.40
   4   1  10   65.39   13.60
   4   1  10   62.99    3.70
  -5  -1 -10   16.50    5.30
   5   1  10   23.20    9.10
  -6  -1 -10   86.39   21.40
   6   1  10  104.09   15.30
   4  -2 -10   15.00    4.50
  -4   2  10   38.90   13.00
   3  -2 -10  113.89   10.10
  -3   2  10   99.19   21.30
   2  -2 -10  112.79   10.20
   1  -2 -10   26.60    5.40
   1  -2 -10   29.60    5.70
  -1   2  10   36.40   13.60
   0  -2 -10  135.89    9.70
   0  -2 -10  121.99    8.40
   0   2  10  159.88   20.50
  -1  -2 -10  224.38   11.80
  -1  -2 -10  229.78   11.90
   1   2  10  262.27   23.50
  -2  -2 -10   56.89    6.40
  -2  -2 -10   63.99    5.80
  -3  -2 -10   87.89    6.40
  -3  -2 -10   85.49    8.90
   3   2  10   83.79    5.70
   3   2  10   97.69   13.00
  -4  -2 -10   68.19    8.40
   4   2  10   70.49    4.90
   4   2  10   79.89   11.00
   5   2  10   25.20    9.50
   6   2  10  125.89   16.40
   4  -3 -10   40.90    7.30
  -4   3  10   10.60    8.30
   3  -3 -10   21.70    5.60
  -3   3  10   16.10    9.50
   2  -3 -10  242.78   16.30
   2  -3 -10  267.87   15.10
  -2   3  10  217.88   26.20
   1  -3 -10  221.38   14.90
   1  -3 -10  222.08   13.40
  -1   3  10  235.58   25.50
   0  -3 -10  338.47   16.30
   0  -3 -10  341.17   16.40
   0   3  10  385.26   28.90
  -1  -3 -10    3.50    1.90
  -1  -3 -10    9.00    2.80
   1   3  10   18.40    4.40
  -2  -3 -10  280.47   13.00
  -2  -3 -10  274.67   14.70
   2   3  10  292.37   13.10
   2   3  10  298.47   19.90
  -3  -3 -10    1.40    2.40
  -3  -3 -10    8.90    2.50
   3   3  10   16.90    5.30
   3   3  10    6.50    2.00
  -4  -3 -10    6.90    2.90
   4   3  10    9.40    2.90
   4   3  10   34.90    9.70
   4   3  10   11.00    2.30
  -5  -3 -10   30.00    6.70
   5   3  10   15.70    7.90
  -6  -3 -10  163.38   19.90
  -6  -3 -10  174.98   18.70
   6   3  10  173.88   19.10
   3  -4 -10   58.39    9.30
  -3   4  10   79.49   15.30
   2  -4 -10  180.88   12.80
  -2   4  10  166.88   21.60
   1  -4 -10  528.65   22.10
   1  -4 -10  566.04   26.90
  -1   4  10  566.34   37.10
   0  -4 -10    0.60    2.80
   0  -4 -10    9.30    5.30
   0   4  10    6.20    6.40
  -1  -4 -10   81.99    7.70
  -1  -4 -10  104.39    9.40
  -1  -4 -10   78.69    8.30
   1   4  10  127.99   12.90
   1   4  10   97.99    8.30
  -2  -4 -10  128.39   11.30
  -2  -4 -10  110.79    9.70
  -2  -4 -10  134.29    8.90
   2   4  10  134.99   12.10
   2   4  10  124.19    8.60
  -3  -4 -10   19.30    5.00
   3   4  10   17.50    3.70
  -4  -4 -10  105.99   10.30
   4   4  10   91.89    6.60
   4   4  10  111.59   11.10
  -5  -4 -10  200.28   15.00
  -5  -4 -10  164.08   17.60
   5   4  10  189.38    8.30
   5   4  10  199.48   17.40
  -6  -4 -10   78.69   10.00
  -6  -4 -10   93.89   16.60
   6   4  10   82.69   12.60
   3  -5 -10  129.89   20.60
   3  -5 -10  106.79   19.90
  -3   5  10  127.59   21.60
  -3   5  10  108.49   19.50
   2  -5 -10   21.70    7.50
   2  -5 -10   38.00    7.00
  -2   5  10   58.99   11.40
  -2   5  10   34.10    7.20
   1  -5 -10   15.50    7.30
   1  -5 -10   16.50    4.70
  -1   5  10   11.40    4.60
  -1   5  10   39.90   13.10
   0  -5 -10  172.88   11.90
   0  -5 -10  154.68   13.90
   0  -5 -10  157.98   12.30
   0   5  10  193.58   12.50
   0   5  10  205.38   15.90
  -1  -5 -10  130.19   10.10
  -1  -5 -10  130.19    9.50
  -1  -5 -10  128.29   11.60
   1   5  10  131.89    9.50
   1   5  10  141.09   10.30
  -2  -5 -10  100.29   10.30
  -2  -5 -10  105.99    8.30
   2   5  10   89.49    7.70
   2   5  10  126.09    9.00
  -3  -5 -10  329.17   18.00
  -3  -5 -10  299.17   24.90
   3   5  10  340.97   16.20
   3   5  10  327.57   13.60
  -4  -5 -10  423.36   21.70
  -4  -5 -10  412.76   31.70
   4   5  10  411.36   20.40
   4   5  10  410.96   14.90
  -5  -5 -10  140.99   14.50
  -5  -5 -10  114.99   11.30
   5   5  10  126.89    7.80
  -6  -5 -10   39.80   12.20
  -6  -5 -10   63.99   10.40
   6   5  10   60.09   12.40
   3  -6 -10  -16.10   12.30
  -3   6  10    6.10    4.10
  -3   6  10   19.80    8.50
   2  -6 -10   60.29   15.20
   2  -6 -10   87.19    9.40
  -2   6  10   85.49   15.10
  -2   6  10   66.09   10.00
   1  -6 -10  115.89   10.70
   1  -6 -10  122.49   17.90
  -1   6  10  104.99    9.70
  -1   6  10  116.99   14.30
   0  -6 -10   97.89    9.00
   0  -6 -10  118.19   13.20
   0   6  10  105.59    8.90
  -1  -6 -10   14.70    6.40
   1   6  10    8.10    3.10
  -2  -6 -10  213.78   15.80
   2   6  10  266.17   13.30
  -3  -6 -10    3.30    3.20
   3   6  10   -2.80    1.90
  -4  -6 -10   99.59   10.50
  -4  -6 -10   84.39    9.30
   4   6  10   65.59    7.10
  -5  -6 -10    5.10    3.30
  -5  -6 -10   -1.00    5.30
  -6  -6 -10   48.80    9.50
  -6  -6 -10   85.39   15.60
   3  -7 -10   90.49   10.90
   3  -7 -10   87.69   25.70
  -3   7  10  107.99   10.70
   2  -7 -10   64.29   11.40
   2  -7 -10   49.60   16.80
  -2   7  10   64.59   11.60
  -2   7  10   78.19   15.40
   1  -7 -10   86.69    9.90
   1  -7 -10   61.79   14.70
  -1   7  10   88.79    9.20
   0  -7 -10   -3.60    5.40
   0   7  10    4.50    3.00
  -1  -7 -10    5.90    5.20
   1   7  10    2.40    3.10
  -2  -7 -10  165.08   15.10
   2   7  10  170.08   11.10
  -3  -7 -10   85.69   10.20
   3   7  10   71.29    7.50
  -4  -7 -10   31.90    7.70
   4   7  10   44.30    6.60
  -5  -7 -10  174.88   14.90
   5   7  10  148.69   10.90
   2  -8 -10   63.29   18.10
  -2   8  10   73.99    8.60
   1  -8 -10  122.49   22.00
  -1   8  10  119.99   10.10
   0  -8 -10   22.80    9.60
   0   8  10   37.50    6.50
  -1  -8 -10  169.88   18.30
   1   8  10  171.98   12.20
  -2  -8 -10   27.50    8.40
   2   8  10   19.90    5.10
  -3  -8 -10  120.19   13.80
   3   8  10  128.79   10.40
  -4  -8 -10   50.49   10.40
   4   8  10   55.49    8.60
   1  -9 -10   32.90   15.20
  -1   9  10   63.39    7.60
   0  -9 -10   37.20   12.60
   0   9  10   55.89   10.40
  -1  -9 -10   62.79   14.60
   1   9  10   64.29    9.40
  -2  -9 -10   88.99   16.60
   2   9  10  106.99    9.80
  -3  -9 -10   77.69   14.60
   3   9  10   77.79    8.70
  -4  -9 -10   57.29   11.70
   4   9  10   50.99    8.40
   0 -10 -10   54.69   15.40
   0  10  10   34.70    7.60
  -1 -10 -10  106.69   20.30
   1  10  10  101.29   10.90
  -2 -10 -10   14.40    8.20
   2  10  10   13.60    4.80
   0   4 -11   33.80    6.10
   0  -4  11   -2.00   12.50
  -1   4 -11   43.50    6.70
  -1   4 -11   29.30    8.10
   1  -4  11   50.69   14.80
  -2   4 -11   30.00    9.10
  -2   4 -11   37.80    5.40
   2  -4  11   28.80   12.60
  -3   4 -11   24.70    5.50
   3  -4  11   21.50   11.10
   1   3 -11  170.48   12.30
  -1  -3  11  182.68   36.60
   0   3 -11    3.10    2.80
   0   3 -11    2.90    4.40
  -1   3 -11  140.59   10.10
  -1   3 -11  128.19   12.20
   1  -3  11  155.18   30.80
  -2   3 -11   43.30    9.80
  -2   3 -11   56.79    5.30
   2  -3  11   19.20   12.50
  -3   3 -11   13.70    4.80
  -3   3 -11   15.00    3.10
   3  -3  11   -4.10    8.50
  -4   3 -11    2.00    5.20
   4  -3  11   17.70    9.30
   1   2 -11   74.39    8.20
  -1  -2  11   57.09   20.40
   0   2 -11  100.19    8.10
   0   2 -11  106.79    8.80
   0  -2  11   82.29   24.30
  -1   2 -11   44.90    5.40
  -1   2 -11   38.20    7.40
   1  -2  11   41.30   15.80
  -2   2 -11  211.38   16.00
  -2   2 -11  237.48   12.20
   2  -2  11  219.78   28.70
  -3   2 -11  117.69    7.80
  -3   2 -11  142.59   13.70
   3  -2  11  124.49   23.90
  -4   2 -11  157.58   16.40
   4  -2  11  188.18   23.60
  -5   2 -11   13.30    6.50
   5  -2  11   23.30   10.70
   2   1 -11   26.40    6.40
   1   1 -11   45.60    5.50
  -1  -1  11    8.90   14.60
   0   1 -11   43.30    7.00
   0  -1  11   52.99   17.50
  -1   1 -11   19.20    7.50
  -1   1 -11   25.40    4.90
   1  -1  11   23.60   13.20
  -2   1 -11  101.89   11.00
  -2   1 -11  141.59    9.30
   2  -1  11  121.69   23.40
  -3   1 -11  106.19   11.30
  -3   1 -11  105.29    6.90
   3  -1  11   68.29   17.40
  -4   1 -11  101.39    6.10
  -4   1 -11  105.29   12.30
   4  -1  11  143.89   19.80
  -5   1 -11  323.57   32.70
   5  -1  11  261.37   26.50
  -2   0  11   13.30   13.10
   1   0 -11   38.30    7.20
  -1   0  11   32.20   16.90
   0   0 -11   33.30    5.20
   0   0 -11   34.20    6.00
   0   0  11   35.20   15.50
  -1   0 -11  108.29    9.00
   1   0  11  113.89   22.80
  -2   0 -11  149.39   11.90
  -2   0 -11  173.28    9.60
   2   0  11  142.99   20.70
  -3   0 -11   25.90    6.70
  -3   0 -11   40.20    4.50
   3   0  11   46.40   12.60
  -4   0 -11   39.80    8.50
  -4   0 -11   43.20    4.00
   4   0  11   52.99   14.50
   4   0  11   44.40    4.70
  -5   0 -11  284.37   20.70
   5   0  11  273.77   25.40
  -6   0 -11    2.10    5.00
   3  -1 -11  149.59   12.70
  -3   1  11  173.78   37.00
   2  -1 -11  107.09   10.30
  -2   1  11  184.58   25.90
   1  -1 -11   74.69    7.40
  -1   1  11   95.89   23.50
   0  -1 -11   55.79    6.10
   0  -1 -11   63.79    6.60
   0   1  11   81.09   23.40
  -1  -1 -11   85.09    7.50
  -1  -1 -11   83.49    8.60
   1   1  11  103.19   20.60
  -2  -1 -11   28.40    4.70
  -2  -1 -11   19.70    5.00
   2   1  11   43.10   11.30
  -3  -1 -11   26.90    4.40
  -3  -1 -11   34.30    7.20
   3   1  11   20.50    8.80
  -4  -1 -11   22.50    6.90
   4   1  11   24.80    9.10
   4   1  11   20.10    3.40
  -5  -1 -11   80.49   13.00
   5   1  11   85.19   17.60
  -6  -1 -11   41.10    9.30
   6   1  11   42.80   11.40
   3  -2 -11  202.08   15.30
  -3   2  11  198.68   30.50
   2  -2 -11   58.09    9.10
  -2   2  11   58.09   21.40
   1  -2 -11  120.29   10.40
   1  -2 -11  143.29   11.00
  -1   2  11  154.18   34.10
   0  -2 -11   67.29    6.80
   0  -2 -11   68.09    7.10
   0   2  11   61.09   16.00
  -1  -2 -11    6.20    3.10
  -1  -2 -11    5.80    2.90
   1   2  11   14.50    8.90
  -2  -2 -11   48.10    6.50
  -2  -2 -11   53.69    5.60
   2   2  11   46.70   13.40
  -3  -2 -11   56.49    5.90
  -3  -2 -11   60.09    7.80
   3   2  11   63.29   13.20
   3   2  11   60.29    5.90
  -4  -2 -11   37.60    7.70
   4   2  11   39.90    5.00
   4   2  11   49.99   12.10
  -5  -2 -11   91.19   10.10
   5   2  11   75.29   15.10
  -6  -2 -11   55.69    9.40
   6   2  11   53.99   13.10
   3  -3 -11   11.60    4.20
  -3   3  11   21.20   13.20
   2  -3 -11  101.49    9.70
  -2   3  11  102.89   21.40
   1  -3 -11   20.70    5.00
  -1   3  11   25.70   12.60
   0  -3 -11  135.99   10.90
   0  -3 -11  158.78   11.40
   0   3  11  155.98   34.90
  -1  -3 -11  385.06   17.60
  -1  -3 -11  354.16   17.10
   1   3  11  355.26   27.40
  -2  -3 -11  172.38   10.50
  -2  -3 -11  192.58   12.70
   2   3  11  195.98   11.20
   2   3  11  195.48   18.30
  -3  -3 -11  234.08   11.80
  -3  -3 -11  226.58   14.60
   3   3  11  212.68   10.50
   3   3  11  248.48   20.00
  -4  -3 -11   25.10    5.90
   4   3  11   29.40    3.80
   4   3  11   23.70    7.40
  -5  -3 -11   49.20    9.30
   5   3  11   64.89   13.40
  -6  -3 -11   44.50    9.20
   6   3  11   68.39   13.00
   3  -4 -11   -2.00    4.00
  -3   4  11   10.50   10.90
   2  -4 -11  161.98   12.70
  -2   4  11  158.58   23.60
   1  -4 -11  129.09   14.10
   1  -4 -11  136.09   11.40
  -1   4  11  154.38   19.40
   0  -4 -11  293.07   15.80
   0  -4 -11  290.57   17.80
   0   4  11  253.17   23.80
   0   4  11  289.37   15.90
  -1  -4 -11  235.98   13.30
  -1  -4 -11  224.98   14.50
   1   4  11  189.08   12.70
   1   4  11  229.48   18.70
  -2  -4 -11   71.79   13.30
  -2  -4 -11   85.99    7.60
   2   4  11   89.69   10.60
   2   4  11   70.19    6.50
  -3  -4 -11  164.98   12.70
   3   4  11  191.98   14.60
   3   4  11  174.38   10.00
  -4  -4 -11  264.67   16.80
   4   4  11  257.97   11.00
   4   4  11  266.07   18.00
  -5  -4 -11  113.49   11.30
   5   4  11  115.09    7.80
   5   4  11  117.39   14.10
  -6  -4 -11  101.39   11.40
  -6  -4 -11  116.29   18.70
   6   4  11  113.49   14.30
   2  -5 -11   63.79   14.60
   1  -5 -11   12.20    7.60
   1  -5 -11   19.80    4.20
  -1   5  11   20.60    5.60
  -1   5  11   15.90    9.60
   0  -5 -11   44.40    8.30
   0  -5 -11   75.29   11.80
   0   5  11   50.39    8.00
   0   5  11   68.59   11.70
  -1  -5 -11   43.70    7.30
  -1  -5 -11   41.70    7.50
   1   5  11   49.00    7.40
   1   5  11   42.10    7.80
  -2  -5 -11   29.70    6.00
  -2  -5 -11   15.70    8.10
  -2  -5 -11   25.10    6.00
   2   5  11   28.20    6.30
   2   5  11   31.40    5.90
  -3  -5 -11   87.29    9.80
   3   5  11   75.69    7.10
   3   5  11  102.59    9.50
  -4  -5 -11   -1.00    2.90
   4   5  11    6.60    4.00
   4   5  11   -0.80    2.80
  -5  -5 -11  105.29   12.70
  -5  -5 -11  111.89   14.00
   5   5  11   97.29    7.60
   5   5  11   91.69   11.90
   2  -6 -11   54.19   12.20
   2  -6 -11   34.40    7.40
  -2   6  11   39.80    7.90
  -2   6  11   71.79   15.10
   1  -6 -11  194.48   19.90
   1  -6 -11  165.58   13.30
  -1   6  11  242.48   19.30
  -1   6  11  184.88   13.50
   0  -6 -11   43.20    7.60
   0  -6 -11   51.09   14.10
   0   6  11   52.99    8.00
  -1  -6 -11  129.59   10.70
  -1  -6 -11  149.19   14.70
   1   6  11  140.79   10.50
  -2  -6 -11   70.59    9.80
   2   6  11   81.89    7.50
  -3  -6 -11   26.30    6.80
   3   6  11   29.50    5.70
  -4  -6 -11   32.30    6.90
  -4  -6 -11   26.40    7.20
   4   6  11   40.70    6.20
   4   6  11   32.00    6.30
  -5  -6 -11   35.00    7.40
   5   6  11   14.60    5.00
   2  -7 -11   22.00   14.30
   2  -7 -11   28.90    6.70
  -2   7  11   40.60    7.80
   1  -7 -11   16.00    9.80
   1  -7 -11   33.40    9.30
  -1   7  11   19.10    6.40
   0  -7 -11   36.00   10.90
   0  -7 -11   49.80    8.30
   0   7  11   28.30    6.30
  -1  -7 -11   12.70    5.50
   1   7  11   10.40    3.60
  -2  -7 -11   45.90    9.30
   2   7  11   57.99    6.90
  -3  -7 -11    2.10    4.60
   3   7  11    7.70    3.40
  -4  -7 -11  120.29   14.10
   4   7  11  120.09    9.70
   1  -8 -11  150.68   25.50
  -1   8  11  188.48   13.70
   0  -8 -11   86.89   16.30
   0   8  11   59.29    9.80
  -1  -8 -11    8.20    6.20
   1   8  11   11.90    3.50
  -2  -8 -11   10.60    6.10
   2   8  11    7.40    4.10
  -3  -8 -11    9.50    7.00
   3   8  11   26.10    5.70
  -4  -8 -11  132.19   14.90
   4   8  11  110.79   10.50
   0  -9 -11    1.60    9.30
   0   9  11    8.40    4.00
   1   9  11   -3.40    3.10
  -2  -9 -11   50.89   12.30
   2   9  11   34.00    6.80
  -3  -9 -11  318.87   26.00
   3   9  11  357.06   17.90
  -2   3 -12  146.99   14.10
  -2   3 -12  167.98   10.10
   2  -3  12  144.39   26.70
   0   2 -12   49.70    9.60
   0  -2  12   35.20   18.60
  -1   2 -12  148.59   12.10
  -1   2 -12  159.88   11.30
   1  -2  12  171.38   49.90
  -2   2 -12  103.49    8.20
  -2   2 -12   74.39   11.80
   2  -2  12   60.19   18.40
  -3   2 -12   68.79    6.20
  -3   2 -12   57.89   10.90
   3  -2  12   71.99   26.30
  -4   2 -12   85.79   20.80
   1   1 -12   32.60    5.80
  -1  -1  12   41.50   19.60
   0   1 -12   90.69    9.20
   0  -1  12   94.99   24.40
  -1   1 -12  201.08   12.60
  -1   1 -12  188.28   12.50
   1  -1  12  206.38   28.60
  -2   1 -12   -3.30    3.80
  -2   1 -12   13.90    3.20
   2  -1  12    7.90    9.90
  -3   1 -12   62.79    5.90
   3  -1  12   67.79   17.30
  -4   1 -12  143.99   14.60
   4  -1  12   92.89   20.50
   1   0 -12   50.89    8.90
  -1   0  12   44.30   17.50
   0   0 -12   17.70    4.70
   0   0 -12   21.30    4.50
   0   0  12   21.60   14.70
  -1   0 -12   24.60    4.80
  -1   0 -12    9.50    4.10
   1   0  12   22.30   11.60
  -2   0 -12   18.00    5.10
  -2   0 -12    4.60    3.90
   2   0  12   14.60   11.30
  -3   0 -12   81.59    6.80
  -3   0 -12   74.29    9.80
   3   0  12   82.09   17.10
  -4   0 -12   65.19   11.40
  -4   0 -12   65.49    5.80
   4   0  12   53.69    6.90
   4   0  12   56.49   12.00
  -5   0 -12   49.60   10.30
   5   0  12   56.39   14.30
  -2   1  12   96.59   24.60
  -1   1  12   27.00   11.50
   0  -1 -12   55.69    6.80
   0  -1 -12   58.69    6.50
   0   1  12   40.00   14.70
  -1  -1 -12    6.50    2.80
  -1  -1 -12    0.20    2.80
   1   1  12    2.80   10.60
  -2  -1 -12   14.70    6.10
  -2  -1 -12   25.70    5.30
   2   1  12   24.50   12.00
  -3  -1 -12   59.99    8.30
  -3  -1 -12   70.59    6.00
   3   1  12   73.89   15.60
   3   1  12   60.09    6.70
  -4  -1 -12   23.50    6.60
   4   1  12   16.00    3.90
   4   1  12   27.60   11.10
  -5  -1 -12   73.09   10.10
   5   1  12   79.59   16.60
  -2   2  12   39.80   17.00
   1  -2 -12   70.99    8.10
  -1   2  12   60.29   19.00
   0  -2 -12  202.28   13.10
   0  -2 -12  200.78   12.90
   0   2  12  191.28   31.80
  -1  -2 -12    1.70    3.00
  -1  -2 -12    5.70    2.70
   1   2  12   -3.20    7.30
  -2  -2 -12  321.07   15.50
  -2  -2 -12  342.07   17.20
   2   2  12  259.47   26.90
  -3  -2 -12   33.30    6.70
  -3  -2 -12   55.09    5.60
   3   2  12   68.19   16.00
   3   2  12   36.10    6.00
  -4  -2 -12   26.40    7.40
   4   2  12   21.80    4.80
   4   2  12   37.90    9.20
  -5  -2 -12   24.00    6.70
   5   2  12   29.80    9.80
   2  -3 -12   17.10    5.30
  -2   3  12   18.80   13.40
   1  -3 -12  193.78   16.40
   1  -3 -12  199.18   13.80
  -1   3  12  193.18   32.70
   0  -3 -12   13.40    5.50
   0  -3 -12   26.30    5.30
   0   3  12   16.40   11.60
  -1  -3 -12    6.50    4.00
  -1  -3 -12   14.70    3.80
   1   3  12  -10.90    7.20
  -2  -3 -12   91.29    9.00
   2   3  12   88.79   16.30
   2   3  12   80.39   14.80
  -3  -3 -12  111.39    8.00
  -3  -3 -12   97.39    9.80
   3   3  12   82.79    7.70
   3   3  12   98.19   16.10
  -4  -3 -12   68.99    8.90
   4   3  12   79.99   14.40
   4   3  12   51.69    6.00
  -5  -3 -12   76.59   11.80
   5   3  12   86.39   12.10
   2  -4 -12   28.50    6.20
  -2   4  12   52.19   18.50
   1  -4 -12  210.48   18.90
   1  -4 -12  215.88   14.60
  -1   4  12  247.88   27.30
   0  -4 -12  424.16   23.00
   0  -4 -12  368.96   19.10
   0   4  12  393.76   19.70
   0   4  12  406.36   32.80
  -1  -4 -12   84.89    8.30
  -1  -4 -12   80.09   11.20
   1   4  12   70.69    8.40
   1   4  12  103.79   14.10
  -2  -4 -12   14.70    4.10
  -2  -4 -12    4.60    4.00
   2   4  12    9.00    3.90
   2   4  12   15.10    5.60
  -3  -4 -12   89.49    9.70
   3   4  12   76.49    7.60
   3   4  12   92.69   11.50
  -4  -4 -12  319.97   19.50
   4   4  12  357.56   18.00
   4   4  12  334.87   21.40
  -5  -4 -12  105.19   11.70
   5   4  12  158.18   21.00
   1  -5 -12   47.50   11.70
   1  -5 -12   39.10   11.00
  -1   5  12   65.79   14.60
  -1   5  12   26.70    9.80
   0  -5 -12  115.99   10.30
   0  -5 -12  115.39   13.90
   0   5  12  103.19   10.30
   0   5  12  126.79   15.60
  -1  -5 -12   29.20    7.20
  -1  -5 -12   38.10    7.50
   1   5  12   22.30    5.70
  -2  -5 -12  222.98   13.70
  -2  -5 -12  217.48   15.70
   2   5  12  226.98   13.10
   2   5  12  232.28   14.70
  -3  -5 -12   94.59    9.40
   3   5  12   73.39   13.10
   3   5  12   91.39   10.60
  -4  -5 -12   36.80    7.70
   4   5  12   51.59    7.20
  -5  -5 -12   47.70    9.20
  -5  -5 -12   44.30   14.30
   1  -6 -12   46.70   15.00
   1  -6 -12   73.19    8.50
  -1   6  12   38.40    8.10
   0  -6 -12   92.99   15.00
   0  -6 -12  103.49    9.90
   0   6  12   96.49    9.70
  -1  -6 -12   98.19   12.90
  -1  -6 -12   84.89    9.30
   1   6  12   76.99    8.40
  -2  -6 -12  127.39   13.00
   2   6  12  115.99   10.20
  -3  -6 -12  136.79   13.60
   3   6  12  152.48   10.60
  -4  -6 -12   49.20    9.40
   4   6  12   55.29   11.60
   1  -7 -12  130.69   13.20
   1  -7 -12  114.89   21.00
  -1   7  12  141.39   12.20
   0  -7 -12   12.70    4.30
   0  -7 -12  -13.60    7.30
   0   7  12   -5.70    4.90
  -1  -7 -12   49.40    9.70
   1   7  12   59.39    9.10
  -2  -7 -12   63.59   12.10
   2   7  12   78.79    8.70
  -3  -7 -12   44.30   12.90
   3   7  12   58.39    8.80
  -4  -7 -12   -3.00    3.00
   4   7  12    2.20    4.10
   0  -8 -12   -0.60    8.70
   0   8  12    5.90    3.90
  -1  -8 -12   16.20    8.40
   1   8  12   43.10    8.10
  -2  -8 -12   88.79   15.40
   2   8  12   81.19   10.60
  -2   1 -13  132.09    9.20
  -2   1 -13  106.99   11.40
  -1   0 -13   44.60    8.00
  -1   0 -13   54.69    8.10
   1   0  13   42.70   16.50
  -2   0 -13   19.80    5.50
  -2   0 -13   31.10    4.70
   2   0  13    6.60    8.50
  -3   0 -13   66.09   10.80
   3   0  13   87.09   18.20
   0  -1 -13   32.00    9.80
   0   1  13   46.60   20.10
  -1  -1 -13   64.09    7.60
  -1  -1 -13   49.10    8.30
   1   1  13   66.19   20.10
  -2  -1 -13   79.29    9.10
  -2  -1 -13   76.89    7.70
   2   1  13   71.09   17.50
  -3  -1 -13   61.49    7.30
  -3  -1 -13   74.49    9.60
   3   1  13   72.99   15.10
   3   1  13   54.69    7.80
   4   1  13   25.50    9.10
   0  -2 -13   75.99    9.40
   0   2  13   50.79   18.10
  -1  -2 -13   29.60    5.20
  -1  -2 -13   10.70    4.30
   1   2  13   17.70   10.20
  -2  -2 -13  152.18   10.60
  -2  -2 -13  129.09   11.40
   2   2  13  125.09   18.30
  -3  -2 -13  103.89    9.20
  -3  -2 -13  101.79   10.50
   3   2  13  108.19    9.70
   3   2  13  123.39   17.00
   4   2  13   62.49   13.40
   0  -3 -13   35.80    6.40
   0  -3 -13   35.30    8.00
   0   3  13   23.90   14.50
  -1  -3 -13   94.29    8.10
  -1  -3 -13   61.69    9.70
   1   3  13   75.69   22.70
  -2  -3 -13   68.69    7.20
  -2  -3 -13   48.40    7.80
   2   3  13   49.99   12.60
   2   3  13   47.40    8.40
  -3  -3 -13   56.39    6.50
   3   3  13   43.90    8.00
  -4  -3 -13  135.19   16.60
   4   3  13  134.39   16.50
   4   3  13  108.69    8.90
   0  -4 -13   55.39   10.40
   0  -4 -13   73.59   16.00
   0   4  13   46.40   13.00
  -1  -4 -13   81.19    8.80
  -1  -4 -13   56.09   10.80
   1   4  13   87.99   17.00
   1   4  13   73.19   10.30
  -2  -4 -13   25.00    4.90
  -2  -4 -13   12.00    5.10
   2   4  13   27.30    7.70
   2   4  13   17.60    4.90
  -3  -4 -13   48.10    8.20
   3   4  13   53.79    7.80
  -4  -4 -13    3.10    3.50
   4   4  13   -0.50    4.40
   0  -5 -13   14.00    9.40
   0  -5 -13   26.80    6.90
   0   5  13   28.90    6.80
  -1  -5 -13   53.19    8.70
  -1  -5 -13   48.70   10.40
   1   5  13   43.60   15.50
   1   5  13   55.39    8.10
  -2  -5 -13  222.68   14.50
  -2  -5 -13  194.38   16.00
   2   5  13  197.68   13.00
  -3  -5 -13  125.09   12.20
   3   5  13   86.49    8.70
  -1  -6 -13   68.19   10.20
  -1  -6 -13   56.69   11.20
   1   6  13   61.49    7.40
  -2  -6 -13  122.19   14.30
   2   6  13  132.99   11.20
  -3  -6 -13   -1.80    4.10
   3   6  13   -5.40    3.60
   0   0   0    0.00    0.00

_computing_structure_solution     'SHELXT 2014/5 (Sheldrick, 2014)'
;
_shelx_hkl_checksum              97333
loop_
_space_group_symop_operation_xyz
'x, y, z'
loop_
_atom_site_label
_atom_site_type_symbol
_atom_site_fract_x
_atom_site_fract_y
_atom_site_fract_z
_atom_site_U_iso_or_equiv
_atom_site_adp_type
_atom_site_occupancy
_atom_site_site_symmetry_order
_atom_site_calc_flag
_atom_site_refinement_flags_posn
_atom_site_refinement_flags_adp
P1 P 0.16769(10) 0.51336(8) 0.38967(7) 0.01250(16) Uani 1 1 d . .
N1 N 0.5271(4) 0.4059(3) 0.6825(3) 0.0161(5) Uani 1 1 d . .
H1 H 0.5171 0.4872 0.7154 0.019 Uiso 1 1 calc R U
O1 O 0.6568(4) 0.1666(2) 0.7007(2) 0.0224(5) Uani 1 1 d . .
C1 C 0.7784(5) 0.3123(3) 0.8352(3) 0.0151(6) Uani 1 1 d . .
O2 O -0.0804(3) 0.5438(2) 0.4220(2) 0.0189(5) Uani 1 1 d . .
C2 C 0.9434(5) 0.2084(4) 0.8671(3) 0.0198(6) Uani 1 1 d . .
H2 H 0.9654 0.1228 0.8284 0.024 Uiso 1 1 calc R U
C3 C 1.0755(5) 0.2281(4) 0.9540(3) 0.0239(7) Uani 1 1 d . .
H3 H 1.1883 0.1569 0.9746 0.029 Uiso 1 1 calc R U
C4 C 1.0430(6) 0.3522(4) 1.0112(3) 0.0252(7) Uani 1 1 d . .
H4 H 1.1352 0.3668 1.0701 0.030 Uiso 1 1 calc R U
C5 C 0.8774(6) 0.4545(4) 0.9828(3) 0.0266(7) Uani 1 1 d . .
H5 H 0.8544 0.5386 1.0233 0.032 Uiso 1 1 calc R U
C6 C 0.7445(5) 0.4353(4) 0.8956(3) 0.0213(7) Uani 1 1 d . .
H6 H 0.6300 0.5059 0.8768 0.026 Uiso 1 1 calc R U
C7 C 0.6497(5) 0.2866(3) 0.7353(3) 0.0148(6) Uani 1 1 d . .
C8 C 0.4176(5) 0.4048(3) 0.5793(3) 0.0153(6) Uani 1 1 d . .
H8 H 0.4198 0.3141 0.5483 0.018 Uiso 1 1 calc R U
C9 C 0.3082(5) 0.5257(3) 0.5208(3) 0.0144(6) Uani 1 1 d . .
C10 C 0.2983(5) 0.6729(3) 0.5618(3) 0.0139(6) Uani 1 1 d . .
C11 C 0.4985(5) 0.7595(3) 0.5466(3) 0.0167(6) Uani 1 1 d . .
H11 H 0.6423 0.7258 0.5068 0.020 Uiso 1 1 calc R U
C12 C 0.4886(5) 0.8932(3) 0.5891(3) 0.0180(6) Uani 1 1 d . .
H12 H 0.6258 0.9500 0.5793 0.022 Uiso 1 1 calc R U
C13 C 0.2803(5) 0.9451(4) 0.6458(3) 0.0195(6) Uani 1 1 d . .
H13 H 0.2741 1.0374 0.6745 0.023 Uiso 1 1 calc R U
C14 C 0.0809(5) 0.8614(4) 0.6603(3) 0.0213(7) Uani 1 1 d . .
H14 H -0.0625 0.8969 0.6987 0.026 Uiso 1 1 calc R U
C15 C 0.0888(5) 0.7264(3) 0.6191(3) 0.0185(6) Uani 1 1 d . .
H15 H -0.0490 0.6697 0.6300 0.022 Uiso 1 1 calc R U
C16 C 0.3214(5) 0.6496(3) 0.2343(3) 0.0148(6) Uani 1 1 d . .
C17 C 0.5429(5) 0.7082(3) 0.2130(3) 0.0183(6) Uani 1 1 d . .
H17 H 0.6252 0.6764 0.2825 0.022 Uiso 1 1 calc R U
C18 C 0.6430(6) 0.8136(4) 0.0898(3) 0.0237(7) Uani 1 1 d . .
H18 H 0.7935 0.8549 0.0760 0.028 Uiso 1 1 calc R U
C19 C 0.5274(6) 0.8593(4) -0.0128(3) 0.0247(7) Uani 1 1 d . .
H19 H 0.5976 0.9317 -0.0966 0.030 Uiso 1 1 calc R U
C20 C 0.3079(6) 0.7989(4) 0.0071(3) 0.0277(7) Uani 1 1 d . .
H20 H 0.2284 0.8281 -0.0640 0.033 Uiso 1 1 calc R U
C21 C 0.2050(5) 0.6959(4) 0.1309(3) 0.0214(7) Uani 1 1 d . .
H21 H 0.0533 0.6566 0.1451 0.026 Uiso 1 1 calc R U
C22 C 0.2167(5) 0.3290(3) 0.3527(3) 0.0142(6) Uani 1 1 d . .
C23 C 0.0281(5) 0.2270(3) 0.3813(3) 0.0184(6) Uani 1 1 d . .
H23 H -0.1181 0.2513 0.4274 0.022 Uiso 1 1 calc R U
C24 C 0.4304(5) 0.2915(4) 0.2856(3) 0.0192(6) Uani 1 1 d . .
H24 H 0.5593 0.3599 0.2666 0.023 Uiso 1 1 calc R U
C25 C 0.4560(5) 0.1552(4) 0.2463(3) 0.0228(7) Uani 1 1 d . .
H25 H 0.6019 0.1305 0.2001 0.027 Uiso 1 1 calc R U
C26 C 0.2677(6) 0.0545(4) 0.2749(3) 0.0230(7) Uani 1 1 d . .
H26 H 0.2848 -0.0392 0.2482 0.028 Uiso 1 1 calc R U
C27 C 0.0548(6) 0.0908(4) 0.3422(3) 0.0221(7) Uani 1 1 d . .
H27 H -0.0735 0.0217 0.3617 0.027 Uiso 1 1 calc R U
loop_
_atom_site_aniso_label
_atom_site_aniso_U_11
_atom_site_aniso_U_22
_atom_site_aniso_U_33
_atom_site_aniso_U_23
_atom_site_aniso_U_13
_atom_site_aniso_U_12
P1 0.0126(3) 0.0123(4) 0.0140(3) -0.0038(3) -0.0053(3) 0.0022(3)
N1 0.0207(13) 0.0146(13) 0.0148(12) -0.0043(10) -0.0073(10) -0.0002(10)
O1 0.0319(13) 0.0159(11) 0.0243(12) -0.0070(9) -0.0145(10) 0.0055(9)
C1 0.0166(14) 0.0150(14) 0.0127(14) -0.0021(12) -0.0030(12) -0.0006(11)
O2 0.0146(10) 0.0206(11) 0.0237(12) -0.0086(9) -0.0062(9) 0.0048(8)
C2 0.0201(15) 0.0206(16) 0.0195(16) -0.0047(13) -0.0069(13) 0.0039(12)
C3 0.0235(16) 0.0260(18) 0.0221(17) -0.0020(14) -0.0100(14) 0.0048(13)
C4 0.0286(17) 0.0299(18) 0.0191(16) -0.0036(14) -0.0125(14) -0.0030(14)
C5 0.0374(19) 0.0234(18) 0.0243(17) -0.0118(14) -0.0115(15) 0.0020(14)
C6 0.0270(17) 0.0168(15) 0.0217(16) -0.0056(13) -0.0086(14) 0.0067(12)
C7 0.0152(14) 0.0146(14) 0.0129(14) -0.0020(11) -0.0020(11) 0.0007(11)
C8 0.0185(14) 0.0138(14) 0.0134(14) -0.0031(11) -0.0039(12) -0.0013(11)
C9 0.0144(13) 0.0159(15) 0.0137(14) -0.0037(12) -0.0052(12) -0.0001(11)
C10 0.0188(14) 0.0138(14) 0.0094(13) -0.0011(11) -0.0058(12) 0.0017(11)
C11 0.0146(14) 0.0182(15) 0.0180(15) -0.0056(12) -0.0044(12) 0.0041(11)
C12 0.0182(14) 0.0191(16) 0.0174(15) -0.0051(12) -0.0050(13) -0.0005(12)
C13 0.0291(16) 0.0157(15) 0.0158(15) -0.0061(12) -0.0076(13) 0.0040(12)
C14 0.0194(15) 0.0260(17) 0.0205(16) -0.0094(13) -0.0050(13) 0.0068(13)
C15 0.0166(14) 0.0219(16) 0.0191(15) -0.0077(13) -0.0055(12) 0.0023(12)
C16 0.0200(14) 0.0120(14) 0.0128(14) -0.0053(11) -0.0029(12) 0.0024(11)
C17 0.0173(14) 0.0185(15) 0.0177(15) -0.0015(12) -0.0053(12) 0.0033(11)
C18 0.0210(16) 0.0192(16) 0.0258(18) -0.0005(14) -0.0018(14) 0.0034(12)
C19 0.0293(18) 0.0191(16) 0.0191(16) 0.0005(13) 0.0007(14) 0.0044(13)
C20 0.037(2) 0.0269(18) 0.0200(17) -0.0017(14) -0.0148(15) 0.0064(15)
C21 0.0253(16) 0.0213(16) 0.0191(16) -0.0032(13) -0.0109(13) 0.0011(12)
C22 0.0205(15) 0.0109(14) 0.0126(14) -0.0033(11) -0.0066(12) 0.0025(11)
C23 0.0167(14) 0.0210(16) 0.0163(15) -0.0028(12) -0.0039(12) -0.0012(12)
C24 0.0161(14) 0.0169(15) 0.0232(16) -0.0026(13) -0.0053(13) 0.0004(11)
C25 0.0245(17) 0.0201(16) 0.0251(17) -0.0083(14) -0.0061(14) 0.0086(13)
C26 0.0352(18) 0.0143(15) 0.0221(16) -0.0061(12) -0.0110(14) 0.0053(12)
C27 0.0282(16) 0.0190(16) 0.0192(16) -0.0031(13) -0.0076(13) -0.0037(13)
loop_
_atom_type_symbol
_atom_type_description
_atom_type_scat_dispersion_real
_atom_type_scat_dispersion_imag
_atom_type_scat_source
C C 0.0033 0.0016 'International Tables Vol C Tables 4.2.6.8 and 6.1.1.4'
H H 0.0000 0.0000 'International Tables Vol C Tables 4.2.6.8 and 6.1.1.4'
N N 0.0061 0.0033 'International Tables Vol C Tables 4.2.6.8 and 6.1.1.4'
O O 0.0106 0.0060 'International Tables Vol C Tables 4.2.6.8 and 6.1.1.4'
P P 0.1023 0.0942 'International Tables Vol C Tables 4.2.6.8 and 6.1.1.4'
loop_
_geom_angle_atom_site_label_1
_geom_angle_atom_site_label_2
_geom_angle_atom_site_label_3
_geom_angle
O2 P1 C9 113.98(13)
O2 P1 C22 111.77(12)
C9 P1 C22 109.07(13)
O2 P1 C16 111.42(13)
C9 P1 C16 105.99(13)
C22 P1 C16 103.99(13)
C7 N1 C8 122.9(2)
C7 N1 H1 118.5
C8 N1 H1 118.5
C2 C1 C6 118.8(3)
C2 C1 C7 117.5(3)
C6 C1 C7 123.7(3)
C3 C2 C1 120.8(3)
C3 C2 H2 119.6
C1 C2 H2 119.6
C2 C3 C4 119.8(3)
C2 C3 H3 120.1
C4 C3 H3 120.1
C5 C4 C3 120.2(3)
C5 C4 H4 119.9
C3 C4 H4 119.9
C4 C5 C6 120.3(3)
C4 C5 H5 119.8
C6 C5 H5 119.8
C5 C6 C1 120.1(3)
C5 C6 H6 120.0
C1 C6 H6 120.0
O1 C7 N1 121.6(3)
O1 C7 C1 122.0(3)
N1 C7 C1 116.4(2)
C9 C8 N1 123.3(3)
C9 C8 H8 118.4
N1 C8 H8 118.4
C8 C9 C10 122.0(3)
C8 C9 P1 120.3(2)
C10 C9 P1 117.6(2)
C15 C10 C11 118.4(3)
C15 C10 C9 120.6(3)
C11 C10 C9 121.0(3)
C12 C11 C10 120.6(3)
C12 C11 H11 119.7
C10 C11 H11 119.7
C11 C12 C13 120.5(3)
C11 C12 H12 119.7
C13 C12 H12 119.7
C12 C13 C14 119.5(3)
C12 C13 H13 120.3
C14 C13 H13 120.3
C15 C14 C13 120.5(3)
C15 C14 H14 119.7
C13 C14 H14 119.7
C14 C15 C10 120.4(3)
C14 C15 H15 119.8
C10 C15 H15 119.8
C21 C16 C17 119.3(3)
C21 C16 P1 116.0(2)
C17 C16 P1 124.7(2)
C18 C17 C16 119.6(3)
C18 C17 H17 120.2
C16 C17 H17 120.2
C19 C18 C17 121.0(3)
C19 C18 H18 119.5
C17 C18 H18 119.5
C18 C19 C20 119.6(3)
C18 C19 H19 120.2
C20 C19 H19 120.2
C21 C20 C19 119.8(3)
C21 C20 H20 120.1
C19 C20 H20 120.1
C20 C21 C16 120.7(3)
C20 C21 H21 119.7
C16 C21 H21 119.7
C24 C22 C23 119.4(3)
C24 C22 P1 122.3(2)
C23 C22 P1 118.1(2)
C27 C23 C22 119.9(3)
C27 C23 H23 120.0
C22 C23 H23 120.0
C25 C24 C22 120.5(3)
C25 C24 H24 119.7
C22 C24 H24 119.7
C24 C25 C26 119.8(3)
C24 C25 H25 120.1
C26 C25 H25 120.1
C27 C26 C25 120.0(3)
C27 C26 H26 120.0
C25 C26 H26 120.0
C23 C27 C26 120.4(3)
C23 C27 H27 119.8
C26 C27 H27 119.8
loop_
_geom_bond_atom_site_label_1
_geom_bond_atom_site_label_2
_geom_bond_distance
P1 O2 1.491(2)
P1 C9 1.788(3)
P1 C22 1.802(3)
P1 C16 1.808(3)
N1 C7 1.364(4)
N1 C8 1.384(3)
N1 H1 0.8800
O1 C7 1.220(3)
C1 C2 1.392(4)
C1 C6 1.398(4)
C1 C7 1.495(4)
C2 C3 1.379(4)
C2 H2 0.9500
C3 C4 1.385(4)
C3 H3 0.9500
C4 C5 1.378(5)
C4 H4 0.9500
C5 C6 1.383(4)
C5 H5 0.9500
C6 H6 0.9500
C8 C9 1.345(4)
C8 H8 0.9500
C9 C10 1.489(4)
C10 C15 1.399(4)
C10 C11 1.402(4)
C11 C12 1.380(4)
C11 H11 0.9500
C12 C13 1.385(4)
C12 H12 0.9500
C13 C14 1.385(4)
C13 H13 0.9500
C14 C15 1.385(4)
C14 H14 0.9500
C15 H15 0.9500
C16 C21 1.389(4)
C16 C17 1.390(4)
C17 C18 1.388(4)
C17 H17 0.9500
C18 C19 1.377(5)
C18 H18 0.9500
C19 C20 1.387(5)
C19 H19 0.9500
C20 C21 1.386(5)
C20 H20 0.9500
C21 H21 0.9500
C22 C24 1.395(4)
C22 C23 1.399(4)
C23 C27 1.383(4)
C23 H23 0.9500
C24 C25 1.385(4)
C24 H24 0.9500
C25 C26 1.390(5)
C25 H25 0.9500
C26 C27 1.388(5)
C26 H26 0.9500
C27 H27 0.9500
loop_
_geom_hbond_atom_site_label_D
_geom_hbond_atom_site_label_H
_geom_hbond_atom_site_label_A
_geom_hbond_distance_DH
_geom_hbond_distance_HA
_geom_hbond_distance_DA
_geom_hbond_angle_DHA
_geom_hbond_site_symmetry_A
C17 H17 O2 0.95 2.63 3.546(4) 162.7 1_655
loop_
_geom_torsion_atom_site_label_1
_geom_torsion_atom_site_label_2
_geom_torsion_atom_site_label_3
_geom_torsion_atom_site_label_4
_geom_torsion
C6 C1 C2 C3 -1.6(4)
C7 C1 C2 C3 177.3(3)
C1 C2 C3 C4 0.4(5)
C2 C3 C4 C5 0.8(5)
C3 C4 C5 C6 -0.9(5)
C4 C5 C6 C1 -0.3(5)
C2 C1 C6 C5 1.5(4)
C7 C1 C6 C5 -177.3(3)
C8 N1 C7 O1 -5.1(4)
C8 N1 C7 C1 173.6(2)
C2 C1 C7 O1 12.7(4)
C6 C1 C7 O1 -168.4(3)
C2 C1 C7 N1 -166.0(3)
C6 C1 C7 N1 12.9(4)
C7 N1 C8 C9 -175.8(3)
N1 C8 C9 C10 0.7(4)
N1 C8 C9 P1 -179.1(2)
O2 P1 C9 C8 122.6(2)
C22 P1 C9 C8 -3.1(3)
C16 P1 C9 C8 -114.5(2)
O2 P1 C9 C10 -57.2(2)
C22 P1 C9 C10 177.1(2)
C16 P1 C9 C10 65.7(2)
C8 C9 C10 C15 -117.7(3)
P1 C9 C10 C15 62.1(3)
C8 C9 C10 C11 60.8(4)
P1 C9 C10 C11 -119.3(3)
C15 C10 C11 C12 0.8(4)
C9 C10 C11 C12 -177.8(3)
C10 C11 C12 C13 -0.8(4)
C11 C12 C13 C14 0.3(4)
C12 C13 C14 C15 0.3(5)
C13 C14 C15 C10 -0.3(5)
C11 C10 C15 C14 -0.3(4)
C9 C10 C15 C14 178.4(3)
O2 P1 C16 C21 -35.9(3)
C9 P1 C16 C21 -160.4(2)
C22 P1 C16 C21 84.6(2)
O2 P1 C16 C17 144.3(2)
C9 P1 C16 C17 19.8(3)
C22 P1 C16 C17 -95.1(3)
C21 C16 C17 C18 0.9(4)
P1 C16 C17 C18 -179.4(2)
C16 C17 C18 C19 -1.0(5)
C17 C18 C19 C20 -0.2(5)
C18 C19 C20 C21 1.4(5)
C19 C20 C21 C16 -1.5(5)
C17 C16 C21 C20 0.4(4)
P1 C16 C21 C20 -179.4(3)
O2 P1 C22 C24 162.7(2)
C9 P1 C22 C24 -70.3(3)
C16 P1 C22 C24 42.4(3)
O2 P1 C22 C23 -11.1(3)
C9 P1 C22 C23 115.8(2)
C16 P1 C22 C23 -131.4(2)
C24 C22 C23 C27 -0.3(4)
P1 C22 C23 C27 173.7(2)
C23 C22 C24 C25 0.5(4)
P1 C22 C24 C25 -173.3(2)
C22 C24 C25 C26 -0.4(5)
C24 C25 C26 C27 0.1(5)
C22 C23 C27 C26 0.0(4)
C25 C26 C27 C23 0.1(5)
