#------------------------------------------------------------------------------
#$Date: 2019-11-24 14:35:02 +0200 (Sun, 24 Nov 2019) $
#$Revision: 238177 $
#$URL: file:///home/coder/svn-repositories/cod/cif/1/55/48/1554882.cif $
#------------------------------------------------------------------------------
#
# This file is available in the Crystallography Open Database (COD),
# http://www.crystallography.net/
#
# All data on this site have been placed in the public domain by the
# contributors.
#
data_1554882
loop_
_publ_author_name
'Zhang, Zhen'
'Tu, Yong-Qiang'
'Zhang, Xiao-Ming'
'Zhang, Fu-Min'
'Wang, Shao-Hua'
_publ_section_title
;
 Copper-catalyzed highly diastereoselective cross-dehydrogenative coupling
 between 8-hydroxyisochromanes and 1,3-dicarbonyl compounds
;
_journal_issue                   13
_journal_name_full               'Organic Chemistry Frontiers'
_journal_page_first              2275
_journal_paper_doi               10.1039/C9QO00353C
_journal_volume                  6
_journal_year                    2019
_chemical_formula_moiety         'C14 H13 F3 O5'
_chemical_formula_sum            'C14 H13 F3 O5'
_chemical_formula_weight         318.24
_space_group_crystal_system      triclinic
_space_group_IT_number           2
_space_group_name_Hall           '-P 1'
_space_group_name_H-M_alt        'P -1'
_atom_sites_solution_hydrogens   geom
_atom_sites_solution_primary     direct
_atom_sites_solution_secondary   difmap
_audit_creation_date             2018-05-24
_audit_creation_method
;
Olex2 1.2
(compiled 2017.03.28 svn.r3405 for OlexSys, GUI svn.r5337)
;
_audit_update_record
;
2019-02-26 deposited with the CCDC.	2019-05-06 downloaded from the CCDC.
;
_cell_angle_alpha                68.951(11)
_cell_angle_beta                 83.144(9)
_cell_angle_gamma                83.818(8)
_cell_formula_units_Z            2
_cell_length_a                   6.4241(6)
_cell_length_b                   10.1906(11)
_cell_length_c                   11.3167(14)
_cell_measurement_reflns_used    1758
_cell_measurement_temperature    294.9(7)
_cell_measurement_theta_max      69.7930
_cell_measurement_theta_min      7.7920
_cell_volume                     684.79(14)
_computing_cell_refinement
;
CrysAlisPro, Agilent Technologies,
Version 1.171.36.28 (release 01-02-2013 CrysAlis171 .NET)
(compiled Feb  1 2013,16:14:44)
;
_computing_data_collection
;
CrysAlisPro, Agilent Technologies,
Version 1.171.36.28 (release 01-02-2013 CrysAlis171 .NET)
(compiled Feb  1 2013,16:14:44)
;
_computing_data_reduction
;
CrysAlisPro, Agilent Technologies,
Version 1.171.36.28 (release 01-02-2013 CrysAlis171 .NET)
(compiled Feb  1 2013,16:14:44)
;
_computing_molecular_graphics    'Olex2 (Dolomanov et al., 2009)'
_computing_publication_material  'Olex2 (Dolomanov et al., 2009)'
_computing_structure_refinement  'ShelXL (Sheldrick, 2015)'
_computing_structure_solution    'ShelXS (Sheldrick, 2008)'
_diffrn_ambient_temperature      294.9(7)
_diffrn_detector_area_resol_mean 16.0733
_diffrn_measured_fraction_theta_full 0.965
_diffrn_measured_fraction_theta_max 0.965
_diffrn_measurement_details
;
#__ type_ start__ end____ width___ exp.time_
  1 omega   29.00   66.50   1.5000    2.0000
omega____ theta____ kappa____ phi______ frames
    -        0.0000   77.0000   30.0000 25

#__ type_ start__ end____ width___ exp.time_
  2 omega  -26.00   28.00   1.5000    2.0000
omega____ theta____ kappa____ phi______ frames
    -        0.0000   77.0000   30.0000 36

#__ type_ start__ end____ width___ exp.time_
  3 omega  -76.00  -43.00   1.5000    4.0000
omega____ theta____ kappa____ phi______ frames
    -       -8.5000  -57.0000  -90.0000 22

#__ type_ start__ end____ width___ exp.time_
  4 omega  -75.00  -42.00   1.5000    4.0000
omega____ theta____ kappa____ phi______ frames
    -       -8.5000  178.0000  150.0000 22

#__ type_ start__ end____ width___ exp.time_
  5 omega  -38.00   11.50   1.5000    4.0000
omega____ theta____ kappa____ phi______ frames
    -       -8.5000  -57.0000  -90.0000 33

#__ type_ start__ end____ width___ exp.time_
  6 omega  -15.00   37.50   1.5000    4.0000
omega____ theta____ kappa____ phi______ frames
    -       54.0000  -77.0000   90.0000 35

#__ type_ start__ end____ width___ exp.time_
  7 omega   12.00   85.50   1.5000    4.0000
omega____ theta____ kappa____ phi______ frames
    -       54.0000  -77.0000  120.0000 49

#__ type_ start__ end____ width___ exp.time_
  8 omega   42.00  114.00   1.5000    4.0000
omega____ theta____ kappa____ phi______ frames
    -       54.0000   57.0000 -120.0000 48

#__ type_ start__ end____ width___ exp.time_
  9 omega  -15.00   81.00   1.5000    4.0000
omega____ theta____ kappa____ phi______ frames
    -       54.0000  -38.0000  -90.0000 64

#__ type_ start__ end____ width___ exp.time_
 10 omega   85.00  172.00   1.5000    6.0000
omega____ theta____ kappa____ phi______ frames
    -      108.0000   63.0000 -180.0000 58

#__ type_ start__ end____ width___ exp.time_
 11 omega  142.00  169.00   1.5000    6.0000
omega____ theta____ kappa____ phi______ frames
    -      108.0000   90.0000 -178.0000 18

#__ type_ start__ end____ width___ exp.time_
 12 omega   85.00  145.00   1.5000    6.0000
omega____ theta____ kappa____ phi______ frames
    -      108.0000   50.0000  150.0000 40

#__ type_ start__ end____ width___ exp.time_
 13 omega   42.00   87.00   1.5000    6.0000
omega____ theta____ kappa____ phi______ frames
    -      108.0000  -25.0000    0.0000 30

#__ type_ start__ end____ width___ exp.time_
 14 omega  144.00  171.00   1.5000    6.0000
omega____ theta____ kappa____ phi______ frames
    -      108.0000   63.0000   90.0000 18

#__ type_ start__ end____ width___ exp.time_
 15 omega   50.00  140.00   1.5000    6.0000
omega____ theta____ kappa____ phi______ frames
    -      108.0000  -77.0000   60.0000 60

#__ type_ start__ end____ width___ exp.time_
 16 omega   43.00  163.00   1.5000    6.0000
omega____ theta____ kappa____ phi______ frames
    -      108.0000  -12.0000  150.0000 80

#__ type_ start__ end____ width___ exp.time_
 17 omega   47.00  101.00   1.5000    6.0000
omega____ theta____ kappa____ phi______ frames
    -      108.0000  -50.0000   30.0000 36

#__ type_ start__ end____ width___ exp.time_
 18 omega   71.00  129.50   1.5000    6.0000
omega____ theta____ kappa____ phi______ frames
    -      108.0000  -63.0000  150.0000 39

#__ type_ start__ end____ width___ exp.time_
 19 omega  107.00  146.00   1.5000    6.0000
omega____ theta____ kappa____ phi______ frames
    -      108.0000  -91.0000 -120.0000 26

#__ type_ start__ end____ width___ exp.time_
 20 omega   40.00  101.50   1.5000    6.0000
omega____ theta____ kappa____ phi______ frames
    -      108.0000  -50.0000 -120.0000 41

#__ type_ start__ end____ width___ exp.time_
 21 omega   42.00   93.00   1.5000    6.0000
omega____ theta____ kappa____ phi______ frames
    -      108.0000  -38.0000  150.0000 34

#__ type_ start__ end____ width___ exp.time_
 22 omega   54.00   84.00   1.5000    6.0000
omega____ theta____ kappa____ phi______ frames
    -      108.0000  -25.0000   30.0000 20

#__ type_ start__ end____ width___ exp.time_
 23 omega   66.00   93.00   1.5000    6.0000
omega____ theta____ kappa____ phi______ frames
    -      108.0000  -38.0000  -60.0000 18

#__ type_ start__ end____ width___ exp.time_
 24 omega  101.00  126.50   1.5000    6.0000
omega____ theta____ kappa____ phi______ frames
    -      108.0000   90.0000 -178.0000 17

#__ type_ start__ end____ width___ exp.time_
 25 omega   52.00  115.00   1.5000    6.0000
omega____ theta____ kappa____ phi______ frames
    -      108.0000 -111.0000 -180.0000 42

#__ type_ start__ end____ width___ exp.time_
 26 omega   57.00  105.00   1.5000    6.0000
omega____ theta____ kappa____ phi______ frames
    -      108.0000 -111.0000  -30.0000 32

#__ type_ start__ end____ width___ exp.time_
 27 omega   86.00  129.50   1.5000    6.0000
omega____ theta____ kappa____ phi______ frames
    -      108.0000   50.0000    0.0000 29

#__ type_ start__ end____ width___ exp.time_
 28 omega   68.00   93.50   1.5000    6.0000
omega____ theta____ kappa____ phi______ frames
    -      108.0000  -50.0000  120.0000 17

#__ type_ start__ end____ width___ exp.time_
 29 omega   44.00  114.50   1.5000    6.0000
omega____ theta____ kappa____ phi______ frames
    -      108.0000 -111.0000   60.0000 47

#__ type_ start__ end____ width___ exp.time_
 30 omega   69.00   94.50   1.5000    6.0000
omega____ theta____ kappa____ phi______ frames
    -      108.0000  178.0000   30.0000 17

#__ type_ start__ end____ width___ exp.time_
 31 omega   72.00   99.00   1.5000    6.0000
omega____ theta____ kappa____ phi______ frames
    -      108.0000  -91.0000 -120.0000 18
;
_diffrn_measurement_device_type  'SuperNova, Dual, Cu at zero, Eos'
_diffrn_measurement_method       '\w scans'
_diffrn_orient_matrix_UB_11      0.0803328000
_diffrn_orient_matrix_UB_12      -0.1317185000
_diffrn_orient_matrix_UB_13      -0.0330514000
_diffrn_orient_matrix_UB_21      -0.0426705000
_diffrn_orient_matrix_UB_22      0.0805929000
_diffrn_orient_matrix_UB_23      -0.1397672000
_diffrn_orient_matrix_UB_31      0.2243941000
_diffrn_orient_matrix_UB_32      0.0502252000
_diffrn_orient_matrix_UB_33      -0.0284862000
_diffrn_radiation_monochromator  mirror
_diffrn_radiation_type           CuK\a
_diffrn_radiation_wavelength     1.54184
_diffrn_reflns_av_R_equivalents  0.0186
_diffrn_reflns_av_unetI/netI     0.0238
_diffrn_reflns_limit_h_max       7
_diffrn_reflns_limit_h_min       -6
_diffrn_reflns_limit_k_max       11
_diffrn_reflns_limit_k_min       -12
_diffrn_reflns_limit_l_max       13
_diffrn_reflns_limit_l_min       -13
_diffrn_reflns_number            4363
_diffrn_reflns_theta_full        66.60
_diffrn_reflns_theta_max         66.60
_diffrn_reflns_theta_min         4.20
_diffrn_source                   'SuperNova (Cu) X-ray Source'
_exptl_absorpt_coefficient_mu    1.250
_exptl_absorpt_correction_T_max  1.00000
_exptl_absorpt_correction_T_min  0.74944
_exptl_absorpt_correction_type   multi-scan
_exptl_absorpt_process_details
;
CrysAlisPro, Agilent Technologies,
Version 1.171.36.28 (release 01-02-2013 CrysAlis171 .NET)
(compiled Feb  1 2013,16:14:44)
Empirical absorption correction using spherical harmonics,
 implemented in SCALE3 ABSPACK scaling algorithm.
;
_exptl_crystal_colour            'clear light colourless'
_exptl_crystal_colour_lustre     clear
_exptl_crystal_colour_modifier   light
_exptl_crystal_colour_primary    colourless
_exptl_crystal_density_diffrn    1.543
_exptl_crystal_density_method    'not measured'
_exptl_crystal_description       needle
_exptl_crystal_F_000             328
_exptl_crystal_size_max          0.12
_exptl_crystal_size_mid          0.04
_exptl_crystal_size_min          0.02
_refine_diff_density_max         0.183
_refine_diff_density_min         -0.210
_refine_diff_density_rms         0.044
_refine_ls_extinction_method     none
_refine_ls_goodness_of_fit_ref   1.033
_refine_ls_hydrogen_treatment    constr
_refine_ls_matrix_type           full
_refine_ls_number_parameters     201
_refine_ls_number_reflns         2341
_refine_ls_number_restraints     0
_refine_ls_restrained_S_all      1.033
_refine_ls_R_factor_all          0.0494
_refine_ls_R_factor_gt           0.0415
_refine_ls_shift/su_max          0.000
_refine_ls_shift/su_mean         0.000
_refine_ls_structure_factor_coef Fsqd
_refine_ls_weighting_details
'calc w=1/[\s^2^(Fo^2^)+(0.0658P)^2^+0.1636P] where P=(Fo^2^+2Fc^2^)/3'
_refine_ls_weighting_scheme      calc
_refine_ls_wR_factor_gt          0.1124
_refine_ls_wR_factor_ref         0.1220
_reflns_number_gt                1958
_reflns_number_total             2341
_reflns_threshold_expression     >2sigma(I)
_iucr_refine_instructions_details
;
TITL ZHANGZH_0523 in P-1 #2
REM reset to P-1 #2
CELL 1.54184 6.424099 10.190589 11.316666 68.9514 83.1442 83.8182
ZERR 2 0.00058 0.001143 0.001374 0.0108 0.0087 0.0083
LATT 1
SFAC C H F O
UNIT 28 26 6 10
 
L.S. 10
PLAN  20
BOND $h
htab
conf
fmap 2
acta
SHEL 999 0.84
REM <olex2.extras>
REM <HklSrc "%.\\ZHANGZH_0523.hkl">
REM </olex2.extras>
 
WGHT    0.065800    0.163600
FVAR      11.19494
F1    3   -0.179354   -0.134806    1.022788    11.00000    0.08248    0.11534 =
         0.04601   -0.02282   -0.00309   -0.02629
F2    3   -0.474222   -0.122842    0.947715    11.00000    0.04875    0.08950 =
         0.07786   -0.03756    0.02450   -0.02670
F3    3   -0.226856   -0.272824    0.924604    11.00000    0.08457    0.04438 =
         0.09496   -0.01358    0.02034   -0.01930
O1    4   -0.257179    0.095575    0.814463    11.00000    0.03860    0.04440 =
         0.07427   -0.03172    0.01491   -0.00504
O2    4    0.334246    0.064937    0.624240    11.00000    0.02666    0.03943 =
         0.05347   -0.01292    0.00381   -0.00108
O3    4   -0.280260   -0.049726    0.700867    11.00000    0.02753    0.07119 =
         0.05724   -0.03581   -0.00759    0.00441
AFIX 147
H3    2   -0.403265   -0.018410    0.701671    11.00000   -1.50000
AFIX   0
O4    4    0.107800   -0.219231    0.664505    11.00000    0.05863    0.04146 =
         0.05937   -0.02746   -0.00896    0.00469
O5    4    0.238821   -0.267620    0.851007    11.00000    0.06988    0.03982 =
         0.07897   -0.02194   -0.03817    0.01289
C1    1   -0.142573    0.211890    0.754775    11.00000    0.03505    0.03846 =
         0.05050   -0.02191   -0.00609    0.00051
C2    1   -0.214526    0.332478    0.780832    11.00000    0.04954    0.04940 =
         0.06467   -0.03386   -0.00437    0.00752
AFIX  43
H2    2   -0.337226    0.334118    0.833141    11.00000   -1.20000
AFIX   0
C3    1   -0.100083    0.450571    0.727425    11.00000    0.06702    0.04045 =
         0.07381   -0.03285   -0.01461    0.00755
AFIX  43
H3A   2   -0.147521    0.532788    0.743071    11.00000   -1.20000
AFIX   0
C4    1    0.083785    0.447706    0.651151    11.00000    0.06399    0.03533 =
         0.06460   -0.02072   -0.01257   -0.00607
AFIX  43
H4    2    0.159525    0.527680    0.616605    11.00000   -1.20000
AFIX   0
C5    1    0.156533    0.326448    0.625602    11.00000    0.04474    0.03559 =
         0.04458   -0.01379   -0.01133   -0.00386
C6    1    0.364806    0.316870    0.550155    11.00000    0.04491    0.04286 =
         0.05481   -0.01140   -0.00149   -0.01348
AFIX  23
H6A   2    0.372931    0.399222    0.473053    11.00000   -1.20000
H6B   2    0.477978    0.316890    0.599736    11.00000   -1.20000
AFIX   0
C7    1    0.393756    0.185738    0.515437    11.00000    0.03969    0.04715 =
         0.04920   -0.01221    0.00711   -0.00911
AFIX  23
H7A   2    0.307983    0.197148    0.446970    11.00000   -1.20000
H7B   2    0.539595    0.171324    0.486064    11.00000   -1.20000
AFIX   0
C8    1    0.111689    0.074122    0.652157    11.00000    0.02551    0.03332 =
         0.04130   -0.01547   -0.00331   -0.00017
AFIX  13
H8    2    0.042378    0.070257    0.581001    11.00000   -1.20000
AFIX   0
C9    1    0.038916    0.208465    0.675833    11.00000    0.03422    0.03251 =
         0.04121   -0.01602   -0.00909    0.00109
C10   1    0.052683   -0.049330    0.771728    11.00000    0.02876    0.03358 =
         0.04069   -0.01705   -0.00344   -0.00262
AFIX  13
H10   2    0.118521   -0.042435    0.842873    11.00000   -1.20000
AFIX   0
C11   1   -0.188191   -0.033745    0.797925    11.00000    0.03018    0.03873 =
         0.04508   -0.02068    0.00014   -0.00364
C12   1   -0.267030   -0.141482    0.925549    11.00000    0.04496    0.05639 =
         0.05406   -0.02305    0.00678   -0.01479
C13   1    0.131569   -0.187964    0.753863    11.00000    0.02809    0.03295 =
         0.05002   -0.01519   -0.00374   -0.00347
C14   1    0.329655   -0.401523    0.844340    11.00000    0.11428    0.04627 =
         0.12821   -0.03430   -0.06697    0.03421
AFIX 137
H14A  2    0.395229   -0.387661    0.760350    11.00000   -1.50000
H14B  2    0.221079   -0.465686    0.863386    11.00000   -1.50000
H14C  2    0.432829   -0.439924    0.904867    11.00000   -1.50000
HKLF 4
 
REM  ZHANGZH_0523 in P-1 #2
REM R1 =  0.0415 for   1958 Fo > 4sig(Fo)  and  0.0494 for all   2341 data
REM    201 parameters refined using      0 restraints
 
END  
     
WGHT      0.0658      0.1636 
REM Highest difference peak  0.183,  deepest hole -0.210,  1-sigma level  0.044
Q1    1  -0.0548 -0.0468  0.7813  11.00000  0.05    0.18
Q2    1   0.2313 -0.4141  0.9237  11.00000  0.05    0.17
Q3    1   0.2416 -0.4410  0.8008  11.00000  0.05    0.16
Q4    1   0.0674  0.1615  0.6627  11.00000  0.05    0.16
Q5    1   0.3409 -0.4625  0.9628  11.00000  0.05    0.15
Q6    1  -0.3291 -0.0387  0.5743  11.00000  0.05    0.14
Q7    1   0.1313 -0.0054  0.8709  11.00000  0.05    0.14
Q8    1   0.3089  0.1633  0.4278  11.00000  0.05    0.14
Q9    1   0.1972  0.5607  0.5814  11.00000  0.05    0.14
Q10   1  -0.1469  0.0850  0.9257  11.00000  0.05    0.13
Q11   1   0.1606 -0.2690  0.9202  11.00000  0.05    0.13
Q12   1  -0.0780  0.2235  0.6859  11.00000  0.05    0.13
Q13   1   0.0694  0.2551  0.6320  11.00000  0.05    0.13
Q14   1  -0.0039 -0.3423  0.7201  11.00000  0.05    0.12
Q15   1   0.0764 -0.0920  0.7676  11.00000  0.05    0.11
Q16   1  -0.2955  0.2415  0.9175  11.00000  0.05    0.11
Q17   1  -0.2542 -0.1891  0.6822  11.00000  0.05    0.11
Q18   1  -0.4469 -0.1773  0.9036  11.00000  0.05    0.11
Q19   1   0.2286  0.4908  0.6956  11.00000  0.05    0.11
Q20   1  -0.3068 -0.2274  0.8412  11.00000  0.05    0.11

  REM The information below was added by Olex2.
  REM
  REM R1 = 0.0415 for 1958 Fo > 4sig(Fo) and 0.0494 for all 4509 data
  REM n/a parameters refined using n/a restraints
  REM Highest difference peak 0.18, deepest hole -0.21
  REM Mean Shift 0, Max Shift 0.000.

  REM +++ Tabular Listing of Refinement Information +++
  REM R1_all = 0.0494
  REM R1_gt = 0.0415
  REM wR_ref = 0.1220
  REM GOOF = 1.033
  REM Shift_max = 0.000
  REM Shift_mean = 0
  REM Reflections_all = 4509
  REM Reflections_gt = 1958
  REM Parameters = n/a
  REM Hole = -0.21
  REM Peak = 0.18
  REM Flack = n/a

  
;
_cod_data_source_file            c9qo00353c2.cif
_cod_data_source_block           zhangzh_0523
_cod_original_cell_volume        684.79(13)
_cod_database_code               1554882
_reflns_odcompleteness_completeness 96.45
_reflns_odcompleteness_iscentric 1
_reflns_odcompleteness_theta     66.97
_olex2_refinement_description
;
1. Fixed Uiso
 At 1.2 times of:
  All C(H) groups, All C(H,H) groups
 At 1.5 times of:
  All C(H,H,H) groups, All O(H) groups
2.a Ternary CH refined with riding coordinates:
 C8(H8), C10(H10)
2.b Secondary CH2 refined with riding coordinates:
 C6(H6A,H6B), C7(H7A,H7B)
2.c Aromatic/amide H refined with riding coordinates:
 C2(H2), C3(H3A), C4(H4)
2.d Idealised Me refined as rotating group:
 C14(H14A,H14B,H14C)
2.e Idealised tetrahedral OH refined as rotating group:
 O3(H3)
;
_olex2_date_sample_data_collection 2018-05-23
_olex2_submission_special_instructions 'No special instructions were received'
loop_
_space_group_symop_id
_space_group_symop_operation_xyz
1 'x, y, z'
2 '-x, -y, -z'
loop_
_atom_site_label
_atom_site_type_symbol
_atom_site_fract_x
_atom_site_fract_y
_atom_site_fract_z
_atom_site_U_iso_or_equiv
_atom_site_adp_type
_atom_site_occupancy
_atom_site_calc_flag
_atom_site_refinement_flags_posn
F1 F -0.1794(3) -0.13481(19) 1.02279(13) 0.0815(5) Uani 1 d .
F2 F -0.4742(2) -0.12284(16) 0.94771(14) 0.0707(4) Uani 1 d .
F3 F -0.2269(3) -0.27282(14) 0.92460(16) 0.0789(5) Uani 1 d .
O1 O -0.2572(2) 0.09558(14) 0.81446(15) 0.0510(4) Uani 1 d .
O2 O 0.33425(18) 0.06494(13) 0.62424(12) 0.0415(3) Uani 1 d .
O3 O -0.28026(19) -0.04973(16) 0.70087(13) 0.0486(4) Uani 1 d .
H3 H -0.4033 -0.0184 0.7017 0.073 Uiso 1 calc GR
O4 O 0.1078(2) -0.21923(14) 0.66450(14) 0.0508(4) Uani 1 d .
O5 O 0.2388(3) -0.26762(15) 0.85101(16) 0.0611(4) Uani 1 d .
C1 C -0.1426(3) 0.21189(19) 0.75478(18) 0.0396(4) Uani 1 d .
C2 C -0.2145(3) 0.3325(2) 0.7808(2) 0.0516(5) Uani 1 d .
H2 H -0.3372 0.3341 0.8331 0.062 Uiso 1 calc R
C3 C -0.1001(4) 0.4506(2) 0.7274(2) 0.0570(6) Uani 1 d .
H3A H -0.1475 0.5328 0.7431 0.068 Uiso 1 calc R
C4 C 0.0838(4) 0.4477(2) 0.6512(2) 0.0530(5) Uani 1 d .
H4 H 0.1595 0.5277 0.6166 0.064 Uiso 1 calc R
C5 C 0.1565(3) 0.32645(19) 0.62560(17) 0.0410(4) Uani 1 d .
C6 C 0.3648(3) 0.3169(2) 0.5502(2) 0.0485(5) Uani 1 d .
H6A H 0.3729 0.3992 0.4731 0.058 Uiso 1 calc R
H6B H 0.4780 0.3169 0.5997 0.058 Uiso 1 calc R
C7 C 0.3938(3) 0.1857(2) 0.51544(19) 0.0471(5) Uani 1 d .
H7A H 0.3080 0.1971 0.4470 0.057 Uiso 1 calc R
H7B H 0.5396 0.1713 0.4861 0.057 Uiso 1 calc R
C8 C 0.1117(2) 0.07412(17) 0.65216(16) 0.0328(4) Uani 1 d .
H8 H 0.0424 0.0703 0.5810 0.039 Uiso 1 calc R
C9 C 0.0389(3) 0.20846(17) 0.67583(16) 0.0349(4) Uani 1 d .
C10 C 0.0527(2) -0.04933(17) 0.77173(16) 0.0332(4) Uani 1 d .
H10 H 0.1185 -0.0424 0.8429 0.040 Uiso 1 calc R
C11 C -0.1882(3) -0.03374(18) 0.79792(17) 0.0365(4) Uani 1 d .
C12 C -0.2670(3) -0.1415(2) 0.9255(2) 0.0509(5) Uani 1 d .
C13 C 0.1316(3) -0.18796(18) 0.75386(17) 0.0367(4) Uani 1 d .
C14 C 0.3297(5) -0.4015(3) 0.8443(3) 0.0935(11) Uani 1 d .
H14A H 0.3952 -0.3877 0.7604 0.140 Uiso 1 calc GR
H14B H 0.2211 -0.4657 0.8634 0.140 Uiso 1 calc GR
H14C H 0.4328 -0.4399 0.9049 0.140 Uiso 1 calc GR
loop_
_atom_site_aniso_label
_atom_site_aniso_U_11
_atom_site_aniso_U_22
_atom_site_aniso_U_33
_atom_site_aniso_U_23
_atom_site_aniso_U_13
_atom_site_aniso_U_12
F1 0.0825(10) 0.1153(13) 0.0460(7) -0.0228(8) -0.0031(7) -0.0263(9)
F2 0.0487(7) 0.0895(10) 0.0779(9) -0.0376(8) 0.0245(6) -0.0267(6)
F3 0.0846(10) 0.0444(7) 0.0950(11) -0.0136(7) 0.0203(8) -0.0193(6)
O1 0.0386(7) 0.0444(7) 0.0743(9) -0.0317(7) 0.0149(6) -0.0050(5)
O2 0.0267(6) 0.0394(7) 0.0535(7) -0.0129(6) 0.0038(5) -0.0011(5)
O3 0.0275(6) 0.0712(9) 0.0572(8) -0.0358(7) -0.0076(5) 0.0044(6)
O4 0.0586(9) 0.0415(7) 0.0594(8) -0.0275(6) -0.0090(6) 0.0047(6)
O5 0.0699(10) 0.0398(8) 0.0790(11) -0.0219(7) -0.0382(8) 0.0129(7)
C1 0.0351(9) 0.0385(9) 0.0505(10) -0.0219(8) -0.0061(7) 0.0005(7)
C2 0.0495(11) 0.0494(11) 0.0647(13) -0.0339(10) -0.0044(9) 0.0075(9)
C3 0.0670(14) 0.0404(10) 0.0738(14) -0.0329(10) -0.0146(11) 0.0076(9)
C4 0.0640(13) 0.0353(10) 0.0646(13) -0.0207(9) -0.0126(10) -0.0061(9)
C5 0.0447(10) 0.0356(9) 0.0446(10) -0.0138(7) -0.0113(8) -0.0039(7)
C6 0.0449(10) 0.0429(10) 0.0548(11) -0.0114(8) -0.0015(8) -0.0135(8)
C7 0.0397(10) 0.0472(11) 0.0492(10) -0.0122(8) 0.0071(8) -0.0091(8)
C8 0.0255(8) 0.0333(8) 0.0413(9) -0.0155(7) -0.0033(6) -0.0002(6)
C9 0.0342(8) 0.0325(8) 0.0412(9) -0.0160(7) -0.0091(7) 0.0011(6)
C10 0.0288(8) 0.0336(8) 0.0407(9) -0.0170(7) -0.0034(6) -0.0026(6)
C11 0.0302(8) 0.0387(9) 0.0451(9) -0.0207(7) 0.0001(7) -0.0036(6)
C12 0.0450(10) 0.0564(12) 0.0541(12) -0.0231(10) 0.0068(9) -0.0148(9)
C13 0.0281(8) 0.0330(8) 0.0500(10) -0.0152(7) -0.0037(7) -0.0035(6)
C14 0.114(2) 0.0463(13) 0.128(3) -0.0343(16) -0.067(2) 0.0342(15)
loop_
_atom_type_symbol
_atom_type_description
_atom_type_scat_dispersion_real
_atom_type_scat_dispersion_imag
_atom_type_scat_source
C C 0.0181 0.0091 'International Tables Vol C Tables 4.2.6.8 and 6.1.1.4'
H H 0.0000 0.0000 'International Tables Vol C Tables 4.2.6.8 and 6.1.1.4'
F F 0.0727 0.0534 'International Tables Vol C Tables 4.2.6.8 and 6.1.1.4'
O O 0.0492 0.0322 'International Tables Vol C Tables 4.2.6.8 and 6.1.1.4'
loop_
_geom_angle_atom_site_label_1
_geom_angle_atom_site_label_2
_geom_angle_atom_site_label_3
_geom_angle
C1 O1 C11 119.85(13)
C8 O2 C7 109.39(13)
C11 O3 H3 109.5
C13 O5 C14 115.50(17)
O1 C1 C2 116.34(17)
O1 C1 C9 122.34(15)
C2 C1 C9 121.28(18)
C1 C2 H2 120.7
C3 C2 C1 118.63(19)
C3 C2 H2 120.7
C2 C3 H3A 119.6
C4 C3 C2 120.76(18)
C4 C3 H3A 119.6
C3 C4 H4 119.7
C3 C4 C5 120.58(19)
C5 C4 H4 119.7
C4 C5 C6 121.74(17)
C4 C5 C9 119.01(18)
C9 C5 C6 119.18(16)
C5 C6 H6A 109.2
C5 C6 H6B 109.2
H6A C6 H6B 107.9
C7 C6 C5 112.17(15)
C7 C6 H6A 109.2
C7 C6 H6B 109.2
O2 C7 C6 110.11(16)
O2 C7 H7A 109.6
O2 C7 H7B 109.6
C6 C7 H7A 109.6
C6 C7 H7B 109.6
H7A C7 H7B 108.2
O2 C8 H8 109.6
O2 C8 C9 110.93(13)
O2 C8 C10 108.78(13)
C9 C8 H8 109.6
C9 C8 C10 108.31(14)
C10 C8 H8 109.6
C1 C9 C5 119.67(16)
C1 C9 C8 119.10(15)
C5 C9 C8 121.14(16)
C8 C10 H10 108.9
C8 C10 C11 106.61(13)
C8 C10 C13 110.10(14)
C11 C10 H10 108.9
C13 C10 H10 108.9
C13 C10 C11 113.35(13)
O1 C11 C10 112.20(13)
O1 C11 C12 101.96(15)
O3 C11 O1 111.76(15)
O3 C11 C10 108.80(13)
O3 C11 C12 109.86(15)
C12 C11 C10 112.16(15)
F1 C12 F2 107.76(17)
F1 C12 F3 107.54(19)
F1 C12 C11 112.99(17)
F2 C12 F3 106.80(16)
F2 C12 C11 110.95(18)
F3 C12 C11 110.54(16)
O4 C13 O5 124.72(16)
O4 C13 C10 125.71(16)
O5 C13 C10 109.52(15)
O5 C14 H14A 109.5
O5 C14 H14B 109.5
O5 C14 H14C 109.5
H14A C14 H14B 109.5
H14A C14 H14C 109.5
H14B C14 H14C 109.5
loop_
_geom_bond_atom_site_label_1
_geom_bond_atom_site_label_2
_geom_bond_distance
F1 C12 1.320(3)
F2 C12 1.331(2)
F3 C12 1.339(3)
O1 C1 1.377(2)
O1 C11 1.414(2)
O2 C7 1.441(2)
O2 C8 1.4273(19)
O3 H3 0.8200
O3 C11 1.374(2)
O4 C13 1.194(2)
O5 C13 1.327(2)
O5 C14 1.449(3)
C1 C2 1.384(2)
C1 C9 1.387(3)
C2 H2 0.9300
C2 C3 1.384(3)
C3 H3A 0.9300
C3 C4 1.381(3)
C4 H4 0.9300
C4 C5 1.389(3)
C5 C6 1.513(3)
C5 C9 1.393(2)
C6 H6A 0.9700
C6 H6B 0.9700
C6 C7 1.510(3)
C7 H7A 0.9700
C7 H7B 0.9700
C8 H8 0.9800
C8 C9 1.503(2)
C8 C10 1.521(2)
C10 H10 0.9800
C10 C11 1.542(2)
C10 C13 1.523(2)
C11 C12 1.534(3)
C14 H14A 0.9600
C14 H14B 0.9600
C14 H14C 0.9600
loop_
_geom_torsion_atom_site_label_1
_geom_torsion_atom_site_label_2
_geom_torsion_atom_site_label_3
_geom_torsion_atom_site_label_4
_geom_torsion
O1 C1 C2 C3 177.35(19)
O1 C1 C9 C5 -175.29(16)
O1 C1 C9 C8 1.2(3)
O1 C11 C12 F1 -63.4(2)
O1 C11 C12 F2 57.76(19)
O1 C11 C12 F3 176.06(15)
O2 C8 C9 C1 -152.18(16)
O2 C8 C9 C5 24.3(2)
O2 C8 C10 C11 179.63(12)
O2 C8 C10 C13 -57.03(17)
O3 C11 C12 F1 177.98(16)
O3 C11 C12 F2 -60.9(2)
O3 C11 C12 F3 57.4(2)
C1 O1 C11 O3 -93.87(19)
C1 O1 C11 C10 28.7(2)
C1 O1 C11 C12 148.84(16)
C1 C2 C3 C4 -0.9(3)
C2 C1 C9 C5 2.7(3)
C2 C1 C9 C8 179.16(16)
C2 C3 C4 C5 0.6(3)
C3 C4 C5 C6 -175.6(2)
C3 C4 C5 C9 1.4(3)
C4 C5 C6 C7 -170.27(18)
C4 C5 C9 C1 -2.9(3)
C4 C5 C9 C8 -179.38(16)
C5 C6 C7 O2 -45.5(2)
C6 C5 C9 C1 174.13(16)
C6 C5 C9 C8 -2.3(3)
C7 O2 C8 C9 -57.63(18)
C7 O2 C8 C10 -176.66(14)
C8 O2 C7 C6 70.28(19)
C8 C10 C11 O1 -58.86(18)
C8 C10 C11 O3 65.32(17)
C8 C10 C11 C12 -172.93(14)
C8 C10 C13 O4 -48.5(2)
C8 C10 C13 O5 129.04(16)
C9 C1 C2 C3 -0.7(3)
C9 C5 C6 C7 12.7(2)
C9 C8 C10 C11 58.97(16)
C9 C8 C10 C13 -177.69(12)
C10 C8 C9 C1 -32.9(2)
C10 C8 C9 C5 143.58(16)
C10 C11 C12 F1 56.8(2)
C10 C11 C12 F2 177.98(14)
C10 C11 C12 F3 -63.7(2)
C11 O1 C1 C2 -176.83(17)
C11 O1 C1 C9 1.2(3)
C11 C10 C13 O4 70.8(2)
C11 C10 C13 O5 -111.64(17)
C13 C10 C11 O1 179.84(14)
C13 C10 C11 O3 -55.97(19)
C13 C10 C11 C12 65.77(19)
C14 O5 C13 O4 -0.4(3)
C14 O5 C13 C10 -178.0(2)
loop_
_refln_index_h
_refln_index_k
_refln_index_l
_refln_F_squared_meas
_refln_F_squared_sigma
_refln_scale_group_code
0 0 -1 10503 256.874 1
0 0 -2 213885 1641.66 1
0 0 -3 86746 1322.56 1
0 0 -4 637.621 139.642 1
0 0 -4 742.469 114.695 8
0 0 -5 2875.15 246.443 8
0 0 -6 13975.8 608.951 8
0 0 -7 51179.9 1301.53 8
0 0 -8 216.376 118.746 6
0 0 9 29.4811 84.8966 16
0 0 -9 76.5346 88.1478 6
0 0 -9 3.61993 72.8928 13
0 0 10 3352.42 332.055 16
0 0 -10 4201.2 346.508 13
0 0 -11 174.629 83.1507 13
0 0 11 24.5668 54.3501 16
0 0 -12 1.95836 60.8609 13
0 1 -12 1308.79 143.6 13
0 1 -11 6761.09 396.142 13
0 1 -10 188.179 100.437 13
0 -1 10 176.091 97.1252 16
0 -1 9 3206.26 323.93 16
0 1 -9 4148.61 344.676 13
0 1 -8 565.535 130.987 13
0 -1 8 370.399 116.668 16
0 1 -8 313.615 118.657 6
0 1 -7 14305 702.085 6
0 1 -6 80.4385 79.4933 6
0 1 -5 12783.8 559.263 8
0 1 -4 149963 2013.04 1
0 1 -4 148085 1650.62 8
0 1 -3 128701 1590.22 1
0 1 -3 124149 1295.78 8
0 1 -2 263033 1331.77 3
0 1 -2 265118 1832.87 1
0 1 -1 32362.1 337.309 3
0 -1 -1 22587.2 380.288 1
0 -1 -2 459362 2439 1
0 -1 -3 1372.91 179.158 1
0 -1 -3 1307.93 105.143 8
0 -1 -4 18821.7 493.222 8
0 -1 -4 19081 720.928 1
0 -1 -5 12356.3 468.4 8
0 -1 -6 29363.9 823.675 8
0 -1 -7 9458.15 524.593 8
0 -1 -8 6230.71 481.499 8
0 -1 -9 6541.28 536.163 8
0 1 9 5433.18 398.323 16
0 -1 -9 6412.37 522.928 6
0 1 10 2051.24 266.778 16
0 -1 -11 1628.71 214.332 13
0 1 11 2110.58 228.868 16
0 -1 -12 594.016 123.073 13
0 -1 -13 529.597 83.5145 13
0 2 -11 -92.4756 67.3002 13
0 2 -10 1877 225.306 13
0 2 -9 3429.14 308.936 13
0 2 -8 2001.34 280.729 6
0 2 -8 2595.25 271.095 13
0 -2 8 2094.89 253.484 16
0 2 -7 1823.36 263.641 6
0 2 -6 80.8373 58.9142 6
0 2 -5 99207.7 1583.26 6
0 2 -4 12126.3 490.116 6
0 2 -3 7.38397 37.2718 6
0 2 -3 2.01554 60.2602 1
0 2 -2 130443 1003.92 3
0 2 -2 131767 1208.03 6
0 2 -2 133006 1289.06 1
0 -2 2 129464 1021.62 5
0 2 -1 1509.82 83.0322 3
0 2 -1 1567.7 111.622 6
0 -2 1 1524.65 89.3968 5
0 2 0 47968.1 416.197 5
0 2 0 48192.5 407.091 2
0 2 1 70229.9 739.023 1
0 -2 -1 66770.2 702.261 2
0 2 2 50827.9 842.04 1
0 -2 -2 49934.4 801.268 1
0 -2 -3 44948.1 642.297 8
0 -2 -3 44388.6 641.859 9
0 -2 -3 44223.3 935.927 1
0 -2 -4 31971.6 624.952 8
0 -2 -4 31754 930.505 1
0 -2 -5 10836.2 424.25 8
0 -2 -6 1167.29 166.942 8
0 -2 -7 11590.5 563.349 8
0 -2 -8 4320.55 390.902 8
0 -2 -9 283.818 143.409 8
0 2 9 176.33 85.7261 16
0 -2 -9 329.437 95.7185 24
0 2 10 6485.84 451.102 16
0 2 11 4768.42 362.394 16
0 -2 -12 271.842 88.213 13
0 2 12 313.247 87.4287 16
0 -2 -13 1243.05 137.563 13
0 3 -11 1442.06 154.881 22
0 3 -11 1722.67 164.455 13
0 3 -10 2771.47 246.313 13
0 3 -9 1831.16 228.279 13
0 3 -8 623.651 148.45 13
0 -3 7 -153.882 115.439 16
0 3 -7 56.2605 54.5992 17
0 3 -7 149.616 104.641 6
0 3 -7 124.141 102.182 13
0 3 -6 13794.4 687.455 6
0 3 -5 86854.2 1581.83 6
0 3 -4 48837 1074.01 6
0 3 -3 145735 1655.73 6
0 3 -2 2492.01 195.066 6
0 3 -2 2576.43 154.886 3
0 3 -1 90797.7 1005.38 6
0 3 -1 89147.8 716.644 3
0 -3 1 86613.2 953.956 9
0 -3 1 92500.8 824.391 5
0 3 0 14195.4 272.063 5
0 -3 0 13988.1 358.688 9
0 -3 -1 1305.19 108.821 2
0 3 1 1112.77 85.1368 5
0 -3 -1 1110.58 96.4331 9
0 3 1 1247.78 104.386 7
0 3 1 1030.6 60.651 4
0 3 1 1289.72 102.174 1
0 -3 -2 143598 1422.77 2
0 3 2 140316 1059.66 7
0 3 2 143301 1445.41 1
0 -3 -2 140962 1074.17 9
0 -3 -3 2220.67 152.668 9
0 3 3 2194.41 138.635 7
0 -3 -4 38279 723.863 8
0 -3 -4 37523.3 1013.83 1
0 -3 -5 20195.3 585.316 8
0 -3 -6 5298.6 342.791 8
0 -3 -7 1316.15 202.251 8
0 -3 -8 977.62 192.005 8
0 -3 -9 8686.8 473.706 10
0 -3 -9 8881.66 581.014 8
0 -3 -9 9969.49 518.471 24
0 -3 -10 372.614 137.775 8
0 -3 -10 469.2 124.171 10
0 -3 -10 525.435 134.866 24
0 3 10 372.879 132.231 16
0 3 11 -19.6509 97.8351 16
0 -3 -12 54.4919 69.5201 13
0 3 12 61.0951 57.751 16
0 3 13 1856.12 162.848 16
0 -3 -13 2303.87 191.01 13
0 4 -10 750.856 119.842 22
0 4 -9 -100.254 109.502 13
0 4 -8 36.0369 79.7599 13
0 4 -7 1630.93 230.054 13
0 4 -7 1703.17 215.899 17
0 4 -6 7818.46 527.956 6
0 4 -6 8103.38 449.429 17
0 4 -6 8042.25 463.502 13
0 4 -5 222.171 92.8065 6
0 4 -4 4000.36 333.492 6
0 4 -3 30512.6 828.425 6
0 -4 2 4396.6 282.998 9
0 4 -2 5122.12 303.56 6
0 4 -1 26910.5 631.01 6
0 -4 1 26771.9 633.442 9
0 -4 0 232.117 51.4175 9
0 -4 -1 24484.3 527.46 9
0 4 1 24043.1 568.915 7
0 4 1 25253.8 418.951 5
0 4 2 253429 1714.54 7
0 4 2 250549 1300.89 4
0 -4 -2 254087 1643.25 9
0 -4 -2 250776 1923.15 2
0 -4 -3 84072.5 1007.47 9
0 4 3 82012.8 942.682 7
0 -4 -3 80194.6 1327.25 2
0 -4 -4 127048 1370.83 9
0 -4 -4 125066 1928.26 2
0 4 4 125272 1224.94 7
0 -4 -5 143732 1636.54 8
0 -4 -6 36604.7 903.424 8
0 -4 -7 243.201 96.5026 8
0 -4 -8 1690.21 237.09 8
0 -4 -9 13143.5 598.495 10
0 -4 -9 12695.5 487.43 23
0 -4 -9 14285 642.445 24
0 -4 -9 12365.3 668.144 8
0 -4 -10 2144.22 266.285 24
0 -4 -10 2285.69 266.34 10
0 -4 -11 3230.91 310.477 24
0 -4 -11 3565.47 318.181 10
0 4 11 3852.63 344.223 16
0 4 12 4406.58 324.424 16
0 -4 -13 126.051 94.6696 13
0 4 13 64.3285 50.6205 16
0 5 -9 107.451 63.8822 22
0 5 -8 277.486 106.393 22
0 5 -8 313.377 100.337 13
0 5 -7 2519.17 274.202 13
0 5 -7 1899.83 239.996 17
0 5 -6 -142.043 105.312 17
0 5 -6 22.919 72.506 13
0 5 -5 2143.49 242.059 17
0 5 -5 2277.58 243.679 13
0 5 -3 1091.02 165.907 6
0 5 0 14837.5 571.718 7
0 5 1 119750 1482.51 7
0 -5 -2 183149 1547.17 9
0 5 2 179942 1681.27 7
0 -5 -3 4008.52 239.407 9
0 -5 -4 92268.4 1235.26 9
0 -5 -5 42176.2 946.535 8
0 -5 -6 10207.7 490.538 8
0 -5 -7 4460.01 353.544 8
0 -5 -8 3204.13 319.69 8
0 -5 -9 16770.2 695.201 10
0 -5 -10 7568.41 480.924 10
0 -5 -10 7789.55 503.306 24
0 -5 -11 24963.4 852.324 10
0 5 11 24333 847.798 16
0 -5 -11 25339.9 881.943 24
0 5 12 10272.9 493.105 16
0 -5 -12 10169.9 485.428 10
0 -5 -13 222.482 81.1858 13
0 5 13 108.293 66.4973 16
0 6 -8 44.2714 48.1503 22
0 6 -7 289.698 94.5848 22
0 6 -6 1597.75 213.083 17
0 6 -6 1460.79 234.499 22
0 6 -5 13.8346 87.7346 17
0 6 -5 -109.16 126.094 22
0 6 -4 2435.46 274.581 22
0 6 -4 2810.17 275.867 17
0 -6 4 2500.54 256.072 16
0 6 -3 32457.3 887.347 17
0 6 -3 31517.1 944.563 22
0 6 -1 1443.3 221.519 7
0 6 0 25195.4 834.209 7
0 6 1 52384 1101.59 7
0 -6 -6 9761.36 503.839 8
0 6 8 1566.47 222.426 27
0 -6 -8 1832.4 231.996 10
0 -6 -9 2119.96 260.889 10
0 -6 -10 703.157 168.991 24
0 -6 -10 358.209 117.212 10
0 -6 -11 6215.47 434.937 24
0 -6 -11 6519.72 434.626 10
0 6 12 7524.16 414.66 16
0 -6 -12 7667.92 415.931 10
0 -6 -12 8116.77 448.927 24
0 6 13 1353.02 147.67 16
0 7 -7 458.405 104.53 22
0 7 -6 247.567 90.7856 17
0 7 -6 186.734 99.0057 22
0 7 -5 0.26623 59.5715 17
0 7 -5 25.2384 70.7422 22
0 7 -4 628.369 142.426 17
0 7 -4 759.883 173.119 22
0 7 -3 36098.2 1239.82 7
0 -7 3 35619.7 965.456 16
0 7 -3 37847.9 1030.83 17
0 7 -3 36492.4 1082.69 22
0 7 -2 38207.9 1007.69 17
0 7 -2 37852.4 1066.23 22
0 7 -2 38647.6 1251.75 7
0 -7 2 36525.4 953.854 16
0 7 -1 26236.9 981.945 7
0 7 -1 24618 824.622 22
0 7 -1 25054.8 778.436 17
0 -7 -7 6326.07 411.03 10
0 7 7 5979.7 421.595 27
0 7 8 2338.44 281.983 27
0 -7 -8 2044.43 241.813 10
0 -7 -9 66.8901 66.0933 10
0 -7 -10 2316.39 279.503 24
0 -7 -10 2607.55 284.385 10
0 -7 -11 -44.1753 89.5416 10
0 -7 -11 -36.6498 81.9121 24
0 7 12 1093.5 156.834 16
0 -7 -12 903.83 151.723 24
0 -7 -12 1222.32 167.912 10
0 7 13 276.549 70.3086 16
0 8 -6 493.087 105.354 22
0 -8 6 193.843 69.8062 12
0 8 -5 237.66 79.5428 17
0 -8 5 84.0401 54.9052 12
0 8 -5 173.097 90.6363 22
0 8 -4 942.827 160.133 17
0 8 -4 730.825 163.959 22
0 8 -3 2553.58 273.386 17
0 -8 3 2262.03 239.384 16
0 8 -3 2203.2 283.377 22
0 8 -2 22746 875.19 22
0 8 -2 24833.3 851.29 17
0 -8 2 23264.4 786.239 16
0 8 -1 157904 2210.62 22
0 -8 1 157756 2025.85 16
0 8 -1 157756 2102.44 17
0 -8 0 31549 1040.28 12
0 -8 0 30961.1 896.126 16
0 -8 -1 1247.29 188.619 16
0 -8 -1 1200.7 205.683 12
0 -8 -2 1508.65 189.814 16
0 -8 -2 1463.38 211.846 12
0 -8 -3 1230.99 181.233 16
0 -8 -3 945.868 164.476 12
0 -8 -4 925.203 154.97 12
0 8 4 877.67 132.628 15
0 8 5 435.521 97.1543 15
0 8 5 434.118 98.9362 27
0 -8 -5 393.413 110.978 12
0 -8 -6 3042.2 281.839 12
0 -8 -6 2660.92 273.188 10
0 8 6 2796.19 265.036 15
0 8 6 2805.3 287.019 27
0 -8 -7 2903.41 296.354 10
0 8 7 2977.41 318.245 27
0 8 8 3944.73 370.086 27
0 -8 -8 3892.09 347.862 10
0 -8 -9 264.98 106.645 10
0 -8 -10 1585.7 215.651 10
0 -8 -10 1771.14 236.725 24
0 -8 -11 170.924 75.7504 10
0 -8 -11 277.445 91.4417 24
0 -8 -12 487.263 100.651 24
0 8 12 562.791 102.891 16
0 -8 -12 498.55 97.6695 10
0 -9 5 88.628 48.7387 12
0 -9 4 -15.8957 43.7469 12
0 -9 3 6276.26 424.652 12
0 -9 2 1506.76 185.027 16
0 -9 2 1545.29 240.19 12
0 -9 1 1302.43 186.707 16
0 -9 1 1377.51 230.748 12
0 -9 0 209.4 109.769 12
0 -9 0 114.627 70.8067 16
0 -9 -1 26928.5 853.659 16
0 -9 -1 25836.2 941.98 12
0 -9 -2 1815.37 239.341 12
0 -9 -2 1890.11 229.008 16
0 -9 -3 861.546 160.683 12
0 -9 -3 1156.37 169.603 16
0 -9 -4 2435.77 268.655 12
0 9 5 1650.78 199.096 15
0 -9 -5 1584.49 214.126 10
0 -9 -5 1506.94 210.033 12
0 9 5 1400.63 203.277 27
0 -9 -6 703.568 141.091 12
0 9 6 784.583 161.32 27
0 -9 -6 814.345 160.801 10
0 9 7 7788.9 502.677 27
0 -9 -7 7858.78 476.136 10
0 9 8 739.209 162.166 27
0 -9 -8 915.754 167.796 10
0 -9 -9 5801.4 398.04 10
0 -9 -10 145.179 77.54 10
0 -9 -10 158.99 93.0583 24
0 -9 -11 95.6215 61.9952 24
0 -9 -11 98.2027 58.1747 10
0 -9 -12 949.88 115.093 10
0 9 12 910.871 117.021 16
0 -9 -12 861.734 111.026 24
0 -10 3 432.282 87.4409 12
0 -10 2 448.063 114.869 12
0 -10 1 660.348 140.649 12
0 -10 1 608.259 103.018 16
0 -10 0 306.35 82.6519 16
0 -10 0 479.183 128.346 12
0 -10 -1 121.63 78.7867 12
0 -10 -1 14.1027 54.1332 16
0 -10 -2 3746.43 346.35 12
0 -10 -3 4113.96 353.017 12
0 -10 -4 279.613 93.707 10
0 -10 -4 327.483 107.245 12
0 -10 -5 3467.35 307.398 12
0 -10 -5 3538.75 307.266 10
0 10 6 50.1787 52.2049 27
0 -10 -6 19.7886 46.3255 12
0 -10 -6 33.2065 63.7569 10
0 -10 -7 1743.07 219.376 10
0 10 7 1329.71 201.637 27
0 -10 -8 115.06 82.7702 10
0 -10 -9 1196.97 165.389 10
0 -10 -10 35.2031 43.6406 10
0 -10 -10 44.3213 45.4617 24
0 -10 -11 202.944 58.1221 10
0 -10 -11 163.569 55.8532 24
0 -11 1 1500.72 154.592 12
0 -11 0 28.0034 38.937 12
0 -11 -1 339.266 102.661 12
0 -11 -2 1868.09 191.097 10
0 -11 -2 2231.75 227.748 12
0 -11 -3 2696.85 236.81 10
0 -11 -3 2512.39 244.321 12
0 -11 -4 89.0956 65.3126 10
0 -11 -4 18.3402 41.2761 12
0 -11 -5 53.3874 52.409 10
0 -11 -5 -35.7016 56.0655 12
0 -11 -6 3168.14 246.177 12
0 -11 -6 3321.15 264.89 10
0 -11 -7 1095.56 153.453 10
0 -11 -8 3377.65 254.167 10
0 11 9 6119.51 268.628 21
0 -11 -9 5953.39 304.83 10
0 -11 -10 69.164 39.9993 10
0 -12 -3 4467.89 240.084 12
0 -12 -4 1095.37 121.496 12
0 -12 -4 1101.8 118.817 10
0 -12 -5 614.503 87.4012 12
0 -12 -5 668.684 95.5935 10
0 -12 -6 49.6837 33.8344 10
0 -12 -7 1893.55 151.38 10
1 -11 -9 420.056 76.746 10
1 -11 -8 -19.1674 40.9145 10
1 -11 -7 3839.33 250.553 10
1 -11 -6 250.211 70.726 10
1 -11 -6 260.875 78.1172 12
-1 11 6 259.216 79.1795 27
1 -11 -5 199.569 76.0843 12
1 -11 -5 169.502 58.5538 10
1 -11 -4 804.661 132.76 12
1 -11 -3 28.344 51.267 12
1 -11 -2 200.515 80.7812 12
1 -11 -1 573.018 114.173 12
1 -11 0 747.977 113.792 12
1 -10 -10 66.1482 40.1562 10
1 -10 -9 777.754 125.256 10
1 -10 -8 -79.1954 55.5976 10
-1 10 8 -15.8201 58.327 27
1 -10 -7 751.897 141.183 10
-1 10 7 553.666 131.779 27
1 -10 -7 625.326 126.998 12
1 -10 -6 6047.22 379.619 10
-1 10 6 6149.82 414.305 27
1 -10 -6 6726.42 414.737 12
-1 10 5 -15.3268 47.216 27
1 -10 -5 27.9899 61.0916 12
1 -10 -5 123.654 73.4756 10
1 -10 -4 2789.34 251.63 10
1 -10 -4 2344.08 262.512 12
1 -10 -3 15.8875 67.9215 12
1 -10 -2 146.123 76.4434 12
1 -10 -2 10.528 63.672 16
1 -10 -1 127.332 73.8085 12
1 -10 -1 101.526 68.216 16
1 -10 0 1015.78 150.253 16
1 -10 0 1155.61 181.936 12
1 -10 1 19.4044 58.7791 12
1 -10 1 112.801 64.3641 16
1 -10 2 95.2328 56.4695 16
1 -10 2 25.7178 43.2799 12
1 -10 3 89.8585 53.8548 12
1 -9 -11 222.132 72.7482 10
1 -9 -11 160.439 61.925 24
1 -9 -10 22.5071 50.3885 24
1 -9 -10 34.5973 57.1341 10
1 -9 -9 3860.26 312.108 10
1 -9 -9 3625.89 284.113 24
1 -9 -8 469.841 115.91 24
-1 9 8 614.289 150.323 27
1 -9 -8 279.627 87.1339 10
-1 9 7 4941.19 398.889 27
1 -9 -7 4772.83 372.746 12
1 -9 -7 4807.81 360.909 10
1 -9 -6 1975.9 244.58 12
1 -9 -6 1989.95 234.551 10
-1 9 6 2375.95 275.136 27
1 -9 -5 1385.65 211.539 12
-1 9 5 1296.71 198.091 27
1 -9 -5 1443.9 197.49 10
1 -9 -4 8109.71 500.26 12
1 -9 -4 9068.96 485.551 10
-1 9 4 9280.96 513.002 27
1 -9 -3 -40.2574 96.583 16
1 -9 -3 -72.635 83.4063 10
1 -9 -3 -60.7436 83.7039 12
1 -9 -2 878.251 168.349 16
1 -9 -2 940.987 180.793 12
1 -9 -1 2866.93 315.143 12
1 -9 -1 2942.6 285.54 16
1 -9 0 8988.81 494.221 16
1 -9 0 9171.76 563.728 12
1 -9 1 9.9513 58.9195 16
1 -9 1 89.984 102.005 12
1 -9 2 10411.4 564.305 12
1 -9 2 10917.5 503.799 16
1 -9 3 3658.33 306.126 12
1 -9 3 3898.58 282.386 16
1 -9 4 3407.6 228.712 16
1 -9 4 2375.43 212.071 12
-1 8 12 -9.39324 41.0748 16
1 -8 -12 48.5969 44.9846 10
1 -8 -11 -18.609 65.4761 24
1 -8 -11 -16.8631 69.2865 10
1 -8 -10 2927.38 277.748 10
1 -8 -10 2841.62 271.371 24
1 -8 -9 227.499 88.393 24
-1 8 9 141.74 78.5528 27
1 -8 -9 316.267 113.8 10
1 -8 -8 18898.8 739.011 10
-1 8 8 19221.9 791.296 27
1 -8 -7 1073.87 180.453 10
1 -8 -7 797.843 169.832 12
-1 8 7 905.015 171.759 27
1 -8 -6 959.51 166.198 10
1 -8 -6 1007.29 179.236 12
-1 8 6 916.886 182.519 27
1 -8 -5 1622.32 205.175 10
-1 8 5 1422.28 204.591 27
1 -8 -5 1522.81 212.027 12
-1 8 4 9047.23 494.566 27
1 -8 -4 8124.47 490.689 12
1 -8 -4 8712.18 466.368 10
1 -8 -4 9441.3 510.172 16
1 -8 -3 7511.47 471.885 12
1 -8 -3 6489.26 424.745 16
-1 8 3 7300.43 423.566 27
1 -8 -2 765.826 150.93 12
1 -8 -2 654.707 130.993 16
1 -8 -1 -33.7282 83.893 12
1 -8 -1 63.4824 78.728 16
1 -8 0 49.0172 59.3909 12
1 -8 0 124.368 82.9621 16
1 -8 1 2053.28 286.621 12
1 -8 1 2058.19 241.365 16
1 -8 2 9919.76 601.002 12
1 -8 2 9343.57 513.54 16
-1 8 -2 9246.61 531.762 22
1 -8 3 14157.7 616.535 16
1 -8 3 13614.6 684.526 12
-1 8 -3 14664.1 660.146 22
1 -8 4 2195.76 256.39 12
1 -8 4 2521.62 242.128 16
-1 8 -4 2249.82 258.173 22
1 -8 5 -0.62565 51.1353 16
1 -8 5 -3.57496 43.1872 12
-1 8 -5 33.8054 50.8278 22
1 -7 -12 1954.41 198.855 10
-1 7 12 1717.09 160.852 16
1 -7 -11 2109.72 241.87 24
1 -7 -11 1935.1 233.665 10
1 -7 -10 1110.61 196.914 24
1 -7 -10 1281.21 205.671 10
-1 7 9 17150.8 731.877 27
1 -7 -9 16861.6 714.252 24
1 -7 -9 17845.4 736.377 10
1 -7 -8 6770.56 449.855 10
-1 7 8 6752.89 467.835 27
1 -7 -7 821.356 164.096 12
1 -7 -7 609.578 141.243 10
-1 7 7 812.836 163.888 27
1 -7 -6 22402 760.733 10
1 -7 -6 23975.9 818.353 12
-1 7 6 24373.2 821.638 27
1 -7 -5 2497.26 266.683 9
1 -7 -4 10928.6 549.068 9
1 -7 1 2597.91 302.347 12
-1 7 -1 2301.1 248.577 22
1 -7 1 2369.38 251.172 16
-1 7 -2 27388.3 890.29 22
1 -7 2 26640.1 854.712 16
1 -7 3 19328.1 742.753 16
-1 7 -3 20454.3 790.701 22
-1 7 -4 34422.3 1051.01 22
1 -7 4 33290.3 973.173 16
1 -7 5 6443.27 403.842 16
-1 7 -5 6556.68 440.018 22
-1 7 -6 442.719 116.224 22
1 -7 6 291.47 91.8954 12
1 -7 7 1300.22 137.61 16
-1 7 -7 1295.75 154.775 22
-1 6 12 7661.61 350.075 16
1 -6 -12 8721.27 441.319 10
1 -6 -11 228.827 103.315 10
1 -6 -11 191.455 103.893 24
1 -6 -10 25213.3 730.217 23
1 -6 -10 23950 878.067 24
1 -6 -9 14397.9 676.084 24
-1 6 9 14031.5 647.202 27
1 -6 -9 14509.4 679.992 10
1 -6 -9 14557.5 562.699 23
-1 6 8 471.214 130.379 27
1 -6 -8 763 165.081 10
-1 6 7 3048.36 290.692 27
1 -6 -7 2702.32 266.732 10
1 -6 -6 748.216 159.049 9
1 -6 -5 9086.41 504.119 9
1 -6 -4 16218.4 640.579 9
1 -6 -3 11266.6 521.784 9
1 -6 -2 18915.3 667.734 9
1 -6 -1 8159.61 447.005 9
1 -6 0 4730.67 353.36 9
1 -6 1 142.591 75.3704 9
-1 6 -3 3769.41 326.987 22
1 -6 3 3770.49 315.634 16
-1 6 -4 41.0142 84.7092 22
1 -6 4 39.964 71.1888 16
1 -6 5 19526.6 752.564 16
-1 6 -5 19967.8 791.047 22
1 -6 6 4151.26 336.709 16
-1 6 -6 4171.23 358.304 22
1 -6 7 583.721 122.722 16
-1 6 -7 414.977 113.983 22
1 -6 8 23.8302 41.2126 16
-1 6 -8 57.8766 53.5102 22
1 -5 -13 55.5069 39.3391 10
1 -5 -13 206.426 72.1226 13
1 -5 -12 392.439 103.992 10
-1 5 11 1313.05 182.838 16
1 -5 -11 1260.73 207.017 10
1 -5 -11 1279.19 201.407 24
1 -5 -10 11.2228 84.7303 23
1 -5 -10 152.89 123.31 10
1 -5 -10 -75.5513 85.0547 24
1 -5 -9 18304.8 640.091 23
1 -5 -9 18030.7 754.615 10
1 -5 -9 19210.9 779.804 24
1 -5 -8 2988.53 292.499 10
1 -5 -8 3555.13 321.692 24
-1 5 8 3072.78 278.232 27
1 -5 -8 3226.27 256.287 23
1 -5 -5 4724.6 356.561 9
1 -5 -4 37.2011 68.939 9
1 -5 -3 43504.1 964.632 9
1 -5 -2 284609 2444.6 9
1 -5 -1 42006 952.748 9
1 -5 0 17111.6 627.967 9
1 -5 1 43.4245 77.2258 9
1 -5 2 958.061 162.788 9
1 -5 3 18028 755.617 9
1 -5 4 152.68 97.0719 9
-1 5 -5 408.191 107.776 13
1 -5 5 325.199 103.138 16
-1 5 -6 750.587 170.473 13
1 -5 6 565.365 138.63 16
1 -5 7 1114.88 184.614 16
-1 5 -7 1145.32 192.7 22
1 -5 8 2158.18 227.25 16
-1 5 -8 1985.78 232.171 22
1 -5 9 -62.0556 44.6986 16
-1 5 -9 -0.23137 41.717 22
1 -4 -13 157.282 62.0528 13
1 -4 -13 174.277 59.2657 11
1 -4 -12 70.1839 72.8605 10
1 -4 -11 2762.79 303.52 10
1 -4 -10 4094.43 382.319 10
-1 4 10 3675.25 338.004 16
1 -4 -10 4410.58 328.749 23
1 -4 -10 4585.27 389.53 24
1 -4 -9 67.4711 64.3855 10
1 -4 -9 86.4651 75.2314 24
1 -4 -9 32.159 57.1543 23
1 -4 -5 809.853 146.688 9
1 -4 -4 7548.55 398.793 9
1 -4 -3 151372 1683.21 9
-1 4 2 87643 1432.87 1
1 -4 -2 84506.4 1492.16 2
-1 4 2 85952.2 1150.56 5
1 -4 -1 107413 1389.23 9
-1 4 1 108578 1269.26 5
-1 4 0 345315 2134.6 5
1 -4 0 345990 2540.88 9
1 -4 1 3130.78 256.05 9
1 -4 2 7054.84 417.004 9
1 -4 3 28693.4 895.578 9
1 -4 4 20429.3 804.203 9
1 -4 5 8869.64 566.145 9
-1 4 -6 5338.47 375.184 13
1 -4 6 5124.99 376.533 16
-1 4 -7 502.828 121.417 13
1 -4 7 604.91 149.052 16
-1 4 -8 124.317 96.9122 13
1 -4 8 148.917 80.1938 16
1 -4 9 264.718 90.4731 16
-1 4 -9 383.43 118.148 13
1 -4 10 113.864 52.9792 16
-1 4 -10 108.63 54.2634 22
1 -3 -13 415.392 88.3198 13
1 -3 -12 -95.8843 75.8337 10
1 -3 -11 176.472 89.4028 10
1 -3 -10 3625.26 355.767 10
1 -3 -9 296.514 105.381 24
1 -3 -9 224.257 100.052 10
1 -3 -9 273.55 84.9856 23
1 -3 -5 9893.27 467.478 9
1 -3 -4 76483.6 1161.99 9
1 -3 -3 18904.5 720.816 2
1 -3 -3 19332.9 542.417 9
1 -3 -2 8237.78 454.651 2
-1 3 2 9360.16 446.469 1
1 -3 -2 8580.84 352.525 9
1 -3 -1 33954.8 697.839 9
-1 3 1 34798.4 662.716 5
-1 3 1 35067.4 824.832 2
-1 3 0 16400.1 533.479 2
1 -3 0 16437.2 490.035 9
-1 3 0 16059.3 438.063 5
-1 3 -1 47752.3 760.85 5
1 -3 1 46968 869.807 9
1 -3 2 2015.4 195.479 9
-1 3 -2 2102.05 161.067 3
-1 3 -3 10900.1 405.681 3
-1 3 -7 30792.5 891.358 13
1 -3 7 30934.7 923.532 16
1 -3 8 3382.3 330.094 16
-1 3 -8 3563.58 317.404 13
-1 3 -9 775.554 146.665 13
1 -3 9 632.485 135.758 16
1 -3 10 448.857 110.819 16
-1 3 -10 732.945 132.467 13
-1 3 -11 142.051 54.0231 22
1 -2 -13 106.491 49.1398 13
1 -2 -12 130.971 79.6313 13
1 -2 -12 257.854 79.4008 11
1 -2 -11 195.046 100.668 10
1 -2 -10 6829.33 485.653 10
1 -2 -9 3042.39 268.359 23
1 -2 -9 3170.4 317.004 10
1 -2 -9 3380.08 385.795 6
1 -2 -7 79029.3 1436.87 8
1 -2 -6 13343.2 520.024 8
1 -2 -5 3042.07 218.931 8
1 -2 -4 64059.4 1008.59 9
1 -2 -4 62387.3 820.122 8
1 -2 -3 1268.61 182.189 2
1 -2 -3 1618.27 106.146 8
1 -2 -3 1614.24 143.946 9
-1 2 3 1832.3 220.186 1
1 -2 -2 56550 1104.58 2
-1 2 1 40351.2 829.225 2
1 -2 -1 41387 889.84 2
-1 2 0 93016.6 973.149 5
-1 2 0 94265.2 715.647 4
-1 2 -1 5976.23 245.541 5
1 -2 1 5853.57 257.789 9
-1 2 -2 27465.6 472.713 6
1 -2 2 27579.6 475.697 4
-1 2 -2 27025.5 519.697 3
-1 2 -3 1344.23 132.717 6
1 -2 3 1535.22 135.3 4
-1 2 -3 1651.31 146.599 3
-1 2 -4 1830.07 179.432 6
-1 2 -5 64.8511 43.7189 6
-1 2 -6 25386.3 822.734 6
-1 2 -7 26762.6 922.646 6
1 -2 7 27516 823.046 16
-1 2 -8 4014.43 323.299 13
1 -2 8 4337.62 356.67 16
-1 2 -8 4493.72 399.192 6
-1 2 -9 145.117 86.853 13
1 -2 9 108.262 76.0252 16
1 -2 10 2.47144 70.6498 16
-1 2 -10 86.5964 87.4751 13
1 -2 11 14.3475 55.5476 16
-1 2 -11 18.4719 51.2703 13
1 -1 -12 -38.4849 73.1318 13
1 -1 -11 289.409 105.934 13
1 -1 -10 62.0403 63.6009 10
1 -1 -9 2880.05 366.655 6
1 -1 -9 2359.45 281.21 10
1 -1 -8 689.284 170.86 6
1 -1 -7 5044.61 388.672 8
1 -1 -6 181.034 75.2536 8
1 -1 -5 2230.24 199.718 8
1 -1 -4 15932.8 452.051 8
1 -1 -3 37433.1 555.198 8
1 -1 -3 38147.2 978.544 2
1 -1 -3 37569.2 653.709 9
1 -1 -2 677867 3615.11 2
1 -1 -1 83235.3 1190.82 2
-1 1 0 8189.35 254.859 5
-1 1 -1 92319.7 843.698 5
1 -1 1 89627 776.701 4
-1 1 -2 68394.4 743.798 3
1 -1 2 67036.8 762.322 4
-1 1 -3 42674.4 737.76 8
-1 1 -3 42234.8 671.664 3
-1 1 -4 1055.39 145.292 8
-1 1 -4 1373.16 147.526 3
-1 1 -5 3109.77 268.253 8
-1 1 -6 578.417 141.248 8
-1 1 -7 23465.6 849.402 6
-1 1 -7 23765.5 925.899 8
1 -1 8 8316.42 469.696 16
-1 1 -8 8069.44 541.935 6
-1 1 -8 8181.39 436.343 13
-1 1 -9 20545.1 729.354 13
1 -1 9 20479.3 776.892 16
-1 1 -10 1406.1 190.193 13
1 -1 10 1430.72 213.408 16
-1 1 -11 15.7929 61.4839 13
1 -1 11 155.667 71.833 16
1 -1 12 101.737 56.3422 16
-1 1 -12 77.3839 50.5434 13
1 0 -12 212.674 80.6513 13
1 0 -12 -20.1401 52.5022 17
1 0 -11 210.105 96.9313 13
1 0 -10 5162.94 386.32 13
1 0 -9 7114.15 570.773 6
1 0 -9 6260.52 446.252 10
1 0 -8 1287.86 242.601 6
1 0 -8 874.705 170.101 10
1 0 -7 3822.74 375.159 6
1 0 -6 271.553 103.337 6
1 0 -5 143707 1755.3 8
1 0 -5 142267 1820.47 6
1 0 -4 7160.6 337.49 8
1 0 -4 4979.48 399.778 2
-1 0 3 261.542 87.4322 1
1 0 -3 328.345 71.7908 8
1 0 -3 287.242 86.1359 2
1 0 -2 19947.3 418.597 6
1 0 -2 20266.7 383.959 9
1 0 -2 20486.3 604.486 2
-1 0 2 21010.5 581.09 1
1 0 -1 3053.86 217.343 2
-1 0 0 209016 1114.56 5
-1 0 -1 13130.9 274.064 5
1 0 1 12611.5 311.416 4
-1 0 -3 531127 2231.83 3
-1 0 -3 533606 2333.87 8
-1 0 -4 4066.56 233.373 3
-1 0 -4 3685.55 239.407 8
-1 0 -5 78206.5 1236.72 8
-1 0 -6 8456.33 467.283 8
-1 0 -7 1500.39 227.549 8
-1 0 -8 8665.87 590.404 8
-1 0 -9 114561 1660.86 13
1 0 9 114496 1795.07 16
-1 0 -9 116982 2148.8 6
-1 0 -10 -14.5021 72.338 13
1 0 10 103.627 83.5923 16
-1 0 -11 435.042 107.809 13
1 0 11 627.806 145.37 16
-1 0 -12 3237.48 227.626 13
1 0 12 2931.93 237.079 16
1 1 -12 803.392 109.576 13
1 1 -11 1823.36 207.198 13
1 1 -11 1639.31 183.373 17
1 1 -10 5100.72 367.679 13
1 1 -9 292.822 117.841 13
1 1 -8 118.385 90.4642 13
1 1 -8 -23.0773 72.8561 6
1 1 -8 105.043 57.0871 10
1 1 -7 16295.8 791.131 6
1 1 -6 5651.2 429.267 6
1 1 -5 11351.4 557.96 6
1 1 -4 20362.6 792.192 2
1 1 -4 21326.4 660.484 6
1 1 -3 324169 2232.93 6
1 1 -3 320778 2728.23 2
-1 -1 3 322522 2619.39 1
1 1 -2 378246 2504.04 2
-1 -1 2 381665 2439.74 1
-1 -1 1 50132.7 754.489 2
1 1 -1 53341.8 831.736 2
-1 -1 0 32621.7 584.603 2
1 1 1 604.549 54.6538 5
1 1 1 664.663 80.2385 4
1 1 2 999999 3135.1 4
-1 -1 -3 280956 1551.71 3
-1 -1 -4 138398 1377.18 8
-1 -1 -5 86160.3 1262.3 8
-1 -1 -6 70749.9 1301.47 8
-1 -1 -7 1248.65 210.15 8
-1 -1 -8 7737.58 539.953 8
-1 -1 -9 60342.3 1633.91 8
1 1 9 60992.8 1289.87 16
1 1 10 4.30272 81.2631 16
-1 -1 -10 13.5526 73.3602 13
-1 -1 -11 4537.99 324.181 13
1 1 11 4543.11 362.287 16
-1 -1 -12 4992.38 297.44 13
1 1 12 4350.17 313.075 16
1 2 -11 3356.1 248.782 13
1 2 -11 3136.6 217.267 17
1 2 -10 1409.72 202.039 13
1 2 -10 1222.18 177.606 17
1 2 -9 503.319 133.126 17
1 2 -9 387.469 120.237 13
1 2 -8 -5.87136 89.8979 6
1 2 -8 19.863 73.4576 13
1 2 -7 -84.1623 83.4902 6
1 2 -7 97.9876 90.7872 13
1 2 -6 31593.9 1073.64 6
1 2 -5 12905.3 635.167 6
1 2 -4 34006.3 918.453 6
1 2 -3 480221 3066.9 6
1 2 -2 33949.8 724.716 6
1 2 -2 34974.3 720.873 2
-1 -2 2 32460.5 449.087 3
1 2 -1 3589.29 193.244 2
-1 -2 1 3362.62 168.588 1
-1 -2 1 3143.76 107.024 3
-1 -2 0 150430 1011.83 2
-1 -2 -1 365998 1706.61 4
1 2 1 331883 875.05 5
1 2 2 22620.9 494.024 4
1 2 3 2127.41 127.486 3
1 2 3 1969.55 150.932 7
-1 -2 -4 132722 1382.75 8
-1 -2 -4 131258 1896.18 1
-1 -2 -5 114335 1437.48 8
-1 -2 -6 5860.87 374.191 8
-1 -2 -7 5667.61 410.21 8
-1 -2 -8 215.372 117.437 8
-1 -2 -9 -8.81398 87.2162 8
1 2 9 -174.713 113.646 16
1 2 10 52.9303 75.1054 16
-1 -2 -11 192.632 90.5885 13
1 2 11 22.7711 76.3672 16
-1 -2 -12 26.1631 66.4989 13
1 2 12 -5.94012 68.3513 16
1 2 13 119.781 64.3583 16
1 3 -11 1256.58 133.982 13
1 3 -10 9071.93 428.099 13
1 3 -10 8481.31 391.781 17
1 3 -9 6812.32 413.784 17
1 3 -9 6640.67 411.043 13
1 3 -8 4231.14 345.23 13
1 3 -8 4073.03 353.427 17
1 3 -7 5490.69 386.078 13
1 3 -7 5134.62 477.667 6
1 3 -7 5249.94 389.17 17
1 3 -6 2326.96 306.552 6
1 3 -5 712.571 167.829 6
1 3 -4 175.675 97.5321 6
1 3 -3 406395 3120.53 6
1 3 -2 97174.3 1374.85 6
1 3 -1 42920.1 823.951 6
1 3 0 128378 1354.46 7
-1 -3 0 121721 1004.56 4
-1 -3 -1 115831 886.383 1
1 3 1 119756 1242.05 7
1 3 2 63988.2 896.731 7
-1 -3 -2 62866.4 930.134 1
1 3 2 61841.9 868.723 4
1 3 3 36373.2 498.913 3
1 3 3 35917.1 718.419 4
-1 -3 -3 38028.4 879.243 1
1 3 3 37866 707.171 7
-1 -3 -4 36049.4 1002.78 1
1 3 4 36069.7 756.262 7
-1 -3 -5 131.506 70.4567 8
-1 -3 -6 52051.1 1114.39 8
-1 -3 -7 14956.1 657.439 8
-1 -3 -8 1571.88 246.847 8
-1 -3 -9 1114.36 225.368 8
1 3 9 1088.96 170.584 16
1 3 10 1190.51 193.237 16
1 3 11 6753.9 450.586 16
1 3 12 32.6319 65.6305 16
1 3 13 392.235 90.513 16
1 4 -10 909.319 124.978 13
1 4 -10 796.832 122.94 22
1 4 -9 85.8409 70.9487 13
1 4 -9 -124.68 82.4421 17
1 4 -8 1481.36 204.637 17
1 4 -8 1505 209.93 13
1 4 -7 865.293 159.565 17
1 4 -7 876.625 172.739 13
1 4 -6 6918.63 536.602 6
1 4 -6 7443.65 438.92 13
1 4 -6 6689.26 439.341 17
1 4 -5 8279.52 563.246 6
1 4 -4 12821.5 657.409 6
1 4 -3 25603.8 853.286 6
1 4 -2 726.446 127.202 6
1 4 -1 96279.1 1394.4 6
1 4 0 132.562 61.7009 7
1 4 1 15043.4 522.446 7
1 4 2 10738.2 428.164 7
-1 -4 -3 65460.7 1138.56 1
1 4 3 64013.9 1030.82 7
1 4 3 64148.6 989.629 4
1 4 4 117.354 56.3342 7
-1 -4 -4 232.003 87.7234 1
1 4 4 106.075 53.7574 4
-1 -4 -5 47447.7 1039.32 8
-1 -4 -6 2087.76 242.514 8
-1 -4 -7 2093.05 257.997 8
-1 -4 -8 21301.6 868.824 8
1 4 9 -54.9803 91.573 21
-1 -4 -9 150.775 88.4649 8
-1 -4 -10 3902.42 338.756 24
1 4 10 3894.74 356.321 16
1 4 11 14802.2 677.314 16
1 4 12 131.694 69.5246 16
1 4 13 68.1968 51.7334 16
1 5 -9 1084.89 145.166 22
1 5 -9 1412.45 147.41 17
1 5 -8 104.483 61.4358 22
1 5 -8 -103.447 93.0912 13
1 5 -8 -96.3849 76.3456 17
1 5 -7 279.527 103.636 13
1 5 -7 39.6059 88.7226 17
1 5 -6 4103.57 344.229 13
1 5 -6 4269.03 361.559 17
1 5 -5 -77.8891 97.5627 13
1 5 -5 -70.4071 104.979 6
1 5 -5 160.897 74.7579 17
1 5 -4 -31.3449 86.6761 6
1 5 -3 10376.8 588.919 6
1 5 -1 2265.57 263.208 7
1 5 0 18900.1 701.054 7
1 5 1 37442.9 936.604 7
1 5 2 15290.7 575.101 7
1 5 3 8181.29 407.595 7
1 5 4 9709.01 448.945 7
1 5 5 2119.2 220.984 7
-1 -5 -6 29796.8 936.871 8
-1 -5 -7 16736.1 733.854 8
-1 -5 -8 3602.02 368.488 8
-1 -5 -9 3122.87 358.276 8
1 5 9 3368.52 281.758 21
1 5 10 22860.4 735.599 21
-1 -5 -11 7968.81 473.611 24
1 5 11 7338.6 483.367 16
-1 -5 -12 5020.82 340.511 24
1 5 12 4850.61 358.591 16
1 5 13 2342.65 216.54 16
1 6 -8 -65.2832 59.9318 22
1 6 -8 19.5343 43.7481 17
1 6 -7 576.181 128.402 22
1 6 -7 727.039 134.758 17
1 6 -6 -10.747 66.8745 22
1 6 -6 -26.3057 100.362 17
1 6 -5 101.641 78.9709 17
1 6 -5 211.612 100.523 22
1 6 -5 295.648 121.922 13
1 6 -4 1182.83 180.582 17
1 6 -4 1597.98 214.179 13
1 6 -4 1302.57 210.379 22
1 6 -4 1573.76 285.034 7
1 6 -3 4129.03 318.241 13
1 6 -3 3805.58 331.279 22
1 6 -3 3394.85 299.895 17
1 6 -3 3996.22 435.411 7
1 6 -2 3241.54 366.131 7
1 6 -1 81105.4 1732.75 7
1 6 0 -9.30558 54.3889 7
1 6 1 2574.64 280.202 7
1 6 2 10326.6 527.842 7
1 6 3 6140.17 392.521 7
1 6 4 861.764 145.143 7
1 6 5 24139.1 751.524 7
-1 -6 -6 106634 1839.28 8
-1 -6 -7 3182.07 337.262 8
1 6 8 14458.1 571.351 28
-1 -6 -8 13262.8 708.527 8
-1 -6 -8 15199.6 617.466 10
-1 -6 -9 3461.61 308.676 10
-1 -6 -9 3109.39 356.337 8
1 6 9 2824.78 268.864 28
1 6 9 3339.02 295.116 21
1 6 10 9606.79 496.938 21
-1 -6 -10 10988.7 541.064 10
-1 -6 -11 207.46 94.9097 24
-1 -6 -12 2307.22 239.958 24
1 6 12 2090.16 234.942 16
1 6 13 3691.65 255.504 16
1 7 -7 77.5671 60.3306 17
1 7 -7 -5.84579 56.7473 22
1 7 -6 524.299 127.39 22
1 7 -6 559.426 118.331 17
1 7 -5 1820.24 232.855 17
1 7 -5 1501.45 233.841 22
1 7 -4 4845.78 404.592 22
1 7 -4 4644.15 387.603 17
1 7 -3 7532.58 498.33 22
1 7 -3 7625.35 486.44 17
1 7 -2 3686.38 348.723 22
1 7 -2 3899.68 428.506 7
1 7 -2 3870.99 333.216 17
1 7 -1 15581 657.547 22
1 7 -1 14131.4 613.254 17
1 7 -1 16749 856.892 7
1 7 0 48157.6 1375.77 7
1 7 1 2405.99 300.337 7
1 7 2 16123.5 722.167 7
1 7 3 12640.2 607.003 7
-1 -7 -6 74553.4 1617.18 8
1 7 7 3146.38 294.462 15
1 7 7 3445.9 320.485 27
-1 -7 -7 3827.92 374.997 8
-1 -7 -7 3794.66 321.587 10
1 7 8 41343.2 995.733 28
-1 -7 -8 43697 1105.7 10
-1 -7 -9 1527.45 215.854 10
1 7 9 1320.83 192.965 21
1 7 10 2828.54 270.218 21
-1 -7 -10 2472.99 259.601 10
-1 -7 -11 2551.58 283.826 24
1 7 11 2116.24 220.289 21
-1 -7 -11 2348.29 236.836 10
1 7 12 554.795 123.194 16
-1 -7 -12 456.353 115.614 24
1 7 13 49.5273 57.4591 16
1 8 -6 6111.28 293.958 17
1 8 -6 5660.49 302.926 22
1 8 -5 54.5867 68.7933 22
1 8 -5 227.797 93.2529 17
1 8 -4 1235.56 196.997 17
1 8 -4 1029.18 188.017 22
1 8 -3 99.5447 86.6795 17
1 8 -3 22.7528 60.4517 22
1 8 -2 1165.24 198.544 22
1 8 -2 1305.53 228.28 17
1 8 -1 26.5745 74.291 22
1 8 -1 90.2901 98.7452 17
1 8 0 40861.2 1097.91 22
1 8 0 37692.2 1048.16 17
1 8 0 40997.8 1327.44 7
1 8 1 44922.9 1095.07 17
-1 -8 -1 42981.8 1147.33 12
1 8 1 45997.6 1051.25 15
1 8 1 46630.8 1356.55 7
-1 -8 -2 63025.1 1325.31 12
1 8 2 62119.9 1205.24 15
1 8 3 19856.6 680.168 15
1 8 4 19238.4 671.684 15
1 8 5 1933.07 220.198 15
1 8 6 1246.48 197.313 27
-1 -8 -6 1122.38 198.172 8
1 8 6 1357.72 186.17 15
-1 -8 -6 1454.7 204.209 10
1 8 7 44546.6 1108.23 15
-1 -8 -7 45868.1 1286.04 8
1 8 8 41035.1 1006.38 28
-1 -8 -8 43824 1139.21 10
-1 -8 -9 7183.12 462.552 10
1 8 10 1349.36 193.783 21
-1 -8 -10 1571.43 205.467 10
-1 -8 -11 2354.62 228.799 10
1 8 11 2024.62 198.108 21
-1 -8 -11 2339.36 253.532 24
1 8 12 315.925 96.8303 16
-1 -8 -12 119.636 62.5461 24
-1 -9 5 1151.67 133.189 12
-1 -9 4 6556.55 376.678 12
-1 -9 3 19.7915 70.4566 12
-1 -9 2 957.975 189.84 12
1 9 -2 1145.07 187.682 17
-1 -9 1 6338.97 471.546 12
-1 -9 0 78.0746 71.393 12
-1 -9 -1 44810.1 1200.9 12
-1 -9 -2 2948.08 303.173 12
1 9 2 3144.4 282.48 15
1 9 3 40461.8 1009.48 15
-1 -9 -3 40567.2 1075.67 12
1 9 4 395.103 112.019 15
1 9 5 -15.5563 71.9737 15
1 9 6 3551 309.695 15
-1 -9 -6 3927.48 344.777 10
-1 -9 -7 5673.99 410.335 10
1 9 7 4980.7 378.145 15
-1 -9 -8 5211.6 388.297 10
1 9 8 4946.12 337.743 28
-1 -9 -9 1311.19 189.31 10
1 9 10 2215.34 221.978 21
-1 -9 -10 2477.44 239.743 10
1 9 11 1256.66 144.817 21
-1 -9 -11 1578.29 193.91 24
-1 -9 -11 1645.08 175.498 10
1 9 12 553.216 98.6615 16
-1 -9 -12 501.41 95.7072 24
-1 -10 3 1537.34 161.053 12
-1 -10 2 72.789 60.549 12
-1 -10 1 571.452 132.664 12
-1 -10 0 592.714 141.188 12
-1 -10 -1 181.453 80.7048 12
-1 -10 -2 301.952 109.917 12
-1 -10 -3 4436.7 352.055 12
1 10 3 4620.7 331.523 15
1 10 4 1415.1 185.721 15
1 10 5 1137.45 174.125 15
1 10 6 1374.32 193.832 15
-1 -10 -6 1151.89 184.034 10
-1 -10 -7 4813.05 365.882 10
-1 -10 -8 858.446 151.033 10
-1 -10 -9 632.942 123.513 10
-1 -10 -10 274.262 80.1396 10
1 10 10 121.317 55.7608 21
1 10 11 25.0121 47.1485 21
-1 -10 -11 5.11003 34.5516 10
-1 -10 -11 32.6351 46.9682 24
-1 -11 1 171.248 52.4892 12
-1 -11 0 1199.57 148.888 12
-1 -11 -1 284.852 78.392 12
-1 -11 -2 463.608 109.863 12
-1 -11 -3 465.89 106.198 12
1 11 4 1925.3 192.932 15
1 11 5 -35.8661 56.8848 15
-1 -11 -5 103.554 73.7023 10
-1 -11 -6 1233.37 172.429 10
1 11 7 4.23489 44.9607 28
-1 -11 -7 101.539 65.361 10
-1 -11 -8 1534.59 173.877 10
1 11 9 2432.54 201.933 21
-1 -11 -9 2061.38 182.387 10
-1 -11 -10 857.376 108.36 24
-1 -11 -10 776.206 99.0057 10
-1 -12 -3 67.5587 41.933 10
-1 -12 -4 283.318 71.9206 10
-1 -12 -5 1206.23 137.961 10
-1 -12 -6 719.327 108.983 10
-1 -12 -7 192.543 58.4068 10
-1 -12 -8 552.367 81.2882 10
-2 11 7 262.91 69.5308 27
-2 11 6 -45.1155 36.293 27
2 -11 -5 94.9808 54.561 12
-2 11 5 -1.83279 33.6809 27
2 -11 -4 1212.92 154.565 12
2 -11 -3 109.599 54.3821 12
2 -11 -2 696.63 113.933 12
2 -11 -1 -15.577 30.3353 12
2 -10 -9 3573.07 218.111 10
-2 10 8 9.15783 52.9047 27
2 -10 -8 58.5693 45.8857 10
-2 10 7 514.051 113.633 27
2 -10 -7 712.829 113.464 10
-2 10 6 237.316 95.7014 27
2 -10 -6 191.074 80.1876 12
2 -10 -5 1610.57 206.619 12
-2 10 5 1319.33 181.405 27
-2 10 4 1629.33 190.569 27
2 -10 -4 1845.11 218.552 12
2 -10 -3 261.156 88.8433 12
-2 10 3 232.41 78.0035 27
2 -10 -2 135.368 62.0848 12
2 -10 -1 1173.55 166.502 16
2 -10 -1 1121.98 170.347 12
2 -10 0 35.0962 51.1785 12
2 -10 0 53.1156 59.2167 16
2 -10 1 107.377 44.7239 12
2 -10 1 136.76 60.5012 16
2 -10 2 309.831 68.9208 12
2 -10 2 336.819 72.9679 16
2 -9 -10 1167 144.077 10
-2 9 9 2746.52 252.383 27
2 -9 -9 2938.46 240.871 10
-2 9 8 155.786 77.9417 27
2 -9 -8 49.4925 58.7982 10
2 -9 -7 714.744 134.495 10
-2 9 7 773.368 149.333 27
2 -9 -6 1220.25 165.788 10
2 -9 -6 1229.15 191.973 12
-2 9 6 1015.09 173.747 27
2 -9 -5 821.949 167.297 12
-2 9 5 970.115 164.293 27
2 -9 -4 4438.7 367.788 12
-2 9 4 4790.02 366.445 27
2 -9 -3 2906.75 278.525 16
2 -9 -3 2962.27 300.914 12
-2 9 3 3067.38 289.095 27
-2 9 2 11496.2 524.93 27
2 -9 -2 11445.9 600.649 12
2 -9 -2 11239.1 552.434 16
2 -9 -1 570.625 148.425 12
2 -9 -1 654.663 142.623 16
2 -9 0 7116.55 464.702 12
2 -9 0 6787.82 420.817 16
2 -9 1 436.511 111.725 12
2 -9 1 679.988 147.355 16
2 -9 2 2012.57 214.618 16
2 -9 2 1797.73 212.574 12
2 -9 3 2477.15 212.718 12
2 -9 3 3179.66 243.821 16
2 -9 4 1216.71 132.554 16
2 -8 -11 565.568 109.629 10
2 -8 -10 138.345 89.0135 23
2 -8 -10 122.265 71.2426 10
-2 8 9 3418.03 295.449 27
2 -8 -9 3250.48 241.365 23
2 -8 -9 3452.38 277.892 24
2 -8 -9 3298.11 285.429 10
-2 8 8 1785.64 230.845 27
2 -8 -8 2033.43 233.811 10
2 -8 -7 358.715 106.148 10
-2 8 7 460.363 133.66 27
2 -8 -6 751.652 152.864 12
2 -8 -6 751.055 134.403 10
-2 8 6 748.454 158.7 27
-2 8 5 1615.33 222.621 27
2 -8 -5 1500.15 220.952 12
-2 8 4 1619.96 223.744 27
2 -8 -4 1447.66 211.07 12
2 -8 -3 -46.1087 90.8302 16
2 -8 -3 71.9377 79.7859 12
-2 8 3 -79.7712 53.2058 27
2 -8 -2 2760.39 303.089 12
2 -8 -2 2735.27 277.358 16
2 -8 -1 14306.8 683.364 12
2 -8 -1 14095.1 628.022 16
2 -8 0 474.121 133.559 12
2 -8 0 685.841 161.444 16
2 -8 1 12823 650.488 12
2 -8 1 12074.6 599.388 16
2 -8 2 8322.5 510.93 12
2 -8 2 8454.43 484.589 16
2 -8 3 -36.8067 70.675 16
2 -8 3 26.9613 50.023 12
2 -8 4 993.062 157.377 16
2 -8 5 2562.17 215.16 16
2 -7 -12 317.811 72.4221 10
2 -7 -11 103.655 66.1366 10
2 -7 -11 164.225 59.1005 23
2 -7 -10 1056.6 150.557 23
2 -7 -10 1151.18 175.701 10
2 -7 -10 939.833 159.387 24
2 -7 -9 10104 521.279 24
2 -7 -9 10623.7 549.759 10
-2 7 9 10731.8 532.686 27
2 -7 -9 11388.5 491.849 23
-2 7 8 378.366 102.085 27
2 -7 -8 361.175 119.538 24
2 -7 -8 444.045 120.521 10
-2 7 7 13650 639.53 27
2 -7 -7 13167.5 609.816 10
-2 7 6 5.90648 67.9963 27
2 -7 -6 -27.7472 65.3251 12
2 -7 -6 62.1443 62.9422 10
2 -7 -6 22.3173 50.5172 9
-2 7 5 1853.39 227.964 27
2 -7 -5 1678.26 194.653 10
2 -7 -5 1726.27 249.423 9
2 -7 -5 1497.05 210.578 12
2 -7 -5 1157.79 143.895 19
2 -7 -4 615.836 154.45 9
2 -7 -4 830.871 147.962 12
-2 7 4 570.352 142.123 27
2 -7 -4 540.16 115.872 16
2 -7 -3 36.1346 59.8658 16
2 -7 -3 26.3541 45.2127 9
2 -7 -2 8714.04 532.927 9
2 -7 -2 9012.24 469.7 16
2 -7 -2 9680.51 522.954 12
2 -7 -1 233.84 86.9943 12
2 -7 -1 168.746 87.7718 9
2 -7 -1 340.008 101.321 16
2 -7 0 18807.5 721.216 16
2 -7 0 17491.5 782.325 9
2 -7 0 20034.4 781.487 12
2 -7 1 7886.69 530.811 9
2 -7 1 9061.38 548.155 12
2 -7 1 8309.88 489.368 16
-2 7 -2 3291.11 290.28 22
2 -7 2 3275.64 337.906 12
2 -7 2 3578.77 328.502 16
2 -7 3 10057.3 573.826 12
-2 7 -3 10662.9 539.971 22
2 -7 3 10260.2 553.085 16
2 -7 4 10179.2 543.41 16
-2 7 -4 10212.6 517.524 22
-2 7 -5 4334.8 318.571 22
2 -7 5 4421.24 334.717 16
2 -7 6 1017.43 150.739 16
-2 7 -6 1049.78 138.637 22
2 -7 7 3794.34 227.494 16
2 -6 -12 -26.2452 41.7043 10
2 -6 -11 7192.29 421.307 10
2 -6 -11 6544.55 342.641 23
2 -6 -10 9837.12 471.367 23
2 -6 -10 9135.93 509.452 24
2 -6 -10 10145.5 546.2 10
-2 6 9 18078 690.363 27
2 -6 -9 19450.5 774.686 10
2 -6 -9 19179.4 686.648 23
2 -6 -9 18669.3 751.903 24
-2 6 8 18907.3 729.659 27
2 -6 -8 19443.2 761.606 24
2 -6 -8 18784.9 759.206 10
-2 6 7 107678 1729.5 27
2 -6 -7 105023 1672.3 24
2 -6 -7 105598 1711.5 10
2 -6 -6 80.2669 67.8702 9
-2 6 6 31.9197 66.0367 27
2 -6 -6 64.7765 73.3005 12
2 -6 -6 14.0346 49.7315 10
2 -6 -5 249.427 97.8595 9
2 -6 -4 6865.57 480.066 9
2 -6 -3 55172.5 1311.92 9
2 -6 -2 900.019 165.068 9
2 -6 -1 9163.82 541.717 9
2 -6 0 2800.18 310.497 9
2 -6 1 10103.4 607.556 9
-2 6 -2 6516.46 387.093 22
2 -6 2 6446.14 499.978 9
2 -6 2 6416.05 439.415 12
2 -6 2 6568.06 420.892 16
2 -6 3 4525.11 426.877 9
-2 6 -3 5578.04 379.33 22
2 -6 3 5348.17 403.485 16
-2 6 -4 4105.62 338.663 22
2 -6 4 4268.28 363.703 16
2 -6 5 236.535 102.113 16
-2 6 -5 346.283 112.04 22
-2 6 -6 4478.72 329.763 22
2 -6 6 5289.19 380.439 16
-2 6 -7 630.222 112.779 22
2 -6 7 801.922 142.778 16
2 -6 8 100.1 42.2669 16
2 -5 -12 1960.92 206.267 10
2 -5 -11 4665.99 363.072 10
2 -5 -10 -11.9037 66.6492 23
2 -5 -10 25.983 84.9309 10
2 -5 -9 3846.35 317.397 23
2 -5 -9 3447.01 334.015 24
2 -5 -9 3901.84 358.971 10
2 -5 -8 165.409 82.7936 24
2 -5 -8 316.92 105.118 10
2 -5 -7 210.405 102.461 24
-2 5 7 103.309 56.2912 27
2 -5 -7 175.021 92.9836 10
2 -5 -6 13508.3 713.108 9
2 -5 -5 145.399 85.6242 9
2 -5 -4 123.175 65.7591 9
2 -5 -3 14278.9 633.105 9
2 -5 -2 32050.6 953.465 9
2 -5 -1 36725.2 1021.95 9
2 -5 0 11703.8 598.486 9
2 -5 1 13810.9 669.774 9
2 -5 2 13446.2 690.313 9
2 -5 3 8321.67 580.029 9
-2 5 -4 712.056 137.411 22
2 -5 4 1028.62 177.794 16
2 -5 4 914.584 205.809 9
2 -5 5 199.523 107.453 9
-2 5 -5 190.367 84.7431 22
2 -5 5 -45.8291 80.7602 16
2 -5 6 931.451 172.831 16
-2 5 -6 1077.44 174.289 22
2 -5 7 5615.16 395.989 16
-2 5 -7 5436.59 370.732 22
2 -5 8 6085.5 375.05 16
-2 5 -8 4940.75 305.144 22
2 -5 9 111.146 41.9878 16
2 -5 9 94.1113 45.6427 30
2 -4 -12 8504.14 404.941 11
2 -4 -12 8264.46 418.088 10
2 -4 -11 3002.69 299.463 10
2 -4 -10 174.902 82.8506 23
2 -4 -10 80.94 74.3871 10
2 -4 -9 570.34 140.458 24
2 -4 -9 731.005 149.732 23
2 -4 -9 560.897 152.69 10
2 -4 -8 29428.7 846.818 23
2 -4 -8 28842.8 936.25 24
2 -4 -8 29106.2 935.799 10
2 -4 -6 368.838 129.624 9
2 -4 -5 37089.3 1068.36 9
2 -4 -4 72412.9 1407.63 9
2 -4 -3 6219.19 393.656 9
2 -4 -2 2725.37 256.879 9
2 -4 -1 63440.6 1242.55 9
2 -4 0 2837.08 268.223 9
2 -4 1 641.631 141.52 9
2 -4 2 49722.6 1243.1 9
2 -4 3 36.3384 51.7951 9
2 -4 4 955.606 205.517 9
-2 4 -5 8790.28 444.611 13
2 -4 5 8621.65 498.117 16
2 -4 5 7834.18 596.331 9
2 -4 6 196.04 105.878 16
-2 4 -6 280.123 102.474 13
2 -4 6 164.077 97.903 9
-2 4 -7 2786.88 278.565 22
2 -4 7 2814.43 305.915 16
-2 4 -8 -38.869 67.5081 22
2 -4 8 51.2026 69.9205 16
2 -4 9 88.722 67.6748 16
2 -4 10 5.48808 38.6585 16
2 -3 -12 10769.7 444.954 13
2 -3 -12 10426 466.302 10
2 -3 -12 10709.8 451.396 11
2 -3 -11 232.37 96.1963 10
2 -3 -10 58.2735 73.443 23
2 -3 -10 -41.781 101.355 10
2 -3 -9 4014.38 331.025 23
2 -3 -9 3552.43 351.647 10
2 -3 -8 173.328 93.6561 23
2 -3 -8 19.4069 61.0494 24
2 -3 -8 60.1675 62.9878 10
2 -3 -5 7450.67 462.417 9
2 -3 -4 12783.5 558.074 9
2 -3 -3 22806.7 706.294 9
2 -3 -2 39785.7 905.751 9
2 -3 -1 224.601 73.4683 9
-2 3 1 172.435 61.2058 5
2 -3 0 9466.21 443.545 9
-2 3 0 9236.7 418.327 5
2 -3 1 6697.51 386.758 9
-2 3 -1 7080.26 363.809 5
2 -3 2 52591.7 1163.64 9
2 -3 3 32.2412 52.958 9
2 -3 4 53.0799 73.6401 9
2 -3 5 855.75 198.962 9
2 -3 6 3187.41 386.259 9
2 -3 6 4072.55 343.867 16
2 -3 7 1319.67 212.367 16
-2 3 -7 1235.73 179.894 13
2 -3 7 1029.77 227.015 9
-2 3 -8 2519.19 258.685 13
2 -3 8 2385.15 277.82 16
2 -3 9 4987.91 376.864 16
2 -3 10 4658.23 312.88 16
2 -2 -12 -69.3485 67.0557 13
2 -2 -12 45.9167 54.5222 11
2 -2 -11 455.386 130.181 10
2 -2 -11 862.117 164.789 11
2 -2 -10 1758.15 249.592 10
2 -2 -9 17.2961 72.913 23
2 -2 -9 11.5358 81.6241 10
2 -2 -8 2205.69 234.456 23
2 -2 -8 2134.16 283.355 6
2 -2 -8 2227.56 265.952 10
2 -2 -7 455.8 133.299 6
2 -2 -6 26659.3 828.151 6
2 -2 -5 11487.8 478.907 6
2 -2 -4 23342.9 700.259 9
2 -2 -3 74259.1 1170.39 9
2 -2 -2 997.443 137.761 9
2 -2 -1 104342 1331.88 9
-2 2 1 102185 1303.98 5
2 -2 0 13265.4 475.465 9
-2 2 0 13986.1 483.318 5
2 -2 1 68453 1111.08 9
-2 2 -1 68238.1 1046.98 5
2 -2 2 170623 1869.33 9
-2 2 -2 173745 1736.15 5
2 -2 3 88.6954 68.1305 9
2 -2 7 8090.47 438.354 18
2 -2 7 7669.5 474.353 16
2 -2 8 68.2093 75.9836 16
2 -2 9 8627.71 518.235 16
2 -2 10 505.659 128.371 16
2 -2 11 -28.3379 60.3907 16
2 -1 -12 1220.91 143.879 17
2 -1 -12 1271.44 144.707 13
2 -1 -11 754.813 138.187 11
2 -1 -11 603.449 119.83 13
2 -1 -10 6885.89 452.565 11
2 -1 -10 6761.25 475.816 10
2 -1 -9 1905.53 275.343 10
2 -1 -8 2121.77 223.164 23
2 -1 -8 2436.93 286.765 10
2 -1 -8 2506.91 321.591 6
2 -1 -7 7355.46 513.637 6
2 -1 -6 7982 486.856 6
2 -1 -5 27088.5 792 6
2 -1 -4 23083.4 667.815 9
2 -1 -4 21945 625.05 6
2 -1 -3 93311 1218.07 9
2 -1 -3 90828 1079.47 6
2 -1 -2 45384.5 792.594 9
2 -1 -2 48457.7 1286.31 2
2 -1 -1 27756.2 613.791 9
-2 1 1 26117.2 821.501 2
2 -1 0 189686 1612.64 9
-2 1 0 187671 1630.07 5
-2 1 0 188349 2259.45 2
2 -1 1 134872 1389.51 9
-2 1 -1 134042 1354.13 5
-2 1 -1 135152 1898.49 2
-2 1 -2 72932.8 792.019 8
2 -1 2 72284.6 1065.86 9
-2 1 -2 74849.7 1049.32 5
2 -1 3 47718.6 916.815 4
-2 1 -3 45802.1 807.779 3
-2 1 -3 45964.4 771.687 8
2 -1 4 22155.7 695.333 4
-2 1 -4 22296.1 626.925 8
-2 1 -5 84078.9 1400.23 8
-2 1 -6 10620.1 561.907 8
-2 1 -7 956.044 191.629 8
2 -1 8 1196.68 175.761 18
2 -1 8 1230.45 208.423 16
2 -1 9 1592.38 233.163 16
2 -1 10 2264.29 262.82 16
2 -1 11 124.182 73.5864 16
2 -1 12 331.612 78.3251 16
2 0 -11 178.142 67.3371 11
2 0 -11 151.035 85.8082 13
2 0 -10 15253.3 622.563 11
2 0 -10 14875 616.783 13
2 0 -9 -123.519 115.723 13
2 0 -9 -37.8676 88.9831 11
2 0 -9 88.7616 99.1078 10
2 0 -8 729.065 174.294 10
2 0 -8 861.352 193.975 6
2 0 -7 8974.52 596.618 6
2 0 -6 7676.79 504.298 6
2 0 -5 2974.09 282.679 6
2 0 -4 48797.9 1016.53 6
2 0 -3 24659 589.564 9
2 0 -3 25531.6 645.342 6
2 0 -2 97050.7 1031.1 9
2 0 -2 96406.8 1079.28 6
2 0 -1 216415 1442.47 9
2 0 -1 210650 1313.01 6
2 0 0 346476 1898.82 9
-2 0 0 342864 1994.59 5
2 0 1 26891 539.014 9
-2 0 -1 26625.1 543.714 5
-2 0 -2 7417.7 240.757 8
-2 0 -2 7647.82 307.125 5
2 0 3 78346.6 1198.54 4
-2 0 -3 76014.7 960.039 3
-2 0 -3 76358 936.357 8
-2 0 -4 173217 1603.41 3
-2 0 -4 176555 1664.61 8
2 0 4 179166 1977.8 4
-2 0 -5 70452.3 1204.86 8
-2 0 -6 5345.8 382.07 8
-2 0 -7 1334.47 212.619 8
-2 0 -8 245.023 120.145 8
2 0 8 232.868 83.9843 21
2 0 8 72.2576 80.8833 16
2 0 9 8661.49 533.753 16
2 0 10 1308.46 209.61 16
2 0 11 4620.26 358.61 16
2 0 12 1387.21 169.507 16
2 1 -11 -2.87391 53.9468 13
2 1 -11 -62.1253 67.6805 17
2 1 -10 8723.35 446.525 13
2 1 -10 8138.84 414.064 11
2 1 -9 4960.25 364.185 13
2 1 -9 5042.44 367.139 11
2 1 -8 1789.02 230.665 11
2 1 -8 1913.47 300.413 6
2 1 -8 1402.85 199.522 13
2 1 -7 8903.74 622.911 6
2 1 -7 9166.75 486.983 11
2 1 -7 7836.52 492.213 10
2 1 -6 2347.12 301.867 6
2 1 -5 24360.4 886.781 6
2 1 -4 2461.33 258.696 6
2 1 -3 32196.8 808.463 6
2 1 -2 32765.1 721.158 6
2 1 -2 30910.7 634.461 7
2 1 -1 175227 1376.59 7
2 1 -1 175349 1473.63 6
-2 -1 0 17401.6 634.77 2
2 1 0 15708 400.661 7
-2 -1 0 16990.2 397.582 5
2 1 1 7323.38 277.263 7
-2 -1 -1 7660.16 255.925 5
2 1 2 44461.6 734.467 7
-2 -1 -2 43159 633.892 8
2 1 2 44885.6 865.097 4
-2 -1 -3 41931.6 649.476 3
2 1 3 43624 913.313 4
-2 -1 -3 42279.4 708.608 8
2 1 4 182647 2000.26 4
-2 -1 -4 184670 1572.71 3
-2 -1 -4 185235 1680.98 8
-2 -1 -5 6181 353.983 8
-2 -1 -6 212990 2291.14 8
-2 -1 -7 69.8365 90.8042 8
-2 -1 -8 9384.4 592.671 8
2 1 9 437.614 122.873 21
-2 -1 -9 443.13 152.409 8
2 1 9 480.462 147.603 16
2 1 10 4466.74 379.895 16
2 1 11 16503.2 682.673 16
2 1 12 336.321 102.235 16
2 2 -11 6.07793 44.3188 13
2 2 -11 -20.9008 43.3834 17
2 2 -10 1711.13 188.688 13
2 2 -10 1860.05 209.631 17
2 2 -10 1383.08 167.462 15
2 2 -9 509.051 149.388 17
2 2 -9 251.193 91.0585 13
2 2 -8 22802.1 763.055 11
2 2 -8 21931.3 763.317 13
2 2 -7 6309.75 398.961 11
2 2 -7 6473.73 396.35 13
2 2 -7 6318.38 543.978 6
2 2 -6 175.993 104.175 6
2 2 -5 10290.7 615.863 6
2 2 -4 3228.14 322.863 6
2 2 -3 -34.7879 71.175 6
2 2 -2 10325.7 456.022 6
2 2 -2 10396.2 440.806 7
2 2 -1 99332.2 1251.71 7
2 2 -1 99271.7 1288.02 6
2 2 0 91260.9 1135.57 7
-2 -2 0 92631.1 773.656 5
-2 -2 -1 1734.21 101.293 5
2 2 1 1674.31 153.927 7
2 2 2 30424.6 651.655 7
-2 -2 -2 28521 428.257 3
2 2 2 29624.2 525.374 5
2 2 3 65625.3 1019.34 7
2 2 3 64219.3 1137.75 4
-2 -2 -3 64745.7 762.554 3
2 2 4 38684.4 950.356 4
-2 -2 -4 39533.6 698.249 3
-2 -2 -4 39440.7 817.286 8
-2 -2 -5 9999.47 450.767 8
-2 -2 -6 148799 1919.36 8
-2 -2 -7 29622.7 956.878 8
-2 -2 -8 384.379 125.178 8
-2 -2 -9 18149.5 865.668 8
2 2 9 17090.8 653.879 21
2 2 9 17346.9 729.856 16
2 2 10 6928.78 439.12 21
2 2 10 7945.96 506.185 16
2 2 11 641.465 159.868 16
2 2 12 43.6945 71.5099 16
2 2 13 464.894 92.6694 16
2 3 -10 2625.42 203.732 13
2 3 -10 2471.94 208.224 17
2 3 -9 1069.89 162.308 15
2 3 -9 1359.86 188.703 17
2 3 -9 1471.28 188.489 13
2 3 -8 84.509 73.5533 13
2 3 -8 265.004 137.831 17
2 3 -7 14379.7 602.219 13
2 3 -7 13734.1 641.268 17
2 3 -6 444.868 155.034 6
2 3 -6 472.53 117.798 13
2 3 -6 515.092 113.608 11
2 3 -5 7647.01 559.414 6
2 3 -4 828.163 183.566 6
2 3 -3 34667.4 1025.32 6
2 3 -2 112496 1658.62 7
2 3 -2 115355 1712.93 6
2 3 -1 98812.6 1452.91 7
2 3 -1 101135 1468.19 6
2 3 0 171408 1804.87 7
2 3 1 28941.9 723.885 7
-2 -3 -1 29885 760.08 2
2 3 2 18020.6 561.209 7
2 3 3 97059.7 1432.61 4
2 3 3 94817.3 1331.9 7
2 3 4 5740.78 374.964 4
2 3 4 5889.09 353.387 7
-2 -3 -5 532.908 116.725 8
-2 -3 -6 212669 2376.94 8
-2 -3 -7 6276.74 460.866 8
-2 -3 -8 2844.84 323.619 8
2 3 9 13782.3 583.189 21
-2 -3 -9 14537.3 780.178 8
2 3 9 14680.5 656.142 16
2 3 10 241.884 93.6584 21
2 3 10 395.867 115.998 16
2 3 11 2428.26 250.105 21
2 3 11 2249.76 277.98 16
2 3 12 583.641 136.646 16
2 3 13 103.996 57.7872 16
2 4 -9 3649.68 252.936 13
2 4 -9 3737.78 277.728 17
2 4 -8 1558.86 191.575 13
2 4 -8 1230.71 172.144 15
2 4 -8 1343.43 201.237 17
2 4 -7 1134.2 183.788 15
2 4 -7 1420.75 202.003 13
2 4 -7 1188.62 204.604 17
2 4 -6 21650.9 785.97 15
2 4 -6 21341.4 739.191 13
2 4 -6 22162.3 811.72 17
2 4 -5 21620.1 696.482 13
2 4 -5 24530.1 1050.62 7
2 4 -5 22246.6 780.458 17
2 4 -5 23362.8 1009.58 6
2 4 -4 6612.43 523.731 7
2 4 -4 5991.72 491.105 6
2 4 -3 959.762 189.039 6
2 4 -3 1267.16 224.561 7
2 4 -2 399.294 121.911 7
2 4 -2 314.024 107.781 6
2 4 -1 1782.3 224.942 7
2 4 0 16213.7 636.859 7
2 4 1 37403.6 939.457 7
2 4 2 1367.44 183.396 7
2 4 3 546.858 114.689 7
2 4 4 679.973 143.944 4
2 4 4 803.876 146.161 7
-2 -4 -5 -31.2814 96.2656 8
-2 -4 -6 20681 789.589 8
-2 -4 -7 10823.6 610.539 8
-2 -4 -8 412.909 162.346 8
-2 -4 -9 319.114 139.922 8
2 4 9 173.517 85.9548 21
2 4 9 230.873 92.1569 16
2 4 10 4103.66 331.631 21
2 4 10 4747.07 389.462 16
2 4 11 101.956 83.8729 21
2 4 11 -56.5883 89.5692 16
2 4 12 1354.33 176.261 21
2 4 12 1547.06 209.666 16
2 4 13 704.836 121.411 16
2 5 -9 37.2719 37.7721 17
2 5 -8 49.7211 47.8096 22
2 5 -8 212.764 86.2048 17
2 5 -7 465.719 110.865 15
2 5 -7 380.894 124.233 22
2 5 -7 618.78 130.727 13
2 5 -7 615.33 131.517 17
2 5 -6 2882.58 281.534 15
2 5 -6 3021.29 282.44 13
2 5 -6 2839.14 296.351 17
2 5 -5 -26.071 80.4105 13
2 5 -5 119.436 80.3337 7
2 5 -5 63.1334 93.8421 17
2 5 -5 57.9686 55.178 15
2 5 -4 15477.5 857.176 7
2 5 -4 13696.7 617.602 15
2 5 -4 14206.2 627.355 17
2 5 -3 674.479 173.94 7
2 5 -2 4568.81 424.49 7
2 5 -1 24432.8 931.938 7
2 5 0 74006 1545.12 7
2 5 1 40617.3 1098.21 7
2 5 2 32322.2 947.749 7
2 5 3 16772.1 668.512 7
2 5 4 6858.11 431.29 7
2 5 5 2017.88 247.194 7
-2 -5 -6 133.977 72.6781 8
-2 -5 -7 37549.7 1164.8 8
2 5 8 6362.25 395.81 21
2 5 8 6836.63 415.54 28
-2 -5 -8 6906.66 533.056 8
2 5 9 5891.21 399.932 21
-2 -5 -9 6070.25 513.872 8
2 5 10 9796.08 515.433 21
2 5 10 9214.96 555.351 16
2 5 11 81.4962 78.2849 21
2 5 11 216.921 102.029 16
2 5 12 18.107 69.7234 21
2 5 12 -98.8156 79.1693 16
2 5 13 612.227 113.604 16
2 6 -8 59.3787 47.6746 17
2 6 -7 309.617 86.3463 22
2 6 -7 298.924 89.0641 17
2 6 -6 120.703 89.8665 22
2 6 -6 87.311 86.5601 17
2 6 -5 61.0114 55.0008 15
2 6 -5 91.8485 58.5123 22
2 6 -5 95.2749 80.4172 17
2 6 -4 1046.2 187.128 22
2 6 -4 1235.46 200.105 15
2 6 -4 1380.28 217.282 17
2 6 -3 1287.21 199.114 15
2 6 -3 1366.55 201.865 22
2 6 -3 1856.38 306.545 7
2 6 -3 1508.81 213.425 17
2 6 -2 400.243 140.458 7
2 6 -2 217.117 70.5074 17
2 6 -1 149.395 95.328 7
2 6 0 49930.2 1409.26 7
2 6 1 390.852 132.239 7
2 6 2 2427.3 287.933 7
2 6 3 506.203 132.632 7
2 6 4 16.0957 54.1199 7
2 6 5 235.131 93.3663 7
-2 -6 -6 25214.6 955.077 8
-2 -6 -7 1229.21 223.862 8
2 6 8 56705.4 1215.47 21
-2 -6 -8 60418.5 1575.09 8
2 6 8 59905.2 1257.06 28
2 6 9 3107.67 300.311 21
2 6 9 3219.78 315.681 28
-2 -6 -9 3269.95 384.203 8
2 6 10 1500.73 222.957 21
-2 -6 -11 4244.84 335.3 24
2 6 11 4124.68 321.447 21
2 6 11 3635.33 350.505 16
2 6 12 1467.64 178.753 21
2 6 12 1589.32 202.601 16
2 6 13 753.466 132.302 16
2 7 -7 6.059 42.3577 17
2 7 -6 846.202 136.053 22
2 7 -6 914.03 143.15 17
2 7 -5 -17.8426 51.4301 22
2 7 -5 33.2014 87.9629 17
2 7 -4 7685.11 476.365 22
2 7 -4 7961.55 492.005 17
2 7 -4 7771.65 448.477 15
2 7 -3 1860.81 238.178 15
2 7 -3 1960.03 252.76 22
2 7 -3 1897.61 247.407 17
2 7 -2 1466.7 208.178 15
2 7 -2 1583.21 223.224 22
2 7 -2 1682.86 294.137 7
2 7 -2 1612.7 232.253 17
2 7 -1 4382.63 353.665 15
2 7 -1 4280.46 468.71 7
2 7 -1 4222.04 344.273 17
2 7 0 1940 306.356 7
2 7 0 1407.23 198.83 15
2 7 0 1801.53 225.863 17
2 7 1 18290.3 886.667 7
2 7 2 3375.94 376.725 7
2 7 3 5391.71 453.594 7
2 7 4 26974.6 979.295 7
2 7 5 11031 618.746 7
2 7 6 73.8732 84.8291 15
-2 -7 -6 -29.7248 117.6 8
2 7 7 12924.1 579.538 15
-2 -7 -7 11521.5 693.508 8
-2 -7 -7 12791.3 577.218 10
2 7 8 14586.8 645.684 28
-2 -7 -8 15470.2 801.312 8
2 7 8 15521.1 652.836 15
2 7 9 3776.29 339.315 21
2 7 9 3349.83 321.214 28
2 7 10 1537.2 208.854 21
2 7 11 5898.86 379.848 21
2 7 11 6257.92 423.625 16
-2 -7 -12 74.1084 55.495 24
2 7 12 -21.8062 52.4686 21
2 7 12 47.0654 71.8112 16
2 7 13 133.036 55.8448 16
2 8 -6 107.64 53.3776 17
2 8 -5 689.81 118.532 22
2 8 -5 931.271 144.927 17
2 8 -4 85.4396 78.2758 22
2 8 -4 66.5002 78.3568 17
2 8 -3 1026.51 166.653 15
2 8 -3 899.924 166.009 22
2 8 -3 1034.19 185.016 17
2 8 -2 5562.15 396.272 15
2 8 -2 5780.78 410.665 22
2 8 -2 5889.22 426.372 17
2 8 -1 10482 555.194 15
2 8 -1 10189.5 548.149 22
2 8 -1 10671.7 571.568 17
2 8 0 5934.83 536.893 7
2 8 0 5973.57 421.692 15
2 8 0 6362.51 433.051 17
2 8 1 104.564 76.9028 15
2 8 1 116.622 110.623 7
2 8 1 65.3255 89.2928 17
2 8 2 30873.5 1174.39 7
2 8 2 29353.2 910.351 15
2 8 3 20612.7 918.677 7
2 8 3 20328.4 749.2 15
2 8 4 13415.3 601.916 15
2 8 4 12984.8 703.155 7
2 8 5 6884.19 434.476 15
2 8 5 6147.3 472.664 7
-2 -8 -6 -57.0864 127.259 8
2 8 6 -36.3718 83.9326 15
-2 -8 -7 1816.87 230.957 10
2 8 7 1501.94 222.11 15
2 8 8 1581.6 228.898 28
-2 -8 -8 1957.49 235.634 10
2 8 8 1793.95 233.332 15
2 8 9 8463.11 494.834 21
2 8 9 8132.11 475.256 28
2 8 10 1921.4 229.803 28
2 8 10 1526.95 207.201 21
2 8 11 3524.91 278.359 21
2 8 11 3283.75 291.627 16
-2 -8 -12 3860.06 260.113 24
2 8 12 3112.38 228.197 21
2 8 12 3670.37 259.947 16
-2 -9 4 3083.43 235.88 12
2 9 -3 123.767 82.3867 17
2 9 -2 382.882 118.173 17
2 9 -1 -44.1129 62.8226 15
-2 -9 1 -65.3118 66.8934 12
2 9 -1 -62.6321 90.5869 17
2 9 0 487.79 123.8 15
-2 -9 0 358.365 113.119 12
-2 -9 -1 8166.45 480.434 12
2 9 1 9933.29 539.177 15
2 9 2 -18.414 117.186 15
2 9 3 50131 1202.32 15
2 9 4 19174.9 752.955 15
2 9 5 74096.8 1450.77 15
2 9 6 20117.2 755.211 15
-2 -9 -7 9893.86 528.748 10
2 9 7 8926.5 512.966 15
-2 -9 -8 8720.01 485.513 10
2 9 8 8930.4 498.684 28
2 9 9 8831.2 488.666 21
2 9 9 7901.69 448.471 28
-2 -9 -9 8247.4 440.08 10
2 9 10 6977.28 401.367 21
2 9 10 6091.93 364.225 28
2 9 11 329.914 92.9858 21
2 9 11 179.934 62.1494 16
-2 -9 -12 479.942 87.425 24
2 9 12 395.531 76.5561 21
2 9 12 438.688 83.8297 16
-2 -10 2 1510.16 162.942 12
-2 -10 1 182.952 75.0374 12
2 10 0 202.378 87.3818 15
-2 -10 0 166.502 84.6749 12
2 10 1 131.801 81.0687 15
-2 -10 -1 12.7226 47.3363 12
2 10 2 374.151 116.337 15
2 10 3 23.0765 89.9455 15
2 10 4 571.813 141.006 15
2 10 5 10829 541.116 15
2 10 6 36.4546 84.9839 15
-2 -10 -6 -42.4656 72.5408 10
-2 -10 -7 8.93496 60.6849 10
2 10 7 28.1011 82.1504 15
-2 -10 -8 4840.22 335.308 10
2 10 8 5194.96 349.211 28
-2 -10 -9 4.37727 46.2899 10
2 10 9 70.3721 91.7104 21
2 10 9 6.56365 69.1539 28
2 10 10 1978.92 194.004 21
-2 -10 -10 1772.19 161.017 10
-2 -10 -11 35.6578 47.5347 24
2 10 11 69.2702 54.3324 21
2 10 11 -92.9774 52.4815 16
2 11 0 72.4388 53.8722 25
2 11 2 90.1528 46.8798 15
2 11 3 1244.91 161.073 15
2 11 3 1261.89 170.444 25
2 11 4 3116.25 256.893 15
-2 -11 -5 1339.39 189.701 10
2 11 5 1356.93 180.881 15
-2 -11 -6 283.124 99.6936 10
2 11 6 343.709 92.752 15
2 11 7 1455.16 180.656 28
-2 -11 -7 1161.84 156.365 10
-2 -11 -8 40.3873 40.2198 10
2 11 8 36.8626 64.3883 28
2 11 9 413.225 94.8105 21
2 11 9 249.172 63.4392 28
-2 -11 -9 281.718 69.8049 10
2 11 10 -0.03298 44.0347 21
-2 -12 -3 442.521 80.459 10
-2 -12 -4 347.116 73.803 10
-2 -12 -5 382.649 79.2355 10
2 12 6 41.6334 41.8319 28
-2 -12 -6 -21.4674 35.2654 10
-2 -12 -7 232.487 59.3392 10
-3 10 7 2864.13 209.232 27
-3 10 6 65.2032 55.3981 27
-3 10 5 -18.4101 50.4419 27
-3 10 4 1769.55 182.22 27
3 -10 -4 1880.54 191.141 12
-3 10 3 430.859 90.3017 27
3 -10 -3 524.043 102.112 12
-3 10 2 281.125 68.6496 27
3 -10 -2 381.392 85.7197 12
3 -10 -1 75.7491 33.8152 12
3 -10 1 1345.45 127.751 16
-3 9 8 469.159 92.0898 27
3 -9 -8 397.691 72.9954 23
-3 9 7 48.878 44.3857 27
-3 9 6 53.3775 64.8502 27
-3 9 5 2159.37 235.934 27
3 -9 -5 2469.7 255.879 12
-3 9 4 190.883 76.7172 27
3 -9 -4 187.722 75.7097 12
-3 9 3 1953.62 227.03 27
3 -9 -3 2069.71 230.28 12
-3 9 2 5198.56 351.196 27
3 -9 -2 5505.75 375.811 12
3 -9 -2 5603.31 358.817 16
3 -9 -1 401.149 106.171 16
-3 9 1 491.019 109.967 27
3 -9 -1 388.479 111.676 12
3 -9 0 13344.8 536.945 12
3 -9 0 13490.9 550.276 16
3 -9 1 1379.88 171.045 16
3 -9 2 203.072 66.1389 16
3 -9 2 68.9076 42.308 14
3 -9 3 108.594 50.663 16
3 -8 -10 626.419 84.0221 23
3 -8 -10 534.077 88.325 10
-3 8 9 2127.31 191.298 27
3 -8 -9 2326.84 188.081 23
3 -8 -9 2355.47 208.827 10
-3 8 8 756.983 132.658 27
3 -8 -8 737.745 129.086 10
-3 8 7 2381.53 247.649 27
-3 8 6 1041.19 171.277 27
-3 8 5 204.111 97.2747 27
3 -8 -5 153.677 69.7796 12
-3 8 4 1645.34 229.19 27
3 -8 -4 1201.2 195.395 12
-3 8 3 1386.99 210.642 27
3 -8 -3 1382.77 198.739 12
3 -8 -3 1277.17 174.496 16
3 -8 -2 3349.83 310.585 12
3 -8 -2 3184.16 282.261 16
3 -8 -2 3657.26 280.77 20
3 -8 -1 5049.96 355.385 14
3 -8 -1 5628.67 406.571 12
3 -8 -1 5916.39 394.702 16
3 -8 0 6433.99 410.205 14
3 -8 0 7221.18 448.804 12
3 -8 0 6939.74 429.224 16
3 -8 1 4624.03 347.905 14
3 -8 1 4749.86 360.61 16
3 -8 2 106.743 56.6534 14
3 -8 2 -13.7381 75.8157 16
3 -8 3 -74.6537 67.3039 16
3 -8 3 -93.3456 65.5579 14
3 -8 4 550.233 106.236 14
3 -8 4 882.912 135.949 16
3 -8 5 217.262 66.6935 16
3 -8 5 80.3652 46.977 14
3 -7 -11 -48.0071 44.8393 10
3 -7 -10 17.2317 53.3223 23
3 -7 -10 21.3822 43.8359 10
3 -7 -9 7136.47 371.046 23
3 -7 -9 7190.85 402.647 10
-3 7 8 353.13 102.138 27
3 -7 -8 374.173 105.785 10
-3 7 7 887.278 156.364 27
3 -7 -7 880.922 152.176 10
-3 7 6 1497.43 209.397 27
3 -7 -6 895.489 109.274 19
-3 7 5 10725.2 560.75 27
3 -7 -5 11007.2 585.954 12
3 -7 -5 10411.2 515.748 19
-3 7 4 4981.54 373.783 27
3 -7 -4 4597.8 373.034 12
3 -7 -4 4144.53 312.192 19
3 -7 -4 4210.77 341.055 20
3 -7 -3 3698.29 375.727 9
3 -7 -3 4000.3 317.843 20
3 -7 -3 4244.6 354.908 12
3 -7 -3 3934.22 304.442 16
3 -7 -2 567.816 140.408 9
3 -7 -2 537.338 123.527 14
3 -7 -2 705.06 130.11 20
3 -7 -2 663.279 143.842 12
3 -7 -2 694.313 135.883 16
3 -7 -1 2906.82 277.956 14
3 -7 -1 3055.63 269.484 20
3 -7 -1 3186.48 306.123 12
3 -7 -1 3242.26 285.418 16
3 -7 0 6333.52 432.543 14
3 -7 0 7045.44 448.67 12
3 -7 0 6442.32 419.221 16
3 -7 1 22151.5 833.823 14
3 -7 1 23046.7 809.355 16
3 -7 2 4689.77 376.682 16
3 -7 3 1677.62 225.66 16
3 -7 4 1039.81 175.374 16
3 -7 5 518.071 123.019 16
3 -7 6 411.875 90.941 16
3 -7 6 430.924 87.9634 30
3 -6 -11 749.294 126.029 10
3 -6 -11 884.085 113.064 29
3 -6 -11 993.549 131.463 11
3 -6 -10 16.9502 56.0521 10
3 -6 -10 19.3763 57.4804 23
3 -6 -9 2131.22 221.7 23
3 -6 -9 1727.6 219.162 10
-3 6 8 2999.23 265.362 27
3 -6 -8 3323.18 304.555 10
3 -6 -7 5658.51 409.788 19
-3 6 7 6310.12 405.695 27
3 -6 -7 6891.24 430.957 10
-3 6 6 2146.18 240.854 27
3 -6 -6 2252.55 259.519 19
-3 6 5 87649.1 1526.59 27
3 -6 -5 89306.9 1881.14 9
3 -6 -5 85997.6 1629.75 12
3 -6 -5 88742.5 1526.71 19
3 -6 -4 3100.94 341.562 9
3 -6 -4 3441.69 302.713 20
3 -6 -4 3710.81 324.066 12
3 -6 -4 3608.1 308.389 19
3 -6 -3 282.032 98.0269 14
3 -6 -3 216.09 99.8855 20
3 -6 -3 336.548 133.284 9
3 -6 -3 383.328 109.8 12
3 -6 -3 393.304 104.817 19
3 -6 -2 4973.51 350.606 14
3 -6 -2 5172.43 348.882 20
3 -6 -2 5150.5 363.073 12
3 -6 -2 4757.56 415.898 9
3 -6 -1 2272.7 294.155 9
3 -6 -1 2112.47 229.993 14
3 -6 -1 2503.88 239.654 20
3 -6 -1 2404.02 244.583 12
3 -6 -1 2416.02 237.336 16
3 -6 0 28964.2 820.346 20
3 -6 0 28498.4 891.076 14
3 -6 0 27493.4 1046.13 9
3 -6 0 27917.5 831.362 16
3 -6 1 2.70636 72.8125 9
3 -6 1 19.85 66.2604 16
3 -6 2 56537.2 1576.94 9
3 -6 2 60006.9 1309.23 16
3 -6 3 -131.399 107.3 16
3 -6 4 1675.55 229.404 16
3 -6 5 628.703 143.504 16
3 -6 6 3399.04 291.448 16
3 -6 7 100.531 70.8854 16
3 -6 7 -17.7666 49.028 30
3 -5 -11 1733.87 192.958 11
3 -5 -11 2006.07 214.174 10
3 -5 -11 1809.3 168.324 29
3 -5 -10 5032.98 337.861 23
3 -5 -10 4942.85 365.552 10
3 -5 -9 5277.27 363.473 23
3 -5 -9 4756.81 377.195 10
3 -5 -8 1145.51 179.819 23
3 -5 -8 897.838 175.342 10
3 -5 -7 1521.29 213.983 19
3 -5 -7 1663.31 226.51 10
-3 5 6 68781.6 1276.84 27
3 -5 -6 69556.9 1716.1 9
3 -5 -6 68924.3 1372.72 19
3 -5 -6 67112.3 1299.95 10
-3 5 5 4005.36 306.995 27
3 -5 -5 4184.85 410.264 9
3 -5 -5 4290 333.828 19
3 -5 -4 77186.3 1676.56 9
3 -5 -3 12487.6 662.806 9
3 -5 -2 33502 1077.17 9
3 -5 -1 13373.1 686.867 9
3 -5 0 1834.38 267.424 9
3 -5 1 894.115 196.343 9
3 -5 2 7178.1 555.857 9
3 -5 2 6867.05 407.859 20
3 -5 2 6999.95 417.927 16
3 -5 3 5010.86 485.761 9
3 -5 3 4810.55 354.243 20
3 -5 3 4754.25 364.635 16
3 -5 4 10234.6 559.842 16
3 -5 5 374.051 115.068 16
3 -5 6 -57.8516 88.6054 16
3 -5 7 735.908 154.536 16
3 -5 8 -49.275 59.8764 16
3 -5 8 -52.8485 45.2593 30
3 -4 -11 464.182 110.512 11
3 -4 -11 245.833 92.0903 10
3 -4 -10 19294.8 741.81 10
3 -4 -10 18920.2 662.311 23
3 -4 -9 -33.4163 83.5282 23
3 -4 -9 12.5836 88.7226 10
3 -4 -8 3733.69 319.169 23
3 -4 -8 2953.43 285.284 19
3 -4 -8 3357.39 330.218 10
3 -4 -7 1085.85 191.907 19
3 -4 -7 803.759 161.436 10
3 -4 -6 174.754 101.141 9
3 -4 -6 215.664 82.0687 10
3 -4 -5 8472.62 565.926 9
3 -4 -4 46389.1 1254.26 9
3 -4 -3 19355.7 786.81 9
3 -4 -2 34598 1031.37 9
3 -4 -1 2109.35 257.246 9
3 -4 0 3810.55 359.008 9
3 -4 1 800.781 167.741 9
3 -4 2 18336.8 846.594 9
3 -4 3 634.773 191.095 9
3 -4 4 31941.7 1234.21 9
3 -4 4 32757.4 943.616 20
3 -4 4 33468.7 961.354 16
3 -4 5 2369.45 349.888 9
3 -4 5 2200.77 259.461 20
3 -4 5 2394.22 272.849 16
3 -4 6 -16.2611 68.2984 16
3 -4 7 799.799 175.075 16
3 -4 8 1313.48 193.233 16
3 -4 9 14.1498 59.854 16
3 -4 9 99.3722 50.8215 30
3 -3 -11 139.605 80.6236 11
3 -3 -11 48.0027 55.6557 10
3 -3 -10 24601.5 821.12 11
3 -3 -10 23702.8 841.377 10
3 -3 -10 24195.8 706.119 29
3 -3 -9 387.345 111.866 23
3 -3 -9 447.873 132.805 10
3 -3 -8 134.521 81.2975 10
3 -3 -8 243.322 96.5753 23
3 -3 -7 7559.47 443.703 19
3 -3 -7 7368.79 431.205 23
3 -3 -7 7547.68 477.929 10
3 -3 -5 1175.86 210.247 9
3 -3 -4 3207.75 319.639 9
3 -3 -3 68379.3 1391.61 9
3 -3 -2 526.045 119.295 9
3 -3 -1 1807.82 223.419 9
3 -3 0 26221.5 864.652 9
3 -3 1 18353.7 751.831 9
3 -3 2 10574.3 601.095 9
3 -3 3 2262.66 297.827 9
3 -3 4 3485.17 400.768 9
3 -3 5 7337.41 608.564 9
3 -3 5 7407.14 423.718 18
3 -3 5 7216.61 446.503 16
3 -3 6 4102.18 462.183 9
3 -3 6 4412.66 374.074 16
3 -3 7 5.68892 83.6262 16
3 -3 8 630.496 162.191 16
3 -3 9 331.091 107.866 16
3 -3 9 269.562 90.3027 30
3 -3 10 244.81 78.7527 16
3 -2 -11 -9.88835 47.0988 13
3 -2 -11 -54.2141 61.3492 11
3 -2 -10 4392.55 354.809 11
3 -2 -10 4358.86 367.602 10
3 -2 -9 5081.35 348.031 29
3 -2 -9 4658.25 344.826 23
3 -2 -9 4519.55 405.051 10
3 -2 -8 49.456 73.095 10
3 -2 -8 115.847 81.9572 23
3 -2 -7 3750.99 297.162 23
3 -2 -7 3779.15 343.908 10
3 -2 -5 7212.99 487.562 9
3 -2 -4 2653.67 275.661 9
3 -2 -3 38178.8 970.954 9
3 -2 -2 12089.6 529.113 9
3 -2 -1 13202.4 554.585 9
3 -2 0 15135.5 603.74 9
3 -2 1 2688.17 262.811 9
3 -2 2 4792.66 368.335 9
3 -2 3 2255.37 276.227 9
3 -2 4 10327.7 630.469 9
3 -2 5 59.8226 64.169 9
3 -2 6 2518.97 358.143 9
3 -2 6 2089.3 231.851 18
3 -2 6 2305.37 252.929 16
3 -2 7 106.254 89.8702 9
3 -2 7 52.6473 76.732 18
3 -2 7 107.902 106.471 16
3 -2 8 9315.48 556.002 16
3 -2 9 1197.03 172.123 30
3 -2 9 1203.27 210.44 16
3 -2 10 955.077 162.731 16
3 -2 11 45.9658 43.6318 16
3 -1 -11 539.429 95.3335 13
3 -1 -11 316.943 92.3094 11
3 -1 -10 1057.26 147.946 13
3 -1 -10 1156.27 186.229 11
3 -1 -9 199.767 101.946 11
3 -1 -9 261.942 134.993 10
3 -1 -8 787.075 139.589 23
3 -1 -8 938.496 191.774 10
3 -1 -8 893.175 182.293 11
3 -1 -8 962.002 159.164 29
3 -1 -7 1571.64 189.035 23
3 -1 -7 1191.09 202.313 10
3 -1 -4 2740.66 258.358 9
3 -1 -3 21597.4 684.001 9
3 -1 -2 12003 490.123 9
3 -1 -1 297432 2395.87 9
3 -1 0 1555.93 177.873 9
-3 1 0 1492.37 174.737 5
3 -1 1 3224.57 263.735 9
3 -1 2 2572.19 254.599 9
3 -1 3 95340.9 1602.61 9
3 -1 4 34098.9 1031.15 9
3 -1 5 1131.46 215.951 9
3 -1 6 6799.99 549.189 9
3 -1 7 189.236 87.2153 16
3 -1 7 125.135 108.771 9
3 -1 7 -5.46492 94.2011 18
3 -1 8 4637.19 350.477 30
3 -1 8 4190.25 338.143 18
3 -1 8 4012.31 370.691 16
3 -1 9 913.29 181.806 16
3 -1 9 812.615 153.957 18
3 -1 10 120.613 92.8451 16
3 -1 11 197.849 80.1411 16
3 0 -11 519.282 101.198 17
3 0 -10 1472.52 167.459 13
3 0 -10 1482.02 188.676 11
3 0 -9 1320.61 182.985 13
3 0 -9 1282.68 204.271 11
3 0 -8 16178.6 734.321 11
3 0 -8 15272.3 734.894 10
3 0 -7 101.354 53.3958 23
3 0 -7 134.719 85.4728 10
3 0 -7 63.5121 96.3618 11
3 0 -7 -4.67456 73.7123 29
3 0 -6 70.9863 72.3664 6
3 0 -6 127.653 62.1173 11
3 0 -6 77.5406 66.3627 10
3 0 -5 2267.41 265.8 6
3 0 -3 10394 442.824 9
3 0 -2 17876.2 530.215 9
3 0 -1 565539 2888.93 9
-3 0 1 567113 3240.19 5
3 0 0 48698.8 868.563 9
-3 0 0 45960 913.198 5
3 0 1 20625.2 598.683 9
-3 0 -1 20768.2 599.645 5
3 0 2 34914.5 825.823 9
-3 0 -2 34211.5 794.637 5
3 0 3 15415.3 595.507 9
3 0 4 1467.39 201.578 9
-3 0 -5 15221.8 576.482 8
-3 0 -6 14003.6 613.132 8
3 0 7 22819.4 740.128 21
3 0 7 22214.7 721.392 18
-3 0 -7 21199.1 835.88 8
3 0 7 23349 797.944 16
3 0 8 55123.1 1188.28 18
3 0 8 55831.1 1307.32 16
3 0 9 3477.6 313.999 18
3 0 9 3273.74 331.894 16
3 0 10 1601.87 193.658 18
3 0 10 1750.93 243.84 16
3 0 11 248.896 93.6151 16
3 0 12 178.091 76.8393 16
3 1 -10 1231.93 182.415 17
3 1 -9 402.96 117.789 13
3 1 -9 499.932 130.117 11
3 1 -8 7446.78 478.696 11
3 1 -7 6819.63 469.528 11
3 1 -7 7635.1 569.723 6
3 1 -6 9116.86 513.339 11
3 1 -6 9257.08 541.505 10
3 1 -6 9346.06 609.365 6
3 1 -5 6698.19 487.152 6
3 1 -4 7220.57 467.619 6
3 1 -3 45893.7 1056.41 6
3 1 -2 21900.4 661.589 6
-3 -1 1 173284 1689.54 5
3 1 0 1684.97 158.962 7
-3 -1 0 1778.14 165.184 5
3 1 1 34566.2 723.246 7
-3 -1 -1 35019.2 714.751 5
-3 -1 -2 27569.5 648.795 5
-3 -1 -3 42737.6 786.592 3
-3 -1 -3 43503.9 764.134 8
3 1 4 27.5739 38.7673 9
-3 -1 -4 -0.13858 51.1256 8
-3 -1 -5 17024.9 603.48 8
-3 -1 -6 94047 1576.62 8
-3 -1 -7 625.198 152.752 8
3 1 8 88.1728 68.1711 16
3 1 8 184.758 97.4941 21
3 1 8 110.142 82.3588 18
-3 -1 -8 119.045 90.4536 8
3 1 9 6672.6 439.559 21
3 1 9 6925.64 420.972 18
3 1 9 7085.84 470.653 16
3 1 10 606.56 153.274 18
3 1 10 623.616 155.208 16
3 1 11 135.433 79.4504 16
3 1 12 480.985 110.1 16
3 2 -10 -126.228 65.7926 17
3 2 -10 86.5606 56.0354 15
3 2 -9 -3.84934 72.8555 17
3 2 -8 2418.94 271.33 11
3 2 -8 3109.37 303.311 17
3 2 -7 65.9004 98.8851 11
3 2 -6 45055.9 1150.27 11
3 2 -6 44897.2 1407.88 6
3 2 -5 19147.9 876.706 6
3 2 -4 11223.3 629.726 6
3 2 -3 32224.8 986.793 6
3 2 -2 19457.7 657.087 7
3 2 -2 19927.1 712.188 6
3 2 -1 31687 796.638 7
3 2 0 59419.3 1055.61 7
3 2 1 43062.5 889.432 7
3 2 2 19510.6 613.266 7
-3 -2 -3 9122.57 327.826 3
-3 -2 -3 9696.6 396.172 8
3 2 3 9546.51 452.26 7
-3 -2 -4 25131.6 688.582 8
-3 -2 -5 34282.3 875.696 8
-3 -2 -6 180.894 70.942 8
-3 -2 -7 3191.27 324.445 8
3 2 8 22663.8 761.217 21
3 2 8 22539.3 752.949 18
-3 -2 -8 21222.6 889.692 8
3 2 8 23843 797.238 16
3 2 9 754.401 164.631 21
3 2 9 640.997 144.208 18
3 2 9 752.061 151.696 16
3 2 10 5156.36 384.089 21
3 2 10 4308.08 333.273 18
3 2 10 5205.28 409.548 16
3 2 11 339.431 114.83 16
3 2 12 1155.48 162.986 16
3 3 -9 59.3186 74.7263 17
3 3 -9 91.1186 58.4987 15
3 3 -8 -21.2081 74.8508 15
3 3 -8 -31.4738 88.246 17
3 3 -7 26577.7 869.958 17
3 3 -6 16712.9 713.05 11
3 3 -6 17862.7 720.774 17
3 3 -5 6399.27 423.381 11
3 3 -5 6757.06 559.914 6
3 3 -4 56848.1 1424.31 7
3 3 -4 57034.8 1531.94 6
3 3 -3 32.8644 52.283 7
3 3 -3 -31.5733 87.3873 6
3 3 -2 49.1141 69.605 7
3 3 -1 1240.06 188.241 7
3 3 0 2809.31 263.699 7
3 3 1 2348.15 237.598 7
3 3 2 579.667 120.635 7
3 3 3 636.899 129.23 7
3 3 4 18065.7 699.036 7
-3 -3 -4 17938.1 625.443 8
-3 -3 -5 9888.66 502.823 8
-3 -3 -6 7322.7 459.592 8
-3 -3 -7 12475.1 646.526 8
3 3 8 7182.52 425.899 21
3 3 8 7022.1 416.24 18
-3 -3 -8 7623.56 537.314 8
3 3 8 7283.53 431.217 16
3 3 9 2502.76 269.695 21
3 3 9 2716.62 283.998 18
-3 -3 -9 2474.46 321.923 8
3 3 9 2845.04 296.559 16
3 3 10 2001.67 235.871 21
3 3 10 1920.07 248.144 18
3 3 10 1896.43 246.286 16
3 3 11 278.788 105.339 21
3 3 11 277.81 109.596 16
3 3 12 -36.3697 55.4096 16
3 3 13 45.691 47.776 16
3 4 -9 -50.9427 53.3795 17
3 4 -8 -47.0655 48.6047 15
3 4 -8 9.74268 58.4545 17
3 4 -7 141.519 98.5905 17
3 4 -7 146.516 93.8001 15
3 4 -6 148.315 89.1164 15
3 4 -6 42.375 77.8752 17
3 4 -5 8495.91 533.191 15
3 4 -5 7861.79 495.615 17
3 4 -4 115.194 89.0331 15
3 4 -4 174.881 99.8638 7
3 4 -4 130.572 85.9612 17
3 4 -3 161.698 90.062 7
3 4 -2 21748.1 883.133 7
3 4 -1 7555.73 502.35 7
3 4 0 784.075 166.927 7
3 4 1 124.116 76.2123 7
3 4 2 47002.8 1142.82 7
3 4 3 153633 2064.81 7
3 4 4 23483.6 836.104 7
-3 -4 -5 287.659 103.964 8
-3 -4 -6 10255.5 568.887 8
-3 -4 -7 798.273 170.203 8
3 4 8 124.347 101.597 21
3 4 8 -34.1573 112.597 18
-3 -4 -8 32.6704 76.2631 8
3 4 9 -106.452 123.958 21
3 4 9 -54.8213 88.311 18
3 4 9 -28.817 70.4436 16
3 4 10 5411.34 391.211 21
3 4 10 5587.96 372.428 18
3 4 10 5144.16 389.66 16
3 4 11 999.268 179.143 21
3 4 11 1101.54 178.65 16
3 4 12 14.0291 61.3485 21
3 4 12 73.8681 59.435 16
3 4 13 105.895 54.5479 16
3 5 -8 400.514 82.2022 15
3 5 -8 557.312 98.9205 17
3 5 -7 752.962 129.288 15
3 5 -7 583.449 119.821 17
3 5 -6 1203.6 189.271 15
3 5 -6 1154.54 195.935 17
3 5 -5 172.58 87.2233 15
3 5 -5 194.036 88.5075 17
3 5 -4 201.064 94.3849 15
3 5 -4 150.292 80.0291 7
3 5 -4 62.1954 88.7177 17
3 5 -3 -20.3278 90.6372 15
3 5 -3 28.6852 103.315 7
3 5 -3 16.9948 63.1981 17
3 5 -2 14235.8 791.096 7
3 5 -1 2510.24 325.941 7
3 5 0 18613.3 845.701 7
3 5 1 10739.2 625.398 7
3 5 2 1749.1 249.4 7
3 5 3 29430.6 995.23 7
3 5 4 21285.2 849.973 7
-3 -5 -5 44358.2 1210.54 8
3 5 5 44718.7 1253.65 7
-3 -5 -6 6933.25 498.318 8
3 5 7 446.999 128.124 21
3 5 7 492.673 126.247 28
-3 -5 -7 717.352 173.819 8
-3 -5 -8 1499.37 254.98 8
3 5 8 1631.34 212.78 21
3 5 8 1516.58 206.868 18
3 5 8 1645.66 221.415 28
3 5 9 251.539 97.6998 16
3 5 9 134.514 78.1486 18
3 5 10 9104.13 504.647 21
3 5 10 8720.42 464.276 18
3 5 10 9336.79 509.707 16
3 5 11 -33.984 79.8012 21
3 5 11 34.6137 65.2735 16
3 5 12 2902.63 249.593 21
3 5 12 2835.63 252.374 16
3 5 13 1019.65 126.229 16
3 6 -7 380.668 83.5245 15
3 6 -7 523.805 100.483 17
3 6 -6 258.911 77.8369 15
3 6 -6 117.864 70.9121 17
3 6 -5 -23.8442 61.2566 15
3 6 -5 -119.052 107.28 17
3 6 -4 3521.11 338.508 15
3 6 -4 3649.26 344.53 17
3 6 -3 110.657 76.7143 15
3 6 -3 164.702 73.8988 17
3 6 -2 97.1095 66.0569 15
3 6 -2 34.9068 80.9278 7
3 6 -2 -2.8418 62.9337 17
3 6 -1 -24.2736 64.54 15
3 6 -1 95.2308 85.9739 7
3 6 -1 -85.0449 78.2501 17
3 6 0 873.861 199.315 7
3 6 1 1200.76 235.052 7
3 6 2 16198.5 804.875 7
3 6 3 3110.83 352.982 7
3 6 4 3288.21 363.311 7
3 6 5 2039.04 288.863 7
-3 -6 -6 5672.5 473.891 8
3 6 7 23.2192 67.6477 21
3 6 7 -9.12379 66.7084 28
-3 -6 -7 32.8354 60.1673 8
3 6 8 3792.08 331.909 21
-3 -6 -8 3961.07 415.13 8
3 6 8 4256.9 358.772 28
3 6 9 12275.2 582.258 21
3 6 9 11557.3 556.866 18
3 6 9 12554.3 635.218 28
3 6 10 3706.92 323.514 21
3 6 10 3290.44 281.613 18
3 6 10 3923.11 326.777 16
3 6 11 277.287 101.464 16
3 6 11 330.321 103.95 21
3 6 12 95.0161 61.0094 16
3 6 12 122.654 72.272 21
3 7 -6 106.12 43.2278 15
3 7 -6 78.4275 53.5518 17
3 7 -5 476.366 124.778 17
3 7 -5 486.676 105.772 15
3 7 -4 3381.64 307.391 15
3 7 -4 3355.17 315.734 17
3 7 -3 6779.25 465.575 15
3 7 -3 7792.09 476.06 17
3 7 -2 29201.4 971.336 15
3 7 -2 28177.7 929.974 17
3 7 -1 10668.7 593.655 15
3 7 -1 11368.4 563.607 17
3 7 0 637.753 163.765 15
3 7 0 497.312 159.011 7
3 7 0 520.824 140.3 17
3 7 0 445.235 134.188 29
3 7 1 5148.56 406.475 15
3 7 1 5818.34 533.312 7
3 7 1 5744.78 420.715 29
3 7 2 17406 716.615 15
3 7 2 17321 898.027 7
3 7 3 1778.88 227.436 15
3 7 3 1838.28 294.551 7
3 7 4 513.995 116.798 15
3 7 4 480.762 153.882 7
3 7 5 9581.74 642.052 7
3 7 5 10990.4 533.505 15
3 7 6 3600.48 319.716 15
-3 -7 -6 3777.55 400.094 8
3 7 7 72.0533 79.6372 28
3 7 7 113.759 86.6697 15
-3 -7 -7 -2.53029 68.8608 8
3 7 8 193.192 105.115 21
3 7 8 32.1388 55.5265 15
3 7 8 -36.1096 101.527 28
3 7 9 301.669 102.071 21
3 7 9 292.843 100.465 18
3 7 9 557.968 149.865 28
3 7 10 5371.55 384.759 21
3 7 10 4501.58 319.98 18
3 7 10 5570.91 365.703 16
3 7 11 75.7175 79.8164 16
3 7 11 53.1021 70.642 21
3 7 12 2669.14 220.37 21
3 7 12 2715.5 211.595 16
3 8 -5 -61.0058 48.447 17
3 8 -4 -20.8129 55.0307 15
3 8 -4 -8.48162 54.1871 17
3 8 -3 225.153 100.656 15
3 8 -3 227.676 92.1568 25
3 8 -3 159.824 90.8625 17
3 8 -2 15175 665.169 15
3 8 -2 15260.4 648.53 17
3 8 -1 8013.53 514.974 15
3 8 -1 8674.01 499.577 17
3 8 0 818.408 173.129 15
3 8 0 1115.7 189.474 17
3 8 1 831.518 186.684 15
3 8 1 944.221 165.301 17
3 8 2 207.8 116.048 15
3 8 3 1892.76 250.954 15
3 8 3 2121.3 319.891 7
3 8 4 549.552 129.738 15
3 8 4 564.208 138.85 25
3 8 4 797.788 194.228 7
3 8 5 9529.11 545.925 15
3 8 6 97.2474 93.3696 15
3 8 7 46636.1 1183.79 28
3 8 7 47146.3 1156.74 15
3 8 8 83.3175 114.852 21
3 8 8 -59.7492 84.852 28
3 8 8 10.4191 91.7061 15
3 8 9 80.1097 87.7202 21
3 8 9 -18.3959 82.0908 28
3 8 10 1545.23 199.893 21
3 8 10 1047.97 153.214 18
3 8 11 1580.34 199.462 21
3 8 12 1737.03 165.483 21
3 9 -3 582.577 103.971 15
-3 -9 3 260.031 67.184 12
3 9 -2 1060.77 152.401 15
3 9 -2 1337.57 174.623 25
3 9 -1 212.613 86.308 15
3 9 0 317.532 116.096 15
3 9 1 -118.497 102.867 15
3 9 2 1209.56 195.123 15
3 9 3 651.748 149.781 15
3 9 3 881.531 182.828 25
3 9 4 3032.61 310.172 15
3 9 4 2701.17 280.206 25
3 9 5 39078.1 1088.66 15
3 9 6 9102.1 517.048 15
3 9 7 2114.05 257.582 28
3 9 7 1880.28 241.798 15
3 9 8 16329.9 660.213 21
3 9 8 16789.5 670.478 15
3 9 8 15724.4 680.166 28
3 9 9 1437.34 205.157 21
3 9 9 1525.42 208.052 28
3 9 10 2529.5 235.713 21
3 9 10 1819.66 176.905 18
3 9 11 -23.2914 51.8885 21
3 10 -2 48.5835 42.7983 25
3 10 -1 12.3871 40.7859 15
3 10 -1 -56.8671 69.28 25
3 10 0 32.4872 50.5392 15
3 10 0 50.4137 63.415 25
3 10 1 1536.75 197.017 15
3 10 1 1639.66 212.845 25
3 10 2 103.993 89.3887 15
3 10 2 95.4777 87.2843 25
3 10 3 1556.19 210.488 15
3 10 3 1437.84 192.097 25
3 10 4 4333.3 356.205 15
3 10 4 3843.59 309.232 25
3 10 5 732.086 156.92 15
3 10 6 2709.16 278.325 15
-3 -10 -6 2691.16 251.555 10
-3 -10 -7 13802.7 532.177 10
3 10 7 15300.7 624.035 28
3 10 7 14535.3 616.664 15
3 10 8 -65.9076 87.735 21
3 10 8 14.3378 78.877 28
3 10 9 1132.66 155.572 21
3 10 9 917.757 148.945 28
3 10 10 111.736 67.0599 21
3 11 1 38.6161 40.9704 15
3 11 1 38.8037 48.047 25
3 11 2 77.8323 57.2884 15
3 11 2 -3.05516 55.4382 25
3 11 3 859.118 133.815 15
3 11 3 809.236 116.698 25
3 11 4 -28.4796 54.3492 15
-3 -11 -5 1554.28 171.936 10
3 11 5 1537.21 181.44 15
3 11 6 7088.89 375.015 15
-3 -11 -6 6167.51 322.163 10
3 11 6 6767.04 378.254 28
3 11 7 246.373 87.6018 28
-3 -11 -7 227.152 60.5053 10
3 11 7 314.182 85.9909 21
3 11 7 283.1 80.8499 15
3 11 8 197.924 69.6865 21
3 11 8 186.124 58.1944 28
3 11 9 72.0676 46.9808 21
3 11 9 116.758 51.4763 28
-4 9 7 2988.7 188.992 27
4 -9 -7 3293.84 176.899 23
-4 9 6 2682.13 201.556 27
-4 9 5 90.3043 48.3277 27
-4 9 4 2378.18 209.719 27
-4 9 3 -12.1979 53.7893 27
-4 9 2 59.2423 66.1155 27
-4 9 1 242.431 81.3706 27
-4 9 0 3032.55 200.813 27
-4 8 8 179.328 46.9294 27
4 -8 -8 193.643 53.7519 23
-4 8 7 3391.76 233.775 27
-4 8 6 657.197 114.812 27
-4 8 5 919.886 144.487 27
-4 8 4 2451.84 244.751 27
-4 8 3 797.367 149.855 27
-4 8 2 407.197 115.266 27
4 -8 -2 146.742 66.7655 20
4 -8 -1 1462.9 171.075 20
4 -8 0 2116.02 220.52 14
4 -8 0 2078.43 198.613 16
4 -8 1 1260.55 167.382 14
4 -8 1 1210.29 148.982 16
4 -8 2 5355.25 325.238 14
4 -8 2 5587.74 307.717 16
4 -8 3 290.427 75.5345 14
4 -8 3 527.279 92.4932 16
4 -7 -9 827.729 104.484 23
4 -7 -8 180.898 63.387 23
-4 7 7 8799.15 403.32 27
-4 7 6 2377.8 233.478 27
4 -7 -6 1796.03 194.591 19
-4 7 5 514.489 114.051 27
4 -7 -5 510.355 105.816 19
-4 7 4 690.22 152.415 27
4 -7 -4 602.536 139.621 19
4 -7 -3 3722.6 316.439 20
4 -7 -3 3645.08 312.878 12
4 -7 -2 1301.64 182.239 20
4 -7 -1 1348.63 196.737 14
4 -7 -1 1505.58 193.55 20
4 -7 0 8456.18 492.558 14
4 -7 0 8785.01 454.989 20
4 -7 1 500.155 131.167 14
4 -7 1 561.24 121.061 20
4 -7 1 537.193 119.689 16
4 -7 2 68.675 89.8351 14
4 -7 2 -104.515 82.5956 16
4 -7 3 2466.38 256.134 14
4 -7 3 2821.7 246.811 16
4 -7 3 2347 204.81 30
4 -7 4 4020.18 303.279 14
4 -7 4 4452.7 282.209 16
4 -7 4 3840.43 246.604 30
4 -7 5 116.34 44.3406 30
4 -7 5 237.612 68.507 14
4 -7 5 179.715 59.0946 16
4 -6 -10 1721.58 142.691 23
4 -6 -10 1630.19 146.579 29
4 -6 -9 758.113 113.263 23
4 -6 -8 -48.6552 89.325 23
4 -6 -7 -161.054 148.831 19
-4 6 6 274.245 93.5871 27
4 -6 -6 321.567 113.846 19
-4 6 5 4921.15 349.39 27
4 -6 -5 5298.79 394.461 19
4 -6 -4 4595.84 362.019 20
4 -6 -4 4689.15 361.797 19
4 -6 -3 91145.9 1589.37 20
4 -6 -3 92878.4 1588.9 12
4 -6 -3 88812.9 1485.48 19
4 -6 -2 619.621 152.124 14
4 -6 -2 640.01 151.352 20
4 -6 -2 828.336 152.047 19
4 -6 -1 1235.53 203.863 14
4 -6 -1 1204 192.308 20
4 -6 0 253.641 90.5294 14
4 -6 0 274.698 91.8669 20
4 -6 1 8394.25 525.094 14
4 -6 1 8859.7 485.611 20
4 -6 2 579.559 146.015 14
4 -6 2 449.122 111.593 20
4 -6 2 661.753 138.877 16
4 -6 3 2887.09 317.381 14
4 -6 3 2938.16 261.507 20
4 -6 3 2773.07 258.899 30
4 -6 3 3230.54 291.497 16
4 -6 4 3615.49 336.468 14
4 -6 4 3599.35 289.721 30
4 -6 4 3943.63 313.348 16
4 -6 5 306.363 105.523 14
4 -6 5 226.895 85.576 16
4 -6 5 216.854 72.8735 30
4 -6 6 54.3959 46.9962 14
4 -6 6 122.878 60.3318 16
4 -6 6 -32.3169 51.0501 30
4 -5 -10 1174.51 134.835 23
4 -5 -10 1043.75 135.69 29
4 -5 -10 846.634 113.898 11
4 -5 -9 123.307 62.7541 23
4 -5 -9 129.11 70.9066 10
4 -5 -9 224.386 93.1166 29
4 -5 -8 1095.34 161.657 23
4 -5 -7 8836.96 495.5 19
4 -5 -6 7501.08 470.99 19
-4 5 5 1048.78 164.643 27
4 -5 -5 1181.07 212.739 19
4 -5 -4 24401.4 984.697 9
4 -5 -4 24487.9 827.062 20
4 -5 -4 23303.5 795.906 19
4 -5 -3 91965.4 1893.65 9
4 -5 -3 93269.5 1594.19 20
4 -5 -3 93337.5 1539.83 19
4 -5 -2 15432.7 778.058 9
4 -5 -2 16343.9 699.548 14
4 -5 -2 15685.9 654.924 20
4 -5 -2 16144.5 622.307 19
4 -5 -1 75605.1 1738.91 9
4 -5 -1 79225 1540.46 14
4 -5 -1 78206.4 1462.31 20
4 -5 -1 79849.3 1319.72 19
4 -5 0 7513.22 561.108 9
4 -5 0 7870.4 491.761 14
4 -5 0 7906.27 471.145 20
4 -5 1 372.669 110.086 14
4 -5 1 473.059 132.51 20
4 -5 1 620.931 155.206 9
4 -5 2 11276.7 624.927 14
4 -5 2 12051.8 597.333 20
4 -5 2 11062.7 516.898 30
4 -5 3 6900.57 452.015 20
4 -5 3 6245.42 410.05 30
4 -5 3 6498.26 416.775 16
4 -5 4 11853.8 570.73 30
4 -5 4 12327.7 583.736 20
4 -5 4 12760.1 591.003 16
4 -5 5 4069.91 314.304 20
4 -5 5 4201.93 342.827 16
4 -5 5 4031.9 326.609 30
4 -5 6 1778.57 206.87 16
4 -5 6 1645.38 193.981 30
4 -5 7 225.227 80.6734 14
4 -5 7 227.534 72.7858 16
4 -5 7 317.969 79.8127 30
4 -4 -10 41.1356 46.5514 11
4 -4 -10 -5.73073 41.5135 10
4 -4 -10 72.6261 53.7651 29
4 -4 -9 1217.74 170.828 23
4 -4 -9 1045.18 156.751 11
4 -4 -9 1065.86 172.022 10
4 -4 -9 1299.85 182.46 29
4 -4 -8 8743.59 453.526 23
4 -4 -8 9195.84 477.345 11
4 -4 -8 8798.02 483.827 10
4 -4 -7 5943.21 412.976 19
4 -4 -6 442.067 164.131 19
4 -4 -5 -72.0524 71.0392 9
4 -4 -5 168.689 109.499 19
4 -4 -4 22686.1 939.552 9
4 -4 -4 23869 800.856 20
4 -4 -4 23204.4 784.488 19
4 -4 -3 678.784 158.189 9
4 -4 -3 805.551 157.556 20
4 -4 -3 549.025 110.781 19
4 -4 -2 32071.5 1081.61 9
4 -4 -2 32087.1 948.891 14
4 -4 -2 31310.1 890.814 20
4 -4 -2 31822 863.025 19
4 -4 -1 34763.8 1149.49 9
4 -4 -1 35503.2 987.15 14
4 -4 -1 34942.8 940.961 20
4 -4 0 97.8378 59.117 14
4 -4 0 -19.7624 91.9546 20
4 -4 0 30.9537 113.405 9
4 -4 1 5279.22 393.261 14
4 -4 1 5782.8 494.894 9
4 -4 1 5347.11 391.72 20
4 -4 2 5194.51 406.726 14
4 -4 2 5028.68 479.134 9
4 -4 2 4847.64 387.544 20
4 -4 2 5129.21 348.561 30
4 -4 3 952.023 164.331 30
4 -4 3 913.481 190.259 20
4 -4 3 681.709 193.839 9
4 -4 4 96.4956 86.3337 20
4 -4 4 56.3139 61.876 16
4 -4 5 4546.93 378.963 20
4 -4 5 4420.21 353.926 16
4 -4 5 4498.58 363.761 30
4 -4 6 6926.17 437.144 20
4 -4 6 6621.21 439.19 16
4 -4 6 6657.03 436.832 30
4 -4 7 7465.59 397.471 20
4 -4 7 7618.02 431.961 16
4 -4 7 7983.23 429.252 30
4 -4 8 440.312 92.8802 16
4 -4 8 292.272 76.7316 30
4 -3 -10 85.2025 53.4312 11
4 -3 -10 125.987 61.9867 29
4 -3 -9 779.932 138.132 23
4 -3 -9 736.26 148.217 11
4 -3 -9 666.618 143.387 10
4 -3 -9 794.697 136.966 29
4 -3 -8 15809.7 658.708 29
4 -3 -8 15552.6 599.943 23
4 -3 -8 15065.6 653.06 11
4 -3 -8 14506.4 648.275 10
4 -3 -7 79.6306 86.6659 23
4 -3 -7 191.315 117.045 19
4 -3 -7 -97.8132 82.534 11
4 -3 -7 48.2403 65.7318 10
4 -3 -6 4258.21 357.475 19
4 -3 -5 16287.3 779.554 9
4 -3 -5 17147.7 674.285 19
4 -3 -4 10994.3 626.725 9
4 -3 -4 11003.9 514.615 20
4 -3 -4 10469.5 517.8 19
4 -3 -3 10309.6 598.079 9
4 -3 -2 919.774 180.38 9
4 -3 -1 44426.9 1228.43 9
4 -3 0 1882.49 258.451 9
4 -3 1 1736.27 260.729 9
4 -3 2 28320.5 1081.21 9
4 -3 3 3042.85 373.516 9
4 -3 3 2615.31 303.422 20
4 -3 3 2954.85 245.122 18
4 -3 3 3071.2 280.192 30
4 -3 4 5188.16 515.638 9
4 -3 4 5114.2 428.824 20
4 -3 4 4865.93 350.365 18
4 -3 4 5570.56 395.947 30
4 -3 5 62.3915 79.5959 20
4 -3 5 61.7109 71.61 30
4 -3 5 -10.829 86.9434 16
4 -3 6 2692.66 307.998 20
4 -3 6 2651.15 276.753 16
4 -3 6 2701.72 288.734 30
4 -3 7 382.866 120.383 20
4 -3 7 293.921 106.136 30
4 -3 7 386.169 124.273 16
4 -3 8 93.4915 70.7067 20
4 -3 8 13.5265 72.1175 16
4 -3 8 1.16839 51.7282 30
4 -3 9 146.941 57.4185 16
4 -3 9 114.728 54.8616 30
4 -2 -10 188.506 80.5862 11
4 -2 -9 3247.89 293.648 11
4 -2 -9 3211.13 269.842 29
4 -2 -8 3111.28 266.209 23
4 -2 -8 2910.31 304.842 11
4 -2 -8 3077.15 314.603 10
4 -2 -8 3223.51 299.139 29
4 -2 -7 3803.04 301.907 23
4 -2 -7 3566.02 341.781 11
4 -2 -7 4065.92 355.389 10
4 -2 -7 3724.42 338.252 29
4 -2 -6 17368.4 623.893 23
4 -2 -6 16888.8 703.883 11
4 -2 -5 8189.54 460.505 19
4 -2 -4 114.527 75.5777 9
4 -2 -3 5047.59 396.783 9
4 -2 -2 12093.7 603.961 9
4 -2 -1 41614.1 1102.73 9
4 -2 0 52.3871 58.0408 9
4 -2 1 31925.1 1036.02 9
4 -2 2 4991.65 425.265 9
4 -2 3 15840.8 794.601 9
4 -2 4 371.168 162.801 9
4 -2 4 436.742 92.9538 18
4 -2 4 348.365 91.8558 30
4 -2 5 2646.3 369.446 9
4 -2 5 2581.75 266.449 18
4 -2 5 2611.2 280.369 30
4 -2 6 4220.69 353.114 18
4 -2 6 4473.59 356.805 16
4 -2 6 4886.9 384.812 30
4 -2 7 162.465 87.2533 30
4 -2 7 61.8579 103.166 18
4 -2 7 25.7641 87.2245 16
4 -2 8 31.1307 63.0936 20
4 -2 8 79.6968 49.8805 30
4 -2 8 82.7964 77.071 16
4 -2 9 93.6386 44.1627 30
4 -2 9 134.329 68.8383 20
4 -2 9 107.926 73.9799 16
4 -2 10 13.1632 41.9484 16
4 -1 -10 2954.04 234.61 11
4 -1 -9 1660.36 184.509 29
4 -1 -9 1946.5 234.536 11
4 -1 -8 2187.43 213.057 23
4 -1 -8 2475.14 284.167 11
4 -1 -8 2278.22 246.947 29
4 -1 -7 5427.73 344.748 23
4 -1 -7 5946.06 443.399 11
4 -1 -7 5586.28 427.714 10
4 -1 -7 6748 440.407 29
4 -1 -6 10398 557.367 29
4 -1 -6 11102.3 578.886 11
4 -1 -6 10768 577.838 10
4 -1 -5 13364.4 610.274 11
4 -1 -5 14381.7 624.387 29
4 -1 -1 23425.4 751.872 9
4 -1 0 6150.15 395.188 9
4 -1 1 6453.92 430.145 9
4 -1 2 12079.8 609.07 9
4 -1 3 17760.4 780.724 9
4 -1 4 273.87 111.177 9
4 -1 5 320.087 111.898 9
4 -1 5 428.358 112.337 18
4 -1 5 322.741 87.6093 30
4 -1 6 732.436 199.752 9
4 -1 6 953.602 170.497 18
4 -1 6 848.756 165.215 30
4 -1 7 436.775 126.731 18
4 -1 7 534.784 137.983 16
4 -1 7 461.067 123.766 30
4 -1 8 6039.07 413.393 18
4 -1 8 6644.77 440.949 16
4 -1 8 6776.12 429.24 30
4 -1 9 1580.37 207.952 16
4 -1 9 1428.05 182.266 30
4 -1 10 1033.12 150.627 20
4 -1 10 1036.68 149.739 16
4 0 -10 527.306 98.3927 17
4 0 -9 1191.71 177.744 11
4 0 -8 2952.68 318.297 11
4 0 -8 3042.58 267.281 29
4 0 -7 51.7579 94.5955 11
4 0 -7 11.2558 73.6162 29
4 0 -6 21493.2 835.13 11
4 0 -6 20465.7 817.851 10
4 0 -6 21774.5 782.33 29
4 0 -5 -25.0591 70.373 11
4 0 -5 176.179 100.711 10
4 0 -5 -6.58127 97.0585 29
4 0 3 14118.2 633.573 9
4 0 4 4599.25 396.179 9
4 0 5 5805.81 471.316 9
4 0 6 9632.76 500.878 18
4 0 6 8821.22 499.748 30
4 0 7 1352.39 243.957 9
4 0 7 2061.86 256.396 18
4 0 7 1905.35 245.969 30
4 0 8 52990.2 1184.64 30
4 0 8 51770.1 1181.13 18
4 0 9 1193.6 172.459 30
4 0 9 1487.08 211.99 18
4 0 9 1242 191.698 16
4 0 10 8981.19 422.615 18
4 0 10 8115.23 435.692 16
4 0 11 4622.95 273.626 16
4 1 -10 480.472 85.2428 15
4 1 -9 1006.09 149.75 17
4 1 -8 2188.2 261.345 11
4 1 -7 1316.43 216.101 11
4 1 -7 1379.19 190.337 29
4 1 -6 6501.78 473.458 11
4 1 -6 6800.05 434.221 29
4 1 -5 8432.36 511.182 11
4 1 -5 8755.77 486.665 29
4 1 -4 25436.1 826.269 26
4 1 -4 25387.5 832.14 11
4 1 -4 24464.9 797.645 29
4 1 6 13867.5 567.536 21
4 1 6 12780 566.355 18
4 1 7 586.202 142.205 21
4 1 7 546.591 126.613 30
4 1 7 738.734 166.482 18
4 1 8 16155.5 681.103 21
4 1 8 14892.3 655.978 18
4 1 8 15769 637.513 30
4 1 9 9510.21 515.454 18
4 1 9 9132.36 494.43 16
4 1 10 4787.18 334.913 18
4 1 10 4718.52 338.784 16
4 1 11 273.406 89.3568 16
4 2 -9 311.262 83.998 17
4 2 -9 253.447 78.2407 15
4 2 -8 163.796 88.3933 15
4 2 -8 60.4117 73.0808 17
4 2 -7 966.736 170.018 17
4 2 -6 165.627 89.099 11
4 2 -6 140.511 82.4483 17
4 2 -6 54.02 64.285 29
4 2 -5 17885.8 764.607 11
4 2 -5 17001.8 683.789 29
4 2 -4 158886 2031.95 29
4 2 -4 159285 2179.36 11
4 2 1 4899.88 337.277 7
4 2 2 411.92 103.864 7
4 2 6 3321.21 302.282 18
4 2 7 5803.47 384.505 21
4 2 7 5642.61 395.209 18
4 2 8 367.658 111.067 21
4 2 8 264.163 98.9602 18
4 2 9 16335.6 676.631 21
4 2 9 15530.1 660.433 18
4 2 10 32.6903 77.5536 18
4 2 10 29.4252 75.1474 16
4 2 11 242.582 82.0956 18
4 2 11 271.499 86.569 16
4 3 -8 1183.74 169.808 15
4 3 -8 1151.2 162.097 17
4 3 -7 461.78 138.338 15
4 3 -7 388.777 100.391 17
4 3 -6 154.882 119.815 15
4 3 -6 53.6872 74.5057 17
4 3 -5 3736.59 367.001 15
4 3 -5 4124.86 330.082 17
4 3 -5 3786.34 317.471 29
4 3 -4 147968 2173.93 15
4 3 -4 146760 1969.09 29
4 3 -3 4781.25 375.278 26
4 3 -3 4449.25 379.53 15
4 3 -3 5011.95 366.878 29
4 3 0 3985.98 339.267 7
4 3 1 7338.26 452.804 7
4 3 2 20082 756.149 7
4 3 3 23517.3 842.102 7
4 3 6 -115.283 115.104 18
4 3 7 1217.54 179.717 21
4 3 7 1224.49 194.029 18
4 3 8 8768.04 484.95 21
4 3 8 8119.19 491.878 18
4 3 9 2361.02 263.024 21
4 3 9 2217.72 255.973 18
4 3 10 255.919 113.406 21
4 3 10 269.422 105.678 18
4 3 11 1082.39 160.354 18
4 3 11 997.755 144.386 16
4 3 12 436.09 75.3338 16
4 4 -8 -56.834 51.9194 15
4 4 -8 -86.4461 56.1807 17
4 4 -7 356.176 103.743 15
4 4 -7 202.036 76.4389 17
4 4 -6 608.834 152.4 15
4 4 -6 866.156 158.509 17
4 4 -5 720.315 171.349 15
4 4 -5 773.43 155.124 17
4 4 -4 675.034 158.289 15
4 4 -4 603.258 122.992 29
4 4 -3 359.494 133.068 15
4 4 -3 217.893 78.502 29
4 4 -2 20050.3 763.781 15
4 4 -2 19545.4 676.06 25
4 4 -2 18583.8 700.623 29
4 4 -1 3759.74 369.142 7
4 4 0 2413.53 294.557 7
4 4 1 1427.25 222.794 7
4 4 2 10238.6 591.228 7
4 4 3 15783 736.762 7
4 4 4 12777.9 681.759 7
-4 -4 -4 11899.6 569.689 8
-4 -4 -5 13857.5 632.228 8
4 4 6 8671.41 455.417 18
-4 -4 -6 8485.51 521.342 8
4 4 6 9066.33 464.291 28
4 4 7 0.13397 79.8966 21
4 4 7 -72.8343 121.167 18
-4 -4 -7 -103.366 101.195 8
4 4 8 125.647 85.948 21
4 4 8 -11.0982 110.002 18
4 4 9 375.742 106.033 21
4 4 9 618.572 158.149 18
4 4 10 11.0364 81.7883 21
4 4 10 25.4521 77.9114 18
4 4 11 136.184 90.9824 21
4 4 11 74.5166 72.7773 18
4 5 -7 704.965 119.607 15
4 5 -7 777.625 115.939 17
4 5 -6 465.53 117.398 15
4 5 -6 450.731 109.095 17
4 5 -5 117.672 79.7217 15
4 5 -5 129.34 64.0902 17
4 5 -4 5.45628 90.9099 15
4 5 -4 61.8577 63.5143 17
4 5 -3 2988.3 326.536 15
4 5 -3 3039.94 294.901 29
4 5 -2 1105.55 190.969 15
4 5 -2 1194.83 191.306 25
4 5 -2 1147.11 230.808 7
4 5 -2 1087.16 159.027 29
4 5 -1 -21.1761 100.982 15
4 5 -1 4.75641 92.3917 7
4 5 -1 -123.261 117.151 29
4 5 0 41072.3 1073.35 15
4 5 0 40449 1286.95 7
4 5 0 39436.6 1012.94 25
4 5 0 37186.7 996.555 29
4 5 1 13047.7 724.854 7
4 5 2 88.3776 91.2488 7
4 5 3 451.655 137.461 7
4 5 4 64.9793 56.6512 7
4 5 5 166.675 56.9596 28
-4 -5 -5 211.478 97.5404 8
-4 -5 -6 1360.26 229.095 8
4 5 6 1454.28 195.351 28
4 5 7 4976.7 348.81 21
4 5 7 4649.41 353.896 18
-4 -5 -7 4406.63 407.522 8
4 5 7 5308.5 382.59 28
4 5 8 2522.57 255.52 21
4 5 8 2077.25 257.396 18
4 5 9 2628.8 271.192 21
4 5 9 2285.14 261.89 18
4 5 10 2349.51 252.997 21
4 5 10 2149.82 251.075 18
4 5 11 238.76 94.3716 21
4 5 11 119.361 72.8712 18
4 5 12 249.891 77.1531 21
4 6 -6 717.93 118.809 15
4 6 -6 596.272 106.613 17
4 6 -5 310.832 94.4643 15
4 6 -5 379.5 105.308 17
4 6 -4 2551.23 279.599 15
4 6 -4 2583.22 261.559 17
4 6 -3 716.171 148.504 15
4 6 -3 372.856 95.147 29
4 6 -2 14752.3 712.233 15
4 6 -2 15786.3 655.441 25
4 6 -2 14893.2 627.895 29
4 6 -1 2174.57 278.02 15
4 6 -1 2188.38 257.07 29
4 6 -1 2228.73 251.35 25
4 6 0 13924.1 675.074 15
4 6 0 14030.2 809.49 7
4 6 0 13377.2 628.063 25
4 6 0 13201.2 617.562 29
4 6 1 1730.3 286.667 7
4 6 1 1458.23 220.094 15
4 6 1 1168.22 210.805 25
4 6 1 1482.72 218.537 29
4 6 2 1000.59 171.842 15
4 6 2 639.122 147.486 25
4 6 2 791.707 191.948 7
4 6 2 876.267 165.496 29
4 6 3 -58.6941 66.0828 15
4 6 3 139.085 97.7629 25
4 6 3 -10.1405 84.7122 7
4 6 3 43.1028 79.9806 29
4 6 4 -35.4701 67.3996 25
4 6 4 44.3652 62.1916 7
-4 -6 -5 6194.67 496.289 8
4 6 5 6665.57 552.209 7
4 6 5 6811.36 415.792 28
4 6 6 982.409 168.184 28
-4 -6 -6 899.745 189.992 8
4 6 7 2276.95 241.702 21
4 6 7 2224.15 258.944 28
4 6 8 -22.4201 72.1626 21
4 6 8 -153.575 101.265 18
4 6 8 -41.4073 97.2413 28
4 6 9 2011.8 232.774 21
4 6 9 1591.84 211.692 18
4 6 10 246.57 105.084 21
4 6 10 290.931 107.937 18
4 6 11 1799.38 200.736 21
4 6 11 1402.14 176.926 18
4 6 12 367.272 90.229 21
4 7 -5 355.989 86.7464 15
4 7 -5 324.514 79.5585 17
4 7 -4 1823.39 208.532 15
4 7 -4 1572.51 189.413 17
4 7 -3 113.258 76.819 15
4 7 -3 220.551 86.9989 25
4 7 -3 126.176 75.6737 17
4 7 -2 7494.87 486.996 15
4 7 -2 8843.73 475.558 25
4 7 -2 7633.95 425.775 29
4 7 -1 4960.75 417.288 15
4 7 -1 5254.79 401.702 25
4 7 -1 4877.46 367.987 29
4 7 0 6549 481.334 15
4 7 0 7100.18 461.254 25
4 7 0 6556.12 442.144 29
4 7 1 4528.11 402.569 15
4 7 1 4526.51 380.313 25
4 7 1 4363.71 363.863 29
4 7 2 12780.5 653.512 15
4 7 2 12093.7 610.961 25
4 7 3 -21.1491 95.5645 15
4 7 3 -13.8895 75.1673 25
4 7 3 -43.4796 75.6802 7
4 7 4 -19.6168 81.8607 15
4 7 4 102.489 86.4734 25
4 7 4 132.528 105.723 7
4 7 5 2894.7 285.488 15
4 7 5 1996.16 238.194 25
4 7 6 3033.56 295.43 28
4 7 7 16597.2 647.953 21
4 7 7 16495.1 692.645 28
4 7 8 10546.6 519.582 21
4 7 8 10595.2 565.853 28
4 7 9 644.782 138.299 21
4 7 9 869.855 166.788 18
4 7 10 1526.81 201.166 21
4 7 10 1430.22 182.753 18
4 7 11 266.288 84.2776 21
4 7 11 276.648 92.1912 18
4 7 12 95.4205 49.6444 21
4 8 -4 316.761 84.8172 15
4 8 -3 12.7559 55.1493 15
4 8 -3 69.5501 52.1274 17
4 8 -2 534.729 122.562 15
4 8 -2 850.775 149.753 25
4 8 -1 4246.98 360.774 15
4 8 -1 4254.09 332.24 25
4 8 0 37114.2 1086.36 15
4 8 0 39119 1052.18 25
4 8 1 7146.6 490.845 15
4 8 1 6854.3 453.462 25
4 8 2 956.261 190.066 15
4 8 2 962.461 186.5 25
4 8 3 782.748 171.18 15
4 8 3 947.831 188.484 25
4 8 4 230.995 78.679 15
4 8 4 318.984 112.576 25
4 8 5 8588.33 500.983 15
4 8 5 7488.07 439.908 25
4 8 6 5992.16 404.239 15
4 8 6 5664.47 406.698 28
4 8 7 23523 745.68 21
4 8 7 23919.5 826.984 28
4 8 7 25406.6 798.33 15
4 8 8 9401.21 475.34 21
4 8 8 10051.1 529.114 28
4 8 9 2710.35 257.506 18
4 8 9 3097.8 298.024 28
4 8 10 17918.9 590.097 21
4 8 10 15853.3 549.603 18
4 8 11 374.582 86.4261 21
4 8 11 301.97 79.5592 18
4 9 -2 1191.12 146.476 15
4 9 -2 1603.07 156.819 25
4 9 -1 1930.85 218.124 15
4 9 -1 2146.22 213.009 25
4 9 0 194.033 92.5993 15
4 9 0 180.462 90.4377 25
4 9 1 749.691 159.77 15
4 9 1 806.219 156.939 25
4 9 2 8008.42 487.615 15
4 9 2 7526.78 459.531 25
4 9 3 1.94668 84.4551 15
4 9 3 24.7358 91.2291 25
4 9 4 2673.8 285.715 15
4 9 4 2954.03 278.482 25
4 9 5 2665.61 281.326 15
4 9 6 1674 215.471 15
4 9 6 1804.1 224.806 28
4 9 7 21.2182 79.1342 15
4 9 7 -71.7621 70.1192 21
4 9 7 90.313 79.1775 28
4 9 8 4056.4 289.857 21
4 9 8 4285.57 325.971 28
4 9 9 1952 198.061 21
4 9 9 1266.6 160.335 18
4 9 9 1841.19 214.918 28
4 9 10 2837.19 215.333 21
4 9 10 2156.66 179.551 18
4 10 0 33.8048 44.1326 15
4 10 0 26.2465 54.7791 25
4 10 1 93.8605 68.1697 15
4 10 1 301.643 93.4639 25
4 10 2 553.817 119.176 15
4 10 2 628.635 129.832 25
4 10 3 4748.97 335.204 15
4 10 3 5048.06 324.788 25
4 10 4 114.762 88.3792 15
4 10 4 146.101 82.1774 25
4 10 5 61.5941 60.0877 28
4 10 5 89.8717 79.0481 15
4 10 6 70.5959 60.9313 28
4 10 6 74.8302 67.6262 15
4 10 7 1441.87 173.893 15
4 10 7 1282.41 168.815 28
4 10 8 594.266 100.446 21
4 10 8 643.875 119.798 28
4 10 9 1880.92 158.391 21
4 10 9 1467.51 142.625 18
4 11 3 610.581 103.966 15
4 11 4 30.0043 47.9915 28
4 11 4 85.841 64.4755 15
4 11 5 984.294 123.434 28
4 11 5 703.161 113.952 15
4 11 6 1636.64 157.46 28
4 11 6 1656.69 158.924 15
4 11 7 115.405 53.5721 28
-5 8 5 920.565 105.333 27
-5 8 4 141.327 53.3557 27
-5 8 3 461.958 87.3207 27
-5 8 2 70.8652 53.3101 27
-5 8 1 769.985 119.081 27
-5 8 0 699.772 103.14 27
5 -7 -7 319.23 59.1963 23
-5 7 6 216.336 55.9592 27
-5 7 5 3021.63 217.197 27
5 -7 -5 2961.73 226.714 19
-5 7 4 93.8391 59.8593 27
5 -7 -4 -138.073 77.999 19
-5 7 3 260.21 87.5355 27
5 -7 -3 -44.5705 58.8802 19
5 -7 -2 646.085 115.898 20
5 -7 -1 13.8979 48.7674 20
5 -7 0 758.686 123.178 20
5 -7 1 -26.954 44.9325 20
5 -7 2 2491.71 220.345 14
5 -7 2 2165.07 173.484 20
5 -7 3 2937.01 218.738 14
5 -6 -8 127.252 42.2627 23
5 -6 -8 211.438 68.6188 29
5 -6 -7 -1.6782 51.6174 23
5 -6 -7 63.069 57.0682 29
5 -6 -6 10.0641 53.3454 29
5 -6 -6 -321.42 116.762 19
-5 6 5 360.069 82.5863 27
5 -6 -5 585.324 125.587 19
-5 6 4 2446.83 224.467 27
5 -6 -4 2991.89 275.232 19
5 -6 -3 698.157 148.775 20
5 -6 -3 708.158 161.723 19
5 -6 -2 14034.5 593.473 20
5 -6 -2 12924.3 523.609 19
5 -6 -1 150.065 85.2678 20
5 -6 0 14261.9 640.434 14
5 -6 0 13726.9 589.393 20
5 -6 1 9348.61 515.156 14
5 -6 1 9599 481.408 20
5 -6 2 1571.61 210.548 14
5 -6 2 1596.18 190.539 20
5 -6 3 1493.77 193.583 14
5 -6 3 1415.51 169.368 20
5 -6 4 533.072 110.148 14
5 -6 4 532.407 91.5108 20
5 -6 4 431.536 81.4745 30
5 -6 5 553.104 96.4109 14
5 -5 -8 910.292 107.298 23
5 -5 -8 943.235 133.868 29
5 -5 -7 41.7119 54.8797 23
5 -5 -7 62.863 71.2796 29
5 -5 -6 5674.96 370.834 19
5 -5 -6 5054.33 338.525 29
5 -5 -5 5498.51 382.202 19
5 -5 -5 4592.66 334.89 29
-5 5 4 376.154 99.0877 27
5 -5 -4 575.36 152.319 19
5 -5 -3 227.688 88.1704 20
5 -5 -3 260.342 113.863 19
5 -5 -2 1976.92 244.548 20
5 -5 -2 1822.99 225.458 19
5 -5 -1 30753.3 931.304 20
5 -5 -1 29911.1 858.693 19
5 -5 0 915.639 182.906 14
5 -5 0 723.23 159.062 20
5 -5 1 4722.97 390.672 14
5 -5 1 4625.79 372.521 20
5 -5 2 84.492 85.9563 14
5 -5 2 -50.7745 89.3746 20
5 -5 3 4761.57 378.443 14
5 -5 3 4739.51 358.022 20
5 -5 3 4794.51 321.984 30
5 -5 4 176.116 78.9163 14
5 -5 4 89.2224 68.6306 20
5 -5 4 114.025 55.0379 30
5 -5 5 236.917 85.5223 14
5 -5 5 264.703 76.0034 20
5 -5 5 277.047 75.5862 30
5 -5 6 6107.61 311.217 14
5 -5 6 6515.43 300.832 30
5 -4 -9 4258.86 242.289 29
5 -4 -8 253.804 74.6111 23
5 -4 -8 300.681 93.6522 29
5 -4 -7 160.722 80.4351 23
5 -4 -7 -83.0277 100.45 19
5 -4 -7 226.092 103 29
5 -4 -6 11999.7 552.506 19
5 -4 -6 12146 562.975 29
5 -4 -5 2480.6 274.669 19
5 -4 -5 1980.28 241.242 29
5 -4 -4 610.309 137.025 20
5 -4 -4 492.881 144.146 19
5 -4 -4 659.524 137.886 29
5 -4 -3 6287.7 403.641 20
5 -4 -3 5113.57 391.55 19
5 -4 -2 5694.66 405.304 20
5 -4 -2 5362.02 386.957 19
5 -4 -1 1011.53 186.133 20
5 -4 -1 615.353 80.5764 19
5 -4 0 28943.3 973.792 14
5 -4 0 29286.1 931.219 20
5 -4 1 36766.3 1085.45 14
5 -4 1 35334.8 1047.58 20
5 -4 2 18963.5 785.663 14
5 -4 2 18579.7 778.414 20
5 -4 2 17234.5 640.934 30
5 -4 3 65.0157 81.263 14
5 -4 3 143.375 103.99 20
5 -4 3 68.5133 78.7498 30
5 -4 4 1196.98 204.392 14
5 -4 4 1310.69 212.863 20
5 -4 4 1229.14 180.107 30
5 -4 5 9155.45 505.61 14
5 -4 5 10626.5 534.214 20
5 -4 5 9369.99 474.54 30
5 -4 6 1883.74 204.962 14
5 -4 6 2004.37 211.875 20
5 -4 6 1909.92 200.833 30
5 -4 7 2963.69 211.29 14
5 -4 7 3419.6 222.252 20
5 -4 7 3692 240.665 30
5 -3 -9 746.678 113.724 29
5 -3 -8 123.084 62.5174 23
5 -3 -8 129.725 75.1505 29
5 -3 -7 -59.4749 64.4702 23
5 -3 -7 -58.4335 66.8275 19
5 -3 -7 -107.928 87.3193 29
5 -3 -6 10950.8 468.606 23
5 -3 -6 11692.4 545.551 19
5 -3 -6 11669.9 567.916 29
5 -3 -5 164.06 106.883 19
5 -3 -5 -18.2879 81.0411 29
5 -3 -4 1199.1 187.927 19
5 -3 -4 1118.23 185.478 29
5 -3 -3 109.976 93.7993 20
5 -3 -3 -185.539 139.901 19
5 -3 -2 397.942 118.388 20
5 -3 -1 391.649 97.296 26
5 -3 -1 487.476 140.08 9
5 -3 -1 531.402 144.332 20
5 -3 0 230.991 100.833 14
5 -3 0 253.513 111.699 9
5 -3 0 95.4644 59.5038 20
5 -3 1 7256.79 537.202 9
5 -3 1 7323.83 480.717 14
5 -3 1 6822.08 465.801 20
5 -3 1 8576.99 457.217 31
5 -3 2 37.0793 63.4787 14
5 -3 2 -63.8577 102.957 20
5 -3 2 -71.311 46.2346 30
5 -3 3 6199.87 449.705 14
5 -3 3 5902.02 459.784 20
5 -3 3 5895.59 406.048 30
5 -3 4 1227.56 202.317 14
5 -3 4 1050.65 210.235 20
5 -3 4 1019.7 177.458 30
5 -3 5 288.846 104.196 14
5 -3 5 279.301 116.861 20
5 -3 5 429.652 121.354 30
5 -3 6 1154.19 174.176 14
5 -3 6 1008.77 194.267 20
5 -3 6 1263.56 188.343 30
5 -3 7 898.097 136.641 14
5 -3 7 1185.66 171.005 20
5 -3 7 1151.57 160.07 30
5 -3 8 3389.12 228.173 20
5 -3 8 4181.39 246.695 30
5 -2 -9 283.884 74.5881 29
5 -2 -8 1155.16 154.139 11
5 -2 -8 1059.55 159.612 29
5 -2 -7 2430.92 237.764 11
5 -2 -7 2743.79 277.405 29
5 -2 -6 14475.5 588.484 19
5 -2 -6 13137.8 624.213 29
5 -2 -5 1189.68 191.91 19
5 -2 -5 1012.03 188.591 29
5 -2 -4 20756.5 762.159 19
5 -2 -4 20060.1 779.839 29
5 -2 -3 734.498 129.04 26
5 -2 -3 667.706 143.445 29
5 -2 -2 -3.89308 54.4769 26
5 -2 -1 6457.99 387.268 26
5 -2 -1 6729.54 404.443 20
5 -2 -1 6800.56 426.944 31
5 -2 0 4953.43 364.615 20
5 -2 0 5452.35 378.87 31
5 -2 1 734.737 145.712 14
5 -2 1 421.697 111.989 20
5 -2 1 758.549 154.109 31
5 -2 2 66.7754 71.9016 14
5 -2 2 -27.6388 78.643 20
5 -2 2 59.3263 57.2919 9
5 -2 2 13.3453 88.858 31
5 -2 3 -23.1938 63.0481 14
5 -2 3 94.6283 98.6712 20
5 -2 3 -69.7289 70.6455 9
5 -2 3 -19.9793 127.054 31
5 -2 3 -25.5874 57.3239 30
5 -2 4 3684 330.658 14
5 -2 4 2872.04 333.777 20
5 -2 4 3026.52 280.276 18
5 -2 4 2730.18 289.993 30
5 -2 5 110.316 92.8355 20
5 -2 5 54.7698 87.3465 18
5 -2 5 224.918 103.163 30
5 -2 6 -43.2983 95.0256 20
5 -2 6 -157.982 94.2007 18
5 -2 6 37.3766 61.8773 30
5 -2 7 2079.73 258.531 20
5 -2 7 1815.28 216.849 30
5 -2 8 5979.84 369.047 20
5 -2 8 5940.11 341.071 30
5 -2 9 300.888 73.1229 20
5 -1 -8 109.718 74.9353 29
5 -1 -7 4536.38 342.237 11
5 -1 -7 4802.03 350.88 29
5 -1 -6 94.5071 59.6659 11
5 -1 -6 263.738 114.682 29
5 -1 -5 1167.04 186.363 26
5 -1 -5 1397.18 194.933 19
5 -1 -5 1072.28 186.051 29
5 -1 -4 23822.1 783.782 26
5 -1 -4 22653.1 780.597 19
5 -1 -4 23952.1 849.149 29
5 -1 -3 4253.23 330.2 26
5 -1 -3 4151.46 346.997 29
5 -1 -2 1277.29 178.817 26
5 -1 -2 1092.53 165.078 29
5 -1 -1 31568.2 870.961 26
5 -1 -1 31388.6 900.01 31
5 -1 0 2812.68 261.551 26
5 -1 0 3233.89 291.704 31
5 -1 1 398.695 101.843 20
5 -1 1 818.996 150.364 31
5 -1 2 530.32 139.547 20
5 -1 2 573.308 132.842 31
5 -1 3 494.964 123.342 20
5 -1 3 468.534 115.019 31
5 -1 3 457.221 126.631 30
5 -1 4 99.058 98.5276 20
5 -1 4 -92.1757 82.6673 31
5 -1 4 -27.1509 82.0441 30
5 -1 5 3502.82 379.346 20
5 -1 5 3424.84 310.599 18
5 -1 5 3274.65 324.932 30
5 -1 6 955.946 217.005 20
5 -1 6 1293.06 202.046 18
5 -1 6 1350.56 210.685 30
5 -1 7 2417.62 312.504 20
5 -1 7 2610.37 264.27 18
5 -1 7 2661 269.03 30
5 -1 8 485.722 129.372 20
5 -1 8 508.333 125.485 18
5 -1 8 391.955 112.307 30
5 -1 9 134.94 76.8332 20
5 0 -8 279.008 88.5354 15
5 0 -8 152.064 66.7378 29
5 0 -7 1521.24 206.036 29
5 0 -6 4500.54 364.662 11
5 0 -6 4836.52 374.131 29
5 0 -5 3697.53 336.31 11
5 0 -5 4296 368.004 29
5 0 -4 13372.4 619.098 26
5 0 -4 13115.8 644.394 29
5 0 -3 -24.0972 99.9009 26
5 0 -3 41.4342 80.7239 29
5 0 -2 7519.46 444.632 26
5 0 -2 7337.61 430.366 31
5 0 -2 7337.78 445.916 29
5 0 -1 18706.9 682.859 26
5 0 -1 19708.7 695.729 31
5 0 -1 17451 659.635 29
5 0 0 10038 496.202 26
5 0 0 9911.12 503.538 25
5 0 0 10192.2 506.083 31
5 0 1 1343.71 180.468 26
5 0 1 1361.79 196.295 25
5 0 1 1409.21 193.437 31
5 0 2 19486.5 721.267 25
5 0 2 19768.9 723.765 31
5 0 3 78732.2 1475.78 25
5 0 3 77258 1478.31 20
5 0 4 534.724 157.684 20
5 0 5 1708.13 225.826 18
5 0 5 1375.27 212.683 30
5 0 6 2690.46 279.475 18
5 0 6 2551.23 279.695 30
5 0 7 31.9749 98.2454 18
5 0 7 92.2699 89.6195 30
5 0 8 362.325 123.679 18
5 0 9 56.3127 68.3536 20
5 0 9 132.496 96.8132 18
5 0 10 7730.14 377.196 20
5 1 -8 4041.85 272.463 15
5 1 -8 3976.24 239.024 29
5 1 -7 670.5 139.777 15
5 1 -7 724.102 133.744 29
5 1 -6 9956.05 524.22 15
5 1 -6 11191.3 547.744 29
5 1 -5 892.779 167.559 29
5 1 -4 2006.53 261.516 26
5 1 -4 1779.7 251.335 29
5 1 -3 4997.88 391.76 26
5 1 -3 5277.35 400.52 29
5 1 -2 1605.68 200.731 26
5 1 -2 2300.84 244.14 31
5 1 -2 2347.19 269.096 29
5 1 -1 1277.42 192.003 26
5 1 -1 1068.13 182.453 25
5 1 -1 1075.79 172.293 31
5 1 -1 894.231 155.256 29
5 1 0 7668.91 434.559 31
5 1 0 7770.04 436.886 26
5 1 0 7991.34 453.781 25
5 1 1 2139.44 233.378 26
5 1 1 2522.57 269.169 25
5 1 1 1892.98 228.505 31
5 1 2 2111.52 227.024 25
5 1 3 36701.3 1000.95 25
5 1 4 3596.53 335.414 25
5 1 4 2766.35 298.091 20
5 1 5 41145.2 1039.53 18
5 1 6 3803.63 335.488 18
5 1 7 3606.06 325.965 18
5 1 8 70.696 96.2639 18
5 1 9 84.839 75.7559 18
5 1 10 3538.99 251.264 18
5 2 -8 318.467 79.3332 15
5 2 -7 41.8838 53.6826 15
5 2 -7 27.541 50.8166 29
5 2 -6 1287.02 201.804 15
5 2 -6 1829.21 217.245 29
5 2 -5 531.622 154.385 15
5 2 -5 680.757 146.849 29
5 2 -4 6157.28 435.34 15
5 2 -4 6917.13 461.367 29
5 2 -3 15065.3 676.891 26
5 2 -3 14968.3 675.001 29
5 2 -2 11844 584.68 26
5 2 -2 12368.6 607.174 29
5 2 -1 470.696 93.1569 26
5 2 -1 668.377 142.756 25
5 2 -1 753.763 140.918 29
5 2 0 18494.7 677.444 26
5 2 0 17916.2 688.95 25
5 2 0 17597.7 640.75 31
5 2 0 18567.8 689.968 29
5 2 1 273.518 89.0716 26
5 2 1 316.988 90.7631 25
5 2 2 143.758 75.3828 26
5 2 2 347.121 120.103 25
5 2 3 1492.95 193.166 26
5 2 3 1561.33 226.281 25
5 2 4 6448.32 418.886 25
5 2 5 89024.3 1548.16 25
5 2 5 87026 1507.26 18
5 2 6 3155.93 309.985 18
5 2 7 617.243 125.671 21
5 2 7 787.791 172.146 18
5 2 8 177.522 110.734 18
5 2 9 708.736 162.65 18
5 2 10 509.918 114.025 18
5 2 11 136.791 59.2963 20
5 2 11 199.304 64.5748 18
5 3 -7 4091.99 282.527 15
5 3 -6 3042.03 283.882 15
5 3 -6 3333.97 256.059 29
5 3 -5 1291.82 213.877 15
5 3 -5 1755.91 206.772 29
5 3 -4 1822.5 248.68 15
5 3 -4 2304.27 268.207 29
5 3 -3 290.226 114.523 15
5 3 -3 259.402 122.066 29
5 3 -2 108462 1754.39 26
5 3 -2 105387 1792.75 29
5 3 -1 7491.79 459.426 26
5 3 -1 7855.99 468.064 25
5 3 -1 7886.11 489.642 29
5 3 0 30513.8 875.879 26
5 3 0 29828.3 912.147 25
5 3 0 30203.3 925.236 29
5 3 1 3537.37 291.507 26
5 3 1 3222.94 304.643 25
5 3 1 3541.99 313.954 29
5 3 2 9333.91 464.724 26
5 3 2 9407.97 520.559 25
5 3 3 190.421 74.6374 26
5 3 3 126.027 94.7287 25
5 3 4 3038.2 306.749 25
5 3 5 50759.9 1187.98 25
5 3 5 55743.6 1199.49 18
5 3 6 8435.73 476.434 25
5 3 6 7974.01 482.692 18
5 3 7 19742.8 758.262 18
5 3 8 11731.8 539.144 21
5 3 8 12102.7 586.66 18
5 3 9 1597.34 202.41 21
5 3 9 2148.72 245.66 18
5 3 10 -72.4612 76.9334 18
5 3 11 204.555 67.3471 18
5 4 -6 1658.15 194.306 15
5 4 -5 199.743 100.641 15
5 4 -5 -3.63223 71.7575 29
5 4 -4 313.99 106.741 15
5 4 -4 519.923 116.918 29
5 4 -3 15.4019 67.4265 15
5 4 -3 125.602 92.4052 29
5 4 -2 10392.1 579.425 15
5 4 -2 11066.4 580.122 29
5 4 -1 3978.18 330.828 26
5 4 -1 3547.5 322.46 25
5 4 -1 2976.22 298.882 29
5 4 0 52272.3 1149.49 26
5 4 0 51378.5 1229.29 25
5 4 0 54862.5 1269.2 29
5 4 1 5335.54 356.293 26
5 4 1 5158.46 404.595 25
5 4 1 5386.06 399.268 29
5 4 2 432.298 100.143 26
5 4 2 496.05 158.19 25
5 4 2 539.327 127.527 29
5 4 3 7108.02 463.027 25
5 4 3 6807.99 424.813 29
5 4 4 4108.52 350.637 25
5 4 4 4320.75 319.458 18
5 4 5 17454.2 703.184 25
5 4 5 19243.6 705.027 18
5 4 6 540.929 106.766 25
5 4 6 859.456 167.963 18
5 4 7 10168.4 540.909 18
5 4 8 5574.34 361.871 21
5 4 8 5335.72 400.168 18
5 4 9 227.599 105.868 21
5 4 9 169.785 91.1685 18
5 4 10 3783.15 275.089 21
5 4 10 3675.37 282.615 18
5 4 11 -6.09073 47.2658 18
5 5 -6 666.858 105.784 15
5 5 -5 1423.5 179.808 15
5 5 -4 100.444 72.898 15
5 5 -4 -103.295 83.9449 29
5 5 -3 552.755 147.869 15
5 5 -3 350.692 96.127 29
5 5 -2 575.232 151.446 15
5 5 -2 466.453 117.881 25
5 5 -2 469.216 131.167 29
5 5 -1 129.819 83.0324 15
5 5 -1 254.988 84.8003 25
5 5 -1 -41.6362 109.34 29
5 5 0 1539.09 205.715 26
5 5 0 1174.1 194.058 15
5 5 0 1328.51 203.294 25
5 5 0 1403.76 217.791 29
5 5 1 598.653 151.497 25
5 5 1 831.911 166.585 29
5 5 2 1790.33 235.046 25
5 5 2 1385.73 235.772 7
5 5 2 1351.06 208.061 29
5 5 3 2576.04 285.369 25
5 5 3 2497.82 277.185 29
5 5 3 2544.42 326.135 7
5 5 4 -84.6314 106.79 25
5 5 4 176.627 221.995 29
5 5 5 111.832 84.0058 25
5 5 5 105.004 112.768 18
5 5 6 899.98 151.684 18
5 5 7 1211.73 177.295 18
5 5 8 29.5479 63.736 21
5 5 8 132.842 93.8274 18
5 5 9 8246.11 427.785 21
5 5 9 8472.31 462.214 18
5 5 10 206.113 79.4041 21
5 5 10 57.9332 64.3582 18
5 5 11 19.0563 51.5133 18
5 6 -5 4800.79 271.789 15
5 6 -4 2075.19 213.701 15
5 6 -3 1171.08 181.414 15
5 6 -3 1113.94 153.011 29
5 6 -2 3607.14 330.695 15
5 6 -2 3894.24 300.832 25
5 6 -2 3690.04 310.457 29
5 6 -1 1068.28 195.022 15
5 6 -1 1133.97 177.765 25
5 6 -1 1391.29 213.2 29
5 6 0 5203.21 419.812 15
5 6 0 5290.69 398.41 25
5 6 0 5678.07 419.815 29
5 6 1 177.212 110.152 15
5 6 1 -97.196 98.9489 25
5 6 1 162.42 107.383 29
5 6 2 -226.66 139.525 25
5 6 2 -104.067 94.0433 29
5 6 3 59.7574 87.7371 25
5 6 3 170.601 134.707 29
5 6 4 333.799 104.71 25
5 6 5 2984.53 304.594 25
5 6 6 3363.12 304.708 18
5 6 7 7550.87 451.674 18
5 6 8 -62.0878 96.5536 18
5 6 9 902.337 135.269 21
5 6 9 565.602 137.908 18
5 6 10 -144.971 72.3408 21
5 6 10 -24.2127 67.1309 18
5 6 11 77.7459 53.3673 21
5 6 11 117.756 54.1842 18
5 7 -4 413.498 83.8346 15
5 7 -3 665.604 133.186 15
5 7 -2 5243.07 365.296 15
5 7 -2 5667.12 324.383 25
5 7 -1 548.127 138.907 15
5 7 -1 819.813 155.506 25
5 7 0 5722.22 419.625 15
5 7 0 5644.03 397.106 25
5 7 0 5861.77 415.666 29
5 7 1 360.177 121.921 15
5 7 1 288.788 90.4261 25
5 7 2 847.279 175.145 15
5 7 2 743.845 149.566 25
5 7 3 921.762 173.621 15
5 7 3 901.345 183.153 25
5 7 4 7885.7 480.608 25
5 7 5 1017.17 183.285 25
5 7 7 2833.45 272.289 18
5 7 7 3273.02 282.563 28
5 7 8 471.446 128.019 18
5 7 9 2259.3 202.947 21
5 7 9 2185.17 219.478 18
5 7 10 1370.18 143.141 21
5 7 10 1787.36 182.01 18
5 8 -2 55.424 58.6401 15
5 8 -1 286.131 94.5925 15
5 8 -1 341.583 94.2004 25
5 8 0 129.926 65.8103 15
5 8 0 140.805 92.0235 25
5 8 1 148.08 82.3787 15
5 8 1 287.378 130.812 25
5 8 2 26166.8 837.16 15
5 8 2 25701.3 831.913 25
5 8 3 5530.15 388.503 15
5 8 3 5796.91 401.172 25
5 8 4 35.0917 63.7682 15
5 8 4 -93.6644 97.7683 25
5 8 5 746.816 144.717 25
5 8 6 824.198 140.085 28
5 8 7 42.7875 87.0798 18
5 8 7 162.29 88.5418 28
5 8 8 8967.82 427.455 18
5 8 9 7812.58 373.5 18
5 8 10 8351.61 338.671 18
5 9 0 1192.1 145.854 15
5 9 0 1286.71 145.314 25
5 9 1 351.796 88.8573 15
5 9 1 286 100.716 25
5 9 2 7365.23 403.256 15
5 9 2 7589.67 401.14 25
5 9 3 587.321 127.345 15
5 9 3 640.325 130.065 25
5 9 4 18517.7 619.046 15
5 9 4 17987.1 605.397 25
5 9 5 225.911 81.8248 15
5 9 5 37.3884 74.1882 25
5 9 6 252.591 79.7619 28
5 9 7 568.099 109.82 18
5 9 7 679.576 115.854 28
5 9 8 1248.03 145.861 18
5 9 9 795.198 112.622 18
5 10 3 6055.39 294.234 15
5 10 3 5182.75 270.528 25
5 10 4 10291.1 389.045 15
5 10 4 10456.9 369.823 25
5 10 5 2774.08 196.779 15
5 10 6 89.308 43.7355 18
6 -6 -4 -27.6392 70.6095 19
-6 6 3 4512.48 230.693 27
6 -6 -3 5068.57 263.311 19
-6 6 2 1658.46 153.083 27
6 -6 -2 2093.75 168.704 19
6 -6 -1 5010.92 289.352 20
6 -6 0 3416.07 237.579 20
6 -6 1 2385.76 190.107 20
6 -6 2 49.3774 36.0788 20
6 -5 -6 -297.886 84.2396 19
6 -5 -5 4200.05 258.518 19
6 -5 -4 333.902 111.525 19
6 -5 -3 2769.1 238.677 19
6 -5 -2 420.923 97.1236 20
6 -5 -2 644.498 132.718 19
6 -5 -1 5861.74 346.501 20
6 -5 -1 4963.78 304.866 19
6 -5 0 229.514 84.4411 20
6 -5 1 2712.08 236.988 20
6 -5 2 4179.11 286.5 20
6 -5 3 1771.99 145.773 26
6 -5 3 1968.2 184.983 20
6 -5 4 731.97 102.014 20
6 -4 -6 -180.932 78.8405 19
6 -4 -6 123.518 66.4681 29
6 -4 -5 3598.59 267.487 19
6 -4 -5 3590.23 244.101 29
6 -4 -4 307.165 112.196 19
6 -4 -3 163.487 102.899 19
6 -4 -2 2189 217.862 20
6 -4 -2 1946.72 225.305 19
6 -4 -1 2336.62 234.544 20
6 -4 -1 1723.88 208.983 19
6 -4 0 19104.3 583.97 26
6 -4 0 19092.5 681.426 20
6 -4 0 18437.9 641.966 19
6 -4 1 217.657 66.882 26
6 -4 1 354.249 112.313 20
6 -4 1 228.645 77.2438 19
6 -4 2 9675.33 432.623 26
6 -4 2 10264.1 503.492 20
6 -4 3 13258 552.873 20
6 -4 4 -31.2648 56.5564 20
6 -4 5 1610.74 160.488 20
6 -3 -7 225.638 72.3845 29
6 -3 -6 2390.53 198.734 19
6 -3 -6 2503.58 219.673 29
6 -3 -5 4607.38 318.379 19
6 -3 -5 4859.54 313.724 29
6 -3 -4 560.086 128.945 19
6 -3 -4 460.585 109.562 29
6 -3 -3 1013.89 168.782 19
6 -3 -2 665.775 123.111 20
6 -3 -2 364.481 80.0945 19
6 -3 -1 2466.61 227.113 26
6 -3 -1 2721.46 261.766 20
6 -3 -1 2281.76 258.59 19
6 -3 0 4552.58 321.648 26
6 -3 0 4739 347.425 20
6 -3 1 485.093 117.254 26
6 -3 1 822.447 154.166 20
6 -3 2 5654.99 364.779 26
6 -3 2 4828.69 362.544 20
6 -3 3 6876.8 439.275 20
6 -3 4 5014.55 331.127 14
6 -3 4 4562.04 350.763 20
6 -3 5 69.9513 69.1758 20
6 -3 6 378.925 90.748 20
6 -2 -7 982.736 131.38 29
6 -2 -6 419.37 109.687 29
6 -2 -5 584.413 135.869 19
6 -2 -5 308.072 100.95 29
6 -2 -4 23.096 67.2945 19
6 -2 -4 -13.8677 87.6822 29
6 -2 -3 672.31 125.977 26
6 -2 -3 407.001 121.021 19
6 -2 -3 758.285 150.462 29
6 -2 -2 570.624 124.045 26
6 -2 -2 482.596 103.143 19
6 -2 -1 359.761 103.029 26
6 -2 0 -1.30868 62.4933 26
6 -2 0 -47.2986 62.9317 20
6 -2 1 309.584 92.4602 26
6 -2 1 226.356 76.8539 20
6 -2 2 604.007 134.397 26
6 -2 2 334.87 91.0437 20
6 -2 2 663.113 157.383 31
6 -2 3 7937.92 479.002 20
6 -2 3 8785.81 448.642 31
6 -2 4 647.836 132.222 20
6 -2 5 3401.18 311.792 20
6 -2 6 1465.88 193.154 20
6 -2 7 497.643 99.6715 20
6 -1 -7 1207.73 140.432 29
6 -1 -6 -38.3217 70.3848 29
6 -1 -5 1851.97 221.32 29
6 -1 -4 309.395 108.211 26
6 -1 -4 368.394 113.979 19
6 -1 -4 287.418 115.047 29
6 -1 -3 3565.55 305.982 26
6 -1 -3 2875.56 274.365 19
6 -1 -3 3410.8 306.819 29
6 -1 -2 609.577 129.933 26
6 -1 -2 572.122 125.263 29
6 -1 -1 1581.57 216.581 26
6 -1 0 3654.87 312.037 26
6 -1 0 4019.65 346.102 31
6 -1 1 2067.58 240.465 26
6 -1 1 2516.56 287.117 31
6 -1 2 1143.03 188.193 26
6 -1 2 1335 199.291 20
6 -1 2 1436.86 215.049 31
6 -1 3 -4.30962 76.247 20
6 -1 3 208.803 113.603 31
6 -1 4 1349.42 208.111 20
6 -1 4 1319.97 185.583 31
6 -1 5 1831.25 242.266 20
6 -1 6 365.17 118.49 20
6 -1 7 13.1011 52.7337 20
6 -1 8 332.497 84.0788 20
6 0 -7 877.818 111.445 29
6 0 -6 -29.2226 63.9243 29
6 0 -5 -47.2207 92.503 29
6 0 -4 1129.71 199.076 26
6 0 -4 1047.65 173.187 29
6 0 -3 573.072 130.915 26
6 0 -3 239.551 64.4441 19
6 0 -3 727.405 158.737 29
6 0 -2 1063.59 175.397 26
6 0 -2 1362.63 196.475 29
6 0 -1 1479.83 206.23 26
6 0 -1 1328.13 214.615 31
6 0 0 610.481 136.855 26
6 0 0 538.176 143.668 31
6 0 1 239.787 97.8985 26
6 0 1 348.39 131.985 31
6 0 2 2189.4 260.114 26
6 0 2 2398.52 283.636 31
6 0 3 1002.29 174.927 26
6 0 3 1144.76 192.97 31
6 0 4 756.54 145.412 20
6 0 4 960.391 176.405 31
6 0 5 16187.7 694.735 20
6 0 5 19016.2 699.029 31
6 0 6 8971.59 512.414 20
6 0 6 10405.9 475.257 18
6 0 6 10162.7 467.806 31
6 0 7 611.765 139.294 20
6 0 7 644.728 132.429 18
6 0 8 3234.87 265.135 20
6 1 -6 1399.68 168.622 29
6 1 -5 48.9294 85.202 29
6 1 -4 11250.1 549.961 29
6 1 -3 300.884 117.94 26
6 1 -3 212.278 80.2449 29
6 1 -2 1020.23 185.64 26
6 1 -2 1201.58 191.749 29
6 1 -1 -20.7828 108.912 26
6 1 -1 10.9658 69.2609 31
6 1 -1 95.4733 83.2296 29
6 1 0 2111.17 257.551 26
6 1 0 2232.49 271.168 25
6 1 0 2117.98 254.638 31
6 1 1 13856.8 635.364 26
6 1 1 14166.1 662.058 25
6 1 1 13910.7 642.829 31
6 1 2 818.135 149.578 26
6 1 2 489.815 144.867 31
6 1 3 4579.01 393.026 31
6 1 3 4582.15 363.858 26
6 1 4 107.748 68.3521 26
6 1 4 23.5188 87.4536 31
6 1 5 5009.92 363.172 26
6 1 5 4401.41 350.479 20
6 1 5 5444.65 400.533 31
6 1 6 64.5302 70.7429 20
6 1 6 199.84 88.5757 18
6 1 6 149.733 75.5376 31
6 1 7 453.234 117.077 20
6 1 7 347.05 85.6159 18
6 1 7 589.448 115.031 31
6 1 8 1317.88 181.67 20
6 1 8 1578.21 180.987 18
6 1 9 290.767 71.3976 20
6 1 9 340.117 78.2098 18
6 2 -6 464.068 94.6905 29
6 2 -5 1876.24 204.439 29
6 2 -4 11559.4 538.834 29
6 2 -3 2318.1 261.737 29
6 2 -2 10195.6 542.107 26
6 2 -2 10401.5 554.669 29
6 2 -1 -71.2423 98.894 26
6 2 -1 -24.9651 109.91 25
6 2 -1 -77.3784 102.637 29
6 2 0 -75.8796 104.022 26
6 2 0 -56.796 108.079 31
6 2 0 51.8262 71.952 29
6 2 1 4262.38 357.651 26
6 2 1 4321.85 349.897 25
6 2 1 3985.01 347.75 31
6 2 2 3101.15 298.33 26
6 2 2 2542.01 295.482 25
6 2 2 2808.38 304.446 31
6 2 3 2326.93 256.573 26
6 2 3 2271.15 279.616 25
6 2 3 2210.3 279.646 31
6 2 4 -44.6706 80.2314 26
6 2 4 640.26 233.283 25
6 2 5 28.2382 73.4738 26
6 2 6 45.073 50.6833 26
6 2 6 90.7932 80.5849 18
6 2 7 1233.09 185.74 20
6 2 7 1653.72 195.693 18
6 2 8 30.0101 53.5156 20
6 2 8 -12.8616 71.2949 18
6 2 8 61.2657 52.8458 31
6 2 9 366.997 86.2361 20
6 2 9 385.104 89.3181 18
6 3 -5 976.116 132.649 29
6 3 -4 78.0038 86.9299 29
6 3 -3 3268.89 300.87 29
6 3 -2 4344.57 362.965 26
6 3 -2 4188.69 349.064 29
6 3 -1 -61.9436 82.8726 26
6 3 -1 154.674 96.125 25
6 3 -1 -63.7682 92.3586 29
6 3 0 20986.7 768.556 26
6 3 0 21739.1 794.946 25
6 3 0 22072.2 798.667 29
6 3 1 22684.8 781.048 26
6 3 1 23896.8 849.127 25
6 3 1 21234.7 761.195 31
6 3 1 22389.2 780.258 29
6 3 2 11661.7 562.08 26
6 3 2 12915.1 631.826 25
6 3 2 11103.7 576.184 31
6 3 3 2429.85 249.606 26
6 3 3 1528.46 210.296 25
6 3 4 1359.97 185.409 26
6 3 4 1281.06 213.323 25
6 3 5 636.799 195.526 25
6 3 6 945.964 147.68 18
6 3 7 17357.1 633.754 18
6 3 8 21.0223 77.4089 18
6 3 9 236.664 80.7263 18
6 3 9 293.836 67.3028 31
6 4 -4 2128.75 202.143 29
6 4 -3 180.355 86.9271 29
6 4 -2 -26.1365 108.838 29
6 4 -1 5856.95 385.82 25
6 4 -1 5482.68 393.608 29
6 4 0 6004.41 400.742 26
6 4 0 6737.28 434.053 25
6 4 0 5906.83 426.633 29
6 4 1 257.27 100.077 26
6 4 1 519.633 163.941 25
6 4 1 207.317 116.509 29
6 4 2 63936 1234.69 26
6 4 2 63786.1 1398.54 25
6 4 2 64362.9 1283.7 31
6 4 2 67071.1 1317.66 29
6 4 3 -143.997 102.238 26
6 4 3 302.269 166.397 25
6 4 4 2330.37 264.161 25
6 4 5 4193.52 334.616 25
6 4 6 3349.49 308.933 25
6 4 6 3131.34 271.777 18
6 4 7 12504.4 527.53 18
6 4 8 1884.02 210.148 18
6 4 9 7158.56 348.911 18
6 4 10 66.4956 53.9265 18
6 5 -3 612.855 107.926 15
6 5 -3 406.397 95.5525 29
6 5 -2 1579.76 200.857 29
6 5 -1 175.982 79.3523 25
6 5 -1 146.64 89.2124 29
6 5 0 89.7992 83.0439 25
6 5 0 -65.3067 95.7202 29
6 5 1 13.21 69.9641 26
6 5 1 -79.4312 107.005 25
6 5 1 -94.7468 113.396 29
6 5 2 11465 580.807 25
6 5 2 13049.7 593.338 29
6 5 3 4338.34 361.553 25
6 5 3 4430.98 341.432 29
6 5 4 2719.87 306.609 25
6 5 5 1304.77 184.4 25
6 5 6 92.7906 98.6643 25
6 5 6 -77.0993 66.4304 18
6 5 7 803.382 138.823 18
6 5 8 -75.2666 78.776 18
6 5 9 311.928 80.9813 18
6 6 -2 469.876 96.9396 15
6 6 -2 648.211 116.265 29
6 6 -1 180.478 83.2923 25
6 6 -1 70.3027 69.4975 29
6 6 0 -18.7321 63.5052 25
6 6 0 9.61893 71.0052 29
6 6 1 -34.5947 76.7478 25
6 6 1 97.3703 105.5 29
6 6 2 9119.38 494.786 25
6 6 2 9830.38 579.363 29
6 6 3 708.522 154.101 25
6 6 4 2189.65 245.705 25
6 6 5 -15.238 92.3392 25
6 6 6 -234.902 94.971 25
6 6 6 83.2631 74.2539 18
6 6 7 3778.17 276.401 18
6 6 8 1004.88 136.699 18
6 6 9 112.324 62.9922 18
6 7 -1 180.937 57.862 15
6 7 -1 146.388 63.1459 25
6 7 0 1857.19 184.595 25
6 7 1 451.436 106.856 25
6 7 2 1103.16 166.939 25
6 7 3 4916.42 339.762 25
6 7 4 208.907 90.8466 25
6 7 5 -55.6881 80.5192 25
6 7 6 5484.44 309.061 25
6 7 6 5573.22 309.967 18
6 7 7 55.1608 69.4936 18
6 7 8 636.964 114.648 18
6 8 1 190.024 70.6043 25
6 8 2 656.041 122.101 25
6 8 3 1935.25 194.551 25
6 8 4 6158.04 334.415 25
6 8 5 3040.39 217.869 25
6 8 6 2770.57 194.561 18
6 8 7 205.813 68.8518 18
7 -4 -2 3776.93 219.055 19
7 -4 -1 373.178 86.9725 19
7 -3 -3 340.875 87.5364 19
7 -3 -2 8280.87 361.944 19
7 -3 -1 33.4512 61.1037 19
7 -3 0 1854.57 155.542 26
7 -3 0 2138.89 171.026 20
7 -3 0 1643.56 170.749 19
7 -3 1 376.379 76.3664 26
7 -3 1 264.629 70.5597 20
7 -3 1 116.365 57.1854 19
7 -3 2 22.5109 39.2699 26
7 -3 2 63.3659 45.3108 20
7 -3 3 663.033 93.5621 26
7 -3 3 659.923 100.397 20
7 -2 -4 772.401 105.915 19
7 -2 -3 125.404 81.898 19
7 -2 -2 1418.34 150.272 26
7 -2 -2 1752.37 183.287 19
7 -2 -1 -61.8371 50.8257 26
7 -2 -1 -150.829 97.0457 19
7 -2 0 -73.0409 74.795 26
7 -2 0 -141.681 97.4795 19
7 -2 1 1560.88 172.171 26
7 -2 1 1002.71 142.543 19
7 -2 2 19.9085 43.3635 26
7 -2 2 138.665 60.8837 20
7 -2 3 157.661 66.4676 26
7 -2 3 130.957 54.0715 20
7 -2 4 118.55 53.5611 26
7 -2 4 81.0662 46.074 20
7 -1 -3 1372.73 154.532 19
7 -1 -2 811.562 128.516 26
7 -1 -2 679.604 118.838 19
7 -1 -1 -57.28 77.3511 26
7 -1 -1 -239.884 107.23 19
7 -1 0 4567.17 305.024 26
7 -1 1 395.221 109.892 26
7 -1 2 6185.26 355.975 26
7 -1 3 1707.57 185.496 26
7 -1 4 74.7443 57.9454 26
7 -1 4 86.1799 51.428 20
7 -1 5 -44.5646 44.0038 26
7 -1 5 13.1871 39.4909 20
7 0 -4 271.574 73.264 29
7 0 -3 819.582 117.584 19
7 0 -3 800.341 117.151 29
7 0 -2 958.996 148.378 26
7 0 -2 619.163 112.077 19
7 0 -1 385.022 104.609 26
7 0 -1 67.4183 82.2497 19
7 0 0 -88.7717 88.7416 26
7 0 1 200.321 74.5273 26
7 0 2 1868.16 209.684 26
7 0 2 1879.21 223.857 31
7 0 3 887.115 141.416 26
7 0 3 807.181 147.062 31
7 0 4 1256.97 163.266 26
7 0 4 967.853 149.112 31
7 0 5 816.739 121.837 26
7 0 5 786.355 119.081 31
7 0 6 36.16 37.644 26
7 1 -4 1195.28 132.396 29
7 1 -3 930.911 133.488 29
7 1 -2 186.05 87.2505 26
7 1 -2 24.9794 55.7414 29
7 1 -1 450.143 117.767 26
7 1 0 770.847 135.516 26
7 1 1 206.319 64.7553 26
7 1 1 477.385 123.916 31
7 1 2 880.355 150.333 26
7 1 2 664.528 146.882 31
7 1 3 146.917 82.1795 26
7 1 3 139.613 95.4096 31
7 1 4 774.71 134.752 26
7 1 4 922.876 154.557 31
7 1 5 6160.35 330.589 26
7 1 5 6448.22 347.719 31
7 1 6 -87.8916 55.361 26
7 1 6 141.79 59.7734 31
7 2 -3 88.8627 51.122 29
7 2 -2 17.3589 85.237 29
7 2 -1 1856.67 208.331 26
7 2 -1 1323.53 153.758 29
7 2 0 3603.56 288.274 26
7 2 1 88.8468 71.9184 26
7 2 1 173.754 93.3418 31
7 2 2 2607.45 237.251 26
7 2 2 2515.18 253.764 31
7 2 3 842.057 136.761 26
7 2 3 664.49 134.949 31
7 2 4 5181.27 322.397 26
7 2 4 4731.8 344.189 31
7 2 5 1436.35 161.221 26
7 2 5 1321.91 171.795 31
7 2 6 164.157 58.2507 26
7 2 6 176.396 73.5165 31
7 3 -3 4860.31 262.407 29
7 3 -2 140.844 60.3373 29
7 3 -1 399.506 103.569 29
7 3 0 2727.07 249.879 26
7 3 0 2366.38 214.113 29
7 3 1 2401.48 236.179 26
7 3 1 2885.73 281.011 25
7 3 1 2311.38 221.612 31
7 3 2 101.909 62.2047 26
7 3 2 88.7899 72.4619 31
7 3 3 7152.15 377.959 26
7 3 3 6794.6 397.457 31
7 3 4 10384.3 424.953 26
7 3 4 10426.1 485.901 31
7 3 5 1799.84 204.532 31
7 3 6 10723.1 437.694 31
7 3 7 32.2965 43.411 31
7 4 -2 1243.21 139.271 29
7 4 -1 24.6972 56.3561 29
7 4 0 197.062 87.3896 25
7 4 0 -39.2992 64.6169 29
7 4 1 204.395 92.4177 26
7 4 1 198.511 99.3728 25
7 4 1 133.48 70.7216 29
7 4 2 1121.85 146.563 26
7 4 2 1576.95 202.381 25
7 4 2 1348.66 159.269 31
7 4 3 3454.53 239.978 26
7 4 3 2996.12 253.515 31
7 4 4 7411.04 381.455 31
7 4 5 919.609 146.735 31
7 4 6 182.174 76.3775 31
7 4 7 -42.5478 63.088 31
7 5 -1 1183.42 158.695 29
7 5 0 881.498 117.888 25
7 5 0 1931.95 221.797 29
7 5 1 53.5261 64.5039 25
7 5 2 1301.01 165.465 25
7 5 3 452.218 121.573 25
7 5 4 2123.8 220.633 25
7 5 4 1849.36 174.087 31
7 5 5 857.185 123.642 31
7 5 6 2770.98 210.174 31
7 5 7 -59.7697 50.5169 31
7 6 2 62.7771 60.1752 25
7 6 3 -5.15096 66.3688 25
7 6 4 446.308 115.576 25
