#------------------------------------------------------------------------------
#$Date: 2019-11-24 07:01:33 +0200 (Sun, 24 Nov 2019) $
#$Revision: 237044 $
#$URL: file:///home/coder/svn-repositories/cod/cif/1/55/42/1554233.cif $
#------------------------------------------------------------------------------
#
# This file is available in the Crystallography Open Database (COD),
# http://www.crystallography.net/
#
# All data on this site have been placed in the public domain by the
# contributors.
#
data_1554233
loop_
_publ_author_name
'Fang, Manman'
'Yang, Jie'
'Xiang, Xueqin'
'Xie, Yujun'
'Dong, Yongqiang'
'Peng, Qian'
'Li, Qianqian'
'Li, Zhen'
_publ_section_title
;
 Unexpected room-temperature phosphorescence from a non-aromatic, low
 molecular weight, pure organic molecule through the intermolecular
 hydrogen bond
;
_journal_issue                   11
_journal_name_full               'Materials Chemistry Frontiers'
_journal_page_first              2124
_journal_paper_doi               10.1039/C8QM00396C
_journal_volume                  2
_journal_year                    2018
_chemical_formula_moiety         '0.5(C6 H6 N2 O4)'
_chemical_formula_sum            'C3 H3 N O2'
_chemical_formula_weight         85.06
_space_group_crystal_system      orthorhombic
_space_group_IT_number           62
_space_group_name_Hall           '-P 2ac 2n'
_space_group_name_H-M_alt        'P n m a'
_atom_sites_solution_hydrogens   mixed
_audit_creation_date             2018-03-05
_audit_creation_method
;
Olex2 1.2
(compiled 2017.02.23 svn.r3390 for OlexSys, GUI svn.r5324)
;
_audit_update_record
;
2018-03-26 deposited with the CCDC.
2018-09-18 downloaded from the CCDC.
;
_cell_angle_alpha                90
_cell_angle_beta                 90
_cell_angle_gamma                90
_cell_formula_units_Z            4
_cell_length_a                   7.297(4)
_cell_length_b                   6.045(3)
_cell_length_c                   8.354(4)
_cell_measurement_reflns_used    1670
_cell_measurement_temperature    298(2)
_cell_measurement_theta_max      32.04
_cell_measurement_theta_min      3.37
_cell_volume                     368.5(3)
_computing_cell_refinement       'Bruker SAINT'
_computing_data_collection       'Bruker APEX2'
_computing_data_reduction        'Bruker SAINT'
_computing_molecular_graphics    'Olex2 (Dolomanov et al., 2009)'
_computing_publication_material  'Olex2 (Dolomanov et al., 2009)'
_computing_structure_refinement  'ShelXL (Sheldrick, 2015)'
_diffrn_ambient_temperature      298(2)
_diffrn_measured_fraction_theta_full 0.997
_diffrn_measured_fraction_theta_max 0.998
_diffrn_measurement_device_type  'Bruker APEX-II CCD'
_diffrn_radiation_type           MoK\a
_diffrn_radiation_wavelength     0.71073
_diffrn_reflns_av_R_equivalents  0.0210
_diffrn_reflns_av_unetI/netI     0.0151
_diffrn_reflns_Laue_measured_fraction_full 0.997
_diffrn_reflns_Laue_measured_fraction_max 0.998
_diffrn_reflns_limit_h_max       10
_diffrn_reflns_limit_h_min       -10
_diffrn_reflns_limit_k_max       7
_diffrn_reflns_limit_k_min       -8
_diffrn_reflns_limit_l_max       11
_diffrn_reflns_limit_l_min       -11
_diffrn_reflns_number            3486
_diffrn_reflns_point_group_measured_fraction_full 0.997
_diffrn_reflns_point_group_measured_fraction_max 0.998
_diffrn_reflns_theta_full        25.242
_diffrn_reflns_theta_max         29.983
_diffrn_reflns_theta_min         3.708
_exptl_absorpt_coefficient_mu    0.131
_exptl_absorpt_correction_T_max  0.9742
_exptl_absorpt_correction_T_min  0.9617
_exptl_absorpt_correction_type   multi-scan
_exptl_crystal_colour            colorless
_exptl_crystal_density_diffrn    1.533
_exptl_crystal_description       block
_exptl_crystal_F_000             176
_exptl_crystal_size_max          0.3
_exptl_crystal_size_mid          0.2
_exptl_crystal_size_min          0.2
_refine_diff_density_max         0.344
_refine_diff_density_min         -0.167
_refine_diff_density_rms         0.037
_refine_ls_extinction_coef       0.14(3)
_refine_ls_extinction_expression Fc^*^=kFc[1+0.001xFc^2^\l^3^/sin(2\q)]^-1/4^
_refine_ls_extinction_method     'SHELXL-2016/6 (Sheldrick 2016)'
_refine_ls_goodness_of_fit_ref   1.161
_refine_ls_hydrogen_treatment    mixed
_refine_ls_matrix_type           full
_refine_ls_number_parameters     40
_refine_ls_number_reflns         583
_refine_ls_number_restraints     0
_refine_ls_restrained_S_all      1.161
_refine_ls_R_factor_all          0.0373
_refine_ls_R_factor_gt           0.0327
_refine_ls_shift/su_max          0.000
_refine_ls_shift/su_mean         0.000
_refine_ls_structure_factor_coef Fsqd
_refine_ls_weighting_details
'w=1/[\s^2^(Fo^2^)+(0.0566P)^2^+0.0353P] where P=(Fo^2^+2Fc^2^)/3'
_refine_ls_weighting_scheme      calc
_refine_ls_wR_factor_gt          0.0955
_refine_ls_wR_factor_ref         0.1017
_reflns_Friedel_coverage         0.000
_reflns_number_gt                516
_reflns_number_total             583
_reflns_threshold_expression     'I > 2\s(I)'
_cod_data_source_file            c8qm00396c3.cif
_cod_data_source_block           CAA
_cod_database_code               1554233
_shelx_shelxl_version_number     2016/6
_shelx_space_group_comment
;
The symmetry employed for this shelxl refinement is uniquely defined
by the following loop, which should always be used as a source of
symmetry information in preference to the above space-group names.
They are only intended as comments.
;
_shelx_estimated_absorpt_t_max   0.974
_shelx_estimated_absorpt_t_min   0.962
_olex2_refinement_description
;
1. Fixed Uiso
 At 1.2 times of:
  All C(H,H) groups
 At 1.5 times of:
  All O(H) groups
2. Others
 Fixed Sof: H2B(0.5) H2A(0.5)
3.a Secondary CH2 refined with riding coordinates:
 C2(H2B,H2A)
;
_shelx_res_file
;
TITL T in Pnma
    t.res
    created by SHELXL-2016/6 at 10:36:53 on 05-Mar-2018
REM T in Pnma
REM 40 parameters refined using 0 restraints
REM Highest difference peak 0.344, deepest hole -0.167, 1-sigma level 0.037
REM DAMP 3000
CELL 0.71073 7.2967 6.0452 8.354 90 90 90
ZERR 4 0.0038 0.0032 0.0044 0 0 0
LATT 1
SYMM 0.5-X,-Y,0.5+Z
SYMM 0.5+X,0.5-Y,0.5-Z
SYMM -X,0.5+Y,-Z
SFAC C H N O
UNIT 12 12 4 8

L.S. 20
PLAN  20
SIZE 0.3 0.2 0.2
TEMP 25
GRID
BOND $H
HTAB
CONF
fmap 2
ACTA
MERG 2
OMIT -3 60
REM <olex2.extras>
REM <HklSrc "%.\\T.hkl">
REM </olex2.extras>

WGHT    0.056600    0.035300
EXTI    0.137846
FVAR       0.67473
C1    1    0.107116    0.250000    0.622041    10.50000    0.02100    0.03419 =
         0.02666    0.00000   -0.00043    0.00000
C2    1    0.256482    0.250000    0.497737    10.50000    0.02076    0.05566 =
         0.02793    0.00000    0.00144    0.00000
AFIX  23
H2B   2    0.332816    0.379516    0.513646    10.50000   -1.20000
H2A   2    0.332816    0.120484    0.513646    10.50000   -1.20000
AFIX   0
C3    1    0.189599    0.250000    0.333170    10.50000    0.02591    0.04214 =
         0.03048    0.00000    0.00432    0.00000
N1    3    0.135152    0.250000    0.205741    10.50000    0.03879    0.07041 =
         0.03181    0.00000    0.00132    0.00000
O1    4    0.140475    0.250000    0.763819    10.50000    0.02558    0.05994 =
         0.02622    0.00000   -0.00182    0.00000
O2    4   -0.058222    0.250000    0.562614    10.50000    0.01953    0.05999 =
         0.02721    0.00000    0.00031    0.00000
H2    2   -0.147140    0.250000    0.636954    10.50000   -1.50000
HKLF 4




REM  T in Pnma
REM R1 =  0.0327 for     516 Fo > 4sig(Fo)  and  0.0373 for all     583 data
REM     40 parameters refined using      0 restraints

END

WGHT      0.0568      0.0351

REM Instructions for potential hydrogen bonds
EQIV $2 x-1/2, y, -z+3/2
HTAB O2 O1_$2

REM Highest difference peak  0.344,  deepest hole -0.167,  1-sigma level  0.037
Q1    1   0.1839  0.2500  0.5558  10.50000  0.05    0.34
Q2    1   0.2220  0.2500  0.4204  10.50000  0.05    0.21
Q3    1   0.2226  0.2500  0.2512  10.50000  0.05    0.16
Q4    1   0.1217  0.2500  0.3094  10.50000  0.05    0.14
Q5    1   0.0302  0.2500  0.5988  10.50000  0.05    0.12
Q6    1   0.3643  0.2500  0.5193  10.50000  0.05    0.12
Q7    1   0.1699  0.2500  0.1782  10.50000  0.05    0.11
Q8    1   0.1322  0.2500  0.6887  10.50000  0.05    0.11
Q9    1  -0.0615  0.2500  0.4898  10.50000  0.05    0.11
Q10   1   0.0619  0.2500  0.8160  10.50000  0.05    0.11
Q11   1   0.2076  0.2500  0.7725  10.50000  0.05    0.10
Q12   1   0.2863  0.0281  0.5115  11.00000  0.05    0.09
Q13   1   0.0642  0.1687  0.1259  11.00000  0.05    0.07
Q14   1  -0.0185  0.2500  0.3235  10.50000  0.05    0.07
Q15   1   0.1239  0.2500  0.0790  10.50000  0.05    0.07
Q16   1  -0.1032  0.2500  0.6036  10.50000  0.05    0.07
Q17   1   0.2935  0.1803  0.1531  11.00000  0.05    0.06
Q18   1   0.0387  0.2500  0.9275  10.50000  0.05    0.06
Q19   1  -0.0283  0.2500  0.2008  10.50000  0.05    0.05
Q20   1   0.2354  0.2500  0.0551  10.50000  0.05    0.05
;
_shelx_res_checksum              97057
_shelx_hkl_file
;
   0  -1   0    2.58    0.09
   0   1   0    2.33    0.09
   0  -1   0    2.07    0.09
   0   3   0   -0.18    0.05
   0  -3   0   -0.14    0.05
   0  -3   0   -0.02    0.06
   0   4   0  767.39   16.56
   0  -4   0  770.10   17.08
   0   5   0   -0.01    0.08
   0  -5   0    0.02    0.09
   0  -5   0   -0.04    0.07
   0  -6   0  129.10    3.11
   0  -7   0    0.03    0.13
   0  -8   0   18.57    0.82
  -1   0   0   -0.16    0.02
  -1   0   0   -0.15    0.01
   1   0   0   -0.16    0.02
   1  -1   0   -0.05    0.02
  -1   1   0    0.00    0.03
  -1  -1   0   -0.04    0.02
   1  -1   0   -0.03    0.03
   1   1   0   -0.04    0.02
  -1  -2   0    0.02    0.04
  -1  -2   0   -0.01    0.02
   1  -2   0    0.02    0.04
   1  -2   0   -0.03    0.05
   1  -3   0   -0.07    0.04
  -1  -3   0    0.01    0.05
  -1   3   0   -0.07    0.04
   1  -3   0   -0.03    0.05
  -1  -3   0   -0.01    0.05
  -1  -3   0   -0.01    0.04
  -1  -4   0    0.09    0.07
   1  -4   0    0.06    0.08
   1  -4   0    0.04    0.08
  -1  -4   0   -0.01    0.03
  -1   5   0   -0.16    0.07
   1  -5   0   -0.07    0.08
   1   5   0    0.07    0.10
   1  -5   0   -0.14    0.08
  -1  -5   0   -0.02    0.09
   1  -6   0    0.21    0.14
  -1  -6   0    0.19    0.14
  -1  -7   0   -0.04    0.13
   1  -7   0   -0.07    0.12
  -1  -8   0    0.24    0.19
   1  -8   0    0.02    0.15
  -2   0   0  142.07    3.15
   2   0   0  144.03    3.30
  -2  -1   0  805.42   17.42
  -2   1   0  801.25   17.49
   2  -1   0  804.49   17.28
   2   1   0  798.55   18.46
  -2  -1   0  808.06   17.54
   2   2   0   40.13    0.96
   2  -2   0   40.82    0.94
  -2  -2   0   41.09    0.96
  -2   2   0   37.93    0.96
   2  -2   0   40.61    1.05
   2  -3   0  335.57    7.20
   2  -3   0  338.29    7.68
  -2  -3   0  328.78    7.25
  -2   3   0  324.25    7.10
  -2  -3   0  341.04    7.09
  -2  -4   0    7.84    0.28
  -2  -4   0    8.56    0.33
   2  -4   0    8.33    0.34
   2  -4   0    8.38    0.37
  -2  -4   0    7.75    0.37
  -2   4   0    7.43    0.33
   2  -5   0   62.70    1.67
   2  -5   0   61.77    1.59
  -2  -5   0   61.40    1.63
  -2   5   0   62.81    1.54
  -2  -5   0   62.54    1.52
  -2  -6   0    2.76    0.30
   2  -6   0    2.27    0.26
   2  -6   0    2.31    0.26
   2  -7   0   11.22    0.55
  -2  -7   0    9.82    0.55
  -2  -8   0    0.29    0.18
   2  -8   0    0.42    0.19
   3   0   0    0.14    0.06
  -3   0   0   -0.01    0.02
  -3   0   0   -0.04    0.01
  -3  -1   0   -0.03    0.04
   3   1   0    0.01    0.04
  -3  -1   0   -0.06    0.03
   3  -1   0   -0.06    0.05
  -3   1   0   -0.11    0.04
  -3  -2   0    0.04    0.05
   3   2   0   -0.02    0.03
  -3  -2   0    0.00    0.04
   3  -2   0    0.00    0.06
   3  -2   0    0.03    0.04
  -3   2   0    0.48    0.09
  -3   3   0    0.01    0.07
   3  -3   0   -0.14    0.07
   3  -3   0   -0.07    0.05
  -3  -3   0   -0.01    0.07
  -3  -3   0   -0.01    0.06
   3   3   0   -0.01    0.04
   3  -4   0    0.11    0.08
   3  -4   0    0.09    0.09
  -3  -4   0   -0.06    0.07
  -3   4   0    0.00    0.08
  -3  -4   0    0.07    0.08
   3  -5   0    0.05    0.10
  -3  -5   0   -0.03    0.10
  -3  -5   0   -0.03    0.08
  -3   5   0    0.06    0.10
   3  -5   0   -0.04    0.10
  -3  -6   0   -0.01    0.11
   3  -6   0   -0.01    0.11
   3  -6   0    0.00    0.11
   3  -7   0    0.13    0.14
  -3  -7   0   -0.08    0.13
  -3  -8   0    0.02    0.17
  -4   0   0  235.28    5.18
   4   0   0  251.68    5.56
  -4   0   0  233.13    5.18
   4  -1   0  296.53    6.73
  -4  -1   0  287.59    6.25
  -4  -1   0  294.11    6.25
  -4   1   0  284.74    6.25
   4   1   0  291.95    6.66
   4   2   0  139.16    3.23
  -4  -2   0  142.90    3.10
  -4  -2   0  138.52    3.09
   4  -2   0  136.90    2.99
  -4   2   0  134.99    3.10
  -4  -3   0  128.66    2.87
   4   3   0  123.31    2.94
  -4  -3   0  129.18    2.91
   4  -3   0  130.40    3.13
  -4   3   0  125.29    2.88
   4  -3   0  123.46    2.79
  -4  -4   0   34.42    0.96
   4  -4   0   34.54    0.90
  -4  -4   0   34.16    1.00
   4  -4   0   34.25    1.08
  -4   4   0   35.27    0.98
   4  -5   0   23.00    0.71
   4  -5   0   21.82    0.83
  -4  -5   0   24.67    0.75
  -4   5   0   22.74    0.75
  -4  -5   0   24.09    0.81
   4  -6   0    6.78    0.44
  -4  -6   0    6.07    0.41
  -4  -7   0    2.69    0.34
   4  -7   0    3.63    0.39
  -4  -8   0    1.20    0.29
   5   0   0    0.03    0.08
  -5   0   0   -0.02    0.04
   5   1   0    0.03    0.08
   5  -1   0    0.04    0.09
  -5  -1   0    0.03    0.04
  -5  -1   0    0.09    0.09
  -5   1   0    0.01    0.08
   5  -2   0   -0.01    0.05
   5   2   0   -0.05    0.06
  -5  -2   0    0.04    0.08
  -5  -2   0   -0.02    0.06
  -5   2   0    0.11    0.09
   5  -3   0   -0.02    0.11
  -5  -3   0    0.07    0.09
  -5   3   0   -0.07    0.08
  -5  -3   0   -0.02    0.07
  -5   4   0   -0.07    0.09
  -5  -4   0   -0.08    0.10
   5  -4   0   -0.10    0.11
  -5  -4   0   -0.04    0.08
   5  -5   0   -0.03    0.14
  -5  -5   0    0.05    0.12
  -5  -5   0   -0.06    0.10
  -5   5   0   -0.11    0.10
   5  -6   0   -0.06    0.15
  -5  -6   0   -0.19    0.11
   5  -7   0   -0.37    0.13
  -5  -7   0   -0.07    0.16
  -6   0   0    4.58    0.29
   6   0   0    4.93    0.32
   6   1   0  170.06    4.01
  -6  -1   0  164.40    3.80
   6  -1   0  169.42    4.07
  -6   1   0  168.30    3.81
  -6  -2   0    5.67    0.34
  -6   2   0    5.79    0.34
   6  -2   0    5.56    0.36
   6   2   0    5.70    0.30
  -6   3   0   75.27    1.90
  -6  -3   0   74.61    1.83
   6  -3   0   75.05    2.06
  -6  -3   0   76.46    1.90
  -6  -4   0    3.16    0.27
  -6  -4   0    3.25    0.28
  -6   4   0    3.52    0.32
   6  -4   0    3.32    0.35
  -6   5   0   20.82    0.75
  -6  -5   0   20.31    0.75
  -6  -5   0   21.23    0.77
   6  -5   0   19.71    0.83
  -6  -6   0    0.84    0.22
   6  -6   0    0.66    0.22
   6  -7   0    3.59    0.43
  -6  -7   0    2.96    0.37
   7   0   0   -0.04    0.11
  -7   0   0   -0.03    0.09
  -7  -1   0    0.05    0.11
   7  -1   0   -0.05    0.11
  -7   1   0   -0.15    0.08
   7   1   0    0.11    0.11
  -7   2   0   -0.06    0.09
   7   2   0    0.03    0.10
   7  -2   0   -0.12    0.12
  -7  -2   0    0.25    0.14
   7  -3   0    0.03    0.14
  -7   3   0   -0.16    0.09
  -7  -3   0   -0.03    0.11
   7  -4   0    0.12    0.16
  -7   4   0   -0.21    0.10
  -7  -4   0    0.23    0.15
  -7  -5   0    0.03    0.14
   7  -5   0   -0.19    0.15
  -7   5   0   -0.01    0.12
   7  -6   0   -0.19    0.16
   8   0   0    5.50    0.38
  -8   0   0    4.65    0.35
  -8   1   0    0.81    0.19
   8  -1   0    0.25    0.15
   8   1   0    0.34    0.14
  -8  -1   0    0.37    0.15
  -8   2   0    3.24    0.33
   8  -2   0    3.90    0.36
  -8  -2   0    3.79    0.33
  -8   3   0    0.01    0.13
  -8  -3   0    0.04    0.14
   8  -3   0    0.14    0.16
   8  -4   0    1.75    0.31
  -8  -4   0    1.52    0.26
  -8   4   0    1.57    0.26
  -8  -5   0    0.06    0.15
   8  -5   0   -0.04    0.18
  -9   0   0    0.04    0.13
   9   0   0   -0.13    0.12
  -9  -1   0   -0.14    0.11
   9  -1   0   -0.07    0.14
  -9   1   0    0.33    0.16
  -9  -2   0   -0.15    0.12
   9  -2   0   -0.03    0.17
  -9   2   0    0.02    0.13
  -9  -3   0   -0.08    0.14
   9  -3   0   -0.14    0.17
  -9   3   0    0.15    0.15
  -9  -4   0   -0.10    0.15
  -9   4   0    0.03    0.14
   9  -4   0   -0.16    0.16
  -9  -5   0    0.08    0.17
 -10   0   0    9.06    0.56
  10   0   0    8.95    0.55
 -10  -1   0    4.83    0.42
  10  -1   0    4.58    0.42
 -10   1   0    4.57    0.45
 -10   2   0    5.96    0.47
  10  -2   0    5.94    0.49
 -10  -2   0    6.28    0.47
 -10   3   0    2.80    0.36
   0   0  -1   -0.06    0.01
   0   0   1   -0.05    0.02
   0   1  -1   89.92    1.95
   0  -1   1   86.77    2.04
   0  -1  -1   92.33    1.98
   0   2   1   -0.01    0.04
   0  -2   1   -0.11    0.04
   0  -2  -1    0.03    0.05
   0  -2   1   -0.21    0.05
   0   2  -1    0.28    0.07
   0   3  -1   30.66    0.81
   0  -3  -1   31.19    0.84
   0  -3   1   31.29    0.83
   0  -3   1   32.53    0.80
   0   3   1   30.88    0.74
   0  -4   1   -0.16    0.10
   0  -4  -1    0.03    0.09
   0   4   1    0.07    0.08
   0  -4   1   -0.14    0.07
   0  -4  -1    0.07    0.09
   0   4  -1    0.02    0.09
   0  -5  -1    5.32    0.30
   0  -5  -1    5.48    0.32
   0   5  -1    5.13    0.31
   0  -5   1    5.90    0.33
   0  -6   1   -0.13    0.14
   0   6  -1    0.19    0.13
   0  -6  -1   -0.17    0.12
   0  -7   1    0.73    0.20
   0  -7  -1    0.66    0.19
   0  -8  -1   -0.09    0.15
   0  -8   1    0.04    0.17
  -1   0   1  357.46    7.71
  -1   0  -1  364.98    7.73
  -1   0   1  376.18    7.71
   1   0  -1  316.67    8.29
  -1   1  -1  195.42    4.05
  -1  -1   1  181.11    4.03
   1   1   1  192.67    4.32
  -1  -1   1  190.07    4.09
   1  -1  -1  188.31    4.18
   1  -1  -1  196.98    4.37
   1  -1   1  184.14    4.36
   1   1  -1  186.47    4.33
  -1  -1  -1  198.33    4.12
   1  -1   1  187.58    4.08
  -1   1   1  191.27    4.02
  -1  -1  -1  188.26    4.06
   1   2   1  243.99    5.45
  -1   2  -1  243.42    5.12
  -1  -2   1  243.94    5.09
   1  -2  -1  238.01    5.17
   1  -2   1  231.06    5.46
  -1   2   1  232.29    5.09
   1  -2   1  245.18    5.17
  -1  -2  -1  236.64    5.11
   1  -3  -1   29.75    0.79
  -1  -3   1   29.16    0.76
   1  -3  -1   30.02    0.85
  -1  -3   1   29.59    0.71
  -1  -3   1   28.67    0.79
  -1   3  -1   29.65    0.79
  -1  -3  -1   29.01    0.71
  -1   3   1   29.84    0.72
   1  -3   1   29.68    0.79
   1  -4  -1   57.35    1.43
  -1   4  -1   55.87    1.41
   1  -4  -1   57.05    1.51
  -1  -4   1   57.41    1.36
   1  -4   1   56.54    1.43
   1  -4   1   58.36    1.46
   1  -5  -1   10.28    0.45
  -1   5  -1    9.93    0.43
   1  -5  -1    9.39    0.43
  -1  -5   1    9.86    0.46
   1   5   1   10.08    0.38
  -1  -5  -1   10.65    0.46
   1  -5   1    9.73    0.44
  -1  -5  -1   10.53    0.42
   1   5  -1    9.45    0.42
   1  -5   1   10.85    0.42
  -1  -6   1    8.68    0.47
  -1   6  -1    9.26    0.45
   1  -6  -1    9.48    0.45
   1  -6  -1    9.42    0.46
   1   6  -1    9.04    0.44
  -1  -6  -1    9.35    0.47
   1  -6   1    9.12    0.46
   1  -7  -1    2.64    0.31
  -1  -7   1    2.73    0.33
  -1  -7  -1    2.39    0.31
   1  -7   1    2.23    0.29
  -1  -8   1    1.70    0.29
   1  -8  -1    1.32    0.26
   1  -8   1    1.01    0.25
  -1  -8  -1    1.80    0.30
  -2   0  -1    2.75    0.15
  -2   0   1    2.65    0.10
   2   0   1    2.53    0.15
   2   0  -1    2.62    0.15
  -2   0   1    3.15    0.15
  -2   0  -1    2.47    0.14
   2  -1  -1  108.77    2.36
  -2  -1   1  110.14    2.40
   2   1   1  107.15    2.55
  -2   1   1  110.86    2.38
  -2  -1  -1  110.89    2.44
  -2  -1  -1  108.29    2.38
   2  -1   1  110.31    2.39
   2   1  -1  110.62    2.52
   2  -2  -1   -0.09    0.05
   2  -2  -1   -0.02    0.04
   2   2   1    0.07    0.05
  -2   2  -1   -0.11    0.05
  -2  -2   1    0.02    0.05
  -2  -2   1    0.00    0.05
   2  -2   1   -0.02    0.06
  -2  -2  -1   -0.07    0.04
  -2   2   1    0.03    0.05
   2  -2   1    0.09    0.05
  -2  -2  -1    0.18    0.07
  -2  -3   1   35.29    0.93
   2  -3  -1   36.06    0.90
  -2  -3   1   35.89    0.90
  -2   3  -1   35.10    0.93
   2  -3  -1   36.00    1.01
  -2  -3  -1   35.95    0.86
  -2  -3  -1   35.43    0.95
  -2   3   1   31.19    0.85
   2  -3   1   35.59    0.97
   2  -3   1   35.20    0.90
   2  -4  -1    0.30    0.11
  -2   4  -1    0.30    0.11
   2  -4  -1    0.44    0.10
  -2  -4   1    0.21    0.10
  -2  -4   1    0.20    0.09
   2  -4   1    0.26    0.10
  -2   4   1    0.21    0.08
   2  -4   1    0.24    0.10
  -2  -4  -1    0.56    0.12
  -2  -4  -1    0.27    0.08
  -2   5  -1    8.39    0.40
   2  -5  -1    7.70    0.38
   2  -5  -1    8.06    0.41
  -2  -5   1    8.07    0.42
  -2  -5  -1    8.44    0.33
   2  -5   1    7.44    0.39
   2  -5   1    8.04    0.39
  -2  -5  -1    7.73    0.41
  -2  -6   1    0.15    0.13
   2  -6  -1    0.32    0.14
  -2   6  -1    0.35    0.14
   2  -6  -1    0.20    0.13
   2  -6   1    0.21    0.13
   2   6  -1    0.03    0.12
  -2  -6  -1    0.30    0.14
  -2  -7   1    1.20    0.24
   2  -7  -1    1.13    0.23
  -2  -7  -1    1.67    0.26
   2  -7   1    1.34    0.25
   2  -8  -1    0.46    0.18
  -2  -8   1    0.22    0.19
  -2  -8  -1   -0.05    0.16
   2  -8   1    0.03    0.16
   3   0  -1   28.52    0.77
  -3   0   1   28.43    0.64
  -3   0  -1   27.61    0.74
   3   0   1   29.18    0.78
  -3   0   1   27.46    0.73
  -3   0  -1   29.60    0.70
  -3   1  -1  287.24    6.10
   3  -1  -1  288.76    6.55
  -3  -1   1  281.62    6.14
   3   1   1  287.01    6.50
  -3  -1  -1  296.58    6.15
  -3  -1  -1  290.12    6.07
  -3   1   1  262.01    6.05
   3   1  -1  283.17    6.47
   3   2   1    2.93    0.17
   3  -2  -1    3.12    0.13
   3  -2  -1    3.18    0.21
  -3  -2   1    3.07    0.17
  -3  -2   1    3.19    0.19
  -3   2  -1    3.38    0.21
  -3  -2  -1    2.98    0.17
   3  -2   1    3.05    0.21
   3  -2   1    3.03    0.15
  -3   2   1    3.42    0.18
  -3  -2  -1    3.00    0.18
   3   2  -1    3.16    0.13
  -3   3  -1   82.26    1.94
  -3  -3   1   81.59    1.94
  -3  -3   1   83.63    1.92
   3   3   1   80.11    1.96
   3  -3  -1   83.89    2.10
   3  -3  -1   82.25    1.87
  -3  -3  -1   81.52    1.96
  -3  -3  -1   83.09    1.88
  -3   3   1   83.43    1.88
   3  -3   1   81.35    2.07
   3  -3   1   80.35    1.88
  -3  -4   1   -0.10    0.07
  -3  -4   1   -0.01    0.08
  -3   4  -1   -0.03    0.08
   3  -4  -1    0.04    0.09
   3  -4  -1    0.01    0.07
  -3  -4  -1    0.03    0.07
  -3   4   1    0.02    0.07
  -3  -4  -1    0.21    0.10
   3  -4   1    0.04    0.07
   3  -4   1    0.07    0.10
   3  -5  -1   13.99    0.51
  -3   5  -1   13.39    0.53
  -3  -5   1   13.99    0.52
  -3  -5   1   13.05    0.55
   3  -5  -1   12.59    0.57
   3  -5   1   13.38    0.51
  -3  -5  -1   13.53    0.48
  -3  -5  -1   13.87    0.57
   3  -5   1   12.87    0.55
  -3  -6   1    0.17    0.13
   3  -6  -1    0.23    0.13
   3  -6  -1   -0.05    0.11
  -3   6  -1    0.23    0.14
   3  -6   1    0.02    0.11
  -3  -6  -1    0.14    0.13
   3  -6   1    0.05    0.12
   3  -7  -1    1.23    0.22
  -3  -7   1    1.21    0.25
   3  -7   1    1.47    0.24
  -3  -7  -1    1.30    0.24
  -3  -8   1    0.25    0.19
  -3  -8  -1   -0.02    0.17
   4   0  -1    2.47    0.19
  -4   0  -1    2.46    0.18
   4   0   1    2.50    0.19
  -4   0   1    2.24    0.17
  -4   0   1    2.39    0.08
  -4   0  -1    2.54    0.13
  -4   1  -1   41.92    0.96
  -4   1  -1   41.20    1.06
  -4  -1   1   41.47    0.96
   4   1   1   39.59    1.07
   4  -1  -1   41.11    1.12
  -4   1   1   39.86    1.03
   4   1  -1   40.08    1.04
  -4  -1  -1   40.45    1.04
   4  -1   1   41.24    1.12
   4  -2  -1    2.38    0.10
   4  -2  -1    1.49    0.18
  -4  -2   1    2.15    0.16
  -4   2  -1    1.79    0.19
   4   2   1    1.98    0.16
   4  -2   1    2.02    0.13
  -4  -2  -1    2.22    0.17
   4   2  -1    2.36    0.15
  -4  -2  -1    2.06    0.16
   4  -2   1    2.42    0.21
  -4   2   1    2.17    0.17
   4  -3  -1   18.77    0.51
   4   3   1   18.93    0.56
   4  -3  -1   18.41    0.68
  -4  -3   1   18.39    0.61
  -4  -3   1   19.34    0.60
  -4   3  -1   18.23    0.63
  -4  -3  -1   19.32    0.59
   4  -3   1   19.65    0.67
  -4  -3  -1   19.19    0.62
  -4   3   1   18.75    0.59
   4  -3   1   19.28    0.54
  -4  -4   1    1.74    0.21
  -4  -4   1    1.79    0.20
   4  -4  -1    1.84    0.17
   4  -4  -1    1.57    0.22
  -4   4  -1    2.08    0.23
   4  -4   1    1.87    0.23
  -4  -4  -1    2.24    0.21
   4  -4   1    1.89    0.18
  -4  -4  -1    2.00    0.23
  -4   4   1    1.89    0.20
  -4   5  -1    6.34    0.37
   4  -5  -1    6.17    0.39
  -4  -5   1    5.66    0.36
  -4  -5   1    5.69    0.34
   4  -5   1    6.35    0.34
  -4  -5  -1    5.93    0.37
   4  -5   1    6.04    0.39
  -4  -5  -1    6.08    0.33
  -4  -6   1    1.48    0.25
  -4  -6   1    1.23    0.21
   4  -6  -1    1.25    0.23
  -4   6  -1    1.35    0.22
   4  -6   1    1.03    0.22
  -4  -6  -1    0.78    0.19
   4  -7  -1    1.97    0.31
  -4  -7   1    1.40    0.27
  -4  -7  -1    1.58    0.29
  -4  -8   1    0.90    0.26
  -4  -8  -1    0.53    0.23
   5   0  -1   11.42    0.44
   5   0   1   11.28    0.45
  -5   0   1   11.55    0.44
  -5   0  -1   11.52    0.34
   5  -1  -1    4.56    0.29
   5   1   1    4.84    0.26
  -5  -1   1    5.05    0.19
  -5   1  -1    5.05    0.29
   5   1  -1    4.67    0.25
  -5   1   1    4.95    0.28
  -5  -1  -1    5.02    0.28
   5  -1   1    4.67    0.29
  -5   2  -1    5.41    0.32
  -5  -2   1    5.26    0.24
  -5  -2   1    5.58    0.31
   5  -2  -1    4.89    0.32
   5   2   1    5.34    0.28
  -5  -2  -1    5.59    0.30
  -5  -2  -1    5.55    0.26
  -5   2   1    4.90    0.28
   5   2  -1    5.41    0.25
   5  -3  -1    0.71    0.16
  -5  -3   1    0.84    0.15
   5   3   1    0.70    0.12
  -5   3  -1    0.83    0.16
  -5  -3   1    0.85    0.14
   5  -3   1    0.71    0.16
  -5  -3  -1    0.82    0.14
  -5   3   1    0.91    0.15
  -5  -3  -1    0.70    0.14
   5  -4  -1    2.01    0.27
  -5  -4   1    2.46    0.24
  -5  -4   1    2.44    0.26
  -5   4  -1    2.31    0.26
  -5   4   1    2.65    0.23
  -5  -4  -1    2.98    0.26
  -5  -4  -1    2.72    0.24
   5  -4   1    2.42    0.28
  -5  -5   1    0.13    0.14
  -5  -5   1    0.20    0.13
  -5   5  -1   -0.01    0.12
   5  -5  -1   -0.02    0.13
  -5  -5  -1    0.09    0.11
  -5  -5  -1   -0.20    0.09
   5  -5   1    0.13    0.15
  -5  -6   1    1.21    0.23
   5  -6  -1    1.30    0.27
  -5  -6   1    1.21    0.22
  -5  -6  -1    0.97    0.22
   5  -6   1    0.80    0.22
   5  -7  -1    0.02    0.17
  -5  -7   1   -0.16    0.15
   5  -7   1   -0.09    0.16
  -5  -7  -1   -0.28    0.12
   6   0  -1   53.18    1.44
   6   0   1   52.62    1.45
  -6   0  -1   52.77    1.40
  -6   0   1   51.80    1.38
  -6  -1   1    9.48    0.43
   6  -1  -1    9.48    0.45
  -6   1  -1    8.87    0.43
   6   1   1    9.32    0.42
   6   1  -1    9.40    0.41
  -6  -1  -1    9.47    0.43
   6  -1   1    8.57    0.44
  -6   1   1    9.24    0.42
  -6  -2   1   39.58    1.13
   6  -2  -1   39.18    1.21
  -6   2  -1   39.05    1.14
   6   2   1   39.65    1.11
  -6  -2  -1   38.74    1.11
  -6  -2  -1   40.09    1.04
  -6   2   1   39.83    1.11
   6  -2   1   39.43    1.20
   6   2  -1   40.02    1.08
  -6   3  -1    5.79    0.36
  -6  -3   1    6.25    0.32
   6  -3  -1    6.34    0.41
  -6  -3   1    6.37    0.37
   6  -3   1    5.45    0.38
  -6   3   1    6.54    0.36
  -6  -3  -1    6.37    0.34
  -6  -3  -1    6.74    0.37
  -6  -4   1   18.01    0.68
  -6  -4   1   17.51    0.63
   6  -4  -1   17.51    0.75
  -6   4  -1   17.14    0.68
   6  -4   1   17.65    0.73
  -6  -4  -1   17.49    0.65
  -6  -4  -1   17.08    0.65
  -6   4   1   17.53    0.65
   6  -5  -1    2.91    0.36
  -6   5  -1    2.86    0.31
  -6  -5   1    2.83    0.30
  -6  -5   1    2.80    0.30
  -6  -5  -1    2.95    0.30
  -6  -5  -1    2.62    0.30
   6  -5   1    2.64    0.33
  -6  -6   1    5.26    0.40
   6  -6  -1    5.29    0.46
  -6  -6   1    5.28    0.39
  -6  -6  -1    4.96    0.39
   6  -6   1    4.80    0.44
  -6  -7   1    0.10    0.19
   6  -7  -1    0.50    0.24
  -6  -7  -1    0.96    0.25
   6  -7   1    1.16    0.29
   7   0  -1   19.26    0.70
  -7   0  -1   20.01    0.72
  -7   0   1   18.11    0.69
   7   0   1   18.49    0.71
   7  -1  -1   30.35    1.00
   7   1   1   30.33    0.96
  -7  -1   1   30.22    0.96
  -7   1  -1   31.44    0.99
  -7  -1  -1   29.64    0.96
   7  -1   1   30.29    1.00
  -7   1   1   30.16    0.95
   7   1  -1   30.51    0.94
  -7   2  -1   13.13    0.59
   7   2   1   12.85    0.53
  -7  -2   1   13.31    0.58
   7  -2  -1   14.04    0.63
   7  -2   1   12.98    0.60
  -7   2   1   13.45    0.56
  -7  -2  -1   14.11    0.59
  -7   3  -1   18.52    0.72
   7  -3  -1   17.98    0.77
  -7  -3   1   18.81    0.73
  -7   3   1   18.57    0.69
  -7  -3  -1   18.11    0.70
   7  -3   1   19.86    0.79
   7  -4  -1    5.00    0.41
  -7   4  -1    4.39    0.36
  -7  -4   1    4.81    0.36
  -7  -4  -1    4.40    0.34
   7  -4   1    5.27    0.41
  -7   4   1    5.25    0.36
   7  -5  -1    6.55    0.49
  -7   5  -1    6.92    0.44
  -7  -5   1    6.83    0.45
  -7  -5  -1    6.05    0.41
   7  -5   1    5.89    0.46
   7  -6  -1    0.67    0.24
  -7  -6   1    0.99    0.24
   7  -6   1    1.16    0.29
   8   0  -1    0.14    0.14
  -8   0   1    0.02    0.11
   8   0   1    0.15    0.14
  -8   0  -1   -0.05    0.11
   8   1   1    5.00    0.36
   8  -1  -1    5.32    0.40
  -8   1  -1    5.77    0.39
  -8  -1   1    5.25    0.38
  -8  -1  -1    5.49    0.38
  -8   1   1    5.02    0.36
   8   1  -1    5.38    0.36
   8  -1   1    5.89    0.40
  -8  -2   1   -0.05    0.11
   8  -2  -1    0.08    0.15
  -8   2  -1   -0.05    0.13
   8  -2   1   -0.17    0.12
  -8   2   1   -0.01    0.11
  -8  -2  -1   -0.17    0.11
  -8   3  -1    3.36    0.35
   8  -3  -1    3.68    0.39
  -8  -3   1    3.76    0.38
  -8   3   1    3.29    0.33
   8  -3   1    4.30    0.38
  -8  -3  -1    3.86    0.33
  -8  -4   1    0.00    0.14
   8  -4  -1    0.11    0.18
  -8   4  -1    0.21    0.15
  -8  -4  -1   -0.01    0.14
  -8   4   1    0.12    0.13
   8  -4   1   -0.19    0.16
  -8   5  -1    1.51    0.28
  -8  -5   1    1.88    0.29
   8  -5  -1    1.26    0.28
  -8  -5  -1    1.85    0.29
   8  -5   1    1.98    0.35
  -8  -6   1   -0.07    0.16
   9   0  -1    4.33    0.36
   9   0   1    4.66    0.37
  -9   0   1    4.43    0.37
  -9   0  -1    4.09    0.36
   9  -1  -1    0.41    0.19
  -9   1  -1    0.49    0.18
   9   1   1    0.30    0.17
  -9  -1   1    0.39    0.17
   9  -1   1    0.59    0.20
  -9   1   1    0.52    0.18
  -9  -1  -1    0.24    0.16
  -9  -2   1    3.00    0.35
  -9   2  -1    2.37    0.32
   9  -2  -1    2.94    0.36
   9  -2   1    2.99    0.37
  -9  -2  -1    2.97    0.35
  -9   2   1    2.89    0.33
  -9  -3   1    0.00    0.16
   9  -3  -1    0.22    0.19
  -9   3  -1    0.02    0.14
  -9   3   1    0.10    0.15
   9  -3   1    0.16    0.18
  -9  -3  -1    0.23    0.18
  -9   4  -1    1.05    0.25
   9  -4  -1    1.33    0.30
  -9  -4   1    0.74    0.23
   9  -4   1    0.79    0.26
  -9   4   1    0.98    0.23
  -9  -4  -1    0.76    0.23
  -9   5  -1    0.28    0.19
  10   0   1    3.89    0.40
 -10   0   1    4.06    0.43
 -10   0  -1    3.88    0.41
 -10   1  -1    1.85    0.31
 -10  -1   1    2.10    0.33
  10  -1  -1    2.59    0.36
  10  -1   1    2.36    0.34
 -10  -1  -1    2.35    0.33
 -10   1   1    2.01    0.31
 -10  -2   1    3.15    0.39
 -10   2  -1    3.26    0.39
  10  -2  -1    2.81    0.38
  10  -2   1    3.19    0.40
 -10   2   1    2.86    0.36
 -10  -2  -1    2.78    0.36
 -10   3   1    1.03    0.24
   0   0  -2   65.47    1.44
   0   0   2   65.95    1.55
   0  -1   2   -0.08    0.02
   0   1   2   -0.11    0.02
   0  -1   2   -0.12    0.03
   0   1  -2   -0.07    0.04
   0  -1  -2   -0.05    0.04
   0  -1  -2   -0.03    0.02
   0  -2  -2   66.37    1.57
   0  -2   2   66.81    1.56
   0   3  -2    0.06    0.07
   0   3   2    0.04    0.03
   0  -3   2   -0.04    0.04
   0  -3   2    0.08    0.06
   0   4  -2   13.06    0.49
   0  -4   2   12.93    0.40
   0  -4  -2   12.94    0.49
   0  -4   2   13.43    0.50
   0   4   2   13.73    0.36
   0  -5   2   -0.03    0.10
   0  -5  -2    0.28    0.11
   0   5  -2   -0.11    0.09
   0  -5  -2   -0.16    0.08
   0  -6  -2    0.82    0.18
   0   6  -2    1.13    0.20
   0  -6   2    0.77    0.20
   0  -7  -2   -0.05    0.11
   0  -7   2   -0.02    0.13
   0  -8   2   -0.01    0.17
   0  -8  -2   -0.21    0.13
  -1   0   2   16.66    0.42
   1   0   2   17.17    0.47
  -1   0  -2   16.55    0.44
   1  -1  -2  309.84    6.67
  -1  -1   2  291.39    6.60
   1   1   2  303.61    7.21
   1  -1   2  320.59    6.62
  -1  -1  -2  315.92    6.63
  -1   1   2  303.94    6.62
   1  -1   2  304.98    7.03
  -1  -1  -2  313.72    6.66
  -1  -2   2   10.97    0.28
   1   2   2   10.74    0.36
  -1  -2   2   10.92    0.36
  -1  -2   2   11.06    0.36
   1  -2  -2   10.79    0.35
  -1   2  -2   10.72    0.37
   1  -2   2   10.62    0.35
  -1   2   2   11.19    0.27
   1  -2   2   10.91    0.35
  -1  -2  -2   11.38    0.28
   1  -3  -2   98.65    2.47
  -1  -3   2   98.04    2.26
  -1  -3   2  100.42    2.31
   1  -3  -2  100.48    2.30
  -1   3  -2   98.47    2.30
  -1  -3   2  100.03    2.27
  -1  -3  -2  101.98    2.15
  -1   3   2  100.60    2.13
   1  -3   2   99.65    2.30
   1  -4  -2    2.19    0.23
  -1   4  -2    2.23    0.23
   1  -4  -2    2.39    0.19
  -1   4   2    2.34    0.13
   1  -4   2    2.00    0.17
   1  -4   2    2.34    0.21
   1   4  -2    2.41    0.23
  -1  -5   2   18.10    0.65
  -1   5  -2   16.80    0.63
   1  -5  -2   17.51    0.63
   1  -5  -2   18.71    0.68
   1   5  -2   17.39    0.63
   1  -5   2   17.45    0.63
  -1  -5  -2   18.35    0.66
   1  -5   2   17.49    0.57
  -1   6  -2    0.23    0.13
   1  -6  -2    0.38    0.15
   1  -6  -2    0.32    0.14
  -1  -6   2    0.06    0.13
  -1  -6  -2    0.29    0.13
   1  -6   2    0.26    0.14
   1   6  -2    0.12    0.13
  -1  -7   2    2.81    0.34
   1  -7  -2    2.91    0.32
   1  -7   2    2.91    0.33
  -1  -7  -2    2.53    0.32
  -1  -8   2   -0.13    0.15
   1  -8  -2   -0.01    0.14
   1  -8   2   -0.04    0.17
  -1  -8  -2    0.05    0.16
  -2   0   2   22.39    0.57
  -2   0  -2   22.34    0.59
   2   0  -2   21.92    0.62
  -2   0   2   22.00    0.54
  -2   0  -2   22.33    0.61
  -2  -1   2  968.23   21.24
   2  -1  -2 1000.00   21.23
   2   1   2  962.94   22.71
   2  -1  -2  932.55   22.52
  -2  -1  -2  988.31   21.11
  -2   1   2  996.58   20.95
   2   1  -2  984.33   22.43
   2  -1   2  962.92   21.38
  -2  -2   2   22.84    0.63
   2  -2  -2   22.78    0.71
  -2  -2   2   22.85    0.62
  -2   2  -2   22.64    0.65
   2  -2  -2   23.18    0.60
   2   2   2   22.42    0.64
   2  -2   2   22.76    0.66
  -2   2   2   23.76    0.56
  -2  -2  -2   22.39    0.57
  -2  -2  -2   22.06    0.65
   2  -2   2   22.45    0.61
  -2  -3   2  277.72    5.94
   2   3   2  274.62    6.33
  -2  -3   2  277.62    6.04
   2  -3  -2  280.64    6.00
   2  -3  -2  269.95    6.44
  -2   3  -2  271.46    5.97
  -2   3   2  281.86    5.83
   2  -3   2  271.00    6.00
  -2  -3  -2  276.89    5.84
  -2  -3  -2  273.05    6.07
   2  -3   2  276.12    6.36
   2  -4  -2    5.37    0.33
  -2   4  -2    4.79    0.30
   2  -4  -2    5.61    0.28
  -2  -4   2    4.95    0.29
  -2  -4   2    4.94    0.28
  -2  -4  -2    5.18    0.30
  -2  -4  -2    5.28    0.22
   2  -4   2    5.21    0.29
   2  -4   2    5.27    0.29
  -2   4   2    4.88    0.21
   2  -5  -2   47.00    1.37
  -2  -5   2   46.02    1.29
  -2   5  -2   46.39    1.27
   2  -5  -2   44.34    1.24
   2  -5   2   46.17    1.27
   2  -5   2   46.38    1.26
  -2  -5  -2   44.65    1.30
   2  -6  -2    0.30    0.13
   2  -6  -2    0.58    0.17
  -2   6  -2    0.30    0.14
  -2  -6   2    0.41    0.16
   2   6  -2    0.40    0.16
   2  -6   2    0.50    0.16
  -2  -6  -2    0.37    0.15
  -2  -7   2    5.18    0.41
   2  -7  -2    5.97    0.39
   2  -7   2    5.66    0.41
  -2  -7  -2    4.73    0.39
  -2  -8   2   -0.02    0.17
   2  -8  -2   -0.03    0.14
  -2  -8  -2    0.01    0.16
   2  -8   2   -0.06    0.16
   3   0  -2   11.01    0.38
  -3   0  -2   10.97    0.37
   3   0   2   11.09    0.39
  -3   0   2   11.26    0.30
  -3   0  -2   11.17    0.37
  -3   0   2   10.29    0.35
   3  -1  -2   13.12    0.34
  -3  -1   2   13.08    0.37
   3  -1  -2   13.55    0.47
   3   1   2   13.01    0.42
  -3  -1   2   13.13    0.42
  -3  -1  -2   12.73    0.41
  -3  -1  -2   11.55    0.41
  -3   1   2   12.49    0.39
   3   1  -2   13.33    0.39
   3  -1   2   13.07    0.45
  -3  -2   2    8.44    0.31
  -3   2  -2    8.43    0.35
  -3  -2   2    8.04    0.33
   3   2   2    8.03    0.32
   3  -2  -2    8.65    0.26
  -3  -2  -2    8.87    0.30
  -3  -2  -2    8.45    0.35
   3   2  -2    8.54    0.24
   3  -2   2    8.05    0.29
   3  -2   2    8.61    0.36
   3  -3  -2    5.01    0.31
  -3  -3   2    4.46    0.25
  -3   3  -2    4.14    0.27
   3   3   2    4.11    0.22
  -3  -3   2    4.22    0.25
   3  -3  -2    4.46    0.21
  -3  -3  -2    4.31    0.26
  -3  -3  -2    4.21    0.21
   3  -3   2    4.15    0.26
   3  -3   2    4.19    0.22
  -3   3   2    3.99    0.20
  -3   4  -2    5.07    0.31
  -3  -4   2    4.66    0.29
   3  -4  -2    5.05    0.34
  -3  -4   2    5.01    0.29
   3  -4  -2    4.89    0.25
  -3  -4  -2    4.88    0.24
   3  -4   2    5.02    0.31
  -3  -4  -2    4.54    0.30
   3  -4   2    5.15    0.28
  -3   4   2    5.19    0.23
  -3   5  -2    1.07    0.19
  -3  -5   2    0.90    0.18
  -3  -5   2    0.83    0.17
   3  -5  -2    1.26    0.17
   3  -5  -2    1.26    0.21
   3  -5   2    1.20    0.20
   3  -5   2    1.06    0.18
  -3  -5  -2    1.23    0.22
   3  -6  -2    2.65    0.27
  -3   6  -2    1.98    0.27
  -3  -6   2    2.28    0.29
   3  -6  -2    2.33    0.29
   3  -6   2    2.82    0.29
   3  -6   2    2.76    0.29
  -3  -6  -2    3.13    0.33
  -3  -7   2    0.05    0.15
   3  -7  -2    0.11    0.15
   3  -7   2    0.05    0.14
  -3  -7  -2   -0.03    0.14
  -3  -8   2    0.69    0.24
  -3  -8  -2    0.48    0.21
   3  -8   2    1.15    0.26
   4   0   2  384.17    8.78
  -4   0  -2  379.95    8.18
  -4   0   2  385.48    8.17
   4   0  -2  381.76    8.76
   4  -1  -2    5.82    0.30
  -4  -1   2    5.50    0.28
   4   1   2    6.21    0.29
  -4  -1   2    6.57    0.23
  -4  -1  -2    6.16    0.27
  -4   1   2    5.91    0.27
   4  -1   2    4.46    0.27
   4   1  -2    6.02    0.25
  -4  -1  -2    6.08    0.28
  -4  -2   2  217.31    5.06
  -4   2  -2  231.93    5.10
   4  -2  -2  235.70    4.97
   4   2   2  235.81    5.39
   4  -2  -2  233.43    5.48
  -4  -2   2  234.54    5.07
  -4   2   2  233.52    5.02
   4  -2   2  228.01    5.04
   4   2  -2  230.32    5.29
  -4  -2  -2  237.28    5.14
  -4  -2  -2  232.51    5.03
   4  -2   2  234.07    5.45
  -4   3  -2    0.63    0.15
   4  -3  -2    0.54    0.14
  -4  -3   2    0.75    0.14
   4  -3  -2    0.80    0.10
  -4  -3   2    0.53    0.12
   4   3   2    1.37    0.15
  -4  -3  -2    0.79    0.14
  -4   3   2    0.73    0.12
  -4  -3  -2    0.88    0.13
   4  -3   2    0.81    0.12
   4  -3   2    0.95    0.17
  -4  -4   2   63.79    1.63
  -4   4  -2   64.88    1.67
  -4  -4   2   62.36    1.64
   4  -4  -2   63.15    1.79
   4   4   2   63.13    1.62
  -4   4   2   64.33    1.54
  -4  -4  -2   64.20    1.67
   4  -4   2   65.63    1.74
  -4  -4  -2   66.55    1.56
   4  -4   2   62.07    1.57
  -4   5  -2    0.60    0.17
  -4  -5   2    0.70    0.16
  -4  -5   2    0.41    0.15
   4  -5  -2    0.72    0.18
   4  -5   2    0.56    0.14
  -4  -5  -2    0.78    0.19
   4  -5   2    0.71    0.18
   4  -6  -2   10.28    0.56
  -4   6  -2   11.38    0.55
  -4  -6   2    9.77    0.53
  -4  -6   2   11.07    0.52
   4  -6   2   10.83    0.54
  -4  -6  -2   10.38    0.55
   4  -6   2   10.92    0.50
  -4  -7   2    0.03    0.16
   4  -7  -2    0.27    0.18
  -4  -7  -2    0.23    0.18
   5   0   2   37.70    1.08
  -5   0   2   38.64    1.03
  -5   0  -2   38.10    1.05
   5   0  -2   37.93    1.07
  -5  -1   2   92.60    2.10
   5   1   2   94.59    2.35
   5  -1  -2   95.35    2.39
  -5   1  -2   88.31    2.16
  -5  -1  -2   99.55    2.20
   5  -1   2   94.27    2.38
  -5   1   2   93.64    2.21
  -5  -1  -2   96.10    2.23
   5   1  -2   96.77    2.30
   5   2   2   22.78    0.71
   5  -2  -2   22.20    0.78
  -5   2  -2   22.03    0.74
  -5  -2   2   22.75    0.72
  -5  -2   2   22.38    0.63
   5  -2   2   18.32    0.73
  -5  -2  -2   23.74    0.69
   5   2  -2   23.44    0.64
  -5   2   2   22.43    0.68
  -5  -2  -2   23.60    0.70
  -5   3  -2   49.29    1.37
  -5  -3   2   50.31    1.35
   5  -3  -2   50.59    1.47
  -5  -3   2   50.77    1.30
   5   3   2   51.10    1.35
  -5   3   2   50.75    1.29
  -5  -3  -2   50.89    1.34
   5  -3   2   49.48    1.44
  -5  -3  -2   50.15    1.30
  -5   4  -2    6.54    0.39
  -5  -4   2    7.14    0.39
   5  -4  -2    6.61    0.42
  -5  -4   2    7.09    0.37
  -5   4   2    6.62    0.33
  -5  -4  -2    6.70    0.39
  -5  -4  -2    6.62    0.34
   5  -4   2    6.86    0.42
  -5  -5   2   18.48    0.70
   5  -5  -2   18.15    0.77
  -5   5  -2   17.94    0.71
  -5  -5   2   17.82    0.69
   5  -5   2   18.35    0.75
  -5  -5  -2   17.34    0.71
   5  -6  -2    1.25    0.26
  -5  -6   2    1.58    0.25
  -5  -6   2    1.31    0.25
  -5   6  -2    1.04    0.22
  -5  -6  -2    1.29    0.24
   5  -6   2    1.78    0.29
  -5  -7   2    4.66    0.41
   5  -7  -2    4.31    0.46
  -5  -7  -2    3.80    0.40
  -6   0  -2  113.07    2.66
   6   0  -2  110.88    2.78
  -6   0   2  110.40    2.64
   6   0   2  113.58    2.81
   6  -1  -2    1.95    0.23
  -6   1  -2    2.03    0.24
   6   1   2    2.22    0.23
  -6  -1   2    1.75    0.22
  -6   1   2    1.80    0.21
   6  -1   2    1.96    0.24
  -6  -1  -2    1.78    0.22
   6   1  -2    2.43    0.22
   6  -2  -2   83.61    2.21
  -6  -2   2   80.86    2.05
   6   2   2   83.60    2.11
  -6   2  -2   81.66    2.07
   6  -2   2   81.94    2.19
  -6   2   2   81.39    2.01
  -6  -2  -2   81.85    2.02
  -6  -2  -2   84.29    1.99
   6   3   2    0.60    0.14
   6  -3  -2    0.59    0.17
  -6   3  -2    0.71    0.18
  -6  -3   2    0.74    0.17
  -6  -3  -2    0.91    0.17
   6  -3   2    0.77    0.20
  -6  -3  -2    0.86    0.16
  -6   3   2    0.90    0.16
  -6  -4   2   30.64    1.01
  -6   4  -2   31.70    1.04
   6  -4  -2   31.06    1.11
  -6  -4   2   32.09    0.97
  -6   4   2   32.71    0.96
  -6  -4  -2   33.39    0.98
  -6  -4  -2   32.78    1.02
   6  -4   2   32.47    1.10
   6  -5  -2    0.07    0.16
  -6  -5   2    0.13    0.14
  -6   5  -2    0.15    0.14
  -6  -5   2    0.00    0.15
  -6  -5  -2    0.01    0.13
   6  -5   2   -0.01    0.15
   6  -6  -2    6.78    0.52
  -6  -6   2    7.23    0.46
  -6  -6   2    7.17    0.47
  -6   6  -2    6.70    0.45
  -6  -6  -2    7.65    0.49
   6  -6   2    7.75    0.53
   6  -7  -2   -0.15    0.18
  -6  -7   2    0.15    0.17
  -6  -7  -2   -0.03    0.16
   6  -7   2   -0.42    0.15
   7   0  -2   47.04    1.33
   7   0   2   46.69    1.36
  -7   0  -2   44.53    1.31
  -7   0   2   45.05    1.30
  -7  -1   2    0.27    0.14
   7   1   2    0.45    0.15
   7  -1  -2    0.02    0.12
  -7   1  -2    0.49    0.15
   7   1  -2    0.38    0.14
   7  -1   2    0.42    0.16
  -7   1   2    0.34    0.14
  -7  -1  -2    0.49    0.15
   7  -2  -2   35.10    1.16
  -7  -2   2   35.80    1.10
  -7   2  -2   35.21    1.12
   7   2   2   36.42    1.09
  -7  -2  -2   36.25    1.09
   7  -2   2   35.31    1.16
  -7   2   2   35.63    1.07
  -7  -3   2    0.32    0.15
   7  -3  -2    0.15    0.16
  -7   3  -2   -0.03    0.12
  -7  -3  -2    0.46    0.16
   7  -3   2    0.37    0.18
  -7   3   2    0.26    0.12
  -7   4  -2   16.95    0.73
  -7  -4   2   17.32    0.72
   7  -4  -2   16.16    0.77
   7  -4   2   18.36    0.79
  -7  -4  -2   19.14    0.70
  -7   5  -2   -0.14    0.13
  -7  -5   2   -0.04    0.15
   7  -5  -2   -0.13    0.15
   7  -5   2   -0.16    0.15
   7  -6  -2    5.55    0.49
  -7  -6   2    6.57    0.46
  -7   6  -2    6.90    0.48
   7  -6   2    6.64    0.52
  -8   0   2    4.90    0.36
   8   0   2    5.74    0.40
  -8   0  -2    5.42    0.38
   8   0  -2    5.27    0.38
   8   1   2    5.98    0.39
  -8   1  -2    5.21    0.38
  -8  -1   2    5.78    0.40
   8  -1  -2    5.84    0.41
  -8   1   2    6.23    0.40
  -8  -1  -2    5.48    0.39
   8  -1   2    5.11    0.40
  -8  -2   2    3.05    0.33
   8  -2  -2    2.75    0.33
   8   2   2    3.48    0.30
  -8   2  -2    3.16    0.35
  -8  -2  -2    2.97    0.33
   8  -2   2    3.12    0.35
  -8   2   2    3.78    0.35
  -8   3  -2    2.56    0.32
  -8  -3   2    2.46    0.31
   8  -3  -2    2.48    0.33
  -8   3   2    2.56    0.30
   8  -3   2    2.23    0.31
  -8  -3  -2    2.49    0.31
  -8  -4   2    0.91    0.22
   8  -4  -2    1.05    0.26
  -8   4  -2    0.71    0.21
   8  -4   2    0.65    0.22
  -8  -4  -2    0.65    0.20
  -8  -5   2    0.46    0.20
  -8   5  -2    0.45    0.21
   8  -5  -2    0.61    0.24
   8  -5   2    1.02    0.28
  -9   0  -2    2.22    0.30
   9   0   2    2.54    0.32
   9   0  -2    2.07    0.28
  -9   0   2    1.82    0.28
   9  -1  -2    0.41    0.21
  -9   1  -2    0.27    0.17
  -9  -1   2    0.50    0.19
   9   1   2    0.42    0.18
   9  -1   2    0.47    0.20
  -9  -1  -2    0.33    0.18
  -9   1   2    0.43    0.18
  -9  -2   2    1.73    0.28
  -9   2  -2    1.66    0.28
   9  -2  -2    1.39    0.28
  -9   2   2    1.79    0.28
   9  -2   2    1.95    0.31
  -9  -2  -2    1.38    0.25
  -9  -3   2    0.32    0.19
   9  -3  -2    0.40    0.23
  -9   3  -2    0.28    0.20
  -9  -3  -2    0.56    0.21
  -9   3   2    0.63    0.19
   9  -3   2    0.43    0.21
  -9  -4   2    0.67    0.22
  -9   4  -2    0.32    0.20
   9  -4  -2    0.50    0.23
  -9  -4  -2    0.48    0.21
   9  -4   2    0.63    0.24
 -10   0   2    2.35    0.34
 -10   0  -2    2.43    0.34
  10   0   2    2.95    0.36
 -10   1  -2    0.61    0.23
 -10  -1   2    0.90    0.25
  10  -1  -2    0.81    0.25
 -10   1   2    0.96    0.24
  10  -1   2    0.54    0.22
 -10  -1  -2    1.14    0.25
  10  -2  -2    1.77    0.33
 -10  -2   2    1.36    0.29
 -10   2  -2    1.57    0.29
  10  -2   2    1.80    0.33
 -10   2   2    1.98    0.31
 -10  -2  -2    2.19    0.33
 -10   3   2    0.28    0.18
   0   0  -3   -0.02    0.03
   0   0   3   -0.01    0.03
   0  -1   3  187.62    4.34
   0   1  -3  182.88    4.08
   0  -1  -3  192.74    4.19
   0  -1  -3  193.97    4.00
   0  -2   3   -0.07    0.03
   0  -2   3   -0.01    0.02
   0   2  -3    0.00    0.03
   0  -2  -3    0.09    0.06
   0  -3  -3   51.62    1.34
   0  -3   3   54.32    1.28
   0   3  -3   52.27    1.33
   0  -3   3   50.85    1.31
   0  -4   3    0.06    0.09
   0   4  -3    0.18    0.10
   0  -4  -3    0.04    0.08
   0  -4   3    0.00    0.06
   0  -5  -3   10.42    0.50
   0   5  -3   10.47    0.49
   0  -5   3   11.05    0.49
   0  -5  -3   11.25    0.49
   0  -6   3    0.12    0.13
   0  -6  -3    0.06    0.12
   0   6  -3    0.00    0.12
   0  -6  -3    0.03    0.11
   0  -7  -3    2.31    0.31
   0  -7   3    2.49    0.32
   0   7  -3    2.30    0.30
   0  -8   3   -0.15    0.16
   0  -8  -3   -0.02    0.15
  -1   0  -3    8.63    0.29
  -1   0   3    8.91    0.28
   1  -1  -3   35.96    0.93
  -1   1  -3   35.62    0.91
  -1  -1   3   36.84    0.90
   1   1   3   35.86    0.95
  -1  -1  -3   36.40    0.84
   1  -1   3   35.47    0.90
  -1   1   3   36.42    0.82
   1  -2  -3    7.32    0.30
   1   2   3    7.31    0.30
  -1  -2   3    6.97    0.29
  -1  -2   3    7.35    0.23
  -1   2   3    7.10    0.18
  -1  -2  -3    7.40    0.20
   1  -2   3    7.65    0.30
  -1   3  -3    1.11    0.16
   1  -3  -3    0.86    0.13
  -1  -3   3    1.13    0.08
  -1  -3   3    1.08    0.14
   1  -3   3    1.05    0.14
  -1  -3  -3    1.32    0.17
  -1  -3  -3    1.15    0.06
   1  -3   3    1.11    0.12
   1  -4  -3    0.59    0.12
  -1  -4   3    0.22    0.09
   1  -4  -3    0.69    0.15
  -1   4  -3    0.65    0.15
   1  -4   3    0.70    0.12
   1   4  -3    0.47    0.14
  -1  -4  -3    0.56    0.13
   1  -4   3    0.48    0.13
   1  -5  -3   -0.03    0.09
   1  -5  -3    0.01    0.10
  -1   5  -3    0.10    0.11
  -1  -5   3   -0.02    0.09
   1   5  -3   -0.14    0.09
  -1  -5  -3    0.03    0.10
   1  -5   3    0.12    0.11
  -1   6  -3    0.21    0.13
  -1  -6   3   -0.04    0.11
   1  -6  -3    0.15    0.12
   1  -6  -3    0.10    0.13
  -1  -6  -3    0.13    0.12
   1   6  -3    0.03    0.12
   1  -6   3    0.02    0.13
  -1  -7   3    0.04    0.15
   1  -7  -3    0.16    0.14
  -1   7  -3    0.30    0.17
  -1  -7  -3    0.33    0.18
   1  -7   3    0.03    0.14
   1   7  -3    0.14    0.15
  -1  -8   3    0.24    0.19
   1  -8  -3   -0.11    0.14
  -1  -8  -3   -0.13    0.15
   1  -8   3    0.14    0.18
  -2   0  -3   72.67    1.67
  -2  -1   3  120.21    2.66
  -2   1  -3  116.77    2.68
   2  -1  -3  119.73    2.69
   2   1   3  120.80    2.85
  -2  -1  -3  120.50    2.62
   2  -1   3  118.36    2.69
  -2  -1  -3  120.34    2.75
   2  -1   3  118.46    2.84
  -2   1   3  123.82    2.60
   2   2   3   33.47    0.91
  -2   2  -3   30.46    0.89
   2  -2  -3   33.11    0.86
  -2  -2   3   32.88    0.87
   2  -2   3   34.07    0.87
  -2   2   3   34.10    0.77
   2  -2   3   33.77    0.91
  -2  -2  -3   34.01    0.79
  -2  -2  -3   32.94    0.93
   2  -3  -3   43.43    1.26
   2   3   3   42.75    1.17
  -2  -3   3   44.39    1.14
  -2   3  -3   43.68    1.16
  -2  -3   3   43.82    1.14
   2  -3  -3   43.90    1.12
  -2  -3  -3   43.81    1.19
  -2   3   3   43.75    0.98
  -2  -3  -3   42.68    1.00
   2  -3   3   43.36    1.13
   2  -3   3   44.07    1.17
  -2   4  -3    4.81    0.32
  -2  -4   3    4.84    0.28
  -2  -4   3    5.10    0.30
   2  -4  -3    4.79    0.27
   2  -4  -3    4.75    0.33
   2  -4   3    4.26    0.27
  -2  -4  -3    4.93    0.31
   2  -4   3    4.70    0.27
   2  -5  -3    7.97    0.39
  -2   5  -3    7.68    0.42
   2  -5  -3    8.25    0.47
  -2  -5   3    7.95    0.42
   2  -5   3    7.58    0.40
   2   5  -3    7.23    0.41
  -2  -5  -3    7.87    0.43
   2  -5   3    8.19    0.38
  -2   6  -3    0.10    0.14
  -2  -6   3    0.29    0.15
   2  -6  -3    0.16    0.13
   2  -6  -3    0.24    0.15
  -2  -6  -3    0.42    0.16
   2   6  -3    0.09    0.14
   2  -6   3    0.19    0.14
  -2  -7   3    1.31    0.26
   2  -7  -3    1.07    0.22
  -2   7  -3    1.14    0.23
   2  -7  -3    1.30    0.25
   2  -7   3    1.36    0.26
  -2  -7  -3    1.37    0.26
   2   7  -3    1.11    0.24
   2  -8  -3   -0.14    0.15
  -2  -8   3    0.05    0.17
  -2  -8  -3   -0.07    0.15
   2  -8   3   -0.24    0.14
  -3   0  -3   30.04    0.81
  -3   0  -3   31.50    0.84
  -3   0   3   29.69    0.78
   3   0  -3   28.69    0.84
   3   0   3   29.51    0.84
   3   1   3   38.18    1.02
  -3  -1   3   37.37    0.96
  -3   1  -3   36.40    0.98
   3  -1  -3   37.21    0.91
   3  -1  -3   38.04    1.06
   3  -1   3   36.87    1.02
   3   1  -3   36.53    0.97
  -3  -1  -3   38.17    0.94
  -3  -1  -3   37.26    1.01
  -3   1   3   37.77    0.92
  -3  -2   3   10.83    0.37
   3   2   3    9.99    0.39
  -3   2  -3    9.41    0.40
   3  -2  -3    9.91    0.33
   3  -2  -3   10.64    0.45
   3  -2   3   10.71    0.42
  -3  -2  -3    9.82    0.41
   3   2  -3    9.93    0.30
   3  -2   3    9.70    0.36
  -3  -2  -3   10.11    0.34
  -3  -3   3   14.97    0.53
  -3   3  -3   15.17    0.56
   3  -3  -3   15.96    0.62
   3   3   3   14.82    0.52
   3  -3  -3   15.28    0.48
  -3  -3   3   14.67    0.52
   3  -3   3   15.76    0.52
   3  -3   3   15.32    0.55
  -3  -3  -3   15.83    0.46
  -3  -3  -3   15.09    0.56
   3  -4  -3    3.70    0.23
  -3  -4   3    3.63    0.27
   3  -4  -3    3.96    0.32
   3   4   3    3.52    0.24
  -3  -4   3    3.84    0.27
  -3   4  -3    3.69    0.29
  -3  -4  -3    3.63    0.28
   3  -4   3    4.01    0.27
   3  -4   3    3.76    0.28
  -3   5  -3    5.39    0.36
   3  -5  -3    5.08    0.30
  -3  -5   3    4.87    0.34
  -3  -5   3    5.08    0.34
   3  -5  -3    4.64    0.37
   3  -5   3    5.20    0.33
  -3  -5  -3    4.98    0.35
   3  -6  -3    1.84    0.24
  -3   6  -3    2.18    0.28
   3  -6  -3    1.76    0.28
  -3  -6   3    1.97    0.28
   3  -6   3    1.49    0.23
   3   6  -3    1.60    0.25
  -3  -6  -3    1.81    0.27
  -3   7  -3    1.21    0.25
  -3  -7   3    1.21    0.25
   3  -7  -3    1.30    0.26
   3  -7   3    1.21    0.23
   3   7  -3    1.40    0.27
  -3  -7  -3    1.08    0.25
  -3  -8   3    0.48    0.22
   3  -8   3    0.81    0.24
   4   0  -3   17.14    0.56
  -4   0   3   15.50    0.52
  -4   0  -3   16.31    0.55
  -4   0  -3   16.08    0.54
   4   0   3   16.32    0.56
  -4  -1   3    0.02    0.07
   4  -1  -3    0.12    0.04
  -4  -1   3   -0.01    0.03
  -4   1  -3   -0.09    0.06
   4  -1  -3    0.10    0.08
   4   1   3   -0.02    0.06
  -4   1   3   -0.06    0.06
  -4  -1  -3    0.09    0.07
   4   1  -3    0.06    0.06
   4  -1   3   -0.04    0.03
  -4  -1  -3   -0.07    0.06
   4  -2  -3   10.55    0.47
   4   2   3    9.35    0.40
   4  -2  -3    9.54    0.30
  -4  -2   3    9.81    0.37
  -4   2   3    9.70    0.36
   4  -2   3   10.03    0.44
   4   2  -3    9.92    0.32
  -4  -2  -3    9.74    0.41
  -4  -2  -3    9.83    0.37
   4  -3  -3    0.19    0.07
   4   3   3    0.19    0.09
  -4  -3   3    0.21    0.10
   4  -3  -3    0.18    0.12
  -4   3  -3    0.14    0.11
  -4  -3   3   -0.04    0.08
  -4  -3  -3    0.03    0.07
  -4  -3  -3    0.18    0.10
   4  -3   3    0.26    0.13
  -4   3   3    0.20    0.08
   4  -3   3    0.16    0.09
   4  -4  -3    1.64    0.25
  -4   4  -3    1.79    0.23
   4   4   3    2.02    0.21
  -4  -4   3    2.18    0.24
  -4  -4   3    1.98    0.24
  -4  -4  -3    1.95    0.24
   4  -4   3    2.13    0.26
   4  -4   3    1.80    0.20
  -4  -4  -3    1.85    0.18
   4  -5  -3    0.35    0.15
  -4   5  -3    0.29    0.15
  -4  -5   3    0.30    0.14
  -4  -5   3    0.05    0.13
   4  -5   3    0.22    0.13
  -4  -5  -3    0.02    0.12
   4  -5   3    0.42    0.15
  -4  -6   3    0.26    0.15
  -4   6  -3    0.10    0.15
   4  -6  -3    0.02    0.14
  -4  -6   3    0.11    0.14
   4  -6   3   -0.01    0.13
  -4  -6  -3    0.06    0.14
   4  -6   3    0.11    0.14
  -4   7  -3    0.15    0.16
  -4  -7   3    0.31    0.18
   4  -7  -3    0.17    0.17
  -4  -7  -3    0.06    0.16
   4   7  -3    0.17    0.17
  -5   0   3   21.74    0.70
  -5   0  -3   23.95    0.71
  -5   0  -3   22.48    0.72
   5   0  -3   23.04    0.73
   5   0   3   22.49    0.75
   5   1   3    1.49    0.19
  -5   1  -3    1.59    0.20
  -5   1  -3    1.82    0.19
  -5  -1   3    1.83    0.21
   5  -1  -3    1.51    0.20
  -5  -1  -3    1.30    0.17
   5  -1   3    1.00    0.17
  -5  -1  -3    1.80    0.19
   5   1  -3    1.67    0.17
  -5   1   3    1.46    0.17
  -5   2  -3   11.83    0.52
  -5  -2   3   12.24    0.42
   5   2   3   12.78    0.49
   5  -2  -3   11.55    0.53
  -5  -2   3   11.82    0.49
  -5  -2  -3   11.99    0.46
  -5  -2  -3   11.25    0.47
   5  -2   3   11.58    0.51
  -5   2   3   11.95    0.45
  -5  -3   3    0.10    0.11
  -5   3  -3    0.83    0.18
   5   3   3   -0.01    0.09
   5  -3  -3   -0.08    0.09
  -5  -3   3    0.07    0.09
   5  -3   3    0.02    0.11
  -5  -3  -3    0.20    0.10
  -5   3   3    0.10    0.09
  -5  -3  -3   -0.07    0.09
   5  -3   3    0.06    0.09
  -5  -4   3    3.56    0.30
   5  -4  -3    3.65    0.33
  -5   4  -3    3.73    0.31
  -5  -4   3    3.21    0.26
  -5  -4  -3    3.74    0.26
  -5  -4  -3    3.61    0.30
   5  -4   3    3.31    0.31
  -5  -5   3   -0.01    0.12
  -5  -5   3    0.04    0.12
  -5   5  -3    0.08    0.14
   5  -5  -3    0.19    0.15
   5  -5   3    0.24    0.16
  -5  -5  -3   -0.12    0.11
  -5  -6   3    0.42    0.18
   5  -6  -3    0.48    0.21
  -5  -6   3    0.80    0.20
  -5   6  -3    0.81    0.22
   5  -6   3    0.83    0.22
  -5  -6  -3    1.12    0.24
  -5  -7   3   -0.08    0.15
   5  -7  -3    0.14    0.19
  -5  -7  -3   -0.04    0.16
  -6   0  -3   15.39    0.59
   6   0   3   15.37    0.60
  -6   0   3   14.38    0.56
   6   0  -3   14.40    0.57
  -6  -1   3   26.37    0.85
   6   1   3   26.22    0.87
  -6   1  -3   25.79    0.87
   6  -1  -3   27.33    0.90
  -6  -1  -3   27.66    0.80
  -6   1   3   26.51    0.83
  -6  -1  -3   27.10    0.85
   6  -1   3   25.99    0.90
   6   1  -3   27.08    0.82
   6   2   3   11.28    0.50
  -6  -2   3   10.86    0.50
  -6   2  -3   11.59    0.53
   6  -2  -3   11.25    0.54
  -6  -2  -3   11.51    0.48
   6  -2   3   10.69    0.53
  -6   2   3   10.69    0.46
  -6  -2  -3   12.24    0.48
   6   3   3   15.48    0.59
  -6   3  -3   15.34    0.65
   6  -3  -3   15.76    0.68
  -6  -3   3   14.32    0.61
   6  -3   3   14.49    0.65
  -6   3   3   15.77    0.57
  -6  -3  -3   14.65    0.57
  -6  -3  -3   15.43    0.59
  -6  -4   3    4.86    0.36
   6  -4  -3    5.16    0.41
  -6   4  -3    4.60    0.36
  -6  -4  -3    5.09    0.36
  -6  -4  -3    5.11    0.33
   6  -4   3    4.48    0.38
   6  -5  -3    5.63    0.44
  -6  -5   3    4.69    0.35
  -6   5  -3    5.27    0.41
  -6  -5   3    4.79    0.37
   6  -5   3    5.06    0.41
  -6  -5  -3    4.79    0.37
  -6   6  -3    1.51    0.28
  -6  -6   3    1.59    0.27
  -6  -6   3    1.38    0.26
   6  -6  -3    1.34    0.29
  -6  -6  -3    1.39    0.28
   6  -6   3    2.03    0.32
  -6  -7   3    0.88    0.23
  -6  -7   3    1.01    0.25
   7   0   3    8.46    0.46
  -7   0   3    9.68    0.47
  -7   0  -3    9.20    0.48
   7   0  -3    9.16    0.46
   7  -1  -3   19.90    0.75
   7   1   3   20.07    0.74
  -7  -1   3   19.44    0.73
  -7   1  -3   19.56    0.75
  -7   1   3   19.01    0.70
  -7  -1  -3   18.01    0.70
   7  -1   3   18.88    0.76
  -7   2  -3    6.74    0.43
   7  -2  -3    7.52    0.45
   7   2   3    7.41    0.41
  -7  -2   3    6.89    0.41
  -7  -2  -3    6.84    0.40
  -7   2   3    6.74    0.38
   7  -2   3    6.54    0.44
  -7   3  -3   10.07    0.54
  -7  -3   3   10.93    0.55
   7  -3  -3   10.89    0.59
  -7  -3  -3   11.08    0.51
  -7   3   3   11.06    0.50
   7  -3   3   11.70    0.59
   7  -4  -3    2.71    0.35
  -7  -4   3    2.90    0.33
  -7   4  -3    3.42    0.37
   7  -4   3    3.10    0.36
  -7  -4  -3    3.25    0.32
  -7  -5   3    3.46    0.37
  -7   5  -3    2.81    0.36
   7  -5  -3    2.55    0.37
  -7  -5  -3    2.97    0.34
   7  -5   3    3.07    0.38
   7  -6  -3    0.99    0.28
  -7   6  -3    1.02    0.25
  -7  -6   3    0.97    0.24
  -7  -6  -3    0.74    0.24
   7  -6   3    0.92    0.27
  -8   0  -3    9.70    0.53
   8   0  -3    9.70    0.50
   8   0   3   10.10    0.53
  -8   0   3    9.97    0.51
  -8  -1   3    7.79    0.46
  -8   1  -3    7.41    0.46
   8   1   3    6.97    0.43
   8  -1  -3    7.36    0.47
   8  -1   3    7.47    0.47
  -8  -1  -3    7.46    0.45
  -8   1   3    7.23    0.44
   8   2   3    8.11    0.46
   8  -2  -3    7.04    0.49
  -8   2  -3    7.90    0.49
  -8  -2   3    8.47    0.49
  -8  -2  -3    8.56    0.48
   8  -2   3    8.22    0.50
  -8   2   3    8.63    0.46
  -8  -3   3    3.65    0.37
  -8   3  -3    3.71    0.39
   8  -3  -3    2.95    0.38
   8  -3   3    3.45    0.38
  -8  -3  -3    3.76    0.36
  -8   3   3    3.57    0.35
  -8   4  -3    3.76    0.41
  -8  -4   3    3.44    0.38
   8  -4  -3    3.25    0.41
   8  -4   3    3.50    0.41
  -8  -5   3    1.03    0.25
   8  -5  -3    0.84    0.27
  -8   5  -3    1.33    0.29
   8  -5   3    0.79    0.25
   9   0   3    6.03    0.44
  -9   0  -3    5.90    0.44
  -9   0   3    5.89    0.43
   9  -1  -3   26.51    1.01
   9   1   3   28.31    1.02
  -9   1  -3   29.09    1.05
  -9  -1   3   27.85    1.02
  -9  -1  -3   28.66    1.02
  -9   1   3   27.84    1.00
   9  -1   3   26.99    1.04
   9  -2  -3    4.67    0.44
  -9   2  -3    4.97    0.43
  -9  -2   3    4.57    0.45
   9  -2   3    5.07    0.44
  -9  -2  -3    5.22    0.42
  -9   2   3    5.03    0.40
  -9   3  -3   17.08    0.80
   9  -3  -3   16.61    0.82
  -9  -3   3   17.51    0.79
  -9  -3  -3   17.09    0.75
   9  -3   3   15.81    0.79
  -9   4  -3    2.14    0.34
 -10   0  -3    1.12    0.25
  10   0   3    1.25    0.27
 -10   0   3    1.00    0.24
 -10  -1   3    0.23    0.18
  10  -1  -3    0.24    0.21
 -10   1  -3    0.24    0.19
  10   1   3    0.33    0.18
  10  -1   3    0.27    0.19
 -10   1   3    0.39    0.20
 -10  -1  -3    0.43    0.21
  10  -2  -3    0.75    0.27
 -10   2   3    1.29    0.27
 -10  -2  -3    1.10    0.26
   0   0   4  178.26    4.10
   0   0  -4  173.39    3.80
   0   1  -4   -0.04    0.06
   0  -1  -4    0.21    0.09
   0   1   4    0.09    0.06
   0  -1  -4    0.03    0.04
   0  -1   4    0.04    0.04
   0  -1   4    0.08    0.06
   0   2  -4   59.20    1.50
   0  -2  -4   62.84    1.30
   0  -2  -4   60.94    1.54
   0  -3   4   -0.01    0.02
   0   3  -4   -0.04    0.07
   0  -3   4    0.06    0.03
   0  -3  -4   -0.01    0.07
   0  -4  -4    5.57    0.34
   0  -4   4    6.01    0.34
   0   4  -4    5.99    0.35
   0   5  -4   -0.07    0.11
   0  -5  -4    0.04    0.10
   0  -5   4    0.04    0.11
   0  -6   4    0.33    0.16
   0   6  -4    0.04    0.13
   0  -6  -4    0.04    0.11
   0  -6  -4   -0.01    0.12
   0  -7   4   -0.09    0.13
   0  -7  -4   -0.12    0.13
   0   7  -4   -0.23    0.13
   0  -8  -4   -0.01    0.15
   0  -8   4   -0.11    0.17
  -1   0  -4    0.35    0.08
   1   0   4    0.70    0.11
  -1   1  -4   98.23    2.19
  -1  -1   4   94.97    2.19
  -1  -1   4   94.55    2.15
   1  -1  -4   93.60    2.23
   1  -1   4   97.72    2.30
  -1  -1  -4   93.54    2.09
  -1   1   4   95.28    2.07
   1  -1   4   93.15    2.20
   1   2   4    0.47    0.10
  -1   2  -4    0.35    0.10
   1  -2  -4    0.30    0.05
   1  -2  -4    0.50    0.11
  -1  -2   4    0.25    0.06
  -1  -2   4    0.34    0.09
  -1  -2  -4    0.37    0.05
   1  -2   4    0.42    0.09
   1  -2   4    0.34    0.09
  -1  -2  -4    0.05    0.05
  -1  -3   4   37.53    1.04
  -1  -3   4   38.39    0.95
   1  -3  -4   38.99    1.06
   1  -3   4   38.62    1.02
   1  -3   4   37.08    1.04
  -1  -4   4   -0.01    0.09
  -1   4  -4    0.05    0.10
   1  -4  -4    0.04    0.08
  -1  -4  -4   -0.12    0.07
   1  -4   4    0.05    0.10
   1   4  -4    0.02    0.10
   1  -4   4    0.01    0.07
   1  -5  -4    7.72    0.46
  -1   5  -4    8.36    0.46
   1  -5  -4    8.24    0.42
  -1  -5   4    7.57    0.42
  -1  -5  -4    7.91    0.43
   1  -5   4    8.16    0.43
   1   5  -4    7.04    0.42
  -1  -6   4    0.11    0.14
  -1   6  -4    0.40    0.17
   1  -6  -4    0.14    0.12
   1  -6  -4    0.13    0.14
   1  -6   4    0.19    0.14
   1   6  -4    0.18    0.15
  -1  -6  -4    0.27    0.15
  -1   7  -4    1.36    0.26
  -1  -7   4    1.34    0.26
   1  -7  -4    1.14    0.23
   1   7  -4    1.36    0.26
   1  -7   4    1.28    0.25
  -1  -7  -4    1.32    0.25
  -1  -8   4    0.32    0.20
   1  -8  -4   -0.18    0.14
  -1  -8  -4    0.02    0.18
   1  -8   4   -0.03    0.17
   2   0   4   73.66    1.86
  -2   0  -4   75.89    1.74
  -2   0   4   74.02    1.70
   2  -1  -4   13.54    0.47
  -2  -1   4   13.79    0.45
  -2  -1   4   14.17    0.45
  -2   1  -4   13.31    0.47
   2   1   4   13.66    0.48
   2  -1   4   13.59    0.47
  -2  -1  -4   13.64    0.51
  -2  -1  -4   13.83    0.42
   2  -2  -4   33.70    0.92
   2   2   4   33.76    0.96
  -2   2  -4   33.10    0.94
  -2  -2   4   34.03    0.92
  -2  -2   4   33.97    0.91
  -2  -2  -4   32.95    0.81
  -2   2   4   35.60    0.79
   2  -2   4   33.61    0.94
  -2  -2  -4   34.20    0.99
   2  -2   4   32.12    0.91
   2  -3  -4    4.18    0.25
  -2   3  -4    2.79    0.27
   2   3   4    4.12    0.26
  -2  -3   4    3.80    0.25
  -2  -3  -4    3.96    0.16
  -2  -3  -4    3.38    0.26
   2  -3   4    3.93    0.24
   2  -3   4    4.13    0.25
  -2  -4   4    8.83    0.42
   2  -4  -4    8.00    0.38
  -2   4  -4    8.72    0.44
   2  -4  -4    8.50    0.48
  -2  -4  -4    8.58    0.44
   2  -4   4    9.02    0.41
   2  -4   4    8.74    0.38
  -2   5  -4    0.12    0.13
   2  -5  -4    0.17    0.11
  -2  -5   4   -0.04    0.11
   2  -5  -4    0.04    0.12
  -2  -5  -4    0.03    0.11
   2   5  -4   -0.04    0.11
   2  -5   4   -0.05    0.11
  -2   6  -4    1.41    0.25
   2  -6  -4    1.86    0.25
   2  -6  -4    1.68    0.27
  -2  -6   4    1.84    0.28
   2   6  -4    1.84    0.27
  -2  -6  -4    1.50    0.25
   2  -6   4    2.14    0.27
  -2   7  -4    0.39    0.19
   2  -7  -4    0.84    0.23
  -2  -7   4    0.46    0.19
   2  -7  -4    0.71    0.20
  -2  -7  -4    0.31    0.19
   2  -7   4    0.65    0.21
   2   7  -4    0.37    0.19
  -2  -8  -4   -0.21    0.15
   2  -8   4    0.21    0.19
  -3   0  -4  107.25    2.47
  -3   0  -4  107.87    2.57
   3   0  -4  107.05    2.65
  -3   0   4  109.57    2.44
  -3  -1   4    3.59    0.21
   3   1   4    4.16    0.25
   3  -1  -4    4.33    0.23
   3  -1  -4    4.13    0.27
  -3  -1   4    4.29    0.24
  -3   1  -4    3.94    0.26
  -3  -1  -4    3.94    0.22
   3   1  -4    4.13    0.23
   3  -1   4    4.14    0.25
  -3   1   4    4.09    0.20
  -3  -1  -4    3.81    0.27
  -3  -2   4   63.92    1.55
  -3  -2   4   63.48    1.57
   3  -2  -4   64.11    1.74
   3   2   4   62.58    1.65
   3  -2  -4   64.14    1.53
  -3  -2  -4   63.63    1.65
   3   2  -4   62.88    1.54
   3  -2   4   62.21    1.65
  -3  -2  -4   63.94    1.48
   3  -2   4   63.08    1.56
  -3   3  -4    0.31    0.12
   3  -3  -4    0.15    0.11
  -3  -3   4    0.17    0.09
   3  -3  -4    0.12    0.08
   3   3   4    0.24    0.11
  -3  -3   4    0.19    0.09
  -3  -3  -4    0.20    0.07
   3  -3   4    0.38    0.11
  -3  -3  -4    0.20    0.11
   3  -3   4    0.17    0.10
  -3  -4   4   18.11    0.65
   3  -4  -4   17.47    0.73
   3  -4  -4   17.81    0.59
   3   4   4   17.11    0.63
  -3  -4   4   17.50    0.64
  -3   4  -4   17.72    0.68
   3  -4   4   17.61    0.63
  -3  -4  -4   16.69    0.67
   3  -4   4   17.35    0.63
  -3  -5   4    0.26    0.14
  -3   5  -4   -0.14    0.10
   3  -5  -4   -0.05    0.11
   3  -5  -4   -0.02    0.08
   3  -5   4    0.10    0.12
  -3  -5  -4   -0.12    0.09
   3  -5   4    0.04    0.10
   3  -6  -4    3.19    0.38
  -3   6  -4    3.69    0.38
  -3  -6   4    3.11    0.34
   3  -6   4    2.94    0.32
   3   6  -4    3.41    0.37
  -3  -6  -4    2.59    0.32
  -3  -7   4    0.25    0.18
  -3   7  -4    0.05    0.16
   3  -7  -4   -0.02    0.15
   3   7  -4    0.28    0.18
   3  -7   4    0.18    0.17
  -3  -7  -4   -0.03    0.15
   3  -8   4    0.54    0.22
   4   0  -4   -0.23    0.06
   4   0   4   -0.01    0.06
  -4   0  -4   -0.04    0.08
  -4   0  -4   -0.03    0.08
  -4   0   4   -0.11    0.05
   4  -1  -4    3.05    0.26
   4   1   4    3.53    0.25
   4  -1  -4    3.64    0.20
  -4  -1   4    3.53    0.24
  -4   1  -4    3.72    0.27
  -4  -1   4    3.77    0.21
   4   1  -4    3.22    0.21
  -4  -1  -4    3.49    0.26
  -4  -1  -4    3.45    0.23
  -4   1   4    3.70    0.22
  -4  -2   4    0.40    0.11
  -4  -2   4    0.18    0.10
  -4   2  -4    0.19    0.10
   4  -2  -4    0.26    0.07
   4  -2  -4    0.16    0.12
   4   2   4    0.29    0.11
  -4   2   4    0.22    0.08
  -4  -2  -4    0.33    0.10
  -4  -2  -4    0.33    0.12
   4  -2   4    0.11    0.10
  -4  -3   4    3.15    0.25
   4   3   4    2.97    0.25
  -4   3  -4    2.66    0.28
   4  -3  -4    2.75    0.31
  -4  -3   4    2.86    0.24
   4  -3   4    2.77    0.25
   4  -3   4    2.67    0.23
  -4  -3  -4    2.44    0.27
  -4  -3  -4    2.72    0.20
   4   4   4    1.49    0.20
   4  -4  -4    1.12    0.22
  -4  -4   4    1.42    0.21
  -4  -4   4    1.68    0.22
  -4   4  -4    1.01    0.21
   4  -4   4    1.25    0.18
  -4  -4  -4    1.00    0.20
   4  -4   4    1.31    0.20
   4  -5  -4    0.37    0.18
  -4   5  -4    0.30    0.15
  -4  -5   4    0.29    0.15
  -4  -5   4    0.43    0.15
   4  -5   4    0.61    0.18
   4  -5   4    0.08    0.12
  -4  -5  -4    0.28    0.15
  -4   6  -4    1.15    0.23
  -4  -6   4    1.41    0.26
   4  -6  -4    1.39    0.28
  -4  -6  -4    1.09    0.23
   4  -6   4    1.19    0.23
   4  -7  -4   -0.03    0.15
  -4   7  -4    0.05    0.16
  -4  -7   4    0.17    0.17
  -4  -7  -4    0.07    0.17
   4   7  -4   -0.03    0.17
   5   0  -4   33.79    1.04
  -5   0  -4   36.85    1.04
  -5   0   4   35.68    1.00
   5   0   4   34.45    1.06
  -5   0  -4   35.74    1.02
  -5   1  -4    4.38    0.31
  -5   1  -4    4.83    0.31
   5   1   4    4.40    0.31
   5  -1  -4    5.40    0.35
  -5  -1   4    4.59    0.29
  -5   1   4    4.63    0.28
  -5  -1  -4    4.65    0.30
   5  -1   4    3.93    0.30
  -5  -1  -4    4.41    0.30
   5   1  -4    4.45    0.26
  -5  -2   4   22.03    0.75
   5   2   4   23.05    0.78
  -5   2  -4   23.50    0.80
   5  -2  -4   22.01    0.83
  -5  -2   4   22.63    0.68
  -5  -2  -4   22.89    0.77
  -5  -2  -4   22.40    0.71
  -5   2   4   23.53    0.69
   5  -2   4   22.43    0.80
   5   3   4    2.72    0.25
  -5  -3   4    2.26    0.23
  -5   3  -4    2.47    0.29
   5  -3  -4    2.50    0.31
  -5  -3   4    2.09    0.25
  -5  -3  -4    2.49    0.28
   5  -3   4    2.68    0.29
  -5  -3  -4    2.26    0.22
  -5  -4   4    7.15    0.43
  -5   4  -4    7.24    0.46
  -5  -4   4    8.13    0.42
   5  -4  -4    8.49    0.51
   5   4   4    8.25    0.42
   5  -4   4    7.88    0.45
  -5  -4  -4    7.60    0.44
  -5   5  -4    0.68    0.20
  -5  -5   4    0.76    0.19
   5  -5  -4    0.60    0.21
  -5  -5   4    1.04    0.22
   5  -5   4    0.87    0.21
  -5  -5  -4    0.80    0.21
   5  -6  -4    1.81    0.31
  -5   6  -4    1.42    0.28
  -5  -6   4    1.85    0.29
  -5  -6   4    1.83    0.28
  -5  -6  -4    1.56    0.27
   5  -6   4    2.38    0.32
  -5   7  -4    0.16    0.18
  -5  -7   4    0.15    0.18
   5  -7  -4   -0.04    0.17
  -5  -7  -4    0.14    0.18
  -6   0  -4    1.05    0.19
   6   0  -4    0.80    0.17
  -6   0   4    0.54    0.14
  -6   0  -4    1.03    0.17
   6   0   4    0.98    0.19
  -6   1  -4   16.37    0.65
   6  -1  -4   15.38    0.64
  -6  -1   4   15.83    0.62
   6   1   4   15.67    0.64
   6   1  -4   16.05    0.58
  -6  -1  -4   16.30    0.60
  -6  -1  -4   15.31    0.61
  -6   1   4   15.39    0.59
   6  -1   4   15.97    0.65
  -6  -2   4    0.06    0.11
  -6   2  -4    0.27    0.14
   6  -2  -4    0.32    0.16
   6   2   4    0.34    0.13
  -6  -2  -4    0.53    0.15
  -6   2   4    0.45    0.13
   6  -2   4    0.34    0.15
  -6  -2  -4    0.20    0.12
   6   3   4    6.10    0.38
  -6   3  -4    5.66    0.40
  -6  -3   4    6.24    0.40
   6  -3  -4    6.20    0.43
   6  -3   4    5.95    0.40
  -6  -3  -4    6.13    0.38
  -6  -3  -4    6.09    0.35
   6  -4  -4    0.26    0.16
  -6   4  -4    0.18    0.15
  -6  -4   4    0.20    0.15
   6  -4   4    0.16    0.16
  -6  -4  -4    0.16    0.13
  -6   5  -4    0.79    0.22
  -6  -5   4    0.88    0.23
   6  -5  -4    1.24    0.27
  -6  -5  -4    1.39    0.26
   6  -5   4    0.99    0.24
   6  -6  -4    0.01    0.19
  -6   6  -4   -0.14    0.14
  -6  -6   4    0.05    0.16
  -6  -6   4   -0.02    0.16
  -6  -6  -4    0.01    0.17
   6  -6   4    0.14    0.17
   7   0   4    0.24    0.14
   7   0  -4    0.31    0.14
  -7   0   4    0.29    0.14
  -7   0  -4    0.39    0.15
  -7   1  -4   18.80    0.75
   7  -1  -4   20.30    0.78
   7   1   4   20.59    0.77
  -7  -1   4   18.23    0.73
   7  -1   4   19.63    0.77
  -7  -1  -4   19.02    0.73
  -7   1   4   19.22    0.71
  -7   2  -4    0.38    0.17
   7   2   4    0.40    0.16
  -7  -2   4    0.41    0.16
   7  -2  -4    0.22    0.16
  -7   2   4    0.26    0.13
  -7  -2  -4    0.23    0.14
   7  -2   4    0.38    0.17
   7   3   4   11.28    0.54
   7  -3  -4    9.83    0.58
  -7  -3   4   10.48    0.55
  -7   3  -4   11.17    0.58
  -7  -3  -4   10.93    0.51
   7  -3   4   10.26    0.57
  -7  -4   4    0.39    0.18
   7  -4  -4    0.53    0.21
  -7   4  -4    0.26    0.18
   7  -4   4    0.18    0.17
  -7   5  -4    3.77    0.43
  -7  -5   4    2.43    0.32
   7  -5  -4    2.98    0.39
   7  -5   4    3.48    0.41
  -7  -5  -4    2.54    0.32
  -7   6  -4   -0.11    0.17
  -7  -6  -4   -0.06    0.17
   7  -6   4    0.22    0.19
   8   0   4   14.69    0.67
   8   0  -4   13.59    0.62
  -8   0   4   14.05    0.64
  -8   0  -4   14.61    0.67
   8  -1  -4   20.98    0.83
  -8   1  -4   21.57    0.85
   8   1   4   21.37    0.83
  -8  -1   4   21.57    0.83
  -8   1   4   19.73    0.78
   8  -1   4   21.43    0.86
  -8  -1  -4   19.61    0.79
   8  -2  -4   10.32    0.60
   8   2   4   11.25    0.57
  -8   2  -4   11.40    0.60
  -8  -2   4   11.19    0.58
  -8  -2  -4   11.69    0.57
  -8   2   4   11.31    0.54
   8  -2   4   10.81    0.60
  -8   3  -4   13.02    0.67
   8  -3  -4   12.62    0.69
  -8  -3   4   13.06    0.65
  -8  -3  -4   12.64    0.61
   8  -3   4   13.74    0.69
   8  -4  -4    3.80    0.45
  -8   4  -4    4.31    0.45
  -8  -4   4    4.00    0.42
   8  -4   4    4.77    0.43
  -8   5  -4    4.43    0.46
   9   0   4    1.79    0.29
  -9   0  -4    1.50    0.28
  -9   0   4    1.86    0.29
  -9  -1   4    6.80    0.49
  -9   1  -4    7.69    0.53
   9  -1  -4    7.61    0.52
   9   1   4    7.79    0.51
  -9   1   4    8.37    0.50
   9  -1   4    7.35    0.50
  -9  -1  -4    7.76    0.49
   9   2   4    2.01    0.31
  -9   2  -4    1.65    0.30
   9  -2  -4    1.46    0.30
  -9  -2   4    1.67    0.29
   9  -2   4    1.18    0.28
  -9   2   4    1.57    0.27
  -9  -2  -4    1.46    0.27
  -9   3  -4    5.14    0.50
  -9  -3   4    4.24    0.44
   9  -3  -4    3.48    0.43
  -9  -3  -4    4.00    0.40
   9  -3   4    4.27    0.46
  10   0   4   25.23    1.02
 -10   0   4   24.43    0.98
  10   1   4    0.11    0.17
 -10   1   4    0.20    0.18
   0   0   5    0.01    0.06
   0   0  -5   -0.03    0.06
   0  -1  -5  228.75    5.08
   0  -1  -5  221.03    4.81
   0   1   5  226.38    5.28
   0  -1   5  225.74    5.23
   0  -1   5  223.68    4.99
   0   1  -5  225.40    4.91
   0  -2  -5    0.12    0.10
   0  -2   5    0.11    0.07
   0   2  -5    0.10    0.09
   0  -2   5    0.04    0.06
   0  -2  -5    0.00    0.04
   0  -3   5   81.14    1.98
   0  -3  -5   80.82    2.04
   0  -4  -5   -0.03    0.09
   0  -4   5    0.12    0.12
   0   4  -5   -0.03    0.11
   0  -5  -5   15.91    0.65
   0  -5   5   15.38    0.64
   0   5  -5   15.77    0.67
   0   6  -5   -0.30    0.12
   0  -6   5   -0.01    0.12
   0  -6  -5    0.03    0.12
   0   7  -5    2.41    0.35
   0  -7   5    2.36    0.34
   0  -7  -5    1.95    0.30
   0  -8  -5   -0.15    0.16
   0   8  -5   -0.14    0.16
   1   0  -5  157.93    3.53
  -1   0  -5  162.04    3.54
   1   0   5  162.72    3.82
   1   1   5    0.16    0.08
  -1  -1   5    0.27    0.08
   1  -1  -5    0.19    0.09
   1  -1  -5    0.06    0.06
  -1   1  -5    0.06    0.08
  -1  -1   5    0.10    0.08
  -1  -1  -5    0.19    0.07
   1   1  -5    0.19    0.09
  -1  -1  -5    0.00    0.03
   1  -1   5    0.05    0.07
   1   2   5   94.18    2.38
  -1  -2   5   93.68    2.25
   1  -2  -5   94.81    2.30
  -1   2  -5   96.57    2.27
   1  -2  -5   93.65    2.05
  -1  -2   5   95.59    2.28
   1  -2   5   93.89    2.26
   1   2  -5   93.37    2.25
  -1  -2  -5   95.40    2.07
   1  -2   5   96.65    2.33
   1  -3  -5    0.56    0.14
  -1  -3   5    0.70    0.15
   1  -3   5    0.99    0.14
   1   3  -5    0.27    0.10
   1  -3   5    0.70    0.14
  -1  -3  -5    0.44    0.13
   1  -4  -5   26.25    0.86
  -1  -4   5   25.91    0.86
  -1   4  -5   27.55    0.91
  -1  -4  -5   26.48    0.90
   1  -4   5   26.44    0.86
   1   4  -5   26.92    0.90
   1  -4   5   27.55    0.80
   1  -5  -5    0.21    0.13
  -1   5  -5    0.07    0.13
  -1  -5   5    0.04    0.11
   1   5  -5    0.02    0.13
  -1  -5  -5   -0.09    0.11
   1  -5   5   -0.04    0.12
   1  -6  -5    5.07    0.37
  -1   6  -5    6.38    0.45
  -1  -6   5    6.22    0.42
   1  -6  -5    6.01    0.44
  -1  -6  -5    5.80    0.42
   1   6  -5    5.39    0.42
   1  -6   5    5.58    0.41
  -1   7  -5    0.06    0.15
   1  -7  -5    0.18    0.16
  -1  -7   5   -0.06    0.16
   1  -7  -5    0.00    0.15
   1  -7   5    0.04    0.16
   1   7  -5    0.02    0.16
  -1  -7  -5   -0.04    0.15
   1  -8  -5    0.87    0.25
  -1   8  -5    1.27    0.29
   1   8  -5    1.11    0.27
  -2   0  -5    0.84    0.12
  -2   0   5    0.93    0.12
   2   0   5    0.78    0.13
   2  -1  -5    0.32    0.11
  -2  -1   5    0.67    0.11
  -2  -1   5    0.50    0.10
   2   1   5    0.26    0.08
  -2   1  -5    0.41    0.11
   2  -1   5    0.29    0.10
  -2   1   5    0.43    0.08
  -2  -1  -5    0.39    0.13
  -2  -1  -5    0.46    0.09
  -2  -2   5    1.09    0.16
  -2  -2   5    0.92    0.15
   2  -2  -5    1.03    0.16
  -2   2  -5    0.76    0.15
   2   2   5    0.82    0.15
  -2  -2  -5    1.02    0.18
   2  -2   5    0.78    0.13
  -2  -2  -5    0.93    0.11
  -2   2   5    1.01    0.10
   2  -2   5    0.78    0.15
   2   3   5   -0.03    0.08
   2  -3  -5    0.09    0.09
  -2  -3   5   -0.05    0.09
  -2   3  -5   -0.04    0.09
   2  -3   5    0.05    0.10
   2  -3   5    0.00    0.08
  -2  -3  -5   -0.11    0.08
   2  -4  -5    0.38    0.13
   2  -4  -5    0.05    0.12
  -2   4  -5    0.02    0.12
  -2  -4   5    0.25    0.12
   2   4  -5    0.03    0.12
   2  -4   5    0.16    0.12
  -2  -4  -5    0.26    0.13
   2  -4   5    0.40    0.12
  -2   5  -5    0.29    0.15
  -2  -5   5    0.11    0.13
   2  -5  -5    0.15    0.14
   2  -5  -5    0.03    0.11
   2   5  -5   -0.22    0.10
  -2  -5  -5    0.10    0.13
   2  -5   5    0.11    0.13
  -2   6  -5    0.22    0.16
  -2  -6   5   -0.15    0.12
   2  -6  -5   -0.13    0.11
   2  -6  -5    0.00    0.15
   2   6  -5   -0.09    0.14
  -2  -6  -5   -0.03    0.12
   2  -6   5    0.18    0.15
   2  -7  -5    0.09    0.15
  -2  -7   5    0.31    0.19
   2  -7  -5   -0.14    0.14
  -2   7  -5    0.36    0.19
  -2  -7  -5    0.28    0.19
   2   7  -5   -0.05    0.15
   2  -7   5    0.61    0.21
  -2   8  -5   -0.09    0.18
   2   8  -5   -0.22    0.16
  -3   0  -5   37.40    1.10
  -3   0   5   36.38    0.97
  -3   0  -5   36.84    1.00
   3  -1  -5   81.12    1.98
  -3  -1   5   83.90    1.96
  -3  -1   5   83.41    1.96
  -3   1  -5   81.37    1.99
   3   1   5   80.95    2.11
  -3  -1  -5   81.03    2.08
   3  -1   5   80.46    2.10
  -3   1   5   84.91    1.90
  -3  -1  -5   81.95    1.92
  -3  -2   5   18.26    0.62
   3  -2  -5   17.47    0.59
   3   2   5   17.67    0.64
  -3   2  -5   18.27    0.66
  -3  -2   5   17.42    0.59
   3  -2  -5   18.02    0.71
  -3  -2  -5   17.88    0.68
   3   2  -5   17.67    0.56
  -3  -2  -5   17.51    0.53
   3  -2   5   18.72    0.64
  -3   2   5   18.16    0.51
   3  -3  -5   41.15    1.13
  -3  -3   5   43.20    1.19
  -3   3  -5   42.00    1.22
  -3  -3   5   42.34    1.17
   3  -3  -5   42.30    1.32
   3   3   5   41.36    1.22
   3  -3   5   40.58    1.16
   3  -3   5   41.53    1.20
  -3  -3  -5   41.68    1.24
  -3   4  -5    4.68    0.36
  -3  -4   5    5.66    0.36
   3   4   5    4.80    0.33
   3  -4  -5    4.66    0.38
   3  -4  -5    4.95    0.31
  -3  -4   5    4.71    0.33
   3  -4   5    5.14    0.34
  -3  -4  -5    4.56    0.35
   3  -4   5    4.93    0.32
   3  -5  -5   13.94    0.57
  -3   5  -5   13.92    0.65
   3  -5  -5   13.61    0.69
  -3  -5   5   15.18    0.63
   3  -5   5   13.92    0.61
  -3  -5  -5   14.55    0.66
   3  -5   5   14.80    0.59
   3  -6  -5    0.89    0.24
  -3   6  -5    1.21    0.26
  -3  -6   5    1.11    0.24
  -3  -6  -5    0.86    0.22
   3  -6   5    0.70    0.20
   3   6  -5    0.77    0.23
  -3  -7   5    3.75    0.43
   3  -7  -5    2.73    0.38
  -3   7  -5    3.03    0.39
   3   7  -5    3.40    0.41
  -3  -7  -5    3.03    0.38
   3  -7   5    3.34    0.37
   4   0   5  108.28    3.04
  -4   0  -5  129.28    2.99
  -4   0   5  128.60    2.84
   4   0  -5  125.42    3.07
  -4   0  -5  126.68    2.87
  -4  -1   5    1.15    0.17
   4  -1  -5    1.37    0.17
  -4  -1   5    1.63    0.17
  -4   1  -5    1.26    0.19
   4  -1  -5    1.28    0.21
   4   1   5    1.46    0.21
   4   1  -5    1.46    0.18
  -4   1   5    1.26    0.16
   4  -1   5    1.25    0.19
  -4  -1  -5    1.15    0.20
  -4  -1  -5    1.23    0.17
  -4  -2   5   91.63    2.19
  -4  -2   5   88.98    2.21
   4   2   5   92.26    2.36
   4  -2  -5   92.54    2.16
   4  -2  -5   91.43    2.44
  -4   2  -5   93.13    2.27
  -4  -2  -5   91.30    2.32
  -4   2   5   93.87    2.11
   4  -2   5   87.37    2.34
  -4  -2  -5   92.42    2.14
  -4  -3   5    0.23    0.13
   4   3   5    0.22    0.12
  -4  -3   5    0.39    0.13
   4  -3  -5    0.15    0.14
  -4   3  -5    0.14    0.13
   4  -3   5    0.36    0.13
   4  -3   5    0.44    0.15
  -4  -3  -5    0.17    0.13
   4  -4  -5   33.36    1.21
   4   4   5   35.16    1.10
  -4  -4   5   35.28    1.07
  -4   4  -5   34.57    1.13
  -4  -4   5   35.56    1.10
   4  -4   5   36.30    1.07
   4  -4   5   34.77    1.11
  -4  -4  -5   36.10    1.15
  -4  -5   5   -0.10    0.11
  -4  -5   5    0.06    0.13
   4  -5  -5   -0.27    0.12
  -4   5  -5   -0.06    0.13
   4  -5   5    0.02    0.12
  -4  -5  -5    0.02    0.13
   4  -5   5    0.00    0.12
  -4   6  -5    9.26    0.56
   4  -6  -5    9.25    0.59
  -4  -6   5    8.39    0.51
  -4  -6  -5    8.48    0.53
   4  -6   5    8.31    0.48
  -4   7  -5    0.01    0.18
   4  -7  -5    0.20    0.20
  -4  -7   5   -0.10    0.15
   4   7  -5   -0.17    0.19
  -4  -7  -5   -0.10    0.15
  -5   0   5   28.00    0.85
   5   0  -5   28.27    0.91
   5   0   5   27.58    0.93
  -5   0  -5   27.55    0.92
  -5   0  -5   28.03    0.88
   5  -1  -5   73.78    1.99
  -5   1  -5   71.14    1.86
  -5  -1   5   72.61    1.83
  -5   1  -5   74.53    1.91
   5   1   5   73.30    1.96
   5  -1   5   70.33    1.95
  -5  -1  -5   73.16    1.91
  -5   1   5   73.08    1.78
  -5  -1  -5   71.57    1.81
   5   1  -5   72.17    1.87
   5   2   5   24.08    0.84
   5  -2  -5   24.50    0.90
  -5   2  -5   24.47    0.85
  -5  -2   5   23.67    0.73
  -5  -2   5   23.34    0.80
  -5  -2  -5   22.72    0.83
  -5   2   5   24.29    0.73
   5  -2   5   22.73    0.83
  -5  -2  -5   24.26    0.75
  -5   3  -5   37.82    1.20
  -5  -3   5   38.90    1.11
   5   3   5   38.89    1.19
  -5  -3   5   38.40    1.16
   5  -3  -5   38.01    1.28
   5  -3   5   38.54    1.20
  -5  -3  -5   37.41    1.19
   5   4   5   10.91    0.53
  -5   4  -5   11.50    0.59
   5  -4  -5   11.46    0.63
  -5  -4   5   11.02    0.52
  -5  -4   5   11.07    0.55
   5  -4   5   11.63    0.51
  -5  -4  -5   11.30    0.57
   5  -4   5   10.61    0.54
  -5   5  -5   10.97    0.60
   5  -5  -5   11.25    0.65
  -5  -5   5   11.09    0.58
  -5  -5   5   11.51    0.57
  -5  -5  -5   10.86    0.59
   5  -5   5   12.40    0.60
  -5   6  -5    3.39    0.41
   5  -6  -5    4.22    0.47
  -5  -6   5    3.42    0.39
  -5  -6   5    3.58    0.38
  -5  -6  -5    3.49    0.40
  -5  -7   5    1.97    0.32
  -5   7  -5    2.30    0.36
   6   0   5    4.60    0.34
  -6   0  -5    5.21    0.36
  -6   0   5    4.38    0.32
  -6   0  -5    5.13    0.35
   6   0  -5    4.60    0.33
  -6  -1   5    5.63    0.36
   6  -1  -5    5.86    0.40
   6   1   5    6.36    0.40
  -6   1  -5    5.54    0.38
  -6  -1  -5    6.40    0.39
  -6   1   5    6.01    0.35
   6  -1   5    5.98    0.39
  -6  -1  -5    5.78    0.37
   6   2   5    2.76    0.31
   6  -2  -5    2.88    0.32
  -6   2  -5    2.47    0.30
  -6  -2   5    2.56    0.29
  -6   2   5    2.96    0.27
   6  -2   5    2.83    0.32
  -6  -2  -5    2.52    0.26
  -6  -2  -5    2.57    0.29
   6   3   5    3.62    0.32
  -6  -3   5    3.22    0.34
   6  -3  -5    3.82    0.39
  -6   3  -5    3.80    0.38
  -6  -3  -5    2.86    0.32
   6  -3   5    3.85    0.35
   6  -4  -5    0.26    0.17
   6   4   5    0.45    0.17
  -6  -4   5    0.50    0.18
  -6   4  -5    0.39    0.19
   6  -4   5    0.18    0.15
  -6  -4  -5    0.31    0.17
  -6   5  -5    1.47    0.28
  -6  -5   5    1.65    0.27
   6  -5  -5    1.94    0.32
   6  -5   5    1.62    0.28
  -6  -5  -5    1.54    0.28
  -6  -6   5    0.10    0.17
   6  -6  -5    0.24    0.20
  -6   6  -5   -0.04    0.18
   6  -6   5   -0.14    0.15
  -6  -6  -5   -0.05    0.16
  -7   0   5    2.73    0.30
  -7   0  -5    2.72    0.31
   7   0   5    2.55    0.32
   7   0  -5    2.69    0.30
   7   1   5    4.01    0.34
   7  -1  -5    3.87    0.34
  -7  -1   5    4.39    0.35
  -7   1  -5    3.71    0.37
  -7   1   5    4.06    0.32
  -7  -1  -5    3.53    0.34
   7  -1   5    3.73    0.35
   7  -2  -5    1.95    0.29
  -7   2  -5    1.98    0.29
  -7  -2   5    1.66    0.26
   7   2   5    1.84    0.27
  -7  -2  -5    2.10    0.26
   7  -2   5    2.08    0.29
  -7  -3   5    2.60    0.32
   7  -3  -5    1.90    0.31
  -7   3  -5    2.37    0.33
   7   3   5    2.34    0.30
   7  -3   5    2.16    0.31
   7  -4  -5    0.71    0.23
  -7  -4   5    0.62    0.20
  -7   4  -5    0.64    0.23
   7  -4   5    0.81    0.23
  -7  -4  -5    0.91    0.23
  -7   5  -5    0.79    0.26
   7  -5  -5    0.84    0.25
  -7  -5   5    1.08    0.25
   7  -5   5    1.19    0.27
  -7  -5  -5    1.36    0.27
  -8   0   5    3.58    0.36
   8   0   5    3.45    0.37
  -8   0  -5    2.89    0.35
   8   1   5   14.55    0.69
   8  -1  -5   13.88    0.67
  -8  -1   5   13.62    0.65
  -8   1  -5   13.55    0.66
  -8   1   5   13.29    0.61
   8  -1   5   13.36    0.67
  -8  -1  -5   12.68    0.63
  -8  -2   5    1.92    0.30
   8  -2  -5    2.60    0.34
  -8   2  -5    2.50    0.34
   8   2   5    3.30    0.37
  -8  -2  -5    2.88    0.32
   8  -2   5    2.96    0.37
  -8   3  -5    8.74    0.56
   8  -3  -5    7.81    0.55
  -8  -3   5    8.29    0.53
   8  -3   5    8.23    0.54
   8  -4  -5    1.07    0.29
  -8  -4   5    1.26    0.27
  -8   4  -5    1.31    0.28
   8  -4   5    1.67    0.32
   9   0   5    2.93    0.37
  -9   0  -5    3.07    0.38
  -9   0   5    3.35    0.38
  -9   1  -5    0.50    0.22
  -9  -1   5    0.45    0.19
   9   1   5    0.53    0.20
  -9  -1  -5    0.39    0.19
   9  -1   5    0.60    0.21
  -9   1   5    0.48    0.18
  -9  -2   5    2.06    0.32
   9   2   5    2.75    0.36
  -9   2  -5    2.38    0.37
   9  -2  -5    2.49    0.37
   9  -2   5    2.51    0.36
  -9  -2  -5    2.72    0.34
   9  -3  -5    0.02    0.19
   0   0  -6    3.81    0.24
   0   0   6    4.32    0.27
   0   1   6   -0.11    0.06
   0   1  -6   -0.07    0.07
   0  -1  -6    0.47    0.14
   0  -1  -6    0.05    0.06
   0  -1   6   -0.06    0.06
   0  -2   6    3.58    0.23
   0   2  -6    3.09    0.26
   0  -2   6    3.14    0.25
   0  -2  -6    3.31    0.28
   0  -3   6    0.00    0.07
   0   3  -6   -0.01    0.11
   0  -3   6    0.14    0.11
   0  -3  -6    0.02    0.10
   0   4  -6    0.12    0.13
   0  -4  -6    0.05    0.12
   0  -4   6   -0.06    0.10
   0  -5  -6   -0.03    0.12
   0   5  -6   -0.09    0.14
   0  -5   6   -0.01    0.12
   0  -6  -6    0.14    0.15
   0  -6   6   -0.05    0.15
   0   6  -6    0.18    0.19
   0  -7  -6    0.02    0.16
   0  -7   6   -0.07    0.16
   0   7  -6   -0.10    0.15
   1   0   6    7.78    0.38
  -1   0  -6    7.68    0.34
   1   0  -6    7.81    0.34
   1  -1  -6    2.31    0.17
   1  -1  -6    1.49    0.21
  -1   1  -6    2.85    0.23
   1   1   6    2.38    0.24
  -1  -1   6    1.98    0.19
   1  -1   6    2.20    0.20
   1   1  -6    2.00    0.21
  -1  -1  -6    2.20    0.18
  -1   2  -6    7.24    0.39
  -1  -2   6    7.15    0.37
  -1  -2   6    8.39    0.34
   1  -2  -6    7.49    0.41
   1   2   6    6.30    0.37
   1   2  -6    7.68    0.39
   1  -2   6    7.61    0.35
  -1  -2  -6    7.46    0.42
   1  -2   6    7.67    0.39
  -1   3  -6    0.70    0.18
  -1  -3   6    0.68    0.16
   1  -3  -6    0.54    0.15
   1  -3   6    0.61    0.13
   1  -3   6    0.44    0.14
   1   3  -6    0.32    0.15
  -1  -3  -6    0.22    0.14
  -1  -4   6    3.84    0.31
   1  -4  -6    3.98    0.31
  -1   4  -6    4.16    0.35
   1   4  -6    3.98    0.34
   1  -4   6    3.70    0.31
  -1  -4  -6    4.16    0.34
  -1   5  -6    0.12    0.14
  -1  -5   6    0.06    0.13
   1  -5  -6    0.13    0.13
  -1  -5  -6    0.12    0.14
   1   5  -6   -0.07    0.14
   1  -5   6    0.01    0.12
   1  -6  -6    1.16    0.23
   1  -6  -6    1.80    0.31
  -1   6  -6    1.79    0.30
  -1  -6   6    1.33    0.26
   1  -6   6    1.54    0.27
   1   6  -6    1.50    0.28
  -1  -6  -6    1.20    0.24
  -1   7  -6    0.09    0.18
   1  -7  -6    0.40    0.19
   1  -7  -6    0.14    0.16
  -1  -7   6    0.42    0.22
   1  -7   6    0.27    0.20
  -1  -7  -6    0.27    0.18
   1   7  -6    0.33    0.20
   2   0   6   83.83    2.12
  -2   0  -6   81.30    1.96
  -2   0   6   81.35    1.92
  -2  -1   6    0.48    0.12
   2  -1  -6    0.42    0.13
  -2   1  -6    0.25    0.11
  -2  -1  -6    0.56    0.12
  -2  -1  -6    0.44    0.15
  -2   1   6    0.32    0.09
   2  -1   6    0.42    0.12
  -2  -2   6   52.48    1.40
   2   2   6   51.27    1.47
   2  -2  -6   53.27    1.43
  -2   2  -6   53.66    1.42
  -2  -2  -6   50.88    1.49
   2  -2   6   53.14    1.44
  -2  -3   6    0.04    0.10
   2  -3  -6   -0.01    0.10
  -2   3  -6   -0.01    0.11
   2   3   6    0.14    0.12
  -2  -3  -6    0.01    0.11
   2  -3   6    0.06    0.09
   2  -3   6    0.23    0.13
   2   3  -6   -0.07    0.11
  -2  -4   6   19.86    0.75
   2  -4  -6   20.64    0.74
  -2   4  -6   20.88    0.80
  -2  -4  -6   19.64    0.79
   2  -4   6   20.87    0.71
   2   4  -6   20.76    0.79
   2  -4   6   20.86    0.76
  -2  -5   6    0.00    0.13
   2  -5  -6    0.19    0.13
   2  -5  -6   -0.16    0.11
  -2   5  -6    0.22    0.17
   2   5  -6    0.26    0.18
   2  -5   6    0.08    0.13
  -2  -5  -6   -0.06    0.12
   2  -6  -6    5.37    0.39
  -2  -6   6    5.15    0.42
  -2   6  -6    5.61    0.44
   2  -6  -6    5.41    0.46
   2  -6   6    5.90    0.44
  -2  -6  -6    5.19    0.42
   2   6  -6    4.87    0.48
  -2   7  -6    0.27    0.19
   2  -7  -6    0.11    0.17
  -2  -7   6   -0.02    0.17
   2  -7  -6    0.00    0.18
   2  -7   6    0.12    0.18
  -2  -7  -6   -0.14    0.16
   2   7  -6    0.63    0.23
  -3   0  -6   31.61    1.05
  -3   0   6   33.15    0.91
   3   0   6   32.64    1.02
  -3   0  -6   32.73    0.94
  -3   1  -6    7.69    0.40
  -3  -1   6    7.14    0.35
   3   1   6    6.84    0.38
   3  -1  -6    7.27    0.38
  -3  -1  -6    6.53    0.42
  -3  -1  -6    7.08    0.34
   3  -1   6    6.99    0.38
  -3   1   6    7.32    0.31
  -3  -2   6   23.92    0.78
   3  -2  -6   24.07    0.78
  -3  -2   6   23.95    0.77
   3   2   6   22.98    0.82
  -3   2  -6   23.08    0.80
  -3  -2  -6   23.74    0.68
  -3  -2  -6   22.80    0.85
   3  -2   6   23.81    0.80
   3  -3  -6    3.42    0.27
  -3  -3   6    3.53    0.28
   3  -3  -6    3.31    0.36
   3   3   6    3.02    0.29
  -3  -3   6    3.32    0.28
  -3   3  -6    3.10    0.33
  -3  -3  -6    3.08    0.33
   3  -3   6    2.87    0.29
   3  -3   6    2.87    0.26
  -3  -4   6   10.14    0.51
   3   4   6   11.18    0.53
   3  -4  -6   10.68    0.49
   3  -4  -6   10.47    0.60
  -3   4  -6   10.79    0.57
   3  -4   6   11.09    0.52
  -3  -4  -6   11.11    0.57
   3  -4   6   11.19    0.50
  -3  -5   6    1.33    0.25
  -3   5  -6    1.30    0.25
   3  -5  -6    1.51    0.29
   3   5  -6    1.40    0.28
  -3  -5  -6    1.45    0.26
   3  -5   6    1.42    0.24
  -3   6  -6    3.66    0.41
  -3  -6   6    2.96    0.36
   3  -6  -6    3.15    0.41
   3  -6   6    3.55    0.37
   3   6  -6    3.79    0.43
  -3  -6  -6    3.16    0.37
  -3  -7   6    0.33    0.22
   3  -7  -6    0.67    0.25
  -3   7  -6    0.36    0.20
   3   7  -6    0.63    0.25
  -3  -7  -6    0.55    0.23
   3  -7   6    0.49    0.21
   4   0   6   39.32    1.19
  -4   0   6   39.52    1.06
   4   0  -6   37.41    1.17
  -4   0  -6   38.66    1.10
  -4   0  -6   36.64    1.18
  -4   1  -6    6.10    0.39
  -4  -1   6    6.85    0.37
   4   1   6    6.49    0.39
   4  -1  -6    6.04    0.40
   4  -1  -6    5.89    0.34
   4   1  -6    6.50    0.36
  -4  -1  -6    6.89    0.42
  -4  -1  -6    6.34    0.34
  -4   1   6    6.19    0.31
   4  -1   6    5.46    0.36
  -4  -2   6   25.63    0.88
  -4   2  -6   28.01    0.94
   4   2   6   27.63    0.95
   4  -2  -6   28.93    1.02
  -4  -2   6   30.01    0.89
   4  -2   6   28.08    0.94
  -4  -2  -6   28.74    0.99
  -4  -2  -6   28.99    0.83
   4   3   6    1.07    0.20
   4  -3  -6    1.11    0.24
  -4  -3   6    1.45    0.22
  -4  -3   6    1.13    0.21
  -4   3  -6    1.01    0.21
   4  -3   6    1.17    0.20
  -4  -3  -6    1.23    0.23
  -4  -4   6   11.25    0.55
   4  -4  -6   10.92    0.63
  -4   4  -6   12.03    0.61
  -4  -4   6   11.52    0.54
   4   4   6   11.77    0.57
   4  -4   6   12.09    0.55
  -4  -4  -6   11.63    0.60
   4  -4   6   11.26    0.54
  -4   5  -6    0.28    0.18
  -4  -5   6    0.07    0.15
   4  -5  -6    0.09    0.16
   4  -5   6    0.35    0.16
  -4  -5  -6    0.06    0.15
   4  -5   6    0.01    0.13
  -4  -6   6    3.52    0.39
   4  -6  -6    2.84    0.40
  -4   6  -6    2.51    0.36
   4   6  -6    2.78    0.39
   4  -6   6    2.91    0.35
  -4  -6  -6    2.55    0.35
  -5   0   6   10.19    0.45
   5   0  -6   10.18    0.50
   5   0   6    9.09    0.49
  -5   0  -6   10.58    0.54
  -5   0  -6   10.64    0.50
   5   1   6    2.51    0.29
  -5   1  -6    2.76    0.29
  -5   1  -6    2.65    0.31
  -5  -1   6    3.24    0.30
   5  -1  -6    2.60    0.30
  -5  -1  -6    3.12    0.27
  -5  -1  -6    2.36    0.30
   5  -1   6    3.76    0.31
  -5   1   6    2.92    0.24
  -5   2  -6    7.09    0.45
   5   2   6    6.38    0.41
   5  -2  -6    6.63    0.46
  -5  -2   6    5.81    0.38
   5  -2   6    6.28    0.40
  -5  -2  -6    6.49    0.35
  -5  -2  -6    6.32    0.42
  -5   3  -6    2.79    0.34
   5   3   6    2.91    0.32
   5  -3  -6    2.48    0.33
  -5  -3   6    2.44    0.29
  -5  -3   6    2.68    0.28
  -5  -3  -6    2.39    0.30
   5  -3   6    2.58    0.30
  -5  -4   6    2.35    0.29
  -5  -4   6    1.51    0.25
  -5   4  -6    1.48    0.27
   5  -4  -6    2.01    0.32
   5   4   6    2.10    0.28
   5  -4   6    1.93    0.27
  -5  -4  -6    1.24    0.24
  -5   5  -6    1.13    0.27
   5  -5  -6    1.43    0.30
  -5  -5   6    0.92    0.22
  -5  -5   6    1.71    0.28
   5  -5   6    1.64    0.28
  -5  -5  -6    1.09    0.24
  -5   6  -6    0.41    0.22
  -5  -6   6    0.21    0.19
   5  -6  -6    0.23    0.21
  -5  -6  -6    0.19    0.17
   6   0   6    0.48    0.17
  -6   0   6    0.82    0.18
  -6   0  -6    0.98    0.21
  -6   0  -6    0.70    0.19
   6   0  -6    0.93    0.19
  -6   1  -6   23.08    0.86
  -6  -1   6   23.24    0.83
   6  -1  -6   24.22    0.91
   6   1   6   23.49    0.89
  -6   1  -6   24.61    0.89
   6  -1   6   22.36    0.88
  -6   1   6   23.61    0.79
  -6  -1  -6   24.44    0.89
  -6  -1  -6   24.46    0.82
  -6  -2   6    0.47    0.17
   6  -2  -6    0.35    0.17
   6   2   6    0.68    0.19
   6  -2   6    0.47    0.17
  -6  -2  -6    0.31    0.16
  -6  -2  -6    0.40    0.15
  -6  -3   6   13.54    0.63
   6  -3  -6   13.01    0.69
   6   3   6   13.61    0.63
  -6   3  -6   13.18    0.66
  -6  -3  -6   13.55    0.64
   6  -3   6   13.00    0.64
   6  -4  -6    0.02    0.16
  -6   4  -6   -0.09    0.15
  -6  -4   6   -0.02    0.15
   6   4   6    0.30    0.16
   6  -4   6    0.06    0.16
  -6  -4  -6    0.18    0.15
  -6   5  -6    4.27    0.46
   6  -5  -6    5.27    0.47
  -6  -5   6    3.56    0.40
  -6  -5  -6    3.80    0.42
   6  -5   6    4.87    0.42
  -7   0   6    1.01    0.21
  -7   0  -6    0.78    0.20
   7   0   6    0.98    0.23
   7   1   6    2.40    0.31
   7  -1  -6    2.59    0.33
  -7  -1   6    2.13    0.29
  -7   1  -6    2.56    0.33
   7  -1   6    2.20    0.30
  -7   1   6    3.05    0.30
  -7  -1  -6    1.89    0.27
  -7  -2   6    0.39    0.17
  -7   2  -6    1.08    0.24
   7  -2  -6    1.01    0.24
   7   2   6    0.89    0.22
   7  -2   6    1.23    0.25
  -7  -2  -6    0.98    0.21
   7  -3  -6    1.15    0.26
  -7  -3   6    0.98    0.23
  -7   3  -6    1.26    0.26
   7   3   6    1.66    0.27
   7  -3   6    1.27    0.25
   7  -4  -6    0.42    0.21
  -7  -4   6    0.61    0.22
  -7   4  -6    0.74    0.24
  -7  -4  -6    0.89    0.23
   7  -4   6    0.76    0.22
   7  -5   6    0.78    0.24
  -7  -5  -6    0.35    0.21
  -8   0   6    0.23    0.16
  -8   0  -6    0.28    0.18
   8   0   6    0.43    0.20
  -8  -1   6    0.28    0.17
   8   1   6    0.25    0.17
  -8   1  -6   -0.18    0.15
   8  -1  -6    0.01    0.15
   8  -1   6    0.08    0.15
  -8   1   6    0.05    0.14
  -8  -1  -6    0.08    0.14
   8  -2  -6   -0.02    0.15
  -8  -2   6    0.23    0.17
   8   2   6    0.53    0.21
  -8   2  -6    0.38    0.19
   8  -2   6    0.14    0.17
  -8  -2  -6    0.24    0.16
   8   3   6    0.20    0.17
   8  -3  -6   -0.11    0.17
  -8   3  -6    0.11    0.18
  -8  -3   6    0.25    0.19
   8  -3   6    0.05    0.18
  -9   0  -6    0.08    0.18
   9   0   6    0.09    0.17
  -9   0   6    0.21    0.18
  -9  -1   6    7.84    0.52
  -9   1  -6    7.75    0.54
   9   1   6    6.49    0.51
  -9  -1  -6    7.26    0.50
   9  -1   6    5.94    0.49
   9   2   6    0.35    0.21
   9  -2  -6    0.05    0.19
   0   0   7   -0.02    0.09
   0   0  -7    0.05    0.09
   0   1  -7   85.00    2.05
   0   1   7   82.46    2.18
   0  -1  -7   78.07    1.92
   0  -1   7   84.30    2.14
   0  -1  -7   85.51    2.20
   0  -2   7    0.02    0.08
   0  -2   7    0.13    0.12
   0   2  -7    0.07    0.12
   0  -2  -7    0.07    0.12
   0  -3   7   50.68    1.43
   0   3  -7   50.71    1.45
   0  -3  -7   49.27    1.48
   0   4  -7    0.18    0.15
   0  -4  -7    0.19    0.13
   0  -4   7    0.03    0.12
   0   5  -7   17.52    0.80
   0  -5   7   17.76    0.75
   0  -5  -7   17.16    0.75
   0   6  -7   -0.05    0.18
   0  -6   7   -0.07    0.16
   0  -6  -7    0.17    0.15
   0  -7   7    5.01    0.50
   0  -7  -7    4.25    0.45
   0   7  -7    4.36    0.48
   0  -7  -7    4.08    0.47
  -1   0  -7    2.53    0.23
   1   0  -7    2.40    0.23
   1   0   7    2.34    0.25
   1   1   7  142.06    3.55
  -1   1  -7  147.65    3.31
   1  -1  -7  144.80    3.19
   1  -1  -7  143.72    3.46
   1  -1   7  141.14    3.51
  -1  -1  -7  142.71    3.20
   1   1  -7  141.39    3.30
  -1  -1  -7  142.68    3.49
   1  -2  -7    3.25    0.33
  -1   2  -7    2.62    0.29
   1   2   7    2.91    0.27
  -1  -2   7    2.73    0.23
  -1  -2   7    2.33    0.26
   1   2  -7    2.81    0.30
   1  -2   7    3.10    0.26
  -1  -2  -7    2.80    0.32
  -1  -3   7   69.93    1.88
  -1   3  -7   71.76    1.90
   1  -3  -7   69.58    1.92
  -1  -3  -7   71.20    1.97
   1   3  -7   71.56    1.90
   1  -3   7   72.09    1.89
   1  -3   7   72.31    1.87
   1  -4  -7    1.56    0.25
  -1   4  -7    1.71    0.28
  -1  -4   7    1.71    0.25
  -1  -4  -7    1.72    0.27
   1  -4   7    1.90    0.26
   1   4  -7    1.78    0.28
  -1   5  -7   22.58    0.91
   1  -5  -7   21.36    0.85
  -1  -5   7   23.27    0.88
   1   5  -7   22.31    0.91
  -1  -5  -7   24.46    0.93
   1  -5   7   21.89    0.86
   1  -6  -7    0.71    0.22
  -1   6  -7    0.70    0.25
  -1  -6   7    0.54    0.21
   1  -6  -7    0.57    0.22
   1  -6   7    0.52    0.21
   1   6  -7    0.55    0.23
  -1  -6  -7    0.80    0.22
  -1   7  -7    4.93    0.51
   1  -7  -7    4.20    0.47
   1  -7  -7    5.16    0.44
  -1  -7  -7    5.41    0.45
   1  -7   7    4.67    0.47
   1   7  -7    5.41    0.54
  -2   0  -7  117.89    2.70
   2   0  -7  117.06    2.70
   2   0   7  115.73    2.93
  -2   0  -7  113.10    2.91
   2   1   7   11.55    0.54
   2  -1  -7   11.68    0.55
   2  -1  -7   12.16    0.46
  -2   1  -7   11.23    0.51
  -2  -1  -7   12.51    0.47
   2   1  -7   12.20    0.53
  -2  -1  -7   12.50    0.62
   2  -1   7   12.14    0.53
  -2   2  -7   82.54    2.06
   2   2   7   80.65    2.17
  -2  -2   7   82.68    2.06
   2  -2  -7   80.13    2.10
   2  -2   7   79.42    2.11
  -2  -2  -7   77.99    2.16
   2   2  -7   80.99    2.06
   2   3   7    6.38    0.42
  -2   3  -7    7.16    0.45
  -2  -3   7    6.57    0.40
   2  -3  -7    7.29    0.44
   2  -3   7    7.53    0.43
  -2  -3  -7    7.58    0.48
   2  -3   7    7.67    0.41
   2   3  -7    7.29    0.46
  -2   4  -7   34.72    1.14
  -2  -4   7   33.13    1.09
   2  -4  -7   33.55    1.08
   2   4  -7   32.81    1.12
  -2  -4  -7   33.48    1.15
   2  -4   7   32.67    1.09
   2  -5  -7    1.99    0.34
  -2  -5   7    2.18    0.30
   2  -5  -7    2.45    0.30
  -2   5  -7    2.12    0.33
   2  -5   7    2.79    0.33
  -2  -5  -7    2.50    0.33
   2   5  -7    2.62    0.36
  -2  -6   7    9.72    0.58
   2  -6  -7    9.96    0.55
   2  -6  -7    9.96    0.65
  -2   6  -7   10.04    0.61
   2  -6   7   10.18    0.58
  -2  -6  -7    9.61    0.58
   2   6  -7    9.90    0.61
   2  -7  -7    0.60    0.24
  -3   0  -7   60.79    1.54
   3   0   7   55.83    1.64
  -3   0  -7   57.91    1.70
  -3   0   7   59.97    1.49
   3   1   7   16.90    0.68
  -3   1  -7   16.68    0.65
   3  -1  -7   17.65    0.68
  -3  -1   7   16.91    0.62
  -3  -1  -7   16.52    0.74
   3  -1   7   16.87    0.67
  -3  -1  -7   17.68    0.60
  -3   1   7   17.72    0.56
  -3   2  -7   44.84    1.32
   3  -2  -7   45.81    1.31
   3   2   7   46.14    1.39
  -3  -2   7   44.96    1.28
  -3  -2   7   45.59    1.28
  -3  -2  -7   46.39    1.42
   3  -2   7   44.55    1.35
  -3   3  -7    8.74    0.50
  -3  -3   7    8.55    0.46
   3  -3  -7    8.16    0.44
   3   3   7    8.95    0.49
   3  -3   7    7.80    0.44
  -3  -3  -7    8.55    0.52
   3  -4  -7   18.24    0.85
  -3  -4   7   17.74    0.73
   3  -4  -7   17.30    0.69
  -3   4  -7   17.91    0.78
   3  -4   7   18.55    0.74
   3  -4   7   19.42    0.72
   3   4  -7   19.18    0.81
  -3  -4  -7   18.01    0.79
   3  -5  -7    2.27    0.35
  -3  -5   7    2.23    0.30
  -3   5  -7    2.57    0.36
  -3  -5  -7    2.36    0.33
   3   5  -7    2.71    0.36
   3  -5   7    2.20    0.31
  -3  -6   7    3.54    0.41
  -3   6  -7    4.46    0.48
   3  -6  -7    4.13    0.48
   3   6  -7    4.38    0.48
  -3  -6  -7    4.75    0.47
   3  -6   7    4.71    0.42
  -4   0  -7    1.53    0.22
  -4   0  -7    1.56    0.26
   4   0   7    1.68    0.24
  -4   0   7    1.89    0.22
   4   0  -7    1.66    0.24
   4  -1  -7   29.03    1.03
  -4  -1   7   27.81    0.90
   4   1   7   27.91    0.98
   4  -1  -7   29.01    0.93
  -4   1  -7   29.48    0.95
  -4  -1  -7   29.64    0.89
   4   1  -7   29.45    0.95
  -4  -1  -7   26.93    1.01
   4  -1   7   28.15    0.98
  -4   2  -7    1.15    0.22
   4   2   7    1.15    0.22
  -4  -2   7    0.95    0.19
   4  -2  -7    1.17    0.24
  -4  -2   7    1.18    0.20
  -4  -2  -7    1.28    0.25
   4  -2   7    1.02    0.21
  -4  -3   7   15.44    0.66
  -4   3  -7   16.30    0.72
   4  -3  -7   15.21    0.75
   4   3   7   16.30    0.70
  -4  -3   7   15.39    0.64
   4  -3   7   15.47    0.67
  -4  -3  -7   15.80    0.73
  -4  -4   7    0.42    0.16
   4   4   7    0.25    0.15
   4  -4  -7    0.53    0.21
  -4   4  -7    0.75    0.22
  -4  -4  -7    0.40    0.18
   4  -4   7    0.66    0.18
  -4   5  -7    6.20    0.48
   4  -5  -7    5.07    0.47
  -4  -5   7    5.88    0.44
   4  -5   7    5.66    0.43
   4   5  -7    5.90    0.48
  -4  -5  -7    5.22    0.45
   4  -6  -7    0.43    0.23
  -4  -6   7    0.06    0.17
  -4   6  -7    0.16    0.19
   4  -6   7    0.02    0.19
   4   6  -7    0.31    0.24
  -4  -6  -7   -0.01    0.17
   5   0  -7    3.66    0.33
  -5   0   7    3.48    0.29
  -5   0  -7    3.63    0.32
   5   0   7    3.30    0.32
  -5   0  -7    4.38    0.43
  -5   1  -7    1.75    0.29
   5  -1  -7    1.70    0.28
  -5   1  -7    1.26    0.22
  -5  -1   7    1.52    0.22
   5   1   7    1.59    0.25
   5  -1   7    1.54    0.25
  -5  -1  -7    1.60    0.27
  -5  -1  -7    1.77    0.23
   5   2   7    2.45    0.31
  -5  -2   7    2.03    0.27
  -5   2  -7    2.26    0.30
   5  -2  -7    2.53    0.33
   5  -2   7    2.59    0.31
  -5  -2  -7    2.27    0.32
   5   3   7    1.14    0.23
  -5   3  -7    0.89    0.23
   5  -3  -7    1.07    0.26
  -5  -3   7    0.83    0.20
   5  -3   7    1.32    0.24
  -5  -3  -7    1.61    0.27
   5  -4  -7    1.23    0.28
  -5   4  -7    0.97    0.25
  -5  -4   7    1.27    0.24
   5   4   7    0.97    0.23
  -5  -4   7    0.52    0.19
   5  -4   7    1.22    0.24
  -5  -4  -7    0.72    0.22
   5  -5  -7    0.31    0.21
  -5  -5   7    0.36    0.19
  -5   5  -7    0.18    0.19
  -5  -5  -7    0.49    0.21
  -5  -6   7    0.33    0.21
   6   0   7    2.24    0.30
  -6   0  -7    2.42    0.29
  -6   0   7    2.23    0.27
  -6   0  -7    2.52    0.34
   6   0  -7    2.67    0.31
  -6   1  -7    4.08    0.42
   6   1   7    3.68    0.35
   6  -1  -7    3.56    0.38
  -6  -1   7    3.46    0.34
  -6  -1  -7    3.79    0.32
   6  -1   7    3.66    0.38
  -6  -1  -7    4.13    0.42
  -6  -2   7    2.14    0.29
   6  -2  -7    1.78    0.31
   6   2   7    2.16    0.30
  -6   2  -7    2.48    0.33
  -6  -2  -7    2.12    0.32
   6  -2   7    2.16    0.30
   6   3   7    1.71    0.28
   6  -3  -7    1.73    0.31
  -6  -3   7    2.06    0.30
  -6   3  -7    1.92    0.31
   6  -3   7    1.76    0.28
  -6  -3  -7    1.93    0.31
  -6   4  -7    0.65    0.23
   6  -4  -7    0.64    0.24
   6   4   7    0.84    0.22
  -6  -4   7    0.97    0.23
  -6  -4  -7    0.66    0.22
   6  -4   7    0.68    0.23
   6  -5   7    0.65    0.21
  -6  -5  -7    0.49    0.22
   7   0   7   18.31    0.83
  -7   0  -7   19.29    0.79
  -7   0   7   19.67    0.77
  -7   1  -7    2.98    0.36
   7   1   7    3.15    0.37
   7  -1  -7    2.70    0.35
  -7  -1   7    3.10    0.35
  -7  -1  -7    3.30    0.35
   7  -1   7    3.93    0.42
   7  -2  -7   15.21    0.74
  -7  -2   7   14.05    0.68
   7   2   7   15.08    0.73
  -7   2  -7   13.96    0.70
   7  -2   7   14.24    0.72
   7   3   7    2.25    0.33
  -7   3  -7    2.37    0.35
  -7  -3   7    1.86    0.30
   7  -3  -7    2.28    0.36
  -7  -3  -7    1.89    0.31
   7  -3   7    2.25    0.33
   7  -4  -7    6.26    0.52
  -7  -4  -7    6.15    0.49
   7  -4   7    5.99    0.47
  -8   0  -7    0.22    0.17
   8   0   7    0.31    0.19
  -8   0   7    0.01    0.16
  -8  -1   7    3.50    0.40
   8   1   7    4.15    0.45
  -8   1  -7    3.60    0.40
  -8  -1  -7    3.78    0.39
   8  -1   7    3.63    0.42
   8  -2  -7    0.06    0.18
   8   2   7    0.03    0.18
  -8   2  -7    0.07    0.19
  -8  -2   7    0.27    0.19
   8  -2   7    0.00    0.15
   8   3   7    2.04    0.34
  -9   0   7    4.48    0.46
   0   0  -8    3.28    0.27
   0   0   8    3.42    0.29
   0  -1  -8    0.12    0.14
   0   1  -8   -0.02    0.12
   0  -1   8   -0.03    0.10
   0   2  -8    2.44    0.30
   0  -2   8    2.03    0.24
   0  -2  -8    1.81    0.28
   0  -3  -8   -0.16    0.11
   0   3  -8   -0.14    0.12
   0  -3   8    0.02    0.13
   0  -4  -8    0.96    0.22
   0  -4   8    1.31    0.25
   0   4  -8    1.40    0.28
   0  -5  -8    0.20    0.17
   0   5  -8    0.19    0.19
   0  -5   8   -0.24    0.14
   0  -6   8    0.70    0.23
   0   6  -8    0.57    0.25
   0  -6  -8    0.57    0.21
  -1   0  -8    4.72    0.31
   1   0   8    5.17    0.35
  -1   0  -8    5.53    0.42
   1   0  -8    4.58    0.32
   1   1   8    1.46    0.23
  -1   1  -8    1.24    0.20
   1  -1  -8    1.31    0.23
   1   1  -8    1.22    0.21
   1  -1   8    1.05    0.19
  -1  -1  -8    1.30    0.26
   1   2   8    4.82    0.36
  -1   2  -8    4.65    0.37
   1  -2  -8    4.14    0.36
   1   2  -8    4.39    0.35
  -1  -2  -8    4.25    0.38
   1  -2   8    4.92    0.34
  -1   3  -8    0.82    0.22
  -1  -3   8    0.74    0.20
   1  -3  -8    0.52    0.18
   1  -3   8    0.40    0.15
   1  -3   8    0.60    0.18
   1   3  -8    0.83    0.22
  -1  -3  -8    0.40    0.18
  -1   4  -8    2.60    0.35
  -1  -4   8    2.65    0.33
   1  -4  -8    2.05    0.29
   1   4  -8    3.00    0.37
   1  -4   8    2.13    0.30
  -1  -4  -8    2.25    0.32
  -1  -5   8    0.34    0.20
  -1   5  -8    0.01    0.17
   1  -5  -8    0.18    0.15
  -1  -5  -8    0.20    0.17
   1   5  -8    0.41    0.21
   1  -5   8    0.35    0.20
   1  -6  -8    1.12    0.25
   1  -6  -8    0.73    0.25
  -1  -6   8    0.82    0.25
  -1   6  -8    0.98    0.27
  -1  -6  -8    1.25    0.29
   1  -6   8    0.80    0.25
   1   6  -8    1.04    0.29
  -2   0  -8   20.54    0.70
  -2   0  -8   19.00    0.83
   2   0   8   19.36    0.76
   2   0  -8   20.08    0.69
   2  -1  -8   21.75    0.83
  -2   1  -8   19.44    0.73
   2   1   8   19.20    0.77
  -2  -1  -8   19.53    0.84
   2  -1   8   20.51    0.77
   2   1  -8   20.18    0.74
  -2   2  -8   13.38    0.60
   2   2   8   11.96    0.59
   2  -2  -8   11.87    0.59
   2   2  -8   14.10    0.62
  -2  -2  -8   11.65    0.63
   2  -2   8   12.98    0.58
   2   3   8   12.90    0.63
   2  -3  -8   12.63    0.61
  -2   3  -8   12.62    0.62
  -2  -3   8   12.25    0.59
   2  -3   8   13.15    0.57
   2   3  -8   13.47    0.64
  -2  -3  -8   12.10    0.65
  -2  -4   8    4.45    0.39
  -2   4  -8    3.98    0.41
   2  -4  -8    4.56    0.38
   2  -4   8    4.76    0.39
  -2  -4  -8    4.14    0.43
   2   4  -8    4.47    0.45
   2  -5  -8    4.91    0.46
  -2   5  -8    4.88    0.48
  -2  -5   8    4.87    0.41
   2  -5  -8    3.92    0.40
   2  -5   8    4.38    0.44
   2   5  -8    5.32    0.46
  -2  -5  -8    4.23    0.45
   2  -6  -8    0.85    0.27
  -2   6  -8    1.07    0.29
  -2  -6   8    0.73    0.24
  -2  -6  -8    0.79    0.26
   2   6  -8    0.73    0.26
   2  -6   8    0.84    0.26
   3   0   8    0.59    0.17
  -3   0  -8    0.51    0.20
  -3   0  -8    0.59    0.16
  -3   1  -8    2.41    0.28
   3   1   8    2.78    0.31
   3  -1  -8    2.71    0.32
   3  -1   8    2.55    0.29
  -3  -1  -8    2.04    0.31
   3  -2  -8    0.43    0.17
   3   2   8    0.61    0.18
  -3   2  -8    1.07    0.22
   3   2  -8    0.62    0.20
  -3  -2  -8    0.45    0.19
   3  -2   8    0.60    0.17
   3   3   8    1.35    0.25
  -3  -3   8    1.98    0.28
   3  -3  -8    2.17    0.29
  -3   3  -8    1.65    0.28
   3  -3   8    1.60    0.25
   3   3  -8    1.30    0.26
  -3  -3  -8    1.41    0.28
  -3   4  -8    0.42    0.20
  -3  -4   8    0.32    0.18
   3  -4  -8    0.55    0.22
   3   4  -8    0.40    0.22
  -3  -4  -8    0.30    0.17
  -3  -5   8    0.72    0.22
   3  -5  -8    0.61    0.24
  -3   5  -8    0.42    0.22
   3   5  -8    0.58    0.24
   3  -5   8    0.84    0.24
  -3  -5  -8    0.55    0.22
  -3  -6   8    0.16    0.20
   3  -6  -8   -0.07    0.18
   3  -6   8   -0.02    0.18
  -4   0   8    0.92    0.17
   4   0   8    0.71    0.19
   4   0  -8    0.72    0.20
  -4   0  -8    0.15    0.17
  -4   0  -8    0.74    0.18
   4   0  -8    0.92    0.21
   4   1   8   24.90    0.93
  -4  -1   8   24.73    0.84
  -4   1  -8   24.61    0.88
  -4   1  -8   23.65    0.98
   4  -1  -8   25.34    0.98
   4  -1   8   24.08    0.91
  -4  -1  -8   24.70    0.98
  -4   2  -8    0.76    0.20
   4  -2  -8    0.88    0.22
   4   2   8    0.85    0.21
  -4  -2   8    0.73    0.19
   4  -2   8    1.03    0.22
  -4  -2  -8    0.57    0.21
   4  -3  -8   14.11    0.74
  -4   3  -8   13.34    0.67
   4   3   8   14.27    0.68
  -4  -3   8   13.38    0.62
   4  -3   8   13.63    0.65
  -4  -3  -8   13.72    0.71
   4  -4  -8    0.69    0.24
  -4  -4   8    0.60    0.19
   4   4   8    0.69    0.21
  -4   4  -8    0.44    0.21
  -4  -4  -8    0.26    0.19
   4   4  -8    0.53    0.22
   4  -4   8    0.61    0.18
  -4   5  -8    5.10    0.51
  -4  -5   8    5.10    0.43
   4  -5  -8    4.59    0.51
  -4  -5  -8    3.98    0.45
   4   5  -8    6.08    0.51
   4  -6   8    0.32    0.21
   5   0   8   -0.05    0.12
  -5   0   8    0.28    0.13
   5   0  -8    0.10    0.15
  -5   0  -8   -0.11    0.13
  -5   0  -8   -0.11    0.12
   5   1   8    1.58    0.28
   5  -1  -8    1.89    0.30
  -5  -1   8    1.74    0.26
  -5   1  -8    1.30    0.27
  -5   1  -8    1.83    0.27
   5  -1   8    2.06    0.30
  -5  -1  -8    2.01    0.32
   5   2   8   -0.02    0.13
   5  -2  -8   -0.22    0.14
  -5  -2   8    0.19    0.14
  -5   2  -8   -0.09    0.14
  -5  -2  -8   -0.01    0.15
   5  -2   8    0.02    0.14
   5  -3  -8    1.20    0.28
  -5  -3   8    1.14    0.24
  -5   3  -8    0.97    0.25
   5   3   8    1.15    0.25
  -5  -3  -8    1.02    0.25
   5  -3   8    0.85    0.22
   5   4   8    0.11    0.16
  -5   4  -8    0.13    0.19
   5  -4  -8    0.01    0.17
  -5  -4  -8   -0.19    0.14
   5  -4   8   -0.02    0.15
  -5  -5  -8    0.76    0.24
  -6   0  -8    3.20    0.40
  -6   0   8    2.47    0.30
   6   0   8    2.51    0.33
  -6   0  -8    2.56    0.33
   6  -1  -8    1.21    0.26
  -6   1  -8    0.80    0.23
   6   1   8    0.92    0.24
  -6  -1   8    1.10    0.22
  -6   1  -8    1.46    0.30
   6  -1   8    0.64    0.21
  -6  -1  -8    0.92    0.25
   6  -2  -8    2.11    0.34
  -6  -2   8    2.69    0.34
  -6   2  -8    2.25    0.34
   6   2   8    2.25    0.33
   6  -2   8    2.37    0.34
  -6  -2  -8    2.43    0.36
  -6   3  -8    0.54    0.22
   6  -3  -8    0.91    0.27
   6   3   8    0.86    0.24
  -6  -3   8    0.85    0.24
  -6  -3  -8    0.35    0.20
   6  -3   8    0.57    0.21
   6  -4  -8    1.20    0.30
  -6   4  -8    2.00    0.35
  -6  -4   8    1.43    0.29
   6   4   8    1.61    0.30
   6  -4   8    1.69    0.31
  -6  -4  -8    1.64    0.31
   7   0   8    0.41    0.20
  -7   0  -8    0.30    0.18
  -7  -1   8    1.45    0.26
   7   1   8    0.87    0.25
  -7   1  -8    1.44    0.28
   7  -1   8    0.70    0.22
  -7  -2   8    0.28    0.17
   7  -2  -8    0.21    0.19
  -7   2  -8    0.23    0.20
   7   2   8    0.18    0.17
   7  -2   8    0.24    0.19
  -7  -3   8    0.59    0.22
   7  -3  -8    0.70    0.25
   7   3   8    0.71    0.24
  -7  -3  -8    0.86    0.25
  -8   0  -8   24.35    0.97
  -8   1  -8    0.33    0.21
  -8  -1   8   -0.16    0.14
   8  -2  -8   18.32    0.88
   0   0   9   -0.02    0.10
   0   0  -9    0.08    0.16
   0   1  -9   16.16    0.67
   0  -1  -9   16.09    0.77
   0  -1   9   15.82    0.67
   0  -2   9   -0.01    0.11
   0   2  -9    0.05    0.14
   0  -2  -9   -0.13    0.13
   0   3  -9    9.38    0.55
   0  -3  -9    7.56    0.52
   0   4  -9    0.02    0.18
   0  -4   9   -0.10    0.15
   0  -4  -9    0.08    0.14
   0  -5  -9    2.25    0.33
   0   5  -9    3.50    0.45
   0  -5   9    2.86    0.38
  -1   0  -9   19.62    0.88
   1   0  -9   18.65    0.84
  -1   0  -9   20.81    0.72
   1   0   9   19.17    0.78
  -1   1  -9   -0.06    0.12
   1  -1  -9    0.06    0.15
   1   1   9    0.00    0.12
  -1  -1  -9   -0.08    0.16
   1   1  -9   -0.04    0.12
   1  -1   9    0.12    0.13
  -1   2  -9   12.79    0.61
   1  -2  -9   13.23    0.68
   1   2  -9   13.47    0.63
  -1  -2  -9   13.06    0.70
   1  -2   9   13.50    0.60
   1  -3  -9    0.11    0.15
  -1   3  -9    0.17    0.16
   1   3  -9    0.01    0.15
  -1  -3  -9   -0.10    0.14
  -1  -4   9    4.67    0.40
  -1   4  -9    4.42    0.46
   1  -4  -9    3.99    0.42
   1   4  -9    5.47    0.52
   1  -4   9    4.25    0.43
  -1  -4  -9    4.12    0.44
   1  -5  -9    0.17    0.17
  -1   5  -9   -0.06    0.17
  -1  -5   9   -0.02    0.17
   1   5  -9   -0.04    0.18
  -1  -5  -9    0.01    0.17
   1  -5   9    0.14    0.17
   1  -6  -9    0.72    0.23
  -2   0  -9   35.10    1.02
   2   0   9   31.13    1.10
  -2   0  -9   30.34    1.18
   2   0  -9   31.39    1.16
   2   1   9    0.75    0.20
  -2   1  -9    0.93    0.21
   2  -1  -9    0.78    0.23
   2   1  -9    0.83    0.21
  -2  -1  -9    1.22    0.27
   2  -1   9    0.76    0.19
   2  -2  -9   27.74    1.02
  -2   2  -9   27.41    0.96
   2   2   9   26.17    1.00
   2  -2   9   25.30    0.93
  -2  -2  -9   23.23    1.01
   2   2  -9   26.47    0.96
  -2   3  -9    0.24    0.17
   2  -3  -9    0.27    0.17
  -2  -3  -9    0.17    0.17
   2   3  -9    0.06    0.17
   2  -3   9    0.30    0.15
  -2   4  -9   11.62    0.67
  -2  -4   9   10.86    0.60
   2  -4  -9   10.47    0.59
   2   4  -9   12.56    0.67
  -2  -4  -9   10.10    0.63
   2  -5  -9    0.01    0.15
  -2  -5   9    0.05    0.19
  -2   5  -9   -0.19    0.16
   2   5  -9   -0.13    0.17
  -2  -5  -9   -0.13    0.15
   2  -5   9   -0.11    0.16
   3   0   9    8.96    0.52
   3   0  -9    9.66    0.57
  -3   0  -9    9.67    0.49
  -3   0  -9    9.43    0.60
  -3   1  -9    0.71    0.24
   3   1   9    1.15    0.23
  -3   1  -9    1.01    0.21
   3  -1  -9    1.30    0.27
  -3  -1  -9    0.36    0.19
   3   1  -9    0.89    0.22
   3  -1   9    1.22    0.23
  -3   2  -9    6.52    0.45
   3  -2  -9    6.72    0.47
   3   2   9    6.51    0.46
   3   2  -9    7.32    0.48
   3  -2   9    6.24    0.43
  -3  -2  -9    7.17    0.52
   3   3   9    0.60    0.21
  -3   3  -9    0.61    0.21
   3  -3   9    0.86    0.22
   3   3  -9    0.72    0.25
  -3  -3  -9    0.90    0.25
  -3   4  -9    2.29    0.35
   3  -4  -9    2.18    0.37
  -3  -4   9    2.68    0.35
  -3  -4  -9    2.53    0.36
   3   4  -9    2.66    0.40
  -3  -5   9    0.50    0.23
   3  -5  -9    0.57    0.23
  -3   5  -9    0.46    0.23
  -3  -5  -9    0.65    0.24
   3   5  -9    1.01    0.31
  -4   0  -9    0.27    0.20
   4   0   9    0.23    0.16
   4   0  -9    0.38    0.17
  -4   0  -9    0.25    0.16
  -4   1  -9   20.29    0.93
   4   1   9   20.00    0.86
  -4   1  -9   19.83    0.80
   4  -1  -9   21.18    0.92
  -4  -1  -9   20.87    0.93
   4  -1   9   19.33    0.83
   4   2   9    0.03    0.15
  -4   2  -9    0.12    0.18
   4  -2  -9    0.22    0.16
   4  -2   9    0.34    0.17
   4   2  -9    0.06    0.17
  -4  -2  -9    0.28    0.20
   4   3   9   11.24    0.64
   4  -3  -9   11.21    0.70
  -4   3  -9   11.56    0.64
   4   3  -9   11.14    0.64
   4  -3   9   12.27    0.63
  -4  -3  -9   10.18    0.65
  -4   4  -9   -0.01    0.18
  -4  -4   9    0.05    0.17
   4  -4  -9    0.16    0.19
  -4  -4  -9    0.01    0.17
   4   4  -9   -0.12    0.19
  -4  -5   9    3.41    0.41
  -5   0  -9    4.01    0.46
   5   0   9    4.36    0.40
  -5   0  -9    4.54    0.37
   5   1   9   36.86    1.29
   5  -1  -9   36.05    1.31
  -5   1  -9   34.85    1.31
  -5  -1   9   36.09    1.16
  -5   1  -9   36.20    1.20
  -5  -1  -9   35.44    1.32
   5  -1   9   36.53    1.27
  -5   2  -9    4.11    0.49
   5   2   9    3.47    0.40
  -5   2  -9    3.10    0.38
   5  -2  -9    3.93    0.46
  -5  -2  -9    2.62    0.39
   5  -2   9    4.18    0.39
  -5   3  -9   23.21    0.96
   5  -3  -9   20.80    0.99
   5   3   9   20.47    0.92
  -5  -3  -9   21.26    0.97
   5  -3   9   21.01    0.90
   5   4   9    2.58    0.37
   5  -4  -9    2.04    0.37
  -5   4  -9    2.20    0.36
   5  -4   9    2.08    0.33
  -5  -4  -9    2.18    0.36
   5   4  -9    2.34    0.38
   6   0   9    4.67    0.43
  -6   0  -9    5.69    0.50
  -6   1  -9    2.06    0.36
   6  -1  -9    1.63    0.31
  -6  -1   9    1.90    0.28
  -6   1  -9    1.93    0.32
   6   1   9    2.10    0.33
   6  -1   9    1.73    0.30
  -6  -1  -9    2.52    0.38
   6  -2  -9    4.71    0.51
  -6   2  -9    4.03    0.45
   6   2   9    4.51    0.48
  -6  -2   9    4.52    0.39
   6  -2   9    3.26    0.40
  -6  -2  -9    3.78    0.45
  -6   3  -9    0.79    0.26
  -6  -3   9    1.10    0.27
   6  -3  -9    1.34    0.31
   6   3   9    1.03    0.27
   6  -3   9    0.85    0.25
  -6  -3  -9    1.35    0.29
  -7   1  -9    5.64    0.47
   7  -2  -9    0.26    0.22
   0   0 -10   -0.20    0.15
   0   1 -10    0.19    0.16
   0  -1 -10   -0.21    0.13
   0   2 -10   -0.07    0.14
   0  -2 -10   -0.11    0.14
   0   3 -10    0.16    0.18
   0  -3 -10    0.01    0.17
   0   4 -10    0.05    0.19
   0  -4 -10   -0.05    0.15
   0  -5 -10   -0.23    0.13
  -1   0 -10    3.63    0.45
   1   0  10    4.24    0.38
   1   0 -10    3.74    0.45
  -1   1 -10    0.20    0.16
   1  -1 -10    0.10    0.16
   1   1  10    0.00    0.13
   1  -1  10    0.02    0.14
   1   1 -10    0.00    0.14
  -1  -1 -10   -0.13    0.15
   1  -2 -10    3.03    0.40
  -1   2 -10    3.53    0.39
   1   2 -10    3.18    0.38
  -1  -2 -10    2.79    0.40
   1  -2  10    3.05    0.35
   1  -3 -10   -0.01    0.15
  -1   3 -10    0.03    0.18
  -1  -3 -10   -0.15    0.14
   1   3 -10   -0.12    0.15
  -1   4 -10    1.33    0.30
   1  -4 -10    2.24    0.34
   1   4 -10    1.99    0.35
  -1  -4 -10    1.33    0.28
   1  -5 -10    0.26    0.19
  -2   0 -10    3.31    0.43
   2   0 -10    3.63    0.44
   2   0  10    3.82    0.36
  -2   1 -10    0.58    0.20
   2  -1 -10    0.76    0.24
  -2   1 -10    0.78    0.26
   2   1  10    1.21    0.26
   2   1 -10    0.84    0.22
   2  -1  10    0.85    0.22
  -2  -1 -10    0.76    0.25
   2  -2 -10    2.76    0.38
   2   2  10    2.91    0.38
  -2   2 -10    3.20    0.37
   2   2 -10    2.41    0.34
  -2  -2 -10    2.68    0.39
   2  -2  10    3.40    0.37
   2  -3 -10    0.67    0.23
  -2   3 -10    0.60    0.22
  -2  -3 -10    0.38    0.21
   2   3 -10    0.39    0.22
   2  -4 -10    1.20    0.26
  -2   4 -10    1.29    0.31
  -2  -4 -10    0.92    0.27
   2   4 -10    1.57    0.34
   3   0  10    4.82    0.41
   3   0 -10    4.98    0.44
  -3   0 -10    4.64    0.51
   3   1  10    2.82    0.38
   3  -1 -10    2.54    0.36
  -3   1 -10    3.48    0.37
  -3   1 -10    2.85    0.42
   3  -1  10    2.97    0.36
  -3  -1 -10    2.67    0.39
   3  -2 -10    3.93    0.42
  -3   2 -10    3.52    0.40
   3   2  10    3.24    0.40
   3   2 -10    4.18    0.44
   3  -2  10    3.74    0.40
  -3  -2 -10    3.02    0.41
  -3   3 -10    2.29    0.35
   3   3 -10    2.20    0.36
  -3  -3 -10    1.94    0.37
   3  -4 -10    1.58    0.33
  -3   4 -10    2.17    0.37
   3   4 -10    2.67    0.41
  -3  -4 -10    1.87    0.34
  -4   0 -10    0.75    0.26
   4   0  10    0.37    0.21
  -4   1 -10    7.78    0.51
   4   1  10    8.51    0.55
  -4   1 -10    5.94    0.54
   4  -1 -10    9.35    0.61
   4  -1  10    8.03    0.53
  -4  -1 -10    6.42    0.54
  -4   2 -10    0.72    0.27
  -4   2 -10    0.65    0.22
   4   2  10    0.91    0.26
   4  -2 -10    0.36    0.20
   4   2 -10    0.34    0.21
   4  -2  10    0.36    0.21
  -4  -2 -10    0.50    0.24
   4  -3 -10    4.66    0.53
   4   3  10    4.39    0.48
  -4   3 -10    4.67    0.48
   4   3 -10    4.42    0.50
  -4  -3 -10    5.05    0.54
   4  -3  10    4.57    0.43
   5   0  10    1.66    0.31
  -5   0 -10    1.69    0.34
  -5   1 -10    0.00    0.15
   5  -1 -10    0.16    0.18
   5   1  10   -0.01    0.15
  -5   1 -10    0.15    0.20
   5  -1  10   -0.04    0.16
  -5  -1 -10    0.02    0.18
   5  -2 -10    1.18    0.29
  -5   2 -10    0.88    0.29
   5   2  10    1.20    0.28
  -5   2 -10    1.36    0.28
   5   2 -10    1.17    0.29
  -5  -2 -10    1.23    0.30
   5  -2  10    1.47    0.30
   5   3 -10   -0.03    0.19
   5  -3  10   -0.06    0.16
  -6   0 -10    2.21    0.38
  -6   1 -10   -0.13    0.19
  -6   1 -10   -0.15    0.17
  -6  -1 -10    0.26    0.21
   0   0 -11   -0.15    0.17
   0  -1 -11    3.23    0.44
   0   1 -11    2.69    0.42
   0  -2 -11    0.35    0.22
   0   2 -11    0.01    0.18
   0   3 -11    1.69    0.33
   0  -3 -11    0.50    0.24
   1   0 -11   -0.19    0.15
   1   0  11   -0.21    0.13
  -1   0 -11   -0.04    0.18
   1  -1 -11   10.07    0.66
   1  -1  11   10.44    0.60
  -1  -1 -11   10.51    0.69
   1  -2 -11    0.05    0.17
  -1   2 -11   -0.06    0.16
  -1  -2 -11    0.00    0.17
   1   2 -11    0.03    0.17
  -1   3 -11    6.14    0.52
   1  -3 -11    5.86    0.58
   1   3 -11    5.79    0.55
  -1  -3 -11    5.36    0.58
  -2   0 -11    0.19    0.23
   2   0 -11    0.91    0.28
   2   0  11    0.99    0.25
  -2   1 -11    1.37    0.33
   2   1  11    1.47    0.29
   2  -1 -11    1.75    0.33
  -2  -1 -11    1.81    0.36
   2  -1  11    1.12    0.26
  -2   2 -11    0.61    0.22
   2  -2 -11    0.45    0.22
   2  -2  11    0.90    0.23
  -2  -2 -11    0.43    0.25
   2   2 -11    0.87    0.24
   2  -3 -11    0.89    0.27
  -2   3 -11    0.85    0.27
   2   3 -11    0.87    0.27
   3   0 -11    2.57    0.40
  -3   0 -11    2.56    0.42
   3   0  11    2.99    0.40
  -3   1 -11    0.88    0.31
   3   1  11    1.03    0.27
   3  -1  11    1.33    0.28
  -3  -1 -11    1.30    0.33
  -3   2 -11    2.16    0.34
   3   2  11    2.59    0.38
  -3  -2 -11    2.18    0.39
   3  -2  11    2.23    0.34
  -3   3 -11    0.98    0.28
   3   3 -11    0.81    0.29
   4   0  11    3.16    0.41
  -4   0 -11    3.87    0.51
   4  -1 -11    0.51    0.22
  -4   1 -11    0.26    0.24
  -4  -1 -11    0.45    0.24
   4  -1  11    0.11    0.17
   4  -2 -11    2.49    0.39
  -4   2 -11    1.81    0.32
   4  -2  11    1.69    0.32
   0   0 -12    0.86    0.31
   1   0 -12    3.13    0.44
   1  -1 -12    0.04    0.20
   2   0 -12    6.24    0.63
   2  -1 -12    0.95    0.29
   2  -1  12    0.81    0.26
   0   0   0    0.00    0.00
;
_shelx_hkl_checksum              3286
_olex2_submission_special_instructions 'No special instructions were received'
loop_
_space_group_symop_operation_xyz
'x, y, z'
'-x+1/2, -y, z+1/2'
'x+1/2, -y+1/2, -z+1/2'
'-x, y+1/2, -z'
'-x, -y, -z'
'x-1/2, y, -z-1/2'
'-x-1/2, y-1/2, z-1/2'
'x, -y-1/2, z'
loop_
_atom_site_label
_atom_site_type_symbol
_atom_site_fract_x
_atom_site_fract_y
_atom_site_fract_z
_atom_site_U_iso_or_equiv
_atom_site_adp_type
_atom_site_occupancy
_atom_site_site_symmetry_order
_atom_site_calc_flag
_atom_site_refinement_flags_posn
_atom_site_refinement_flags_adp
_atom_site_refinement_flags_occupancy
C1 C 0.10712(14) 0.250000 0.62204(14) 0.0273(3) Uani 1 2 d S T P
C2 C 0.25648(16) 0.250000 0.49774(14) 0.0348(3) Uani 1 2 d S T P
H2B H 0.332816 0.379516 0.513646 0.042 Uiso 0.5 1 calc R . .
H2A H 0.332816 0.120484 0.513646 0.042 Uiso 0.5 1 calc R . .
C3 C 0.18960(16) 0.250000 0.33317(15) 0.0328(3) Uani 1 2 d S T P
N1 N 0.13515(17) 0.250000 0.20574(14) 0.0470(4) Uani 1 2 d S T P
O1 O 0.14048(11) 0.250000 0.76382(10) 0.0372(3) Uani 1 2 d S T P
O2 O -0.05822(11) 0.250000 0.56261(11) 0.0356(3) Uani 1 2 d S T P
H2 H -0.147(3) 0.250000 0.637(2) 0.053 Uiso 1 2 d RS T P
loop_
_atom_site_aniso_label
_atom_site_aniso_U_11
_atom_site_aniso_U_22
_atom_site_aniso_U_33
_atom_site_aniso_U_23
_atom_site_aniso_U_13
_atom_site_aniso_U_12
C1 0.0210(5) 0.0342(6) 0.0267(5) 0.000 -0.0004(4) 0.000
C2 0.0208(5) 0.0557(8) 0.0279(6) 0.000 0.0014(4) 0.000
C3 0.0259(6) 0.0421(7) 0.0305(6) 0.000 0.0043(4) 0.000
N1 0.0388(6) 0.0704(9) 0.0318(6) 0.000 0.0013(5) 0.000
O1 0.0256(4) 0.0599(7) 0.0262(5) 0.000 -0.0018(3) 0.000
O2 0.0195(4) 0.0600(7) 0.0272(5) 0.000 0.0003(3) 0.000
loop_
_atom_type_symbol
_atom_type_description
_atom_type_scat_dispersion_real
_atom_type_scat_dispersion_imag
_atom_type_scat_source
C C 0.0033 0.0016 'International Tables Vol C Tables 4.2.6.8 and 6.1.1.4'
H H 0.0000 0.0000 'International Tables Vol C Tables 4.2.6.8 and 6.1.1.4'
N N 0.0061 0.0033 'International Tables Vol C Tables 4.2.6.8 and 6.1.1.4'
O O 0.0106 0.0060 'International Tables Vol C Tables 4.2.6.8 and 6.1.1.4'
loop_
_geom_angle_atom_site_label_1
_geom_angle_atom_site_label_2
_geom_angle_atom_site_label_3
_geom_angle
O1 C1 C2 122.00(10)
O1 C1 O2 123.98(11)
O2 C1 C2 114.02(10)
C1 C2 H2B 108.7
C1 C2 H2A 108.7
H2B C2 H2A 107.6
C3 C2 C1 114.07(10)
C3 C2 H2B 108.7
C3 C2 H2A 108.7
N1 C3 C2 179.08(12)
C1 O2 H2 113.9(13)
loop_
_geom_bond_atom_site_label_1
_geom_bond_atom_site_label_2
_geom_bond_distance
C1 C2 1.5054(17)
C1 O1 1.2092(16)
C1 O2 1.3046(14)
C2 H2B 0.9700
C2 H2A 0.9700
C2 C3 1.4588(18)
C3 N1 1.1363(18)
O2 H2 0.90(2)
loop_
_geom_torsion_atom_site_label_1
_geom_torsion_atom_site_label_2
_geom_torsion_atom_site_label_3
_geom_torsion_atom_site_label_4
_geom_torsion
O1 C1 C2 C3 180.000(0)
O2 C1 C2 C3 0.000(0)
