#------------------------------------------------------------------------------
#$Date: 2019-11-24 08:35:38 +0200 (Sun, 24 Nov 2019) $
#$Revision: 237320 $
#$URL: file:///home/coder/svn-repositories/cod/cif/1/55/45/1554537.cif $
#------------------------------------------------------------------------------
#
# This file is available in the Crystallography Open Database (COD),
# http://www.crystallography.net/
#
# All data on this site have been placed in the public domain by the
# contributors.
#
data_1554537
loop_
_publ_author_name
'Lemport, Pavel S.'
'Smolyar, Ivan V.'
'Khrustalev, Victor N.'
'Roznyatovsky, Vitaly A.'
'Popov, Alexander V.'
'Kobelevskaya, Valentina A.'
'Rozentsveig, Igor B.'
'Nenajdenko, Valentine G.'
_publ_section_title
;
 3,3-Diazidoenones -- new types of highly reactive bis-azides. Preparation
 and synthetic transformations
;
_journal_issue                   3
_journal_name_full               'Organic Chemistry Frontiers'
_journal_page_first              335
_journal_paper_doi               10.1039/C8QO01214H
_journal_volume                  6
_journal_year                    2019
_chemical_formula_moiety         'C17 H17 Br N4 O'
_chemical_formula_sum            'C17 H17 Br N4 O'
_chemical_formula_weight         373.25
_space_group_crystal_system      triclinic
_space_group_IT_number           2
_space_group_name_Hall           '-P 1'
_space_group_name_H-M_alt        'P -1'
_atom_sites_solution_hydrogens   geom
_atom_sites_solution_primary     difmap
_atom_sites_solution_secondary   difmap
_audit_creation_method           SHELXL-2014/6
_audit_update_record
;
2018-11-09 deposited with the CCDC.
2018-12-10 downloaded from the CCDC.
;
_cell_angle_alpha                69.94(3)
_cell_angle_beta                 83.57(3)
_cell_angle_gamma                89.74(3)
_cell_formula_units_Z            2
_cell_length_a                   5.2572(10)
_cell_length_b                   12.458(3)
_cell_length_c                   13.205(3)
_cell_measurement_reflns_used    600
_cell_measurement_temperature    100(2)
_cell_measurement_theta_max      32.0
_cell_measurement_theta_min      2.2
_cell_volume                     806.7(3)
_computing_cell_refinement       'iMosflm (Battye et al., 2011)'
_computing_data_collection       'Marccd (Doyle, 2011)'
_computing_data_reduction        iMosflm
_computing_molecular_graphics    'SHELXTL (Sheldrick, 2015)'
_computing_publication_material  SHELXTL
_computing_structure_refinement  'SHELXL (Sheldrick, 2015)'
_computing_structure_solution    'SHELXT (Sheldrick, 2015)'
_diffrn_ambient_temperature      100(2)
_diffrn_measured_fraction_theta_full 0.960
_diffrn_measured_fraction_theta_max 0.898
_diffrn_measurement_device_type  'Rayonix SX165 CCD'
_diffrn_measurement_method       '/f scan'
_diffrn_radiation_type           synchrotron
_diffrn_radiation_wavelength     0.96260
_diffrn_reflns_av_R_equivalents  0.1002
_diffrn_reflns_av_unetI/netI     0.1348
_diffrn_reflns_Laue_measured_fraction_full 0.960
_diffrn_reflns_Laue_measured_fraction_max 0.898
_diffrn_reflns_limit_h_max       6
_diffrn_reflns_limit_h_min       -6
_diffrn_reflns_limit_k_max       15
_diffrn_reflns_limit_k_min       -14
_diffrn_reflns_limit_l_max       16
_diffrn_reflns_limit_l_min       -16
_diffrn_reflns_number            13207
_diffrn_reflns_point_group_measured_fraction_full 0.960
_diffrn_reflns_point_group_measured_fraction_max 0.898
_diffrn_reflns_theta_full        35.279
_diffrn_reflns_theta_max         38.307
_diffrn_reflns_theta_min         2.239
_exptl_absorpt_coefficient_mu    0.947
_exptl_absorpt_correction_T_max  0.910
_exptl_absorpt_correction_T_min  0.780
_exptl_absorpt_correction_type   multi-scan
_exptl_absorpt_process_details   'Scala (Evans, 2006)'
_exptl_crystal_colour            'pale yellow'
_exptl_crystal_density_diffrn    1.537
_exptl_crystal_description       prism
_exptl_crystal_F_000             380
_exptl_crystal_size_max          0.35
_exptl_crystal_size_mid          0.20
_exptl_crystal_size_min          0.12
_refine_diff_density_max         0.809
_refine_diff_density_min         -1.391
_refine_diff_density_rms         0.149
_refine_ls_extinction_coef       0.009(2)
_refine_ls_extinction_expression Fc^*^=kFc[1+0.001xFc^2^\l^3^/sin(2\q)]^-1/4^
_refine_ls_extinction_method     SHELXL
_refine_ls_goodness_of_fit_ref   1.057
_refine_ls_hydrogen_treatment    constr
_refine_ls_matrix_type           full
_refine_ls_number_parameters     209
_refine_ls_number_reflns         3237
_refine_ls_number_restraints     0
_refine_ls_restrained_S_all      1.057
_refine_ls_R_factor_all          0.0871
_refine_ls_R_factor_gt           0.0615
_refine_ls_shift/su_max          0.000
_refine_ls_shift/su_mean         0.000
_refine_ls_structure_factor_coef Fsqd
_refine_ls_weighting_details
'w=1/[\s^2^(Fo^2^)+(0.0278P)^2^+0.55P] where P=(Fo^2^+2Fc^2^)/3'
_refine_ls_weighting_scheme      calc
_refine_ls_wR_factor_gt          0.1321
_refine_ls_wR_factor_ref         0.1567
_reflns_Friedel_coverage         0.000
_reflns_number_gt                2399
_reflns_number_total             3237
_reflns_threshold_expression     'I > 2\s(I)'
_cod_data_source_file            c8qo01214h2.cif
_cod_data_source_block           7a
_cod_database_code               1554537
_shelx_space_group_comment
;
The symmetry employed for this shelxl refinement is uniquely defined
by the following loop, which should always be used as a source of
symmetry information in preference to the above space-group names.
They are only intended as comments.
;
_shelx_estimated_absorpt_t_min   0.783
_shelx_estimated_absorpt_t_max   0.917
_shelxl_version_number           2014/6
_shelx_res_file
;
TITL LPS144 in P-1
CELL 0.96260   5.2572  12.4576  13.2046  69.936  83.569  89.739
ZERR    2.00   0.0010   0.0025   0.0026   0.030   0.030   0.030
LATT 1
SFAC C H N O Br
DISP C 0.007 0.003 24.953
DISP H -0 0 0.636
DISP N 0.013 0.006 46.204
DISP O 0.021 0.012 79.803
DISP Br -2.647 0.550 2261.074
UNIT 34 34 8 2 2
TEMP -173.0
SIZE 0.35 0.20 0.12

OMIT     4   9  11
OMIT     6   3   9
OMIT    -1 -11   3
OMIT     0 -11   4
OMIT     5   7   4
OMIT     5   6   7
OMIT    -2  -5  10
OMIT    -3  -3   9
OMIT     5   6   6
OMIT    -1  -6  10
OMIT     6   3   1
OMIT     5   7   9
OMIT    -5  10   4
OMIT     5   8   8
OMIT    -1  -4  12
OMIT     5   8   3
OMIT     5   8   5
OMIT     6   4   6
OMIT     6   3   7
OMIT    -5  10   0
OMIT    -4  -4   8
OMIT    -3  -4   9
OMIT     3  11   1
OMIT    -4  -2   8
OMIT     5   7   8
OMIT     6   3   8
OMIT    -5  -6   1
OMIT    -2  -3  12
OMIT    -4  -7   4
OMIT    -1 -12   4
OMIT     5   6   9
OMIT    -4  -6   5
OMIT     5   6   1
L.S. 12
BOND $H
ACTA
CONF

WGHT    0.027800    0.550000
EXTI    0.008745
FVAR       0.79086
BR1   5    1.453500    0.035699    0.119647    11.00000    0.03864    0.03052 =
         0.02190   -0.01508   -0.00449    0.01065
O1    4    0.615695    0.131729    0.523313    11.00000    0.02624    0.02115 =
         0.02263   -0.01286   -0.00076    0.00259
N1    3    0.560238    0.363717    0.620954    11.00000    0.02186    0.01900 =
         0.01488   -0.00769   -0.00259    0.00351
N2    3    0.708881    0.464563    0.584585    11.00000    0.02456    0.01745 =
         0.01965   -0.00701   -0.00210    0.00082
N3    3    0.600864    0.530458    0.635926    11.00000    0.02809    0.01954 =
         0.01642   -0.00782   -0.00421    0.00450
N4    3    0.486275    0.186932    0.591883    11.00000    0.02693    0.02215 =
         0.02330   -0.01433   -0.00174    0.00362
C3A   1    0.384185    0.473968    0.704341    11.00000    0.01989    0.02169 =
         0.01537   -0.00744   -0.00626    0.00622
C4    1    0.234456    0.530448    0.775568    11.00000    0.02221    0.02100 =
         0.02447   -0.01314   -0.00381    0.00270
AFIX  23
H4A   2    0.048999    0.519945    0.773077    11.00000   -1.20000
H4B   2    0.277248    0.613563    0.746875    11.00000   -1.20000
AFIX   0
C5    1    0.293139    0.480266    0.895445    11.00000    0.02994    0.03604 =
         0.01888   -0.01492   -0.00148    0.00145
AFIX  23
H5A   2    0.468161    0.506406    0.899334    11.00000   -1.20000
H5B   2    0.172286    0.511823    0.940178    11.00000   -1.20000
AFIX   0
C6    1    0.274497    0.349108    0.945088    11.00000    0.02984    0.03515 =
         0.01689   -0.00919   -0.00521    0.00623
AFIX  23
H6A   2    0.308341    0.327185    1.021706    11.00000   -1.20000
H6B   2    0.414163    0.318915    0.906863    11.00000   -1.20000
AFIX   0
C7    1    0.020993    0.287471    0.943166    11.00000    0.02593    0.02882 =
         0.01789   -0.00664    0.00050    0.00189
AFIX  23
H7A   2   -0.120263    0.321218    0.977043    11.00000   -1.20000
H7B   2    0.028254    0.206366    0.989880    11.00000   -1.20000
AFIX   0
C8    1   -0.051378    0.290220    0.830270    11.00000    0.02816    0.02326 =
         0.02304   -0.00605   -0.00690    0.00221
AFIX  23
H8A   2   -0.191829    0.232679    0.843368    11.00000   -1.20000
H8B   2   -0.119198    0.366199    0.793320    11.00000   -1.20000
AFIX   0
C9    1    0.165490    0.267428    0.752354    11.00000    0.02513    0.01654 =
         0.01860   -0.00492   -0.00307   -0.00182
AFIX  23
H9A   2    0.259824    0.200780    0.793803    11.00000   -1.20000
H9B   2    0.088044    0.246702    0.696290    11.00000   -1.20000
AFIX   0
C9A   1    0.355583    0.367101    0.696005    11.00000    0.02200    0.02208 =
         0.01540   -0.00848   -0.00676    0.00483
C10   1    0.631506    0.280648    0.571433    11.00000    0.02467    0.01978 =
         0.01371   -0.00723   -0.00864    0.00826
C11   1    0.852985    0.292217    0.493657    11.00000    0.02169    0.02059 =
         0.01532   -0.00794   -0.00530    0.00259
AFIX  43
H11   2    0.982192    0.351462    0.467576    11.00000   -1.20000
AFIX   0
C12   1    0.830535    0.195571    0.466456    11.00000    0.01741    0.02278 =
         0.01678   -0.00588   -0.00589    0.00553
C13   1    0.981778    0.154452    0.386175    11.00000    0.02507    0.01691 =
         0.01689   -0.00559   -0.00932    0.00610
C14   1    1.212500    0.213777    0.329618    11.00000    0.02398    0.01901 =
         0.01966   -0.00851   -0.00685   -0.00050
AFIX  43
H14   2    1.272089    0.277626    0.345226    11.00000   -1.20000
AFIX   0
C15   1    1.354000    0.178555    0.250346    11.00000    0.02114    0.02541 =
         0.01835   -0.00689   -0.00274    0.00267
AFIX  43
H15   2    1.509005    0.217975    0.211953    11.00000   -1.20000
AFIX   0
C16   1    1.260345    0.083277    0.229162    11.00000    0.02794    0.02316 =
         0.01723   -0.01061   -0.00890    0.01002
C17   1    1.034476    0.023513    0.284537    11.00000    0.03346    0.01845 =
         0.02604   -0.01119   -0.01001    0.00592
AFIX  43
H17   2    0.975733   -0.040551    0.269049    11.00000   -1.20000
AFIX   0
C18   1    0.895023    0.059189    0.363432    11.00000    0.02254    0.02057 =
         0.02059   -0.00874   -0.00440    0.00305
AFIX  43
H18   2    0.740943    0.018886    0.401853    11.00000   -1.20000

AFIX   0
HKLF 4

REM  LPS144 in P-1
REM R1 =  0.0615 for    2399 Fo > 4sig(Fo)  and  0.0871 for all    3237 data
REM    209 parameters refined using      0 restraints

END

WGHT      0.0278      0.0000

REM Highest difference peak  0.809,  deepest hole -1.391,  1-sigma level  0.149
Q1    1   1.6334  0.1407  0.0789  11.00000  0.05    0.81
Q2    1   1.4630  0.0149  0.1591  11.00000  0.05    0.76
Q3    1   1.2350 -0.0183  0.1998  11.00000  0.05    0.75
Q4    1   1.2719 -0.0636  0.1585  11.00000  0.05    0.69
Q5    1   1.6573  0.0986  0.0399  11.00000  0.05    0.66
Q6    1   1.4469  0.0516  0.0831  11.00000  0.05    0.64
Q7    1   1.3154 -0.0770  0.1740  11.00000  0.05    0.63
Q8    1   1.5913 -0.0149  0.0417  11.00000  0.05    0.61
Q9    1   1.2822 -0.0044  0.0573  11.00000  0.05    0.60
Q10   1   1.3504  0.1056  0.0436  11.00000  0.05    0.60
Q11   1   1.6991  0.0593  0.0548  11.00000  0.05    0.55
Q12   1   1.5547 -0.0402  0.1992  11.00000  0.05    0.55
Q13   1   0.3697  0.3513  0.7230  11.00000  0.05    0.54
Q14   1   1.2919  0.0954  0.1523  11.00000  0.05    0.54
Q15   1   1.2421 -0.0349  0.1265  11.00000  0.05    0.54
Q16   1   0.7053 -0.0156  0.2581  11.00000  0.05    0.53
Q17   1   1.5780  0.1417  0.2223  11.00000  0.05    0.53
Q18   1   1.7230  0.0631 -0.0213  11.00000  0.05    0.53
Q19   1   1.6511  0.0946  0.1554  11.00000  0.05    0.52
Q20   1   1.6226  0.0792  0.1814  11.00000  0.05    0.52
;
_shelx_res_checksum              62466
_shelx_hkl_file
;
   6   4  -1    4.50   28.95
   6   3  -1   -0.26   10.54
   6   3  -2    7.36   29.23
   6   2  -1   80.67   32.00
   6   2  -2    9.99   15.85
   6   2  -3    6.15   23.97
   6   2  -4   -1.49   10.83
   6   1  -1   22.65   17.09
   6   1  -2  174.04   51.93
   6   1  -3  122.46   42.59
   6   1  -4   17.58   20.83
   6   0  -1   71.61   28.95
   6   0  -2   36.89   22.31
   6   0  -3   26.09   19.27
   6   0  -4   19.28   20.16
   6   0  -5    7.51   15.30
   6  -1  -1   26.53   18.67
   6  -1  -2  430.94  100.72
   6  -1  -3    5.19   14.03
   6  -1  -4   26.10   21.45
   6  -1  -5   58.89   31.68
   6  -2  -1   23.08   16.62
   6  -2  -2   83.75   32.73
   6  -2  -3   -2.54    8.74
   6  -2  -4   39.46   26.59
   6  -2  -5   12.05   18.55
   6  -2  -6  136.61   48.22
   6  -3  -1  101.35   35.64
   6  -3  -2  150.14   45.98
   6  -3  -3    1.44   10.08
   6  -3  -4    9.78   19.05
   6  -3  -5   90.85   37.41
   6  -3  -6   18.79   18.02
   6  -4  -1   20.71   16.01
   6  -4  -2    8.58   12.46
   6  -4  -3   -2.04   11.22
   6  -4  -4  175.64   53.80
   6  -4  -5   31.72   23.69
   6  -5  -1   59.88   26.27
   6  -5  -2   28.86   19.00
   6  -5  -3   11.77   16.60
   6  -5  -4  154.65   50.78
   6  -5  -5  191.16   58.35
   6  -6  -1  125.41   41.31
   6  -6  -2    5.38   13.77
   6  -6  -3   12.69   19.83
   6  -6  -4   77.07   33.92
   5   7  -1    6.94   20.28
   5   7  -2   -2.21   23.89
   5   6  -1    5.02   20.70
   5   6  -2   -2.64   13.78
   5   5  -1   -1.15   20.69
   5   5  -3    1.87   12.25
   5   5  -4   -0.46   17.05
   5   5  -5    2.84   16.45
   5   4  -1   65.88   28.69
   5   4  -2  136.45   51.04
   5   4  -3    1.13   10.35
   5   4  -4    0.53   15.59
   5   4  -5   -3.26   19.75
   5   4  -6    3.42   19.59
   5   3  -1   24.71   17.28
   5   3  -2  288.21   74.74
   5   3  -3  100.13   37.44
   5   3  -4    2.38   13.06
   5   3  -5    4.07   17.96
   5   3  -6   -1.93   19.82
   5   3  -7    3.24   27.95
   5   2  -1   66.93   27.24
   5   2  -2   29.06   18.64
   5   2  -3  274.96   72.41
   5   2  -4  196.81   58.19
   5   2  -5    1.89   10.99
   5   2  -6   29.54   24.59
   5   2  -7   54.29   33.68
   5   2  -8   -3.65   21.53
   5   1  -1  134.56   41.15
   5   1  -2   97.52   34.39
   5   1  -4   26.62   18.49
   5   1  -5    3.36   10.92
   5   1  -6   67.41   32.01
   5   1  -7   19.29   22.07
   5   1  -8   17.24   23.11
   5   0  -1   80.00   27.77
   5   0  -1   35.98   25.59
  -5   0   2   45.21   21.49
   5   0  -2   61.05   24.57
  -5   0   3   45.66   23.80
   5   0  -3  103.07   31.26
  -5   0   4   36.24   23.87
   5   0  -4  121.63   33.43
  -5   0   5   87.57   52.76
   5   0  -5  359.50   64.25
   5   0  -6  115.81   42.98
   5   0  -7   52.44   30.29
   5   0  -8    7.32   22.18
   5   0  -9    1.94   18.39
  -5   1   1  100.24   22.97
  -5   1   1   13.37   12.34
   5  -1  -1   92.27   23.69
   5  -1  -1   60.32   12.34
   5  -1  -1   23.73   11.45
  -5   1   2 1467.72  401.71
   5  -1  -2 2060.63  363.39
  -5   1   3    6.06   10.96
   5  -1  -3   11.47   12.13
  -5   1   4   12.34   12.93
   5  -1  -5  102.22   37.97
  -5   1   6   -2.78   17.24
   5  -1  -6   99.02   26.68
  -5   1   7   -4.11   13.14
   5  -1  -7   50.38   21.46
   5  -1  -8  103.54   43.45
   5  -1  -9   60.17   35.10
  -5   2   1   69.79   26.04
   5  -2  -1   82.00   27.49
   5  -2  -1   64.70   15.94
  -5   2   2   33.20   15.68
   5  -2  -2   39.25   20.11
   5  -2  -2   34.30    8.96
  -5   2   3   94.07   30.71
   5  -2  -3  175.80   39.04
   5  -2  -3   76.22   24.16
  -5   2   4    0.39   10.59
   5  -2  -4    3.77    9.89
  -5   2   5   -1.73   13.81
   5  -2  -5   58.53   19.80
   5  -2  -6   51.80   26.36
  -5   2   7    1.13   10.85
   5  -2  -7   16.63   14.05
   5  -2  -8    3.21   19.14
   5  -2  -9   26.61   25.29
  -5   3   1 1130.04  242.72
   5  -3  -1 1118.30  223.32
   5  -3  -1 1070.28  231.03
  -5   3   2    8.94   12.35
   5  -3  -2   15.58   13.75
   5  -3  -2   13.62    7.36
   5  -3  -3   58.94   23.56
   5  -3  -3   35.65   11.76
   5  -3  -4   67.87   23.90
   5  -3  -4   22.71   10.61
  -5   3   5    2.04   29.38
   5  -3  -5  225.70   41.92
  -5   3   6    0.81   68.95
   5  -3  -6  633.87   81.70
  -5   3   7    2.25   10.07
   5  -3  -8    5.75   16.37
   5  -3  -9  168.25   58.32
  -5   4   1  741.80  134.92
   5  -4  -1  731.39  129.11
   5  -4  -1  365.02  124.83
  -5   4   2    2.74   11.68
   5  -4  -2    6.34    9.78
   5  -4  -2    4.77    5.38
  -5   4   3  120.29   37.56
   5  -4  -3  173.59   45.01
   5  -4  -3  141.25   31.85
  -5   4   4    3.62    9.96
   5  -4  -4   15.92   12.24
   5  -4  -4    3.81    6.94
  -5   4   5   -2.02   21.81
   5  -4  -5  177.33   33.29
   5  -4  -5   61.42   18.40
  -5   4   6   -0.80   25.30
   5  -4  -6  201.09   38.19
  -5   4   7    0.32   14.05
   5  -4  -7   78.73   24.76
  -5   4   8    2.80   10.74
   5  -4  -8   14.19   16.10
   5  -4  -9  211.71   66.97
  -5   5   1  109.65   29.18
   5  -5  -1  126.16   34.02
   5  -5  -1   68.54   22.31
  -5   5   2    3.88   11.18
   5  -5  -2    7.41   10.39
   5  -5  -2    5.83    5.87
  -5   5   3    2.82   13.34
   5  -5  -3   45.09   18.29
   5  -5  -3   28.05    9.43
  -5   5   4    1.27   21.01
   5  -5  -4  127.82   31.40
   5  -5  -4   77.57   17.14
  -5   5   5   -1.03   28.82
   5  -5  -5  238.18   42.24
   5  -5  -5  104.98   25.82
  -5   5   6    4.02   11.99
   5  -5  -6   43.59   18.59
  -5   5   7   -1.45   10.07
   5  -5  -7   13.00   12.54
  -5   5   8   -0.82   15.41
   5  -5  -8  101.55   28.23
   5  -5  -9   79.65   38.43
  -5   6   1   53.68   21.83
   5  -6  -1   84.90   27.05
   5  -6  -1   50.09   15.08
  -5   6   2    2.69   14.28
   5  -6  -2   45.06   18.52
   5  -6  -2   31.49    9.32
  -5   6   3    1.06    8.70
   5  -6  -3    1.41    8.97
   5  -6  -3   -0.07    6.65
  -5   6   4    0.97   26.48
   5  -6  -4  193.80   37.84
   5  -6  -4   94.09   23.64
  -5   6   5   -2.98   56.60
   5  -6  -5  480.80   69.12
   5  -6  -5  242.35   52.98
  -5   6   6    2.71    9.69
   5  -6  -6    2.49   10.49
  -5   6   7   -1.38    9.64
   5  -6  -7    0.47    9.71
  -5   6   8   -0.35   16.17
   5  -6  -8  112.60   30.82
   5  -6  -9   51.62   31.69
  -5   7   1    0.30   11.95
   5  -7  -1    2.53    9.12
   5  -7  -1    2.52    6.57
  -5   7   2    0.27   65.87
   5  -7  -2  435.08   73.07
   5  -7  -2  308.15   61.41
  -5   7   3    2.50   38.28
   5  -7  -3  264.28   48.72
   5  -7  -3  158.57   34.42
  -5   7   4   -0.89   17.96
   5  -7  -4  107.32   29.06
  -5   7   5   -0.29   33.08
   5  -7  -5  259.20   46.30
  -5   7   6    3.32   14.42
   5  -7  -6   74.62   24.84
  -5   7   7   -3.68   13.39
   5  -7  -7   71.97   22.97
  -5   7   8   -0.52   15.98
   5  -7  -8  123.65   33.18
  -5   8   1   -2.73   11.80
   5  -8  -1   24.24   14.55
  -5   8   2   -1.22    9.89
   5  -8  -2    6.21   13.88
  -5   8   3    0.07    9.79
   5  -8  -3    9.92   13.21
  -5   8   4   -0.03   15.77
   5  -8  -4   85.00   28.74
  -5   8   5   -3.96   12.26
   5  -8  -5   55.31   24.21
  -5   8   6   -0.35    8.10
   5  -8  -6    0.75   21.89
  -5   8   7    2.23    9.07
   5  -8  -7   17.59   22.24
  -5   9   1   -0.84   14.38
   5  -9  -1   48.49   21.64
  -5   9   2    4.95   13.48
   5  -9  -2   43.15   22.09
  -5   9   3    0.65   20.45
   5  -9  -3  116.55   32.35
  -5   9   4    2.46   29.19
   5  -9  -4  202.83   43.42
  -5   9   5   -0.14   14.31
   5  -9  -5   58.47   29.67
  -5   9   6    2.44   10.96
   5  -9  -6    0.56   19.97
  -5  10   1    0.52   18.51
  -5  10   2   -5.06   14.67
  -5  10   3    2.23   13.95
  -5  10   4   -1.22   16.46
  -5  10   5    4.26   13.40
   4   8  -1    9.41   26.15
   4   8  -2   -0.91   23.88
   4   7  -1  138.54   50.50
   4   7  -2    8.73   24.21
   4   7  -3   -2.26   17.46
   4   7  -4   -8.76   21.39
   4   7  -5   12.68   33.28
   4   6  -1  108.04   40.69
   4   6  -2   97.51   40.47
   4   6  -3   44.66   31.11
   4   6  -4    2.19   18.03
   4   6  -5    3.41   19.11
   4   6  -6    7.41   28.42
   4   5  -1   32.12   20.02
   4   5  -2   67.98   31.48
   4   5  -3   59.95   30.43
   4   5  -4  197.83   64.12
   4   5  -5    1.32   17.08
   4   5  -6   -0.52   16.79
   4   5  -7    4.52   25.32
   4   5  -8    0.22   30.41
   4   4  -1  526.43  118.18
   4   4  -2  243.81   65.98
   4   4  -5   55.70   33.25
   4   4  -6   -0.24   12.96
  -4  -4   7   -0.73   14.60
   4   4  -7    5.83   17.33
   4   4  -8  -10.16   15.36
   4   4  -9   -1.78   29.18
  -4  -3   1   58.84   22.36
   4   3  -1   69.20   24.72
   4   3  -1   50.73   24.38
   4   3  -2   59.24   26.10
   4   3  -3  582.65  131.16
   4   3  -4   62.22   29.54
   4   3  -5  154.14   52.69
  -4  -3   6    4.53   13.91
   4   3  -6    2.20   16.36
  -4  -3   7   56.77   24.39
   4   3  -7  107.16   39.62
  -4  -3   8   -2.25   14.84
   4   3  -8   26.98   20.61
   4   3  -9   -3.09   18.87
  -4  -2   1    6.66    8.73
   4   2  -1   15.24   10.14
   4   2  -1    9.32   11.16
  -4  -2   2   79.52   28.43
   4   2  -2  127.83   32.13
   4   2  -2   64.22   30.30
   4   2  -3  328.35   81.30
  -4  -2   4   24.40   11.49
  -4  -2   4   11.86   17.25
   4   2  -4   41.40   19.15
  -4  -2   5    3.68   10.82
  -4  -2   5   -5.79   13.38
   4   2  -5   -0.27   10.71
  -4  -2   6   31.48   16.57
   4   2  -6   25.31   23.05
  -4  -2   7  103.25   44.15
   4   2  -7  286.64   61.75
  -4  -2   8    6.31   18.66
  -4  -2   9   -1.52   13.13
   4   2  -9   12.65   18.98
   4   2 -10    2.15   22.38
  -4  -1   1    1.98    5.15
   4   1  -1    4.55    7.12
   4   1  -1    0.71    6.85
  -4  -1   2  750.95  168.39
  -4  -1   2  651.55  180.69
   4   1  -2 1279.70  172.94
   4   1  -2  602.05  171.35
   4   1  -3  244.39   64.21
  -4  -1   4  179.91   52.98
   4   1  -4  301.47   63.13
   4   1  -4  150.87   59.11
  -4  -1   5   13.34   20.68
   4   1  -5   -2.41   18.72
  -4  -1   6   34.53   15.74
   4   1  -6   37.36   22.75
  -4  -1   7  388.35   89.98
   4   1  -7  400.15  101.27
  -4  -1   8    1.59   14.93
   4   1  -8   14.05   18.54
  -4  -1   9    3.39   11.10
   4   1  -9    1.54   17.86
   4   1 -10    2.81   18.68
   4   1 -11    2.14   22.97
  -4   0   1   37.74   19.46
  -4   0   1   65.08   15.41
  -4   0   1   33.10   10.88
   4   0  -1   57.53   20.80
   4   0  -1   46.67   21.94
   4   0  -1   69.47   18.09
   4   0  -1   59.97   10.18
   4   0  -1   40.58   10.07
  -4   0   2  207.42   54.85
  -4   0   2  171.34   51.39
  -4   0   2  292.83   55.21
   4   0  -2  275.61   57.81
   4   0  -2  192.49   57.59
   4   0  -2  239.96   54.61
  -4   0   3  506.52  140.21
  -4   0   3  627.96  143.95
   4   0  -3  714.83  137.98
   4   0  -3  718.56  144.46
  -4   0   4  543.03  157.04
  -4   0   4  557.07  161.21
   4   0  -4  983.55  154.96
   4   0  -4  546.39  161.12
  -4   0   5  445.53  115.68
  -4   0   5  481.69  120.96
   4   0  -5  648.96  120.10
   4   0  -5  419.29  120.76
  -4   0   6    7.35   11.58
   4   0  -6    5.50   11.82
  -4   0   7  132.68   35.72
   4   0  -7  140.07   49.42
  -4   0   8    0.86   16.56
   4   0  -8   74.69   26.09
  -4   0   9   -0.74    9.97
  -4   0  10    2.74   11.67
   4   0 -10   13.31   19.34
   4   0 -11  186.11   67.93
  -4   1   1  198.27   55.07
  -4   1   1  222.29   52.33
  -4   1   1  259.32   46.69
   4  -1  -1  260.93   56.36
   4  -1  -1  205.14   58.76
   4  -1  -1  150.98   53.33
   4  -1  -1  257.63   46.55
   4  -1  -1  203.69   46.48
  -4   1   2  170.09   45.93
  -4   1   2  164.14   41.95
  -4   1   2  135.33   36.47
   4  -1  -2  230.16   48.45
   4  -1  -2  145.09   48.56
   4  -1  -2  203.73   44.50
   4  -1  -2  205.17   36.51
   4  -1  -2  156.63   36.49
  -4   1   3   16.42   13.54
  -4   1   3   24.01   10.79
  -4   1   3   32.92    7.08
   4  -1  -3   34.65   15.90
   4  -1  -3   19.04   14.93
   4  -1  -3   36.07   16.43
   4  -1  -3   30.83    5.26
   4  -1  -3   24.27    5.34
  -4   1   4   19.98   11.18
  -4   1   4   13.19   15.87
   4  -1  -4   29.57   16.47
   4  -1  -4   22.50   15.82
  -4   1   5   11.52   20.87
   4  -1  -5   24.47   15.99
   4  -1  -5   20.11   20.94
  -4   1   6  332.39  100.50
   4  -1  -6  580.74  107.56
  -4   1   7  147.10   38.03
   4  -1  -7  149.42   49.73
  -4   1   8   23.42   13.14
   4  -1  -8   47.57   25.43
  -4   1   9   -1.46   11.21
   4  -1  -9   23.87   19.49
  -4   1  10    0.55   16.10
   4  -1 -10  113.93   32.44
   4  -1 -11   43.31   31.48
   4  -1 -12  106.41   52.13
  -4   2   1  228.70   55.87
  -4   2   1  246.96   50.34
   4  -2  -1  299.42   59.48
   4  -2  -1  234.40   62.62
   4  -2  -1  272.90   56.99
   4  -2  -1  193.38   49.95
   4  -2  -1  213.17   50.01
  -4   2   2  663.39  156.16
  -4   2   2  623.49  167.22
  -4   2   2  767.83  158.99
   4  -2  -2 1039.79  159.33
   4  -2  -2  766.52  160.36
   4  -2  -2  610.59  168.59
   4  -2  -2  837.34  159.07
   4  -2  -2  693.09  159.04
  -4   2   3 1227.02  287.85
  -4   2   3 1409.10  276.55
   4  -2  -3 1882.36  265.63
   4  -2  -3  817.34  264.02
   4  -2  -3 1662.43  290.59
   4  -2  -3 1044.80  276.47
   4  -2  -3 1404.94  276.69
  -4   2   4  473.14   90.77
  -4   2   4  411.17   94.15
  -4   2   4  387.05   83.85
   4  -2  -4  531.06   95.01
   4  -2  -4  406.27   93.93
   4  -2  -4  324.27   83.88
   4  -2  -4  342.65   83.97
  -4   2   5   67.49   19.55
  -4   2   5   52.49   25.17
   4  -2  -5   91.61   28.83
   4  -2  -5   56.43   14.11
   4  -2  -6  102.28   37.69
  -4   2   7  311.29   77.69
   4  -2  -7  372.64   87.74
  -4   2   8  136.49   35.43
   4  -2  -8  142.14   50.70
  -4   2   9    2.21   14.80
   4  -2  -9   93.33   30.83
  -4   2  10   -4.91   11.57
   4  -2 -10   16.16   18.78
  -4   2  11   -4.48   14.18
   4  -2 -11   78.02   27.67
   4  -2 -12    6.46   26.16
  -4   3   1  119.69   43.28
  -4   3   1  131.38   39.34
  -4   3   1  187.20   34.50
   4  -3  -1  202.68   44.47
   4  -3  -1  172.80   47.79
   4  -3  -1  169.92   40.24
   4  -3  -1  179.43   34.08
   4  -3  -1  148.73   34.01
  -4   3   2  429.78  116.45
  -4   3   2  419.61  121.66
  -4   3   2  581.72  114.71
   4  -3  -2  783.11  119.53
   4  -3  -2  559.36  121.06
   4  -3  -2  525.88  114.64
   4  -3  -2  535.17  114.70
  -4   3   3   62.95   17.91
  -4   3   3   60.19   13.17
   4  -3  -3   94.56   25.26
   4  -3  -3   38.45   21.14
   4  -3  -3   47.20   13.18
   4  -3  -3   56.69   13.12
  -4   3   4  147.85   38.15
  -4   3   4  158.17   32.93
   4  -3  -4  239.93   47.00
   4  -3  -4  173.44   41.78
   4  -3  -4  111.90   32.62
   4  -3  -4  133.61   32.66
  -4   3   5   30.46   12.75
   4  -3  -5   53.82   20.00
   4  -3  -5   31.82    8.17
   4  -3  -5   21.97    7.22
   4  -3  -6  455.12   83.11
   4  -3  -6  214.74   67.57
   4  -3  -6  326.15   67.75
  -4   3   7   60.36   17.27
   4  -3  -7   84.37   26.20
   4  -3  -7   22.79   11.22
   4  -3  -7   38.79   10.97
  -4   3   8    3.33    9.62
   4  -3  -8    1.72   14.18
  -4   3   9    1.88   21.02
   4  -3  -9  183.91   38.31
  -4   3  10    0.37   32.03
   4  -3 -10  347.89   54.22
  -4   3  11   -3.83   11.51
   4  -3 -11   58.78   27.38
   4  -3 -12   17.44   23.50
  -4   4   1  229.27   61.81
  -4   4   1  350.12   60.11
  -4   4   1  319.00   54.25
   4  -4  -1  276.60   62.80
   4  -4  -1  235.97   66.95
   4  -4  -1  256.33   59.86
   4  -4  -1  227.72   53.70
   4  -4  -1  224.87   53.68
  -4   4   2  223.38   65.04
  -4   4   2  288.83   59.47
   4  -4  -2  373.80   69.36
   4  -4  -2  266.55   59.28
   4  -4  -2  250.54   59.34
  -4   4   3    7.46    7.72
  -4   4   3    9.83    6.96
   4  -4  -3    9.81   10.27
   4  -4  -3    3.21   13.16
   4  -4  -3   13.14    5.84
   4  -4  -3    5.13    3.17
  -4   4   4   84.13   27.97
  -4   4   4   90.93   23.71
   4  -4  -4  175.37   37.66
   4  -4  -4   99.83   23.62
   4  -4  -4  103.99   23.60
  -4   4   5  132.78   31.98
  -4   4   5   97.15   27.46
   4  -4  -5  166.89   42.28
   4  -4  -5  115.16   27.18
  -4   4   6  432.90  108.65
   4  -4  -6  628.84  114.07
   4  -4  -6  417.73  101.96
  -4   4   7  220.68   52.64
   4  -4  -7  220.02   63.53
  -4   4   8   18.33   12.84
   4  -4  -8   21.80   17.56
   4  -4  -8    4.38   10.23
  -4   4   9   -1.83   18.24
   4  -4  -9  164.94   35.53
  -4   4  10    1.98   25.80
   4  -4 -10  256.54   46.11
  -4   4  11    6.07   13.29
   4  -4 -11   52.05   26.37
   4  -4 -12   15.55   22.59
  -4   5   1 1091.57  175.00
  -4   5   1  713.39  165.62
   4  -5  -1  872.77  163.51
   4  -5  -1  826.84  165.59
   4  -5  -1  603.36  165.44
  -4   5   2  176.39   43.23
  -4   5   2  145.87   37.71
   4  -5  -2  224.60   49.20
   4  -5  -2  207.80   37.87
   4  -5  -2  143.05   37.55
  -4   5   3   24.46    8.81
   4  -5  -3   51.14   18.06
   4  -5  -3   34.58    9.12
   4  -5  -3   21.84    7.12
  -4   5   4   88.24   32.82
   4  -5  -4  189.57   42.13
   4  -5  -4  113.67   28.15
  -4   5   5   76.54   26.34
   4  -5  -5  137.70   37.49
   4  -5  -5   96.05   22.30
  -4   5   6  254.85   68.42
   4  -5  -6  352.32   77.65
   4  -5  -6  293.63   62.99
  -4   5   7   83.26   23.79
   4  -5  -7   64.52   33.16
   4  -5  -7   86.45   20.12
  -4   5   8  170.72   35.11
   4  -5  -8  128.97   47.82
   4  -5  -8   95.30   29.52
  -4   5   9   41.14   18.20
   4  -5  -9   97.69   33.43
   4  -5  -9   33.34   18.18
  -4   5  10   -4.04   23.10
   4  -5 -10  223.10   42.26
  -4   5  11   -1.27    9.28
   4  -5 -11   16.02   19.57
   4  -5 -12   12.51   21.48
  -4   6   1  438.39  104.80
   4  -6  -1  559.75  103.04
   4  -6  -1  359.27   97.43
  -4   6   2  231.66   52.56
   4  -6  -2  267.28   57.70
   4  -6  -2  159.59   46.38
  -4   6   3    9.06    8.62
   4  -6  -3   12.07   12.51
   4  -6  -3    8.05    5.78
  -4   6   4    9.95   11.34
   4  -6  -4   17.11   13.48
   4  -6  -4   14.06    7.45
  -4   6   5  861.04  253.60
   4  -6  -5 1484.06  239.16
   4  -6  -5 1126.02  243.58
  -4   6   6   12.25   10.61
   4  -6  -6   17.29   15.28
   4  -6  -6   20.17   11.67
  -4   6   7   68.17   19.59
   4  -6  -7   48.01   28.96
   4  -6  -7   65.09   16.44
  -4   6   8  108.77   27.11
   4  -6  -8  102.28   40.90
   4  -6  -8   87.83   25.02
  -4   6   9  458.78   79.05
   4  -6  -9  437.58   92.87
   4  -6  -9  146.66   72.45
  -4   6  10    3.35   16.06
   4  -6 -10   73.77   27.85
  -4   6  11    3.08   11.88
   4  -6 -11    3.70   23.04
   4  -6 -12   -1.74   15.46
  -4   7   1    2.95    9.68
   4  -7  -1    2.95    9.19
   4  -7  -1    3.12    4.91
  -4   7   2  525.17  109.86
   4  -7  -2  547.47  108.79
   4  -7  -2  389.12  102.15
  -4   7   3  184.63   53.62
   4  -7  -3  305.53   60.74
   4  -7  -3  173.98   47.76
  -4   7   4  182.65   59.81
   4  -7  -4  328.19   67.54
   4  -7  -4  249.62   54.38
  -4   7   5   76.02   23.15
   4  -7  -5  100.81   32.82
   4  -7  -5   71.59   17.96
  -4   7   6   95.75   36.39
   4  -7  -6  184.95   48.33
   4  -7  -6  166.05   32.38
  -4   7   7   11.21   10.84
   4  -7  -7   11.25   17.02
   4  -7  -7   19.65    9.89
  -4   7   8  130.58   31.91
   4  -7  -8  110.78   45.80
   4  -7  -8  126.42   28.27
  -4   7   9  149.80   39.17
   4  -7  -9  168.55   56.69
  -4   7  10    5.18   19.74
   4  -7 -10  143.25   36.22
  -4   7  11    1.18   11.51
  -4   8   1  301.21   56.28
   4  -8  -1  277.77   59.75
   4  -8  -1  127.22   48.72
  -4   8   2   15.48   11.49
   4  -8  -2   15.21   14.09
   4  -8  -2   12.01    5.63
  -4   8   3    4.43   11.39
   4  -8  -3    1.59   10.27
   4  -8  -3    2.69    5.44
  -4   8   4  379.36  111.85
   4  -8  -4  645.10  114.74
   4  -8  -4  452.35  104.93
  -4   8   5  111.39   34.74
   4  -8  -5  171.28   47.25
   4  -8  -5  131.66   29.57
  -4   8   6   75.01   25.36
   4  -8  -6  101.49   39.37
   4  -8  -6   90.78   20.94
  -4   8   7    7.37   11.28
   4  -8  -7   28.99   26.01
   4  -8  -7   21.14   10.59
  -4   8   8  219.20   51.15
   4  -8  -8  217.77   68.96
   4  -8  -8  204.45   46.33
  -4   8   9  226.58   53.97
  -4   8  10   12.22   10.85
   4  -8 -10    5.09   25.69
  -4   8  11   -4.92    9.47
  -4   9   1  308.36   67.57
   4  -9  -1  322.87   70.92
   4  -9  -1  224.04   60.10
  -4   9   2   17.16   11.80
   4  -9  -2   13.57   14.21
   4  -9  -2   13.86    6.00
  -4   9   3  484.87   90.81
   4  -9  -3  474.45   94.21
   4  -9  -3  238.32   82.93
  -4   9   4  221.94   61.08
   4  -9  -4  287.98   69.73
   4  -9  -4  266.60   55.12
  -4   9   5   15.12   12.51
   4  -9  -5   38.35   25.44
   4  -9  -5   21.66    7.65
  -4   9   6   75.59   24.87
   4  -9  -6   64.74   37.62
   4  -9  -6  112.49   20.85
  -4   9   7  119.06   33.90
   4  -9  -7  157.43   51.15
   4  -9  -7  116.38   29.08
  -4   9   8  209.28   49.01
   4  -9  -8  187.91   66.05
  -4   9   9  108.36   31.43
   4  -9  -9  137.28   54.95
  -4   9  10   -3.95   10.33
   4  -9 -10    1.87   24.00
  -4   9  11    2.68   12.22
  -4  10   1   17.74   13.07
   4 -10  -1   13.40   14.43
   4 -10  -1   13.75    7.17
  -4  10   2    4.25   13.35
   4 -10  -2    5.56   14.94
   4 -10  -2    4.66    5.64
  -4  10   3   94.19   29.17
   4 -10  -3  129.32   39.00
   4 -10  -3   90.45   22.94
  -4  10   4   97.67   27.70
   4 -10  -4  117.14   40.22
   4 -10  -4   84.66   22.11
  -4  10   5  107.78   34.82
   4 -10  -5  157.80   48.03
  -4  10   6    1.55    9.93
   4 -10  -6   10.14   25.07
  -4  10   7   16.58   11.71
   4 -10  -7   15.94   30.52
  -4  10   8  170.72   37.65
   4 -10  -8  113.29   57.16
  -4  10   9  141.44   34.82
   4 -10  -9   89.24   55.83
  -4  10  10    7.22   17.03
  -4  11   1   11.31   13.28
   4 -11  -1    9.99   18.05
  -4  11   2  164.70   33.82
   4 -11  -2   94.12   43.12
  -4  11   3  140.11   30.96
   4 -11  -3   87.75   42.78
  -4  11   4   81.29   20.49
   4 -11  -4   39.19   35.88
  -4  11   5   38.49   15.94
  -4  11   6   18.66   12.12
   4 -11  -6   11.78   31.70
  -4  11   7  235.56   56.22
  -4  11   8   79.37   26.02
  -4  11   9   24.84   15.09
  -4  12   1   66.63   26.45
  -4  12   2   91.70   28.57
  -4  12   3  148.89   39.53
  -4  12   4  177.37   46.80
  -4  12   5   10.98   15.84
  -4  12   6    0.77   14.66
  -4  12   7  108.73   31.27
   3   9  -3   37.69   39.34
   3   9  -4   -6.71   23.25
   3   8  -1  289.94   82.07
   3   8  -1  258.42   68.84
   3   8  -2   87.82   46.62
  -3  -8   5   44.19   26.94
   3   8  -5    5.88   32.87
   3   8  -6   -3.91   28.68
  -3  -7   1   66.30   25.84
   3   7  -1   95.35   36.51
   3   7  -1   79.32   28.44
  -3  -7   2   45.55   21.80
   3   7  -2   70.03   24.18
   3   7  -3   17.47   25.99
   3   7  -4    8.16   28.33
  -3  -7   5   93.65   28.94
   3   7  -5   34.49   45.17
  -3  -7   6   18.14   21.72
   3   7  -7    7.69   24.17
  -3  -6   1   51.45   21.44
   3   6  -1   80.88   28.32
   3   6  -1   50.39   23.53
  -3  -6   2  228.74   55.82
   3   6  -2  214.37   67.47
   3   6  -2  226.23   57.91
  -3  -6   3  409.72   94.79
   3   6  -3  490.62  110.27
  -3  -6   4   21.78   15.22
   3   6  -4   21.15   25.93
  -3  -6   5  276.93   65.24
   3   6  -5  258.38   84.93
   3   6  -6   38.81   36.74
   3   6  -7   -5.27   22.81
  -3  -6   8   -5.09   18.13
   3   6  -9   -1.15   28.11
  -3  -5   1  153.45   45.50
   3   5  -1  261.45   52.31
   3   5  -1  144.12   47.52
  -3  -5   2  169.28   44.30
   3   5  -2  165.02   45.89
  -3  -5   3   23.16   12.81
   3   5  -3   18.37   17.88
  -3  -5   4  618.40  142.68
   3   5  -4  677.01  150.18
  -3  -5   5  136.06   36.89
  -3  -5   5  105.66   36.08
   3   5  -5  181.47   53.99
  -3  -5   6   23.57   17.16
   3   5  -6   32.56   28.28
  -3  -5   7    4.72   17.01
   3   5  -7    3.14   25.92
  -3  -5   8    4.88   16.24
   3   5  -8    0.28   21.16
  -3  -5   9    0.47   21.01
   3   5  -9    0.53   22.11
   3   5 -10    3.13   27.98
  -3  -4   1  296.77   72.68
   3   4  -1  419.41   77.97
   3   4  -1  264.15   74.66
  -3  -4   2    0.96    5.93
   3   4  -2    8.33    9.96
   3   4  -2    2.12    6.63
  -3  -4   3   21.52   14.33
  -3  -4   3   30.88   10.73
  -3  -4   3   30.04   11.80
   3   4  -3   33.95   19.44
  -3  -4   4   45.66   19.00
  -3  -4   4   55.87   16.19
  -3  -4   4   42.64   17.03
   3   4  -4   34.89   25.17
  -3  -4   5  568.45  111.08
  -3  -4   5  480.27  111.41
   3   4  -5  416.29  120.48
  -3  -4   6   70.85   23.70
   3   4  -6   56.15   36.68
  -3  -4   7   35.23   19.03
   3   4  -7   29.36   29.63
  -3  -4   8    5.32   49.18
   3   4  -8  468.97   73.76
  -3  -4   9   -3.48   13.49
  -3  -4  10   -1.83   15.09
   3   4 -10    0.29   17.09
  -3  -3   1   36.55   16.78
   3   3  -1   48.63   18.98
   3   3  -1   34.92   17.84
  -3  -3   2   13.65   10.12
   3   3  -2   24.23   12.72
   3   3  -2   11.18   10.66
  -3  -3   3  608.01  140.39
   3   3  -3  811.71  148.99
  -3  -3   4  352.21   85.49
  -3  -3   4  306.39   87.69
   3   3  -4  497.83   95.59
  -3  -3   5   69.98   26.60
  -3  -3   5  130.03   23.67
  -3  -3   5   41.06   24.75
  -3  -3   6    0.83   13.10
  -3  -3   6    1.11   12.47
   3   3  -6    1.74   10.12
  -3  -3   7   45.59   18.84
   3   3  -7   33.83   28.81
  -3  -3   8  150.12   34.02
   3   3  -8   79.57   50.30
  -3  -3   9    1.37   12.05
  -3  -3  10    3.38   14.74
   3   3 -10   37.34   28.46
   3   3 -11    3.70   22.51
  -3  -2   1  290.67   75.06
   3   2  -1  366.98   77.83
   3   2  -1  347.68   77.07
  -3  -2   2    6.97    7.29
  -3  -2   2    9.60    5.69
   3   2  -2   11.51    9.04
   3   2  -2    5.07    7.74
  -3  -2   3  327.40   80.67
   3   2  -3  414.19   87.02
  -3  -2   4 1101.15  230.02
  -3  -2   4 1326.81  252.37
  -3  -2   4 1049.34  254.57
  -3  -2   5    3.21    5.92
  -3  -2   5    1.90    8.14
  -3  -2   5    5.08   12.03
   3   2  -5    2.38    9.44
  -3  -2   6    5.03   10.56
  -3  -2   6   -2.83   13.90
   3   2  -6    3.48   10.06
  -3  -2   7  569.02  109.57
   3   2  -7  378.09  120.37
  -3  -2   8   54.33   20.97
   3   2  -8   45.60   33.23
  -3  -2   9   38.05   16.35
   3   2  -9   31.12   29.07
  -3  -2  10    7.45   13.08
   3   2 -11   33.40   32.31
   3   2 -12   40.79   36.13
  -3  -1   1  331.80   65.89
  -3  -1   1  188.28   63.66
  -3  -1   1  337.65   66.28
   3   1  -1  268.09   67.19
   3   1  -1  272.62   67.74
   3   1  -1  303.35   65.90
  -3  -1   2  125.52   36.31
  -3  -1   2  119.68   31.01
  -3  -1   2  138.84   34.37
   3   1  -2  166.44   39.26
   3   1  -2  103.25   37.24
   3   1  -2  150.93   34.15
  -3  -1   3   21.65   12.99
  -3  -1   3   22.08    8.93
  -3  -1   3   27.35   14.55
   3   1  -3   30.83   15.99
  -3  -1   4  472.66  112.48
  -3  -1   4  512.98  116.87
  -3  -1   4  449.95  119.88
   3   1  -4  696.27  120.31
   3   1  -4  469.73  120.32
  -3  -1   5  140.46   43.90
  -3  -1   5  172.61   40.09
  -3  -1   5  172.20   44.15
   3   1  -5  214.72   51.82
   3   1  -5  153.06   44.23
  -3  -1   6   76.48   30.94
  -3  -1   6  124.80   27.33
  -3  -1   6  104.33   32.13
   3   1  -6   85.80   38.85
   3   1  -6  198.99   34.04
  -3  -1   7 1231.40  289.69
  -3  -1   7  888.36  291.92
   3   1  -7 1713.89  278.35
  -3  -1   8   13.20   13.49
   3   1  -8    6.50   18.73
  -3  -1   9  159.13   41.70
   3   1  -9  171.89   59.89
  -3  -1  10    0.38   11.52
   3   1 -10    8.51   20.52
  -3  -1  11   -0.80   12.24
   3   1 -11   58.25   29.85
   3   1 -12   75.28   47.10
  -3   0   1   66.02   26.73
  -3   0   1   66.90   21.22
  -3   0   1  101.90   17.35
   3   0  -1  110.50   27.78
   3   0  -1   65.16   28.40
   3   0  -1   98.97   22.66
   3   0  -1   84.01   17.21
   3   0  -1   89.58   17.25
  -3   0   2  424.33   98.27
  -3   0   2  481.02  100.92
  -3   0   2  615.62  103.67
  -3   0   2  471.77   94.46
   3   0  -2  470.43  101.26
   3   0  -2  415.60   99.86
   3   0  -2  479.13  102.92
   3   0  -2  437.79   94.61
  -3   0   3 1306.28  297.15
  -3   0   3 1247.11  329.82
  -3   0   3 1810.59  332.96
   3   0  -3 2048.77  302.67
   3   0  -3 1324.67  332.30
  -3   0   4   98.92   31.25
  -3   0   4   76.30   25.77
  -3   0   4  122.63   30.45
   3   0  -4  135.49   36.39
   3   0  -4   89.60   30.09
  -3   0   5    2.10    4.76
  -3   0   5   -0.53    5.34
  -3   0   5    0.75   13.96
   3   0  -5    0.95    8.52
   3   0  -5    0.05   13.24
  -3   0   6  251.39   57.57
   3   0  -6  216.72   69.11
   3   0  -6  306.97   62.64
  -3   0   7  199.06   42.54
  -3   0   7  139.06   47.10
   3   0  -7  142.77   55.43
   3   0  -7  202.55   48.50
  -3   0   8  569.96  128.43
   3   0  -8  579.11  137.69
  -3   0   9    2.76   10.50
   3   0  -9    3.12   16.13
  -3   0  10    2.29    8.81
   3   0 -10    8.12   17.84
  -3   0  11    4.63   26.37
   3   0 -11  249.39   52.68
  -3   0  12   -1.10   11.17
   3   0 -12   41.29   27.41
   3   0 -13   -3.20   16.91
  -3   1   1   14.86    9.98
  -3   1   1   18.32    6.82
  -3   1   1   12.43    3.55
   3  -1  -1   15.74   10.49
   3  -1  -1   13.05   11.01
   3  -1  -1   21.57    7.54
   3  -1  -1   15.95    3.30
   3  -1  -1   15.53    3.20
  -3   1   2  254.47   66.19
  -3   1   2  342.38   64.79
  -3   1   2  317.08   59.29
   3  -1  -2  329.48   68.82
   3  -1  -2  286.03   68.07
   3  -1  -2  194.57   65.67
   3  -1  -2  240.16   59.22
   3  -1  -2  295.97   59.39
  -3   1   3  742.11  152.20
  -3   1   3  643.67  162.70
  -3   1   3  851.73  154.84
   3  -1  -3  886.60  156.64
   3  -1  -3  781.97  164.83
   3  -1  -3  567.07  154.80
   3  -1  -3  748.70  155.00
  -3   1   4  764.99  165.92
  -3   1   4  807.39  178.52
  -3   1   4 1035.97  181.81
   3  -1  -4  820.65  172.10
   3  -1  -4  860.19  181.16
   3  -1  -4  673.60  169.95
   3  -1  -4  903.16  170.14
  -3   1   5    9.12    8.11
  -3   1   5    5.59    6.61
  -3   1   5    8.52   13.74
   3  -1  -5    8.44   13.61
   3  -1  -5    6.22    3.55
   3  -1  -5   13.33    2.45
  -3   1   6 1411.17  347.82
  -3   1   6 2006.61  388.55
  -3   1   6 1860.56  391.86
   3  -1  -6 2642.87  359.66
   3  -1  -6 2752.92  393.10
   3  -1  -6 1029.65  374.07
   3  -1  -6 1951.31  374.32
  -3   1   7   37.48   12.06
  -3   1   7   37.55   18.88
   3  -1  -7   32.86   21.40
   3  -1  -7   31.36   20.41
   3  -1  -7   12.75    6.65
   3  -1  -7   32.77    6.45
  -3   1   8   26.27   10.68
   3  -1  -8   38.55   20.27
   3  -1  -8    7.82    6.26
   3  -1  -8    9.26    4.46
  -3   1   9   86.95   21.48
  -3   1   9   64.08   13.19
   3  -1  -9   85.57   34.80
   3  -1  -9   20.95   14.57
  -3   1  10   56.13   15.50
  -3   1  10   33.10    9.12
   3  -1 -10   45.36   29.76
  -3   1  11    0.46   32.38
   3  -1 -11  351.48   59.53
  -3   1  12   -3.11    9.35
   3  -1 -12   14.16   22.83
  -3   1  13   -0.68    9.81
   3  -1 -13    7.46   18.84
  -3   2   1    0.89    4.38
  -3   2   1    3.72    4.45
  -3   2   1    0.96    2.75
   3  -2  -1    1.31    3.85
   3  -2  -1    1.58    5.41
   3  -2  -1    3.30    4.55
   3  -2  -1    0.48    2.04
   3  -2  -1    1.60    1.85
  -3   2   2  698.11  157.04
  -3   2   2  912.38  168.95
  -3   2   2  867.62  160.83
   3  -2  -2  763.20  159.03
   3  -2  -2  683.01  159.49
   3  -2  -2  929.01  169.87
   3  -2  -2  621.67  160.75
   3  -2  -2  834.65  160.96
  -3   2   3  497.73  105.99
  -3   2   3  569.96  110.03
  -3   2   3  524.26  103.28
   3  -2  -3  640.93  110.02
   3  -2  -3  389.32  107.44
   3  -2  -3  445.19  111.26
   3  -2  -3  436.72  103.29
   3  -2  -3  482.59  103.44
  -3   2   4  117.29   37.70
  -3   2   4  136.02   33.12
  -3   2   4  152.31   28.57
   3  -2  -4  160.69   42.14
   3  -2  -4  115.74   34.78
   3  -2  -4  136.63   28.45
   3  -2  -4  140.18   28.39
  -3   2   5  257.82   74.40
  -3   2   5  375.57   74.02
   3  -2  -5  434.63   81.78
   3  -2  -5  274.81   76.39
   3  -2  -5  260.41   67.82
   3  -2  -5  365.29   68.00
  -3   2   6  389.63  110.09
  -3   2   6  404.49  114.19
  -3   2   6  398.82  117.53
   3  -2  -6  762.47  120.33
   3  -2  -6  590.46  118.10
   3  -2  -6  449.35  107.28
   3  -2  -6  635.58  107.49
  -3   2   7  103.79   33.09
   3  -2  -7   97.27   39.25
   3  -2  -7   87.02   32.88
   3  -2  -7   88.59   21.32
   3  -2  -7  111.52   20.87
  -3   2   8  541.46  106.93
  -3   2   8  505.13   99.47
   3  -2  -8  706.94  117.90
   3  -2  -8  303.49   99.41
   3  -2  -8  411.40   99.33
  -3   2   9   96.82   23.57
  -3   2   9   90.27   17.44
   3  -2  -9  103.28   39.17
   3  -2  -9   27.86   18.86
   3  -2  -9   86.91   17.76
  -3   2  10  218.98   43.67
  -3   2  10  195.58   37.48
   3  -2 -10  217.57   62.43
   3  -2 -10   74.27   39.12
  -3   2  11  240.61   48.94
  -3   2  11  218.76   42.15
   3  -2 -11  222.04   70.02
   3  -2 -11   96.14   43.13
  -3   2  12    1.52   16.06
   3  -2 -12  140.75   38.92
  -3   2  13    0.62   11.27
  -3   3   1  538.31  119.21
  -3   3   1  532.85  125.48
  -3   3   1  614.99  118.53
   3  -3  -1  506.02  120.20
   3  -3  -1  667.61  123.25
   3  -3  -1  654.50  125.74
   3  -3  -1  426.84  118.41
   3  -3  -1  631.98  118.64
  -3   3   2  204.12   56.99
  -3   3   2  210.55   54.57
  -3   3   2  276.83   49.62
   3  -3  -2  261.95   58.80
   3  -3  -2  213.30   59.55
   3  -3  -2  257.17   55.21
   3  -3  -2  240.75   49.49
   3  -3  -2  253.80   49.60
  -3   3   3  498.80  113.49
  -3   3   3  502.19  118.69
  -3   3   3  532.38  111.95
   3  -3  -3  676.84  117.50
   3  -3  -3  541.53  115.70
   3  -3  -3  502.31  119.70
   3  -3  -3  520.68  111.93
   3  -3  -3  512.60  112.04
  -3   3   4   28.75   14.13
  -3   3   4   26.15    6.16
   3  -3  -4   36.54   16.85
   3  -3  -4   19.15    6.22
   3  -3  -4   32.19    6.31
  -3   3   5  132.86   46.06
  -3   3   5  195.51   42.32
  -3   3   5  185.41   37.25
   3  -3  -5  239.07   52.39
   3  -3  -5  179.11   44.65
   3  -3  -5  170.53   37.26
   3  -3  -5  186.24   37.30
  -3   3   6  326.79   86.69
  -3   3   6  452.76   87.96
  -3   3   6  392.27   91.22
   3  -3  -6  463.13   95.66
   3  -3  -6  333.37   90.47
   3  -3  -6  333.55   81.36
   3  -3  -6  432.78   81.51
  -3   3   7   66.31   30.59
  -3   3   7   73.37   25.34
  -3   3   7   72.12   29.52
  -3   3   7  127.28   21.01
   3  -3  -7   68.66   38.08
   3  -3  -7   84.28   29.34
   3  -3  -7  120.91   21.48
   3  -3  -7  127.94   21.04
  -3   3   8  103.60   30.76
  -3   3   8  140.63   25.72
   3  -3  -8   79.68   46.22
   3  -3  -8  119.97   26.76
   3  -3  -8  128.25   25.62
  -3   3   9    3.49   10.36
  -3   3   9    2.85    4.29
   3  -3  -9    1.43   15.39
   3  -3  -9    3.68   11.21
   3  -3  -9    4.03    5.78
  -3   3  10  342.19   70.71
  -3   3  10  311.00   63.62
   3  -3 -10  326.41   88.51
   3  -3 -10  231.41   64.84
  -3   3  11   83.08   21.84
  -3   3  11   73.50   15.86
   3  -3 -11   69.60   38.48
   3  -3 -11   46.05   22.34
  -3   3  12    7.84   11.69
   3  -3 -12   31.26   26.63
  -3   3  13    1.75    9.01
   3  -3 -13   12.96   25.10
   3  -3 -14    8.86   22.36
  -3   4   1 1117.64  237.91
  -3   4   1  835.87  261.93
  -3   4   1 1203.30  251.70
   3  -4  -1 1232.12  239.00
   3  -4  -1 1341.47  242.87
   3  -4  -1 1208.75  251.74
   3  -4  -1 1347.98  251.85
  -3   4   2  878.85  190.68
  -3   4   2  706.99  207.52
  -3   4   2 1011.22  198.74
   3  -4  -2  925.43  192.64
   3  -4  -2 1012.22  194.48
   3  -4  -2 1083.92  208.28
   3  -4  -2  962.46  198.73
   3  -4  -2 1025.06  198.85
  -3   4   3  320.11   78.59
  -3   4   3  394.95   79.11
  -3   4   3  327.56   73.14
   3  -4  -3  422.91   82.26
   3  -4  -3  331.38   81.11
   3  -4  -3  395.52   79.93
   3  -4  -3  362.89   73.20
   3  -4  -3  309.68   73.20
  -3   4   4  164.33   49.03
  -3   4   4  215.11   45.68
  -3   4   4  211.89   40.68
   3  -4  -4  267.27   53.78
   3  -4  -4  186.77   50.78
   3  -4  -4  184.71   46.80
   3  -4  -4  168.09   40.53
   3  -4  -4  188.49   40.70
  -3   4   5  641.77  143.18
  -3   4   5  630.83  152.55
  -3   4   5  691.40  144.88
   3  -4  -5 1029.19  151.05
   3  -4  -5  431.05  153.86
   3  -4  -5  686.88  144.87
   3  -4  -5  678.84  144.98
  -3   4   6  157.70   54.58
  -3   4   6  241.45   51.73
  -3   4   6  245.27   55.28
  -3   4   6  228.96   46.43
   3  -4  -6  313.09   62.88
   3  -4  -6  223.56   54.32
   3  -4  -6  250.53   46.64
   3  -4  -6  208.12   46.34
  -3   4   7  266.75   65.06
  -3   4   7  274.09   68.64
  -3   4   7  297.69   59.33
   3  -4  -7  285.53   76.44
   3  -4  -7  210.30   67.61
   3  -4  -7  321.09   59.59
   3  -4  -7  274.41   59.22
  -3   4   8    5.78    8.60
  -3   4   8   15.02    4.94
   3  -4  -8   13.06   17.00
   3  -4  -8   10.97    9.96
   3  -4  -8   13.15    5.21
  -3   4   9  107.38   29.79
  -3   4   9  120.45   23.84
   3  -4  -9  153.92   47.02
   3  -4  -9   73.19   26.39
  -3   4  10  439.20  107.34
  -3   4  10  539.48  100.36
   3  -4 -10  380.17  121.86
   3  -4 -10  436.54  101.00
  -3   4  11  158.08   33.11
  -3   4  11  121.44   27.15
   3  -4 -11  130.00   52.13
   3  -4 -11   99.35   31.93
  -3   4  12   17.84   14.14
  -3   4  13    0.84   13.09
   3  -4 -13   85.27   33.48
   3  -4 -14   23.70   28.40
  -3   5   1  519.29  126.85
  -3   5   1  478.38  133.85
  -3   5   1  639.81  126.69
   3  -5  -1  568.62  127.67
   3  -5  -1  802.34  132.64
   3  -5  -1  485.88  133.76
   3  -5  -1  660.60  126.73
   3  -5  -1  672.26  126.79
  -3   5   2  122.82   37.73
  -3   5   2  111.32   33.18
  -3   5   2  159.75   28.88
   3  -5  -2  128.69   39.14
   3  -5  -2  144.96   41.04
   3  -5  -2  161.59   28.83
   3  -5  -2  140.75   28.74
  -3   5   3  294.65   78.48
  -3   5   3  337.67   72.87
   3  -5  -3  383.46   81.98
   3  -5  -3  366.46   81.61
   3  -5  -3  306.16   79.17
   3  -5  -3  369.12   72.92
   3  -5  -3  350.17   72.94
  -3   5   4    2.24    5.46
  -3   5   4    4.35    5.52
  -3   5   4    5.59    3.69
   3  -5  -4    5.54    8.06
   3  -5  -4    3.93    6.87
   3  -5  -4    6.22    6.70
   3  -5  -4    2.05    4.00
   3  -5  -4    2.70    2.48
  -3   5   5  338.27   79.42
  -3   5   5  400.51   79.77
  -3   5   5  347.27   73.78
   3  -5  -5  492.41   86.46
   3  -5  -5  230.86   81.04
   3  -5  -5  254.14   80.76
   3  -5  -5  383.07   73.82
   3  -5  -5  384.62   73.89
  -3   5   6  118.29   40.50
  -3   5   6  162.72   36.55
  -3   5   6  171.76   31.69
   3  -5  -6  235.20   48.72
   3  -5  -6  114.11   38.81
   3  -5  -6  152.76   31.41
   3  -5  -6  132.49   31.31
  -3   5   7  743.61  171.07
  -3   5   7  841.15  162.93
   3  -5  -7  889.08  163.19
   3  -5  -7  672.04  162.81
  -3   5   8  273.60   65.47
  -3   5   8  333.74   59.81
   3  -5  -8  241.76   78.92
   3  -5  -8  338.53   60.66
   3  -5  -8  225.56   59.59
  -3   5   9   14.63   10.50
  -3   5   9   12.19    4.67
   3  -5  -9   11.33   18.62
   3  -5  -9    8.35   10.68
  -3   5  10  298.73   79.38
  -3   5  10  386.53   72.99
   3  -5 -10  426.84   96.63
   3  -5 -10  257.14   73.72
  -3   5  11  106.79   19.49
  -3   5  11    1.22   11.34
   3  -5 -11   82.02   35.33
   3  -5 -11   82.06   19.19
  -3   5  12   35.88   14.81
   3  -5 -12   30.36   31.21
  -3   5  13   42.36   18.65
   3  -5 -13   50.76   37.10
  -3   5  14   -1.24   10.79
   3  -5 -14   27.63   27.00
  -3   6   1  693.34  164.95
  -3   6   1  956.99  177.63
  -3   6   1  820.75  168.84
   3  -6  -1  992.38  165.76
   3  -6  -1  941.22  171.74
   3  -6  -1  512.92  176.83
   3  -6  -1  757.09  168.77
   3  -6  -1  770.93  168.84
  -3   6   2  273.04   63.27
  -3   6   2  193.52   60.85
  -3   6   2  270.10   55.73
   3  -6  -2  317.90   64.73
   3  -6  -2  257.15   67.55
   3  -6  -2  237.73   61.22
   3  -6  -2  293.61   55.77
   3  -6  -2  251.83   55.67
  -3   6   3  116.67   36.47
  -3   6   3   92.21   31.60
  -3   6   3  116.71   27.30
   3  -6  -3  184.85   39.60
   3  -6  -3  102.78   39.44
   3  -6  -3  156.61   32.71
   3  -6  -3  148.37   27.47
   3  -6  -3  128.04   27.29
  -3   6   4   57.74   19.90
  -3   6   4   55.58   15.18
  -3   6   4   51.02   11.51
   3  -6  -4   44.18   21.58
   3  -6  -4   48.98   18.65
   3  -6  -4   46.01   11.04
   3  -6  -4   51.60   10.96
  -3   6   5 1133.36  251.32
  -3   6   5 1382.47  277.39
  -3   6   5 1274.94  266.54
   3  -6  -5 1807.72  259.72
   3  -6  -5 1035.40  254.01
   3  -6  -5 1159.42  278.66
   3  -6  -5 1456.95  266.64
   3  -6  -5 1190.97  266.56
  -3   6   6   99.88   34.00
  -3   6   6  155.13   29.60
  -3   6   6  128.66   25.01
   3  -6  -6  182.07   41.99
   3  -6  -6   80.05   35.45
   3  -6  -6   79.27   31.53
   3  -6  -6  138.68   24.82
   3  -6  -6  106.73   24.54
  -3   6   7    0.66    6.00
  -3   6   7    0.06    4.62
   3  -6  -7   -0.30    7.47
   3  -6  -7    1.26    2.83
  -3   6   8    2.23    6.58
  -3   6   8   -0.59    4.88
   3  -6  -8   -1.54   12.90
   3  -6  -8    2.92    9.17
  -3   6   9  645.18  155.64
  -3   6   9  694.09  147.62
   3  -6  -9  885.21  163.00
   3  -6  -9  668.19  147.90
  -3   6  10  305.16   76.43
  -3   6  10  352.96   70.16
   3  -6 -10  364.53   93.92
   3  -6 -10  300.77   71.20
  -3   6  11   -0.67   10.02
   3  -6 -11   62.70   33.10
   3  -6 -11   33.33   13.36
  -3   6  12   -3.70    9.14
   3  -6 -12    7.04   19.60
  -3   6  13  202.38   44.46
   3  -6 -13  125.42   68.97
  -3   6  14    9.79   14.64
   3  -6 -14   84.05   33.68
  -3   7   1  174.44   46.80
  -3   7   1  221.47   42.57
  -3   7   1  144.96   36.83
   3  -7  -1  216.35   47.01
   3  -7  -1  186.88   52.84
   3  -7  -1  125.03   41.98
   3  -7  -1  192.11   37.01
   3  -7  -1  146.05   36.85
  -3   7   2  234.80   59.49
  -3   7   2  254.37   56.51
  -3   7   2  234.39   51.01
   3  -7  -2  271.35   60.58
   3  -7  -2  234.64   64.70
   3  -7  -2  196.58   56.60
   3  -7  -2  302.62   51.11
   3  -7  -2  219.02   50.94
  -3   7   3    6.64    7.87
  -3   7   3    6.71    7.25
  -3   7   3    4.10    4.47
   3  -7  -3    7.69    8.45
   3  -7  -3    5.99   10.46
   3  -7  -3    8.45    8.52
   3  -7  -3    6.54    4.95
   3  -7  -3    3.64    3.02
  -3   7   4  466.73  100.04
  -3   7   4  437.34   95.01
  -3   7   4  407.96   96.95
   3  -7  -4  415.54   98.75
   3  -7  -4  384.00   98.41
   3  -7  -4  483.74   90.80
   3  -7  -4  428.49   90.72
  -3   7   5   78.08   29.02
  -3   7   5  114.91   24.20
  -3   7   5   83.25   19.83
   3  -7  -5  137.12   34.41
   3  -7  -5   77.00   31.44
   3  -7  -5  100.74   19.65
   3  -7  -5   80.07   19.54
  -3   7   6  811.66  215.25
   3  -7  -6 1246.67  208.39
   3  -7  -6  931.67  206.17
  -3   7   7   22.92    9.44
   3  -7  -7   17.44   16.82
   3  -7  -7   14.22    5.93
  -3   7   8   15.92    9.48
  -3   7   8   19.15    5.68
   3  -7  -8   12.53   19.96
   3  -7  -8   23.82   12.63
  -3   7   9  227.05   60.22
  -3   7   9  244.11   54.37
   3  -7  -9  351.01   77.60
   3  -7  -9  265.27   55.39
  -3   7  10  248.09   37.51
  -3   7  10   42.64   30.24
   3  -7 -10  158.54   55.71
   3  -7 -10  257.24   33.84
  -3   7  11    5.58    8.29
  -3   7  11    1.02    3.68
   3  -7 -11    8.13   21.93
   3  -7 -11    4.16   13.24
  -3   7  12  106.10   26.82
   3  -7 -12   81.24   48.59
  -3   7  13   46.98   15.39
   3  -7 -13   22.77   38.30
  -3   8   1  172.40   54.19
  -3   8   1  251.57   50.04
   3  -8  -1  214.91   53.52
   3  -8  -1  156.69   60.92
   3  -8  -1  251.20   43.95
  -3   8   2  198.62   60.81
  -3   8   2  266.90   57.62
   3  -8  -2  291.02   62.60
   3  -8  -2  204.84   67.09
   3  -8  -2  281.00   52.01
  -3   8   3   52.15   23.95
  -3   8   3   41.04   17.80
   3  -8  -3   84.15   25.81
   3  -8  -3   46.85   27.02
   3  -8  -3   94.74   14.59
  -3   8   4  320.04   87.84
  -3   8   4  469.67   88.69
   3  -8  -4  516.94   93.35
   3  -8  -4  343.97   92.39
   3  -8  -4  361.48   82.05
  -3   8   5  644.95  192.20
   3  -8  -5 1187.51  186.91
   3  -8  -5  808.21  183.68
  -3   8   6   21.22   10.47
   3  -8  -6   13.94   18.07
   3  -8  -6   20.00    6.24
  -3   8   7    4.16    8.61
   3  -8  -7    6.60   15.39
   3  -8  -7    2.06    5.94
  -3   8   8   37.00   13.04
   3  -8  -8   30.09   32.37
   3  -8  -8   38.90   11.81
  -3   8   9  627.03  140.75
  -3   8   9  597.60  132.96
   3  -8  -9  724.16  133.69
  -3   8  10  124.45   21.36
   3  -8 -10  146.12   42.15
   3  -8 -10  128.09   20.25
  -3   8  11    3.03    8.36
   3  -8 -11    7.51   29.54
  -3   8  12  159.82   44.70
   3  -8 -12  235.08   71.01
  -3   8  13  261.57   52.66
   3  -8 -13  102.01   78.57
  -3   9   1  182.03   37.88
   3  -9  -1  147.06   41.69
   3  -9  -1  118.04   30.78
  -3   9   2   16.69   10.83
   3  -9  -2   17.45   14.29
   3  -9  -2   16.34    6.47
  -3   9   3   48.42   17.65
   3  -9  -3   52.38   23.61
  -3   9   4   49.86   22.09
   3  -9  -4  104.27   32.22
   3  -9  -4   71.88   16.61
  -3   9   5  167.77   43.75
   3  -9  -5  231.93   55.55
   3  -9  -5  149.82   38.28
  -3   9   6   23.00   11.73
   3  -9  -6   25.12   23.16
   3  -9  -6   25.34    7.35
  -3   9   7   17.26   12.00
   3  -9  -7   13.51   22.61
   3  -9  -7   14.61    7.09
  -3   9   8  328.97   70.35
   3  -9  -8  280.89   64.52
  -3   9   9  211.04   52.53
   3  -9  -9  228.76   72.23
   3  -9  -9  230.14   47.91
   3  -9 -10  159.23   49.01
   3  -9 -10  232.76   23.77
  -3   9  11   -3.90    9.78
   3  -9 -11    1.58   24.56
  -3   9  12  131.40   38.17
   3  -9 -12  207.49   66.69
  -3   9  13  235.67   56.23
  -3  10   1  595.77  113.50
   3 -10  -1  535.01  111.59
   3 -10  -1  387.68  104.83
  -3  10   2   45.49   18.46
   3 -10  -2   52.14   23.24
   3 -10  -2   47.73   11.73
  -3  10   3  152.59   50.64
   3 -10  -3  234.45   59.80
   3 -10  -3  242.97   45.19
   3 -10  -4  787.01  182.09
  -3  10   4  690.96  172.01
   3 -10  -4  854.14  168.89
  -3  10   5  169.67   37.92
   3 -10  -5  126.75   51.42
   3 -10  -5  158.89   32.51
  -3  10   6   39.81   14.04
   3 -10  -6   33.31   25.82
   3 -10  -6   30.98    9.16
  -3  10   7    8.56   11.54
   3 -10  -7    6.56   27.98
   3 -10  -7    7.77    6.52
  -3  10   8  350.22   76.53
   3 -10  -8  321.43   94.84
   3 -10  -8  319.54   70.11
  -3  10   9  425.43   79.87
   3 -10  -9  216.27   99.68
   3 -10  -9  340.15   73.64
  -3  10  10   -0.62    7.78
   3 -10 -10    1.57   30.71
  -3  10  11   12.33   10.96
   3 -10 -11    4.16   30.64
  -3  10  12   99.80   27.92
   3 -11  -1  290.31   65.51
  -3  11   1  319.33   67.76
   3 -11  -1  264.80   72.10
  -3  11   2  118.60   36.96
   3 -11  -2  164.46   31.20
  -3  11   3   18.69   11.38
   3 -11  -3    6.60   19.39
   3 -11  -3   13.81    7.08
   3 -11  -4  324.40   71.39
  -3  11   4  331.53   72.11
   3 -11  -4  277.42   83.34
  -3  11   5   94.24   28.65
   3 -11  -5  101.88   44.59
   3 -11  -5  125.79   23.53
  -3  11   6    0.57    9.12
   3 -11  -6    0.32   17.64
   3 -11  -6    1.75    5.89
  -3  11   7   86.31   25.87
   3 -11  -7  115.47   49.95
   3 -11  -7   89.20   20.93
  -3  11   8   57.54   18.00
   3 -11  -8   23.45   40.27
  -3  11   9  188.04   40.14
   3 -11  -9  106.25   65.88
  -3  11  10    7.13   12.51
   3 -11 -10    3.44   36.89
  -3  11  11  142.54   38.06
  -3  11  12  352.40   81.10
  -3  12   1   27.16   16.09
   3 -12  -1    7.35   22.27
  -3  12   2   23.77   13.50
   3 -12  -2   16.05   24.03
  -3  12   3  102.88   23.02
   3 -12  -3   28.25   34.23
   3 -12  -3   85.91   16.85
  -3  12   4   56.61   19.98
   3 -12  -4   51.24   13.08
  -3  12   5  162.10   30.69
   3 -12  -5   47.41   45.38
  -3  12   6   15.60   11.57
  -3  12   7  123.85   31.60
   3 -12  -7  111.97   57.21
  -3  12   8  523.33  117.63
  -3  12   9   15.69   11.95
  -3  12  10   -0.54   15.98
  -3  12  11   72.13   25.59
  -3  13   1  239.45   59.44
  -3  13   2   10.65   13.14
  -3  13   3   98.36   28.50
  -3  13   4  201.37   49.65
  -3  13   5   41.50   18.33
  -3  13   6   79.36   23.77
  -3  13   7   43.61   18.19
  -3  13   8  103.29   29.31
  -3  13   9   -1.58   11.98
  -3  14   3   91.33   28.68
  -3  14   4  131.57   36.17
  -3  14   5    2.49   18.23
  -3  14   6   29.55   18.33
  -3  14   7   82.80   27.29
  -2 -12   1   13.54   27.37
   2  12  -1   -8.81   31.00
   2  11  -1   -2.31   26.83
  -2 -11   2   70.09   39.69
  -2 -11   2   62.10   16.67
   2  11  -2   85.03   35.78
  -2 -11   3    2.69   30.34
  -2 -10   1 1073.29  147.78
  -2 -10   1  510.44  132.06
  -2 -10   2  291.56   59.94
  -2 -10   2  179.67   45.22
   2  10  -2  257.34   61.38
  -2 -10   3   18.90    9.80
   2  10  -3   24.39   28.49
  -2 -10   4    1.54   14.55
  -2 -10   4   -2.18   27.93
  -2 -10   4    2.08    8.16
   2  10  -4    2.35   26.21
  -2 -10   5    2.34   27.38
   2  10  -5    7.41   30.10
  -2  -9   1 2010.31  217.00
  -2  -9   1  922.84  209.85
  -2  -9   1  854.42  200.37
  -2  -9   1  816.68  200.35
   2   9  -1 1286.39  214.59
   2   9  -1  909.49  200.38
  -2  -9   2    8.51   20.95
  -2  -9   2    2.75    5.82
  -2  -9   2    0.48    3.31
   2   9  -2    9.61   23.36
   2   9  -2    4.25    6.06
  -2  -9   3  360.21   72.64
  -2  -9   3  241.33   59.01
   2   9  -3  267.85   85.33
   2   9  -3  367.75   71.84
  -2  -9   4   -0.51   20.14
  -2  -9   4    2.87    7.91
   2   9  -4    1.70   24.74
  -2  -9   5   -0.40   23.90
  -2  -9   5   18.44    7.77
   2   9  -5   34.29   31.16
   2   9  -5    9.04   25.75
  -2  -9   6   26.12   18.63
  -2  -9   6   -1.43   21.92
   2   9  -6   -2.22   28.94
   2   9  -6   44.33   31.63
  -2  -8   1  361.98   86.91
  -2  -8   1  765.07   94.17
  -2  -8   1  359.94   88.16
  -2  -8   1  330.80   81.87
  -2  -8   1  376.59   81.97
   2   8  -1  391.87   90.13
   2   8  -1  464.64   82.09
  -2  -8   2   72.77   24.62
  -2  -8   2   60.23   20.24
  -2  -8   2   82.76   15.33
  -2  -8   2   66.74   14.87
   2   8  -2   65.13   26.09
   2   8  -2   81.08   15.47
  -2  -8   3   26.43   15.55
  -2  -8   3   34.27   18.94
  -2  -8   3   26.85   13.29
  -2  -8   3   26.36    7.73
  -2  -8   3   26.35    6.69
   2   8  -3   51.84   29.57
   2   8  -3   49.15   22.51
   2   8  -3   35.74    7.85
  -2  -8   4   -0.30   16.44
  -2  -8   4    2.34    5.81
  -2  -8   4    0.24    2.97
   2   8  -4    4.46   21.26
  -2  -8   5   84.45   30.29
  -2  -8   5   74.11   16.97
   2   8  -5   76.07   41.86
   2   8  -5   52.90   30.17
  -2  -8   6    8.70   25.13
  -2  -8   6   26.00    8.61
   2   8  -6   -3.04   30.02
   2   8  -6   93.85   26.77
  -2  -8   7    0.60   24.40
   2   8  -7   -3.74   35.75
   2   8  -7  175.51   36.30
  -2  -8   8   -0.58   20.18
   2   8  -8   -7.78   22.98
   2   8  -8    3.88   28.62
  -2  -7   1  333.82   78.88
  -2  -7   1  484.20   82.99
  -2  -7   1  360.64   78.93
  -2  -7   1  353.17   73.13
  -2  -7   1  340.84   73.15
   2   7  -1  331.35   80.86
   2   7  -1  444.60   82.83
   2   7  -1  335.80   73.07
  -2  -7   2  136.13   39.78
  -2  -7   2  140.55   39.70
  -2  -7   2  152.00   35.25
  -2  -7   2  141.14   30.17
  -2  -7   2  150.88   30.28
   2   7  -2  125.05   40.04
   2   7  -2  160.21   30.74
  -2  -7   3  101.07   31.19
  -2  -7   3  173.56   32.07
  -2  -7   3   72.72   25.98
  -2  -7   3   96.78   21.13
   2   7  -3  103.51   30.92
   2   7  -3  105.17   21.02
  -2  -7   4    4.00    6.78
  -2  -7   4    5.30   14.20
  -2  -7   4    4.83    9.50
  -2  -7   4    6.03    4.12
  -2  -7   4    2.75    3.57
   2   7  -4   10.41   18.72
   2   7  -4    4.99    6.97
  -2  -7   5  797.69  145.18
  -2  -7   5  742.84  132.38
  -2  -7   5  506.16  132.21
   2   7  -5  523.47  157.11
   2   7  -5  793.64  145.25
   2   7  -5  615.89  132.41
  -2  -7   6   44.46   23.62
  -2  -7   6   24.77    8.17
   2   7  -6   32.26   22.46
   2   7  -7    0.10   59.91
   2   7  -7  335.06   50.89
  -2  -7   8    8.56   18.92
   2   7  -8   12.60   23.82
   2   7  -8   25.54   26.98
  -2  -7   9    1.12   19.86
   2   7  -9    4.21   25.80
   2   7  -9   48.10   29.87
  -2  -6   1   82.08   27.34
  -2  -6   1   76.96   21.71
  -2  -6   1   85.70   17.83
  -2  -6   1   92.90   17.72
   2   6  -1   95.65   36.20
   2   6  -1   79.16   25.94
   2   6  -1   86.69   17.69
  -2  -6   2 1035.64  207.68
  -2  -6   2 1483.49  229.72
  -2  -6   2  961.95  226.16
  -2  -6   2 1054.51  216.77
   2   6  -2  911.63  225.48
   2   6  -2  958.43  229.14
   2   6  -2  999.94  216.61
  -2  -6   3  121.05   32.45
  -2  -6   3   85.26   29.41
  -2  -6   3  131.36   24.13
   2   6  -3  133.58   33.77
   2   6  -3  113.70   23.88
  -2  -6   4    3.12    5.13
  -2  -6   4    1.81    9.19
  -2  -6   4    2.06    2.96
  -2  -6   4    0.09    2.87
   2   6  -4    6.49   13.30
   2   6  -4    0.58    5.64
  -2  -6   5   39.81   20.51
  -2  -6   5   49.67   17.85
  -2  -6   5   56.09   10.21
  -2  -6   5   42.24   10.06
   2   6  -5   76.42   36.47
   2   6  -5   65.94   23.53
   2   6  -5   34.12   11.93
  -2  -6   6  552.35   77.77
  -2  -6   6  347.91   65.10
  -2  -6   6  234.61   64.90
   2   6  -6  450.67   96.18
   2   6  -6  509.77   77.59
   2   6  -6  149.18   65.18
  -2  -6   7   71.26   21.53
  -2  -6   7   19.55    7.76
   2   6  -7   79.28   34.15
  -2  -6   8    1.31   16.71
   2   6  -8   67.98   23.58
  -2  -6   9    2.95   14.05
  -2  -6  10    2.75   14.79
   2   6 -10    2.54   19.42
  -2  -5   1  256.13   63.32
  -2  -5   1  255.17   63.15
  -2  -5   1  168.16   55.69
  -2  -5   1  315.15   55.96
   2   5  -1  355.54   72.34
   2   5  -1  287.10   63.45
  -2  -5   2    4.61    5.78
  -2  -5   2    3.15    6.54
  -2  -5   2    4.71    5.02
  -2  -5   2    3.78    1.67
  -2  -5   2    3.55    1.38
   2   5  -2    5.71    9.44
   2   5  -2    3.45    7.05
  -2  -5   3    4.28    6.31
  -2  -5   3    8.49   10.69
  -2  -5   3    4.52    7.27
  -2  -5   4  592.73  130.53
  -2  -5   4  646.39  139.47
  -2  -5   4  762.44  137.62
   2   5  -4  468.14  147.86
   2   5  -4  613.14  139.65
  -2  -5   5  198.39   53.28
  -2  -5   5  285.67   53.03
  -2  -5   5  228.43   50.51
  -2  -5   5  167.41   43.00
   2   5  -5  251.79   69.38
   2   5  -5  270.41   53.17
  -2  -5   6  236.16   43.64
  -2  -5   6  175.35   41.06
  -2  -5   6  179.60   32.71
   2   5  -6   69.69   59.41
   2   5  -6  294.07   44.62
   2   5  -6   43.63   32.54
  -2  -5   7  100.86   27.97
  -2  -5   7   79.14   15.64
  -2  -5   7   44.68   15.30
   2   5  -7  107.41   43.71
   2   5  -7  131.12   28.90
  -2  -5   8  515.02  133.73
   2   5  -8  468.92  148.38
   2   5  -8  784.43  136.21
  -2  -5   9   30.03   16.80
   2   5  -9  180.20   47.38
   2   5  -9  205.05   32.91
  -2  -5  10   -0.79   15.97
   2   5 -10    2.30   17.44
  -2  -5  11    1.81   22.13
   2   5 -11    5.32   19.70
  -2  -4   1 1429.01  280.00
  -2  -4   1 1014.39  309.91
   2   4  -1 1801.51  287.63
  -2  -4   2   64.39   24.88
  -2  -4   2   75.77   20.84
  -2  -4   2   80.95   19.93
   2   4  -2   81.22   30.80
   2   4  -2   81.75   21.09
  -2  -4   3  151.37   42.01
  -2  -4   3  171.24   38.88
  -2  -4   3  168.10   38.13
   2   4  -3  110.30   50.63
   2   4  -3  197.81   39.31
  -2  -4   4  175.46   49.10
  -2  -4   4  210.41   46.58
  -2  -4   4  198.97   45.96
   2   4  -4  154.29   60.38
   2   4  -4  248.90   47.48
  -2  -4   5  529.36  115.15
  -2  -4   5  570.14  120.99
   2   4  -5  446.59  131.23
   2   4  -5  617.24  121.64
  -2  -4   6   30.46   17.12
  -2  -4   6   57.94   17.25
  -2  -4   6   36.66   16.68
  -2  -4   6   31.56    6.27
  -2  -4   6   21.57    5.95
   2   4  -6   31.10   24.17
   2   4  -6   60.55   18.15
   2   4  -6   13.03    5.89
  -2  -4   7   30.50   14.43
  -2  -4   7   22.33    4.80
  -2  -4   7   17.07    4.05
   2   4  -7   14.66   22.17
   2   4  -7   57.36   16.12
   2   4  -7    5.43    7.87
   2   4  -7    8.83    5.51
  -2  -4   8   17.13   13.70
  -2  -4   8    8.10    3.93
  -2  -4   8    6.96    3.39
   2   4  -8    9.81   20.60
   2   4  -8   17.66   18.18
   2   4  -8    2.17   11.69
  -2  -4   9  112.87   24.78
  -2  -4   9   45.26   13.78
   2   4  -9   81.66   39.31
  -2  -4  10    0.54   11.85
  -2  -4  10    4.70    5.83
   2   4 -10    7.52   23.60
   2   4 -10   -0.38   14.36
  -2  -4  11    2.04   21.76
   2   4 -12   -2.98   12.92
  -2  -3   1 1574.84  322.40
   2   3  -1 1786.63  327.48
  -2  -3   2  522.83  124.73
  -2  -3   2  512.57  131.86
   2   3  -2  769.35  132.07
  -2  -3   3   66.46   21.40
   2   3  -3   83.82   31.83
  -2  -3   4  730.14  147.20
  -2  -3   4  668.75  157.36
   2   3  -4  677.84  159.19
  -2  -3   5  350.23   81.20
  -2  -3   5  364.76   82.07
  -2  -3   6  195.27   49.41
  -2  -3   6  213.29   45.69
  -2  -3   6  125.33   45.79
   2   3  -6  174.75   61.40
  -2  -3   7  241.19   68.14
  -2  -3   7  364.39   66.89
  -2  -3   7  223.99   66.61
  -2  -3   7  305.82   58.01
   2   3  -7  309.60   83.90
   2   3  -7  561.67   68.86
   2   3  -7  133.02   57.74
  -2  -3   8  248.55   47.22
  -2  -3   8  175.57   37.24
   2   3  -8  109.02   64.18
   2   3  -9  352.72   83.28
   2   3  -9   47.40   52.16
   2   3  -9  138.47   52.71
  -2  -3  10   22.00   18.31
  -2  -3  10    6.25    5.45
   2   3 -10   14.45   21.75
   2   3 -10    1.29   13.29
   2   3 -11    4.20   22.23
  -2  -3  12   -5.01   17.14
   2   3 -13   -0.89   18.93
  -2  -2   1  211.29   55.64
   2   2  -1  256.76   58.37
  -2  -2   2  127.66   38.16
  -2  -2   2  117.66   33.45
   2   2  -2  168.61   42.19
  -2  -2   3  214.95   52.60
  -2  -2   3  185.46   50.46
  -2  -2   4  714.17  140.44
  -2  -2   4  653.45  150.16
   2   2  -4  586.93  150.17
  -2  -2   5   89.98   33.21
  -2  -2   5  132.96   28.85
  -2  -2   5  115.63   29.92
   2   2  -5  125.21   41.41
  -2  -2   6  125.53   32.90
  -2  -2   6  151.36   28.51
  -2  -2   6   97.11   29.78
  -2  -2   6  117.91   20.89
   2   2  -6   74.67   20.75
   2   2  -6   42.33   20.69
  -2  -2   7   78.16   27.38
  -2  -2   7  132.45   23.52
  -2  -2   7   70.59   25.55
  -2  -2   7  104.76   15.83
   2   2  -7   79.84   36.93
   2   2  -7   34.33   15.42
   2   2  -7   30.42   15.78
  -2  -2   8  766.47  116.18
  -2  -2   8  325.02  115.61
  -2  -2   8  698.49  106.06
   2   2  -8  951.73  131.43
   2   2  -8  174.74  105.35
   2   2  -8  199.76  105.46
  -2  -2   9  208.03   39.00
  -2  -2   9  211.59   30.59
   2   2  -9  166.15   58.75
   2   2  -9   63.10   30.50
   2   2  -9   44.12   30.10
  -2  -2  10   91.64   18.25
   2   2 -10  140.03   45.33
   2   2 -10   36.11   21.67
  -2  -2  11   22.23   19.57
  -2  -2  11   10.12    5.46
   2   2 -11   23.38   23.42
   2   2 -11    2.82   18.08
   2   2 -12  162.37   63.10
  -2  -2  13   -0.83   20.96
   2   2 -13   97.34   37.73
  -2  -1   1    1.45    2.40
  -2  -1   1    2.76    3.87
   2   1  -1    1.70    3.99
   2   1  -1    1.17    3.31
  -2  -1   2  110.71   38.40
  -2  -1   2  150.65   33.55
  -2  -1   2  144.15   35.43
   2   1  -2  166.82   41.59
   2   1  -2  169.71   35.42
  -2  -1   3  573.40  140.41
  -2  -1   3  690.21  149.12
   2   1  -3  814.56  146.82
   2   1  -3  746.80  151.00
  -2  -1   4  821.93  155.95
  -2  -1   4  563.40  166.40
   2   1  -4  696.72  164.30
   2   1  -4  910.04  168.70
  -2  -1   5  503.24   98.79
  -2  -1   5  459.58  101.01
  -2  -1   5  522.42   93.18
   2   1  -5  391.15  108.71
   2   1  -5  374.08  102.66
   2   1  -5  278.23   92.82
  -2  -1   6  150.15   36.60
  -2  -1   6  100.78   31.20
  -2  -1   6  123.42   33.03
  -2  -1   6  123.21   24.71
   2   1  -6  131.63   44.79
   2   1  -6  122.89   24.93
   2   1  -6   79.68   24.46
  -2  -1   7   91.68   33.08
  -2  -1   7   95.49   30.34
  -2  -1   7  111.18   21.20
   2   1  -7  104.57   42.39
   2   1  -7  100.05   21.44
  -2  -1   8  381.49  101.70
  -2  -1   8  551.18  104.06
  -2  -1   8  534.18  105.56
  -2  -1   8  553.05   94.96
   2   1  -8  420.79  117.40
   2   1  -8  542.11   95.14
   2   1  -8  258.92   94.58
  -2  -1   9   45.00   16.99
  -2  -1   9   35.47    8.68
   2   1  -9   43.17   30.37
   2   1  -9   34.99   12.10
  -2  -1  10   45.59   19.93
  -2  -1  10   60.43   11.41
   2   1 -10   37.42   35.36
   2   1 -10   25.59   15.46
  -2  -1  11  134.86   34.10
  -2  -1  11  141.92   26.82
   2   1 -11  169.32   54.81
   2   1 -11   39.08   29.40
  -2  -1  12   72.26   22.74
  -2  -1  12   28.07    9.47
   2   1 -12   70.00   31.69
   2   1 -12    6.42   19.20
  -2  -1  13   -0.59   21.98
   2   1 -13  168.88   43.31
   2   1 -14    3.98   26.36
  -2   0   1  100.52   30.36
  -2   0   1  102.77   25.03
  -2   0   1  110.96   20.93
   2   0  -1  111.35   25.96
   2   0  -1   89.51   21.01
   2   0  -1  110.73   21.12
  -2   0   2  196.72   47.71
  -2   0   2  159.83   43.49
  -2   0   2  188.45   38.66
   2   0  -2  239.40   50.37
   2   0  -2  192.88   45.06
   2   0  -2  145.31   38.74
   2   0  -2  188.27   38.92
  -2   0   3 1299.81  302.28
  -2   0   3 1447.05  335.67
  -2   0   3 1837.48  337.87
   2   0  -3 1766.71  307.99
   2   0  -3 1629.29  323.31
  -2   0   4  488.86  117.81
  -2   0   4  539.70  122.84
  -2   0   4  526.60  124.73
  -2   0   4  550.34  115.34
   2   0  -4  730.91  125.44
   2   0  -4  530.13  124.64
   2   0  -4  410.24  115.08
   2   0  -4  636.18  115.34
  -2   0   5  229.17   50.84
  -2   0   5  216.66   46.80
  -2   0   5  163.06   48.27
  -2   0   5  211.73   40.73
   2   0  -5  154.28   58.13
   2   0  -5  180.21   48.51
   2   0  -5  155.55   40.49
  -2   0   6   16.89   11.42
  -2   0   6   12.56    9.33
  -2   0   6   17.81   10.23
  -2   0   6   16.94    3.19
   2   0  -6   13.44   15.07
   2   0  -6   10.77    3.53
   2   0  -6   15.76    3.57
  -2   0   7 1079.79  212.07
  -2   0   7 1030.97  229.71
  -2   0   7  954.65  231.45
  -2   0   7 1099.33  218.66
   2   0  -7 1068.92  226.09
   2   0  -7 1482.29  233.13
   2   0  -7 1154.11  218.59
   2   0  -7  787.16  218.47
  -2   0   8  749.46  170.04
  -2   0   8 1013.88  184.26
  -2   0   8 1027.23  171.32
   2   0  -8  692.76  185.75
   2   0  -8  671.33  184.19
   2   0  -8  964.94  171.32
   2   0  -8  526.15  170.97
  -2   0   9  577.06  116.13
  -2   0   9  617.26  107.32
   2   0  -9  404.76  129.96
   2   0  -9  504.97  107.45
   2   0  -9  371.10  107.02
  -2   0  10   33.29   15.01
  -2   0  10   26.90    7.06
   2   0 -10   28.58   29.37
   2   0 -10    9.46    8.32
  -2   0  11    9.98   11.73
  -2   0  11    7.84    5.48
   2   0 -11   10.81   21.71
   2   0 -11   11.90   16.48
  -2   0  12  411.12   58.07
  -2   0  12  195.97   48.51
   2   0 -12  349.34   79.59
   2   0 -12  113.62   52.85
  -2   0  13    0.63   13.87
   2   0 -13   71.55   29.87
  -2   0  14    1.46   13.27
  -2   1   1    0.80    2.60
  -2   1   1    0.85    2.32
   2  -1  -1    0.72    2.93
   2  -1  -1    0.62    2.92
   2  -1  -1    1.62    2.81
   2  -1  -1    0.29    1.04
  -2   1   2  698.09  141.78
  -2   1   2  647.86  150.96
  -2   1   2  659.55  143.51
   2  -1  -2  878.47  144.60
   2  -1  -2  733.89  152.00
   2  -1  -2  468.88  143.50
   2  -1  -2  698.22  143.75
  -2   1   3  290.37   70.94
  -2   1   3  302.19   69.56
  -2   1   3  292.45   63.91
   2  -1  -3  423.29   75.26
   2  -1  -3  270.79   63.91
   2  -1  -3  290.09   64.12
  -2   1   4 1431.92  284.90
  -2   1   4 1384.10  315.28
  -2   1   4 1785.53  317.64
  -2   1   4 1363.81  303.37
   2  -1  -4 1658.68  292.13
   2  -1  -4 1407.78  316.99
   2  -1  -4 1351.18  303.17
   2  -1  -4 1466.01  303.38
  -2   1   5   30.49   15.34
  -2   1   5   21.38   10.54
  -2   1   5   21.16   13.03
  -2   1   5   29.69    6.01
   2  -1  -5   29.85   18.92
   2  -1  -5   34.99   13.50
   2  -1  -5   26.43    6.12
   2  -1  -5   37.37    6.08
  -2   1   6  159.36   44.59
  -2   1   6  169.30   39.60
  -2   1   6  149.06   41.53
  -2   1   6  153.33   33.57
   2  -1  -6  126.04   52.32
   2  -1  -6  222.35   42.07
   2  -1  -6  139.50   33.38
   2  -1  -6  188.92   33.60
  -2   1   7  928.12  184.82
  -2   1   7 1023.53  198.53
  -2   1   7  882.58  200.34
  -2   1   7  833.79  188.30
   2  -1  -7 1007.14  198.03
   2  -1  -7  674.42  200.31
   2  -1  -7  798.87  188.20
   2  -1  -7  982.94  188.33
  -2   1   8  261.95   72.13
  -2   1   8  331.99   70.01
  -2   1   8  118.03   70.61
  -2   1   8  327.98   62.62
   2  -1  -8  280.31   84.80
   2  -1  -8  318.90   72.66
   2  -1  -8  342.70   63.12
   2  -1  -8  307.70   62.54
  -2   1   9   70.02   17.55
  -2   1   9   28.34   21.99
  -2   1   9   57.67   10.98
   2  -1  -9   51.49   30.62
   2  -1  -9   77.22   24.18
   2  -1  -9   60.62   15.24
   2  -1  -9   27.22   10.67
  -2   1  10    7.52    9.75
  -2   1  10    5.73    4.85
   2  -1 -10    6.39   18.68
   2  -1 -10    2.23    4.58
  -2   1  11  594.97  114.76
  -2   1  11  529.17  105.79
   2  -1 -11  297.45  133.77
   2  -1 -11  472.31  107.09
  -2   1  12  209.00   37.33
  -2   1  12  102.68   29.05
   2  -1 -12  189.39   58.62
  -2   1  13   92.70   27.06
   2  -1 -13   84.83   46.39
  -2   1  14   -1.35   12.85
   2  -1 -14   17.96   23.94
  -2   2   1   42.01   17.13
  -2   2   1   51.79   12.38
  -2   2   1   49.88    8.77
   2  -2  -1   34.41   17.61
   2  -2  -1   45.66   18.27
   2  -2  -1   41.83    8.74
   2  -2  -1   45.55    8.77
  -2   2   2  748.60  154.51
  -2   2   2  716.05  165.97
  -2   2   2  783.09  158.23
   2  -2  -2  782.91  156.50
   2  -2  -2  803.87  166.59
   2  -2  -2  747.60  158.26
   2  -2  -2  743.02  158.41
  -2   2   3 1083.94  239.07
  -2   2   3 1108.77  263.03
  -2   2   3 1157.06  252.72
  -2   2   3 1396.38  252.94
   2  -2  -3 1404.93  243.67
   2  -2  -3 1165.20  252.74
   2  -2  -3 1144.44  252.92
  -2   2   4   -0.03    3.14
  -2   2   4    0.22    4.01
  -2   2   4    1.41    2.40
  -2   2   4    0.20    1.50
   2  -2  -4    1.90    5.55
   2  -2  -4    0.33    2.11
   2  -2  -4    0.34    1.27
  -2   2   5    0.29    3.66
  -2   2   5    0.39    3.87
  -2   2   5    1.45    6.44
  -2   2   5    0.69    1.69
   2  -2  -5   -0.07    6.53
   2  -2  -5   -0.08    5.84
   2  -2  -5   -0.94    2.80
   2  -2  -5    0.00    1.33
  -2   2   6  602.87  128.50
  -2   2   6  585.98  134.55
  -2   2   6  510.11  136.69
  -2   2   6  602.27  126.82
   2  -2  -6  522.12  138.68
   2  -2  -6  666.15  136.79
   2  -2  -6  560.13  126.65
   2  -2  -6  694.59  126.87
  -2   2   7  623.95  149.23
  -2   2   7  677.05  157.58
  -2   2   7  816.28  160.28
  -2   2   7  705.02  149.02
   2  -2  -7  819.47  161.75
   2  -2  -7  628.90  159.91
   2  -2  -7  609.23  148.81
   2  -2  -7  833.27  149.05
  -2   2   8  130.43   42.74
  -2   2   8  199.28   38.11
  -2   2   8  109.31   39.41
  -2   2   8  138.04   31.41
   2  -2  -8  127.06   53.01
   2  -2  -8  143.14   40.27
   2  -2  -8  182.99   31.50
  -2   2   9   12.86   10.08
  -2   2   9    0.96   12.22
  -2   2   9    6.25    3.07
   2  -2  -9    8.58   14.52
   2  -2  -9    7.34   12.39
   2  -2  -9   10.47    9.27
   2  -2  -9    7.88    3.71
  -2   2  10   15.78   10.74
  -2   2  10   17.72    4.60
   2  -2 -10   13.81   24.35
   2  -2 -10   17.59   13.95
   2  -2 -10   13.62    5.90
  -2   2  11  200.15   50.22
  -2   2  11  222.05   43.32
   2  -2 -11  187.66   72.21
   2  -2 -11  180.82   46.15
  -2   2  12  405.92   72.10
  -2   2  12  294.37   63.84
   2  -2 -12  390.80   94.92
   2  -2 -12  199.23   66.26
  -2   2  13    8.55   10.82
  -2   2  13   -0.64    5.67
   2  -2 -13    2.11   19.65
  -2   2  14   17.26   13.22
   2  -2 -14   17.80   24.73
   2  -2 -15   99.73   50.36
  -2   3   1  104.84   29.90
  -2   3   1   82.21   25.15
  -2   3   1  110.73   21.04
   2  -3  -1   97.19   30.59
   2  -3  -1  110.43   31.96
   2  -3  -1   68.74   25.00
   2  -3  -1  105.30   21.08
   2  -3  -1  120.70   21.19
  -2   3   2  388.54   83.79
  -2   3   2  401.53   85.12
  -2   3   2  384.61   79.36
   2  -3  -2  360.17   85.61
   2  -3  -2  352.07   85.20
   2  -3  -2  426.14   85.51
   2  -3  -2  345.55   79.33
   2  -3  -2  407.06   79.53
  -2   3   3 5399.42 1146.98
  -2   3   3 5747.26 1312.95
   2  -3  -3 7382.06 1151.82
   2  -3  -3 6373.61 1313.78
   2  -3  -3 5966.26 1276.67
  -2   3   4  208.29   57.72
  -2   3   4  175.90   54.75
  -2   3   4  236.93   49.70
  -2   3   4  281.04   49.90
   2  -3  -4  286.55   63.17
   2  -3  -4  160.48   55.78
   2  -3  -4  255.70   49.76
   2  -3  -4  255.09   49.90
  -2   3   5  164.12   41.90
  -2   3   5  144.37   37.06
  -2   3   5  151.10   32.13
  -2   3   5  149.88   32.23
   2  -3  -5  195.24   48.59
   2  -3  -5  151.22   38.50
   2  -3  -5  140.93   32.10
   2  -3  -5  150.97   32.23
  -2   3   6 1020.52  207.95
  -2   3   6  879.85  225.99
  -2   3   6 1108.53  228.61
  -2   3   6 1001.81  216.37
   2  -3  -6 1072.60  218.86
   2  -3  -6 1035.06  216.25
   2  -3  -6 1117.97  216.41
  -2   3   7  496.44  108.35
  -2   3   7  513.46  111.40
  -2   3   7  455.02  113.88
  -2   3   7  493.14  104.18
   2  -3  -7  273.19  119.55
   2  -3  -7  434.72  113.55
   2  -3  -7  454.98  104.04
   2  -3  -7  630.39  104.29
  -2   3   8   33.87   18.13
  -2   3   8   37.11   13.92
  -2   3   8   27.97   15.90
  -2   3   8   38.15    8.43
   2  -3  -8   37.27   25.00
   2  -3  -8   42.40   18.30
   2  -3  -8   35.46    9.49
   2  -3  -8   50.43    8.60
  -2   3   9   31.87   19.81
  -2   3   9   51.44   15.13
  -2   3   9   33.88   19.97
  -2   3   9   47.45    9.95
   2  -3  -9   41.21   22.38
   2  -3  -9   51.96   12.03
   2  -3  -9   49.43    9.69
  -2   3  10  263.40   51.99
  -2   3  10  221.91   45.18
   2  -3 -10  205.32   71.12
   2  -3 -10  260.42   46.49
   2  -3 -10  158.70   44.98
  -2   3  11  219.57   46.71
  -2   3  11  165.94   39.74
   2  -3 -11  246.23   70.09
  -2   3  12  187.93   40.92
  -2   3  12  160.06   33.98
   2  -3 -12  133.99   35.87
  -2   3  13    0.42   10.96
  -2   3  13   -0.10    5.24
   2  -3 -13    6.70   19.01
   2  -3 -13    0.59   12.52
   2  -3 -14   67.85   40.83
  -2   3  15  233.58   54.52
   2  -3 -15  188.10   78.12
   2  -4  -1   84.67   18.10
  -2   4   1   77.33   26.87
  -2   4   1   82.13   22.21
  -2   4   1   90.71   18.02
   2  -4  -1   75.83   27.52
   2  -4  -1   87.13   29.43
   2  -4  -1  103.09   22.19
   2  -4  -1  105.07   18.16
  -2   4   2  901.19  197.88
  -2   4   2 1150.19  216.60
  -2   4   2  960.54  207.43
   2  -4  -2 1005.25  200.05
   2  -4  -2 1094.49  200.44
   2  -4  -2  883.83  216.60
   2  -4  -2  919.64  207.43
   2  -4  -2 1026.52  207.60
  -2   4   3  189.87   50.85
  -2   4   3  231.61   47.96
  -2   4   3  196.29   42.92
   2  -4  -3  233.76   54.47
   2  -4  -3  208.07   48.33
   2  -4  -3  192.97   42.93
   2  -4  -3  207.14   43.10
  -2   4   4    9.52    6.78
  -2   4   4    6.47    5.03
  -2   4   4    5.95    2.55
  -2   4   4    6.05    1.95
   2  -4  -4    7.32    8.40
   2  -4  -4    8.94    5.93
   2  -4  -4    2.64    2.96
   2  -4  -4    4.88    2.70
  -2   4   5    1.66    4.16
  -2   4   5    2.44    3.16
  -2   4   5    1.34    1.81
   2  -4  -5    1.72    3.07
   2  -4  -5    2.22    1.83
  -2   4   6  267.66   69.31
  -2   4   6  274.77   67.39
  -2   4   6  321.79   61.87
  -2   4   6  306.52   61.89
   2  -4  -6  269.27   69.11
   2  -4  -6  308.94   61.83
   2  -4  -6  310.86   61.91
  -2   4   7  802.75  168.72
  -2   4   7  949.39  181.02
  -2   4   7  852.32  183.49
  -2   4   7  835.16  172.17
   2  -4  -7  591.11  181.03
   2  -4  -7  785.97  182.86
   2  -4  -7  821.22  172.08
   2  -4  -7  853.99  172.17
  -2   4   8    0.15    5.00
  -2   4   8   -0.70    5.41
  -2   4   8    2.39   11.49
  -2   4   8    0.80    2.40
   2  -4  -8   -0.61    8.35
   2  -4  -8    1.89   11.07
   2  -4  -8   -0.43    3.15
  -2   4   9   51.00   25.91
  -2   4   9   80.61   20.64
  -2   4   9   64.72   25.26
  -2   4   9   80.26   15.44
   2  -4  -9   62.47   36.30
   2  -4  -9   75.21   25.36
   2  -4  -9   72.69   15.88
   2  -4  -9   84.16   15.54
  -2   4  10 1615.78  282.48
  -2   4  10 1242.31  270.17
   2  -4 -10 1134.43  277.43
   2  -4 -10 1479.13  270.47
   2  -4 -10 1127.88  270.13
  -2   4  11   64.74   17.61
  -2   4  11   45.03   11.02
   2  -4 -11   41.97   36.86
   2  -4 -11   48.74   14.91
  -2   4  12  256.21   45.58
  -2   4  12  177.52   38.29
   2  -4 -12   88.27   68.43
   2  -4 -12  162.56   40.02
  -2   4  13   62.78   14.84
  -2   4  13    1.02    5.78
   2  -4 -13   64.35   29.29
   2  -4 -13   20.10   13.54
  -2   4  14  272.40   70.60
   2  -4 -14  352.57   94.59
  -2   4  15  113.98   35.84
   2  -4 -15  159.11   60.24
  -2   5   1  230.70   63.42
  -2   5   1  223.82   61.92
  -2   5   1  275.98   56.76
   2  -5  -1  272.91   64.15
   2  -5  -1  341.22   68.01
   2  -5  -1  257.24   62.01
   2  -5  -1  274.97   56.77
   2  -5  -1  301.35   56.88
   2  -5  -2 1414.12  377.91
   2  -5  -2 1761.53  378.72
  -2   5   2 1744.03  312.59
  -2   5   2 1186.66  348.56
  -2   5   2 1553.92  336.39
   2  -5  -2 1688.03  314.75
   2  -5  -2 1803.42  316.15
   2  -5  -2 1323.04  348.76
  -2   5   3  320.45   85.03
  -2   5   3  347.20   86.55
  -2   5   3  368.35   80.78
   2  -5  -3  463.45   89.33
   2  -5  -3  387.18   87.04
   2  -5  -3  417.28   87.14
   2  -5  -3  427.59   80.87
   2  -5  -3  402.80   80.94
  -2   5   4  172.01   47.52
  -2   5   4  168.56   43.94
  -2   5   4  180.08   39.21
  -2   5   4  216.03   39.37
   2  -5  -4  262.83   53.03
   2  -5  -4  164.49   44.85
   2  -5  -4  174.36   39.21
   2  -5  -4  171.10   39.29
  -2   5   5 1028.38  225.47
  -2   5   5  979.76  247.32
  -2   5   5 1113.24  237.45
  -2   5   5 1160.54  237.57
   2  -5  -5 1497.95  234.94
   2  -5  -5 1162.23  237.48
   2  -5  -5 1123.51  237.58
  -2   5   6  107.21   33.71
  -2   5   6  111.58   28.55
  -2   5   6  103.37   24.00
  -2   5   6  114.20   23.98
   2  -5  -6  145.51   41.33
   2  -5  -6  124.54   30.16
   2  -5  -6  125.12   24.09
   2  -5  -6  110.91   23.99
  -2   5   7 2554.90  388.16
  -2   5   7 1516.05  433.76
  -2   5   7 1680.21  436.33
  -2   5   7 2015.67  419.23
   2  -5  -7 1215.71  401.20
   2  -5  -7 1867.15  435.86
   2  -5  -7 2123.04  419.19
   2  -5  -7 2035.90  419.24
  -2   5   8    7.98    9.28
  -2   5   8    9.18    6.90
  -2   5   8   12.94   12.16
  -2   5   8    9.36    3.09
   2  -5  -8    5.27   13.94
   2  -5  -8   12.35   12.17
   2  -5  -8    8.74    5.21
   2  -5  -8   12.70    3.34
  -2   5   9   28.86   19.94
  -2   5   9   50.60   14.97
  -2   5   9   50.92   10.10
   2  -5  -9   58.05   28.77
   2  -5  -9   41.61   11.05
   2  -5  -9   55.88   10.47
  -2   5  10   92.06   22.83
  -2   5  10   85.68   17.08
   2  -5 -10   60.79   41.09
   2  -5 -10   64.92   17.42
  -2   5  11 1032.55  189.68
  -2   5  11  899.21  179.93
   2  -5 -11  814.96  199.39
   2  -5 -11  620.57  179.83
  -2   5  12   27.77   13.41
  -2   5  12   30.02    6.80
   2  -5 -12   17.96   29.69
   2  -5 -12   20.51   13.28
  -2   5  13    3.43   10.14
  -2   5  13   -0.02    4.09
   2  -5 -13    0.63   19.46
   2  -5 -13   -1.27   17.77
  -2   5  14  118.32   30.23
   2  -5 -14   89.23   52.52
  -2   5  15  119.05   34.47
   2  -5 -15  134.84   57.20
  -2   6   1  424.07  101.49
   2  -6  -1  472.06  102.37
  -2   6   1  442.46   95.80
  -2   6   1  279.09   97.91
   2  -6  -1  450.05   96.14
   2  -6  -1  533.80  101.96
   2  -6  -1  420.29   98.10
   2  -6  -1  444.69   91.92
  -2   6   2 3418.67  633.77
  -2   6   2 2974.51  719.60
  -2   6   2 3586.98  698.07
   2  -6  -2 3142.12  635.75
   2  -6  -2 3589.57  638.70
   2  -6  -2 2706.08  719.64
   2  -6  -2 3581.66  698.08
   2  -6  -2 3451.69  698.14
  -2   6   3   40.77   11.95
  -2   6   3   36.65    8.39
   2  -6  -3   42.46   18.71
   2  -6  -3   41.33   17.90
   2  -6  -3   36.22   12.55
   2  -6  -3   34.22    8.24
   2  -6  -3   36.74    8.24
  -2   6   4   19.81   12.18
  -2   6   4   18.73    8.70
  -2   6   4   21.41    5.39
  -2   6   4   25.55    5.12
   2  -6  -4   28.89   15.34
   2  -6  -4   23.40   13.08
   2  -6  -4   22.16    9.35
   2  -6  -4   23.44    5.47
   2  -6  -4   21.51    5.11
  -2   6   5  527.04  120.40
  -2   6   5  510.64  126.59
  -2   6   5  550.68  119.68
  -2   6   5  606.37  119.79
   2  -6  -5  797.13  129.82
   2  -6  -5  506.27  127.57
   2  -6  -5  562.14  119.70
   2  -6  -5  555.28  119.78
  -2   6   6  598.93  153.93
  -2   6   6  613.89  137.48
  -2   6   6  670.12  145.98
  -2   6   6  703.73  138.47
   2  -6  -6  585.78  147.15
   2  -6  -6  738.25  138.49
   2  -6  -6  678.10  138.46
  -2   6   7    1.46    5.47
  -2   6   7    3.80    6.90
  -2   6   7    1.32    4.49
  -2   6   7    0.69    2.44
   2  -6  -7    2.57    9.96
   2  -6  -7    0.80    7.81
   2  -6  -7    2.50    4.27
   2  -6  -7    1.83    2.77
  -2   6   8  114.88   36.72
  -2   6   8   83.04   31.16
  -2   6   8  105.83   34.50
  -2   6   8  148.85   26.73
   2  -6  -8  135.78   47.60
   2  -6  -8  133.55   26.91
   2  -6  -8  136.40   26.69
  -2   6   9  708.34  170.65
  -2   6   9  861.18  162.30
   2  -6  -9  795.04  177.97
   2  -6  -9  846.40  162.36
   2  -6  -9  673.59  162.16
  -2   6  10   37.82   15.12
  -2   6  10   48.95    9.82
   2  -6 -10   41.08   30.57
   2  -6 -10   42.08   11.29
  -2   6  11  135.81   31.46
  -2   6  11  105.79   25.27
   2  -6 -11  106.00   52.24
   2  -6 -11  131.31   27.66
  -2   6  12    9.62   10.01
  -2   6  12    8.35    5.22
   2  -6 -12    1.50   23.78
   2  -6 -12    8.09   13.52
  -2   6  13  345.68   40.55
   2  -6 -13  278.32   64.05
   2  -6 -13  254.14   36.83
  -2   6  14  270.14   59.20
   2  -6 -14  192.32   83.05
  -2   6  15   33.52   17.18
   2  -6 -15   24.28   32.43
  -2   7   1  287.77   62.23
  -2   7   1  291.68   59.52
  -2   7   1  259.99   53.98
   2  -7  -1  222.74   61.85
   2  -7  -1  278.96   69.15
   2  -7  -1  211.06   59.12
   2  -7  -1  271.62   53.94
   2  -7  -1  252.01   53.94
  -2   7   2  420.52   84.62
  -2   7   2  298.00   85.00
  -2   7   2  430.81   79.38
   2  -7  -2  403.65   86.05
   2  -7  -2  374.30   90.01
   2  -7  -2  302.81   85.10
   2  -7  -2  359.13   79.18
   2  -7  -2  384.19   79.31
  -2   7   3  139.25   39.35
  -2   7   3  121.07   34.85
  -2   7   3  117.17   30.19
   2  -7  -3  186.47   42.92
   2  -7  -3  148.75   42.56
   2  -7  -3  131.79   35.10
   2  -7  -3  161.57   30.36
   2  -7  -3  144.57   30.33
  -2   7   4   14.29   11.87
  -2   7   4   25.00    8.64
  -2   7   4   20.06    5.43
   2  -7  -4   31.64   15.18
   2  -7  -4   19.71   13.03
   2  -7  -4   21.01    9.19
   2  -7  -4   24.58    5.59
   2  -7  -4   20.48    5.01
  -2   7   5  177.09   52.43
  -2   7   5  226.80   49.55
  -2   7   5  215.79   44.53
  -2   7   5  238.08   44.55
   2  -7  -5  263.41   60.79
   2  -7  -5  180.05   54.02
   2  -7  -5  233.12   50.64
   2  -7  -5  225.51   44.55
   2  -7  -5  205.48   44.52
  -2   7   6  984.66  220.47
  -2   7   6 1090.83  241.67
  -2   7   6 1127.33  231.85
  -2   7   6 1197.45  231.90
   2  -7  -6 1269.09  233.17
   2  -7  -6  984.90  242.97
   2  -7  -6 1260.46  231.92
   2  -7  -6 1036.59  231.83
  -2   7   7  112.98   32.22
  -2   7   7  116.23   27.29
  -2   7   7  101.20   22.84
  -2   7   7  122.30   22.57
   2  -7  -7   56.97   41.45
   2  -7  -7   55.61   29.02
   2  -7  -7  124.10   22.98
   2  -7  -7  108.14   22.55
  -2   7   8  353.21  101.53
  -2   7   8  627.76  104.77
  -2   7   8  523.90   97.74
   2  -7  -8  399.60  116.63
   2  -7  -8  528.60   97.84
   2  -7  -8  422.82   97.64
  -2   7   9  257.97   49.08
  -2   7   9  198.97   42.97
   2  -7  -9  163.19   43.01
  -2   7  10  347.42   89.29
  -2   7  10  461.62   82.76
   2  -7 -10  330.93  108.16
   2  -7 -10  327.03   82.61
  -2   7  11  371.61   85.86
  -2   7  11  367.53   79.35
   2  -7 -11  299.64  107.94
   2  -7 -11  444.52   80.17
  -2   7  12    8.31   10.29
  -2   7  12   14.95    5.69
   2  -7 -12    5.02   26.96
   2  -7 -12   14.00   14.01
  -2   7  13  132.64   20.30
   2  -7 -13  119.60   21.07
  -2   7  14  261.28   65.26
   2  -7 -14  316.13   93.85
   2  -7 -15  116.11   55.27
  -2   8   1  888.77  162.64
  -2   8   1  971.67  173.12
  -2   8   1  782.92  164.23
   2  -8  -1  964.52  173.14
   2  -8  -1  686.37  172.36
   2  -8  -1  630.01  164.09
   2  -8  -1  687.09  164.22
   2  -8  -2  192.84   48.28
  -2   8   2  232.66   53.60
  -2   8   2  200.21   49.40
  -2   8   2  188.67   44.19
   2  -8  -2  268.97   55.25
   2  -8  -2  273.42   60.19
   2  -8  -2  168.27   49.45
   2  -8  -2  151.03   43.99
  -2   8   3   83.95   28.79
  -2   8   3   76.71   23.20
  -2   8   3   75.12   18.89
   2  -8  -3  120.32   31.95
   2  -8  -3   97.68   32.59
   2  -8  -3   92.89   24.63
   2  -8  -3   82.40   18.96
   2  -8  -3   89.99   19.03
  -2   8   4  483.16  163.89
  -2   8   4  739.44  156.39
   2  -8  -4  965.78  161.27
   2  -8  -4  787.93  157.77
   2  -8  -4  896.82  165.31
   2  -8  -4  651.83  156.25
   2  -8  -4  739.13  156.43
  -2   8   5  331.06   82.19
  -2   8   5  378.42   82.81
  -2   8   5  398.82   77.11
  -2   8   5  436.72   77.01
   2  -8  -5  411.40   91.68
   2  -8  -5  340.12   84.99
   2  -8  -5  292.75   83.84
   2  -8  -5  421.42   77.05
   2  -8  -5  314.39   76.84
  -2   8   6  140.74   39.50
  -2   8   6  149.62   46.02
  -2   8   6  189.43   42.36
  -2   8   6  230.57   37.47
   2  -8  -6  183.25   56.10
   2  -8  -6  166.62   47.88
   2  -8  -6  124.66   43.79
   2  -8  -6  226.03   37.65
   2  -8  -6  167.27   37.29
  -2   8   7   61.46   19.02
  -2   8   7   44.40   15.04
  -2   8   7   91.79   14.74
   2  -8  -7   84.31   15.47
   2  -8  -7   52.82   14.44
  -2   8   8   44.56    7.45
  -2   8   8   25.94   16.97
  -2   8   8   38.74   12.99
   2  -8  -8   38.21   26.86
   2  -8  -8   42.19    9.77
  -2   8   9  447.21  101.71
  -2   8   9  446.68   94.88
   2  -8  -9  471.99   95.17
  -2   8  10  543.26  105.16
  -2   8  10  444.89   97.99
   2  -8 -10  256.70  123.64
   2  -8 -10  544.32   98.49
  -2   8  11   43.16   15.35
  -2   8  11   37.83    8.94
   2  -8 -11   42.25   12.06
  -2   8  12    7.09    9.02
  -2   8  12    3.83    4.32
   2  -8 -12    5.26   33.48
   2  -8 -12    5.45    9.20
  -2   8  13  266.88   61.59
   2  -8 -13  245.43   90.70
  -2   8  14  103.36   30.43
   2  -8 -14  137.52   56.76
  -2   8  15    2.60   12.96
  -2   9   1 1095.31  203.47
  -2   9   1  797.56  218.04
   2  -9  -1  948.02  201.52
   2  -9  -1 1170.79  216.79
   2  -9  -2   36.74   15.68
  -2   9   2   94.64   27.19
  -2   9   2   98.29   20.68
  -2   9   2   56.77   15.90
   2  -9  -2   87.20   27.68
   2  -9  -2   59.07   20.66
   2  -9  -2   98.80   16.20
  -2   9   3  336.87   70.42
  -2   9   3  227.42   67.52
  -2   9   3  158.93   61.66
   2  -9  -3  428.93   75.00
   2  -9  -3  397.45   77.62
   2  -9  -3  268.16   68.43
   2  -9  -3  340.79   62.21
   2  -9  -3  229.60   61.95
  -2   9   4  769.56  197.02
  -2   9   4  841.11  185.22
   2  -9  -4  864.75  178.46
   2  -9  -4  904.68  186.13
   2  -9  -4  983.48  176.80
   2  -9  -4  768.76  176.67
  -2   9   5  187.85   54.43
   2  -9  -5  217.49   61.31
   2  -9  -5  303.61   49.56
  -2   9   6  271.53   77.27
  -2   9   6  465.64   77.49
  -2   9   6  391.73   71.13
   2  -9  -6  230.77   89.31
   2  -9  -6  241.64   80.16
   2  -9  -6  446.03   71.40
  -2   9   7    7.17    9.25
  -2   9   7   15.43    8.01
  -2   9   7   11.63    3.62
   2  -9  -7   10.99   18.99
   2  -9  -7   10.57    6.56
  -2   9   8   59.11   13.11
   2  -9  -8   46.30   35.86
   2  -9  -8   73.98   14.40
  -2   9   9  182.31   38.61
  -2   9   9  157.48   40.84
   2  -9  -9  126.34   63.27
   2  -9  -9  177.66   36.22
  -2   9  10  221.04   52.82
  -2   9  10  214.51   47.19
   2  -9 -10  274.72   79.01
   2  -9 -10  226.61   47.71
  -2   9  11    4.52    8.13
  -2   9  11    7.33    3.62
   2  -9 -11    9.78   32.67
   2  -9 -11    2.89    8.63
  -2   9  12  344.46   69.39
  -2   9  12  285.02   62.67
   2  -9 -12  305.92   98.64
   2  -9 -12  272.84   63.38
  -2   9  13   92.52   26.11
  -2   9  14  133.05   32.91
   2  -9 -14  104.69   59.76
  -2  10   1  301.03   62.17
   2 -10  -1  259.89   66.13
   2 -10  -1  126.12   79.26
   2 -10  -1  304.86   55.65
  -2  10   2  231.99   66.74
  -2  10   2  344.28   62.69
   2 -10  -2  230.21   77.56
   2 -10  -2  262.32   55.74
  -2  10   3  189.82   53.30
  -2  10   3  209.77   47.66
   2 -10  -3  262.27   57.97
   2 -10  -3  193.53   61.49
   2 -10  -3  146.36   41.65
  -2  10   4  546.68  118.84
  -2  10   4  530.53  122.27
   2 -10  -4  558.54  126.79
   2 -10  -4  563.06  115.10
  -2  10   5   -0.81    5.90
  -2  10   5    2.87    7.85
   2 -10  -5   -1.12   14.11
   2 -10  -5    0.46    7.76
   2 -10  -5    3.52    5.57
  -2  10   6  161.43   43.83
   2 -10  -6  155.13   52.38
   2 -10  -6  239.92   39.13
  -2  10   7   68.79   20.44
  -2  10   7   66.84   15.04
   2 -10  -7   63.14   37.82
   2 -10  -7   83.45   16.25
  -2  10   8  509.92  124.40
  -2  10   8  606.10  117.36
   2 -10  -8  223.77  138.63
   2 -10  -8  696.81  117.75
  -2  10   9  519.78  112.15
  -2  10   9  522.48  105.13
   2 -10  -9  304.22  130.55
   2 -10  -9  533.33  105.38
  -2  10  10   89.50   18.73
   2 -10 -10   60.07   51.72
   2 -10 -10   96.48   20.10
  -2  10  11    2.71    9.49
  -2  10  11    2.12    3.46
   2 -10 -11  -10.03   35.72
   2 -10 -11    5.47    8.20
  -2  10  12  348.22   72.31
   2 -10 -12  226.24  101.56
  -2  10  13  299.53   66.45
   2 -10 -13  252.14   95.22
  -2  10  14  118.57   31.50
   2 -11  -1  201.53   50.03
  -2  11   1  249.13   53.97
  -2  11   2    4.04    9.91
   2 -11  -2    7.73    5.20
  -2  11   3  461.15   83.51
   2 -11  -3  315.48   92.51
   2 -11  -3  286.37   98.64
   2 -11  -3  359.09   76.34
  -2  11   4    0.33   22.96
  -2  11   4  102.32   18.25
   2 -11  -4   54.46   30.05
   2 -11  -4   76.97   12.59
  -2  11   5  180.73   56.58
   2 -11  -5  184.62   73.24
   2 -11  -5  340.80   51.60
   2 -11  -6   74.57   11.65
  -2  11   6   48.11   18.62
   2 -11  -6   36.91   35.80
  -2  11   7   33.87   16.66
   2 -11  -7   55.26   11.68
  -2  11   8  412.16  103.02
  -2  11   8  511.54   99.73
   2 -11  -8  320.40  120.54
   2 -11  -8  490.63   93.06
  -2  11   9  351.68   81.74
  -2  11   9  372.19   75.39
   2 -11  -9  136.81  105.86
   2 -11  -9  442.59   76.05
  -2  11  10  139.95   41.02
  -2  11  10  192.56   35.83
   2 -11 -10  167.25   73.57
   2 -11 -10  149.85   36.34
  -2  11  11  129.38   29.10
   2 -11 -11   61.75   61.72
  -2  11  12   14.36    9.98
   2 -11 -12   15.38   36.93
  -2  11  13   71.32   22.09
  -2  12   1  351.17   80.56
   2 -12  -1  343.34   72.92
  -2  12   2  117.80   30.03
   2 -12  -2  102.30   23.76
   2 -12  -3 1074.57  300.20
  -2  12   3 1524.10  280.26
  -2  12   4    6.07   11.89
   2 -12  -4    0.35    5.30
  -2  12   5  138.34   36.45
   2 -12  -5  150.53   30.90
  -2  12   6   14.61   11.30
   2 -12  -6   20.85    7.26
  -2  12   7  215.31   53.17
   2 -12  -7  233.94   47.63
  -2  12   8  228.96   56.92
   2 -12  -8  129.66   83.46
   2 -12  -8  305.50   51.62
  -2  12   9   36.79    7.90
  -2  12   9   43.92   16.71
   2 -12  -9   36.62   11.59
  -2  12  10   15.57   11.60
   2 -12 -10   21.58   36.38
  -2  12  11  171.00   42.02
  -2  12  12  137.44   35.50
  -2  12  13   92.28   26.62
  -2  13   1   24.08   17.71
  -2  13   2   53.57   21.42
  -2  13   3   36.49   16.54
   2 -13  -3   40.07   10.16
  -2  13   4   72.51   23.71
   2 -13  -4   71.47   15.79
  -2  13   5  124.26   31.62
   2 -13  -5  103.29   24.54
  -2  13   6    5.33   12.44
   2 -13  -6    5.99    6.20
  -2  13   7  117.72   31.23
  -2  13   8  207.38   49.99
  -2  13   9  193.13   47.04
  -2  13  11  140.46   37.17
  -2  13  12   30.39   16.84
  -2  14   1   -4.59   16.48
  -2  14   2   88.89   30.50
  -2  14   3   69.28   23.35
  -2  14   4   61.24   21.19
  -2  14   5   56.52   21.42
  -2  14   6    9.14   11.62
  -2  14   7  172.20   43.09
  -2  14   8  109.96   30.13
  -2  14   9   24.27   15.31
  -2  14  10   24.35   15.16
  -2  15   3   32.98   21.00
  -2  15   4   62.78   23.91
  -2  15   5    3.17   14.18
  -2  15   6   13.73   17.34
  -2  15   7   55.52   22.94
   1  13  -1   43.54   40.94
   1  12  -1   52.34   38.25
  -1 -12   2    4.81   23.39
  -1 -12   2   -0.20    7.10
   1  12  -2    5.99   30.22
  -1 -12   3   -0.66   24.86
  -1 -12   4   -0.22   24.36
  -1 -11   1    8.29    7.74
  -1 -11   2   37.56   14.88
  -1 -11   3    4.71   46.87
  -1 -11   3   -1.27   34.80
  -1 -11   4   -0.19   21.55
   1  11  -4   11.11   23.67
  -1 -11   5    5.33   22.27
   1  11  -5   10.90   25.54
  -1 -10   1    7.71    7.07
   1  10  -1    3.80   17.08
   1  10  -2  117.33   35.38
  -1 -10   3  933.13  170.86
   1  10  -3  592.55  167.29
  -1 -10   4   34.33   10.56
   1  10  -4   52.30   30.14
  -1 -10   5    1.20   12.67
  -1 -10   5    0.09    8.31
   1  10  -5   10.84   18.71
   1  10  -5   17.80   27.76
  -1 -10   6    0.66   26.93
   1  10  -6  136.38   40.22
  -1 -10   7    2.86   26.71
   1  10  -7   45.60   37.85
  -1  -9   1    3.71    9.52
  -1  -9   1    4.18    6.33
  -1  -9   1    4.72    3.07
   1   9  -1    6.08   13.86
   1   9  -1    5.74    5.84
  -1  -9   2  452.50  119.73
  -1  -9   2  530.27  112.73
  -1  -9   2  500.26  112.66
   1   9  -2  949.95  125.16
   1   9  -2  533.22  112.93
  -1  -9   3  301.46   74.91
  -1  -9   3  519.36   79.83
  -1  -9   3  295.64   65.34
   1   9  -3  268.94   83.30
   1   9  -3  314.77   76.40
  -1  -9   4   21.19   17.63
  -1  -9   4   17.27    7.95
   1   9  -4   19.81   22.63
  -1  -9   5  116.81   42.91
  -1  -9   5  156.20   28.45
   1   9  -5  115.88   48.42
   1   9  -5  103.66   42.13
  -1  -9   6    7.49   19.59
  -1  -9   6    5.16   14.91
  -1  -9   6   -1.52    9.63
   1   9  -6   -1.08   14.89
   1   9  -6   10.26   26.20
  -1  -9   7  154.90   45.72
  -1  -9   7   -2.05   40.96
   1   9  -7  193.13   46.52
  -1  -9   8   -3.47   19.94
   1   9  -8   20.15   27.95
  -1  -8   1  380.98   85.51
  -1  -8   1  372.06   79.39
  -1  -8   1  406.18   79.48
   1   8  -1  274.17   87.41
   1   8  -1  389.18   79.47
  -1  -8   2 1177.96  207.57
  -1  -8   2  965.19  223.18
  -1  -8   2  822.64  213.67
  -1  -8   2  973.26  213.79
   1   8  -2 1309.29  220.12
   1   8  -2 1032.04  226.18
  -1  -8   3    0.56    6.74
  -1  -8   3    0.80    5.56
  -1  -8   3    0.43   17.57
  -1  -8   3    0.33    6.44
  -1  -8   3    0.65    3.02
   1   8  -3    4.26    9.99
   1   8  -3   -2.08   10.72
   1   8  -3    0.31    5.28
  -1  -8   4  120.61   29.94
  -1  -8   4   61.27   28.75
  -1  -8   4   76.89   30.86
  -1  -8   4   81.38   17.13
  -1  -8   4   61.53   16.75
   1   8  -4  113.58   38.33
   1   8  -4   60.76   17.15
  -1  -8   5   12.76   13.16
  -1  -8   5    6.54   21.85
  -1  -8   5   15.21    7.69
   1   8  -5   10.68   18.11
   1   8  -5    5.14   19.91
  -1  -8   6  195.48   56.26
  -1  -8   6  146.49   53.50
  -1  -8   6  228.97   43.58
   1   8  -6  170.30   66.64
   1   8  -6  229.93   55.07
  -1  -8   7  211.72   46.55
  -1  -8   7  150.22   32.14
   1   8  -7   -0.84   53.71
   1   8  -7  143.89   48.22
  -1  -8   8   26.98   18.45
  -1  -8   8    0.26   21.88
   1   8  -8    2.32   21.70
   1   8  -8   20.91   31.53
  -1  -8   9   -8.32   20.71
   1   8  -9    1.57   16.97
   1   8  -9    0.90   28.68
  -1  -7   1  192.27   55.30
  -1  -7   1  289.86   52.45
  -1  -7   1  216.35   47.14
  -1  -7   1  248.15   47.27
   1   7  -1  226.06   69.33
   1   7  -1  151.72   54.08
   1   7  -1  231.19   47.28
  -1  -7   2  749.21  159.10
  -1  -7   2  592.99  169.12
  -1  -7   2  732.22  161.22
  -1  -7   2  838.76  161.35
   1   7  -2  684.46  176.90
   1   7  -2  917.23  172.34
   1   7  -2  885.82  161.31
  -1  -7   3    3.44    8.27
  -1  -7   3   22.55   12.32
  -1  -7   3    2.25    6.66
  -1  -7   3    2.87    5.32
  -1  -7   3    2.74    2.17
   1   7  -3    2.60   12.12
   1   7  -3    5.89    9.91
   1   7  -3    2.84    3.86
  -1  -7   4    2.35    7.41
  -1  -7   4    3.37   12.51
  -1  -7   4   -0.59    7.37
  -1  -7   4    0.69    4.82
  -1  -7   4    2.39    2.97
   1   7  -4    1.50   14.73
   1   7  -4    6.10   10.94
   1   7  -4    2.53    6.14
  -1  -7   5  446.49  143.84
  -1  -7   5 1046.19  154.64
  -1  -7   5  447.44  149.10
  -1  -7   5  955.69  141.43
  -1  -7   5  581.15  141.05
   1   7  -5  914.95  161.17
   1   7  -5  699.92  141.35
  -1  -7   6   19.90   21.66
  -1  -7   6   17.55    7.60
   1   7  -6   14.17   23.20
   1   7  -6   19.59   20.31
  -1  -7   7  176.43   41.60
  -1  -7   7  140.13   29.24
   1   7  -7  128.56   54.83
   1   7  -7   96.61   43.90
  -1  -7   8   40.33   18.49
  -1  -7   8   39.91   22.42
  -1  -7   8   30.95    9.85
   1   7  -8   -0.18   25.12
   1   7  -8   26.52   30.20
  -1  -7   9  399.31   81.68
  -1  -7   9    1.41   77.66
   1   7  -9  407.39   84.09
  -1  -7  10   60.81   23.54
  -1  -7  10    1.13   23.20
   1   7 -10   -0.21   29.61
   1   7 -10   75.29   31.94
  -1  -6   1   56.74   12.98
  -1  -6   1   67.33   13.08
   1   6  -1   77.06   33.66
   1   6  -1   44.45   18.87
   1   6  -1   67.43   13.03
  -1  -6   2 1237.81  226.93
  -1  -6   2  812.57  235.87
  -1  -6   2 1217.87  236.10
   1   6  -2 1330.20  248.74
   1   6  -2 1145.42  235.93
  -1  -6   3   33.19   17.84
  -1  -6   3   52.45   16.34
  -1  -6   3   41.72   13.07
  -1  -6   3   22.30    7.28
  -1  -6   3   36.05    7.40
   1   6  -3   39.72   25.89
   1   6  -3   58.39   16.43
   1   6  -3   35.91    8.48
  -1  -6   4  111.63   23.55
  -1  -6   4   75.25   19.88
  -1  -6   4   62.17   13.96
  -1  -6   4   58.13   13.65
   1   6  -4   65.78   35.08
   1   6  -4   53.02   21.65
   1   6  -4   64.06   14.55
  -1  -6   5   58.59   28.13
  -1  -6   5  104.20   24.86
  -1  -6   5   72.09   22.25
  -1  -6   5   97.27   15.95
  -1  -6   5   70.26   15.47
   1   6  -5   73.82   37.32
   1   6  -5   55.21   15.51
  -1  -6   6  392.23  131.12
  -1  -6   6  614.28  137.30
  -1  -6   6  482.08  133.71
  -1  -6   6 1071.76  126.09
  -1  -6   6  524.64  125.51
   1   6  -6  614.13  147.74
   1   6  -6  501.56  136.25
   1   6  -6  374.91  125.27
  -1  -6   7   31.16   15.62
  -1  -6   7   29.11    8.31
   1   6  -7   11.62   25.60
   1   6  -7   19.89   15.23
  -1  -6   8   35.23   18.05
  -1  -6   8   27.11    9.17
   1   6  -8   26.28   26.26
   1   6  -8   23.75   23.23
  -1  -6   9   33.63   17.80
  -1  -6   9   23.03    8.83
   1   6  -9   32.97   27.42
   1   6  -9   27.25   21.87
  -1  -6  10    2.72   37.58
   1   6 -10   -8.93   52.60
  -1  -6  11    2.45    8.67
  -1  -6  11   -9.04   18.46
   1   6 -11    1.39   13.99
   1   6 -11    4.08   26.47
  -1  -5   1 1125.10  230.92
  -1  -5   1 1056.71  252.15
  -1  -5   1 1146.29  242.23
  -1  -5   1 1222.04  242.36
   1   5  -1 1157.78  250.97
   1   5  -1 1207.77  242.19
  -1  -5   2   14.60    9.52
  -1  -5   2   11.68    6.17
  -1  -5   2    9.75    2.89
  -1  -5   2   11.82    2.32
   1   5  -2    5.18   14.43
   1   5  -2   11.20    8.35
   1   5  -2   10.77    2.85
  -1  -5   3  321.59   77.06
  -1  -5   3  231.45   75.24
  -1  -5   3  329.11   72.86
  -1  -5   3  301.45   66.67
  -1  -5   3  334.74   66.77
   1   5  -3  276.89   93.13
   1   5  -3  368.10   75.50
   1   5  -3  341.23   66.63
  -1  -5   4  938.65  178.76
  -1  -5   4 1594.87  192.11
  -1  -5   4 1035.51  188.19
  -1  -5   4  608.86  178.50
  -1  -5   4  884.34  178.68
   1   5  -4  846.35  196.97
   1   5  -4 1128.08  190.74
   1   5  -4  581.79  178.35
  -1  -5   5  388.91   91.07
  -1  -5   5  550.00   90.69
  -1  -5   5  440.68   87.67
  -1  -5   5  450.81   80.35
  -1  -5   5  380.45   80.27
   1   5  -5  287.05  105.69
   1   5  -5  299.76   89.23
   1   5  -5  259.37   80.08
  -1  -5   6   81.14   31.60
  -1  -5   6   72.71   26.28
  -1  -5   6   67.19   23.93
  -1  -5   6  112.54   17.68
   1   5  -6  118.07   41.22
   1   5  -6   65.55   26.24
   1   5  -6   44.42   17.45
  -1  -5   7   40.69   24.86
  -1  -5   7   74.94   22.34
  -1  -5   7   83.94   13.00
   1   5  -7   74.85   34.27
   1   5  -7   42.74   21.77
   1   5  -7   22.44   12.21
  -1  -5   8  243.86   59.63
  -1  -5   8  251.66   49.87
   1   5  -8  177.73   75.20
   1   5  -8  231.57   59.66
  -1  -5   9  191.75   44.29
  -1  -5   9  168.81   34.37
   1   5  -9   92.52   58.13
   1   5  -9  166.13   44.44
  -1  -5  10   43.50   18.42
  -1  -5  10   -1.79    9.06
   1   5 -10   19.57   22.59
   1   5 -10   44.17   24.82
  -1  -5  11   -0.68   16.65
   1   5 -11   -0.02   27.37
   1   5 -11   90.58   25.23
  -1  -5  12   37.91   19.14
  -1  -5  12   -1.33   19.48
   1   5 -12   10.27   26.71
   1   5 -12   32.55   27.75
  -1  -4   1 2069.18  403.04
  -1  -4   1 2421.06  450.90
  -1  -4   1 1747.15  435.76
  -1  -4   1 2299.42  435.95
   1   4  -1 2006.26  417.13
   1   4  -1 1675.01  452.56
   1   4  -1 2075.22  435.74
  -1  -4   2 1521.63  277.49
  -1  -4   2 1722.48  306.02
  -1  -4   2 1512.75  303.47
  -1  -4   2 1088.03  291.61
  -1  -4   2 1493.62  291.75
   1   4  -2 1291.05  292.39
   1   4  -2 1395.61  305.36
   1   4  -2 1342.49  291.55
  -1  -4   3   72.52   26.83
  -1  -4   3  122.70   22.12
  -1  -4   3   90.87   19.93
  -1  -4   3   50.21   14.20
  -1  -4   3   76.74   14.33
   1   4  -3   77.88   35.08
   1   4  -3   56.26   20.98
   1   4  -3   56.94   14.21
  -1  -4   4 1071.05  205.51
  -1  -4   4  981.37  218.59
  -1  -4   4 1222.10  208.28
   1   4  -4  480.66  222.15
   1   4  -4 1287.62  220.84
   1   4  -4  695.08  207.97
  -1  -4   5    3.98    6.57
  -1  -4   5    2.83    9.16
  -1  -4   5    2.42    6.43
  -1  -4   5    1.49    2.11
   1   4  -5    1.12   11.41
   1   4  -5    0.98    7.62
   1   4  -5    3.44    3.52
  -1  -4   6  810.15  175.61
  -1  -4   6 1268.58  186.52
  -1  -4   6  686.12  183.54
  -1  -4   6  917.28  173.87
   1   4  -6  874.21  192.92
   1   4  -6  849.66  185.55
   1   4  -6  618.77  173.58
  -1  -4   7    3.81   13.15
  -1  -4   7    2.89   11.15
  -1  -4   7    7.78   11.00
  -1  -4   7    4.22    3.86
   1   4  -7    6.60   14.67
   1   4  -7    7.41   12.00
   1   4  -7    3.55    5.59
  -1  -4   8   20.03   12.68
  -1  -4   8   23.90    5.33
   1   4  -8   12.40   20.31
   1   4  -8   11.98   12.50
   1   4  -8    1.50    5.83
  -1  -4   9  780.52  156.77
  -1  -4   9  686.32  144.49
   1   4  -9  511.22  165.02
   1   4  -9  814.14  157.24
  -1  -4  10   92.96   22.90
   1   4 -10  103.99   46.98
   1   4 -10  141.38   33.65
  -1  -4  11   23.76   16.08
  -1  -4  11    1.15    8.46
   1   4 -11   13.84   22.00
   1   4 -11   24.44   17.31
  -1  -4  12   -1.98   23.31
   1   4 -12   -6.93   38.68
  -1  -4  13    2.08    8.82
  -1  -4  13    0.20   18.92
   1   4 -13   -0.53   22.23
  -1  -3   1  723.26  160.56
  -1  -3   1  929.94  171.33
  -1  -3   1  777.30  163.05
   1   3  -1  950.86  168.88
   1   3  -1  724.82  172.88
   1   3  -1  667.22  162.81
  -1  -3   2  116.77   31.82
  -1  -3   2  155.53   26.56
  -1  -3   2  112.41   24.90
  -1  -3   2   72.69   19.57
  -1  -3   2  108.40   19.68
   1   3  -2  105.47   37.89
   1   3  -2   81.08   26.02
   1   3  -2   58.92   19.42
  -1  -3   3   64.15   21.09
  -1  -3   3   46.17   15.75
  -1  -3   3   41.50   14.68
  -1  -3   3   42.35    9.28
   1   3  -3   48.71   26.54
   1   3  -3   55.05   15.81
   1   3  -3   33.78    9.11
  -1  -3   4 1108.72  188.48
  -1  -3   4  820.41  199.94
  -1  -3   4 1157.00  188.77
   1   3  -4  540.56  201.62
   1   3  -4  743.62  199.91
   1   3  -4  583.45  188.46
  -1  -3   5  590.10  117.43
  -1  -3   5  739.44  118.86
  -1  -3   5  396.58  117.06
  -1  -3   5  590.84  108.83
   1   3  -5  492.13  131.57
   1   3  -5  521.99  118.38
   1   3  -5  350.51  108.56
  -1  -3   6  102.86   32.54
  -1  -3   6   87.86   25.62
  -1  -3   6   66.48   24.56
  -1  -3   6  105.75   18.45
   1   3  -6   68.92   41.94
   1   3  -6  103.48   26.66
   1   3  -6   62.38   18.34
  -1  -3   7   38.70   19.21
  -1  -3   7   37.32   15.76
  -1  -3   7   28.36   14.74
  -1  -3   7   48.06    7.70
   1   3  -7   28.35   25.80
   1   3  -7   30.94   15.98
   1   3  -7   13.34    7.75
  -1  -3   8  114.57   40.04
  -1  -3   8  149.64   34.57
  -1  -3   8   60.84   33.65
  -1  -3   8  176.90   25.76
   1   3  -8  144.04   50.64
   1   3  -8  140.89   34.74
   1   3  -8   40.69   25.25
  -1  -3   9  771.75  137.10
  -1  -3   9  525.93  125.57
   1   3  -9  703.09  149.16
   1   3  -9  629.70  136.83
  -1  -3  10  385.16   93.29
  -1  -3  10  381.95   82.90
   1   3 -10  425.99  108.79
   1   3 -10  425.37   94.18
  -1  -3  11   68.53   25.40
  -1  -3  11   57.36   14.70
   1   3 -11   55.62   35.28
   1   3 -11   71.59   26.10
  -1  -3  12  277.81   59.86
   1   3 -12  144.24   73.91
   1   3 -12  276.24   60.59
  -1  -3  13    6.95   16.18
   1   3 -13   -0.87   22.96
  -1  -2   1 2339.30  490.61
   1   2  -1 2892.99  495.98
  -1  -2   2   73.81   22.33
  -1  -2   2   51.64   16.56
  -1  -2   2   41.78   16.09
  -1  -2   2   62.25   10.91
   1   2  -2   48.19   16.67
   1   2  -2   33.42   10.68
  -1  -2   3 2169.31  357.52
  -1  -2   3 2083.12  395.75
  -1  -2   3 1278.35  395.18
  -1  -2   3 2037.98  379.95
   1   2  -3 2109.09  367.14
   1   2  -3 1571.41  395.67
   1   2  -3 1229.45  379.75
  -1  -2   4  259.83   55.27
  -1  -2   4  205.15   48.80
  -1  -2   4  154.60   48.48
  -1  -2   4  219.35   41.59
   1   2  -4  200.26   63.29
   1   2  -4  144.10   41.42
  -1  -2   5  801.08  137.60
  -1  -2   5  775.64  140.96
  -1  -2   5  474.67  140.15
  -1  -2   5  752.43  130.99
   1   2  -5  416.54  149.20
   1   2  -5  720.60  141.08
   1   2  -5  378.78  130.72
  -1  -2   6  166.07   47.61
  -1  -2   6  187.41   40.63
  -1  -2   6  130.20   40.08
  -1  -2   6  204.81   33.10
   1   2  -6  212.92   58.44
   1   2  -6   76.19   32.75
  -1  -2   7    2.62    7.53
  -1  -2   7    4.37   10.09
  -1  -2   7    3.72    2.11
   1   2  -7    1.36    9.99
   1   2  -7    2.32    3.43
  -1  -2   8  494.91  110.35
  -1  -2   8  665.31  110.46
  -1  -2   8  235.27  108.50
  -1  -2   8  648.04  100.43
   1   2  -8  416.90  125.61
   1   2  -8  647.09  110.74
   1   2  -8  221.49   99.90
  -1  -2   9  155.22   35.91
  -1  -2   9  164.40   27.23
   1   2  -9  179.26   52.90
   1   2  -9  159.76   35.82
   1   2  -9   35.91   26.78
  -1  -2  10  350.47   71.81
  -1  -2  10  257.89   62.34
   1   2 -10  364.52   90.34
   1   2 -10  338.48   72.19
  -1  -2  11   70.40   25.63
  -1  -2  11   77.62   16.01
   1   2 -11   91.75   38.28
   1   2 -11   88.96   26.95
   1   2 -11   25.48   16.23
  -1  -2  12    2.63   13.10
  -1  -2  12    0.04    4.68
   1   2 -12   -0.90   13.18
   1   2 -12   -1.97   15.50
  -1  -2  13  169.05   39.38
   1   2 -13  103.41   54.11
  -1  -2  14   -3.55   14.46
   1   2 -14    5.35   22.36
  -1  -1   1 2184.93  473.29
  -1  -1   1 1483.25  474.13
   1   1  -1 2368.59  424.01
   1   1  -1 2285.98  474.13
  -1  -1   2   23.83   13.93
  -1  -1   2   23.22    9.23
  -1  -1   2   28.62    9.79
  -1  -1   2   20.40    4.54
   1   1  -2   28.71   15.76
   1   1  -2   32.32    9.80
   1   1  -2   29.54    9.57
  -1  -1   3 1030.31  195.59
  -1  -1   3  850.01  208.86
  -1  -1   3  889.16  209.46
  -1  -1   3  967.66  198.36
   1   1  -3  836.75  202.40
   1   1  -3 1004.36  209.31
  -1  -1   4  358.11   65.65
  -1  -1   4  258.94   59.83
  -1  -1   4  326.76   60.71
  -1  -1   4  307.07   52.85
   1   1  -4  223.53   72.53
   1   1  -4  165.60   60.21
   1   1  -4  134.83   52.66
  -1  -1   5 2029.00  303.09
  -1  -1   5 1604.58  330.67
  -1  -1   5 1555.24  331.14
  -1  -1   5 1705.99  316.60
   1   1  -5 1572.64  314.49
   1   1  -5 1962.11  331.99
   1   1  -5 1587.93  330.98
   1   1  -5  756.79  316.38
  -1  -1   6   11.07   10.11
  -1  -1   6   12.66    7.93
  -1  -1   6    6.98    8.54
  -1  -1   6    9.08    2.34
   1   1  -6    4.44   13.49
   1   1  -6   11.62    8.21
   1   1  -6    7.29    2.90
  -1  -1   7  158.16   46.46
  -1  -1   7  155.61   38.87
  -1  -1   7  171.82   39.62
  -1  -1   7  171.25   31.71
   1   1  -7  132.53   56.48
   1   1  -7  216.82   39.83
   1   1  -7  105.20   31.58
  -1  -1   8  545.09  124.73
  -1  -1   8  589.10  126.02
  -1  -1   8  506.07  125.98
  -1  -1   8  675.98  116.36
   1   1  -8  596.32  141.15
   1   1  -8  767.28  127.07
   1   1  -8  335.87  116.04
  -1  -1   9  724.86  148.75
  -1  -1   9  829.68  153.63
  -1  -1   9  417.42  153.31
  -1  -1   9  881.91  143.00
   1   1  -9  693.07  165.27
   1   1  -9  764.36  153.99
   1   1  -9  381.91  142.55
  -1  -1  10   30.19   13.43
  -1  -1  10   33.57    7.29
   1   1 -10   22.24   25.95
   1   1 -10   25.43   13.26
   1   1 -10   17.74    7.91
   1   1 -10    7.96    7.30
  -1  -1  11  980.40  196.03
  -1  -1  11  971.04  184.11
   1   1 -11 1248.35  203.56
   1   1 -11  433.72  183.53
  -1  -1  12   30.86   17.59
  -1  -1  12   16.34    6.72
   1   1 -12   18.15   22.46
   1   1 -12   17.65   13.86
  -1  -1  13  211.58   54.55
   1   1 -13  218.58   72.91
  -1  -1  14   93.76   34.37
   1   1 -14  127.15   49.80
  -1   0   1    0.50    1.77
  -1   0   1    0.91    0.57
   1   0  -1    0.60    2.89
   1   0  -1    0.51    2.13
   1   0  -1    1.46    0.19
   1   0  -1    0.45    0.12
  -1   0   2  436.54   84.41
  -1   0   2  223.87   83.14
  -1   0   2  403.95   84.38
  -1   0   2  345.92   76.90
   1   0  -2  435.07   87.58
   1   0  -2  486.74   84.18
   1   0  -2  291.60   76.63
   1   0  -2  364.59   76.90
  -1   0   3 1267.43  214.76
  -1   0   3 1135.60  231.17
  -1   0   3 1147.87  232.15
  -1   0   3  982.71  220.55
   1   0  -3 1132.19  220.36
   1   0  -3  829.43  231.76
   1   0  -3  810.50  220.29
   1   0  -3 1115.30  220.54
  -1   0   4  917.02  163.02
  -1   0   4  774.05  170.37
  -1   0   4  582.30  171.05
  -1   0   4  799.97  161.02
   1   0  -4  507.46  170.05
   1   0  -4  653.14  171.15
   1   0  -4  712.11  160.79
   1   0  -4  854.23  161.01
  -1   0   5   80.13   26.59
  -1   0   5   62.23   19.01
  -1   0   5   74.71   20.01
  -1   0   5   62.55   13.36
   1   0  -5   71.44   19.47
   1   0  -5   57.88   13.39
  -1   0   6  146.71   42.39
  -1   0   6  142.31   34.44
  -1   0   6  116.18   35.10
  -1   0   6  129.06   27.94
   1   0  -6   75.62   49.67
   1   0  -6  152.53   36.10
   1   0  -6  151.70   27.99
  -1   0   7  679.50  139.04
  -1   0   7  635.22  141.66
  -1   0   7  737.67  142.84
  -1   0   7  702.73  132.36
   1   0  -7  565.46  152.14
   1   0  -7  534.78  142.89
   1   0  -7  704.20  142.33
   1   0  -7  514.41  132.23
  -1   0   8  486.38  109.55
  -1   0   8  539.73  108.45
  -1   0   8  430.02  109.15
  -1   0   8  543.16   99.57
   1   0  -8  306.49  123.48
   1   0  -8  660.85  111.06
   1   0  -8  621.75  109.28
   1   0  -8  408.32   99.34
   1   0  -8  386.43   99.38
  -1   0   9  379.28   86.44
  -1   0   9  425.85   82.87
  -1   0   9  413.50   74.08
   1   0  -9  406.92  101.75
   1   0  -9  320.32   73.92
   1   0  -9  239.62   73.77
  -1   0  10    6.19    9.58
  -1   0  10    7.07    4.94
   1   0 -10    6.45   14.96
   1   0 -10    5.99    6.22
  -1   0  11   64.15   19.47
  -1   0  11   46.23   11.34
   1   0 -11   57.50   34.68
   1   0 -11   46.84   14.76
  -1   0  12  336.42   79.82
  -1   0  12  337.02   70.99
   1   0 -12  388.49   98.48
   1   0 -12  312.09   72.63
  -1   0  13  140.87   25.37
   1   0 -13  234.74   40.84
   1   0 -13   85.52   20.22
  -1   0  14    2.36   15.43
   1   0 -14   -2.36   13.81
  -1   0  15    8.86   18.12
   1   0 -15   -2.81   19.05
  -1   1   1  176.62   49.04
  -1   1   1  169.55   45.38
  -1   1   1  218.01   40.87
   1  -1  -1  224.75   49.90
   1  -1  -1  196.91   45.64
   1  -1  -1  181.13   40.86
   1  -1  -1  213.64   41.06
  -1   1   2 1303.82  272.45
  -1   1   2 1538.74  300.59
  -1   1   2 1349.62  289.12
  -1   1   2 1382.81  289.33
   1  -1  -2 1731.56  276.19
   1  -1  -2 1012.04  301.03
   1  -1  -2 1298.62  289.11
   1  -1  -2 1365.48  289.36
  -1   1   3 2052.48  402.12
  -1   1   3 1725.70  447.94
  -1   1   3 2382.14  449.36
   1  -1  -3 2505.30  407.62
   1  -1  -3 2060.49  448.81
   1  -1  -3 1822.82  432.40
  -1   1   4 2316.29  358.99
  -1   1   4 1061.58  396.25
  -1   1   4 1728.14  397.69
  -1   1   4 1794.83  382.06
   1  -1  -4 1843.86  366.29
   1  -1  -4 1784.87  397.47
  -1   1   5  815.40  154.25
  -1   1   5  557.94  159.67
  -1   1   5  563.85  160.80
  -1   1   5  676.89  150.93
   1  -1  -5  932.25  163.30
   1  -1  -5  747.64  161.01
   1  -1  -5  643.99  150.73
   1  -1  -5  775.10  150.94
  -1   1   6  600.27  123.15
  -1   1   6  692.84  124.13
  -1   1   6  381.78  124.61
  -1   1   6  531.50  115.54
   1  -1  -6  463.22  133.29
   1  -1  -6  461.66  124.91
   1  -1  -6  445.99  115.31
   1  -1  -6  659.90  115.59
  -1   1   7  395.39   85.55
  -1   1   7  307.32   81.05
  -1   1   7  385.81   82.46
  -1   1   7  340.39   73.58
   1  -1  -7  233.42   96.36
   1  -1  -7  312.99   82.45
   1  -1  -7  292.71   73.41
   1  -1  -7  428.99   73.68
  -1   1   8 1069.69  218.20
  -1   1   8  991.40  233.67
  -1   1   8 1043.59  221.07
   1  -1  -8 1225.09  234.32
   1  -1  -8 1419.19  235.07
   1  -1  -8  864.77  220.87
   1  -1  -8 1074.01  221.06
  -1   1   9  143.10   41.69
  -1   1   9  191.05   34.14
  -1   1   9  107.96   34.73
  -1   1   9  127.25   26.63
   1  -1  -9   58.20   52.10
   1  -1  -9   97.01   35.35
   1  -1  -9  119.06   26.84
   1  -1  -9  129.51   26.70
  -1   1  10   45.01   16.54
  -1   1  10   33.93   24.05
  -1   1  10   60.49    9.84
   1  -1 -10   56.49   30.26
   1  -1 -10   38.62   19.91
   1  -1 -10   44.11   11.61
   1  -1 -10   20.68    9.32
  -1   1  11  158.89   34.02
  -1   1  11  113.48   25.32
   1  -1 -11  131.98   53.03
   1  -1 -11  102.30   27.68
  -1   1  12   79.84   22.33
  -1   1  12   59.77   14.45
   1  -1 -12   81.23   38.02
   1  -1 -12   59.24   19.86
  -1   1  13  112.43   24.35
   1  -1 -13  206.43   42.73
   1  -1 -13  128.87   25.62
  -1   1  14    0.32   12.01
   1  -1 -14    2.28   14.46
  -1   1  15  199.49   50.45
   1  -1 -15  182.75   70.41
   1  -2  -1  711.03  157.22
  -1   2   1  620.76  138.45
  -1   2   1  813.93  148.12
  -1   2   1  748.62  140.95
  -1   2   1  740.10  141.10
   1  -2  -1  522.75  139.48
   1  -2  -1  510.97  148.03
   1  -2  -1  777.28  141.12
  -1   2   2    2.56    4.10
  -1   2   2    2.15    1.49
  -1   2   2    2.53    0.85
   1  -2  -2    3.36    4.99
   1  -2  -2    2.32    3.05
   1  -2  -2    3.40    1.33
   1  -2  -2    2.91    0.97
  -1   2   3  628.91  124.30
  -1   2   3  612.77  128.61
  -1   2   3  576.77  121.39
  -1   2   3  567.51  121.57
   1  -2  -3  752.73  129.38
   1  -2  -3  364.78  129.00
   1  -2  -3  533.78  121.36
   1  -2  -3  568.14  121.58
  -1   2   4 1661.47  253.08
  -1   2   4  902.40  274.90
  -1   2   4 1223.64  276.49
  -1   2   4 1182.66  264.05
   1  -2  -4 1315.18  260.21
   1  -2  -4 1150.08  275.90
   1  -2  -4 1241.71  263.87
   1  -2  -4 1244.57  264.06
  -1   2   5 2155.80  370.75
  -1   2   5 2137.45  409.96
  -1   2   5 1903.08  411.27
  -1   2   5 1592.75  395.07
   1  -2  -5 2163.58  380.31
   1  -2  -5 2059.32  411.04
   1  -2  -5 1707.18  394.89
   1  -2  -5 1896.31  395.10
  -1   2   6 1772.74  296.44
  -1   2   6 1057.62  322.96
  -1   2   6 1706.70  324.93
  -1   2   6 1389.67  310.36
   1  -2  -6 1142.69  307.41
   1  -2  -6 1682.78  324.77
   1  -2  -6 1251.90  310.15
   1  -2  -6 1692.57  310.42
  -1   2   7  692.93  134.18
  -1   2   7  461.27  136.04
  -1   2   7  585.88  137.79
  -1   2   7  595.29  127.83
   1  -2  -7  365.89  145.78
   1  -2  -7  764.44  138.33
   1  -2  -7  586.59  127.70
   1  -2  -7  688.55  127.88
  -1   2   8  208.07   54.48
  -1   2   8  109.48   46.50
  -1   2   8  162.21   48.39
  -1   2   8  191.28   40.52
   1  -2  -8  154.22   65.13
   1  -2  -8  199.74   49.11
   1  -2  -8  192.73   40.54
   1  -2  -8  238.01   40.63
  -1   2   9    0.13    7.84
  -1   2   9    2.98    7.52
  -1   2   9    0.42   10.59
  -1   2   9    0.57    3.16
   1  -2  -9    0.03   10.25
   1  -2  -9   -1.11   12.31
   1  -2  -9    0.57    4.82
   1  -2  -9    3.05    3.11
  -1   2  10  122.16   40.79
  -1   2  10   84.41   33.12
  -1   2  10  105.00   38.38
  -1   2  10  143.03   26.37
   1  -2 -10  117.61   52.45
   1  -2 -10  171.89   36.90
   1  -2 -10  111.84   26.58
   1  -2 -10  126.56   26.39
  -1   2  11  144.63   37.95
  -1   2  11  151.15   30.38
   1  -2 -11  166.60   58.04
   1  -2 -11  117.20   30.46
  -1   2  12  285.21   91.93
   1  -2 -12  737.23  113.60
   1  -2 -12  309.98   83.70
  -1   2  13   -0.47   10.53
  -1   2  13   -2.19    5.66
   1  -2 -13   -0.68   14.30
   1  -2 -13   -0.10   15.27
  -1   2  14   -0.64   11.01
   1  -2 -14   -3.18   12.88
  -1   2  15  111.73   28.97
   1  -2 -15   56.30   43.13
   1  -2 -16   73.66   42.09
  -1   3   1  202.91   53.47
  -1   3   1  250.15   51.30
  -1   3   1  226.37   46.55
   1  -3  -1  186.78   54.43
   1  -3  -1  238.27   55.46
   1  -3  -1  254.54   51.34
   1  -3  -1  217.40   46.54
   1  -3  -1  251.69   46.72
  -1   3   2 1881.90  379.12
  -1   3   2 1824.62  425.31
  -1   3   2 2134.62  411.42
   1  -3  -2 2198.23  382.88
   1  -3  -2 1799.29  425.52
   1  -3  -2 2030.14  411.25
   1  -3  -2 1843.43  411.40
  -1   3   3  465.91  130.77
  -1   3   3  609.19  123.93
  -1   3   3  585.40  124.09
   1  -3  -3  758.79  130.94
   1  -3  -3  617.49  131.47
   1  -3  -3  577.93  123.92
   1  -3  -3  572.81  124.10
  -1   3   4  542.37  107.62
  -1   3   4  508.25  109.06
  -1   3   4  501.56  102.30
  -1   3   4  492.24  102.46
   1  -3  -4  451.22  114.50
   1  -3  -4  336.48  109.55
   1  -3  -4  496.52  102.31
   1  -3  -4  500.96  102.47
  -1   3   5  483.71   92.08
  -1   3   5  395.35   90.16
  -1   3   5  378.94   91.73
  -1   3   5  369.75   83.74
   1  -3  -5  370.31  100.18
   1  -3  -5  393.54   91.19
   1  -3  -5  374.95   83.59
   1  -3  -5  414.44   83.78
  -1   3   6  746.94  152.73
  -1   3   6  706.01  158.64
  -1   3   6  879.46  160.64
  -1   3   6  649.05  150.19
   1  -3  -6  654.48  163.51
   1  -3  -6  791.56  160.08
   1  -3  -6  664.26  150.05
   1  -3  -6  770.36  150.24
  -1   3   7 1077.18  202.11
  -1   3   7 1038.02  214.78
  -1   3   7  719.30  216.09
  -1   3   7  896.38  204.59
   1  -3  -7  787.47  214.99
   1  -3  -7 1026.42  216.43
   1  -3  -7  897.90  204.45
   1  -3  -7 1124.78  204.67
  -1   3   8  919.89  189.93
  -1   3   8 1059.95  200.79
  -1   3   8  905.91  202.32
  -1   3   8  835.72  190.49
   1  -3  -8  565.24  204.42
   1  -3  -8  766.06  202.10
   1  -3  -8  828.63  190.37
   1  -3  -8 1105.30  190.61
  -1   3   9  288.40   71.04
  -1   3   9  272.89   65.31
  -1   3   9  179.03   66.59
  -1   3   9  289.65   58.44
   1  -3  -9  250.28   84.70
   1  -3  -9  277.40   58.47
   1  -3  -9  297.43   58.46
  -1   3  10  501.39  134.61
  -1   3  10  602.66  137.34
  -1   3  10  516.90  138.86
  -1   3  10  648.05  128.39
   1  -3 -10  440.29  152.50
   1  -3 -10  545.22  139.72
   1  -3 -10  593.80  128.35
   1  -3 -10  750.10  128.52
  -1   3  11  642.04  130.82
  -1   3  11  609.43  121.77
   1  -3 -11  527.69  147.04
   1  -3 -11  503.77  121.77
  -1   3  12  626.02  118.11
  -1   3  12  545.46  108.88
   1  -3 -12  539.21  135.15
   1  -3 -12  374.10  108.96
  -1   3  13    0.20   12.44
  -1   3  13    0.10    4.35
   1  -3 -13    8.22   16.36
   1  -3 -13    4.10   12.07
  -1   3  14   12.41   11.63
  -1   3  14    0.89    6.00
   1  -3 -14   16.15   18.12
   1  -3 -14    7.34   14.07
  -1   3  15  200.72   49.58
   1  -3 -15  191.28   70.12
  -1   3  16   94.25   26.27
   1  -3 -16   50.41   43.61
  -1   4   1  296.49   58.65
   1  -4  -1  215.05   58.67
  -1   4   1  194.86   58.65
   1  -4  -1  235.70   61.06
   1  -4  -1  267.72   63.66
   1  -4  -1  297.28   58.88
   1  -4  -1  298.11   54.00
  -1   4   2  684.80  148.73
  -1   4   2  701.71  159.97
  -1   4   2  777.66  152.53
  -1   4   2  808.00  152.67
   1  -4  -2  880.55  152.58
   1  -4  -2  605.62  149.96
   1  -4  -2  627.06  160.05
   1  -4  -2  774.02  152.53
   1  -4  -2  731.83  152.66
  -1   4   3 1861.97  418.21
  -1   4   3 1559.82  344.10
  -1   4   3 1883.83  384.55
  -1   4   3 1755.86  371.31
   1  -4  -3 2102.22  351.10
   1  -4  -3 1541.62  384.86
   1  -4  -3 1740.62  371.32
   1  -4  -3 1800.40  371.49
   1  -4  -4 2016.65  498.04
  -1   4   4 1951.65  408.70
  -1   4   4 1706.80  457.78
  -1   4   4 2277.36  442.76
  -1   4   4 2040.99  442.88
   1  -4  -4 2848.93  418.53
   1  -4  -4 2490.23  458.82
   1  -4  -4 2053.70  442.88
  -1   4   5  261.62   55.60
  -1   4   5  224.69   50.15
  -1   4   5  223.17   44.94
  -1   4   5  218.54   45.02
   1  -4  -5  147.16   63.16
   1  -4  -5  124.49   50.73
   1  -4  -5  220.10   44.94
   1  -4  -5  223.88   45.04
  -1   4   6 1125.43  197.02
  -1   4   6 1094.10  210.48
  -1   4   6 1013.00  212.32
  -1   4   6  889.49  200.91
   1  -4  -6  844.05  208.90
   1  -4  -6  784.48  211.40
   1  -4  -6  873.26  200.76
   1  -4  -6  983.31  200.96
  -1   4   7  474.09  102.13
  -1   4   7  403.04  100.94
  -1   4   7  536.54  103.36
  -1   4   7  403.80   94.06
   1  -4  -7  481.69  102.74
   1  -4  -7  438.41   94.01
   1  -4  -7  479.86   94.14
  -1   4   8    0.99    6.04
  -1   4   8    2.94    8.36
  -1   4   8    0.61    2.17
   1  -4  -8    3.92    9.31
   1  -4  -8    1.41    8.20
   1  -4  -8    1.36    4.31
   1  -4  -8    0.50    2.79
  -1   4   9  382.61   90.36
  -1   4   9  304.96   86.81
  -1   4   9  318.03   88.95
  -1   4   9  368.94   79.95
   1  -4  -9  471.91  106.26
   1  -4  -9  319.46   79.87
   1  -4  -9  456.73   80.10
  -1   4  10  277.64   72.63
  -1   4  10  341.06   67.70
  -1   4  10  153.44   68.39
  -1   4  10  312.82   60.32
   1  -4 -10  194.52   88.47
   1  -4 -10  191.22   69.30
   1  -4 -10  290.83   60.43
   1  -4 -10  319.09   60.35
  -1   4  11   73.79   19.74
  -1   4  11   61.67   13.14
   1  -4 -11   54.57   37.33
   1  -4 -11   54.73   14.23
  -1   4  12   34.59   15.01
  -1   4  12   26.16    7.74
   1  -4 -12   34.05   29.66
   1  -4 -12   24.39   12.99
  -1   4  13   91.82   28.39
  -1   4  13  103.57   21.88
   1  -4 -13  148.50   48.76
   1  -4 -13   81.82   24.45
  -1   4  14  530.83   50.83
   1  -4 -14  445.95   72.14
   1  -4 -14  233.57   43.08
  -1   4  15   88.86   26.35
   1  -4 -15   84.38   44.00
  -1   4  16   90.96   27.83
   1  -4 -16   76.81   47.80
  -1   5   1  406.22   90.09
   1  -5  -1  447.26   90.23
   1  -5  -1  399.24   90.88
  -1   5   1  333.83   87.43
   1  -5  -1  344.97   86.39
   1  -5  -1  446.57   91.61
   1  -5  -1  384.23   87.43
  -1   5   2 1006.90  198.51
   1  -5  -2  792.90  198.49
  -1   5   2  749.83  170.36
  -1   5   2  810.59  185.05
  -1   5   2  829.50  176.90
   1  -5  -2  983.64  174.42
   1  -5  -2  839.70  173.35
   1  -5  -2  720.36  185.12
   1  -5  -2  860.65  176.93
  -1   5   3  982.66  243.75
  -1   5   3 1216.29  269.32
  -1   5   3 1257.34  259.04
  -1   5   3 1302.64  259.20
   1  -5  -3 1549.46  251.34
   1  -5  -3 1187.76  269.68
   1  -5  -3 1305.51  259.20
  -1   5   4  735.33  152.33
  -1   5   4  722.64  144.81
  -1   5   4  659.57  144.91
   1  -5  -4  908.84  152.98
   1  -5  -4  589.19  152.85
   1  -5  -4  664.55  144.78
   1  -5  -4  654.07  144.92
  -1   5   5 1862.92  344.39
  -1   5   5 1510.52  383.27
  -1   5   5 1983.17  370.07
  -1   5   5 1952.77  370.17
   1  -5  -5 1082.87  356.61
   1  -5  -5  910.00  383.86
   1  -5  -5 2021.42  370.08
   1  -5  -5 1900.98  370.16
  -1   5   6   78.86   26.00
  -1   5   6   66.58   19.07
  -1   5   6   73.56   14.94
  -1   5   6   70.37   14.80
   1  -5  -6   63.96   33.17
   1  -5  -6   62.73   20.31
   1  -5  -6   72.26   14.99
   1  -5  -6   71.94   14.84
  -1   5   7 1166.71  229.11
  -1   5   7 1087.71  247.51
  -1   5   7 1133.22  249.77
  -1   5   7 1127.15  237.23
   1  -5  -7 1208.77  249.25
   1  -5  -7 1036.89  237.08
   1  -5  -7 1168.28  237.26
  -1   5   8   43.85   18.46
  -1   5   8   39.23   12.54
  -1   5   8   37.56   15.32
  -1   5   8   34.52    7.76
   1  -5  -8   22.25   25.29
   1  -5  -8   45.47   15.02
   1  -5  -8   29.79    8.61
   1  -5  -8   37.55    7.99
  -1   5   9  482.72  121.03
  -1   5   9  505.41  122.51
  -1   5   9  464.61  125.01
  -1   5   9  559.89  114.95
   1  -5  -9  550.98  125.33
   1  -5  -9  549.20  114.96
   1  -5  -9  620.39  115.04
  -1   5  10  226.91   51.58
  -1   5  10  165.07   59.37
  -1   5  10  247.72   53.51
  -1   5  10  175.55   56.37
   1  -5 -10  143.67   74.95
   1  -5 -10  184.88   56.43
   1  -5 -10  238.30   47.39
   1  -5 -10  287.97   47.37
  -1   5  11 1648.54  314.35
  -1   5  11 1349.17  301.25
   1  -5 -11 1540.02  310.23
   1  -5 -11 1413.48  301.31
  -1   5  12   17.33   10.58
  -1   5  12    9.74    4.02
   1  -5 -12    9.66    9.16
  -1   5  13   13.41   11.24
  -1   5  13   10.54    4.89
   1  -5 -13   10.78   20.67
   1  -5 -13    8.81   12.79
  -1   5  14  182.41   28.55
   1  -5 -14  248.51   48.40
   1  -5 -14  149.26   25.29
  -1   5  15  389.76   89.55
   1  -5 -15  382.97  109.81
  -1   5  16   68.84   23.81
   1  -5 -16   58.27   43.14
  -1   6   1    0.56    2.20
   1  -6  -1    0.44    1.68
  -1   6   1    1.29    2.62
  -1   6   1    0.36    3.62
   1  -6  -1   -0.12    2.32
   1  -6  -1    0.30    3.53
   1  -6  -1    0.87    3.65
   1  -6  -1    1.16    2.72
  -1   6   2 1074.57  306.27
  -1   6   2 1492.77  295.20
  -1   6   2 1577.17  295.33
   1  -6  -2 1502.25  280.07
   1  -6  -2 1544.02  281.30
   1  -6  -2  891.03  306.26
   1  -6  -2 1544.12  295.22
   1  -6  -2 1426.88  295.29
  -1   6   3    3.22    4.80
  -1   6   3    4.24    4.38
  -1   6   3    5.39    2.62
  -1   6   3    2.58    1.87
   1  -6  -3    4.80    6.61
   1  -6  -3    4.67    5.30
   1  -6  -3    4.78    4.39
   1  -6  -3    4.43    3.39
   1  -6  -3    3.08    2.37
  -1   6   4   53.13   19.17
  -1   6   4   47.68   14.35
  -1   6   4   48.66   10.58
  -1   6   4   52.49   10.57
   1  -6  -4   57.02   15.02
   1  -6  -4   47.94   10.66
   1  -6  -4   48.86   10.61
  -1   6   5  122.59   38.22
  -1   6   5  152.51   33.42
  -1   6   5  157.00   28.92
  -1   6   5  148.75   28.88
   1  -6  -5   90.75   47.28
   1  -6  -5  136.19   34.27
   1  -6  -5  145.89   28.80
   1  -6  -5  139.76   28.86
  -1   6   6 1298.35  294.56
  -1   6   6 1361.47  248.56
  -1   6   6  924.10  272.42
   1  -6  -6 1368.97  264.40
   1  -6  -6  829.82  273.48
   1  -6  -6 1310.22  261.99
   1  -6  -6 1339.81  262.09
  -1   6   7  452.54   95.34
  -1   6   7  384.70   94.95
  -1   6   7  420.85   88.74
   1  -6  -7  346.51  109.75
   1  -6  -7  426.12   96.87
   1  -6  -7  435.90   88.74
   1  -6  -7  439.37   88.78
  -1   6   8  341.45   85.94
  -1   6   8  362.51   83.74
  -1   6   8  451.74   86.81
  -1   6   8  371.69   77.48
   1  -6  -8  219.33  101.10
   1  -6  -8  367.10   85.76
   1  -6  -8  376.93   77.50
   1  -6  -8  409.69   77.56
   1  -6  -9  327.64   75.68
  -1   6   9  302.84   78.26
  -1   6   9  331.24   74.66
  -1   6   9  310.43   77.39
  -1   6   9  326.59   68.39
   1  -6  -9  449.70   95.46
   1  -6  -9  278.24   76.93
   1  -6  -9  331.41   68.49
  -1   6  10  704.16  159.89
  -1   6  10  791.93  167.26
  -1   6  10  823.13  158.52
   1  -6 -10  418.50  180.29
   1  -6 -10  740.12  158.48
   1  -6 -10  789.26  158.52
  -1   6  11   48.00   14.34
  -1   6  11   32.19    7.72
   1  -6 -11   22.33   27.34
   1  -6 -11   32.57    8.47
  -1   6  12  297.41   61.65
  -1   6  12  243.75   54.30
   1  -6 -12  307.50   84.81
   1  -6 -12  234.25   54.80
  -1   6  13    9.43   10.61
  -1   6  13    6.15    4.18
   1  -6 -13    9.47   19.31
   1  -6 -13    4.85   12.41
  -1   6  14  244.90   28.07
   1  -6 -14  124.24   23.07
  -1   6  15   73.86   21.60
   1  -6 -15   47.15   39.28
  -1   6  16    8.67   14.33
   1  -6 -16    7.36   22.94
  -1   7   1  946.19  176.65
  -1   7   1  915.02  189.35
  -1   7   1  747.13  180.53
   1  -7  -1  802.35  175.55
   1  -7  -1 1175.94  189.12
   1  -7  -1  825.49  189.04
   1  -7  -1  792.46  180.57
   1  -7  -1  849.52  180.71
  -1   7   2  601.65  161.81
  -1   7   2  700.12  154.16
   1  -7  -2  923.68  155.51
   1  -7  -2  820.86  159.62
   1  -7  -2  502.57  161.78
   1  -7  -2  828.90  154.26
   1  -7  -2  733.04  154.28
  -1   7   3 1492.71  332.66
  -1   7   3 1162.84  276.51
  -1   7   3 1312.04  306.93
  -1   7   3 1306.11  295.61
   1  -7  -3 2043.38  285.61
   1  -7  -3 1455.72  281.21
   1  -7  -3 1529.92  307.40
   1  -7  -3 1437.19  295.68
   1  -7  -3 1295.40  295.73
  -1   7   4  225.14   47.25
  -1   7   4  195.94   50.86
  -1   7   4  203.07   48.11
  -1   7   4  231.07   43.26
   1  -7  -4  123.91   60.23
   1  -7  -4  202.01   52.65
   1  -7  -4  205.23   48.72
   1  -7  -4  233.08   43.31
   1  -7  -4  213.85   43.25
  -1   7   5  525.43  140.54
  -1   7   5  701.73  149.96
  -1   7   5  704.61  142.47
  -1   7   5  698.40  142.53
   1  -7  -5  741.58  150.98
   1  -7  -5  776.40  142.54
   1  -7  -5  723.78  142.57
  -1   7   6  986.65  208.04
  -1   7   6 1067.63  226.86
  -1   7   6 1065.98  217.35
  -1   7   6 1110.23  217.43
   1  -7  -6 1110.98  225.38
   1  -7  -6  509.72  227.38
   1  -7  -6 1173.54  217.43
   1  -7  -6 1069.21  217.42
  -1   7   7   36.46    6.72
  -1   7   7   39.12    8.25
   1  -7  -7   45.93    9.16
   1  -7  -7   34.98    8.31
  -1   7   8    2.65    7.90
  -1   7   8    3.89    5.72
  -1   7   8    7.03   10.68
  -1   7   8    3.41    2.74
   1  -7  -8    5.54   12.93
   1  -7  -8    4.01    8.62
   1  -7  -8    5.65    5.16
   1  -7  -8    3.41    3.30
   1  -7  -9   21.39    3.60
  -1   7   9   19.08   13.99
  -1   7   9   14.78    8.53
  -1   7   9   20.31   13.76
  -1   7   9   18.72    4.58
   1  -7  -9   11.79   19.48
   1  -7  -9   12.72   11.78
   1  -7  -9   15.75    4.42
  -1   7  10  301.78   92.26
  -1   7  10  481.36   90.98
  -1   7  10  419.57   84.02
   1  -7 -10  422.85  112.11
   1  -7 -10  427.50   84.18
  -1   7  11  528.56  108.11
  -1   7  11  478.35  100.64
   1  -7 -11  395.38  127.27
   1  -7 -11  475.69  100.84
  -1   7  12    1.61    9.03
  -1   7  12    2.01    3.72
   1  -7 -12    9.41   20.72
   1  -7 -12    1.91    8.03
  -1   7  13  197.63   47.13
  -1   7  13  177.68   40.67
   1  -7 -13  279.87   70.50
   1  -7 -13  180.61   41.50
  -1   7  14  313.58   40.60
   1  -7 -14  322.12   63.70
   1  -7 -14  255.93   35.26
  -1   7  15  253.39   64.35
   1  -7 -15  307.93   87.73
  -1   7  16    0.55   13.17
  -1   8   1  671.42  125.16
  -1   8   1  653.51  117.82
   1  -8  -1  604.66  120.27
   1  -8  -1  402.34  136.68
   1  -8  -1  485.71  124.48
   1  -8  -1  426.01  117.50
   1  -8  -1  591.91  117.78
  -1   8   2  275.00   71.14
   1  -8  -2  268.22   71.31
  -1   8   2  243.74   70.69
   1  -8  -2  446.61   76.76
   1  -8  -2  267.19   70.67
   1  -8  -2  335.72   65.26
   1  -8  -3  138.40   32.48
  -1   8   3  138.68   39.68
  -1   8   3  113.27   34.64
  -1   8   3  130.71   30.08
  -1   8   3  138.79   30.21
   1  -8  -3  195.27   46.71
   1  -8  -3  179.58   45.25
   1  -8  -3  139.95   35.06
   1  -8  -3  153.62   30.29
  -1   8   4   57.40   12.63
   1  -8  -4   61.57   13.68
  -1   8   4   61.55   17.75
  -1   8   4   79.20   13.81
   1  -8  -4   49.39   30.24
   1  -8  -4   69.94   25.34
   1  -8  -4   72.06   18.52
   1  -8  -4   58.32   13.87
  -1   8   5   53.59   21.16
  -1   8   5   55.23   16.55
  -1   8   5   60.10   12.82
  -1   8   5   65.11   12.48
   1  -8  -5   74.68   31.00
   1  -8  -5   52.42   22.48
   1  -8  -5   55.02   17.51
   1  -8  -5   69.12   12.96
   1  -8  -5   56.47   12.59
  -1   8   6 1708.29  367.36
  -1   8   6 1630.95  411.24
  -1   8   6 1962.31  397.32
  -1   8   6 2146.22  397.42
   1  -8  -6 1400.65  387.46
   1  -8  -6 1773.76  412.56
   1  -8  -6 2230.30  397.43
   1  -8  -6 1940.80  397.37
  -1   8   7   86.99   17.89
  -1   8   7   82.97   27.17
  -1   8   7   85.49   21.96
  -1   8   7   80.84   17.94
   1  -8  -7   55.33   23.98
   1  -8  -7   97.31   17.82
   1  -8  -7   78.11   17.34
  -1   8   8   14.38    2.00
   1  -8  -8   15.62    3.20
  -1   8   8    8.37   10.75
  -1   8   8   17.24    8.11
   1  -8  -8   20.82   21.45
   1  -8  -8   10.78   10.56
   1  -8  -8   14.49    4.09
  -1   8   9  462.80  117.95
  -1   8   9  582.92  121.93
  -1   8   9  599.99  114.72
   1  -8  -9  412.76  140.89
   1  -8  -9  608.57  114.87
  -1   8  10  143.16   40.50
  -1   8  10  166.09   35.13
   1  -8 -10  180.93   64.77
   1  -8 -10  188.04   35.80
  -1   8  11   88.35   24.69
  -1   8  11   82.86   18.44
   1  -8 -11   94.01   19.78
  -1   8  12    0.55    8.71
  -1   8  12    2.95    3.48
   1  -8 -12    6.42   19.08
   1  -8 -12    5.61    8.41
  -1   8  13  135.57   42.37
  -1   8  13  177.49   36.64
   1  -8 -13  204.69   66.16
   1  -8 -13  188.78   37.79
  -1   8  14  360.53   82.67
   1  -8 -14  359.46  105.04
  -1   8  15    6.09   10.75
   1  -8 -15   12.08   24.44
   1  -9  -1  194.25   75.21
  -1   9   1  419.81   75.58
  -1   9   1  357.59   69.00
   1  -9  -1  302.88   74.59
   1  -9  -1  367.11   68.98
  -1   9   2  159.92   40.90
   1  -9  -2  189.73   41.17
   1  -9  -2  203.32   41.97
  -1   9   2  208.82   43.93
   1  -9  -2  142.64   43.45
  -1   9   3  110.62   29.10
  -1   9   3  113.38   32.78
   1  -9  -3  132.13   33.20
   1  -9  -3  161.98   28.42
   1  -9  -3  143.87   28.23
  -1   9   4  165.62   55.78
  -1   9   4  277.00   51.22
  -1   9   4  281.53   50.99
   1  -9  -4  242.10   56.87
   1  -9  -4  214.41   50.83
   1  -9  -4  244.81   50.97
  -1   9   5 2033.66  427.28
  -1   9   5 1618.29  412.60
  -1   9   5 2083.03  412.83
   1  -9  -5 2000.41  385.96
   1  -9  -5 2499.15  428.67
   1  -9  -5 2123.80  412.82
   1  -9  -5 1694.03  412.73
  -1   9   6  171.15   56.24
  -1   9   6  245.57   54.01
  -1   9   6  207.32   48.63
  -1   9   6  281.62   48.63
   1  -9  -6  203.50   73.89
   1  -9  -6  221.78   58.46
   1  -9  -6  285.76   56.40
   1  -9  -6  278.39   48.84
   1  -9  -6  218.16   48.50
  -1   9   7   11.30    7.00
  -1   9   7    7.12    5.60
  -1   9   7    8.58    3.24
   1  -9  -7    9.30   17.77
   1  -9  -7    7.17   10.75
   1  -9  -7   10.82    5.13
   1  -9  -7    3.17    3.02
  -1   9   8    7.25    9.09
  -1   9   8   12.94    7.65
  -1   9   8   12.98    3.68
   1  -9  -8   10.19   21.33
   1  -9  -8   10.65    5.58
  -1   9   9  585.03  130.95
   1  -9  -9  515.92  130.09
  -1   9   9  583.11  124.73
   1  -9  -9  485.39  143.28
  -1   9  10  796.93  192.30
   1  -9 -10  952.87  191.43
  -1   9  10  760.93  180.24
   1  -9 -10  764.94  193.25
  -1   9  11  121.66   29.24
  -1   9  11  100.09   23.74
   1  -9 -11  149.47   53.80
   1  -9 -11  113.26   24.85
  -1   9  12   37.44   13.84
  -1   9  12   32.74    7.87
   1  -9 -12   20.69   33.15
   1  -9 -12   37.96   11.05
  -1   9  13  148.69   33.89
  -1   9  13  149.11   37.54
   1  -9 -13  139.85   60.56
   1  -9 -13  156.15   32.85
  -1   9  14  332.91   76.43
   1  -9 -14  323.04   98.94
  -1   9  15   28.31   15.61
   1  -9 -15   22.62   30.99
  -1  10   1  569.16  124.93
   1 -10  -1  551.25  117.06
  -1  10   2  305.32   52.88
   1 -10  -2  149.93   52.03
   1 -10  -2  219.80   46.69
   1 -10  -3   24.77    3.15
  -1  10   3   11.87    8.59
  -1  10   3   16.16    6.56
   1 -10  -3   18.53   10.39
   1 -10  -3   17.49    5.44
   1 -10  -4  181.56   37.70
  -1  10   4  175.57   40.62
   1 -10  -4  146.53   41.39
  -1  10   5  359.55  123.09
  -1  10   5  644.79  116.47
   1 -10  -5  577.94  116.42
  -1  10   6   -0.19    4.78
  -1  10   6    0.43    5.52
  -1  10   6    2.06    2.84
   1 -10  -6    1.56    7.60
   1 -10  -6    1.66    5.47
   1 -10  -7   40.49    6.42
  -1  10   7   24.20   15.63
  -1  10   7   37.33   12.89
  -1  10   7   34.68    7.38
  -1  10   8   63.44   27.42
  -1  10   8   83.87   22.76
  -1  10   8   89.47   17.41
   1 -10  -8   71.68   43.73
   1 -10  -8  104.76   18.63
  -1  10   9   57.68   19.02
  -1  10   9   67.61   14.24
   1 -10  -9   45.89   39.80
   1 -10  -9   83.24   15.85
  -1  10  10  485.72  127.38
  -1  10  10  600.86  120.23
   1 -10 -10  371.33  145.24
   1 -10 -10  707.15  120.68
  -1  10  11   -1.04    7.29
  -1  10  11    0.83    3.26
   1 -10 -11    0.88    8.02
  -1  10  12  106.10   24.77
  -1  10  12   86.68   19.14
   1 -10 -12   60.66   48.32
   1 -10 -12   93.18   20.86
  -1  10  13  468.45  105.50
  -1  10  14    2.70    8.77
   1 -10 -14    5.79   28.96
  -1  10  15   10.62   13.69
  -1  11   1  636.27  144.76
   1 -11  -1  657.98  136.06
  -1  11   2   57.32   15.48
   1 -11  -2   23.60    8.91
  -1  11   3   18.75   12.42
   1 -11  -3   15.05    5.67
  -1  11   4  417.05  120.00
   1 -11  -4  650.88  113.19
  -1  11   5 1602.94  377.27
   1 -11  -5 1866.19  363.83
  -1  11   6  175.87   58.18
  -1  11   6  274.42   52.78
   1 -11  -6  281.32   53.10
  -1  11   7   63.70   13.06
   1 -11  -7   58.78   12.47
  -1  11   7   59.93   18.73
  -1  11   8  249.88   46.11
   1 -11  -8  250.10   45.51
  -1  11   8  157.28   51.49
  -1  11   8  259.55   48.15
   1 -11  -8  153.11   69.23
   1 -11  -8  120.06   54.58
  -1  11   9  578.61  134.60
  -1  11   9  621.04  127.00
   1 -11  -9  381.05  150.12
   1 -11  -9  715.07  127.36
  -1  11  10  112.56   29.23
  -1  11  10  103.98   23.41
   1 -11 -10   90.31   50.04
   1 -11 -10  134.50   24.85
  -1  11  11   -1.31    7.61
  -1  11  11    1.44    3.41
   1 -11 -11   -3.78   23.26
   1 -11 -11   -0.29    8.47
  -1  11  12   53.83   16.36
   1 -11 -12   39.35   42.78
  -1  11  13  346.27   71.16
   1 -11 -13  225.76   93.96
  -1  11  14   70.04   22.56
  -1  12   1   85.51   26.34
   1 -12  -1   73.87   17.60
  -1  12   2  101.07   25.64
   1 -12  -2   77.07   18.89
  -1  12   3  292.99   57.20
   1 -12  -3  194.87   50.15
  -1  12   4  162.26   39.00
   1 -12  -4  144.66   32.39
  -1  12   5   41.66   17.97
   1 -12  -5   57.90   12.20
  -1  12   6  110.42   29.05
   1 -12  -6  110.38   24.05
  -1  12   7   11.36    2.15
   1 -12  -7   10.69    4.52
  -1  12   7   11.23   11.96
  -1  12   8  195.21   39.40
   1 -12  -8  144.99   38.24
  -1  12   8  152.17   42.53
  -1  12   9  421.60   94.64
  -1  12   9  415.65   87.73
   1 -12  -9  420.43   88.02
  -1  12  10   72.46   19.13
  -1  12  10   71.99   13.79
   1 -12 -10   28.91   39.07
   1 -12 -10   51.45   15.13
  -1  12  11   28.36   12.38
  -1  12  12  352.76   80.66
  -1  12  14    0.82   11.32
  -1  13   1   60.86   25.18
   1 -13  -1   48.19   12.98
  -1  13   2   13.69   12.95
   1 -13  -2    7.41    5.96
  -1  13   3   99.88   25.65
   1 -13  -3   73.37   18.70
   1 -13  -4  373.01   92.19
  -1  13   4  432.35   91.71
   1 -13  -5   55.76   11.78
  -1  13   5   62.52   19.68
  -1  13   6    5.54   10.21
   1 -13  -6    5.84    6.72
   1 -13  -7   31.55    5.83
  -1  13   7   17.04   14.29
  -1  13   8  250.73   56.80
  -1  13   8  216.57   57.95
   1 -13  -8  268.78   52.43
  -1  13  10   30.98   14.32
  -1  13  12  125.66   32.44
  -1  13  13   85.91   26.70
  -1  14   1   14.07   20.49
  -1  14   2    3.16   18.23
  -1  14   3  129.71   37.52
  -1  14   4  342.68   80.72
  -1  14   5   14.67   12.93
  -1  14   6   -0.82   10.82
  -1  14   7  137.20   35.97
  -1  14   8   21.71   14.08
  -1  14   9   45.15   19.57
  -1  14  10    2.36   14.36
  -1  15   3    7.74   23.59
  -1  15   4  186.78   48.42
  -1  15   5  101.17   30.50
  -1  15   6   13.05   15.96
  -1  15   7  122.45   34.63
  -1  15   8  150.38   38.97
  -1  15   9   36.44   18.19
   0  14  -1   -3.92   30.52
   0  13  -1    3.48   26.73
   0  13  -3   22.46   30.31
   0 -12   1   -0.67    5.34
   0  12  -1    2.08   20.25
   0 -12   2   -0.46    6.48
   0  12  -2   40.48   26.57
   0  12  -3   47.36   37.99
   0 -12   4   -4.34   26.48
   0  12  -4  100.78   36.72
   0  12  -5   70.77   39.21
   0 -11   1   64.34   14.64
   0  11  -1   70.59   26.35
   0 -11   2   15.73    6.70
   0  11  -2   17.10   23.58
   0 -11   3   67.79   17.05
   0  11  -3   98.28   33.89
   0 -11   4   -1.50    7.75
   0 -11   5    1.07   26.29
   0  11  -5  106.55   36.46
   0 -11   6    2.87   29.54
   0  11  -6  137.52   40.22
   0 -10   1   79.14   15.80
   0  10  -1   57.03   22.84
   0 -10   2  100.55   20.39
   0  10  -2   78.95   27.39
   0 -10   3  120.26   25.74
   0  10  -3  119.30   35.90
   0 -10   4  259.42   62.12
   0  10  -4  297.50   75.72
   0  10  -4  400.36   77.54
   0 -10   5   26.51   20.98
   0 -10   5   -1.04    7.04
   0  10  -5    8.70   15.26
   0  10  -5   15.30   21.96
   0 -10   6   22.32   13.89
   0 -10   6   -0.31   21.51
   0 -10   6   -3.66    8.51
   0  10  -6    2.16   18.94
   0  10  -6   91.09   26.84
   0 -10   7    3.27   20.34
   0 -10   8    8.02   21.60
   0  10  -8    4.35   29.27
   0  -9   1    9.42   10.19
   0  -9   1   10.93    4.44
   0  -9   1   10.15    3.82
   0   9  -1   10.47    9.40
   0   9  -1    7.71    5.77
   0  -9   2  376.63   84.53
   0  -9   2  454.32   78.54
   0  -9   2  327.24   78.29
   0   9  -2  345.00   86.61
   0   9  -2  374.95   78.44
   0  -9   3  288.34   67.91
   0  -9   3  238.79   54.73
   0   9  -3  272.11   68.44
   0   9  -3  231.58   63.06
   0  -9   4   41.96   29.20
   0  -9   4   67.32   15.10
   0   9  -4   60.40   29.26
   0   9  -4  118.98   26.36
   0  -9   5  109.80   38.72
   0  -9   5  222.43   40.09
   0  -9   5  115.11   27.36
   0   9  -5  142.06   45.25
   0   9  -5  147.31   40.24
   0  -9   6    9.69   11.38
   0  -9   6   -0.40   17.61
   0  -9   6    1.18    7.18
   0   9  -6    2.12   17.07
   0   9  -6   -1.73   18.10
   0  -9   7  212.23   37.00
   0  -9   7  208.92   36.80
   0  -9   7   -1.04   19.84
   0   9  -7    1.61   37.86
   0  -9   8   31.55   20.57
   0  -9   8    0.21   17.64
   0   9  -8   -4.27   20.72
   0   9  -8   37.15   28.93
   0  -9   9    7.06   19.71
   0   9  -9    6.37   25.89
   0  -8   1   95.44   30.41
   0  -8   1  129.50   26.30
   0  -8   1  124.93   26.30
   0   8  -1  150.46   32.67
   0   8  -1  137.96   26.47
   0  -8   2  164.60   38.88
   0  -8   2  150.03   33.99
   0  -8   2  158.35   34.00
   0   8  -2  156.24   48.00
   0   8  -2  184.87   41.19
   0   8  -2  180.05   34.36
   0  -8   3  663.70  123.44
   0  -8   3  599.45  130.17
   0  -8   3  380.08  128.01
   0  -8   3  575.73  121.13
   0  -8   3  536.09  121.11
   0   8  -3  778.85  131.22
   0   8  -3  386.67  130.24
   0   8  -3  613.32  121.29
   0  -8   4  202.59   47.19
   0  -8   4  170.74   51.99
   0  -8   4  169.86   35.96
   0  -8   4  136.41   35.82
   0   8  -4  209.12   54.17
   0   8  -4  186.88   44.53
   0   8  -4  152.90   36.46
   0  -8   5  275.07   59.53
   0  -8   5  141.17   64.06
   0  -8   5  324.49   60.78
   0  -8   5  186.92   48.19
   0   8  -5  290.43   67.76
   0   8  -5  229.89   58.30
   0  -8   6  316.49   77.71
   0  -8   6  276.25   78.31
   0  -8   6  298.52   67.51
   0   8  -6  415.36   87.33
   0   8  -6  276.90   77.87
   0  -8   7  326.30   75.49
   0  -8   7  312.32   75.70
   0  -8   7  248.09   63.79
   0   8  -7  373.35   85.27
   0   8  -7  290.10   75.20
   0  -8   8    9.31   10.88
   0  -8   8   15.91   19.48
   0  -8   8   -1.92    5.58
   0   8  -8    4.34   20.25
   0   8  -8   -0.47   19.31
   0  -8   9    6.74   13.09
   0  -8   9    3.48   18.00
   0   8  -9    0.62   23.15
   0   8  -9   28.88   25.38
   0  -8  10    6.43   26.70
   0   8 -10   82.37   36.17
   0  -7   1  508.96  127.01
   0  -7   1  586.38  124.38
   0  -7   1  566.40  117.57
   0  -7   1  599.19  117.67
   0   7  -1  532.71  123.68
   0   7  -1  546.92  117.55
   0  -7   2  871.13  146.90
   0  -7   2  844.37  156.03
   0  -7   2  363.46  155.16
   0  -7   2  521.81  147.82
   0  -7   2  736.77  148.04
   0   7  -2  858.79  154.81
   0   7  -2  576.03  157.27
   0   7  -2  784.75  148.00
   0  -7   3   24.28   13.81
   0  -7   3   23.80   17.24
   0  -7   3   16.08    8.57
   0  -7   3   20.99    5.26
   0  -7   3   18.03    5.07
   0   7  -3   27.80   17.87
   0   7  -3   20.83   11.43
   0   7  -3   24.19    5.58
   0  -7   4  111.11   37.30
   0  -7   4   60.38   25.00
   0  -7   4  110.31   20.56
   0  -7   4  101.41   20.44
   0   7  -4   89.86   38.19
   0   7  -4  113.18   29.04
   0   7  -4   92.68   20.58
   0  -7   5  155.31   33.41
   0  -7   5   53.86   36.99
   0  -7   5  143.95   31.03
   0  -7   5   61.13   25.47
   0  -7   5   86.06   20.34
   0  -7   5   89.28   20.28
   0   7  -5  142.38   39.47
   0   7  -5  119.00   30.60
   0   7  -5   51.58   20.33
   0  -7   6  333.31   66.90
   0  -7   6  133.04   71.32
   0  -7   6  254.42   66.33
   0  -7   6  292.05   55.49
   0   7  -6  257.08   75.44
   0   7  -6  214.45   64.53
   0  -7   7  150.00   41.27
   0  -7   7  119.88   28.13
   0   7  -7  102.57   48.27
   0   7  -7  154.24   39.11
   0  -7   8  111.80   38.31
   0  -7   8  161.99   37.41
   0  -7   8  114.96   24.49
   0   7  -8  116.63   44.79
   0   7  -8   68.21   37.68
   0  -7   9  111.02   23.08
   0  -7   9    0.78    7.47
   0   7  -9   -1.75   21.97
   0   7  -9  122.67   23.99
   0  -7  10    5.56   13.83
   0  -7  10   15.29   17.96
   0   7 -10   -0.96   16.88
   0   7 -10   12.98   19.01
   0  -7  11   -8.16   22.20
   0   7 -11    1.02   20.37
   0   7 -11   54.02   31.08
   0  -6   1  739.93  146.41
   0  -6   1  458.73  157.53
   0  -6   1  510.94  155.61
   0  -6   1  569.50  148.18
   0  -6   1  823.66  148.42
   0   6  -1  818.95  153.68
   0   6  -1  917.16  157.34
   0   6  -1  760.63  148.27
   0  -6   2 1107.82  218.76
   0  -6   2  635.16  229.85
   0  -6   2  982.26  238.02
   0  -6   2 1032.16  228.34
   0  -6   2 1217.81  228.48
   0   6  -2 1368.02  229.18
   0   6  -2  971.67  239.66
   0   6  -2 1186.19  228.36
   0  -6   3  277.86  118.60
   0  -6   3  483.40  111.60
   0  -6   3  460.41  104.79
   0  -6   3  626.91  104.98
   0   6  -3  645.57  120.34
   0   6  -3  384.75  113.37
   0   6  -3  465.19  104.75
   0  -6   4   70.12   24.66
   0  -6   4   52.07   30.03
   0  -6   4   76.14   18.59
   0  -6   4   63.38   13.84
   0  -6   4   69.04   13.94
   0   6  -4   87.19   31.60
   0   6  -4   69.93   21.74
   0   6  -4   46.15   13.95
   0  -6   5   71.37   25.21
   0  -6   5  114.80   25.13
   0  -6   5   60.60   18.92
   0  -6   5   52.78   14.00
   0   6  -5   89.03   32.65
   0   6  -5   73.91   22.59
   0   6  -5   54.36   14.32
   0  -6   6 1577.37  277.71
   0  -6   6 1028.61  285.31
   0  -6   6 1213.61  307.13
   0  -6   6 1266.85  303.77
   0  -6   6 1626.50  291.71
   0   6  -6 1884.61  291.92
   0   6  -6 1388.24  306.67
   0   6  -6  955.87  291.32
   0  -6   7   11.32   12.10
   0  -6   7    6.28   12.98
   0  -6   7   10.07    5.84
   0   6  -7    8.57   15.03
   0  -6   8   -3.49   10.78
   0  -6   8   -4.37   12.69
   0  -6   8    1.75    5.32
   0   6  -8   -1.41   10.44
   0   6  -8    0.68   16.28
   0  -6   9    4.34   11.30
   0  -6   9    7.21   18.33
   0  -6   9    4.26    4.99
   0   6  -9    4.44   12.75
   0   6  -9    5.09   19.89
   0  -6  10  308.11   46.51
   0  -6  10  248.90   45.00
   0   6 -10   -0.17   50.94
   0   6 -10  318.18   46.50
   0  -6  11   18.03   17.84
   0  -6  11   25.24   21.77
   0   6 -11   -3.62   19.08
   0   6 -11    7.48   23.29
   0  -6  12   -0.11   13.48
   0  -6  12    4.05   25.48
   0   6 -12   13.24   27.30
   0  -5   1  892.30  194.55
   0  -5   1  724.49  208.51
   0  -5   1  889.86  210.73
   0  -5   1  920.29  201.85
   0  -5   1 1020.02  201.98
   0   5  -1 1217.37  204.33
   0   5  -1 1097.32  211.94
   0   5  -1  984.95  201.83
   0  -5   2  120.49   35.73
   0  -5   2  102.10   44.10
   0  -5   2  100.42   29.51
   0  -5   2   97.01   25.06
   0  -5   2  145.59   25.23
   0   5  -2  174.53   43.91
   0   5  -2  107.46   30.98
   0   5  -2  119.15   25.11
   0  -5   3  782.41  141.09
   0  -5   3  560.65  152.29
   0  -5   3  790.96  147.90
   0  -5   3  504.15  139.81
   0   5  -3  941.37  154.37
   0   5  -3  427.01  149.14
   0   5  -3  665.19  139.86
   0  -5   4   14.25   14.32
   0  -5   4   19.45    8.57
   0  -5   4   10.91    3.48
   0   5  -4   22.20   15.73
   0   5  -4   12.64    4.02
   0  -5   5  410.83  132.50
   0  -5   5  951.29  131.55
   0  -5   5  683.12  127.27
   0  -5   5  357.41  119.02
   0   5  -5  877.45  137.76
   0   5  -5  783.14  130.09
   0   5  -5  537.92  119.16
   0  -5   6  105.25   49.24
   0  -5   6  243.94   41.09
   0  -5   6  155.09   37.07
   0  -5   6  153.77   31.03
   0   5  -6  199.14   53.20
   0   5  -6  164.31   40.54
   0   5  -6  102.86   30.92
   0  -5   7   16.41   11.04
   0  -5   7   18.83   13.01
   0  -5   7    8.24   10.06
   0  -5   7   17.60    5.68
   0   5  -7   19.77   16.47
   0   5  -7    7.61   11.91
   0   5  -7    4.33    5.73
   0  -5   8   50.23   22.21
   0  -5   8   38.11   20.15
   0  -5   8   50.73   11.56
   0   5  -8   55.45   29.49
   0   5  -8   56.31   22.72
   0  -5   9  372.56  102.64
   0  -5   9  610.26  106.52
   0  -5   9  490.22   94.53
   0   5  -9  441.85  115.32
   0   5  -9  402.30  105.05
   0  -5  10  148.39   41.96
   0  -5  10   91.92   38.10
   0  -5  10  130.28   28.40
   0   5 -10  141.89   50.99
   0   5 -10  112.21   38.98
   0  -5  11  323.04   48.46
   0  -5  11  219.48   44.65
   0  -5  11   -0.83   31.39
   0   5 -11  187.89   55.90
   0   5 -11  131.11   43.40
   0  -5  12   25.22   20.42
   0  -5  12   33.57   20.00
   0   5 -12    2.44   22.69
   0   5 -12   36.05   21.25
   0  -5  13   45.72   30.07
   0   5 -13  100.14   33.35
   0  -4   1  817.59  177.68
   0  -4   1  705.48  193.38
   0  -4   1  621.04  190.68
   0  -4   1  882.47  182.38
   0  -4   1  956.61  182.50
   0   4  -1 1211.35  189.73
   0   4  -1  879.65  191.73
   0   4  -1  895.06  182.35
   0  -4   2   48.12   30.41
   0  -4   2   75.10   17.03
   0  -4   2   51.67   12.66
   0   4  -2   94.59   30.58
   0   4  -2   50.17   17.99
   0   4  -2   63.41   12.70
   0  -4   3   57.24   31.00
   0  -4   3   89.87   18.68
   0  -4   3   53.82   13.35
   0   4  -3   81.60   32.27
   0   4  -3   57.26   19.40
   0   4  -3   64.57   13.42
   0  -4   4  355.61   89.17
   0  -4   4  440.91   77.05
   0  -4   4  310.16   70.18
   0   4  -4  317.03   92.10
   0   4  -4  361.54   78.73
   0   4  -4  299.71   70.13
   0  -4   5  973.83  196.94
   0  -4   5  922.41  201.45
   0  -4   5 1281.24  199.40
   0  -4   5  862.33  189.09
   0   4  -5  892.04  201.55
   0   4  -5 1129.94  201.25
   0   4  -5  631.55  188.90
   0  -4   6 1841.64  253.11
   0  -4   6 1209.94  249.56
   0  -4   6 1249.76  238.26
   0   4  -6 1064.48  245.81
   0   4  -6 1209.29  251.61
   0   4  -6  741.59  237.97
   0  -4   7   34.63   24.65
   0  -4   7   72.56   19.00
   0  -4   7   51.52   16.21
   0  -4   7   50.84    9.93
   0   4  -7   53.83   28.73
   0   4  -7   63.63   18.43
   0   4  -7   23.85   10.03
   0  -4   8   30.81   28.43
   0  -4   8   38.53   19.68
   0  -4   8   86.68   12.73
   0   4  -8   96.49   32.25
   0   4  -8   65.72   22.26
   0   4  -8   23.18   12.50
   0  -4   9  260.16   60.50
   0  -4   9  245.86   49.98
   0   4  -9  208.72   72.90
   0   4  -9  216.42   60.37
   0  -4  10  353.79   89.76
   0  -4  10  464.42   91.32
   0  -4  10  364.65   79.58
   0   4 -10  474.55  103.04
   0   4 -10  301.85   89.79
   0  -4  11  208.51   43.99
   0  -4  11  206.60   41.34
   0  -4  11   37.77   29.29
   0   4 -11  224.47   53.67
   0   4 -11  169.50   41.09
   0  -4  12   29.35   16.72
   0  -4  12   20.07   18.57
   0   4 -12   16.41   23.02
   0   4 -12   27.20   20.12
   0  -4  13  283.74   56.75
   0  -4  13  204.83   53.56
   0   4 -13   -5.28   62.64
   0   4 -13  204.89   54.66
   0  -3   1 3508.86 1025.98
   0  -3   1 4500.11 1148.58
   0   3  -1 7818.57 1149.66
   0  -3   2  844.52  222.61
   0  -3   2 1310.42  224.13
   0  -3   2  936.91  214.19
   0   3  -2  885.25  224.98
   0   3  -2 1089.92  214.17
   0  -3   3    1.15    5.64
   0  -3   3    2.24    5.55
   0  -3   3    0.31    1.45
   0   3  -3    1.27    5.91
   0   3  -3    2.27    2.02
   0  -3   4  505.20  126.52
   0  -3   4  728.70  120.01
   0  -3   4  683.08  117.90
   0  -3   4  330.18  109.63
   0   3  -4  561.14  130.25
   0   3  -4  623.85  119.21
   0   3  -4  602.18  109.76
   0  -3   5  840.18  200.10
   0  -3   5  825.28  203.84
   0  -3   5 1146.12  202.51
   0  -3   5  997.90  192.04
   0   3  -5  917.78  205.22
   0   3  -5 1034.85  203.85
   0   3  -5  747.17  191.88
   0  -3   6    4.62   10.51
   0  -3   6   10.22    8.83
   0  -3   6    7.71    7.38
   0  -3   6    6.24    2.95
   0   3  -6    5.80   11.23
   0   3  -6    5.94    8.44
   0   3  -6    2.89    3.56
   0  -3   7   85.18   45.00
   0  -3   7  138.17   35.12
   0  -3   7  128.91   33.62
   0  -3   7  182.99   26.98
   0   3  -7   99.12   49.49
   0   3  -7  168.93   35.78
   0   3  -7   76.16   26.53
   0  -3   8   33.67   25.09
   0  -3   8   50.39   19.74
   0  -3   8   70.31   10.04
   0   3  -8   41.39   27.77
   0   3  -8   54.70   19.31
   0   3  -8   13.04    9.51
   0  -3   9  120.32   36.77
   0  -3   9  192.15   27.88
   0   3  -9  146.07   50.65
   0   3  -9  168.42   37.61
   0   3  -9   30.52   27.07
   0  -3  10  199.63   52.72
   0  -3  10  199.16   43.39
   0   3 -10  258.52   67.92
   0   3 -10  169.70   52.83
   0  -3  11   11.38   15.49
   0  -3  11   12.31    5.76
   0   3 -11   28.33   23.63
   0   3 -11   19.05   20.19
   0  -3  12   38.16   15.83
   0  -3  12   36.70   18.08
   0  -3  12    1.17    6.19
   0   3 -12   24.13   22.10
   0   3 -12   41.65   19.45
   0  -3  13  398.49   93.17
   0  -3  13  327.49   92.91
   0   3 -13  420.25  104.60
   0   3 -13  369.71   93.73
   0  -3  14    0.30    9.13
   0  -3  14    0.44   14.77
   0   3 -14    8.79   19.80
   0   3 -14   -3.96   16.32
   0  -2   2  222.80   46.54
   0  -2   2  176.72   40.81
   0   2  -2  258.31   64.61
   0   2  -2  152.22   47.10
   0   2  -2  205.88   40.79
   0  -2   3   88.36   34.27
   0  -2   3  106.69   20.85
   0  -2   3   83.42   15.25
   0   2  -3   76.32   36.00
   0   2  -3   85.19   21.42
   0   2  -3   44.90   15.10
   0  -2   4  723.73  148.28
   0  -2   4  617.94  146.97
   0  -2   4  713.49  138.10
   0   2  -4  954.13  157.64
   0   2  -4  587.92  147.81
   0   2  -4  531.25  137.97
   0  -2   5  855.71  189.57
   0  -2   5  859.39  190.86
   0  -2   5  936.03  189.93
   0  -2   5 1030.26  179.67
   0   2  -5 1021.72  195.19
   0   2  -5  922.77  190.86
   0   2  -5  566.49  179.45
   0  -2   6  215.83   54.99
   0  -2   6  200.93   43.01
   0  -2   6  132.59   41.48
   0  -2   6  217.63   35.14
   0   2  -6  229.35   59.22
   0   2  -6  126.83   42.38
   0   2  -6   85.01   34.85
   0  -2   7    1.58    9.10
   0  -2   7    4.85    7.91
   0  -2   7    4.52    7.38
   0  -2   7    4.38    2.50
   0   2  -7    4.45   10.00
   0   2  -7    4.76    8.26
   0   2  -7   -0.18    3.57
   0  -2   8  413.29  145.29
   0  -2   8  908.62  145.21
   0  -2   8  447.45  142.63
   0  -2   8  796.15  133.76
   0   2  -8  780.51  153.32
   0   2  -8  651.68  144.47
   0   2  -8  495.87  133.50
   0  -2   9  323.63  112.26
   0  -2   9  672.57  108.48
   0  -2   9  403.96  106.83
   0  -2   9  670.43   97.91
   0   2  -9  367.45  119.23
   0   2  -9  676.35  108.58
   0   2  -9  209.27   97.32
   0  -2  10  519.94   98.19
   0  -2  10  410.11   87.21
   0   2 -10  457.24  110.18
   0   2 -10  285.33   96.86
   0  -2  11   35.40   17.56
   0  -2  11   31.07    9.00
   0   2 -11   34.89   28.17
   0   2 -11   28.74   21.34
   0  -2  12  574.56  133.59
   0  -2  12  502.14  122.26
   0   2 -12  710.85  143.13
   0   2 -12  775.02  134.90
   0  -2  13  367.46   80.94
   0  -2  13  248.96   77.95
   0   2 -13  329.50   92.61
   0   2 -13  266.21   78.38
   0  -2  14   17.75   15.51
   0  -2  14   18.19   17.49
   0   2 -14   23.53   22.08
   0   2 -14   21.94   18.29
   0  -1   1  130.20   39.66
   0  -1   1   91.23   23.21
   0  -1   1   74.33   18.30
   0   1  -1  110.17   40.09
   0   1  -1  108.11   23.58
   0   1  -1   84.14   18.28
   0  -1   2   -0.15    2.72
   0  -1   2    0.05    0.84
   0   1  -2    2.02    4.15
   0   1  -2    0.81    0.88
   0  -1   3 2218.70  452.54
   0   1  -3 2660.28  457.51
   0   1  -3 2825.56  490.34
   0   1  -3 2019.14  472.02
   0  -1   4  204.08   67.47
   0  -1   4  293.69   54.10
   0  -1   4  142.01   53.13
   0  -1   4  297.63   46.62
   0   1  -4  215.24   71.34
   0   1  -4  303.32   54.15
   0   1  -4  139.16   46.42
   0  -1   5 1574.53  311.57
   0  -1   5 1388.16  330.06
   0  -1   5  998.34  329.40
   0  -1   5 2069.87  315.86
   0   1  -5 1145.58  317.50
   0   1  -5 1674.37  330.38
   0   1  -5 1092.60  315.64
   0  -1   6   61.82   29.29
   0  -1   6   75.08   19.12
   0  -1   6   46.50   18.63
   0  -1   6   70.15   12.37
   0   1  -6   51.02   32.24
   0   1  -6   76.66   19.35
   0   1  -6   44.85   12.26
   0  -1   7   37.57   23.86
   0  -1   7   35.24   15.16
   0  -1   7   29.40   15.20
   0  -1   7   53.90    8.82
   0   1  -7   45.85   26.93
   0   1  -7   39.09   15.57
   0   1  -7   33.35    8.77
   0  -1   8  100.89   51.84
   0  -1   8  198.13   41.82
   0  -1   8   96.20   40.60
   0  -1   8  213.96   33.59
   0   1  -8  190.46   57.65
   0   1  -8  193.50   41.70
   0   1  -8  112.26   33.30
   0  -1   9  699.08  184.63
   0  -1   9 1261.06  190.20
   0  -1   9  521.35  188.00
   0  -1   9 1152.09  177.70
   0   1  -9  838.20  193.11
   0   1  -9  719.67  188.95
   0   1  -9  562.70  177.30
   0  -1  10   56.50   18.78
   0  -1  10   54.41    9.33
   0   1 -10   24.43   27.86
   0   1 -10   63.31   17.97
   0   1 -10   17.45    9.91
   0  -1  11    6.99   12.70
   0  -1  11    7.08    3.76
   0   1 -11    8.28   16.16
   0   1 -11   10.06   14.64
   0  -1  12  124.74   32.60
   0  -1  12  102.55   23.20
   0   1 -12  103.37   47.86
   0   1 -12  124.45   33.41
   0  -1  13  107.16   23.70
   0   1 -13  143.31   35.47
   0   1 -13  119.30   24.77
   0  -1  14   92.98   31.58
   0  -1  14   56.81   26.81
   0   1 -14   65.64   38.81
   0  -1  15   67.51   28.49
   0  -1  15   37.30   23.69
   0   1 -15   71.63   39.84
   0   0   1  299.18  110.09
   0   0  -1  574.17  111.77
   0   0   2   28.28   21.74
   0   0   2   24.92   11.19
   0   0   2   43.12   11.47
   0   0   2   35.43    6.40
   0   0  -2   18.47   22.94
   0   0  -2   56.58   11.58
   0   0  -2   25.99   11.31
   0   0  -2   31.72    6.38
   0   0   3  106.62   43.81
   0   0   3  114.50   29.56
   0   0   3  128.18   29.78
   0   0   3  111.26   23.49
   0   0  -3   77.02   46.84
   0   0  -3  117.24   29.78
   0   0  -3  127.39   29.86
   0   0  -3  122.27   23.50
   0   0   4  706.38  215.06
   0   0   4  850.19  218.49
   0   0   4 1110.84  218.94
   0   0   4  994.30  207.51
   0   0  -4  909.46  221.39
   0   0  -4  827.08  218.96
   0   0  -4 1116.25  218.95
   0   0  -4 1118.37  207.52
   0   0   5  615.50  159.11
   0   0   5  585.15  155.56
   0   0   5  808.32  156.11
   0   0   5  743.46  146.06
   0   0  -5  608.30  165.48
   0   0  -5  780.56  156.50
   0   0  -5  672.93  155.93
   0   0  -5  692.09  146.02
   0   0   6  520.31  124.76
   0   0   6  554.45  117.81
   0   0   6  512.67  117.91
   0   0   6  587.21  108.86
   0   0  -6  572.24  131.41
   0   0  -6  613.24  118.80
   0   0  -6  558.27  118.09
   0   0  -6  395.76  108.71
   0   0   7   12.47    8.90
   0   0   7   11.28    9.56
   0   0   7   14.31    3.15
   0   0  -7   12.46   15.50
   0   0  -7   15.44    9.37
   0   0  -7    9.81    3.77
   0   0   8  731.76  226.39
   0   0   8 1260.63  236.17
   0   0   8 1238.97  236.33
   0   0   8 1231.93  223.69
   0   0  -8 1354.98  236.60
   0   0  -8  840.42  223.51
   0   0   9   85.73   40.61
   0   0   9  166.05   31.75
   0   0   9   69.15   30.22
   0   0   9  128.58   23.10
   0   0  -9  128.52   46.22
   0   0  -9  141.65   31.26
   0   0  -9   79.00   23.03
   0   0  10   38.84   28.68
   0   0  10   73.67   20.48
   0   0  10   78.53   12.83
   0   0 -10   66.20   33.62
   0   0 -10  111.06   21.80
   0   0 -10   22.72   12.24
   0   0  11  224.98   54.15
   0   0  11  217.63   44.85
   0   0 -11  127.75   68.81
   0   0 -11  286.12   54.79
   0   0  12  334.82   79.37
   0   0  12  310.91   69.98
   0   0 -12  404.04   95.36
   0   0 -12  344.99   79.99
   0   0  13   87.56   31.07
   0   0  13   89.85   20.90
   0   0 -13  136.92   45.05
   0   0 -13  151.72   31.99
   0   0 -13   66.80   23.21
   0   0  14   62.59   26.46
   0   0  14   57.57   22.95
   0   0 -14   54.92   35.22
   0   0  15   20.04   18.06
   0   0  15   21.53   16.68
   0   0 -15   33.06   29.88
   0   1   0  439.06  107.08
   0  -1  -1  559.48  132.74
   0   1   2    3.04    6.32
   0   1   2    2.54    2.94
   0   1   2    4.16    3.24
   0   1   2    2.90    0.46
   0  -1  -2    2.34    6.64
   0  -1  -2    2.95    3.03
   0  -1  -2    3.64    3.09
   0  -1  -2    2.44    0.39
   0   1   3  282.18   68.52
   0   1   3  253.74   81.79
   0   1   3  334.54   69.23
   0  -1  -3  239.05   85.98
   0  -1  -3  254.21   68.88
   0  -1  -3  303.60   69.03
   0  -1  -3  342.55   62.02
   0   1   4  678.52  172.08
   0   1   4  822.03  170.04
   0   1   4  560.15  170.35
   0   1   4  776.01  160.56
   0  -1  -4  423.87  178.99
   0  -1  -4  618.10  170.36
   0  -1  -4  887.04  170.48
   0  -1  -4  905.70  160.58
   0   1   5  112.76   50.64
   0   1   5  184.93   37.57
   0   1   5  178.50   38.10
   0   1   5  149.19   31.14
   0  -1  -5  117.89   55.52
   0  -1  -5  129.96   37.95
   0  -1  -5  167.22   37.99
   0  -1  -5  156.79   31.14
   0   1   6   80.78   34.91
   0   1   6   75.13   23.05
   0   1   6   77.09   23.64
   0   1   6   77.80   17.02
   0  -1  -6   75.47   39.06
   0  -1  -6  117.01   24.40
   0  -1  -6   89.94   23.59
   0  -1  -6   84.60   17.08
   0   1   7  714.14  146.90
   0   1   7  587.79  143.33
   0   1   7  439.82  143.60
   0   1   7  722.51  134.09
   0  -1  -7  665.62  154.77
   0  -1  -7  575.53  144.49
   0  -1  -7  809.28  144.23
   0  -1  -7  549.55  133.98
   0   1   8 1708.06  517.02
   0   1   8 3047.30  571.61
   0   1   8 2876.93  550.55
   0  -1  -8 2040.80  526.92
   0  -1  -8 3189.19  572.50
   0  -1  -8 2798.84  571.27
   0   1   9   39.62   25.68
   0   1   9   58.11   17.15
   0   1   9   29.47   18.51
   0   1   9   53.06   10.16
   0  -1  -9   62.64   29.61
   0  -1  -9   66.39   17.61
   0  -1  -9   37.58   10.38
   0   1  10    8.58   15.07
   0   1  10   11.06   10.51
   0   1  10   27.27   18.01
   0   1  10   16.66    4.00
   0  -1 -10   16.80   17.30
   0  -1 -10   21.93   10.85
   0  -1 -10    7.31    4.13
   0   1  11  154.91   40.15
   0   1  11  144.90   32.06
   0  -1 -11  185.61   56.80
   0  -1 -11  147.15   40.66
   0   1  12  399.90   85.27
   0   1  12  374.87   76.05
   0  -1 -12  313.50   99.92
   0  -1 -12  342.93   76.24
   0   1  13  299.67   52.88
   0   1  13  199.61   42.53
   0  -1 -13  195.27   68.73
   0  -1 -13  153.00   43.45
   0   1  14   80.55   18.21
   0   1  14   -0.19    6.92
   0  -1 -14   73.83   27.55
   0  -1 -14   34.95   14.23
   0   1  15  150.68   43.57
   0   1  15   74.29   36.56
   0  -1 -15  152.72   53.51
   0   1  16    0.33   12.84
   0   1  16    2.59   18.09
   0  -1 -16    4.10   23.86
   0   2   0  754.78  141.76
   0   2   0  592.61  139.02
   0   2   0  625.52  131.92
   0   2   0  660.28  132.10
   0  -2   0  601.31  151.24
   0  -2   0  542.79  138.82
   0  -2   0  529.34  131.91
   0  -2   0  712.31  132.11
   0   2   1  549.86  128.68
   0   2   1  620.44  118.61
   0   2   1  514.11  121.37
   0   2   1  528.30  115.00
   0  -2  -1  483.38  121.45
   0  -2  -1  603.51  115.02
   0  -2  -1  545.77  115.22
   0  -2  -2  950.32  229.64
   0   2   2  961.44  207.37
   0   2   2 1080.02  213.55
   0   2   2 1015.98  204.53
   0  -2  -2  856.78  214.02
   0  -2  -2  936.48  213.83
   0  -2  -2  981.93  204.33
   0   2   3  580.20  138.33
   0   2   3  772.16  137.02
   0   2   3  290.70  131.03
   0   2   3  667.08  132.29
   0  -2  -3  479.82  143.03
   0  -2  -3  545.84  131.69
   0  -2  -3  585.12  123.57
   0  -2  -3  673.66  123.77
   0   2   4 6371.75  991.70
   0   2   4 4557.94  992.36
   0  -2  -4 2331.43  892.05
   0  -2  -4 4245.04  991.99
   0  -2  -4 4678.18  961.93
   0   2   5  532.57  122.86
   0   2   5  520.89  115.57
   0   2   5  433.12  116.31
   0   2   5  502.58  107.71
   0  -2  -5  581.42  131.12
   0  -2  -5  430.67  116.21
   0  -2  -5  546.99  107.73
   0   2   6  217.98   57.27
   0   2   6  179.22   44.47
   0   2   6  136.55   45.14
   0   2   6  169.24   38.21
   0  -2  -6  129.68   63.11
   0  -2  -6  257.05   45.42
   0  -2  -6  193.44   38.25
   0   2   7  612.46  240.11
   0   2   7 1358.63  251.34
   0   2   7 1278.26  252.29
   0   2   7 1146.42  239.36
   0  -2  -7 1008.12  250.12
   0  -2  -7 1156.48  252.36
   0  -2  -7 1263.66  251.81
   0  -2  -7 1254.57  239.39
   0   2   8  707.59  197.43
   0  -2  -8 1003.65  197.41
   0   2   8  453.76  183.11
   0   2   8  871.28  186.53
   0   2   8  781.90  187.48
   0  -2  -8  886.77  193.27
   0  -2  -8 1289.11  189.04
   0  -2  -8 1036.82  187.42
   0   2   9  536.59  142.99
   0   2   9  487.57  139.53
   0   2   9  557.09  137.16
   0   2   9  368.21  137.60
   0  -2  -9  930.82  150.10
   0  -2  -9  514.48  138.91
   0  -2  -9  967.53  138.92
   0  -2  -9  671.17  128.08
   0   2  10   48.73   28.09
   0   2  10   49.33   18.37
   0   2  10   63.89   22.78
   0   2  10   58.96   11.75
   0  -2 -10   60.73   21.59
   0  -2 -10   51.77   12.36
   0  -2 -10   54.12   12.14
   0   2  11   69.67   19.14
   0   2  11   54.43   11.91
   0  -2 -11   55.91   32.07
   0  -2 -11   47.56   12.65
   0   2  12  843.09  169.35
   0   2  12  790.08  158.49
   0  -2 -12  477.08  175.86
   0  -2 -12  787.17  158.61
   0   2  13   33.36   16.13
   0   2  13   31.12    8.30
   0  -2 -13   40.37   26.69
   0  -2 -13   31.14   10.99
   0   2  14   -0.15   11.71
   0   2  14    2.28    4.26
   0  -2 -14    3.21   15.95
   0  -2 -14   -3.54   11.71
   0   2  15   71.11   30.15
   0  -2 -15  135.04   48.52
   0   2  16   40.20   22.54
   0   2  16   31.42   21.49
   0  -2 -16   39.73   31.46
   0   3   0  119.85   26.22
   0   3   0  124.42   21.88
   0  -3   0   88.06   31.39
   0  -3   0   80.69   25.81
   0  -3   0  103.74   21.85
   0  -3   0  127.59   22.03
   0   3   1  188.21   40.07
   0   3   1  185.28   35.76
   0   3   1  168.86   35.91
   0  -3  -1  162.66   40.11
   0  -3  -1  169.38   35.74
   0  -3  -1  172.30   35.91
   0   3   2 1193.73  202.42
   0   3   2  937.23  214.47
   0   3   2 1012.63  205.66
   0   3   2  893.43  205.84
   0  -3  -2  892.68  214.91
   0  -3  -2 1074.19  214.83
   0  -3  -2  947.66  205.85
   0   3   3  546.91  101.91
   0   3   3  448.30   95.02
   0   3   3  395.88   88.74
   0   3   3  425.93   88.94
   0  -3  -3  270.76   95.32
   0  -3  -3  416.48   88.76
   0  -3  -3  446.23   88.95
   0   3   4  256.94   74.55
   0   3   4  292.14   63.54
   0   3   4  302.61   64.77
   0   3   4  259.89   57.79
   0  -3  -4  173.32   82.10
   0  -3  -4  343.61   64.38
   0  -3  -4  290.48   57.67
   0  -3  -4  288.35   57.81
   0   3   5  301.42  108.68
   0   3   5  383.05  101.07
   0   3   5  518.78  102.57
   0   3   5  475.60   94.17
   0  -3  -5  302.22  118.02
   0  -3  -5  566.62  102.29
   0  -3  -5  431.57   94.01
   0  -3  -5  502.16   94.20
   0   3   6   15.04   16.89
   0   3   6   18.08    9.56
   0   3   6   25.51   10.63
   0   3   6   22.53    4.95
   0  -3  -6   24.73   10.79
   0  -3  -6   26.40    5.57
   0  -3  -6   27.38    5.06
   0   3   7 1415.44  393.25
   0   3   7 2053.64  427.85
   0   3   7 1988.78  429.14
   0   3   7 1944.05  412.08
   0  -3  -7 2217.68  405.10
   0  -3  -7 2530.80  429.52
   0  -3  -7 1887.67  411.94
   0  -3  -7 2041.83  412.09
   0   3   8  152.12   33.48
   0   3   8  131.62   48.78
   0   3   8  142.83   37.32
   0   3   8  145.06   38.65
   0  -3  -8  105.25   55.57
   0  -3  -8  139.27   38.85
   0  -3  -8  155.64   31.15
   0  -3  -8  165.87   31.17
   0   3   9   29.63   26.82
   0   3   9   46.05   17.70
   0   3   9   30.60   18.70
   0   3   9   62.38   11.81
   0  -3  -9   74.35   32.21
   0  -3  -9   49.25   19.89
   0  -3  -9   52.26   12.24
   0  -3  -9   68.28   11.97
   0   3  10  232.32   71.48
   0   3  10  264.43   62.06
   0   3  10  176.97   63.89
   0   3  10  270.42   54.71
   0  -3 -10  353.67   65.22
   0  -3 -10  234.83   54.69
   0  -3 -10  282.26   54.83
   0   3  11   54.13   17.94
   0   3  11   56.32   11.11
   0  -3 -11   49.05   30.84
   0  -3 -11   43.17   10.93
   0   3  12  637.81  141.43
   0   3  12  631.66  131.78
   0  -3 -12  700.29  152.82
   0  -3 -12  579.42  131.82
   0   3  13   24.34   16.20
   0   3  13   30.80    7.24
   0  -3 -13   29.75   24.18
   0  -3 -13   22.68   10.16
   0   3  14   17.94   13.65
   0   3  14   19.47    5.69
   0  -3 -14   27.22   23.57
   0  -3 -14   14.89   12.03
   0   3  15   40.37   18.94
   0  -3 -15   53.48   34.35
   0   3  16  742.82  152.29
   0   3  16  610.97  155.73
   0  -3 -16  674.92  165.54
   0  -4   0 1455.34  489.90
   0   4   0 1982.67  407.44
   0   4   0 2604.37  450.69
   0   4   0 2216.27  435.44
   0  -4   0 2097.82  450.15
   0  -4   0 2224.64  435.59
   0   4   1  176.42   46.80
   0   4   1  202.29   42.23
   0   4   1  223.42   42.41
   0  -4  -1  169.29   46.75
   0  -4  -1  222.54   42.28
   0  -4  -1  210.64   42.39
   0   4   2 1248.72  257.80
   0   4   2 1074.08  247.90
   0   4   2 1206.99  248.12
   0  -4  -2 1261.19  258.02
   0  -4  -2 1173.80  247.94
   0  -4  -2 1166.27  248.11
   0   4   3 1564.65  363.61
   0  -4  -3 1421.86  362.76
   0   4   3 1778.38  306.96
   0   4   3 1204.53  334.77
   0   4   3 1536.56  322.94
   0  -4  -3 1512.45  323.32
   0  -4  -3 1442.68  335.39
   0  -4  -3 1685.46  323.15
   0  -4  -4  521.85  129.39
   0   4   4  663.35  125.91
   0   4   4  558.50  123.41
   0   4   4  537.47  116.43
   0   4   4  563.53  116.61
   0  -4  -4  233.41  137.95
   0  -4  -4  559.36  124.19
   0  -4  -4  607.45  116.64
   0   4   5    0.68    1.25
   0  -4  -5    0.34    2.11
   0   4   5   -0.45    4.41
   0   4   5    2.37    4.74
   0  -4  -5    0.79    6.13
   0  -4  -5   -1.20    4.13
   0  -4  -5    0.67    1.96
   0   4   6  430.11  120.33
   0   4   6  580.87  120.27
   0   4   6  578.27  115.34
   0   4   6  636.86  117.05
   0  -4  -6  554.72  131.09
   0  -4  -6  569.53  116.44
   0  -4  -6  508.94  107.74
   0  -4  -6  507.59  107.88
   0   4   7 2498.11  497.26
   0   4   7 2658.93  548.68
   0   4   7 2207.56  550.06
   0   4   7 2393.56  530.26
   0  -4  -7 2341.10  509.98
   0  -4  -7 2459.31  549.97
   0  -4  -7 2397.29  530.13
   0  -4  -7 2850.74  530.34
   0  -4  -8   98.48   26.94
   0   4   8  124.11   43.21
   0   4   8  130.86   31.91
   0   4   8  121.50   33.83
   0   4   8  121.32   26.08
   0  -4  -8   92.46   50.02
   0  -4  -8  115.84   33.61
   0  -4  -8  153.07   26.20
   0  -4  -9  580.50  117.10
   0   4   9  467.90  112.93
   0   4   9  396.75  114.59
   0   4   9  484.40  105.03
   0  -4  -9  515.82  128.20
   0  -4  -9  380.21  114.79
   0  -4  -9  505.30  105.04
   0   4  10  224.24   84.68
   0   4  10  243.39   76.73
   0   4  10  294.98   78.72
   0   4  10  345.31   69.79
   0  -4 -10  300.72   79.42
   0  -4 -10  355.64   69.92
   0  -4 -10  412.79   69.95
   0   4  11  711.20  171.14
   0   4  11  852.62  161.51
   0  -4 -11  778.37  179.80
   0  -4 -11  743.64  161.46
   0  -4 -11  709.66  161.43
   0   4  12  172.69   39.35
   0   4  12  141.02   31.52
   0  -4 -12  169.96   56.49
   0  -4 -12  142.01   32.12
   0   4  13  226.93   56.18
   0   4  13  239.42   48.22
   0  -4 -13  181.98   73.28
   0  -4 -13  234.34   48.73
   0   4  14  209.42   45.24
   0   4  14  171.56   37.29
   0  -4 -14  177.71   64.21
   0  -4 -14  162.77   38.11
   0   4  15    6.27   11.81
   0  -4 -15    9.43   19.89
   0   4  16  204.59   57.63
   0   4  16  180.53   50.48
   0  -4 -16  207.74   69.11
   0   5   0   14.30    6.55
   0   5   0   13.58    3.48
   0  -5   0   16.84    6.05
   0  -5   0   15.33    3.28
   0  -5   0   15.68    3.36
   0   5   1  626.09  190.31
   0   5   1  845.70  182.05
   0   5   1 1012.93  182.27
   0  -5  -1  814.91  190.31
   0  -5  -1  804.48  182.05
   0  -5  -1  951.44  182.24
   0   5   2  851.11  198.92
   0  -5  -2  874.02  198.12
   0   5   2  887.46  185.34
   0   5   2  808.76  177.21
   0  -5  -2  725.52  185.44
   0  -5  -2  895.71  177.41
   0   5   3  353.78   79.54
   0   5   3  362.14   78.99
   0   5   3  346.82   73.52
   0   5   3  337.98   73.66
   0  -5  -3  336.76   79.45
   0  -5  -3  351.31   73.54
   0  -5  -3  375.83   73.70
   0   5   4  638.97  231.61
   0   5   4 1133.96  222.44
   0   5   4 1131.91  222.57
   0  -5  -4 1271.85  232.82
   0  -5  -4 1021.74  222.40
   0  -5  -4 1118.42  222.58
   0   5   5  236.85   65.74
   0   5   5  389.76   73.58
   0   5   5  306.92   65.74
   0   5   5  289.90   60.31
   0  -5  -5  327.31   85.65
   0  -5  -5  219.69   66.52
   0  -5  -5  282.04   60.21
   0  -5  -5  277.65   60.31
   0   5   6  134.50   33.24
   0   5   6  176.38   46.46
   0   5   6  166.22   35.91
   0   5   6  198.53   38.24
   0  -5  -6  152.93   55.43
   0  -5  -6  143.67   37.01
   0  -5  -6  113.33   30.66
   0  -5  -6  150.65   30.92
   0   5   7  854.23  227.28
   0   5   7 1176.98  239.37
   0   5   7 1287.10  241.58
   0   5   7  998.55  228.93
   0  -5  -7 1018.43  240.87
   0  -5  -7 1442.41  241.26
   0  -5  -7 1004.61  228.82
   0  -5  -7 1199.64  229.02
   0   5   8  896.57  196.12
   0   5   8  875.44  203.09
   0   5   8  795.98  204.91
   0   5   8  866.92  193.44
   0  -5  -8 1128.95  209.37
   0  -5  -8  887.74  204.87
   0  -5  -8  887.35  193.37
   0  -5  -8 1024.08  193.53
   0   5   9   77.90   38.79
   0   5   9  130.93   28.53
   0   5   9  109.04   30.43
   0   5   9  110.44   22.69
   0  -5  -9  157.48   46.89
   0  -5  -9   83.38   30.40
   0  -5  -9   93.92   22.86
   0  -5  -9  113.32   22.74
   0   5  10   67.54   28.95
   0   5  10   86.57   19.59
   0   5  10   29.53   20.55
   0   5  10   59.36   13.46
   0  -5 -10   57.62   34.34
   0  -5 -10   44.91   21.79
   0  -5 -10   68.64   14.25
   0  -5 -10   67.39   13.64
   0   5  11  905.30  172.33
   0   5  11  748.01  162.35
   0  -5 -11  743.73  180.54
   0  -5 -11  753.60  162.37
   0   5  12  174.48   38.34
   0   5  12  133.70   30.73
   0  -5 -12  168.00   56.34
   0  -5 -12  140.95   31.40
   0   5  13   94.15   21.20
   0   5  13  131.34   27.90
   0  -5 -13   74.85   43.53
   0  -5 -13   85.91   21.55
   0   5  14    3.27   10.01
   0   5  14    0.70    3.70
   0  -5 -14   -3.83   20.33
   0  -5 -14    5.04    9.03
   0   5  15  558.29  124.11
   0  -5 -15  534.64  137.98
   0   5  16   94.50   40.14
   0   5  16  150.67   34.99
   0  -5 -16  119.46   50.52
   0   6   0 1118.68  202.61
   0   6   0  941.36  193.13
   0  -6   0  857.02  201.71
   0  -6   0  805.50  193.09
   0  -6   0  945.98  193.27
   0   6   1  911.08  216.03
   0   6   1  953.98  206.86
   0   6   1 1060.44  207.03
   0  -6  -1  843.53  215.76
   0  -6  -1  996.30  206.89
   0  -6  -1 1056.42  207.03
   0   6   2  567.05  126.22
   0   6   2  647.46  126.42
   0  -6  -2  525.43  133.22
   0  -6  -2  625.08  126.41
   0   6   3  616.28  154.41
   0   6   3  703.21  147.11
   0   6   3  718.53  147.26
   0  -6  -3  758.62  155.01
   0  -6  -3  795.31  147.19
   0  -6  -3  661.30  147.23
   0   6   4  164.31   39.09
   0   6   4  167.53   45.37
   0   6   4  160.28   40.45
   0   6   4  197.09   36.03
   0  -6  -4  181.67   59.66
   0  -6  -4  170.54   41.23
   0  -6  -4  182.67   36.02
   0  -6  -4  174.33   36.04
   0   6   5   50.10    9.79
   0   6   5   50.89   10.47
   0  -6  -5   54.65   29.18
   0  -6  -5   36.56   15.18
   0  -6  -5   48.34   10.56
   0  -6  -5   52.20   10.34
   0   6   6 2444.34  380.41
   0   6   6 1478.14  418.53
   0   6   6 1869.82  404.49
   0  -6  -6 1472.47  396.94
   0  -6  -6 2232.93  420.34
   0  -6  -6 1762.78  404.35
   0  -6  -6 2031.89  404.54
   0   6   7  336.78   77.14
   0   6   7  284.48   69.79
   0   6   7  394.66   72.73
   0   6   7  285.16   64.03
   0  -6  -7  357.24   89.21
   0  -6  -7  316.73   71.59
   0  -6  -7  305.04   64.05
   0  -6  -7  289.07   64.06
   0   6   8  220.98   59.04
   0   6   8  292.43   59.79
   0   6   8  291.12   62.24
   0  -6  -8  305.86   79.25
   0  -6  -8  237.58   61.71
   0  -6  -8  264.10   53.79
   0  -6  -8  260.09   53.77
   0   6   9  315.35   71.94
   0   6   9  251.33   63.07
   0   6   9  255.70   65.83
   0   6   9  260.15   57.01
   0  -6  -9  259.22   82.11
   0  -6  -9  242.69   65.81
   0  -6  -9  265.53   57.10
   0  -6  -9  290.45   57.12
   0   6  10   94.92   36.11
   0   6  10  112.38   26.35
   0   6  10   78.65   29.84
   0   6  10   96.36   20.66
   0  -6 -10  110.66   43.70
   0  -6 -10  106.58   31.48
   0  -6 -10   95.95   21.13
   0  -6 -10   96.26   20.74
   0   6  11  172.86   41.90
   0   6  11  174.06   35.76
   0  -6 -11  167.12   60.57
   0  -6 -11  161.95   36.04
   0   6  12  402.00  103.45
   0   6  12  477.06   95.69
   0  -6 -12  368.43  118.89
   0  -6 -12  503.43   96.12
   0   6  13   10.65   12.49
   0   6  13   15.46    4.53
   0  -6 -13   13.84   22.08
   0  -6 -13   13.99   10.06
   0   6  14  220.11   53.60
   0   6  14  255.73   56.32
   0  -6 -14  228.26   75.34
   0  -6 -14  247.09   50.32
   0   6  15  198.12   51.04
   0  -6 -15  220.21   71.64
   0   6  16    2.65   29.81
   0   6  16  128.49   26.76
   0  -6 -16  160.19   42.84
   0   7   0   56.55   14.80
   0   7   0   46.84   10.09
   0  -7   0   42.38   13.37
   0  -7   0   38.72    9.75
   0  -7   0   51.21    9.91
   0  -7  -1 1103.90  262.05
   0   7   1 1248.46  243.41
   0   7   1 1113.96  233.19
   0  -7  -1 1046.50  242.89
   0  -7  -1 1092.30  233.19
   0   7   2   57.52   10.99
   0  -7  -2   44.92   10.00
   0   7   2   52.48   11.26
   0  -7  -2   58.30   11.41
   0   7   3  704.77  191.64
   0   7   3  884.10  183.39
   0   7   3  928.22  183.51
   0  -7  -3  829.33  192.15
   0  -7  -3  930.82  183.43
   0  -7  -3  908.03  183.51
   0   7   4   39.00   12.49
   0   7   4   41.26    9.04
   0   7   4   44.03    8.85
   0  -7  -4   41.46   13.22
   0  -7  -4   48.60    9.24
   0  -7  -4   39.80    8.92
   0   7   5  166.31   39.95
   0  -7  -5  168.48   40.83
   0   7   5  165.26   42.15
   0   7   5  188.24   37.59
   0  -7  -5  180.40   60.45
   0  -7  -5  177.01   43.46
   0  -7  -5  215.79   37.70
   0  -7  -6  621.75  149.43
   0   7   6  683.06  137.05
   0   7   6  641.25  141.69
   0   7   6  653.66  134.30
   0   7   6  604.66  134.34
   0  -7  -6  597.79  153.40
   0  -7  -6  693.94  143.23
   0  -7  -6  651.44  134.37
   0   7   7  701.74  166.77
   0   7   7  539.83  156.56
   0   7   7 1123.87  160.28
   0  -7  -7  714.83  167.31
   0  -7  -7  651.68  158.45
   0  -7  -7  622.06  148.84
   0  -7  -7  775.24  149.04
   0   7   8  397.35   90.79
   0   7   8  375.83   85.98
   0   7   8  376.81   88.95
   0   7   8  365.09   79.73
   0  -7  -8  365.78   79.76
   0  -7  -8  400.13   79.81
   0   7   9 1613.50  399.10
   0  -7  -9 1667.37  398.16
   0  -7  -9 1761.85  399.14
   0   7   9 2051.75  337.24
   0   7   9 1753.02  368.15
   0   7   9 1447.67  370.67
   0  -7  -9 1428.08  352.25
   0  -7  -9 1327.97  370.14
   0   7  10  143.81   45.17
   0   7  10  140.59   35.07
   0   7  10  101.71   38.46
   0   7  10  150.38   29.36
   0  -7 -10  155.37   53.48
   0  -7 -10  148.78   39.95
   0  -7 -10  166.49   29.86
   0  -7 -10  114.08   29.35
   0   7  11  492.13   99.16
   0   7  11  429.08   91.67
   0  -7 -11  455.96  115.53
   0  -7 -11  398.32   91.86
   0   7  12    6.24    9.49
   0   7  12    2.06    3.30
   0  -7 -12    5.61   16.21
   0  -7 -12    4.88    8.90
   0   7  13   15.27   11.00
   0   7  13    9.35    4.10
   0  -7 -13   16.04   23.40
   0  -7 -13    7.58    9.81
   0  -7 -14  109.62   27.41
   0   7  14  143.28   33.17
   0   7  14  110.40   26.09
   0  -7 -14  163.85   52.22
   0   7  15  328.03   82.96
   0  -7 -15  404.58  101.57
   0   7  16   -1.20   17.19
   0   7  16   43.13   16.77
   0  -7 -16   45.06   30.06
   0   8   0   49.25   13.40
   0   8   0   36.55    8.56
   0  -8   0   33.22   11.54
   0  -8   0   33.50    8.19
   0  -8   0   37.97    8.13
   0   8   1  312.05   66.42
   0   8   1  248.33   60.22
   0  -8  -1  260.58   65.61
   0  -8  -1  275.05   60.29
   0  -8  -1  324.81   60.45
   0   8   2  441.32  117.16
   0   8   2  525.50  110.38
   0   8   2  594.64  110.54
   0  -8  -2  532.53  110.43
   0  -8  -2  502.97  110.47
   0   8   3  347.43   92.45
   0   8   3  388.80   86.51
   0   8   3  485.37   86.70
   0  -8  -3  415.12   92.92
   0  -8  -3  417.67   86.60
   0  -8  -3  389.29   86.61
   0   8   4   39.47   11.98
   0   8   4   39.07    8.38
   0   8   4   37.27    7.94
   0  -8  -4   35.38   12.33
   0  -8  -4   40.21    8.39
   0  -8  -4   34.35    8.13
   0   8   5  133.55   31.48
   0   8   5  118.89   27.09
   0   8   5  129.93   27.02
   0  -8  -5  126.41   32.58
   0  -8  -5  141.97   27.20
   0  -8  -5  126.47   27.03
   0  -8  -6 1456.58  298.49
   0   8   6 1176.26  276.84
   0   8   6 1288.55  266.20
   0   8   6 1347.39  266.30
   0  -8  -6 1324.54  270.07
   0  -8  -6  714.38  277.77
   0  -8  -6 1300.12  266.29
   0   8   7  797.67  184.52
   0  -8  -7  733.50  183.69
   0   8   7  800.06  163.50
   0   8   7  878.72  173.04
   0  -8  -7  544.94  179.76
   0  -8  -7  902.49  175.03
   0  -8  -7  776.66  164.72
   0  -8  -8  226.39   46.09
   0   8   8  193.37   54.83
   0   8   8  184.57   48.07
   0   8   8  233.79   51.39
   0   8   8  210.24   42.96
   0  -8  -8  233.81   67.14
   0  -8  -8  174.15   50.23
   0  -8  -8  201.72   42.95
   0   8   9   44.81   22.46
   0   8   9   43.53   15.49
   0   8   9   51.17   18.74
   0   8   9   55.22   10.60
   0  -8  -9   62.24   30.71
   0  -8  -9   49.32   18.54
   0  -8  -9   65.00   11.82
   0  -8  -9   36.29   10.43
   0   8  10   99.41   26.12
   0   8  10  111.70   21.29
   0  -8 -10   66.83   44.24
   0  -8 -10   96.18   22.11
   0   8  11  726.90  158.56
   0   8  11  735.95  150.08
   0  -8 -11  559.25  168.11
   0  -8 -11  750.00  150.25
   0  -8 -12  151.09   32.55
   0   8  12  158.53   37.61
   0   8  12  139.01   30.95
   0  -8 -12  149.85   56.95
   0   8  13  224.86   50.34
   0   8  13  197.15   43.78
   0  -8 -13  233.34   70.88
   0  -8 -13  201.20   44.62
   0  -8 -14  171.02   50.22
   0   8  14  224.34   54.09
   0   8  14  232.22   46.98
   0  -8 -14  264.36   74.67
   0   8  15   -0.63   29.67
   0   8  15  115.57   24.97
   0  -8 -15  173.35   44.36
   0   8  16   -0.91   13.62
   0   8  16   30.51   14.82
   0  -8 -16   19.48   24.05
   0   9   0  538.43   99.36
   0   9   0  409.03   91.49
   0  -9   0  458.31   97.98
   0  -9   0  474.84   91.53
   0  -9   0  382.15   91.49
   0   9   1  116.36   25.83
   0  -9  -1  122.70   26.88
   0   9   1  133.90   30.83
   0  -9  -1   89.47   29.64
   0  -9  -1  139.29   25.43
   0   9   2  597.66  101.57
   0   9   2  372.17   94.26
   0  -9  -2  327.01  100.63
   0  -9  -2  436.49   94.38
   0  -9  -2  496.27   94.51
   0   9   3   66.91   22.82
   0   9   3   74.90   18.43
   0   9   3  100.63   18.46
   0  -9  -3   77.80   22.94
   0  -9  -3   98.77   18.65
   0  -9  -3   90.04   18.50
   0   9   4  133.48   34.32
   0   9   4  141.31   29.71
   0   9   4  146.69   29.76
   0  -9  -4  147.06   35.16
   0  -9  -4  152.91   30.03
   0  -9  -4  135.07   29.74
   0   9   5  737.90  146.30
   0   9   5  597.57  138.65
   0   9   5  694.52  138.76
   0  -9  -5  689.99  147.43
   0  -9  -5  702.74  138.76
   0  -9  -5  590.71  138.68
   0   9   6  307.05   73.59
   0   9   6  303.67   68.02
   0   9   6  367.36   68.06
   0  -9  -6  170.07   74.61
   0  -9  -6  391.86   68.17
   0  -9  -6  316.35   67.97
   0   9   7  190.00   71.61
   0  -9  -7  258.17   72.60
   0   9   7  372.45   75.35
   0   9   7  306.20   71.51
   0   9   7  348.14   65.87
   0  -9  -7  432.42   86.95
   0  -9  -7  240.22   73.06
   0  -9  -7  376.01   66.05
   0   9   8  303.41   79.59
   0   9   8  346.49   78.19
   0   9   8  357.83   81.64
   0   9   8  345.76   72.21
   0  -9  -8  479.05   94.89
   0  -9  -8  314.58   80.49
   0  -9  -8  404.09   72.45
   0  -9  -8  314.64   72.19
   0   9   9   52.42   23.92
   0   9   9   45.63   16.75
   0   9   9   60.83   12.29
   0  -9  -9   49.03   33.47
   0  -9  -9   72.32   13.77
   0   9  10  266.94   82.68
   0   9  10  354.67   79.42
   0   9  10  377.61   72.96
   0  -9 -10  293.98   96.47
   0  -9 -10  428.90   73.39
   0   9  11   84.14   23.89
   0   9  11   82.47   18.38
   0  -9 -11   87.00   42.47
   0  -9 -11   97.23   19.73
   0   9  12   75.71   23.24
   0   9  12   83.08   17.66
   0  -9 -12   89.67   42.58
   0  -9 -12   83.11   19.04
   0  -9 -13  249.06   71.46
   0   9  13  306.86   72.32
   0   9  13  343.11   65.85
   0   9  14    2.35   37.73
   0  -9 -14  355.18   54.70
   0   9  15    3.09   23.28
   0   9  15  101.35   18.73
   0  10   0  157.26   33.14
   0 -10   0   98.07   31.33
   0 -10   0  131.45   26.71
   0  10   1  790.90  108.86
   0  10   1  444.56  100.33
   0 -10  -1  530.96  107.44
   0 -10  -1  478.96  100.23
   0 -10  -1  349.80  100.12
   0  10   2  107.32   23.57
   0  10   2   74.38   18.85
   0 -10  -2   63.10   23.59
   0 -10  -2  101.05   18.38
   0 -10  -2   84.20   18.26
   0  10   3  266.40   74.32
   0  10   3  308.71   68.65
   0 -10  -3  305.23   74.84
   0 -10  -3  410.33   68.72
   0 -10  -3  328.87   68.50
   0  10   4   80.14   27.85
   0  10   4   96.43   23.55
   0  10   4  134.81   23.58
   0 -10  -4  106.90   29.03
   0 -10  -4  129.97   23.83
   0 -10  -4  103.45   23.50
   0  10   5  178.04   52.04
   0  10   5  286.64   52.21
   0 -10  -5  262.51   59.12
   0 -10  -5  259.47   52.30
   0 -10  -5  234.83   52.11
   0 -10  -6  702.69  218.73
   0  10   6 1054.65  204.32
   0  10   6 1034.30  195.24
   0 -10  -6  833.44  205.74
   0 -10  -6 1091.85  195.32
   0  10   7  104.00   29.14
   0  10   7  120.60   24.16
   0 -10  -7  104.36   31.93
   0 -10  -7  120.02   24.52
   0  10   8  717.72  182.14
   0  10   8  992.68  197.30
   0  10   8  940.85  188.23
   0 -10  -8 1061.30  188.45
   0  10   9   28.19   15.90
   0  10   9   14.46   13.43
   0  10   9   20.45   10.14
   0  10   9   20.73    5.34
   0 -10  -9   22.13   21.98
   0 -10  -9   30.11    8.38
   0  10  10  625.53  120.10
   0  10  10  457.93  120.07
   0  10  10  491.51  112.88
   0 -10 -10  553.02  132.80
   0 -10 -10  597.95  113.24
   0  10  11  106.98   27.12
   0  10  11  147.71   40.15
   0  10  11  109.55   30.92
   0 -10 -11  124.78   50.07
   0 -10 -11  128.16   26.72
   0 -10 -12   90.93   18.33
   0  10  12   87.23   32.95
   0  10  12   84.80   23.64
   0  10  12   81.02   18.21
   0 -10 -12   87.37   43.04
   0  10  13   -2.01   25.80
   0  10  13   74.61   20.28
   0  10  13   73.60   13.28
   0 -10 -13   81.64   38.33
   0 -10 -13   83.25   15.94
   0  10  14    0.49   31.97
   0  10  14  120.99   26.46
   0 -10 -14  210.56   47.97
   0  10  15  103.33   28.48
   0 -11   0    9.00    5.87
   0  11   1  401.51   91.01
   0 -11  -1  394.87   83.41
   0  11   2  460.96   83.92
   0 -11  -2  292.73   76.05
   0 -11  -3   95.76   20.29
   0  11   3   95.87   25.95
   0  11   4  109.64   29.16
   0 -11  -4  118.38   24.36
   0  11   5  554.70  175.05
   0  11   5  863.92  167.00
   0 -11  -5  898.65  167.13
   0  11   6    3.52    7.50
   0  11   6    4.19    3.00
   0 -11  -6    4.63    6.04
   0  11   7    1.14    5.82
   0  11   7   -0.18    2.93
   0 -11  -7   -0.32    6.48
   0  11   8   18.37   10.41
   0  11   8   22.92    5.62
   0 -11  -8   27.83    8.53
   0  11   9  664.32  157.07
   0  11   9  721.65  149.04
   0 -11  -9  740.91  149.23
   0  11  10  123.09   59.94
   0  11  10  183.52   52.87
   0  11  10  267.91   47.52
   0 -11 -10  248.33   69.87
   0 -11 -10  319.31   48.40
   0  11  11   18.12   32.08
   0  11  11   91.84   22.37
   0  11  11   98.42   17.02
   0 -11 -11   79.07   40.74
   0 -11 -11  108.29   18.94
   0  11  12  106.17   29.57
   0  11  12  118.47   24.16
   0 -11 -12   88.48   50.36
   0 -11 -12  130.52   25.61
   0  11  13  283.47   66.54
   0 -11 -13  291.52   86.52
   0  11  14  271.54   63.55
   0  11  15    5.40   12.56
   0  12   0  513.27  167.60
   0 -12   0  866.38  157.22
   0  12   1    0.28   19.74
   0 -12  -1    0.34    5.21
   0  12   2  626.51  100.86
   0 -12  -2  304.28   91.07
   0  12   3  140.68   34.30
   0 -12  -3  111.71   26.50
   0  12   4  246.17   60.14
   0 -12  -4  259.94   53.47
   0  12   5  246.27   65.34
   0 -12  -5  311.75   59.17
   0  12   6  309.94   87.63
   0  12   6  389.29   81.17
   0 -12  -6  459.67   81.58
   0  12   7   30.72   13.74
   0  12   7   35.62    7.65
   0 -12  -7   30.12    9.55
   0  12   8   47.93   19.39
   0  12   8   60.00   12.38
   0 -12  -8   59.80   13.84
   0  12   9  155.28   38.68
   0  12   9  152.10   32.80
   0 -12  -9  164.37   33.70
   0  12  10  116.85   34.77
   0  12  10  133.89   29.42
   0 -12 -10  179.12   30.83
   0  12  11   24.24   13.41
   0  12  11   22.67    5.91
   0 -12 -11   22.81    9.93
   0  12  12   38.47   17.88
   0  12  13   99.64   29.41
   0  12  14   77.02   23.85
   0  13   0   70.49   21.51
   0 -13   0   -0.69    6.77
   0  13   1  264.74   77.76
   0 -13  -1  347.99   67.34
   0  13   2   95.52   26.58
   0 -13  -2   50.63   15.30
   0  13   3  155.81   33.56
   0 -13  -3   89.97   25.16
   0  13   4  185.46   42.27
   0 -13  -4  139.27   34.05
   0  13   5  196.20   44.39
   0 -13  -5  161.95   37.91
   0  13   6   46.48   16.50
   0 -13  -6   38.26   11.67
   0  13   7   61.05   26.69
   0  13   7  103.73   20.57
   0 -13  -7  116.32   21.91
   0  13   8  188.40   46.89
   0  13   8  196.30   39.78
   0 -13  -8  172.16   40.24
   0  13   9  275.37   57.49
   0  13   9  208.15   59.21
   0 -13  -9  234.79   52.52
   0  13  10    5.85   13.76
   0  13  11    3.72   13.85
   0  13  12  148.69   38.18
   0  13  13  262.59   62.22
   0  14   0    9.67   25.75
   0  14   1   64.63   30.39
   0  14   2    5.47   20.52
   0  14   3   84.05   32.93
   0  14   4  144.25   40.55
   0  14   5    4.08   13.69
   0 -14  -5    1.75    6.27
   0  14   6  235.19   57.48
   0  14   7   57.89   21.66
   0  14   8  281.55   67.11
   0  14   9  127.57   34.22
   0  14  10   48.29   18.82
   0  14  11    3.81   14.96
   0  15   3   73.97   31.43
   0  15   4  183.56   52.22
   0  15   5  110.06   35.32
   0  15   6   24.40   20.59
   0  15   7   43.95   19.14
   0  15   8   43.78   18.67
   0  15   9    0.39   13.71
  -1  14   0  114.60   36.31
  -1  14  -1   13.40   20.28
   1 -13   0  387.69   77.35
  -1  13   0  328.84   87.65
  -1  13  -1    9.09   21.20
  -1  13  -2   78.60   29.80
  -1  13  -3   63.17   39.58
   1 -12   0  276.95   70.57
  -1  12   0  441.23   80.11
   1 -12   1   11.23    5.70
  -1  12  -1    7.35   18.27
   1 -12   2   89.06   20.94
  -1  12  -2  107.66   30.66
  -1  12  -3   16.41   19.90
  -1  12  -4  139.38   46.17
   1 -12   5    0.79   21.01
  -1  12  -5   31.28   25.48
   1 -11   0   31.23    6.18
  -1  11   0   32.75   16.97
   1 -11   1  168.66   36.30
  -1  11  -1  177.92   46.04
   1 -11   2   29.78    8.40
  -1  11  -2   47.43   18.35
   1 -11   3  288.12   55.32
  -1  11  -3  194.62   64.79
   1 -11   4   42.93   18.52
   1 -11   4   48.88   10.64
  -1  11  -4   25.26   20.41
  -1  11  -4   39.78   22.88
  -1  11  -5   39.40   24.10
   1 -11   6   25.16   24.58
  -1  11  -6   13.69   24.80
   1 -11   7   10.47   32.30
  -1  11  -7   89.69   36.37
   1 -10   0  264.74   62.41
  -1  10   0  350.47   70.01
   1 -10   1    5.38    4.76
  -1  10  -1    7.37   13.24
   1 -10   2   11.02    2.74
   1 -10   2    1.07   12.73
  -1  10  -2    6.64   16.15
   1 -10   3  279.82   66.37
   1 -10   3  290.39   58.82
  -1  10  -3  265.37   69.44
  -1  10  -3  288.68   68.42
   1 -10   4  241.55   57.29
   1 -10   4  238.00   48.15
  -1  10  -4  203.24   61.20
  -1  10  -4  215.24   57.95
   1 -10   5    2.07    6.53
  -1  10  -5    7.05   18.10
   1 -10   6   83.28   21.16
   1 -10   6   13.73    8.73
  -1  10  -6   -0.12   19.54
  -1  10  -6   44.88   21.03
   1 -10   7   87.29   31.15
  -1  10  -7   77.50   31.48
   1 -10   8    7.12   21.40
  -1  10  -8    3.97   20.47
  -1   9   0   92.98   17.04
   1  -9   0   51.65   21.51
   1  -9   0   99.74   17.93
   1  -9   0   72.64   17.43
  -1   9   0  109.81   24.07
   1  -9   1   15.33    8.91
   1  -9   1   20.43    5.21
   1  -9   1   10.72    4.34
  -1   9  -1   17.19    9.93
  -1   9  -1    8.76    4.98
   1  -9   2   47.58   20.22
   1  -9   2   36.15   30.57
   1  -9   2   58.79   11.98
  -1   9  -2   62.49   22.44
  -1   9  -2   49.33   18.97
   1  -9   3  166.99   65.05
   1  -9   3  174.06   42.94
  -1   9  -3  254.81   55.50
  -1   9  -3  198.82   51.88
   1  -9   4  137.34   26.33
  -1   9  -4  123.34   40.17
  -1   9  -4   84.60   34.93
   1  -9   5   38.74   19.55
   1  -9   5   34.02   10.35
  -1   9  -5   41.43   22.70
  -1   9  -5   66.87   25.16
   1  -9   6  107.90   28.50
   1  -9   6   57.72   16.22
  -1   9  -6   80.34   32.57
  -1   9  -6   77.48   27.74
   1  -9   7  348.77   69.57
   1  -9   7  329.46   59.39
  -1   9  -7    1.40   73.08
  -1   9  -7  489.83   72.35
   1  -9   8   79.14   28.22
   1  -9   8  210.72   34.86
  -1   9  -8   -0.19   31.70
  -1   9  -8  108.15   31.00
   1  -9   9   10.68   18.16
  -1   9  -9    3.53   25.26
   1  -8   0   21.61   12.52
   1  -8   0   21.26    8.79
   1  -8   0   25.35    5.55
   1  -8   0   23.42    5.76
  -1   8   0   31.34   10.56
  -1   8   0   23.04    6.39
   1  -8   1    8.85    6.12
   1  -8   1   10.52    4.26
   1  -8   1    9.35    3.67
  -1   8  -1    9.74    9.14
  -1   8  -1   14.18    9.94
  -1   8  -1   10.63    4.22
   1  -8   2  840.76  160.45
   1  -8   2  884.02  182.56
   1  -8   2  744.37  172.41
   1  -8   2  619.56  164.17
   1  -8   2  831.90  164.40
  -1   8  -2  721.39  163.91
  -1   8  -2  904.14  174.41
  -1   8  -2  812.99  164.35
   1  -8   3  473.13  134.57
   1  -8   3  579.29  127.51
   1  -8   3  612.09  127.56
  -1   8  -3  856.53  133.35
  -1   8  -3  513.29  136.66
  -1   8  -3  533.22  127.44
   1  -8   4   17.14   22.91
   1  -8   4   27.65    7.13
  -1   8  -4   41.35   18.47
  -1   8  -4   20.83   13.87
   1  -8   5  144.08   39.54
   1  -8   5  136.04   29.14
  -1   8  -5  127.61   44.67
   1  -8   6   -0.47    5.60
  -1   8  -6    2.19   11.01
  -1   8  -6    1.24   16.16
   1  -8   7  206.05   54.79
   1  -8   7  153.87   54.54
   1  -8   7  212.76   44.06
  -1   8  -7  217.22   61.97
  -1   8  -7  222.24   55.07
   1  -8   8  308.67   47.96
   1  -8   8  213.23   34.21
  -1   8  -8   -1.24   50.31
  -1   8  -8  192.72   46.17
   1  -8   9    4.28   13.29
   1  -8   9    4.92   19.70
  -1   8  -9    2.01   13.56
  -1   8  -9   -5.22   23.84
   1  -8  10   14.84   17.74
  -1   8 -10    1.00   20.77
   1  -7   0  267.90   81.97
   1  -7   0  265.41   96.14
   1  -7   0  392.45   80.24
   1  -7   0  400.64   74.61
  -1   7   0  341.60   80.72
  -1   7   0  398.38   74.54
   1  -7   1    0.19    3.18
   1  -7   1    3.86   11.36
   1  -7   1    0.31    3.82
   1  -7   1   -0.08    3.38
   1  -7   1    0.56    2.70
  -1   7  -1    1.84    3.41
  -1   7  -1    2.09    6.27
  -1   7  -1    0.02    3.25
   1  -7   2  764.58  227.07
   1  -7   2  828.43  220.98
   1  -7   2  895.90  211.78
   1  -7   2 1042.31  211.91
  -1   7  -2 1038.91  207.02
  -1   7  -2 1283.70  223.06
  -1   7  -2 1183.72  211.95
   1  -7   3  325.11   83.16
   1  -7   3  163.17   61.68
   1  -7   3  265.64   56.69
   1  -7   3  289.77   56.74
  -1   7  -3  341.70   69.35
  -1   7  -3  299.54   64.46
  -1   7  -3  234.69   56.64
   1  -7   4  253.00   56.75
   1  -7   4  164.18   53.08
   1  -7   4  231.91   47.81
   1  -7   4  226.16   47.81
  -1   7  -4  306.51   62.65
  -1   7  -4  153.21   54.98
  -1   7  -4  204.20   47.82
   1  -7   5    0.08    2.37
   1  -7   5    0.87    2.41
  -1   7  -5   -0.04    3.67
   1  -7   5    2.92    6.24
   1  -7   5    7.51   14.37
  -1   7  -5    2.72    9.77
  -1   7  -5    0.71    9.20
   1  -7   6  216.32   75.89
   1  -7   6  369.64   77.66
  -1   7  -6  447.40   85.45
  -1   7  -6  325.50   80.02
   1  -7   7   71.38   27.34
   1  -7   7   68.91   27.31
   1  -7   7   65.01   15.93
  -1   7  -7   88.21   33.38
  -1   7  -7   80.42   27.25
   1  -7   8  145.55   44.77
   1  -7   8  168.22   44.28
   1  -7   8  169.47   32.20
  -1   7  -8  136.34   50.09
  -1   7  -8  117.41   42.71
   1  -7   9  328.07   60.51
   1  -7   9  308.27   60.23
   1  -7   9  223.50   47.44
  -1   7  -9   -1.01   64.25
   1  -7  10   12.56   15.93
   1  -7  10    6.57   16.46
  -1   7 -10    1.94   15.74
  -1   7 -10    5.36   20.07
   1  -7  11   64.21   25.89
   1  -7  11   68.92   29.33
  -1   7 -11    6.68   27.08
  -1   7 -11   28.09   22.49
   1  -6   0   24.75   12.45
   1  -6   0   42.39   18.40
   1  -6   0   24.78    8.59
   1  -6   0   11.83    5.33
   1  -6   0   22.73    5.37
  -1   6   0   26.37   13.43
  -1   6   0   23.35   12.94
  -1   6   0   33.07    9.37
  -1   6   0   26.65    5.51
   1  -6   1   73.17   24.63
   1  -6   1   80.36   35.69
   1  -6   1   79.89   19.71
   1  -6   1   76.81   15.75
   1  -6   1   78.75   15.73
  -1   6  -1   69.32   26.60
  -1   6  -1   81.78   20.82
  -1   6  -1   71.67   15.67
   1  -6   2  357.81   88.10
   1  -6   2  530.85  108.18
   1  -6   2  254.20   89.28
   1  -6   2  357.71   83.52
   1  -6   2  449.24   83.69
  -1   6  -2  469.41   92.81
  -1   6  -2  523.72   91.26
  -1   6  -2  378.07   83.55
   1  -6   3  337.57   89.05
   1  -6   3  361.40   83.03
   1  -6   3  434.46   83.19
  -1   6  -3  490.95   94.28
  -1   6  -3  280.49   90.51
  -1   6  -3  404.22   83.12
   1  -6   4  106.07   26.03
   1  -6   4  122.36   35.07
   1  -6   4   84.77   29.38
  -1   6  -4  158.09   40.37
  -1   6  -4  127.63   25.07
   1  -6   5   63.07   20.09
   1  -6   5   33.98   30.46
   1  -6   5   32.31   15.06
   1  -6   5   32.98   10.12
  -1   6  -5   66.83   24.36
  -1   6  -5   34.62   17.18
  -1   6  -5   50.18   10.62
   1  -6   6  751.31  137.22
   1  -6   6  472.09  153.24
   1  -6   6  625.42  143.55
   1  -6   6  517.30  135.35
  -1   6  -6  830.87  146.15
  -1   6  -6  554.14  146.17
  -1   6  -6  672.45  135.68
   1  -6   7  600.90  125.19
   1  -6   7  414.66  132.73
   1  -6   7  519.21  121.47
  -1   6  -7  680.52  134.42
  -1   6  -7  664.92  133.11
   1  -6   8    8.82   12.43
   1  -6   8    2.20   13.09
   1  -6   8    6.49    4.74
  -1   6  -8    8.47   18.38
  -1   6  -8   10.31   17.08
   1  -6   9   67.95   28.30
   1  -6   9   79.21   28.82
   1  -6   9   80.50   16.57
  -1   6  -9   71.34   36.06
  -1   6  -9   79.12   31.07
   1  -6  10   73.85   28.74
   1  -6  10  103.42   28.44
   1  -6  10   87.86   17.05
  -1   6 -10   42.55   35.36
  -1   6 -10   73.59   29.57
   1  -6  11  344.56   63.18
  -1   6 -11    0.62   68.64
  -1   6 -11  296.93   62.28
   1  -6  12    9.02   16.33
   1  -6  12   22.88   27.84
  -1   6 -12   -3.09   19.66
  -1   6 -12   -5.58   20.67
   1  -5   0  105.34   32.02
   1  -5   0  128.10   27.45
   1  -5   0   84.69   23.14
   1  -5   0  133.72   23.41
  -1   5   0  108.91   33.08
  -1   5   0  105.38   33.11
  -1   5   0   95.09   27.64
  -1   5   0  138.54   23.35
   1  -5   1 1861.83  437.03
   1  -5   1 1671.59  358.87
   1  -5   1 2463.68  376.91
   1  -5   1 1459.71  402.04
   1  -5   1 2145.12  388.68
  -1   5  -1 1934.48  362.84
  -1   5  -1 2189.68  403.04
  -1   5  -1 1445.62  388.41
   1  -5   2 1013.79  192.06
   1  -5   2 1161.31  212.47
   1  -5   2  724.20  208.79
   1  -5   2  815.09  199.95
  -1   5  -2  899.00  197.67
  -1   5  -2 1331.87  210.56
  -1   5  -2  990.63  200.01
   1  -5   3  400.10   84.82
   1  -5   3  409.43  104.04
   1  -5   3  265.67   84.98
   1  -5   3  322.98   79.15
  -1   5  -3  534.25   91.53
  -1   5  -3  271.41   86.56
  -1   5  -3  418.22   79.26
   1  -5   4   36.09   16.76
   1  -5   4   41.34   26.23
   1  -5   4   47.94   12.27
   1  -5   4   36.02    7.88
  -1   5  -4   43.16   20.57
  -1   5  -4   27.67   13.84
  -1   5  -4   27.07    8.12
   1  -5   5   69.54   18.01
   1  -5   5   91.74   28.47
   1  -5   5  109.22   41.38
   1  -5   5   97.15   22.85
  -1   5  -5  109.87   34.21
  -1   5  -5   79.96   24.99
  -1   5  -5   63.80   18.02
   1  -5   6  425.44   87.81
   1  -5   6  372.10   87.36
   1  -5   6  401.88   80.59
  -1   5  -6  428.27   96.56
  -1   5  -6  373.01   89.78
  -1   5  -6  290.91   80.47
   1  -5   7  427.41   95.28
   1  -5   7  520.38   93.32
   1  -5   7  328.92  107.90
   1  -5   7  389.08   96.84
   1  -5   7  350.04   92.88
  -1   5  -7  635.35  103.04
  -1   5  -7  521.45   96.81
  -1   5  -7  134.73   85.34
   1  -5   8   70.18   30.87
   1  -5   8  143.11   31.25
   1  -5   8   87.00   19.64
  -1   5  -8  116.33   38.00
  -1   5  -8  100.35   32.23
   1  -5   9   58.94   22.82
   1  -5   9   63.53   22.34
   1  -5   9   43.26   11.78
  -1   5  -9   59.12   29.22
  -1   5  -9   48.02   23.58
   1  -5  10   55.74   24.76
   1  -5  10   53.91   25.97
   1  -5  10   66.36   13.62
  -1   5 -10   60.30   31.62
  -1   5 -10   63.71   28.42
   1  -5  11   22.91   15.59
   1  -5  11   16.83   17.81
   1  -5  11   13.65    6.69
  -1   5 -11   27.17   23.91
  -1   5 -11   19.78   19.20
   1  -5  12   29.04   16.69
   1  -5  12   28.04   19.39
  -1   5 -12    0.65   22.06
  -1   5 -12   26.52   20.56
   1  -5  13    6.32   13.05
   1  -5  13    8.23   21.27
  -1   5 -13    2.90   20.30
  -1   5 -13    9.86   22.14
  -1   4   0   14.96    0.69
   1  -4   0   10.67    8.33
   1  -4   0   15.04   10.78
   1  -4   0   14.79    5.40
   1  -4   0    9.08    2.69
   1  -4   0   14.35    2.66
  -1   4   0   12.00    8.59
  -1   4   0   10.45    8.86
  -1   4   0   10.65    5.66
   1  -4   1  519.02  114.89
   1  -4   1  741.28  128.01
   1  -4   1  433.68  120.61
   1  -4   1  496.66  114.08
  -1   4  -1  486.48  116.47
  -1   4  -1  590.62  118.84
  -1   4  -1  657.24  121.49
  -1   4  -1  597.07  114.13
  -1   4  -2  500.87  127.26
   1  -4   2  591.12  115.92
   1  -4   2  719.05  132.71
   1  -4   2  420.84  121.21
   1  -4   2  501.91  114.53
  -1   4  -2  539.97  121.76
  -1   4  -2  678.92  122.57
  -1   4  -3 1156.63  326.47
   1  -4   3 1500.62  273.54
   1  -4   3 1952.95  295.22
   1  -4   3 1144.86  302.25
   1  -4   3 1146.12  290.80
  -1   4  -3 1916.78  281.94
  -1   4  -3 1258.06  303.67
   1  -4   4  757.68  140.38
   1  -4   4  818.80  161.63
   1  -4   4  740.53  148.44
   1  -4   4  488.35  140.29
  -1   4  -4  970.42  149.54
  -1   4  -4  557.23  149.82
  -1   4  -4  533.17  140.28
   1  -4   5  534.62  117.19
   1  -4   5  295.11  137.77
   1  -4   5  648.46  121.64
   1  -4   5  498.92  113.90
  -1   4  -5  699.32  126.93
  -1   4  -5  603.74  123.70
  -1   4  -5  515.93  113.93
   1  -4   6  332.70   91.32
   1  -4   6  399.55   76.16
   1  -4   6  351.87   72.96
   1  -4   6  352.79   66.17
  -1   4  -6  343.11   83.57
  -1   4  -6  338.50   75.36
  -1   4  -6  192.30   65.91
   1  -4   7    2.03    5.45
   1  -4   7    0.70   13.06
   1  -4   7    1.85   10.47
   1  -4   7    6.03    6.72
   1  -4   7    2.78    3.91
  -1   4  -7    3.57    8.34
  -1   4  -7    0.74   10.82
  -1   4  -7    0.45    5.08
   1  -4   8  383.93   77.45
   1  -4   8  230.32   90.58
   1  -4   8  340.66   78.32
   1  -4   8  346.10   68.09
  -1   4  -8  449.77   87.17
  -1   4  -8  387.72   77.99
  -1   4  -8  164.45   67.85
   1  -4   9   22.74   16.42
   1  -4   9   28.86   16.36
   1  -4   9   32.74    7.18
  -1   4  -9   32.35   21.31
  -1   4  -9   20.14   18.80
   1  -4  10  588.72  115.26
   1  -4  10  443.03  120.17
   1  -4  10  487.35  108.48
  -1   4 -10  520.83  125.12
  -1   4 -10  449.25  120.21
   1  -4  11  150.81   30.34
   1  -4  11  119.60   41.24
   1  -4  11  144.23   39.36
  -1   4 -11  144.92   49.12
  -1   4 -11   84.82   38.79
   1  -4  12    0.64    7.72
   1  -4  12    3.56   18.58
  -1   4 -12    3.34   14.61
  -1   4 -12    3.14   20.53
   1  -4  13  191.44   49.60
   1  -4  13  135.13   46.87
  -1   4 -13  162.27   57.77
  -1   4 -13  127.57   48.49
   1  -3   0    5.61    0.38
   1  -3   0    4.83    5.05
   1  -3   0    4.40    6.18
   1  -3   0    6.87    3.52
   1  -3   0    2.48    1.57
  -1   3   0    4.29    5.14
  -1   3   0    4.56    5.40
  -1   3   0    3.63    3.89
  -1   3   0    5.69    1.62
   1  -3   1  184.60   47.92
   1  -3   1  219.45   56.43
   1  -3   1  188.35   44.65
   1  -3   1  168.17   39.96
  -1   3  -1  208.70   48.80
  -1   3  -1  185.01   51.35
  -1   3  -1  221.26   45.28
  -1   3  -1  191.00   39.95
   1  -3   2 1643.13  301.68
   1  -3   2 2414.98  318.30
   1  -3   2 1683.12  335.67
   1  -3   2 1091.98  323.33
  -1   3  -2 1381.87  303.26
  -1   3  -2 1701.29  308.62
  -1   3  -2 2059.22  336.76
  -1   3  -2 1263.28  323.31
   1  -3   3  437.30   98.58
   1  -3   3  485.67  115.57
   1  -3   3  543.55  101.27
   1  -3   3  416.90   94.48
  -1   3  -3  530.98  106.47
  -1   3  -3  389.48  102.26
  -1   3  -3  422.61   94.46
   1  -3   4 1476.79  291.72
   1  -3   4 1929.79  313.95
   1  -3   4 1768.68  323.21
   1  -3   4 1109.51  310.52
  -1   3  -4 1987.99  302.27
  -1   3  -4 1469.84  324.55
  -1   3  -4 1345.10  310.54
   1  -3   5  295.03   60.96
   1  -3   5  211.58   77.81
   1  -3   5  278.29   57.91
   1  -3   5  242.51   51.65
  -1   3  -5  268.92   69.56
  -1   3  -5  309.61   59.79
  -1   3  -5  162.26   51.58
   1  -3   6 1108.96  204.72
   1  -3   6 1295.83  224.84
   1  -3   6 1243.91  222.00
   1  -3   6 1129.26  211.38
  -1   3  -6 1031.30  216.03
  -1   3  -6 1029.22  223.66
  -1   3  -6  536.50  211.14
   1  -3   7  235.94   66.44
   1  -3   7  142.37   80.90
   1  -3   7  480.59   67.59
   1  -3   7  348.55   64.11
   1  -3   7  327.90   57.04
  -1   3  -7  328.27   76.24
  -1   3  -7  239.01   65.53
  -1   3  -7  175.50   56.78
   1  -3   8   37.58   17.11
   1  -3   8   26.43   23.83
   1  -3   8   42.47   16.40
   1  -3   8   27.31   15.57
   1  -3   8   40.92    7.72
  -1   3  -8   42.24   22.26
  -1   3  -8   18.50    8.23
   1  -3   9  360.59   77.00
   1  -3   9  341.11   79.22
   1  -3   9  271.69   79.35
  -1   3  -9  297.04   88.89
  -1   3  -9  301.53   79.13
   1  -3  10  438.19  116.63
   1  -3  10  651.69  122.66
   1  -3  10  560.90  110.75
  -1   3 -10  582.09  127.63
  -1   3 -10  501.98  121.79
   1  -3  11  170.44   43.09
   1  -3  11  108.06   39.62
   1  -3  11  137.22   29.95
  -1   3 -11  122.44   50.48
  -1   3 -11  124.12   40.30
   1  -3  12    3.77   11.05
   1  -3  12    4.94   14.99
   1  -3  12    5.67    5.28
  -1   3 -12    2.98   13.62
  -1   3 -12    8.79   16.66
   1  -3  13   38.37   21.91
   1  -3  13   54.60   22.44
  -1   3 -13   46.14   29.05
  -1   3 -13   50.59   26.32
   1  -3  14  117.84   43.45
   1  -3  14  148.26   42.56
  -1   3 -14  146.61   53.20
  -1   3 -14  183.68   44.20
   1  -2   0 2254.50  382.29
   1  -2   0 2118.70  424.93
  -1   2   0 1880.13  378.04
  -1   2   0 1802.65  379.70
  -1   2   0 1737.13  424.98
  -1   2   0 2064.67  410.92
   1  -2   1 1167.96  236.23
   1  -2   1 1454.18  245.22
   1  -2   1  926.04  260.65
  -1   2  -1 1034.82  236.79
  -1   2  -1 1385.65  240.74
  -1   2  -1 1590.92  261.35
  -1   2  -1 1082.72  250.62
   1  -2   2 2401.16  503.19
   1  -2   2 3537.58  517.97
   1  -2   2 2664.96  568.73
  -1   2  -2 2662.76  504.43
  -1   2  -2 2958.15  510.67
  -1   2  -2 2851.41  569.57
  -1   2  -2 2108.44  550.55
   1  -2   3   14.06    2.37
  -1   2  -3   22.18    2.53
   1  -2   3   18.96   12.32
   1  -2   3   31.95    9.06
  -1   2  -3   33.74   15.62
  -1   2  -3   33.12    9.68
   1  -2   4  685.93  127.48
   1  -2   4  727.02  146.17
   1  -2   4  689.66  134.03
   1  -2   4  488.04  125.90
  -1   2  -4  797.49  137.53
  -1   2  -4  544.42  135.09
  -1   2  -4  479.29  125.86
   1  -2   5 1944.89  336.90
   1  -2   5 1587.57  359.26
   1  -2   5 2195.49  377.31
   1  -2   5 2039.84  375.10
   1  -2   5 1537.08  360.66
  -1   2  -5 1934.53  348.84
  -1   2  -5 1778.37  376.41
  -1   2  -5 1360.73  360.57
   1  -2   6   27.46   14.92
   1  -2   6    9.84   23.42
   1  -2   6   19.85   12.97
   1  -2   6   31.27   12.18
   1  -2   6   38.19    6.50
  -1   2  -6   36.67   19.76
  -1   2  -6   24.93   13.41
  -1   2  -6   21.76    6.31
   1  -2   7  270.14   70.65
   1  -2   7  308.59   86.69
   1  -2   7  267.32   70.28
   1  -2   7  315.98   68.61
   1  -2   7  339.69   61.59
  -1   2  -7  339.74   80.97
  -1   2  -7  370.45   70.62
  -1   2  -7  216.16   61.38
   1  -2   8  149.60   38.63
   1  -2   8   85.01   50.04
   1  -2   8  166.65   35.92
   1  -2   8  140.77   33.41
   1  -2   8  145.64   27.03
  -1   2  -8  186.05   47.15
  -1   2  -8   76.58   34.50
  -1   2  -8   72.96   26.75
   1  -2   9  187.71   40.48
   1  -2   9   95.24   51.49
   1  -2   9  133.03   37.45
   1  -2   9  132.72   36.63
   1  -2   9  152.64   28.35
  -1   2  -9  196.36   48.89
  -1   2  -9  123.80   37.28
  -1   2  -9   43.52   27.99
   1  -2  10  281.81   66.94
   1  -2  10  238.03   65.21
   1  -2  10  261.17   55.76
  -1   2 -10  290.26   76.91
  -1   2 -10  218.58   65.33
   1  -2  11   90.96   31.97
   1  -2  11   98.54   29.19
   1  -2  11   91.07   19.33
  -1   2 -11   80.38   38.96
  -1   2 -11   95.07   29.82
   1  -2  12  298.04   72.56
   1  -2  12  301.01   71.47
   1  -2  12  292.05   61.02
  -1   2 -12  320.67   82.13
  -1   2 -12  189.85   71.52
   1  -2  13  131.25   38.19
   1  -2  13  149.18   35.69
   1  -2  13   89.17   24.40
  -1   2 -13  132.32   45.47
  -1   2 -13   99.77   35.43
   1  -2  14  198.81   52.60
   1  -2  14  171.37   49.27
  -1   2 -14  159.15   60.37
  -1   2 -14  178.40   51.51
   1  -2  15   10.11   13.82
   1  -2  15   13.32   17.19
  -1   2 -15   27.26   24.18
  -1   2 -15   15.55   18.22
   1  -1   0    9.40    7.53
   1  -1   0   10.91    8.26
   1  -1   0   15.20    4.52
   1  -1   0   11.13    1.77
  -1   1   0   12.12    7.52
  -1   1   0    8.66    7.80
  -1   1   0    6.18    4.47
  -1   1   0   10.17    1.61
   1  -1   1 1559.30  334.69
   1  -1   1 1720.64  341.90
   1  -1   1 1696.18  374.70
  -1   1  -1 1777.66  335.06
  -1   1  -1 1885.55  339.01
  -1   1  -1 2329.01  375.23
  -1   1  -1 1474.75  361.76
  -1   1  -3 9999.00 2153.34
   1  -1   4  126.61   35.60
   1  -1   4  153.74   47.73
   1  -1   4  126.11   31.01
   1  -1   4  153.97   25.40
  -1   1  -4  142.05   42.79
  -1   1  -4  103.64   31.71
  -1   1  -4   68.29   25.23
   1  -1   5   77.09   14.60
   1  -1   5   57.97   24.87
   1  -1   5   83.82   35.91
   1  -1   5   73.42   21.28
   1  -1   5   71.44   19.99
  -1   1  -5   90.15   31.47
  -1   1  -5   91.89   21.59
  -1   1  -5   55.84   14.51
   1  -1   6  201.17   58.03
   1  -1   6  259.94   75.18
   1  -1   6  263.74   56.53
   1  -1   6  222.93   55.00
   1  -1   6  300.51   48.43
  -1   1  -6  250.04   67.88
  -1   1  -6  323.80   56.74
  -1   1  -6  138.47   48.14
   1  -1   7   35.36   16.38
   1  -1   7   44.98   25.00
   1  -1   7   45.17   14.44
   1  -1   7   27.53   13.56
   1  -1   7   32.24    7.12
  -1   1  -7   36.04   21.74
  -1   1  -7   36.60   14.19
  -1   1  -7   24.48    7.40
   1  -1   8   93.81   29.16
   1  -1   8   61.00   39.23
   1  -1   8   95.80   25.65
   1  -1   8   77.80   24.13
   1  -1   8   93.19   17.85
  -1   1  -8  121.56   36.91
  -1   1  -8  103.31   25.83
  -1   1  -8   52.04   17.93
   1  -1   9  854.46  146.29
   1  -1   9  721.21  134.24
   1  -1   9  471.38  148.44
   1  -1   9  553.27  141.30
   1  -1   9  360.78  139.73
  -1   1  -9  825.62  146.70
  -1   1  -9  709.06  141.84
  -1   1  -9  304.32  130.53
   1  -1  10  529.64  123.52
   1  -1  10  574.83  129.31
   1  -1  10  624.89  118.70
  -1   1 -10  604.35  135.52
  -1   1 -10  365.99  128.52
   1  -1  11   51.28   23.49
   1  -1  11   56.33   21.63
   1  -1  11   51.18   12.22
  -1   1 -11   67.92   30.25
  -1   1 -11   62.13   24.58
   1  -1  12   44.54    9.01
   1  -1  12   43.64   21.12
   1  -1  12   39.88   19.75
  -1   1 -12   39.19   26.91
  -1   1 -12   40.50   20.89
   1  -1  13  312.30   77.59
   1  -1  13  301.63   76.37
   1  -1  13  316.46   66.18
  -1   1 -13  280.25   87.02
  -1   1 -13  377.61   77.42
   1  -1  14   81.12   28.95
   1  -1  14   51.40   27.68
  -1   1 -14   65.32   34.98
  -1   1 -14   64.66   27.02
   1  -1  15    7.96   10.69
   1  -1  15    4.09   15.04
  -1   1 -15    3.25   21.62
  -1   1 -15   13.06   19.82
   1   0   0 1829.39  357.15
  -1   0   0 1855.01  355.54
   1   0   1  135.51   38.08
   1   0   1  160.57   42.24
   1   0   1  146.00   34.14
   1   0   1  121.32   29.80
  -1   0  -1  157.63   38.31
  -1   0  -1  157.03   40.72
  -1   0  -1  185.07   34.78
  -1   0  -1  127.56   29.78
   1   0   2   12.50    9.18
   1   0   2   14.50   12.29
   1   0   2   16.71    6.39
   1   0   2   17.20    2.79
  -1   0  -2   14.13    9.46
  -1   0  -2   16.23   11.20
  -1   0  -2   11.60    6.87
  -1   0  -2   11.44    2.59
   1   0   3   13.74    9.81
   1   0   3   22.86   14.45
   1   0   3   15.31    7.64
   1   0   3   12.37    7.09
   1   0   3   14.97    3.10
  -1   0  -3   22.41   12.72
  -1   0  -3   15.24    7.72
  -1   0  -3   10.07    2.83
   1   0   4 4254.94  816.92
   1   0   4 5210.71  908.83
   1   0   4 3702.67  907.69
  -1   0  -4 5354.43  809.05
  -1   0  -4 5067.17  908.71
  -1   0  -4 3381.29  879.87
   1   0   5 1518.39  284.38
   1   0   5 1351.61  305.46
   1   0   5 1661.37  315.96
   1   0   5  867.20  314.65
   1   0   5 1671.71  301.78
  -1   0  -5 1939.17  297.34
  -1   0  -5  765.44  315.22
  -1   0  -5 1219.55  301.65
   1   0   6  345.74   86.02
   1   0   6  365.45  104.59
   1   0   6  361.26   87.38
   1   0   6  224.71   86.32
   1   0   6  484.04   79.07
  -1   0  -6  485.63   97.53
  -1   0  -6  403.24   87.59
  -1   0  -6  294.94   78.87
   1   0   7  152.65   30.79
   1   0   7  169.30   40.02
   1   0   7  150.47   53.27
   1   0   7  121.13   35.81
   1   0   7   68.58   34.83
  -1   0  -7  202.31   49.29
  -1   0  -7  153.96   36.31
  -1   0  -7   83.06   28.59
  -1   0  -8  360.77  139.75
   1   0   8  665.55  128.92
   1   0   8  322.38  145.10
   1   0   8  679.52  135.99
   1   0   8  435.55  134.50
   1   0   8  765.62  125.72
  -1   0  -8  885.57  142.05
  -1   0  -8  519.13  135.55
  -1   0  -9  373.61  208.11
   1   0   9 1140.50  183.76
   1   0   9  536.36  198.73
   1   0   9 1126.65  198.59
   1   0   9  798.16  197.08
   1   0   9 1082.04  186.37
  -1   0  -9 1072.75  196.79
  -1   0  -9 1023.29  198.60
   1   0  10  541.57  113.83
   1   0  10  644.53  118.46
   1   0  10  271.26  116.82
   1   0  10  588.25  107.96
  -1   0 -10  647.62  126.09
  -1   0 -10  630.05  118.55
  -1   0 -10  351.82  107.70
   1   0  11  172.18   50.72
   1   0  11  192.38   47.67
   1   0  11  183.01   38.68
  -1   0 -11  201.75   60.34
  -1   0 -11  192.13   48.33
   1   0  12  104.85   38.07
   1   0  12  120.93   34.42
   1   0  12  117.09   25.28
  -1   0 -12  127.86   46.85
  -1   0 -12  154.05   35.88
   1   0  13  129.57   39.86
   1   0  13  104.15   35.68
   1   0  13  122.94   26.60
  -1   0 -13  118.49   47.69
  -1   0 -13  143.53   37.01
   1   0  14  131.86   42.21
   1   0  14  110.92   37.84
  -1   0 -14  130.83   49.95
  -1   0 -14  164.49   40.54
   1   0  15    1.00    7.78
   1   0  15    0.10   13.78
  -1   0 -15   -5.98   12.01
   1   1   0  361.05   82.64
   1   1   0  406.64   77.86
  -1  -1   0  307.73   82.10
  -1  -1   0  435.13   77.82
   1   1   2  748.53  154.29
   1   1   2 1006.19  164.49
   1   1   2  817.85  167.91
   1   1   2  569.51  167.38
   1   1   2  789.92  158.37
  -1  -1  -2  804.28  155.21
  -1  -1  -2  710.56  160.26
  -1  -1  -2  693.90  167.96
  -1  -1  -2  653.94  158.32
   1   1   3  457.04  118.32
   1   1   3  368.28  108.52
   1   1   3  681.45  122.65
   1   1   3  572.54  114.46
   1   1   3  588.82  114.32
  -1  -1  -3  553.81  117.04
  -1  -1  -3  368.72  114.40
  -1  -1  -3  625.87  106.11
   1   1   4   74.75   17.40
  -1  -1  -4   63.46   17.30
   1   1   4   72.66   27.00
   1   1   4  124.11   37.46
   1   1   4  155.58   23.37
  -1  -1  -4   97.79   33.47
  -1  -1  -4   82.48   23.11
   1   1   5  216.19   65.26
   1   1   5  200.10   81.33
   1   1   5  342.33   64.37
   1   1   5  399.82   64.62
   1   1   5  300.49   56.78
  -1  -1  -5  272.19   75.38
  -1  -1  -5  238.33   64.17
  -1  -1  -5  269.74   56.72
   1   1   6 1170.95  223.17
   1   1   6  925.57  244.88
   1   1   6  978.86  244.30
   1   1   6 1319.96  244.72
   1   1   6 1227.21  232.44
  -1  -1  -6 1324.86  236.59
  -1  -1  -6  789.55  244.35
  -1  -1  -6  944.76  232.32
   1   1   7   52.77   22.21
   1   1   7   46.64   32.02
   1   1   7   62.12   18.60
   1   1   7   42.90   18.16
   1   1   7   63.20   11.80
  -1  -1  -7   83.48   29.51
  -1  -1  -7   49.05   18.37
  -1  -1  -7   48.18   11.81
   1   1   8   69.53   26.03
   1   1   8   53.05   35.75
   1   1   8   80.35   21.98
   1   1   8   35.61   22.18
   1   1   8   94.23   15.17
  -1  -1  -8  111.68   33.95
  -1  -1  -8   53.93   21.94
  -1  -1  -8   50.56   15.08
   1   1   9  805.23  158.14
   1   1   9  514.20  173.10
   1   1   9  707.77  168.67
   1   1   9  459.62  167.85
   1   1   9  852.16  158.02
  -1  -1  -9 1149.58  172.01
  -1  -1  -9  683.43  168.80
  -1  -1  -9  637.63  157.88
   1   1  10    2.66    6.07
   1   1  10    3.70   14.54
   1   1  10    5.20    9.12
   1   1  10    3.50   12.50
   1   1  10    3.30    3.09
  -1  -1 -10    2.15   11.51
  -1  -1 -10    3.98    9.70
  -1  -1 -10   -0.33    3.99
   1   1  11   21.01   13.96
   1   1  11   16.89   15.68
   1   1  11   19.36    5.35
  -1  -1 -11   30.27   19.75
  -1  -1 -11   22.36   18.29
   1   1  12  274.21   73.48
   1   1  12  292.49   71.90
   1   1  12  290.40   62.74
  -1  -1 -12  367.27   84.60
  -1  -1 -12  322.69   72.66
   1   1  13  221.20   63.30
   1   1  13  254.21   60.46
   1   1  13  227.90   51.17
  -1  -1 -13  290.08   73.51
  -1  -1 -13  296.34   62.30
   1   1  14  164.28   46.33
   1   1  14  128.47   42.26
   1   1  14  136.42   32.31
  -1  -1 -14  142.89   54.15
  -1  -1 -14  221.04   43.46
   1   1  15  133.05   41.24
   1   1  15  124.63   36.61
  -1  -1 -15  113.29   48.65
   1   1  16   38.73   22.83
   1   1  16   38.35   24.02
  -1  -1 -16   58.25   32.60
   1   2   0 2933.17  560.37
   1   2   1  556.02  122.41
   1   2   1  639.17  126.34
   1   2   1  644.65  123.33
  -1  -2  -1  550.29  122.60
  -1  -2  -1  463.59  123.45
  -1  -2  -1  528.29  123.10
  -1  -2  -1  752.17  123.35
   1   2   2  769.17  166.56
   1   2   2  863.47  176.85
   1   2   2  644.28  181.27
   1   2   2  582.89  182.34
   1   2   2  892.57  172.57
  -1  -2  -2  702.58  167.79
  -1  -2  -2  971.63  171.54
  -1  -2  -2  772.11  182.33
  -1  -2  -2  946.68  172.57
   1   2   3  520.06  111.02
   1   2   3  575.32  125.40
   1   2   3  300.33  117.32
   1   2   3  533.63  109.11
  -1  -2  -3  536.40  118.83
  -1  -2  -3  584.51  117.63
  -1  -2  -3  456.34  117.15
  -1  -2  -3  543.57  109.09
   1   2   4 2714.37  666.99
   1   2   4 3435.90  734.69
   1   2   4 3464.95  735.37
  -1  -2  -4 3534.05  658.39
  -1  -2  -4 5429.39  735.97
  -1  -2  -4 3104.78  735.04
  -1  -2  -4 3119.41  711.26
   1   2   5   20.49   12.63
   1   2   5   22.60   19.78
   1   2   5   17.54    9.29
   1   2   5   22.60   10.57
   1   2   5   24.72    4.67
  -1  -2  -5   26.83   17.17
  -1  -2  -5   15.07   10.39
  -1  -2  -5   22.25    9.84
  -1  -2  -5   23.31    4.70
  -1  -2  -6  101.62   18.46
   1   2   6   88.04   28.66
   1   2   6   91.68   41.06
   1   2   6   79.40   24.07
   1   2   6   79.29   24.34
   1   2   6   78.83   17.86
  -1  -2  -6  100.39   36.43
  -1  -2  -6   45.58   24.27
  -1  -2  -6   80.61   24.24
   1   2   7  190.36   61.65
   1   2   7  305.21   77.83
   1   2   7  285.57   59.52
   1   2   7  207.96   59.87
   1   2   7  247.04   52.14
  -1  -2  -7  332.45   72.86
  -1  -2  -7  274.61   60.83
  -1  -2  -7  206.15   59.60
  -1  -2  -7  269.57   52.21
   1   2   8 1464.80  267.61
   1   2   8  779.93  285.17
   1   2   8 1209.03  294.64
   1   2   8  947.14  294.78
   1   2   8 1369.25  281.49
  -1  -2  -8 1690.38  282.02
  -1  -2  -8 1710.15  295.76
  -1  -2  -8 1296.77  281.45
   1   2   9 1266.07  227.21
   1   2   9  581.60  242.41
   1   2   9  844.63  247.45
   1   2   9 1240.94  248.63
   1   2   9 1034.25  235.50
  -1  -2  -9 1567.35  241.67
  -1  -2  -9 1270.41  248.59
  -1  -2  -9 1133.51  235.55
  -1  -2 -10   38.84   11.83
   1   2  10   58.22   23.59
   1   2  10   42.10   33.78
   1   2  10   63.22   19.83
   1   2  10   39.06   21.93
   1   2  10   67.13   12.67
  -1  -2 -10   99.74   31.35
  -1  -2 -10   82.04   20.51
   1   2  11  244.92   60.24
   1   2  11  210.82   56.86
   1   2  11  235.22   48.93
  -1  -2 -11  249.07   70.71
  -1  -2 -11  191.60   57.17
   1   2  12  301.81   72.25
   1   2  12  249.48   69.82
   1   2  12  300.48   61.45
  -1  -2 -12  308.82   83.08
  -1  -2 -12  255.79   70.57
   1   2  13  168.29   47.08
   1   2  13  151.72   42.58
   1   2  13  149.14   34.22
  -1  -2 -13  195.10   56.51
   1   2  14  251.05   57.44
   1   2  14  235.38   53.77
   1   2  14  192.99   43.96
  -1  -2 -14  225.32   66.52
  -1  -2 -14  146.41   44.38
   1   2  15   21.43   17.63
   1   2  15   26.43   16.06
  -1  -2 -15   23.91   21.71
   1   2  16  136.61   43.39
   1   2  16  106.24   41.29
  -1  -2 -16  153.70   53.91
   1   3   0   58.61   19.93
   1   3   0   45.63    8.59
   1   3   0   45.86    8.75
  -1  -3   0   36.57   17.44
  -1  -3   0   45.14   12.09
  -1  -3   0   36.40    8.53
  -1  -3   0   45.30    8.77
   1   3   1 1452.76  291.93
   1   3   1 1602.58  309.29
   1   3   1 1562.50  309.49
  -1  -3  -1 1267.22  288.12
  -1  -3  -1 1563.55  320.81
  -1  -3  -1 1342.92  309.25
  -1  -3  -1 1611.21  309.50
   1   3   2  219.19   56.12
   1   3   2  339.09   65.40
   1   3   2  198.17   54.04
   1   3   2  237.14   49.58
  -1  -3  -2  232.63   57.66
  -1  -3  -2  206.88   58.87
  -1  -3  -2  259.05   55.25
  -1  -3  -2  253.60   49.42
  -1  -3  -2  257.56   49.60
   1   3   3 1742.59  421.69
  -1  -3  -3 1625.76  420.88
   1   3   3 1699.53  346.62
   1   3   3 1712.22  364.34
   1   3   3 2138.05  388.25
   1   3   3 1219.95  389.41
  -1  -3  -3 2170.98  354.11
  -1  -3  -3 1759.13  389.26
  -1  -3  -3 1855.32  374.56
   1   3   4 2103.33  402.04
   1   3   4 1440.82  426.95
   1   3   4 1837.87  428.28
   1   3   4 1925.06  411.99
  -1  -3  -4 1722.48  391.32
  -1  -3  -4 1735.53  428.05
  -1  -3  -4 1965.79  411.84
  -1  -3  -4 2333.10  412.04
   1   3   5  328.62   73.86
   1   3   5  267.80   91.33
   1   3   5  334.62   72.97
   1   3   5  390.46   74.29
   1   3   5  284.73   66.30
  -1  -3  -5  223.57   73.70
  -1  -3  -5  355.92   66.36
   1   3   6   63.55   23.11
   1   3   6   23.45   34.15
   1   3   6   39.31   19.08
   1   3   6   59.63   12.76
  -1  -3  -6   68.67   29.86
  -1  -3  -6   59.46   19.65
  -1  -3  -6   88.07   18.91
  -1  -3  -6   68.17   12.89
   1   3   7  624.41  142.72
   1   3   7  791.03  161.43
   1   3   7  582.85  150.92
   1   3   7  560.51  151.87
   1   3   7  622.54  141.94
  -1  -3  -7  901.86  156.02
  -1  -3  -7  859.59  152.84
  -1  -3  -7  581.14  151.50
  -1  -3  -7  725.34  141.99
   1   3   8  566.47  115.58
   1   3   8  411.03  131.12
   1   3   8  513.90  119.61
   1   3   8  403.37  120.43
   1   3   8  542.71  111.11
  -1  -3  -8  785.93  128.83
  -1  -3  -8  451.91  121.07
  -1  -3  -8  485.97  120.15
  -1  -3  -8  498.81  111.06
   1   3   9  519.19  106.18
   1   3   9  397.13  119.88
   1   3   9  484.78  108.78
   1   3   9  447.31  109.59
   1   3   9  421.75  100.13
  -1  -3  -9  630.44  119.10
  -1  -3  -9  465.79  110.49
  -1  -3  -9  503.64  109.58
  -1  -3  -9  484.55  100.25
   1   3  10    9.54   10.18
   1   3  10   14.22   19.92
   1   3  10   15.19   11.12
   1   3  10   12.46    3.63
  -1  -3 -10   12.73   14.90
  -1  -3 -10   18.43   10.15
  -1  -3 -10    8.74    4.21
   1   3  11   24.14   14.40
   1   3  11   16.51   12.18
   1   3  11   23.30    5.60
  -1  -3 -11   24.75   20.76
   1   3  12  739.88  161.69
   1   3  12 1000.93  172.30
   1   3  12  735.62  160.75
  -1  -3 -12  899.19  174.97
  -1  -3 -12  653.70  160.70
   1   3  13  112.60   33.42
   1   3  13  115.75   28.98
   1   3  13   83.10   20.67
  -1  -3 -13  110.59   42.37
  -1  -3 -13   80.43   21.62
   1   3  14   73.52   25.05
   1   3  14   48.80   20.98
   1   3  14   51.36   12.91
  -1  -3 -14   64.64   31.83
  -1  -3 -14   43.29   13.37
   1   3  15    9.53   11.99
   1   3  15   12.21   13.36
  -1  -3 -15    6.90   16.61
   1   3  16  202.88   52.92
   1   3  16  138.91   49.57
  -1  -3 -16  175.78   63.38
   1   4   0  121.55   33.23
   1   4   0   82.20   22.84
   1   4   0   85.89   17.67
   1   4   0   99.38   17.87
  -1  -4   0   69.52   27.08
  -1  -4   0   89.12   21.60
  -1  -4   0   78.94   17.66
  -1  -4   0   86.13   17.85
   1   4   1   54.56   20.51
   1   4   1   47.45   20.51
   1   4   1   58.96   13.73
   1   4   1   54.76   10.00
   1   4   1   46.35    9.97
  -1  -4  -1   42.32   18.44
  -1  -4  -1   55.61   13.43
  -1  -4  -1   51.30    9.88
  -1  -4  -1   48.31    9.99
   1   4   2  779.78  183.35
   1   4   2 1130.17  196.41
   1   4   2  916.03  199.76
   1   4   2  783.74  191.45
   1   4   2  897.10  191.68
  -1  -4  -2  923.70  185.53
  -1  -4  -2  976.99  200.52
  -1  -4  -2  981.07  191.53
  -1  -4  -2 1018.69  191.72
  -1  -4  -3 1441.09  331.65
   1   4   3 1642.89  295.51
   1   4   3 1109.59  305.70
   1   4   3 1398.23  294.81
  -1  -4  -3 1560.22  280.78
  -1  -4  -3 1602.66  307.04
  -1  -4  -3 1263.17  294.61
   1   4   4  301.25   72.69
   1   4   4  372.46   90.85
   1   4   4  285.82   71.84
   1   4   4  391.31   73.74
   1   4   4  279.44   66.25
  -1  -4  -4  343.24   80.13
  -1  -4  -4  336.45   73.17
  -1  -4  -4  295.57   66.13
  -1  -4  -4  353.40   66.32
   1   4   5  118.24   27.72
  -1  -4  -5   96.34   26.90
   1   4   5  133.70   50.41
   1   4   5  111.19   30.98
   1   4   5  149.37   32.69
  -1  -4  -5  141.48   43.37
  -1  -4  -5  141.05   32.29
  -1  -4  -5  137.81   26.04
   1   4   6   21.66   12.06
   1   4   6   25.19   19.35
   1   4   6   11.81    8.40
   1   4   6   19.76    4.39
  -1  -4  -6   24.70   16.15
  -1  -4  -6   25.85   10.24
  -1  -4  -6   17.83    4.93
  -1  -4  -6   18.74    4.41
   1   4   7 1277.72  253.82
   1   4   7  990.31  272.16
   1   4   7 1228.04  278.59
   1   4   7  928.75  279.73
   1   4   7 1333.60  266.80
  -1  -4  -7 1647.20  267.55
  -1  -4  -7 1286.48  280.21
  -1  -4  -7  954.97  266.52
  -1  -4  -7 1439.78  266.83
   1   4   8  643.88  132.49
   1   4   8  422.53  147.61
   1   4   8  693.42  138.95
   1   4   8  350.66  139.48
   1   4   8  624.52  130.09
  -1  -4  -8  838.80  145.68
  -1  -4  -8  584.07  140.40
  -1  -4  -8  587.55  130.00
  -1  -4  -8  651.88  130.11
   1   4   9  407.17   90.32
   1   4   9  260.74  102.64
   1   4   9  316.46   90.16
   1   4   9  285.50   91.48
   1   4   9  397.68   82.75
  -1  -4  -9  551.31  102.79
  -1  -4  -9  514.83   93.04
  -1  -4  -9  382.96   82.72
  -1  -4  -9  408.90   82.77
   1   4  10   28.11    4.36
   1   4  10   27.68   14.28
   1   4  10   11.75   19.23
   1   4  10   19.01   11.84
   1   4  10   15.01   14.93
  -1  -4 -10   33.84   20.09
  -1  -4 -10   12.80   15.46
  -1  -4 -10   25.34    7.12
  -1  -4 -10   23.54    6.02
  -1  -4 -11  806.34  246.00
   1   4  11 1125.49  214.21
   1   4  11 1189.18  232.16
   1   4  11 1047.75  220.18
  -1  -4 -11 1146.38  227.94
   1   4  12  132.42   43.25
   1   4  12  113.86   38.68
   1   4  12  155.45   31.11
  -1  -4 -12  179.26   53.02
  -1  -4 -12  151.50   31.64
   1   4  13  375.14   80.42
   1   4  13  278.82   77.90
   1   4  13  304.71   69.82
  -1  -4 -13  402.01   92.14
  -1  -4 -13  315.22   70.14
   1   4  14   10.33   12.28
   1   4  14   12.21   12.71
   1   4  14   13.32    5.27
  -1  -4 -14   18.01   17.85
  -1  -4 -14   13.35    9.28
   1   4  15  250.28   57.80
   1   4  15  112.68   51.44
  -1  -4 -15  211.93   67.02
   1   4  16   40.30   21.90
   1   4  16   36.64   18.14
  -1  -4 -16   42.53   27.77
   1   5   0  481.97  123.62
   1   5   0  526.42  112.92
   1   5   0  551.82  105.22
  -1  -5   0  483.35  111.48
  -1  -5   0  495.10  105.21
  -1  -5   0  495.46  105.36
   1   5   1    4.03    3.52
   1   5   1    0.82    2.19
   1   5   1    0.98    1.51
  -1  -5  -1    1.10    2.96
  -1  -5  -1    0.77    1.90
  -1  -5  -1    0.55    1.61
   1   5   2  149.07   30.30
   1   5   2  139.40   30.42
  -1  -5  -2  159.20   34.92
  -1  -5  -2  145.88   30.31
  -1  -5  -2  148.77   30.46
   1   5   3 2737.46  729.41
   1   5   3 3764.40  708.02
   1   5   3 3584.45  708.15
  -1  -5  -3 2924.19  644.49
  -1  -5  -3 3915.25  730.62
  -1  -5  -3 3380.89  707.98
  -1  -5  -3 3499.95  708.15
   1   5   4   12.09    8.60
   1   5   4    4.34   14.73
   1   5   4   11.85    5.61
   1   5   4   12.21    2.75
  -1  -5  -4   11.72   10.51
  -1  -5  -4   13.68    6.82
  -1  -5  -4   12.04    3.64
  -1  -5  -4   14.43    2.96
   1   5   5   14.80    9.53
   1   5   5   12.89    6.21
   1   5   5   16.77    8.81
   1   5   5   12.19    3.19
  -1  -5  -5   13.77   12.27
  -1  -5  -5   14.64    7.63
  -1  -5  -5   13.39    4.09
  -1  -5  -5   13.78    3.26
   1   5   6  155.72   33.41
  -1  -5  -6  143.73   32.61
   1   5   6  145.92   41.24
   1   5   6  119.14   53.72
   1   5   6  118.93   36.01
   1   5   6  141.89   38.03
  -1  -5  -6  157.65   49.12
  -1  -5  -6  151.21   37.90
  -1  -5  -6  164.91   31.07
   1   5   7  172.43   46.76
   1   5   7  190.06   41.96
   1   5   7  167.76   43.90
   1   5   7  156.25   36.28
  -1  -5  -7  214.69   55.83
  -1  -5  -7  172.31   36.39
  -1  -5  -7  176.55   36.35
  -1  -5  -8 1181.37  250.53
   1   5   8  971.36  215.28
   1   5   8  583.07  229.83
   1   5   8 1183.36  233.87
   1   5   8  859.84  235.39
   1   5   8 1086.86  223.14
  -1  -5  -8 1280.67  228.68
  -1  -5  -8 1098.53  223.09
   1   5   9   30.57    6.04
  -1  -5  -9   33.55    5.84
   1   5   9   39.50   16.57
   1   5   9   24.79   22.68
   1   5   9   26.65   13.28
   1   5   9   31.40   14.58
  -1  -5  -9   44.24   22.36
  -1  -5  -9   31.06   16.50
  -1  -5  -9   31.00    7.52
   1   5  10    6.53    7.50
   1   5  10    4.27   12.91
   1   5  10    2.04    9.51
   1   5  10    3.91   10.41
   1   5  10    6.33    3.30
  -1  -5 -10    9.51   11.84
  -1  -5 -10   10.80   13.53
  -1  -5 -10    6.11    6.03
  -1  -5 -10    6.97    3.39
   1   5  11  623.54  150.27
   1   5  11  813.84  137.93
   1   5  11  205.36  146.84
   1   5  11  615.40  143.65
  -1  -5 -11  798.96  150.84
  -1  -5 -11  656.19  134.55
   1   5  12   23.49   14.26
   1   5  12   22.33   12.36
   1   5  12   17.85    5.58
  -1  -5 -12   21.00   20.87
  -1  -5 -12   19.43    8.37
  -1  -5 -13   17.33    5.56
   1   5  13   23.43   14.47
   1   5  13   18.84   14.70
   1   5  13   21.08    5.94
  -1  -5 -13   24.28   20.39
   1   5  14   26.18   14.38
   1   5  14   14.76   14.94
   1   5  14   13.57    5.64
  -1  -5 -14   27.10   21.92
  -1  -5 -14   14.51    9.49
   1   5  15  239.78   61.60
   1   5  15  196.98   56.08
  -1  -5 -15  240.15   71.34
   1   5  16  203.47   54.32
   1   5  16  187.63   48.86
  -1  -5 -16  161.86   63.05
  -1  -6   0 1340.99  293.01
  -1  -6   0 1371.10  282.16
  -1  -6   0 1339.71  282.29
   1   6   1   70.82   18.77
   1   6   1   71.79   14.26
   1   6   1   69.88   14.24
  -1  -6  -1   75.50   18.12
  -1  -6  -1   59.95   14.16
  -1  -6  -1   69.13   14.28
   1   6   2 1065.43  283.76
   1   6   2 1219.49  273.09
   1   6   2 1361.69  273.29
  -1  -6  -2 1327.02  284.03
  -1  -6  -2 1444.26  273.18
  -1  -6  -2 1327.53  273.29
   1   6   3  933.13  196.82
   1   6   3  851.52  188.44
   1   6   3  856.68  188.59
  -1  -6  -3  944.17  197.70
  -1  -6  -3  934.03  188.49
  -1  -6  -3  923.21  188.62
   1   6   4   13.05    6.20
   1   6   4   15.17    3.07
  -1  -6  -4   12.96   10.10
  -1  -6  -4    8.29    7.11
  -1  -6  -4   13.75    4.18
  -1  -6  -4   14.52    3.37
   1   6   5  138.77   38.15
   1   6   5   99.70   33.11
   1   6   5  153.98   35.62
   1   6   5  138.33   28.89
  -1  -6  -5  174.34   43.55
  -1  -6  -5  146.49   34.93
  -1  -6  -5  106.57   28.79
  -1  -6  -5  153.95   28.97
   1   6   6 1056.64  235.92
   1   6   6  745.67  251.59
   1   6   6 1451.31  260.92
   1   6   6 1184.45  248.02
  -1  -6  -6 1630.93  246.27
  -1  -6  -6 1338.09  260.34
  -1  -6  -6 1158.22  247.92
  -1  -6  -6 1160.81  248.02
   1   6   7  484.09  120.25
  -1  -6  -7  463.62  119.39
   1   6   7  530.30  111.83
   1   6   7  430.46  124.87
   1   6   7  521.46  114.91
   1   6   7  411.37  116.95
  -1  -6  -7  595.70  122.30
  -1  -6  -7  524.67  116.92
  -1  -6  -7  578.79  107.91
  -1  -6  -8  489.95  100.95
   1   6   8  413.61   96.90
   1   6   8  467.73  109.00
   1   6   8  395.68   97.48
   1   6   8  478.14  100.11
   1   6   8  407.70   90.68
  -1  -6  -8  377.68   99.69
  -1  -6  -8  422.51   90.68
   1   6   9   96.03   31.71
   1   6   9   85.83   39.48
   1   6   9  127.52   26.50
   1   6   9   55.03   27.57
   1   6   9   84.94   20.32
  -1  -6  -9  126.39   39.86
  -1  -6  -9  106.97   20.84
  -1  -6  -9   95.57   20.48
   1   6  10  620.68  121.22
   1   6  10  269.53  130.68
   1   6  10  644.17  124.89
   1   6  10  454.86  126.83
   1   6  10  528.78  116.55
  -1  -6 -10  743.24  133.67
  -1  -6 -10  475.51  127.25
  -1  -6 -10  624.15  116.72
  -1  -6 -10  548.19  116.60
   1   6  11 1764.67  354.35
   1   6  11 1912.87  393.02
   1   6  11 1677.80  377.96
  -1  -6 -11 2321.49  368.76
  -1  -6 -11 1704.06  377.95
   1   6  12    4.87    7.23
   1   6  12    6.37   11.09
   1   6  12    3.49    3.72
  -1  -6 -12    1.29   12.57
  -1  -6 -12    4.50    7.29
   1   6  13   79.93   29.82
   1   6  13   73.90   24.00
   1   6  13   71.53   17.23
  -1  -6 -13  104.86   37.81
  -1  -6 -13   90.39   18.79
   1   6  14  148.92   43.01
   1   6  14  150.36   36.83
   1   6  14  130.54   29.48
  -1  -6 -14  139.78   51.73
  -1  -6 -14  136.13   30.56
   1   6  15   21.16   20.87
   1   6  15   50.87   17.44
  -1  -6 -15   68.27   30.96
   1   6  16    1.65   37.81
   1   6  16  253.76   35.65
  -1  -6 -16  197.70   52.40
   1   7   0   51.24   17.30
   1   7   0   59.18   11.76
  -1  -7   0   57.09   15.45
  -1  -7   0   58.44   11.62
  -1  -7   0   53.91   11.63
   1   7   1   10.12    6.81
   1   7   1    7.87    2.89
   1   7   1    8.87    2.30
  -1  -7  -1    7.32    5.44
  -1  -7  -1    8.13    2.91
  -1  -7  -1    7.38    2.69
   1   7   2  474.62   97.06
   1   7   2  451.83   90.66
   1   7   2  438.64   90.77
  -1  -7  -2  405.06   96.89
  -1  -7  -2  437.76   90.67
  -1  -7  -2  414.42   90.75
   1   7   3  208.27   55.93
   1   7   3  239.69   51.10
   1   7   3  247.63   51.18
  -1  -7  -3  248.50   56.76
  -1  -7  -3  267.69   51.16
  -1  -7  -3  252.09   51.19
   1   7   4   76.56   17.82
   1   7   4   73.83   21.17
   1   7   4   84.15   17.42
  -1  -7  -4   83.90   22.45
  -1  -7  -4   96.36   17.55
  -1  -7  -4   87.48   17.37
   1   7   5   33.57   10.89
   1   7   5   34.44    7.05
  -1  -7  -5   30.01   16.95
  -1  -7  -5   27.52   12.31
  -1  -7  -5   31.34    7.68
  -1  -7  -5   37.42    7.31
   1   7   6  294.77   71.39
  -1  -7  -6  326.69   71.48
   1   7   6  320.46   71.60
   1   7   6  259.92   81.83
   1   7   6  324.93   70.19
   1   7   6  336.18   72.82
  -1  -7  -6  288.50   72.02
  -1  -7  -6  303.63   64.56
  -1  -7  -7 1008.96  215.99
   1   7   7  935.15  187.05
   1   7   7  796.49  201.26
   1   7   7 1084.39  204.48
   1   7   7  910.85  192.51
  -1  -7  -7  899.68  196.67
  -1  -7  -7  807.68  192.37
   1   7   8  583.99  108.21
   1   7   8  327.19  117.83
   1   7   8  446.82  110.03
   1   7   8  426.00  112.79
   1   7   8  481.52  103.24
  -1  -7  -8  540.47  118.20
  -1  -7  -8  440.74  112.55
  -1  -7  -8  531.80  103.33
  -1  -7  -8  503.13  103.31
   1   7   9   36.12   22.53
   1   7   9   33.23   12.89
   1   7   9   30.23   19.23
   1   7   9   34.91    7.89
  -1  -7  -9   40.62   22.78
  -1  -7  -9   29.95   19.08
  -1  -7  -9   37.79    9.17
  -1  -7  -9   35.70    8.04
   1   7  10  662.91  140.75
   1   7  10  524.12  149.49
   1   7  10  808.38  147.04
   1   7  10  386.21  148.87
   1   7  10  641.93  138.43
  -1  -7 -10  772.60  152.57
  -1  -7 -10  495.63  149.62
  -1  -7 -10  783.79  138.65
   1   7  11    9.72   11.80
   1   7  11    8.30    9.17
   1   7  11    6.01    3.35
  -1  -7 -11    8.76   14.00
  -1  -7 -11    3.29    6.96
   1   7  12  187.07   50.70
   1   7  12  184.41   44.69
   1   7  12  157.09   37.53
  -1  -7 -12  220.84   59.88
  -1  -7 -12  179.43   38.17
   1   7  13  104.63   33.33
   1   7  13   86.46   26.90
   1   7  13   89.38   20.32
  -1  -7 -13  107.50   43.38
  -1  -7 -13   94.99   21.62
   1   7  14   38.30   29.40
   1   7  14   75.73   23.77
   1   7  14   84.74   16.88
  -1  -7 -14  103.88   40.94
  -1  -7 -14  108.32   19.55
   1   7  15   -0.12   54.64
   1   7  15  367.29   52.05
  -1  -7 -15  428.45   69.48
   1   7  16    4.31   10.11
   1   7  16    3.01   12.19
  -1  -7 -16    3.51   25.26
   1   8   0    2.86    7.41
   1   8   0    1.16    3.68
  -1  -8   0   -0.65    7.23
  -1  -8   0    1.14    3.00
  -1  -8   0    1.10    2.43
   1   8   1  760.11  168.02
   1   8   1  779.19  158.98
  -1  -8  -1  961.81  167.29
  -1  -8  -1  623.38  158.87
  -1  -8  -1  729.18  159.06
   1   8   2 1518.66  264.31
   1   8   2 1202.44  253.22
   1   8   2 1298.92  253.36
  -1  -8  -2 1171.04  263.80
  -1  -8  -2  912.44  253.07
  -1  -8  -2 1181.55  253.32
   1   8   3  126.60   35.82
   1   8   3  151.60   31.35
   1   8   3  154.18   31.30
  -1  -8  -3  154.98   36.65
  -1  -8  -3  155.20   31.41
  -1  -8  -3  151.91   31.31
   1   8   4  122.05   40.00
   1   8   4  171.51   35.70
   1   8   4  173.97   35.66
  -1  -8  -4  191.58   41.66
  -1  -8  -4  175.21   35.70
  -1  -8  -4  183.69   35.70
   1   8   5   54.27   21.38
  -1  -8  -5  114.23   22.51
   1   8   5  104.87   25.68
   1   8   5  106.31   21.39
  -1  -8  -5   87.05   27.66
  -1  -8  -5  126.13   21.71
  -1  -8  -6  681.29  170.12
   1   8   6  687.64  159.61
   1   8   6 1174.14  163.37
   1   8   6  690.32  151.95
  -1  -8  -6  694.94  161.84
  -1  -8  -6  737.15  151.94
   1   8   7  428.73   91.13
   1   8   7  413.87   98.46
   1   8   7  467.09   92.13
   1   8   7  411.24   95.17
   1   8   7  376.65   85.71
  -1  -8  -7  480.58   98.12
  -1  -8  -7  403.71   94.46
  -1  -8  -7  359.47   85.70
  -1  -8  -7  388.34   85.73
   1   8   8   30.01    6.74
   1   8   8   36.64   17.36
   1   8   8   34.95   21.73
   1   8   8   43.47   18.41
  -1  -8  -8   42.16   21.90
  -1  -8  -8   33.31   16.67
  -1  -8  -8   46.45    8.52
  -1  -8  -8   34.16    8.29
   1   8   9    5.82    8.89
   1   8   9    5.18   11.21
   1   8   9    4.52    7.15
   1   8   9   -0.02   13.17
   1   8   9    7.25    3.08
  -1  -8  -9    6.64   13.26
  -1  -8  -9    7.98   15.87
  -1  -8  -9    8.52    5.94
  -1  -8  -9    3.04    3.77
   1   8  10 1138.77  212.98
   1   8  10  852.60  220.05
   1   8  10 1062.68  229.29
   1   8  10  971.42  219.11
  -1  -8 -10 1315.66  224.51
  -1  -8 -10 1018.17  219.21
   1   8  11   13.36    2.23
  -1  -8 -11   12.54    5.71
  -1  -8 -11   15.00   17.75
   1   8  12  119.00   37.04
   1   8  12   98.31   29.00
   1   8  12   97.22   22.83
  -1  -8 -12  117.64   44.99
  -1  -8 -12  118.22   24.54
   1   8  13   30.21   17.73
   1   8  13   29.64   14.32
   1   8  13   27.46    7.39
  -1  -8 -13   36.93   26.95
  -1  -8 -13   41.72   12.14
   1   8  14    0.59   22.40
   1   8  14   69.03   20.33
   1   8  14   58.69   11.51
  -1  -8 -14   87.10   33.69
  -1  -8 -14   68.67   15.84
   1   8  15   -0.46   66.18
   1   8  15  458.54   64.05
  -1  -8 -15  542.81   81.76
   1   8  16   -1.05   19.15
   1   8  16   52.45   18.14
  -1  -8 -16   72.76   34.71
   1   9   0    1.85   11.62
   1   9   0    0.62    4.38
  -1  -9   0    6.00    8.98
  -1  -9   0    5.61    4.41
  -1  -9   0    3.10    2.88
   1   9   1    0.92    8.07
   1   9   1    2.63    4.32
  -1  -9  -1    5.95    7.91
  -1  -9  -1    0.51    3.43
  -1  -9  -1    2.66    2.70
   1   9   2  481.91   90.52
   1   9   2  374.14   83.33
  -1  -9  -2  424.30   89.96
  -1  -9  -2  385.17   83.34
  -1  -9  -2  374.32   83.37
   1   9   3  271.47   51.26
   1   9   3  195.02   45.58
   1   9   3  231.69   45.61
  -1  -9  -3  178.46   51.15
  -1  -9  -3  217.09   45.68
  -1  -9  -3  208.00   45.58
   1   9   4   18.85   10.42
   1   9   4   21.68    7.38
   1   9   4   33.15    6.58
  -1  -9  -4   37.54   12.72
  -1  -9  -4   34.76    7.46
  -1  -9  -4   30.48    6.72
   1   9   5    7.42    4.91
   1   9   5    9.02    3.16
  -1  -9  -5    9.97    5.03
  -1  -9  -5   10.46    3.66
   1   9   6  748.37  163.89
   1   9   6  733.23  156.01
  -1  -9  -6  864.56  166.56
  -1  -9  -6  708.77  155.99
  -1  -9  -6  741.35  156.05
   1   9   7  150.40   44.13
   1   9   7  165.27   47.90
   1   9   7  197.73   39.25
  -1  -9  -7  198.45   47.58
  -1  -9  -7  227.63   39.61
  -1  -9  -7  177.02   39.19
   1   9   8   16.59   14.90
   1   9   8   17.01    8.45
   1   9   8   19.31   15.95
   1   9   8   16.65    4.39
  -1  -9  -8   13.69   14.50
  -1  -9  -8   26.56   14.34
  -1  -9  -8   20.54    6.71
  -1  -9  -8   12.68    4.70
   1   9   9  571.90  122.62
   1   9   9  592.63  128.02
   1   9   9  546.15  126.68
   1   9   9  584.24  119.38
  -1  -9  -9  555.71  130.90
  -1  -9  -9  332.22  129.61
  -1  -9  -9  651.12  119.63
   1   9  10  864.11  157.95
   1   9  10  582.30  162.94
   1   9  10  617.59  165.75
   1   9  10  738.24  157.62
  -1  -9 -10  916.20  167.69
  -1  -9 -10  790.09  157.81
   1   9  11   11.02   12.41
   1   9  11   10.17    4.20
  -1  -9 -11   15.31   18.65
  -1  -9 -11   13.95    8.59
   1   9  12  286.48   63.42
   1   9  12  162.10   56.70
   1   9  12  229.33   50.93
  -1  -9 -12  288.20   72.82
  -1  -9 -12  251.53   51.68
   1   9  13   76.52   13.81
   1   9  13   -1.06   25.50
   1   9  13   79.26   21.30
  -1  -9 -13  106.65   38.10
  -1  -9 -13   87.23   16.75
   1   9  14    0.55   39.17
   1   9  14  203.95   34.85
  -1  -9 -14  267.83   53.89
   1   9  15    2.38   16.76
   1   9  15   40.51   15.85
  -1  -9 -15   44.01   30.44
   1   9  16   32.17   16.61
   1  10   0  113.36   31.62
   1  10   0   84.60   22.85
  -1 -10   0  149.71   23.73
  -1 -10   0   91.25   22.53
   1  10   1  263.28   52.54
   1  10   1  189.30   44.48
  -1 -10  -1  180.38   50.21
  -1 -10  -1  248.89   44.60
  -1 -10  -1  201.12   44.40
   1  10   2   97.52   20.60
   1  10   2   55.15   14.02
  -1 -10  -2   54.08   19.65
  -1 -10  -2   74.31   13.98
  -1 -10  -2   53.56   13.61
   1  10   3  324.14   73.49
   1  10   3  261.48   66.95
   1  10   3  374.81   67.04
  -1 -10  -3  311.15   73.51
  -1 -10  -3  341.53   67.03
  -1 -10  -3  281.62   66.88
   1  10   4   20.77   11.46
   1  10   4   15.91    7.12
   1  10   4   23.26    5.07
  -1 -10  -4   27.30   11.99
  -1 -10  -4   23.03    6.79
  -1 -10  -4   17.78    5.09
   1  10   5  794.92  201.46
   1  10   5  965.84  192.74
   1  10   5 1059.23  192.68
  -1 -10  -5  467.66  202.54
  -1 -10  -5 1122.75  192.80
  -1 -10  -5  850.72  192.56
   1  10   6  204.56   65.00
   1  10   6  329.08   59.61
  -1 -10  -6  367.57   68.52
  -1 -10  -6  282.44   59.62
  -1 -10  -6  257.45   59.49
   1  10   7  400.86   93.87
   1  10   7  329.67   97.05
   1  10   7  429.92   87.42
  -1 -10  -7  339.51   96.99
  -1 -10  -7  486.67   87.69
   1  10   8   84.23   23.68
   1  10   8   89.30   18.62
  -1 -10  -8   88.76   19.51
   1  10   9    5.10   11.78
   1  10   9   11.49    9.14
   1  10   9   11.63    3.86
  -1 -10  -9   11.68    7.58
   1  10  10  336.22   76.67
   1  10  10  301.30   67.72
  -1 -10 -10  300.69   83.57
  -1 -10 -10  369.97   68.26
   1  10  11  439.96  128.42
   1  10  11  633.29  132.58
   1  10  11  654.64  124.58
  -1 -10 -11  616.00  137.58
  -1 -10 -11  656.51  124.85
   1  10  12    9.07   13.90
   1  10  12    7.74    4.11
  -1 -10 -12   10.12   20.47
  -1 -10 -12    6.72    9.01
   1  10  13   11.49   12.34
   1  10  13   10.70    4.56
  -1 -10 -13   12.45   10.14
   1  10  14    0.59   39.80
   1  10  14  233.13   35.66
  -1 -10 -14  227.75   52.47
   1  10  15   64.27   22.12
   1  11   0   15.56   20.97
  -1 -11   0   51.07   13.59
   1  11   1  206.74   68.23
  -1 -11  -1  326.60   60.49
   1  11   2  740.44  166.19
  -1 -11  -2  749.12  156.37
   1  11   3  133.02   34.13
  -1 -11  -3  130.87   27.99
   1  11   4  241.06   51.41
   1  11   4  215.20   44.67
  -1 -11  -4  184.27   44.68
   1  11   5  615.08  136.08
   1  11   5  641.31  128.32
  -1 -11  -5  551.40  128.27
   1  11   6   93.26   26.83
   1  11   6   97.43   21.35
  -1 -11  -6  117.19   22.26
   1  11   7   19.09   12.03
   1  11   7   19.92    5.22
  -1 -11  -7   23.63    8.36
   1  11   8   -1.03   10.05
   1  11   8    0.68    3.05
  -1 -11  -8   -0.63    7.30
   1  11   9  419.19  107.89
   1  11   9  468.66  100.81
  -1 -11  -9  578.19  101.33
   1  11  10   16.15   13.74
   1  11  10   16.58    4.90
  -1 -11 -10   19.23    8.73
   1  11  11    8.64   12.57
   1  11  11    5.53    3.70
  -1 -11 -11    7.20    8.65
   1  11  12   -2.02   12.69
   1  11  12   17.97   16.31
   1  11  12   15.25    4.33
  -1 -11 -12    5.25   18.80
  -1 -11 -12   14.75    9.37
   1  11  13    2.39   23.41
   1  11  13  113.51   23.02
  -1 -11 -13   52.73   30.67
   1  11  14  131.25   35.71
   1  12   0   68.07   27.18
  -1 -12   0    5.03    8.62
   1  12   1   15.07   20.34
  -1 -12  -1   35.82    9.62
   1  12   2  181.79   42.38
  -1 -12  -2  139.41   33.06
   1  12   3  109.40   31.03
  -1 -12  -3  106.69   23.55
   1  12   4  298.19   83.23
  -1 -12  -4  414.02   76.48
   1  12   5  381.09   99.24
   1  12   5  455.07   91.76
  -1 -12  -5  450.96   92.00
   1  12   6  118.77   32.65
   1  12   6  118.22   25.99
  -1 -12  -6  137.79   26.85
   1  12   7   -0.02   10.01
   1  12   7    5.18    3.33
  -1 -12  -7    6.21    7.04
   1  12   8   50.30   21.36
   1  12   8   63.27   13.92
  -1 -12  -8   83.05   16.04
   1  12   9  513.89  109.38
   1  12   9  444.94  101.55
  -1 -12  -9  540.12  102.10
   1  12  10  338.36   84.53
   1  12  10  364.59   77.25
  -1 -12 -10  412.51   77.85
   1  12  11   38.52   18.04
   1  12  11   37.85    8.58
  -1 -12 -11   34.27   11.78
   1  12  13   10.12   16.26
   1  12  14  134.38   36.75
   1  13   0   11.37   37.20
   1  13   1   67.75   27.33
  -1 -13  -1   -0.66    9.08
   1  13   2    4.93   21.50
  -1 -13  -2    2.47    7.80
   1  13   3   10.50   23.31
  -1 -13  -3    0.78    6.02
   1  13   4  337.73   74.68
  -1 -13  -4  286.70   65.31
   1  13   5  197.14   47.69
  -1 -13  -5  173.99   39.76
   1  13   6  103.62   29.33
   1  13   6   94.76   21.10
  -1 -13  -6  104.11   22.45
   1  13   7    4.31   11.02
   1  13   7    2.08    2.42
  -1 -13  -7    2.16    7.72
   1  13   8   12.14   15.20
   1  13   8   12.12    4.19
  -1 -13  -8    6.77    8.03
   1  13   9  317.58   89.71
   1  13   9  428.04   82.27
  -1 -13  -9  391.40   82.65
   1  13  11    2.95   15.22
   1  13  12    6.74   15.68
   1  14   2    2.82   26.76
   1  14   3   10.77   26.21
   1  14   4  273.87   70.60
   1  14   6   70.15   27.51
   1  14   7    7.66   16.24
   1  14   9   20.48   18.38
   1  14  10   17.28   15.59
  -2  14   0   29.27   25.26
  -2  14  -1   36.55   21.08
  -2  13   0  312.33   75.04
  -2  13  -1   17.35   16.46
  -2  13  -2    7.61   19.71
  -2  13  -3   26.85   24.61
   2 -12   0   81.12   22.11
  -2  12   0  140.12   31.60
   2 -12   1  167.14   40.04
  -2  12  -1  229.46   49.60
  -2  12  -2    4.58   14.51
  -2  12  -3    9.90   16.17
  -2  12  -4   88.02   34.30
  -2  12  -5  126.27   44.31
   2 -11   0  350.76   84.46
   2 -11   0  319.09   74.92
  -2  11   0  431.40   83.29
   2 -11   1   42.51   23.88
   2 -11   1   70.04   13.77
  -2  11  -1   91.00   23.58
   2 -11   2    5.90   10.06
   2 -11   2    4.81    6.09
  -2  11  -2    7.07   14.77
   2 -11   3  109.49   21.08
   2 -11   3   75.66   31.32
  -2  11  -3  137.51   31.06
  -2  11  -4   -0.90   16.16
  -2  11  -5  166.60   47.10
  -2  11  -6    6.50   25.89
   2 -10   0   33.81   18.06
   2 -10   0   33.51   30.78
   2 -10   0   40.96    9.64
  -2  10   0   49.42   15.86
   2 -10   1   36.07   18.01
   2 -10   1   34.90    9.00
  -2  10  -1   48.55   18.04
   2 -10   2   25.84   15.87
   2 -10   2   36.94    8.59
  -2  10  -2   38.63   17.92
   2 -10   3   56.01   13.91
  -2  10  -3   72.48   22.77
   2 -10   4  211.88   45.93
  -2  10  -4  222.47   58.57
   2 -10   5   79.58   22.74
   2 -10   5   73.78   13.52
  -2  10  -5    0.28   25.42
  -2  10  -5   33.61   23.94
   2 -10   6    2.06    9.00
  -2  10  -6   -1.11   17.10
  -2  10  -6    2.40   18.81
   2 -10   7   29.34   20.76
  -2  10  -7   23.67   21.71
   2 -10   8  110.82   40.31
  -2  10  -8  109.21   40.84
   2  -9   0  327.18   76.65
   2  -9   0  263.90   92.67
  -2   9   0  387.60   76.83
   2  -9   1   39.59   18.14
   2  -9   1   26.13   29.61
   2  -9   1   47.90    9.85
  -2   9  -1   53.40   17.24
   2  -9   2  134.70   66.13
   2  -9   2  137.72   37.52
  -2   9  -2  291.07   47.47
   2  -9   3   50.34   21.97
   2  -9   3   62.95   13.23
  -2   9  -3   59.48   24.36
  -2   9  -3   71.32   21.31
   2  -9   4  471.50  110.30
   2  -9   4  641.58  107.25
  -2   9  -4  472.78  114.21
  -2   9  -4  417.78  116.46
   2  -9   5   18.42    7.37
  -2   9  -5   21.68   16.49
  -2   9  -5   13.57   17.98
   2  -9   6   57.19   12.01
   2  -9   6   71.73   22.89
  -2   9  -6    1.23   25.32
  -2   9  -6  124.98   26.80
   2  -9   7   51.14   23.90
   2  -9   7   91.00   26.60
  -2   9  -7   70.24   26.34
   2  -9   8    0.86   19.41
  -2   9  -8    0.53   13.38
  -2   9  -8    1.68   18.65
   2  -9   9   81.51   30.11
  -2   9  -9   39.61   26.06
   2  -8   0   53.01   20.83
   2  -8   0   82.33   29.46
   2  -8   0   41.05   15.72
   2  -8   0   55.34   11.91
   2  -8   0   40.41   11.56
  -2   8   0   64.61   22.50
  -2   8   0   63.13   17.01
  -2   8   0   55.51   12.04
   2  -8   1   13.44    2.49
   2  -8   1   12.26   18.08
   2  -8   1   13.96    9.15
   2  -8   1   18.68    4.84
  -2   8  -1   29.82   10.58
  -2   8  -1   17.63    6.12
   2  -8   2   13.85    9.89
   2  -8   2   13.45    5.14
  -2   8  -2   14.68   11.48
  -2   8  -2   12.60   11.29
   2  -8   3  190.19   46.12
   2  -8   3  185.13   51.52
   2  -8   3  180.36   71.37
  -2   8  -3  213.05   54.64
  -2   8  -3  293.69   52.30
   2  -8   4  197.44   53.29
   2  -8   4  219.71   44.40
  -2   8  -4  214.85   56.89
  -2   8  -4  228.06   52.86
   2  -8   5    5.40    5.79
  -2   8  -5    5.73   11.17
  -2   8  -5    9.03   15.56
   2  -8   6   44.55   11.80
  -2   8  -6   49.67   24.01
  -2   8  -6   60.09   23.29
   2  -8   7  228.69   55.34
   2  -8   7  421.15   59.40
   2  -8   7  296.31   45.31
  -2   8  -7   -0.69   58.58
  -2   8  -7  264.49   56.17
   2  -8   8  126.88   35.21
   2  -8   8  190.15   37.02
  -2   8  -8   -1.97   38.73
  -2   8  -8  241.47   37.85
   2  -8   9    1.19    8.49
   2  -8   9   19.37   20.51
  -2   8  -9   -0.18   13.07
  -2   8  -9    4.81   23.49
   2  -8  10   22.23   22.21
  -2   8 -10    8.87   19.49
  -2   7   0  339.84   76.88
   2  -7   0  313.82   76.23
   2  -7   0  302.35   87.17
   2  -7   0  284.90   75.78
   2  -7   0  319.20   70.18
   2  -7   0  385.92   70.33
  -2   7   0  381.27   76.58
   2  -7   1  442.81  101.38
   2  -7   1  591.25  116.87
   2  -7   1  375.45  104.52
   2  -7   1  421.81   98.28
   2  -7   1  464.48   98.39
  -2   7  -1  503.82  104.25
  -2   7  -1  556.11  105.94
  -2   7  -1  505.62   98.40
   2  -7   2  178.55   43.99
   2  -7   2  140.00   58.00
   2  -7   2  169.67   40.08
   2  -7   2  196.74   35.27
   2  -7   2  160.14   35.09
  -2   7  -2  174.31   46.10
  -2   7  -2  165.44   41.38
  -2   7  -2  126.48   34.98
   2  -7   3  575.23  108.21
   2  -7   3  420.80  128.48
   2  -7   3  398.65  111.84
   2  -7   3  437.88  105.30
   2  -7   3  525.46  105.44
  -2   7  -3  580.50  111.70
  -2   7  -3  461.84  113.84
  -2   7  -3  475.09  105.44
   2  -7   4  338.34   70.27
   2  -7   4  296.54   62.91
  -2   7  -4  291.53   74.03
  -2   7  -4  193.55   70.25
   2  -7   5   11.16   10.57
   2  -7   5    8.61    5.57
  -2   7  -5   14.45   12.76
  -2   7  -5   12.44   14.38
   2  -7   6  313.63   76.15
   2  -7   6  300.89   68.42
  -2   7  -6  378.49   81.69
   2  -7   7  155.45   45.62
   2  -7   7  163.87   34.85
  -2   7  -7  172.80   50.66
  -2   7  -7  153.69   46.61
   2  -7   8  353.38   83.10
   2  -7   8  292.57   86.32
   2  -7   8  361.58   74.92
  -2   7  -8  326.01   89.11
  -2   7  -8  471.36   87.78
   2  -7   9   44.92   18.43
   2  -7   9   69.08   21.41
   2  -7   9   35.78    9.11
  -2   7  -9   -3.64   20.67
  -2   7  -9   39.90   22.68
   2  -7  10  103.93   28.34
   2  -7  10  105.28   29.78
  -2   7 -10   -1.89   31.48
  -2   7 -10   92.00   33.31
   2  -7  11   12.07   20.67
  -2   7 -11    7.07   19.27
   2  -6   0   51.81   10.04
   2  -6   0   47.17   19.23
   2  -6   0   57.30   24.40
   2  -6   0   44.56   14.27
   2  -6   0   55.03   10.78
  -2   6   0   42.68   19.80
  -2   6   0   57.58   15.00
  -2   6   0   50.56   10.66
   2  -6   1    5.04    6.29
   2  -6   1    6.51   10.17
   2  -6   1    6.11    4.94
   2  -6   1    7.79    3.57
   2  -6   1    4.93    2.48
  -2   6  -1    1.78    7.18
  -2   6  -1    7.24    6.81
  -2   6  -1    9.86    6.98
  -2   6  -1    6.59    3.49
   2  -6   2  525.77  116.59
   2  -6   2  830.50  133.28
   2  -6   2  518.73  122.20
   2  -6   2  567.49  115.47
   2  -6   2  562.68  115.50
  -2   6  -2  652.55  119.58
  -2   6  -2  391.77  119.19
  -2   6  -2  513.66  123.41
  -2   6  -2  549.72  115.45
   2  -6   3  378.40   81.58
   2  -6   3  308.79   98.60
   2  -6   3  263.97   81.68
   2  -6   3  348.63   76.02
  -2   6  -3  381.21   85.18
  -2   6  -3  396.45   83.84
  -2   6  -3  434.28   76.27
   2  -6   4   11.50    8.18
   2  -6   4    8.33   17.19
   2  -6   4    4.32    6.46
   2  -6   4    8.48    3.70
  -2   6  -4    6.71    9.62
  -2   6  -4    6.28    8.98
  -2   6  -4    9.08    6.88
   2  -6   5    6.44    7.38
   2  -6   5   12.52   20.20
   2  -6   5    5.19    7.08
   2  -6   5    4.53    3.71
  -2   6  -5    6.84    9.70
  -2   6  -5    9.07    7.39
   2  -6   6   84.74   27.31
   2  -6   6   66.42   17.23
  -2   6  -6   91.81   31.34
  -2   6  -6   80.92   27.37
   2  -6   7  164.70   47.17
   2  -6   7  177.94   37.01
  -2   6  -7  191.73   52.57
  -2   6  -7  172.10   48.29
   2  -6   8    5.98    7.86
   2  -6   8    7.30   13.46
   2  -6   8    6.35    4.85
  -2   6  -8    6.11   12.58
  -2   6  -8    7.35   20.37
   2  -6   9   -0.09   13.59
   2  -6   9    0.12    4.96
  -2   6  -9   -0.99    7.61
  -2   6  -9   -3.45   17.26
   2  -6  10  127.30   33.05
   2  -6  10  147.26   33.61
  -2   6 -10    1.87   35.97
  -2   6 -10  136.39   34.33
   2  -6  11   73.92   22.30
  -2   6 -11   -1.31   20.90
  -2   6 -11   72.55   24.77
   2  -6  12   10.95   29.03
  -2   6 -12    5.98   20.61
   2  -5   0    0.08    2.46
   2  -5   0   -0.15    4.63
   2  -5   0    0.37    4.26
   2  -5   0    1.38    3.15
   2  -5   0    0.46    2.05
  -2   5   0    1.50    3.25
  -2   5   0    1.43    4.12
  -2   5   0   -1.47    2.87
   2  -5   1  180.42   50.16
   2  -5   1  316.28   59.25
   2  -5   1  174.54   46.85
   2  -5   1  145.56   42.05
   2  -5   1  223.06   42.28
  -2   5  -1  222.26   51.37
  -2   5  -1  160.29   51.67
  -2   5  -1  259.60   48.03
  -2   5  -1  211.35   42.26
   2  -5   2  352.18   81.80
   2  -5   2  493.08   95.02
   2  -5   2  316.01   82.42
   2  -5   2  184.81   76.51
  -2   5  -2  384.08   83.84
  -2   5  -2  412.02   84.74
  -2   5  -2  560.67   84.33
  -2   5  -2  396.42   76.84
   2  -5   3  535.54  115.77
   2  -5   3  397.61  102.31
   2  -5   3  388.84   95.95
  -2   5  -3  515.81  103.42
  -2   5  -3  520.34  104.27
  -2   5  -3  468.10   96.03
   2  -5   4   74.22   23.62
   2  -5   4  113.15   32.65
   2  -5   4  121.79   46.12
   2  -5   4  110.40   27.50
  -2   5  -4  144.61   36.35
  -2   5  -4  111.33   30.05
  -2   5  -4  106.10   23.11
   2  -5   5   53.72   18.79
   2  -5   5   66.72   29.34
   2  -5   5   31.53   14.04
   2  -5   5   43.02    9.74
  -2   5  -5   46.72   22.01
  -2   5  -5   33.33   16.41
  -2   5  -5   38.28   10.09
   2  -5   6 1982.96  342.75
   2  -5   6 1762.03  368.16
   2  -5   6 1211.81  381.06
   2  -5   6 2148.78  367.87
  -2   5  -6 2125.53  349.87
  -2   5  -6 2108.45  384.59
  -2   5  -6  826.32  367.28
   2  -5   7  183.04   47.74
   2  -5   7  224.35   47.88
   2  -5   7  179.79   37.44
  -2   5  -7  153.25   52.87
  -2   5  -7  172.23   46.96
   2  -5   8   10.98   10.88
   2  -5   8    9.17   13.66
   2  -5   8   15.59    5.18
  -2   5  -8   14.22   15.21
  -2   5  -8   14.74   16.82
   2  -5   9  101.66   36.35
   2  -5   9  188.59   37.17
   2  -5   9  126.72   25.29
  -2   5  -9  110.20   42.04
  -2   5  -9  112.63   36.44
   2  -5  10  186.29   51.29
   2  -5  10  217.51   51.45
   2  -5  10  202.18   39.98
  -2   5 -10  161.59   57.45
  -2   5 -10  179.31   51.29
   2  -5  11   43.30   20.57
  -2   5 -11   32.79   23.35
  -2   5 -11   31.29   26.24
   2  -5  12  253.34   50.72
   2  -5  12  190.88   49.29
  -2   5 -12    2.00   53.83
  -2   5 -12  215.34   49.46
   2  -5  13    4.49   22.52
  -2   5 -13    1.70   16.81
   2  -4   0   10.36    9.86
   2  -4   0    8.71    5.71
   2  -4   0   14.04    3.21
   2  -4   0   12.66    2.67
  -2   4   0   10.66    8.19
  -2   4   0    8.82    5.79
  -2   4   0    8.87    2.93
   2  -4   1  866.80  235.16
   2  -4   1  862.98  200.19
   2  -4   1 1169.71  209.49
   2  -4   1 1070.24  218.94
  -2   4  -1  966.16  202.27
  -2   4  -1 1365.56  219.88
  -2   4  -1 1023.51  209.81
   2  -4   2   85.46   28.56
   2  -4   2  125.63   36.45
   2  -4   2   64.36   23.38
   2  -4   2   88.60   19.48
  -2   4  -2   80.46   29.68
  -2   4  -2  100.07   30.82
  -2   4  -2  155.53   25.69
  -2   4  -2   95.71   19.51
  -2   4  -3  236.97   69.24
   2  -4   3  303.36   69.79
   2  -4   3  385.02   83.24
   2  -4   3  282.16   68.73
   2  -4   3  270.23   63.22
  -2   4  -3  320.15   71.78
  -2   4  -3  346.33   73.72
  -2   4  -3  330.11   70.35
   2  -4   4  176.14   52.92
   2  -4   4  280.04   71.65
   2  -4   4  195.95   53.83
  -2   4  -4  313.51   61.45
  -2   4  -4  236.57   55.77
  -2   4  -4  233.09   48.74
   2  -4   5  189.44   46.74
   2  -4   5  193.38   42.66
   2  -4   5  149.78   37.29
  -2   4  -5  199.44   51.57
  -2   4  -5  178.27   45.11
  -2   4  -5  171.22   37.53
   2  -4   6  825.60  199.54
   2  -4   6 1071.73  222.78
   2  -4   6 1075.92  216.86
   2  -4   6 1232.69  207.14
  -2   4  -6 1022.57  206.70
  -2   4  -6 1253.60  219.79
  -2   4  -6  684.35  206.79
  -2   4  -7   19.80   13.24
   2  -4   7   72.66   24.54
   2  -4   7   51.76   36.54
   2  -4   7  117.52   24.80
   2  -4   7   63.01   20.15
   2  -4   7   80.40   14.64
  -2   4  -7   77.63   28.77
  -2   4  -7   76.94   23.19
   2  -4   8  102.11   33.67
   2  -4   8   73.91   31.34
   2  -4   8  119.22   22.67
  -2   4  -8  109.29   38.60
  -2   4  -8   94.07   32.62
   2  -4   9   41.46    8.38
   2  -4   9   44.00   19.15
   2  -4   9   33.15   19.38
  -2   4  -9   42.84   23.61
  -2   4  -9   36.67   21.53
   2  -4  10  208.91   59.01
   2  -4  10  270.98   59.54
   2  -4  10  228.77   48.31
  -2   4 -10  283.29   66.33
  -2   4 -10  160.02   58.60
   2  -4  11   79.69   28.48
   2  -4  11   61.23   29.60
   2  -4  11   79.89   16.93
  -2   4 -11   84.65   34.10
  -2   4 -11   56.99   31.06
   2  -4  12   -1.36    5.07
   2  -4  12   -3.45   15.87
  -2   4 -12    0.14   10.29
  -2   4 -12    5.27   21.01
   2  -4  13   18.93   17.03
   2  -4  13   25.36   23.58
  -2   4 -13   23.23   19.51
  -2   4 -13   15.06   21.87
   2  -3   0  113.59   38.14
   2  -3   0  161.36   41.59
   2  -3   0  132.53   33.64
   2  -3   0  133.98   29.40
   2  -3   0  187.00   29.59
  -2   3   0  144.78   38.01
  -2   3   0  103.92   33.85
  -2   3   0  144.89   29.43
   2  -3   1  443.04  110.49
   2  -3   1  609.13  117.59
   2  -3   1  592.12  115.78
   2  -3   1  399.05  109.19
  -2   3  -1  604.63  111.06
  -2   3  -1  434.10  112.36
  -2   3  -1  621.35  116.46
  -2   3  -1  601.65  109.31
   2  -3   2  856.20  178.96
   2  -3   2 1323.54  190.03
   2  -3   2  698.71  194.21
   2  -3   2  653.18  185.77
  -2   3  -2 1025.86  180.22
  -2   3  -2  915.61  182.34
  -2   3  -2 1305.23  195.82
  -2   3  -2  624.34  185.70
   2  -3   3  156.82   39.99
   2  -3   3  204.45   50.06
   2  -3   3  111.04   35.47
   2  -3   3  129.52   30.98
  -2   3  -3  159.90   41.34
  -2   3  -3  155.82   43.33
  -2   3  -3  150.61   37.32
  -2   3  -3  140.00   31.10
   2  -3   4  207.96   48.79
   2  -3   4  233.12   61.91
   2  -3   4  214.89   45.32
   2  -3   4  163.37   39.94
  -2   3  -4  190.60   53.14
  -2   3  -4  214.94   47.21
  -2   3  -4  160.95   40.01
   2  -3   5 1558.63  287.67
   2  -3   5 1648.94  308.25
   2  -3   5 1790.46  319.03
   2  -3   5 1415.31  306.61
  -2   3  -5 1516.63  294.32
  -2   3  -5 1070.40  320.37
  -2   3  -5 1198.87  306.50
   2  -3   6  396.05   87.72
   2  -3   6  365.54  106.29
   2  -3   6  360.84   88.26
   2  -3   6  382.26   81.73
  -2   3  -6  451.91   94.26
  -2   3  -6  347.03   90.49
   2  -3   7  166.32   44.14
   2  -3   7  116.54   59.91
   2  -3   7  250.94   43.88
   2  -3   7  153.58   39.45
   2  -3   7  205.69   33.92
  -2   3  -7  164.59   49.61
  -2   3  -7  169.20   42.31
  -2   3  -7   84.70   33.47
   2  -3   8  114.47   29.11
   2  -3   8   32.06   41.64
   2  -3   8  164.95   28.97
   2  -3   8   56.42   23.11
   2  -3   8  100.43   18.23
  -2   3  -8  102.33   34.16
  -2   3  -8   79.73   27.03
  -2   3  -8   28.41   17.86
   2  -3   9   11.61   10.38
   2  -3   9   12.53    4.69
  -2   3  -9   14.71   13.49
  -2   3  -9    1.11   16.15
   2  -3  10  364.48   94.46
   2  -3  10  328.30   97.73
   2  -3  10  422.35   87.17
  -2   3 -10  479.10  102.79
  -2   3 -10  530.17   99.06
   2  -3  11  143.11   44.26
   2  -3  11  186.08   43.58
   2  -3  11  156.42   32.31
  -2   3 -11  142.71   50.52
  -2   3 -11  164.01   43.39
   2  -3  12   58.86   23.47
   2  -3  12   58.69   23.80
   2  -3  12   52.16   12.31
  -2   3 -12   50.55   28.41
  -2   3 -12   55.60   24.80
   2  -3  13   50.69   23.19
   2  -3  13   65.86   24.64
  -2   3 -13   54.93   28.76
  -2   3 -13   41.12   24.79
   2  -3  14  297.95   69.99
   2  -3  14  265.32   69.51
  -2   3 -14  206.70   76.22
  -2   3 -14  290.48   71.62
   2  -2   0  174.49   42.30
   2  -2   0  154.02   35.18
   2  -2   0   99.79   30.81
  -2   2   0  162.65   39.36
  -2   2   0  129.87   35.36
  -2   2   0  168.18   30.90
   2  -2   1  388.77   89.92
   2  -2   1  503.96   95.61
   2  -2   1  471.51   92.20
   2  -2   1  329.42   86.31
  -2   2  -1  397.08   90.13
  -2   2  -1  373.44   91.64
  -2   2  -1  547.98   92.92
  -2   2  -1  425.24   86.35
   2  -2   2  521.09  101.77
   2  -2   2  489.09  110.18
   2  -2   2  526.71  105.66
   2  -2   2  471.01   99.37
  -2   2  -2  419.25  102.44
  -2   2  -2  457.75  104.79
  -2   2  -2  501.35  106.60
  -2   2  -2  454.32   99.32
   2  -2   3  306.45  102.37
  -2   2  -3  389.88  102.17
   2  -2   3  392.54   95.62
   2  -2   3  556.15  107.27
   2  -2   3  444.54   98.56
  -2   2  -3  544.41   97.14
  -2   2  -3  505.09   99.99
  -2   2  -3  513.29  100.11
   2  -2   4   38.60   16.82
   2  -2   4   61.29   24.25
   2  -2   4   60.63   12.96
   2  -2   4   25.51    8.10
  -2   2  -4   45.80   17.82
  -2   2  -4   35.09   19.41
  -2   2  -4   22.38   13.63
  -2   2  -4   35.92    8.53
   2  -2   5 5385.25 1129.20
   2  -2   5 8158.91 1268.88
   2  -2   5 6283.30 1232.67
  -2   2  -5 5736.99 1116.09
  -2   2  -5 7005.56 1270.69
  -2   2  -5 4025.15 1232.43
  -2   2  -6  246.28   96.54
   2  -2   6  389.08   92.70
   2  -2   6  476.05  111.12
   2  -2   6  545.07   97.76
   2  -2   6  466.25   94.51
   2  -2   6  492.45   87.54
  -2   2  -6  469.45   99.52
  -2   2  -6  423.01   96.55
   2  -2   7  154.34   42.77
   2  -2   7   80.96   57.32
   2  -2   7  157.50   41.66
   2  -2   7  172.72   38.56
   2  -2   7  224.14   32.73
  -2   2  -7  167.07   48.52
  -2   2  -7  138.37   40.57
  -2   2  -7   79.26   32.23
   2  -2   8   10.49    1.74
   2  -2   8    7.87    8.03
   2  -2   8    1.63   14.01
   2  -2   8   12.01   11.30
   2  -2   8    2.94    7.59
  -2   2  -8    7.46   11.14
  -2   2  -8    5.02   10.43
  -2   2  -8    5.18    5.04
   2  -2   9  345.34   75.08
   2  -2   9  270.57   76.57
   2  -2   9  446.33   79.06
  -2   2  -9  337.86   84.12
  -2   2  -9  314.43   77.60
   2  -2  10  125.30   41.90
   2  -2  10  118.17   39.82
   2  -2  10  163.36   30.62
  -2   2 -10  152.29   48.60
  -2   2 -10  150.30   40.94
   2  -2  11  202.58   55.74
   2  -2  11  173.96   54.29
   2  -2  11  233.77   44.47
  -2   2 -11  200.02   62.56
  -2   2 -11  198.88   54.78
   2  -2  12    3.74    7.66
   2  -2  12    6.36   17.69
   2  -2  12    3.33    4.08
  -2   2 -12    5.50   11.25
  -2   2 -12   11.72   20.25
   2  -2  13  229.09   60.27
   2  -2  13  283.57   61.13
  -2   2 -13  235.61   67.45
  -2   2 -13  165.28   58.84
   2  -2  14   16.36   15.92
   2  -2  14   17.32   20.64
  -2   2 -14   19.54   21.25
  -2   2 -14   13.66   22.72
   2  -1   0  863.33  199.43
   2  -1   0 1233.20  202.32
   2  -1   0 1029.19  217.80
   2  -1   0  810.54  208.91
  -2   1   0 1023.77  199.10
  -2   1   0 1032.18  217.97
  -2   1   0 1071.71  208.90
   2  -1   1  457.57  118.51
   2  -1   1  754.74  123.68
   2  -1   1  663.14  125.05
   2  -1   1  508.80  118.46
  -2   1  -1  550.41  118.71
  -2   1  -1  519.52  120.16
  -2   1  -1  685.20  125.70
  -2   1  -1  580.00  118.45
   2  -1   2 1475.89  315.41
   2  -1   2 1978.58  323.99
   2  -1   2 1485.04  352.10
   2  -1   2 1442.20  339.79
  -2   1  -2 1726.03  316.19
  -2   1  -2 1597.98  318.73
  -2   1  -2 2331.00  353.51
  -2   1  -2 1465.05  339.75
   2  -1   3    1.51    4.38
   2  -1   3    4.14    7.12
   2  -1   3    2.66    3.72
   2  -1   3    2.22    2.07
  -2   1  -3    7.37    5.14
  -2   1  -3    1.70    5.24
  -2   1  -3    0.10    4.70
  -2   1  -3    1.00    2.35
   2  -1   4  148.09   47.12
   2  -1   4  258.02   58.39
   2  -1   4  241.12   44.03
   2  -1   4  178.39   38.59
  -2   1  -4  184.38   48.60
  -2   1  -4  209.07   51.72
  -2   1  -4  153.49   45.23
  -2   1  -4  174.92   38.58
  -2   1  -5  222.64   87.00
   2  -1   5  367.11   84.40
   2  -1   5  356.23   99.58
   2  -1   5  419.40   85.57
   2  -1   5  497.03   79.01
  -2   1  -5  394.08   90.42
  -2   1  -5  384.01   87.25
  -2   1  -6 1852.82  598.28
   2  -1   6 2510.59  487.43
   2  -1   6 2707.36  508.95
   2  -1   6 1705.57  551.53
   2  -1   6 3142.21  550.01
   2  -1   6 2804.41  531.40
  -2   1  -6 2752.36  495.53
  -2   1  -6 2925.93  551.89
   2  -1   7   16.21   11.50
   2  -1   7    3.81   19.22
   2  -1   7   31.84   12.25
   2  -1   7   14.10    9.69
   2  -1   7   24.17    4.66
  -2   1  -7   18.83   14.29
  -2   1  -7   20.12   11.89
  -2   1  -7   11.52    5.77
   2  -1   8   35.40   17.25
   2  -1   8   20.57   26.67
   2  -1   8   42.34   17.62
   2  -1   8   26.25   13.44
   2  -1   8   45.31    8.27
  -2   1  -8   48.52   21.29
  -2   1  -8   49.12   17.39
  -2   1  -8   24.30    8.90
  -2   1  -9  168.43   97.56
   2  -1   9  513.62   95.39
   2  -1   9   97.82  114.46
   2  -1   9  411.17   98.69
   2  -1   9  434.03   96.99
   2  -1   9  538.87   88.75
  -2   1  -9  597.06  103.77
  -2   1  -9  356.05   98.38
   2  -1  10  368.16   81.10
   2  -1  10  344.23   81.81
   2  -1  10  464.60   84.27
  -2   1 -10  313.04   89.53
  -2   1 -10  258.56   83.54
   2  -1  11  122.31   36.90
   2  -1  11  127.94   35.05
   2  -1  11  115.47   25.04
  -2   1 -11  116.95   43.02
  -2   1 -11  110.35   35.30
   2  -1  12   18.62    3.90
   2  -1  12   16.87   12.77
   2  -1  12   17.82   15.97
  -2   1 -12   11.11   17.19
  -2   1 -12   13.31   17.44
   2  -1  13  361.76   96.08
   2  -1  13  470.30   99.92
   2  -1  13  418.05   87.73
  -2   1 -13  408.13  104.62
  -2   1 -13  580.09  100.24
   2  -1  14   38.77   20.79
   2  -1  14   52.86   22.03
  -2   1 -14   34.72   25.06
  -2   1 -14   53.32   23.31
   2  -1  15   29.57   18.41
   2  -1  15   19.09   22.28
  -2   1 -15   15.24   22.26
  -2   1 -15   28.64   22.13
   2   0   0  560.13  107.34
   2   0   0  491.74  109.21
   2   0   0  604.86  111.61
   2   0   0  406.86  105.25
  -2   0   0  530.65  106.88
  -2   0   0  521.11  111.55
  -2   0   0  433.02  105.16
   2   0   1 1133.87  257.37
   2   0   1 1286.49  261.97
   2   0   1 1491.39  284.99
   2   0   1 1109.72  274.59
  -2   0  -1 1437.36  257.58
  -2   0  -1 1345.52  258.81
  -2   0  -1 1634.56  285.79
  -2   0  -1 1318.35  274.56
   2   0   2    4.49    6.53
   2   0   2   13.16    8.31
   2   0   2    3.60    4.00
   2   0   2    4.72    1.77
  -2   0  -2   17.34    6.76
  -2   0  -2    4.56    7.25
  -2   0  -2    5.69    5.26
  -2   0  -2    1.30    1.67
   2   0   3  524.04  131.91
   2   0   3  825.45  142.36
   2   0   3  694.60  140.62
   2   0   3  821.62  133.31
  -2   0  -3  601.64  133.12
  -2   0  -3  675.65  136.24
  -2   0  -3  618.02  142.14
  -2   0  -3  459.61  133.11
   2   0   4 5569.43  813.46
   2   0   4 4679.81  909.94
   2   0   4 5573.74  883.09
  -2   0  -4 4398.33  799.82
  -2   0  -4 3557.84  803.87
  -2   0  -4 3183.58  911.26
  -2   0  -4 2410.91  882.77
   2   0   5  100.01   17.77
   2   0   5   87.99   26.94
   2   0   5  106.74   37.17
   2   0   5   55.34   23.81
   2   0   5   73.68   22.33
  -2   0  -5   84.59   30.93
  -2   0  -5   88.29   24.15
  -2   0  -5   57.75   17.20
   2   0   6   11.58   10.03
   2   0   6   16.24   16.54
   2   0   6   24.66   11.19
   2   0   6   15.97    8.19
   2   0   6   16.22    3.70
  -2   0  -6   14.33   12.40
  -2   0  -6   14.48   11.11
  -2   0  -6   10.94    4.10
   2   0   7   22.56   11.60
   2   0   7   21.80   18.67
   2   0   7   20.33   11.39
   2   0   7   16.68    9.47
   2   0   7   17.66    4.47
  -2   0  -7   18.76   14.32
  -2   0  -7   16.69   11.18
  -2   0  -7   11.08    4.13
   2   0   8   39.92   18.04
   2   0   8   30.77   27.82
   2   0   8   35.78   16.31
   2   0   8   47.44   15.55
   2   0   8   48.71    8.82
  -2   0  -8   53.70   22.23
  -2   0  -8   21.70   15.76
  -2   0  -8   26.38    8.87
  -2   0  -9  284.14  136.88
   2   0   9  652.72  126.32
   2   0   9  214.28  146.78
   2   0   9  870.28  134.90
   2   0   9  710.00  133.28
   2   0   9  712.78  123.39
  -2   0  -9  708.22  135.14
  -2   0  -9  483.87  133.66
   2   0  10  210.90   54.59
   2   0  10  145.98   52.22
   2   0  10  221.46   43.91
  -2   0 -10  230.22   61.88
  -2   0 -10  167.34   52.54
   2   0  11   75.60   29.98
   2   0  11   95.07   29.34
   2   0  11   90.09   18.77
  -2   0 -11  102.12   36.03
  -2   0 -11   81.00   28.72
   2   0  12  227.46   64.19
   2   0  12  221.97   63.16
   2   0  12  270.89   53.57
  -2   0 -12  284.18   72.18
   2   0  13  102.71   27.09
   2   0  13  125.34   38.22
   2   0  13  129.73   36.18
  -2   0 -13  141.62   44.78
  -2   0 -13  140.88   37.30
   2   0  14  128.40   43.99
   2   0  14  158.55   42.07
  -2   0 -14  168.84   51.04
  -2   0 -14  163.41   43.02
   2   0  15    1.20   11.41
   2   0  15   -3.55   17.39
  -2   0 -15    3.50   15.43
  -2   0 -15   -2.90   15.93
   2   1   0 2697.56  527.35
   2   1   0 3291.56  528.96
   2   1   0 2020.81  596.86
  -2  -1   0 2668.84  526.66
  -2  -1   0 2597.64  595.97
  -2  -1   0 2795.27  577.65
   2   1   1 2491.61  458.40
   2   1   1 2707.49  462.56
  -2  -1  -1 2198.08  458.39
  -2  -1  -1 3340.45  518.29
  -2  -1  -1 1848.19  500.85
   2   1   2  206.37   52.29
   2   1   2  205.93   57.78
   2   1   2  213.15   49.51
   2   1   2  230.68   45.02
  -2  -1  -2  243.35   52.92
  -2  -1  -2  244.26   54.42
  -2  -1  -2  180.61   51.31
  -2  -1  -2  173.45   44.90
   2   1   3  146.69   44.18
   2   1   3  186.50   51.87
   2   1   3  223.57   43.09
   2   1   3  208.39   40.99
   2   1   3  212.80   36.12
  -2  -1  -3  164.67   45.25
  -2  -1  -3  162.96   47.37
  -2  -1  -3  171.30   42.71
  -2  -1  -3  149.40   36.03
   2   1   4  432.75   97.83
   2   1   4  501.89  110.21
   2   1   4  578.01  103.57
   2   1   4  526.69  101.74
   2   1   4  502.68   94.72
  -2  -1  -4  425.84   99.47
  -2  -1  -4  503.33  102.91
  -2  -1  -4  359.97  103.01
  -2  -1  -4  355.42   94.59
   2   1   5  875.73  180.11
   2   1   5 1094.94  196.94
   2   1   5 1028.86  197.57
   2   1   5  929.18  186.30
  -2  -1  -5  815.60  186.57
  -2  -1  -5  918.90  197.48
  -2  -1  -5  796.38  186.22
   2   1   6  874.05  171.22
   2   1   6 1011.57  190.33
   2   1   6  709.19  186.37
   2   1   6  718.91  185.21
   2   1   6  960.68  175.63
  -2  -1  -6  855.75  178.63
  -2  -1  -6 1018.03  187.02
  -2  -1  -6  619.53  175.44
  -2  -1  -7  251.54   91.82
   2   1   7  410.99   89.06
   2   1   7  391.01  107.30
   2   1   7  393.07   92.07
   2   1   7  267.55   90.39
   2   1   7  503.30   83.24
  -2  -1  -7  450.34   96.54
  -2  -1  -7  468.58   92.37
   2   1   8  209.72   49.83
   2   1   8  163.58   66.14
   2   1   8  192.05   47.97
   2   1   8  209.89   39.77
  -2  -1  -8  216.94   56.54
  -2  -1  -8  168.64   47.68
  -2  -1  -8  139.56   39.67
   2   1   9  256.51   57.80
   2   1   9  126.46   74.77
   2   1   9  292.36   56.97
   2   1   9   95.95   54.39
   2   1   9  272.63   47.84
  -2  -1  -9  311.02   65.32
  -2  -1  -9  207.04   56.20
  -2  -1  -9  157.56   47.60
   2   1  10  444.03   95.82
   2   1  10  370.73   98.72
   2   1  10  268.42   97.43
   2   1  10  450.71   89.07
  -2  -1 -10  532.89  104.67
  -2  -1 -10  301.26   98.29
   2   1  11    2.07    4.53
   2   1  11   -1.77   14.41
   2   1  11    0.40    4.20
  -2  -1 -11   -0.34    7.92
  -2  -1 -11   -0.09   13.66
   2   1  12  435.61   96.04
   2   1  12  459.35   98.78
   2   1  12  374.11   88.21
  -2  -1 -12  458.61  104.95
  -2  -1 -12  463.69   99.22
   2   1  13  127.99   28.52
   2   1  13  110.23   39.09
   2   1  13  145.29   36.89
  -2  -1 -13  139.79   45.92
  -2  -1 -13  137.25   37.79
   2   1  14   83.90   29.15
   2   1  14   66.47   27.03
  -2  -1 -14   88.57   34.95
  -2  -1 -14   50.40   27.24
   2   1  15    7.49   11.31
   2   1  15   15.47   15.89
  -2  -1 -15   11.26   16.13
  -2  -1 -15   11.04   16.72
   2   1  16    3.22   11.38
  -2  -1 -16   -2.59   15.79
   2   2   0  310.08   64.09
   2   2   0  249.43   64.59
   2   2   0  272.31   56.32
  -2  -2   0  267.72   63.07
  -2  -2   0  249.32   56.07
   2   2   1  259.75   59.38
   2   2   1  273.10   62.32
   2   2   1  267.22   52.34
  -2  -2  -1  226.05   59.22
  -2  -2  -1  239.84   52.26
   2   2   2   55.77   21.31
   2   2   2   70.43   12.70
  -2  -2  -2   62.17   21.80
  -2  -2  -2   61.42   12.63
   2   2   3   36.42   17.82
   2   2   3   53.86   22.94
   2   2   3   44.50   14.47
   2   2   3   69.54   13.68
   2   2   3   46.86    9.47
  -2  -2  -3   48.87   18.72
  -2  -2  -3   39.10   19.66
  -2  -2  -3   51.17    9.51
   2   2   4  963.43  217.73
   2   2   4 1149.26  231.55
   2   2   4 1010.37  240.92
   2   2   4  880.44  240.06
   2   2   4 1118.57  229.51
  -2  -2  -4 1008.02  219.76
  -2  -2  -4 1200.31  222.96
  -2  -2  -4 1226.42  241.43
  -2  -2  -4 1292.93  229.53
   2   2   5 1321.95  246.30
   2   2   5 1380.41  263.47
   2   2   5 1057.12  273.25
   2   2   5 1119.74  272.75
   2   2   5 1284.10  260.90
  -2  -2  -5 1131.86  252.59
  -2  -2  -5 1170.84  273.67
  -2  -2  -5 1255.12  260.86
   2   2   6    1.62    4.55
   2   2   6    3.44    9.20
   2   2   6    3.41    6.50
   2   2   6    0.69    6.71
   2   2   6    0.87    2.17
  -2  -2  -6    6.39    6.55
  -2  -2  -6   -0.08    6.13
  -2  -2  -6    2.24    3.00
  -2  -2  -7  244.86   59.34
   2   2   7  246.09   62.64
   2   2   7  244.27   79.24
   2   2   7  286.05   61.92
   2   2   7  250.47   61.38
   2   2   7  279.69   54.25
  -2  -2  -7  272.99   69.35
  -2  -2  -7  248.74   62.16
   2   2   8  755.26  142.24
   2   2   8  587.69  163.53
   2   2   8  630.75  151.96
   2   2   8  617.95  151.49
   2   2   8  787.79  142.02
  -2  -2  -8  834.12  150.91
  -2  -2  -8  715.62  152.53
  -2  -2  -8  419.07  141.73
   2   2   9  467.84   98.60
   2   2   9  217.71  118.53
   2   2   9  534.54  102.43
   2   2   9  341.57  101.18
   2   2   9  508.57   92.83
  -2  -2  -9  539.98  107.18
  -2  -2  -9  583.75  102.88
  -2  -2  -9  308.64   92.59
  -2  -2 -10   12.58    4.07
   2   2  10   27.23   14.20
   2   2  10   15.55   23.33
   2   2  10   47.64   15.36
   2   2  10   12.19   17.29
   2   2  10   26.36    5.92
  -2  -2 -10   32.22   18.10
  -2  -2 -10   26.31   13.86
   2   2  11    9.12   10.27
   2   2  11    8.40   11.41
   2   2  11   15.96    5.00
  -2  -2 -11   11.55   13.91
   2   2  12  297.55   67.64
   2   2  12  264.41   71.27
   2   2  12  278.70   71.20
  -2  -2 -12  329.77   79.78
  -2  -2 -12  320.54   71.63
   2   2  13  316.41   73.14
   2   2  13  246.49   71.86
   2   2  13  271.72   62.67
  -2  -2 -13  305.19   81.26
  -2  -2 -13  397.82   74.42
   2   2  14  149.50   35.56
   2   2  14  159.04   45.83
   2   2  14  119.28   42.20
  -2  -2 -14  145.82   52.58
  -2  -2 -14  242.08   44.93
   2   2  15   84.57   30.44
   2   2  15   72.86   27.90
  -2  -2 -15   84.61   36.38
   2   2  16   83.68   31.41
   2   2  16   92.41   32.64
  -2  -2 -16   69.91   38.32
   2   3   0 2275.92  387.32
   2   3   0 1999.26  386.39
   2   3   0 2213.76  417.33
  -2  -3   0 1783.51  384.58
  -2  -3   0 1600.69  417.04
   2   3   1  272.71   70.14
   2   3   1  320.64   63.71
  -2  -3  -1  293.71   69.66
  -2  -3  -1  301.45   63.49
  -2  -3  -1  347.38   63.69
   2   3   2  322.32   81.84
   2   3   2  413.06   87.70
   2   3   2  382.43   77.52
  -2  -3  -2  354.70   82.48
  -2  -3  -2  345.63   77.32
  -2  -3  -2  431.86   77.52
   2   3   3  531.63  124.39
   2   3   3  742.24  134.42
   2   3   3  597.72  125.18
  -2  -3  -3  670.71  126.08
  -2  -3  -3  514.20  127.16
  -2  -3  -3  617.16  125.17
   2   3   4 1335.56  291.83
   2   3   4 1546.17  306.43
   2   3   4 1113.92  326.17
   2   3   4 1339.41  313.11
  -2  -3  -4 1385.07  294.24
  -2  -3  -4 1494.23  296.51
  -2  -3  -4 2069.06  313.25
   2   3   5  890.50  178.26
   2   3   5  972.21  195.41
   2   3   5  970.23  194.62
   2   3   5  750.21  194.81
   2   3   5 1007.26  184.67
  -2  -3  -5  765.59  183.95
  -2  -3  -5 1052.77  195.28
  -2  -3  -5  743.33  184.54
   2   3   6   10.22    7.99
   2   3   6    6.43   13.32
   2   3   6    8.97    6.61
   2   3   6    8.00    2.51
  -2  -3  -6   10.11    9.91
  -2  -3  -6    8.03    8.02
  -2  -3  -6    8.27    3.46
   2   3   7   10.44    8.04
   2   3   7   11.20   14.60
   2   3   7    9.83    8.39
   2   3   7    7.33    2.71
  -2  -3  -7    8.54   10.07
  -2  -3  -7    7.58    9.13
  -2  -3  -7    7.92    3.79
   2   3   8  202.57   58.98
   2   3   8  211.08   76.80
   2   3   8  162.29   57.53
   2   3   8  258.59   50.05
  -2  -3  -8  279.52   66.21
  -2  -3  -8  274.51   58.15
  -2  -3  -8  253.29   50.11
  -2  -3  -9  852.76  210.65
   2   3   9  962.67  183.80
   2   3   9  423.84  206.32
   2   3   9  925.06  199.36
   2   3   9  476.17  198.74
   2   3   9 1001.13  188.18
  -2  -3  -9  961.14  192.94
  -2  -3  -9 1115.88  200.29
   2   3  10   95.66   25.64
   2   3  10   31.34   36.15
   2   3  10   79.41   22.81
   2   3  10   41.06   23.77
   2   3  10   80.06   14.76
  -2  -3 -10  100.74   31.39
  -2  -3 -10   86.24   22.62
  -2  -3 -10   21.17   14.70
   2   3  11   19.40   13.50
   2   3  11   15.00   12.48
   2   3  11   24.06    6.10
  -2  -3 -11   26.26   17.66
  -2  -3 -11   20.49   12.88
   2   3  12  282.09   76.83
   2   3  12  367.09   76.90
   2   3  12  313.59   67.66
  -2  -3 -12  357.85   85.55
  -2  -3 -12  389.99   78.00
   2   3  13  467.97   96.58
   2   3  13  331.34   97.66
   2   3  13  384.57   88.44
  -2  -3 -13  482.26  105.69
   2   3  14   24.83   15.66
   2   3  14   22.52   16.22
   2   3  14   26.87    7.40
  -2  -3 -14   29.04   20.28
  -2  -3 -14   24.46   10.58
   2   3  15    4.91    8.95
   2   3  15    9.19   16.61
  -2  -3 -15    0.94   13.69
   2   3  16  101.77   35.53
   2   3  16   57.74   33.14
  -2  -3 -16  130.09   43.44
   2   4   0  232.09   53.70
   2   4   0  176.91   51.48
   2   4   0  211.71   41.91
  -2  -4   0  188.06   50.04
  -2  -4   0  210.99   41.91
   2   4   1 1180.24  227.63
   2   4   1 1133.85  229.84
  -2  -4  -1  999.58  226.11
  -2  -4  -1 1123.75  238.73
  -2  -4  -1 1282.34  238.96
   2   4   2    1.00    3.02
   2   4   2    1.81    4.16
   2   4   2    0.82    1.23
  -2  -4  -2    1.15    3.17
  -2  -4  -2    1.64    2.66
  -2  -4  -2    1.00    1.23
   2   4   3  346.53   93.46
   2   4   3  563.55  103.63
   2   4   3  421.39   90.56
  -2  -4  -3  496.17   95.33
  -2  -4  -3  369.76   95.32
  -2  -4  -3  406.51   90.39
  -2  -4  -3  509.25   90.62
   2   4   4  547.00  123.13
   2   4   4  741.45  137.54
   2   4   4  563.99  130.58
   2   4   4  722.37  132.45
   2   4   4  600.81  123.57
  -2  -4  -4  630.31  125.86
  -2  -4  -4  500.12  126.66
  -2  -4  -4  557.51  123.42
  -2  -4  -4  619.59  123.57
   2   4   5  580.14  136.01
   2   4   5  567.12  153.25
   2   4   5  588.16  145.44
   2   4   5  453.66  146.64
   2   4   5  621.83  137.48
  -2  -4  -5  666.32  141.12
  -2  -4  -5  667.40  137.39
  -2  -4  -5  877.90  137.62
   2   4   6 1066.14  269.31
   2   4   6 1029.72  227.60
   2   4   6 1125.73  248.62
   2   4   6 1276.07  250.89
   2   4   6  830.62  251.72
  -2  -4  -6 1117.19  234.19
  -2  -4  -6 1418.57  239.83
   2   4   7  117.90   34.87
   2   4   7  128.62   49.16
   2   4   7   96.53   30.70
   2   4   7   85.22   31.99
   2   4   7  102.33   24.79
  -2  -4  -7  132.09   39.98
  -2  -4  -7  146.79   25.03
   2   4   8  255.74   71.92
   2   4   8  203.14   90.66
   2   4   8  301.68   71.58
   2   4   8  346.12   72.86
   2   4   8  277.27   64.22
  -2  -4  -8  323.77   79.13
  -2  -4  -8  406.74   64.54
   2   4   9   25.73   13.23
   2   4   9   10.65   21.99
   2   4   9   28.04   11.28
   2   4   9   22.51    5.23
  -2  -4  -9   23.26   16.56
  -2  -4  -9   19.09    5.74
   2   4  10   27.19   13.62
   2   4  10   23.02   12.86
   2   4  10    2.57   13.34
   2   4  10   25.65    5.35
  -2  -4 -10   30.77   17.50
  -2  -4 -10   10.33    5.73
   2   4  11  641.21  126.03
   2   4  11  482.05  131.55
   2   4  11  545.03  122.37
  -2  -4 -11  636.65  135.10
   2   4  12  269.00   61.87
   2   4  12  234.94   51.18
  -2  -4 -12  287.87   70.08
  -2  -4 -12  180.66   51.30
   2   4  13  473.99  102.02
   2   4  13  294.42  103.39
   2   4  13  458.39   94.81
  -2  -4 -13  526.71  111.28
  -2  -4 -13  431.09   95.01
   2   4  14   82.76   18.09
   2   4  14   92.80   30.00
   2   4  14   52.29   27.15
  -2  -4 -14   84.67   36.34
  -2  -4 -14   78.56   19.49
   2   4  15   17.61   12.77
   2   4  15    6.69   14.16
  -2  -4 -15   13.61   17.76
   2   4  16   35.28   18.65
   2   4  16    4.66   18.26
  -2  -4 -16   35.83   25.57
   2   5   0 1294.80  212.09
   2   5   0  990.23  206.67
  -2  -5   0  845.77  204.42
  -2  -5   0  964.54  214.13
  -2  -5   0 1133.23  214.35
   2   5   1  108.25   33.13
   2   5   1  102.32   33.20
   2   5   1   97.59   21.25
  -2  -5  -1   96.45   30.50
  -2  -5  -1   97.76   21.12
  -2  -5  -1  117.19   21.31
   2   5   2  113.24   34.68
   2   5   2  133.90   39.08
   2   5   2  112.57   24.92
  -2  -5  -2  126.52   34.53
  -2  -5  -2  123.65   24.98
   2   5   3 1319.51  286.46
   2   5   3 1832.38  298.89
   2   5   3 1405.57  306.95
  -2  -5  -3 1419.76  288.42
  -2  -5  -3 1197.31  306.72
  -2  -5  -3 1734.60  307.02
   2   5   4  569.06  148.07
   2   5   4  839.58  161.45
   2   5   4  744.47  151.62
  -2  -5  -4  787.08  151.37
  -2  -5  -4  553.46  150.71
  -2  -5  -4  922.05  161.68
  -2  -5  -4  784.42  151.54
  -2  -5  -4  877.31  151.70
   2   5   5   11.41    8.58
   2   5   5   10.13   14.73
   2   5   5   13.92    6.07
   2   5   5   15.27    8.31
   2   5   5   10.32    2.99
  -2  -5  -5   11.41    9.92
  -2  -5  -5   11.17    4.39
  -2  -5  -5   13.26    3.34
   2   5   6  107.89   28.02
  -2  -5  -6  159.50   28.03
   2   5   6   95.03   35.43
   2   5   6  146.96   49.89
   2   5   6  181.02   31.56
   2   5   6  100.35   33.76
  -2  -5  -6  122.57   39.59
   2   5   7  285.76   76.81
   2   5   7  260.13   96.11
   2   5   7  315.31   76.98
   2   5   7  333.34   79.36
   2   5   7  329.10   70.45
  -2  -5  -7  371.25   83.04
  -2  -5  -7  207.47   79.27
  -2  -5  -7  319.29   70.41
  -2  -5  -7  446.08   70.64
   2   5   8 1601.88  312.22
   2   5   8 1492.54  337.54
   2   5   8 1324.59  347.05
   2   5   8 1361.30  348.93
   2   5   8 1563.24  333.65
  -2  -5  -8 1731.18  320.36
  -2  -5  -8 1723.83  350.16
  -2  -5  -8 1493.54  333.55
  -2  -5  -8 1760.19  333.72
   2   5   9  118.15   24.69
  -2  -5  -9  102.82   23.87
   2   5   9  101.00   33.94
   2   5   9  140.01   49.26
   2   5   9   81.05   29.50
   2   5   9   93.77   31.56
  -2  -5  -9  132.25   39.65
  -2  -5  -9  115.78   23.49
   2   5  10   14.05    2.28
  -2  -5 -10   14.35    3.45
   2   5  10   15.35   10.69
   2   5  10    5.63   12.87
  -2  -5 -10   14.13   13.68
   2   5  11  150.34   39.47
   2   5  11   57.80   34.66
   2   5  11  142.39   28.15
  -2  -5 -11  146.24   45.87
  -2  -5 -11  122.44   28.60
   2   5  12 1026.30  211.23
   2   5  12  706.27  228.63
   2   5  12 1080.48  217.60
  -2  -5 -12 1018.40  220.87
  -2  -5 -12 1208.39  217.86
   2   5  13  120.63   33.68
   2   5  13   60.44   28.64
   2   5  13   99.28   21.77
  -2  -5 -13  103.89   39.85
  -2  -5 -13   99.51   22.90
  -2  -5 -14  129.55   28.82
   2   5  14  142.27   40.24
   2   5  14  108.80   35.65
   2   5  14  121.43   27.91
  -2  -5 -14  153.11   47.28
   2   5  15   21.41   14.33
   2   5  15   16.89   23.73
  -2  -5 -15   22.40   19.05
   2   5  16    3.16   19.75
   2   5  16   80.99   23.41
  -2  -5 -16   55.81   26.21
   2   6   0  656.21  151.46
  -2  -6   0  679.43  148.71
  -2  -6   0  825.80  151.62
   2   6   1  315.11   71.62
   2   6   1  279.85   69.56
   2   6   1  265.11   58.44
  -2  -6  -1  268.37   58.33
  -2  -6  -1  286.28   58.47
   2   6   2 1309.74  239.03
   2   6   2 1263.86  244.52
   2   6   2 1069.39  249.05
  -2  -6  -2 1100.85  236.47
  -2  -6  -2 1079.63  248.89
  -2  -6  -2 1335.43  249.13
   2   6   3  185.06   52.79
   2   6   3  262.39   63.07
   2   6   3  198.34   44.31
  -2  -6  -3  187.74   44.20
  -2  -6  -3  251.07   44.44
   2   6   4  637.46  139.68
   2   6   4  657.97  148.64
   2   6   4  663.26  141.79
  -2  -6  -4  533.38  141.61
  -2  -6  -4  828.59  141.90
   2   6   5   10.37    7.82
   2   6   5   10.35   16.03
   2   6   5   12.49    5.62
   2   6   5   15.27   11.45
   2   6   5    8.85    2.92
  -2  -6  -5    9.09    8.89
  -2  -6  -5    9.52    9.80
  -2  -6  -5    7.00    4.24
  -2  -6  -5   10.11    3.07
   2   6   6   20.86   11.54
   2   6   6   16.49   22.23
   2   6   6   21.07   11.20
   2   6   6   20.22    4.71
  -2  -6  -6   22.40   13.37
  -2  -6  -6   18.16   13.32
  -2  -6  -6   24.60    5.90
  -2  -6  -6   16.64    4.78
   2   6   7  342.68   78.68
   2   6   7  333.74   81.46
   2   6   7  327.92   72.59
  -2  -6  -7  297.47   83.89
  -2  -6  -7  525.07   82.64
  -2  -6  -7  373.89   72.72
  -2  -6  -7  354.93   72.65
   2   6   8  273.14   62.56
   2   6   8  152.18   80.82
   2   6   8  242.52   60.34
   2   6   8  263.76   63.70
   2   6   8  280.94   54.24
  -2  -6  -8  253.92   68.27
  -2  -6  -8  234.98   63.90
  -2  -6  -8  237.38   54.25
  -2  -6  -8  272.13   54.27
   2   6   9  256.07   56.31
   2   6   9  161.72   72.86
   2   6   9  265.09   53.39
   2   6   9  237.33   57.09
   2   6   9  215.74   46.76
  -2  -6  -9  263.65   62.72
  -2  -6  -9  118.77   55.88
  -2  -6  -9  226.47   47.01
  -2  -6  -9  191.91   46.72
   2   6  10   87.07   19.58
   2   6  10   99.04   30.05
   2   6  10   33.51   41.11
   2   6  10  108.78   25.14
   2   6  10   67.48   28.95
  -2  -6 -10   96.73   35.04
  -2  -6 -10  111.76   30.71
   2   6  11  441.59   90.96
   2   6  11  383.01   83.57
  -2  -6 -11  348.04   98.54
  -2  -6 -11  404.75   83.81
   2   6  12  162.13   51.39
   2   6  12  164.69   47.75
   2   6  12  209.67   40.40
  -2  -6 -12  218.32   59.03
  -2  -6 -12  199.70   40.95
   2   6  13   72.99   16.92
  -2  -6 -13   81.13   16.66
   2   6  13   79.20   28.29
   2   6  13   65.69   28.08
  -2  -6 -13   92.45   34.79
   2   6  14    2.44    2.95
   2   6  14    1.72    7.62
   2   6  14    2.66   15.68
  -2  -6 -14    0.91   16.19
  -2  -6 -14    3.07    6.46
   2   6  15    0.55   26.68
   2   6  15  158.30   28.54
  -2  -6 -15  131.15   35.91
   2   6  16   -1.39   38.17
   2   6  16  243.02   40.94
  -2  -6 -16  252.23   49.43
   2   7   0 1353.57  293.77
   2   7   0 1580.03  324.65
   2   7   0 1673.01  310.13
  -2  -7   0 1515.46  289.96
  -2  -7   0 1113.11  309.96
  -2  -7   0 1639.97  310.24
   2   7   1    1.50    8.92
   2   7   1    1.63    1.67
  -2  -7  -1    0.45    4.99
  -2  -7  -1    2.45    2.55
  -2  -7  -1    1.17    2.46
   2   7   2  454.35   98.53
   2   7   2  389.03   83.37
  -2  -7  -2  376.14   89.65
  -2  -7  -2  423.87   83.34
  -2  -7  -2  394.12   83.38
   2   7   3  968.05  176.69
   2   7   3  943.84  190.12
   2   7   3  786.10  178.83
  -2  -7  -3  776.27  178.69
  -2  -7  -3  860.50  178.86
   2   7   4  125.70   53.65
   2   7   4  110.37   34.30
   2   7   4  154.16   37.24
   2   7   4  134.78   30.15
  -2  -7  -4  155.21   30.29
  -2  -7  -4  169.75   30.32
   2   7   5   57.80   22.60
   2   7   5   60.54   17.61
   2   7   5   64.67   13.67
  -2  -7  -5   61.56   20.56
  -2  -7  -5   68.67   14.17
  -2  -7  -5   76.70   13.94
   2   7   6   33.77   16.16
   2   7   6   43.21   29.75
   2   7   6   30.03   12.05
   2   7   6   29.12   16.27
   2   7   6   41.98    8.09
  -2  -7  -6   42.27   18.26
  -2  -7  -6   31.39   17.18
  -2  -7  -6   35.96    8.93
  -2  -7  -6   40.37    8.27
   2   7   7  343.57   83.16
   2   7   7  304.90   83.81
   2   7   7  321.58   86.64
   2   7   7  336.44   77.76
  -2  -7  -7  438.06   88.02
  -2  -7  -7  423.30   87.75
  -2  -7  -7  370.73   77.89
  -2  -7  -7  431.26   77.92
   2   7   8  249.27   54.11
   2   7   8  110.73   70.25
   2   7   8  231.95   51.11
   2   7   8  171.67   53.63
   2   7   8  205.79   45.13
  -2  -7  -8  215.96   59.06
  -2  -7  -8  216.66   55.50
  -2  -7  -8  229.06   45.37
  -2  -7  -8  212.72   45.18
   2   7   9   13.02    2.07
  -2  -7  -9   12.92    3.49
  -2  -7  -9    9.39    2.18
   2   7   9    8.52    9.31
   2   7   9    6.77   18.70
   2   7   9   14.18   11.00
   2   7   9    7.51   17.66
  -2  -7  -9   12.67   13.04
  -2  -7  -9   11.60   18.39
   2   7  10  111.90   24.53
  -2  -7 -10  138.42   24.02
   2   7  10  109.53   34.45
   2   7  10   43.67   45.01
   2   7  10   92.77   30.00
   2   7  10   89.65   35.33
  -2  -7 -10  145.47   40.16
   2   7  11  434.88   87.50
   2   7  11  355.59   87.39
   2   7  11  330.65   79.61
  -2  -7 -11  399.79   95.05
  -2  -7 -11  393.21   79.98
   2   7  12  571.32  139.52
   2   7  12  648.92  146.95
   2   7  12  642.51  137.43
  -2  -7 -12  717.52  148.73
  -2  -7 -12  784.09  137.86
   2   7  13   65.64   25.23
   2   7  13   49.65   24.79
   2   7  13   62.61   13.88
  -2  -7 -13   75.06   33.41
  -2  -7 -13   62.61   15.79
   2   7  14    0.38    7.70
   2   7  14    6.94   15.23
   2   7  14    3.52    3.71
  -2  -7 -14    7.66   18.87
  -2  -7 -14    3.43    9.12
   2   7  15   -0.23   20.90
   2   7  15   88.26   25.16
  -2  -7 -15   97.46   31.08
   2   7  16   -0.87   12.74
   2   7  16   46.15   18.81
   2   8   0   -0.85   11.78
   2   8   0    1.68    6.05
  -2  -8   0    0.46   12.50
  -2  -8   0    0.33    2.87
   2   8   1  484.89   95.55
   2   8   1  417.32   86.64
  -2  -8  -1  386.39   93.06
  -2  -8  -1  474.30   86.87
  -2  -8  -1  375.30   86.63
   2   8   2   66.02   13.87
  -2  -8  -2   65.29   19.58
  -2  -8  -2   56.39   13.97
  -2  -8  -2   73.13   14.13
   2   8   3   84.99   22.76
   2   8   3   92.74   17.63
  -2  -8  -3   78.90   23.53
  -2  -8  -3   76.90   17.89
  -2  -8  -3   79.81   17.51
   2   8   4  237.89   46.19
   2   8   4  197.80   41.07
  -2  -8  -4  193.71   47.98
  -2  -8  -4  185.79   41.06
  -2  -8  -4  182.07   41.00
   2   8   5   64.61   20.76
   2   8   5   82.14   16.71
  -2  -8  -5   70.75   24.23
  -2  -8  -5   86.40   17.16
  -2  -8  -5   83.31   16.83
   2   8   6  774.19  153.36
   2   8   6  684.32  164.22
   2   8   6  766.55  156.62
  -2  -8  -6  692.62  167.40
  -2  -8  -6  704.29  156.57
  -2  -8  -6  772.82  156.66
   2   8   7  349.63   78.17
   2   8   7  330.26   95.59
   2   8   7  329.02   78.22
   2   8   7  286.49   81.54
   2   8   7  351.06   72.45
  -2  -8  -7  307.36   81.85
  -2  -8  -7  348.97   72.56
  -2  -8  -7  370.43   72.52
   2   8   8  499.83  103.17
   2   8   8  518.65  106.47
   2   8   8  253.87  108.81
   2   8   8  473.82   99.54
  -2  -8  -8  532.10  108.21
  -2  -8  -8  486.63  110.80
  -2  -8  -8  476.15   99.62
  -2  -8  -8  434.89   99.52
   2   8   9   16.73   14.78
   2   8   9   17.13   20.83
   2   8   9   27.00   14.45
   2   8   9   12.82   16.47
   2   8   9   34.15    6.20
  -2  -8  -9   25.44   17.36
  -2  -8  -9   33.47   19.34
  -2  -8  -9   29.97    8.28
   2   8  10  285.70   70.34
   2   8  10  296.75   68.50
   2   8  10  286.01   61.76
  -2  -8 -10  304.09   76.61
  -2  -8 -10  319.57   62.42
   2   8  11  477.23  120.91
  -2  -8 -11  529.10  120.06
   2   8  11  568.23  113.37
  -2  -8 -11  505.05  120.53
   2   8  12   34.35   19.19
   2   8  12   41.82   18.82
   2   8  12   35.64    9.12
  -2  -8 -12   53.36   28.49
  -2  -8 -12   50.07   12.51
   2   8  13    0.86   13.46
   2   8  13   27.46   17.26
   2   8  13   20.64    5.58
  -2  -8 -13   33.65   25.30
  -2  -8 -13   35.10   10.92
   2   8  14    0.44    6.87
   2   8  14    6.79   16.69
  -2  -8 -14    4.69   18.58
   2   8  15   -0.39   33.77
   2   8  15  176.15   32.59
  -2  -8 -15  221.47   48.06
   2   9   0   99.48   29.78
   2   9   0   71.35   19.42
  -2  -9   0  155.16   30.99
  -2  -9   0   87.17   18.92
  -2  -9   0   78.87   18.26
   2   9   1  343.91   62.40
   2   9   1  251.30   53.12
  -2  -9  -1  232.05   58.74
  -2  -9  -1  241.50   52.96
  -2  -9  -1  248.04   52.93
  -2  -9  -2  463.81   98.33
  -2  -9  -2  465.96   91.16
  -2  -9  -2  407.57   90.96
   2   9   3  328.73   61.88
   2   9   3  273.54   54.93
  -2  -9  -3  188.93   61.71
  -2  -9  -3  278.93   55.40
  -2  -9  -3  243.05   54.94
   2   9   4   64.02   17.67
   2   9   4   68.01   12.59
  -2  -9  -4   53.71   13.02
  -2  -9  -4   50.65   12.47
   2   9   5   26.33   13.25
   2   9   5   51.24   17.78
   2   9   5   39.81    8.53
  -2  -9  -5   40.97   17.78
  -2  -9  -5   49.12    9.79
  -2  -9  -5   35.97    8.63
   2   9   6  168.75   57.02
   2   9   6  177.91   60.75
   2   9   6  292.63   52.07
  -2  -9  -6  285.90   52.27
  -2  -9  -6  241.43   52.06
   2   9   7  701.22  155.20
   2   9   7  613.40  137.70
   2   9   7  646.07  146.25
   2   9   7  530.29  149.56
  -2  -9  -7  710.29  150.40
  -2  -9  -7  735.95  138.97
   2   9   8    1.49    4.01
   2   9   8    1.29    8.30
   2   9   8    0.02   13.61
   2   9   8    0.88    2.88
  -2  -9  -8    1.15    8.41
  -2  -9  -8    1.29   17.02
  -2  -9  -8   -1.51    6.36
   2   9   9    2.14    5.42
   2   9   9    3.01   11.23
   2   9   9    2.64    9.51
   2   9   9    2.91    3.34
  -2  -9  -9    2.02   10.55
  -2  -9  -9    2.64    7.91
   2   9  10  179.25   47.83
   2   9  10  184.25   41.14
  -2  -9 -10  205.99   56.75
  -2  -9 -10  227.73   42.14
   2   9  11   16.76   12.32
   2   9  11   18.51   16.05
   2   9  11   16.06    4.77
  -2  -9 -11   13.59   16.61
  -2  -9 -11   18.46   10.16
   2   9  12   12.10   35.75
   2   9  12  127.78   32.81
   2   9  12  147.32   25.14
  -2  -9 -12  151.83   43.15
  -2  -9 -12  199.87   27.61
   2   9  13    0.35    6.90
   2   9  13    2.08   12.05
   2   9  13   -1.14    3.61
  -2  -9 -13    4.56   19.53
  -2  -9 -13   -1.18   10.89
   2   9  14   -0.19   45.88
   2   9  14  293.51   44.00
  -2  -9 -14  315.76   59.20
   2   9  15   16.86   18.51
   2  10   0  139.36   38.34
  -2 -10   0  131.03   40.64
  -2 -10   0   56.21   30.37
  -2 -10   0  150.92   25.91
  -2 -10  -1   54.01   22.19
  -2 -10  -1   88.26   17.29
   2  10   2   63.97   26.45
  -2 -10  -2  116.13   20.42
  -2 -10  -2   68.00   17.65
   2  10   3  137.44   24.76
  -2 -10  -3   98.69   31.74
  -2 -10  -3   94.02   24.55
  -2 -10  -3  111.18   24.73
   2  10   4    0.77    8.45
   2  10   4    1.24    3.00
  -2 -10  -4    3.04   14.23
  -2 -10  -4   -2.86    7.79
   2  10   5  580.33  133.30
   2  10   5  585.08  136.06
   2  10   5  615.80  125.57
  -2 -10  -5  604.56  136.02
  -2 -10  -5  586.40  125.61
   2  10   6   17.99    9.73
   2  10   6   14.06   17.21
   2  10   6   18.44    4.92
  -2 -10  -6   21.81    7.48
   2  10   7  414.53  139.15
   2  10   7  688.58  132.02
  -2 -10  -7  743.94  132.28
   2  10   8   72.13   23.44
   2  10   8   85.22   17.24
   2  10   9  180.60   32.69
   2  10   9  128.18   40.00
   2  10   9   77.79   46.86
   2  10   9  156.32   36.43
  -2 -10  -9  112.02   43.07
  -2 -10  -9  198.85   31.65
   2  10  10  193.95   53.57
   2  10  10  172.28   50.24
   2  10  10  234.22   44.21
  -2 -10 -10  171.77   58.01
  -2 -10 -10  283.10   45.29
   2  10  11  426.32   93.57
  -2 -10 -11  359.23   92.53
   2  10  11  398.47   91.32
   2  10  11  427.33   92.22
  -2 -10 -11  370.52   96.76
   2  10  12   27.26   19.58
   2  10  12   34.79    7.99
  -2 -10 -12   34.58   23.87
  -2 -10 -12   31.43    9.85
   2  10  13   -0.70    9.79
   2  10  13    4.66   16.40
  -2 -10 -13    9.27   18.74
   2  10  14    0.82   15.06
   2  10  14   57.93   19.36
  -2 -11   0    9.56   30.61
  -2 -11   0    5.36    8.17
  -2 -11  -1   28.07   12.37
   2  11   2  113.51   43.45
  -2 -11  -2  174.91   33.83
   2  11   3   15.71   18.91
  -2 -11  -3   22.44   10.87
   2  11   4   34.95   17.62
   2  11   4   35.18    8.28
  -2 -11  -4   27.28    8.62
   2  11   5  149.03   38.71
   2  11   5  155.06   32.31
  -2 -11  -5  152.89   33.25
   2  11   6 1263.64  265.59
   2  11   6 1140.50  254.22
  -2 -11  -6 1322.03  254.61
   2  11   7   25.07   15.15
   2  11   7   42.60    8.62
  -2 -11  -7   40.17   11.29
   2  11   8    1.11    3.27
  -2 -11  -8    0.74    8.00
   2  11   9  115.91   24.23
  -2 -11  -9  104.38   23.68
   2  11   9   96.97   29.39
   2  11  10   53.52   20.25
   2  11  10   58.65   12.80
  -2 -11 -10   63.48   15.46
   2  11  11  152.86   52.57
   2  11  11  224.29   50.46
   2  11  11  231.19   42.95
  -2 -11 -11  219.34   43.95
   2  11  12    1.05   11.81
   2  11  12   29.41   18.64
  -2 -11 -12   13.31   17.04
   2  11  13   78.01   28.10
   2  12   0   62.43   32.61
  -2 -12   0   99.49   34.25
  -2 -12   0    1.93   11.09
  -2 -12  -1  249.91   39.34
  -2 -12  -1   -0.29   16.86
   2  12   2   50.42   28.72
  -2 -12  -2    1.47   10.37
  -2 -12  -3    2.55    7.52
  -2 -12  -4   79.50   19.85
   2  12   5    9.58   17.22
   2  12   5   12.21    4.27
  -2 -12  -5   10.77    9.88
   2  12   6  221.49   58.45
   2  12   6  264.37   51.26
  -2 -12  -6  215.91   51.71
   2  12   7   17.99   16.68
   2  12   7   17.62    5.03
  -2 -12  -7   14.22    9.31
   2  12   8    3.27   13.19
   2  12   8    9.99    3.88
  -2 -12  -8    4.36    9.97
   2  12   9   95.60   31.90
   2  12   9  122.68   24.53
  -2 -12  -9  120.68   26.08
   2  12  10   44.53   10.44
  -2 -12 -10   51.42   13.67
   2  12  11  130.86   36.37
   2  12  12   30.02   19.31
  -2 -13  -4    2.59    8.27
   2  13   5   31.41   22.93
  -2 -13  -5   -3.39    9.54
   2  13   6  133.31   43.86
   2  13   6  233.96   33.67
  -2 -13  -6   -4.77   33.44
   2  13   7    9.74   15.51
   2  13   7    4.06    3.55
  -2 -13  -7    0.41    8.46
   2  13   8    5.34   18.53
   2  13   9   78.92   25.98
  -3  13   0  565.05  129.37
  -3  13  -1   17.45   19.15
  -3  13  -2   -1.69   15.34
  -3  12   0  115.74   33.95
  -3  12  -1  210.39   55.16
  -3  12  -2    9.86   15.68
  -3  12  -3   30.86   19.78
  -3  12  -4   66.70   33.19
   3 -11   0  451.81   88.76
   3 -11   0  341.87   89.79
  -3  11   0  364.51   88.84
   3 -11   1   33.15    5.98
   3 -11   1   16.33   16.87
  -3  11  -1   41.97   18.53
   3 -11   2    0.38    9.60
  -3  11  -2    0.18   14.81
   3 -11   3    1.11   10.14
  -3  11  -3   -1.26   17.62
  -3  11  -4   54.18   23.65
  -3  11  -5   30.57   28.21
   3 -10   0   64.81   25.01
   3 -10   0   53.18   14.07
  -3  10   0   78.64   22.78
   3 -10   1  399.20  103.95
   3 -10   1  469.39   99.08
  -3  10  -1  670.22  109.25
   3 -10   2    3.39    4.16
   3 -10   2    3.17    8.78
  -3  10  -2   -0.48   18.45
   3 -10   3   59.37   23.90
   3 -10   3   61.93   13.53
  -3  10  -3   47.76   24.24
   3 -10   4   82.66   28.34
  -3  10  -4   59.71   26.87
   3 -10   5    1.70   10.13
  -3  10  -5    1.12   17.91
  -3  10  -6   72.64   34.23
   3 -10   7  126.93   42.02
  -3  10  -7   75.44   40.92
   3  -9   0  417.14   96.14
   3  -9   0  396.14   90.44
  -3   9   0  519.98   98.48
   3  -9   1   27.25   14.88
   3  -9   1   25.20    7.30
  -3   9  -1   24.34   15.00
   3  -9   2   98.73   31.66
   3  -9   2   81.84   21.62
  -3   9  -2  142.84   32.49
   3  -9   3  141.94   26.08
  -3   9  -3   74.99   35.29
   3  -9   4   92.58   28.86
   3  -9   4  147.95   38.67
  -3   9  -4  167.44   37.73
   3  -9   5   91.47   25.49
   3  -9   5   85.92   16.09
  -3   9  -5    1.27   28.05
  -3   9  -5  115.43   27.64
   3  -9   6   -0.05    7.70
  -3   9  -6    5.28   15.24
  -3   9  -6   11.04   22.32
   3  -9   7   49.78   18.11
  -3   9  -7    1.72   24.01
  -3   9  -7   49.28   23.45
   3  -9   8   62.82   35.05
  -3   9  -8  103.93   36.42
   3  -8   0  213.82   92.00
   3  -8   0  316.11   73.99
  -3   8   0  372.66   83.14
  -3   8   0  498.96   81.67
   3  -8   1   80.67   26.82
   3  -8   1   43.93   16.77
  -3   8  -1  136.72   24.46
   3  -8   2    2.58    5.06
  -3   8  -2    4.39   15.85
   3  -8   3  422.14  103.22
   3  -8   3  515.97   99.51
  -3   8  -3  553.52  109.07
   3  -8   4   65.35   14.45
  -3   8  -4   71.38   26.91
  -3   8  -4   45.82   24.58
   3  -8   5  163.61   45.11
   3  -8   5  172.85   35.50
  -3   8  -5  186.63   49.47
  -3   8  -5  103.27   45.13
   3  -8   6    1.93    6.53
   3  -8   6    0.29    5.32
  -3   8  -6    0.84   13.56
  -3   8  -6   -3.43   21.06
   3  -8   7   43.87   16.64
  -3   8  -7    0.66   20.88
  -3   8  -7   45.43   22.20
   3  -8   8  119.74   30.43
   3  -8   8  193.63   34.74
  -3   8  -8   -3.23   32.67
  -3   8  -8  130.06   32.90
   3  -8   9   17.57   27.92
   3  -7   0 1280.18  216.99
   3  -7   0 1042.06  227.56
   3  -7   0  778.64  236.26
   3  -7   0 1080.09  226.64
   3  -7   0  932.52  226.60
  -3   7   0 1133.87  218.22
  -3   7   0 1504.17  237.70
  -3   7   0  920.53  226.56
   3  -7   1  109.13   39.72
   3  -7   1  190.62   46.70
   3  -7   1  214.03   57.35
  -3   7  -1  183.87   48.79
  -3   7  -1  221.83   44.08
   3  -7   2  111.72   44.06
   3  -7   2   91.86   23.29
  -3   7  -2  107.56   35.48
  -3   7  -2  152.17   30.26
   3  -7   3  128.70   38.71
   3  -7   3  149.04   29.34
  -3   7  -3  136.42   40.75
  -3   7  -3  152.98   37.65
   3  -7   4  136.89   37.52
   3  -7   4  161.58   44.81
  -3   7  -4  196.75   47.68
  -3   7  -4  191.80   44.71
   3  -7   5   16.97   10.11
   3  -7   5    9.00    6.13
  -3   7  -5   13.05   13.67
  -3   7  -5    3.93   14.52
   3  -7   6   92.49   18.52
  -3   7  -6   83.98   31.53
  -3   7  -6   62.30   29.07
   3  -7   7   43.25   19.81
   3  -7   7   52.52   11.00
  -3   7  -7   40.07   22.78
  -3   7  -7   46.14   23.61
   3  -7   8  178.33   37.53
  -3   7  -8    1.55   40.10
  -3   7  -8  207.94   39.45
   3  -7   9   12.31   10.58
   3  -7   9   20.53   17.03
  -3   7  -9   -1.21   14.00
  -3   7  -9    7.82   20.04
   3  -7  10   45.16   17.77
   3  -7  10   66.90   25.79
  -3   7 -10   -0.17   20.32
  -3   7 -10   35.25   22.32
  -3   6   0  230.02   59.58
   3  -6   0  265.29   62.85
   3  -6   0  308.45   70.23
   3  -6   0  240.34   60.31
   3  -6   0  231.00   54.90
   3  -6   0  266.49   55.02
  -3   6   0  292.86   63.48
  -3   6   0  250.13   60.86
   3  -6   1   16.32   11.68
   3  -6   1   24.69   16.33
   3  -6   1   15.11    8.49
   3  -6   1   13.68    5.29
   3  -6   1   18.91    4.88
  -3   6  -1   21.51   13.44
  -3   6  -1   32.24   10.64
  -3   6  -1   18.98    5.63
   3  -6   2  242.35   60.62
   3  -6   2  311.98   72.80
   3  -6   2  260.32   58.38
   3  -6   2  272.27   52.92
   3  -6   2  257.95   52.88
  -3   6  -2  264.39   63.06
  -3   6  -2  215.95   62.09
  -3   6  -2  332.58   60.09
  -3   6  -2  174.84   52.66
   3  -6   3  398.58   75.96
   3  -6   3  383.97   75.54
   3  -6   3  440.62   90.80
   3  -6   3  264.05   74.85
   3  -6   3  271.02   68.95
  -3   6  -3  321.37   78.44
  -3   6  -3  322.00   77.73
  -3   6  -3  395.33   76.97
  -3   6  -3  226.83   68.83
   3  -6   4  135.19   37.93
   3  -6   4  137.76   28.47
  -3   6  -4  143.80   40.45
  -3   6  -4   98.56   35.12
   3  -6   5   36.31   17.17
   3  -6   5   40.84    9.47
  -3   6  -5   37.09   19.16
   3  -6   6   26.42    6.61
  -3   6  -6   23.45   15.23
  -3   6  -6    5.57   17.86
   3  -6   7  484.24   96.42
   3  -6   7  369.71   92.78
  -3   6  -7  425.97   97.76
  -3   6  -7  340.13   97.57
   3  -6   8  718.85  127.57
  -3   6  -8  482.56  134.76
  -3   6  -8  550.00  139.22
   3  -6   9   88.76   33.01
   3  -6   9  167.14   35.12
  -3   6  -9  101.57   37.39
  -3   6  -9  103.32   34.31
   3  -6  10   11.12   10.73
   3  -6  10   13.20   17.43
  -3   6 -10    1.17   15.12
  -3   6 -10    4.10   19.96
   3  -6  11   49.20   18.90
   3  -6  11   53.48   24.84
  -3   6 -11    1.75   21.93
  -3   6 -11   30.86   23.00
   3  -5   0  113.34   34.14
   3  -5   0  123.11   38.97
   3  -5   0  100.14   28.89
   3  -5   0  111.16   24.50
   3  -5   0  116.47   24.52
  -3   5   0  125.98   34.29
  -3   5   0  149.90   29.78
  -3   5   0  100.56   24.42
   3  -5   1  142.28   32.54
   3  -5   1  155.94   39.60
   3  -5   1  163.05   46.57
   3  -5   1  123.70   34.95
   3  -5   1  131.98   30.27
  -3   5  -1  139.91   40.27
  -3   5  -1  188.93   36.26
  -3   5  -1  128.27   30.34
   3  -5   2  280.30   70.07
   3  -5   2  345.22   80.79
   3  -5   2  305.24   68.92
   3  -5   2  277.23   63.37
   3  -5   2  292.28   63.45
  -3   5  -2  314.45   71.84
  -3   5  -2  327.89   71.86
  -3   5  -2  359.78   70.55
  -3   5  -2  276.72   63.43
   3  -5   3  445.92   92.82
   3  -5   3  460.97  106.65
   3  -5   3  325.86   94.41
   3  -5   3  372.74   88.32
  -3   5  -3  411.51   95.23
  -3   5  -3  452.87   95.35
  -3   5  -3  489.19   96.89
  -3   5  -3  450.67   88.66
   3  -5   4    0.71    2.51
   3  -5   4    1.17    9.25
   3  -5   4    0.27    5.00
  -3   5  -4   -0.68    4.66
  -3   5  -4    4.32    5.71
  -3   5  -4   -0.41    9.73
  -3   5  -4   -1.51    7.28
   3  -5   5    2.74    4.93
   3  -5   5    0.82    3.61
  -3   5  -5    0.26    5.90
  -3   5  -5    4.95   11.01
   3  -5   6   71.55   11.48
   3  -5   6   44.99   21.25
  -3   5  -6   50.83   23.89
  -3   5  -6   50.83   22.73
   3  -5   7  583.22  122.70
  -3   5  -7  599.17  129.95
  -3   5  -7  554.91  133.93
   3  -5   8  146.29   47.67
   3  -5   8  226.80   49.20
   3  -5   8  204.05   37.60
  -3   5  -8  178.65   52.41
  -3   5  -8  170.23   48.18
   3  -5   9   38.35   19.51
   3  -5   9   83.11   22.82
   3  -5   9   39.00   10.21
  -3   5  -9   45.33   23.60
  -3   5  -9   38.92   23.20
   3  -5  10   32.84   19.79
   3  -5  10   66.29   22.78
  -3   5 -10   52.15   23.32
  -3   5 -10   26.80   23.64
   3  -5  11  132.56   43.98
   3  -5  11  143.68   45.84
  -3   5 -11  161.90   50.10
  -3   5 -11  212.30   48.37
   3  -5  12   70.41   23.83
   3  -5  12   92.92   31.09
  -3   5 -12   -1.21   25.24
  -3   5 -12   50.08   24.40
   3  -4   0  216.76   53.94
   3  -4   0  211.28   58.69
   3  -4   0  202.48   50.52
   3  -4   0  184.14   45.49
   3  -4   0  220.21   45.60
  -3   4   0  238.98   53.91
  -3   4   0  267.31   51.23
  -3   4   0  208.20   45.53
   3  -4   1   40.97   19.31
   3  -4   1   67.19   23.76
   3  -4   1   48.36   14.69
   3  -4   1   30.26   10.43
   3  -4   1   59.63   10.76
  -3   4  -1   51.45   19.84
  -3   4  -1   65.34   15.81
  -3   4  -1   48.28   10.98
   3  -4   2  367.54   99.11
   3  -4   2  511.99  109.22
   3  -4   2  397.31  102.07
   3  -4   2  425.12   95.88
  -3   4  -2  557.24  100.72
  -3   4  -2  427.99  101.01
  -3   4  -2  709.02  104.31
  -3   4  -2  422.99   95.87
  -3   4  -3  195.93   63.50
   3  -4   3  274.79   65.47
   3  -4   3  335.59   77.03
   3  -4   3  308.61   63.87
   3  -4   3  296.66   58.44
  -3   4  -3  273.64   67.30
  -3   4  -3  255.20   67.78
  -3   4  -3  368.25   66.21
   3  -4   4  105.04   29.67
   3  -4   4  112.88   40.05
   3  -4   4   59.56   24.06
   3  -4   4  101.40   20.12
  -3   4  -4   93.66   31.55
  -3   4  -4  103.71   31.97
  -3   4  -4  111.96   26.99
  -3   4  -4   77.92   20.29
   3  -4   5   35.09   15.27
   3  -4   5   34.56   23.58
   3  -4   5   24.29   11.41
   3  -4   5   41.88    7.68
  -3   4  -5   38.25   17.20
  -3   4  -5   27.56   14.01
  -3   4  -5    9.45    7.40
   3  -4   6   73.61   15.73
  -3   4  -6   74.07   28.17
  -3   4  -6   68.32   23.52
   3  -4   7 1148.70  218.68
   3  -4   7 1127.97  228.12
  -3   4  -7 1007.91  223.86
  -3   4  -7  910.81  241.29
   3  -4   8   11.91   11.04
   3  -4   8   10.00   14.12
   3  -4   8   18.82    5.44
  -3   4  -8   13.73   14.41
  -3   4  -8   16.01   17.43
   3  -4   9    3.55    7.39
   3  -4   9    7.31   13.93
   3  -4   9    5.72    4.79
  -3   4  -9    3.42    9.70
  -3   4  -9    1.58   17.37
   3  -4  10   93.39   32.54
   3  -4  10   88.65   21.16
  -3   4 -10  111.60   37.44
  -3   4 -10  112.02   34.01
   3  -4  11    6.97    8.74
   3  -4  11    4.82   18.57
  -3   4 -11    5.74   11.53
  -3   4 -11    1.10   19.63
   3  -4  12   84.18   31.93
   3  -4  12  145.34   34.23
  -3   4 -12  103.08   36.78
  -3   4 -12   53.98   34.52
   3  -3   0   -0.34    2.63
   3  -3   0   -0.75    4.76
   3  -3   0   -0.99    3.79
   3  -3   0    0.35    2.67
   3  -3   0   -0.17    1.99
  -3   3   0   -0.34    2.43
  -3   3   0   -0.61    4.91
  -3   3   0   -0.22    2.81
   3  -3   1  368.83   87.84
   3  -3   1  445.33   94.35
   3  -3   1  377.70   89.13
   3  -3   1  346.84   83.21
  -3   3  -1  502.11   90.33
  -3   3  -1  423.27   83.34
   3  -3   2  263.20  101.87
   3  -3   2  406.59   95.57
   3  -3   2  535.26  104.42
   3  -3   2  421.46   98.09
  -3   3  -2  477.41   96.63
  -3   3  -2  504.26   97.51
  -3   3  -2  576.88   99.90
  -3   3  -2  439.85   92.02
   3  -3   3  149.42   44.21
   3  -3   3  220.35   53.47
   3  -3   3  164.99   40.27
   3  -3   3  164.72   35.52
  -3   3  -3  186.13   45.68
  -3   3  -3  172.19   46.41
  -3   3  -3  191.39   42.49
  -3   3  -3  147.77   35.59
   3  -3   4   18.82   10.56
   3  -3   4   18.91   15.64
   3  -3   4   18.39    7.42
   3  -3   4   14.82    4.47
  -3   3  -4   17.40   11.84
  -3   3  -4   21.04   11.91
  -3   3  -4   10.97   11.05
  -3   3  -4    5.93    5.54
   3  -3   5   70.02   25.55
   3  -3   5   93.76   36.02
   3  -3   5   61.72   20.52
   3  -3   5   98.39   16.33
  -3   3  -5   69.42   27.37
  -3   3  -5   81.10   28.16
  -3   3  -5   78.46   23.93
  -3   3  -5   61.02   16.56
   3  -3   6  575.76  121.90
   3  -3   6  332.65  127.07
   3  -3   6  725.21  120.46
  -3   3  -6  653.15  126.67
  -3   3  -6  793.89  131.36
  -3   3  -6  395.46  120.07
   3  -3   7 1098.58  231.30
   3  -3   7 1325.37  257.91
   3  -3   7 1297.92  242.67
  -3   3  -7 1046.34  236.61
  -3   3  -7 1061.98  256.10
   3  -3   8  685.24  205.49
   3  -3   8  995.05  192.46
  -3   3  -8 1000.11  193.14
  -3   3  -8  583.22  204.48
   3  -3   9    1.63    6.75
   3  -3   9   10.54   16.42
   3  -3   9    4.33    4.48
  -3   3  -9    2.78    9.23
  -3   3  -9    8.85   16.84
   3  -3  10  271.99   60.64
   3  -3  10  240.97   65.10
   3  -3  10  353.92   67.67
  -3   3 -10  259.14   70.83
  -3   3 -10  260.47   67.93
   3  -3  11  191.16   50.60
   3  -3  11  181.14   50.75
   3  -3  11  202.68   39.53
  -3   3 -11  157.48   55.72
  -3   3 -11  179.90   51.05
   3  -3  12   -1.27    6.29
   3  -3  12    6.38   16.53
  -3   3 -12    4.25   10.09
  -3   3 -12    6.53   17.94
   3  -3  13    1.05    9.08
   3  -3  13    5.82   21.96
  -3   3 -13   -5.82   16.59
  -3   3 -13   -2.93   16.45
   3  -2   0    0.55    3.89
   3  -2   0    1.59    4.86
   3  -2   0    1.17    4.36
   3  -2   0    1.50    2.68
   3  -2   0    1.01    1.68
  -3   2   0    1.13    3.67
  -3   2   0    2.95    4.67
  -3   2   0    0.91    2.99
   3  -2   1  342.07   73.95
   3  -2   1  326.96   79.25
   3  -2   1  311.52   73.25
   3  -2   1  220.08   67.75
  -3   2  -1  353.51   74.13
  -3   2  -1  414.37   74.40
  -3   2  -1  338.63   67.90
   3  -2   2  551.73  127.01
   3  -2   2  827.08  135.42
   3  -2   2  592.77  134.22
   3  -2   2  551.75  127.25
  -3   2  -2  624.82  127.84
  -3   2  -2  608.88  128.83
  -3   2  -2  816.53  135.87
  -3   2  -2  474.78  127.17
   3  -2   3  164.64   42.53
   3  -2   3  216.83   50.80
   3  -2   3  153.23   38.35
   3  -2   3  134.36   33.68
  -3   2  -3  157.31   43.62
  -3   2  -3  153.27   44.54
  -3   2  -3  206.27   40.61
  -3   2  -3  159.62   33.87
   3  -2   4   10.00    7.78
   3  -2   4   13.28   12.39
   3  -2   4    7.10    5.68
   3  -2   4   10.51    3.48
  -3   2  -4    5.40    8.50
  -3   2  -4   10.40    8.84
  -3   2  -4    8.51    9.33
  -3   2  -4    6.21    4.71
   3  -2   5  325.44   78.47
   3  -2   5  430.18   92.94
   3  -2   5  249.00   78.23
   3  -2   5  474.80   72.79
  -3   2  -5  303.37   80.76
  -3   2  -5  397.50   82.39
  -3   2  -5  199.85   80.26
  -3   2  -5  300.62   72.55
   3  -2   6  468.50   76.64
   3  -2   6  344.34   75.84
   3  -2   6  268.31   91.35
   3  -2   6  245.47   74.90
  -3   2  -6  350.37   80.17
  -3   2  -6  316.86   77.87
  -3   2  -6  202.76   68.91
  -3   2  -7   78.02   46.18
   3  -2   7  253.82   52.75
   3  -2   7  200.53   69.09
   3  -2   7  135.88   48.85
   3  -2   7  199.51   43.27
  -3   2  -7  310.99   57.24
  -3   2  -7  268.15   52.86
   3  -2   8  294.18   83.47
   3  -2   8  552.14   88.80
   3  -2   8  444.02   76.97
  -3   2  -8  347.93   88.87
  -3   2  -8  259.89   86.11
   3  -2   9  719.55  153.57
   3  -2   9  802.34  167.60
   3  -2   9  803.03  154.36
  -3   2  -9  718.60  159.67
  -3   2  -9  520.50  166.29
   3  -2  10   57.26   25.33
   3  -2  10   62.18   25.11
   3  -2  10   68.39   14.92
  -3   2 -10   82.28   29.73
  -3   2 -10   88.60   27.62
   3  -2  11  180.66   54.39
   3  -2  11  209.50   54.95
   3  -2  11  217.16   43.70
  -3   2 -11  232.99   60.41
   3  -2  12    5.21    9.67
   3  -2  12    1.20   16.20
  -3   2 -12   12.12   14.12
  -3   2 -12   15.96   21.97
   3  -2  13    4.84    8.22
   3  -2  13    5.73   20.67
  -3   2 -13    7.26   12.05
  -3   2 -13    4.50   22.86
   3  -2  14   73.17   29.32
   3  -2  14   60.40   33.13
  -3   2 -14   51.55   33.46
  -3   2 -14   64.86   31.00
   3  -1   0  868.87  204.51
   3  -1   0 1095.80  208.26
   3  -1   0 1099.94  223.16
   3  -1   0  733.19  213.69
   3  -1   0 1250.26  213.92
  -3   1   0  966.58  204.09
  -3   1   0 1202.48  223.43
  -3   1   0 1108.19  213.75
   3  -1   1   46.63   19.44
   3  -1   1   66.89   22.57
   3  -1   1   57.61   14.39
   3  -1   1   43.20   10.51
  -3   1  -1   51.12   19.56
  -3   1  -1   61.98   15.48
  -3   1  -1   43.65   10.70
   3  -1   2 1157.72  234.98
   3  -1   2 1147.37  242.67
   3  -1   2 1173.90  248.67
  -3   1  -2 1089.60  235.63
  -3   1  -2 1319.66  236.80
  -3   1  -2 1459.97  260.24
  -3   1  -2 1127.10  248.60
   3  -1   3  183.57   50.74
   3  -1   3  262.15   58.96
   3  -1   3  203.41   47.44
   3  -1   3  246.06   42.85
  -3   1  -3  202.03   51.88
  -3   1  -3  165.14   52.77
  -3   1  -3  194.21   49.39
  -3   1  -3  207.88   42.80
   3  -1   4  224.09   53.10
   3  -1   4  259.55   63.17
   3  -1   4  172.31   49.91
   3  -1   4  235.95   45.14
  -3   1  -4  194.94   54.57
  -3   1  -4  249.44   55.96
  -3   1  -4  176.41   52.17
  -3   1  -4  189.12   45.07
   3  -1   5   75.28   27.06
   3  -1   5  101.71   36.62
   3  -1   5   57.22   21.79
   3  -1   5  103.45   17.90
  -3   1  -5   84.38   28.79
  -3   1  -5   90.91   29.79
  -3   1  -5  117.17   25.13
  -3   1  -5   66.92   17.88
   3  -1   6 1954.62  346.04
   3  -1   6 2029.92  365.02
   3  -1   6 2344.94  390.50
   3  -1   6 1480.06  386.09
   3  -1   6 2150.68  372.61
  -3   1  -6 1820.43  350.98
  -3   1  -6 1782.18  389.04
  -3   1  -6  938.31  372.15
   3  -1   7  175.09   45.92
   3  -1   7   92.29   61.33
   3  -1   7  173.90   42.45
   3  -1   7  223.25   36.58
  -3   1  -7  243.21   50.44
  -3   1  -7  174.24   45.74
  -3   1  -7   74.20   36.17
   3  -1   8    1.53    2.45
   3  -1   8    0.58    4.66
   3  -1   8    3.17   13.30
  -3   1  -8    0.53    6.38
  -3   1  -8    2.95   10.16
   3  -1   9   19.16   12.99
   3  -1   9   28.37   17.28
   3  -1   9   21.38    5.65
  -3   1  -9   28.51   16.12
  -3   1  -9    8.81   16.07
   3  -1  10  207.65   51.12
   3  -1  10  161.82   51.28
   3  -1  10  174.72   40.53
  -3   1 -10  214.75   56.42
  -3   1 -10  182.70   52.22
   3  -1  11  115.32   36.82
   3  -1  11  123.16   37.64
   3  -1  11  122.47   25.56
  -3   1 -11  124.28   41.81
  -3   1 -11  118.98   36.72
   3  -1  12    7.11    8.81
   3  -1  12    5.23   15.61
   3  -1  12    8.43    4.97
  -3   1 -12    8.71   12.31
  -3   1 -12    6.47   17.64
   3  -1  13   95.89   31.58
  -3   1 -13   80.83   32.76
  -3   1 -13   43.20   31.18
   3  -1  14  275.56   71.21
   3  -1  14  341.08   72.97
  -3   1 -14  286.27   77.54
  -3   1 -14  242.39   72.26
   3   0   0    5.09    6.12
   3   0   0    5.79    7.18
   3   0   0    6.38    4.57
   3   0   0    6.54    2.10
  -3   0   0    5.39    6.13
  -3   0   0    6.75    4.70
  -3   0   0    3.29    1.60
   3   0   1  562.49  113.10
   3   0   1  595.70  117.83
   3   0   1  444.24  117.84
   3   0   1  540.65  111.49
  -3   0  -1  540.64  113.13
  -3   0  -1  713.53  119.01
  -3   0  -1  373.43  111.29
   3   0   2  791.67  185.14
   3   0   2 1117.08  192.47
   3   0   2  747.67  201.04
   3   0   2 1290.22  192.91
  -3   0  -2  891.20  185.86
  -3   0  -2  634.65  186.48
  -3   0  -2 1135.08  202.99
  -3   0  -2  971.19  192.72
   3   0   3    9.83    8.48
   3   0   3   16.16   11.88
   3   0   3   10.14    5.59
   3   0   3   14.28    3.28
  -3   0  -3   11.64    8.91
  -3   0  -3   12.41    9.30
  -3   0  -3   10.03    8.01
  -3   0  -3    7.33    3.85
   3   0   4  355.41   76.19
   3   0   4  441.80   86.98
   3   0   4  282.38   70.43
  -3   0  -4  329.57   77.80
  -3   0  -4  340.67   79.10
  -3   0  -4  447.95   78.98
  -3   0  -4  291.78   70.47
   3   0   5  243.18   66.73
   3   0   5  331.91   79.23
   3   0   5  334.68   69.04
   3   0   5  276.26   65.55
   3   0   5  359.54   60.07
  -3   0  -5  308.80   68.99
  -3   0  -5  267.98   70.28
  -3   0  -5  276.37   68.34
  -3   0  -5  228.08   59.84
   3   0   6  112.02   30.77
   3   0   6  118.78   41.80
   3   0   6  154.26   29.85
   3   0   6  118.94   26.66
   3   0   6  117.01   21.15
  -3   0  -6   93.32   33.78
  -3   0  -6  112.97   29.72
  -3   0  -6   31.76   20.90
  -3   0  -7  106.29   54.90
   3   0   7  243.68   59.16
   3   0   7  184.52   74.84
   3   0   7  260.91   60.34
   3   0   7  264.57   57.21
   3   0   7  293.67   50.88
  -3   0  -7  323.57   63.90
  -3   0  -8   71.80   35.09
   3   0   8  167.56   43.31
   3   0   8  137.48   58.71
   3   0   8  190.51   43.24
   3   0   8  147.99   39.28
   3   0   8  214.73   33.51
  -3   0  -8  182.46   47.80
  -3   0  -8  104.50   41.76
   3   0   9  876.00  194.78
   3   0   9  678.51  213.57
   3   0   9 1084.16  201.03
  -3   0  -9 1084.75  201.49
  -3   0  -9  710.86  213.24
   3   0  10   31.21   17.11
   3   0  10   32.44   18.24
   3   0  10   37.51    8.22
  -3   0 -10   35.84   20.64
  -3   0 -10   45.83   19.87
   3   0  11   52.11   21.11
   3   0  11   59.32   23.66
   3   0  11   48.35   11.07
  -3   0 -11   41.91   25.33
  -3   0 -11   42.79   24.93
   3   0  12    9.44    9.18
   3   0  12    3.71   15.82
   3   0  12    9.70    5.34
  -3   0 -12    5.93   12.60
  -3   0 -12   11.94   17.61
   3   0  13  149.39   39.81
   3   0  13  112.35   40.22
  -3   0 -13  107.24   45.26
  -3   0 -13  127.31   39.64
   3   0  14  120.17   39.63
   3   0  14  115.33   46.51
  -3   0 -14  135.13   45.34
  -3   0 -14  159.06   42.73
   3   0  15    6.68   14.22
  -3   0 -15    7.38   16.56
   3   1   0  142.21   36.28
   3   1   0  132.97   38.14
   3   1   0  131.71   26.31
  -3  -1   0  125.82   35.75
  -3  -1   0  141.75   30.94
  -3  -1   0   86.44   26.07
   3   1   1  571.03  124.81
   3   1   1  723.88  129.40
   3   1   1  615.83  131.61
   3   1   1  748.58  124.57
  -3  -1  -1  498.25  124.73
  -3  -1  -1  613.99  132.41
  -3  -1  -1  416.17  124.31
   3   1   2  112.72   34.81
   3   1   2  156.70   39.70
   3   1   2  142.36   25.87
  -3  -1  -2  136.06   35.40
  -3  -1  -2   82.77   31.53
  -3  -1  -2   90.90   25.76
   3   1   3   29.90   14.41
   3   1   3   37.18   18.33
   3   1   3   31.64    9.73
   3   1   3   42.64    6.63
  -3  -1  -3   26.66   14.88
  -3  -1  -3   27.33   15.41
  -3  -1  -3   23.33    6.62
   3   1   4  682.46  141.75
   3   1   4  868.54  153.31
   3   1   4  701.03  154.31
   3   1   4  422.22  150.97
   3   1   4  823.70  143.95
  -3  -1  -4  692.45  143.59
  -3  -1  -4  660.10  144.78
  -3  -1  -4  808.09  154.12
  -3  -1  -4  586.26  143.81
   3   1   5  475.85  101.48
   3   1   5  474.03  114.57
   3   1   5  483.85  105.15
   3   1   5  560.50   98.57
  -3  -1  -5  498.75  103.82
  -3  -1  -5  453.62  105.11
  -3  -1  -5  536.32  107.90
  -3  -1  -5  308.23   98.33
   3   1   6  935.72  210.75
   3   1   6 1467.98  228.73
   3   1   6 1088.62  230.88
   3   1   6 1213.50  220.83
  -3  -1  -6  957.15  213.78
  -3  -1  -6 1188.63  215.71
  -3  -1  -6 1133.62  233.46
  -3  -1  -6  779.74  220.60
   3   1   7   23.97    3.21
   3   1   7   21.17   11.74
   3   1   7   10.03   20.28
   3   1   7   24.48   10.14
  -3  -1  -7   21.31   14.13
  -3  -1  -7   20.74   13.22
  -3  -1  -7    8.00    6.17
   3   1   8  414.64   82.94
   3   1   8  277.32  101.24
   3   1   8  511.20   86.79
   3   1   8  298.82   83.40
   3   1   8  456.56   76.48
  -3  -1  -8  326.38   87.85
  -3  -1  -8  387.27   85.88
  -3  -1  -8  220.52   76.19
   3   1   9  317.34   79.22
   3   1   9  276.35   81.32
   3   1   9  253.34   78.93
   3   1   9  389.50   72.02
  -3  -1  -9  420.81   85.19
  -3  -1  -9  270.70   81.07
   3   1  10  297.96   78.39
   3   1  10  279.66   80.39
   3   1  10  361.43   70.75
  -3  -1 -10  381.81   84.58
   3   1  11   23.17   13.27
   3   1  11   13.81   18.70
   3   1  11   22.13    6.33
  -3  -1 -11   17.98   16.59
   3   1  12   44.93   20.86
   3   1  12   38.17   23.60
   3   1  12   53.03   11.22
  -3  -1 -12   46.97   25.05
  -3  -1 -12   48.18   25.79
   3   1  13   63.93   24.60
   3   1  13   53.94   26.60
   3   1  13   63.74   14.05
  -3  -1 -13   55.29   29.11
  -3  -1 -13   67.17   29.26
   3   1  14  129.20   35.02
   3   1  14  123.34   42.14
  -3  -1 -14  103.91   40.17
  -3  -1 -14    4.20   32.10
   3   1  15   14.47   15.71
   3   1  15    6.39   23.53
  -3  -1 -15   18.62   18.32
  -3  -1 -15    0.96   21.30
   3   2   0   21.11   11.27
   3   2   0   14.43   11.91
  -3  -2   0   17.08   10.90
   3   2   1 3136.30  553.97
   3   2   1 3248.49  558.46
  -3  -2  -1 2687.17  553.73
  -3  -2  -1 2531.38  607.14
   3   2   2  298.85   69.42
   3   2   2  286.48   74.90
   3   2   2  373.33   63.12
  -3  -2  -2  324.85   69.98
  -3  -2  -2  194.73   62.86
   3   2   3   12.73    9.07
   3   2   3   14.67   12.37
   3   2   3    9.01    7.19
   3   2   3   13.68    5.80
   3   2   3   15.00    3.07
  -3  -2  -3   13.99    9.75
  -3  -2  -3   16.68    9.90
  -3  -2  -3    9.78    7.74
  -3  -2  -3    8.22    3.93
   3   2   4  296.20   65.87
   3   2   4  296.00   75.64
   3   2   4  222.41   66.57
   3   2   4  269.74   64.33
   3   2   4  377.38   59.46
  -3  -2  -4  205.86   67.70
  -3  -2  -4  282.38   68.32
  -3  -2  -4  254.57   66.91
  -3  -2  -4  267.29   59.27
   3   2   5  167.94   44.09
   3   2   5  189.97   54.70
   3   2   5  215.43   40.74
   3   2   5  199.47   35.52
  -3  -2  -5  157.03   46.91
  -3  -2  -5  110.89   35.30
   3   2   6  232.27   56.01
   3   2   6  177.78   41.46
   3   2   6  196.00   39.69
   3   2   6  180.55   34.01
  -3  -2  -6  164.41   45.43
  -3  -2  -6  159.10   46.31
  -3  -2  -6  140.31   41.54
  -3  -2  -6   95.48   33.78
   3   2   7   17.87   10.94
   3   2   7   10.57   17.83
   3   2   7   27.17   11.52
   3   2   7   21.33   10.88
   3   2   7   16.09    4.34
  -3  -2  -7   17.75   12.52
  -3  -2  -7   14.36   12.06
  -3  -2  -7    8.88    4.97
   3   2   8  141.86   41.15
   3   2   8  143.96   56.79
   3   2   8  159.39   37.82
   3   2   8  195.88   31.50
  -3  -2  -8  158.31   45.65
  -3  -2  -8  166.18   39.65
  -3  -2  -8   81.40   31.18
   3   2   9   31.92   16.40
   3   2   9   36.49   16.97
   3   2   9   21.80   16.54
   3   2   9   40.38    7.91
  -3  -2  -9   33.00   19.37
   3   2  10   68.22   25.99
   3   2  10   72.40   24.12
   3   2  10   77.05   15.87
  -3  -2 -10   68.07   30.10
  -3  -2 -10   89.76   25.93
   3   2  11   17.34   12.23
   3   2  11   20.44   17.66
   3   2  11   19.27    5.86
  -3  -2 -11   16.63   15.60
  -3  -2 -11   17.51   17.20
   3   2  12  168.97   48.82
   3   2  12  213.84   50.64
   3   2  12  182.38   38.00
  -3  -2 -12  175.48   54.59
  -3  -2 -12  183.14   50.46
   3   2  13  235.90   59.80
   3   2  13  260.89   63.49
   3   2  13  219.98   49.00
  -3  -2 -13  242.79   66.32
  -3  -2 -13  220.52   59.10
   3   2  14  110.64   31.73
   3   2  14   97.54   35.20
  -3  -2 -14   94.82   36.89
  -3  -2 -14    5.30   27.85
   3   2  15    7.14   16.05
   3   2  15   -1.39   23.90
  -3  -2 -15    7.84   17.52
   3   3   0  605.26  120.98
   3   3   0  501.93  121.70
  -3  -3   0  574.68  118.84
   3   3   1  179.18   50.27
   3   3   1  231.29   53.47
   3   3   1  218.47   41.22
  -3  -3  -1  211.22   50.02
  -3  -3  -1  149.92   41.11
   3   3   2   14.87    9.48
   3   3   2   12.83   11.69
   3   3   2   15.36    2.87
  -3  -3  -2   15.44    9.79
  -3  -3  -2   12.29    3.70
  -3  -3  -2   11.58    3.53
   3   3   3    8.74    8.06
   3   3   3    9.71   10.99
   3   3   3   12.27    2.43
  -3  -3  -3   11.50    8.57
  -3  -3  -3    7.68    3.14
   3   3   4  517.98  123.18
   3   3   4  635.23  134.42
   3   3   4  650.39  123.27
  -3  -3  -4  718.50  125.47
  -3  -3  -4  564.35  125.62
  -3  -3  -4  469.15  123.13
   3   3   5  478.05  107.66
   3   3   5  580.25  121.42
   3   3   5  603.41  114.08
   3   3   5  582.02  112.48
   3   3   5  495.89  105.66
  -3  -3  -5  505.65  110.40
  -3  -3  -5  514.11  110.96
  -3  -3  -5  546.85  114.58
  -3  -3  -5  425.59  105.64
   3   3   6   15.01   10.36
   3   3   6   25.16   17.01
   3   3   6   12.27    9.31
   3   3   6   18.88    9.87
   3   3   6   14.76    3.93
  -3  -3  -6   16.82   11.55
  -3  -3  -6   15.33   11.87
  -3  -3  -6   33.27   12.88
  -3  -3  -6   10.18    5.20
   3   3   7  283.20   61.34
   3   3   7  169.37   76.87
   3   3   7  241.40   60.92
   3   3   7  244.41   60.05
   3   3   7  263.17   53.41
  -3  -3  -7  258.44   65.44
  -3  -3  -7  357.11   62.16
  -3  -3  -7  215.71   53.43
  -3  -3  -8  864.57  364.43
   3   3   8 1710.36  303.85
   3   3   8 1144.62  325.98
   3   3   8 1229.59  338.92
   3   3   8 1680.07  338.45
   3   3   8 1673.36  324.58
  -3  -3  -8 2025.18  309.97
  -3  -3  -8 1934.91  340.32
   3   3   9   81.52   26.52
   3   3   9   82.18   25.37
   3   3   9   53.62   24.85
   3   3   9   82.08   16.38
  -3  -3  -9   66.61   30.12
  -3  -3  -9   89.08   27.52
   3   3  10  156.90   45.59
   3   3  10  157.50   45.52
   3   3  10  170.60   35.47
  -3  -3 -10  177.58   50.75
  -3  -3 -10  194.04   45.31
   3   3  11   19.85   13.24
   3   3  11   22.23   18.47
   3   3  11   20.74    6.32
  -3  -3 -11   28.97   16.70
  -3  -3 -11   14.56   20.86
   3   3  12   52.66   21.45
   3   3  12   55.16   25.49
   3   3  12   50.21   11.61
  -3  -3 -12   47.70   25.63
  -3  -3 -12   48.14   22.51
   3   3  13  445.16   98.43
   3   3  13  403.84  102.84
   3   3  13  439.36   91.45
  -3  -3 -13  427.42  105.33
   3   3  14  105.91   33.43
   3   3  14  121.63   36.28
  -3  -3 -14   79.84   38.55
   3   3  15   35.88   20.72
   3   3  15   32.44   30.56
  -3  -3 -15   28.49   25.18
   3   4   0  125.79   36.14
   3   4   0  113.78   35.92
  -3  -4   0  110.86   33.63
   3   4   1  263.61   62.33
   3   4   1  318.54   65.28
   3   4   1  272.39   53.51
  -3  -4  -1  217.83   61.28
  -3  -4  -1  271.04   53.37
  -3  -4  -1  219.51   53.43
   3   4   2   67.64   24.86
   3   4   2   94.47   28.79
   3   4   2   71.59   15.12
  -3  -4  -2   72.31   25.00
  -3  -4  -2   78.95   15.18
  -3  -4  -2   66.66   15.16
   3   4   3  787.34  176.02
   3   4   3 1023.24  185.21
   3   4   3  951.17  182.15
  -3  -4  -3  947.56  177.42
  -3  -4  -3  881.80  181.98
  -3  -4  -3  693.26  182.00
   3   4   4  177.39   44.05
   3   4   4  266.69   53.62
   3   4   4  176.36   35.52
  -3  -4  -4  170.16   45.89
  -3  -4  -4  161.74   45.60
  -3  -4  -4  171.37   35.50
  -3  -4  -4  114.66   35.37
   3   4   5  986.64  231.81
   3   4   5 1462.20  247.72
   3   4   5 1216.05  245.20
  -3  -4  -5 1511.91  235.38
  -3  -4  -5  931.47  234.81
  -3  -4  -5 1140.11  245.16
   3   4   6   18.99   10.88
   3   4   6   22.63   17.42
   3   4   6   17.66   10.20
   3   4   6   17.31    9.09
   3   4   6   18.28    4.13
  -3  -4  -6   16.12   12.33
  -3  -4  -6   11.37    4.94
   3   4   7   67.70   12.14
   3   4   7   61.61   21.54
   3   4   7   44.92   32.70
   3   4   7   54.76   19.40
   3   4   7   66.53   19.83
  -3  -4  -7   64.21   24.33
  -3  -4  -7   38.42   12.51
  -3  -4  -8   80.59   29.19
   3   4   8  149.15   37.74
   3   4   8  140.36   55.06
   3   4   8  164.87   37.01
   3   4   8  145.89   27.93
  -3  -4  -8  133.52   41.44
   3   4   9  264.61   66.38
   3   4   9  301.49   67.27
   3   4   9  174.15   66.08
   3   4   9  297.94   58.25
  -3  -4  -9  307.00   71.53
   3   4  10  198.56   48.88
   3   4  10  182.65   48.51
   3   4  10  192.90   38.83
  -3  -4 -10  146.08   53.49
   3   4  11   49.07   22.19
   3   4  11   63.94   25.38
   3   4  11   59.41   12.51
  -3  -4 -11   56.70   26.29
   3   4  12   34.21   18.19
   3   4  12   29.27   25.67
   3   4  12   41.57    9.37
  -3  -4 -12   44.46   22.37
   3   4  13  105.32   31.15
   3   4  13   84.55   32.15
   3   4  13   91.67   19.69
  -3  -4 -13   77.58   36.26
  -3  -4 -13   78.77   21.04
   3   4  14   61.14   24.05
   3   4  14   66.27   28.10
  -3  -4 -14   50.79   29.37
   3   4  15  194.31   53.88
   3   4  15  183.65   56.68
  -3  -4 -15  216.89   60.56
   3   5   0 2062.82  336.27
   3   5   0 1548.28  334.20
  -3  -5   0 1577.33  330.48
   3   5   1    6.25    7.33
   3   5   1    5.57    8.43
   3   5   1    6.53    1.80
  -3  -5  -1    7.85    7.11
  -3  -5  -1    2.59    3.21
  -3  -5  -1    2.84    2.18
   3   5   2  190.20   50.52
   3   5   2  238.60   55.27
   3   5   2  202.59   40.92
  -3  -5  -2  183.55   50.14
  -3  -5  -2  218.24   41.09
  -3  -5  -2  170.53   40.89
   3   5   3  931.57  208.04
   3   5   3 1216.43  217.69
   3   5   3 1050.70  217.55
  -3  -5  -3 1076.82  217.44
  -3  -5  -3 1034.39  217.51
   3   5   4  496.92  103.98
   3   5   4  356.10  115.38
   3   5   4  451.00  101.22
  -3  -5  -4  434.00  106.11
  -3  -5  -4  488.42  101.20
  -3  -5  -4  616.82  101.37
   3   5   5    5.02    5.67
   3   5   5    3.48   10.34
   3   5   5    3.42    2.47
  -3  -5  -5    4.11    6.70
  -3  -5  -5    3.37    5.93
  -3  -5  -5    3.08    4.74
  -3  -5  -5    5.74    3.28
   3   5   6   59.20   21.44
   3   5   6   79.69   32.36
   3   5   6   71.63   17.25
   3   5   6   45.32   17.38
   3   5   6   62.18   12.58
  -3  -5  -6   48.53   23.34
  -3  -5  -6   58.44   12.90
  -3  -5  -6   54.72   12.55
   3   5   7  232.37   60.90
   3   5   7  327.47   79.63
   3   5   7  267.98   59.72
   3   5   7  246.14   60.70
   3   5   7  243.03   53.27
  -3  -5  -7  227.46   64.39
  -3  -5  -7  267.83   53.46
  -3  -5  -7  286.93   53.43
   3   5   8  114.25   33.94
   3   5   8  116.42   50.15
   3   5   8  115.41   30.79
   3   5   8  105.51   31.80
   3   5   8  129.62   24.26
  -3  -5  -8  128.68   37.58
  -3  -5  -8  125.85   24.66
  -3  -5  -8   81.56   24.21
  -3  -5  -9  124.94   27.91
   3   5   9  130.46   37.08
   3   5   9   67.67   33.75
   3   5   9   58.18   34.74
   3   5   9  150.45   27.02
  -3  -5  -9  152.45   41.22
  -3  -5 -10    1.18    4.07
   3   5  10    1.74   12.77
   3   5  10    4.22   15.00
  -3  -5 -10    1.40   14.94
   3   5  11   77.16   27.28
   3   5  11   46.74   25.90
   3   5  11   88.03   16.87
  -3  -5 -11   76.15   31.33
  -3  -5 -11   76.71   18.12
   3   5  12  574.54  128.84
   3   5  12  453.36  136.01
   3   5  12  639.72  126.07
  -3  -5 -12  737.76  136.17
  -3  -5 -12  508.04  126.11
   3   5  13  169.39   46.98
   3   5  13  104.75   47.48
   3   5  13  190.54   35.81
  -3  -5 -13  179.19   52.64
  -3  -5 -13  147.36   36.56
   3   5  14    2.83    8.00
   3   5  14    4.58   20.11
  -3  -5 -14    4.51   16.50
   3   5  15    1.36   19.03
   3   5  15   61.60   29.54
  -3  -5 -15   90.53   26.85
   3   6   0   28.26   15.92
   3   6   0   15.37   13.38
  -3  -6   0   17.37   11.74
   3   6   1  382.88   71.30
   3   6   1  405.21   71.84
  -3  -6  -1  238.80   66.89
  -3  -6  -1  117.17   58.55
   3   6   2   51.97   19.88
   3   6   2   51.69   22.58
   3   6   2   35.70    8.76
  -3  -6  -2   42.40   18.51
  -3  -6  -2   39.32   10.05
  -3  -6  -2   41.90    9.08
   3   6   3  891.12  186.14
   3   6   3  825.15  191.82
  -3  -6  -3  899.84  186.84
  -3  -6  -3  848.07  191.75
  -3  -6  -3 1113.25  191.95
   3   6   4  289.69   73.69
   3   6   4  310.26   85.37
   3   6   4  303.71   67.12
  -3  -6  -4  296.41   75.82
  -3  -6  -4  342.04   67.20
  -3  -6  -4  395.14   67.30
   3   6   5   31.17   21.66
   3   6   5   28.29    6.31
  -3  -6  -5   29.85   15.77
  -3  -6  -5   20.94    7.29
  -3  -6  -5   30.88    6.78
   3   6   6  199.99   51.32
   3   6   6  222.31   67.42
   3   6   6  208.21   43.13
  -3  -6  -6  178.58   53.52
  -3  -6  -6  208.50   43.25
  -3  -6  -6  229.55   43.20
   3   6   7  384.74   80.06
   3   6   7  325.39   99.67
   3   6   7  336.05   80.29
   3   6   7  303.19   81.92
   3   6   7  362.96   74.29
  -3  -6  -7  337.88   83.31
  -3  -6  -7  320.60   74.30
  -3  -6  -7  379.79   74.38
   3   6   8  147.94   37.64
   3   6   8  110.69   55.02
   3   6   8  119.06   34.04
   3   6   8  149.70   28.05
  -3  -6  -8  139.87   40.96
  -3  -6  -8  153.53   28.66
  -3  -6  -8   88.30   27.91
   3   6   9  183.08   43.67
   3   6   9   98.19   42.72
   3   6   9  153.35   33.83
  -3  -6  -9  171.23   47.51
  -3  -6  -9  154.04   34.32
   3   6  10    0.78    2.79
  -3  -6 -10    2.03    5.39
   3   6  10    3.04    8.39
   3   6  10    4.85   12.93
  -3  -6 -10    1.51    9.93
   3   6  11  159.01   41.37
  -3  -6 -11  180.80   40.55
   3   6  11  186.16   48.78
   3   6  11  189.61   46.77
  -3  -6 -11  211.46   54.52
   3   6  12  103.10   30.29
   3   6  12   77.75   30.29
   3   6  12   84.41   18.90
  -3  -6 -12   85.42   35.83
  -3  -6 -12   75.46   20.29
   3   6  13  154.67   31.65
  -3  -6 -13  143.39   31.00
   3   6  13   94.17   40.78
   3   6  13  178.57   41.76
  -3  -6 -13  155.78   47.94
   3   6  14   -0.54    9.67
   3   6  14   19.52   22.81
  -3  -6 -14   20.27   16.82
   3   6  15    1.11   25.46
   3   6  15  118.13   32.38
  -3  -6 -15  146.71   34.54
   3   7   0  229.56   62.02
   3   7   0  230.81   56.81
  -3  -7   0  185.14   52.75
   3   7   1   46.36   19.72
   3   7   1   36.18   18.51
  -3  -7  -1   15.30   15.25
  -3  -7  -1   35.15    6.88
   3   7   2  900.54  160.37
   3   7   2  789.66  164.19
   3   7   2  707.59  157.40
  -3  -7  -2  768.38  156.16
  -3  -7  -2  475.64  157.15
  -3  -7  -2  835.97  157.47
   3   7   3  698.68  129.48
   3   7   3  609.26  138.29
   3   7   3  559.31  125.71
  -3  -7  -3  456.50  128.39
  -3  -7  -3  565.54  125.71
  -3  -7  -3  717.93  125.85
   3   7   4   75.46   25.69
   3   7   4   79.92   33.71
   3   7   4   68.61   15.33
  -3  -7  -4   59.46   26.57
  -3  -7  -4   77.44   17.11
  -3  -7  -4   78.46   15.68
   3   7   5   97.16   31.04
   3   7   5  124.27   43.74
   3   7   5   94.86   21.40
  -3  -7  -5  106.11   21.68
   3   7   6    1.90    5.21
   3   7   6    2.61    2.73
  -3  -7  -6    1.24    5.50
  -3  -7  -6    2.47    4.35
   3   7   7  386.62   92.47
   3   7   7  690.29  116.24
   3   7   7  338.00   93.84
   3   7   7  459.04   88.21
  -3  -7  -7  464.96   95.54
  -3  -7  -7  475.09   88.39
  -3  -7  -7  323.66   88.08
   3   7   8  525.54  112.79
   3   7   8  471.45  137.31
   3   7   8  418.31  117.37
   3   7   8  582.93  110.47
  -3  -7  -8  569.23  116.87
  -3  -7  -8  484.55  110.42
   3   7   9   35.24   17.07
   3   7   9   41.25   17.00
   3   7   9   19.83   18.69
   3   7   9   37.77    8.45
  -3  -7  -9   38.92   20.76
  -3  -7  -9   41.98   10.80
   3   7  10    0.25    6.21
   3   7  10    3.04   11.86
   3   7  10    0.61    3.82
  -3  -7 -10    0.81   11.23
  -3  -7 -10   -0.98    7.81
   3   7  11  412.90   85.32
   3   7  11  282.02   85.61
   3   7  11  365.14   77.86
  -3  -7 -11  384.02   90.80
  -3  -7 -11  363.57   78.24
   3   7  12   14.76   34.36
   3   7  12  110.76   31.73
   3   7  12  140.58   23.61
  -3  -7 -12  185.04   41.12
  -3  -7 -12  133.46   25.05
   3   7  13   -0.23    9.74
   3   7  13   11.56   18.84
   3   7  13    5.23    4.43
  -3  -7 -13   10.30   14.46
  -3  -7 -13    7.69    9.45
   3   7  14    0.76   15.88
   3   7  14   47.08   20.28
  -3  -7 -14   56.62   24.60
   3   7  15    0.34   11.97
  -3  -7 -15   33.84   19.28
   3   8   0    2.94   14.49
   3   8   0    2.89    7.79
  -3  -8   0    0.01    6.22
   3   8   1  473.37  126.93
   3   8   1  699.31  123.68
  -3  -8  -1  563.79  116.00
  -3  -8  -1  284.39  111.77
  -3  -8  -1  611.13  112.18
   3   8   2 1047.30  159.40
   3   8   2  722.56  161.29
  -3  -8  -2  562.47  151.63
  -3  -8  -2  366.21  151.04
  -3  -8  -2  915.52  151.63
   3   8   3  134.50   38.70
   3   8   3  113.53   44.11
   3   8   3  112.27   24.38
  -3  -8  -3   77.66   36.22
  -3  -8  -3  135.39   25.34
  -3  -8  -3  128.61   24.57
   3   8   4   46.61   20.49
   3   8   4   40.43    9.18
  -3  -8  -4   47.26   11.92
  -3  -8  -4   41.77    9.78
   3   8   5   11.05   10.26
   3   8   5    7.77   21.41
   3   8   5   10.50    3.98
  -3  -8  -5    9.23    8.54
  -3  -8  -5    8.85    4.57
   3   8   6   15.88   11.98
   3   8   6   19.39    5.74
  -3  -8  -6   20.41   12.29
  -3  -8  -6   18.66    5.94
   3   8   7   22.94   12.89
   3   8   7   21.95    5.45
  -3  -8  -7   19.40    7.81
   3   8   8  156.67   38.53
   3   8   8   81.45   33.67
   3   8   8   50.71   37.03
   3   8   8  163.23   28.88
  -3  -8  -8  146.23   41.21
  -3  -8  -8  127.62   29.31
   3   8   9   48.04   19.13
   3   8   9   30.31   16.47
   3   8   9   44.59   10.00
  -3  -8  -9   44.67   22.68
  -3  -8  -9   55.59   13.47
   3   8  10  379.49   76.88
   3   8  10  210.46   76.60
   3   8  10  315.08   69.27
  -3  -8 -10  331.20   81.41
  -3  -8 -10  388.33   70.06
   3   8  11   47.25   21.81
   3   8  11   49.98   10.95
  -3  -8 -11   52.81   25.03
  -3  -8 -11   45.58   13.38
   3   8  12   -0.26   29.18
   3   8  12  116.95   28.56
   3   8  12  103.72   18.40
  -3  -8 -12  127.09   35.46
  -3  -8 -12  126.81   20.71
   3   8  13    3.52   11.62
   3   8  13   10.49   17.96
  -3  -8 -13    6.28   16.32
   3   8  14    0.69   11.14
   3   8  14   -1.02   19.27
  -3  -8 -14    6.45   16.40
   3   9   0  118.48   37.96
  -3  -9   0   83.50   32.08
  -3  -9   0   55.27   21.40
  -3  -9   0  131.71   20.59
  -3  -9  -1    7.33    7.78
  -3  -9  -1   22.24    5.74
  -3  -9  -2  625.58  146.04
  -3  -9  -2  739.52  145.98
   3   9   3   84.62   15.03
  -3  -9  -3   33.20   15.71
  -3  -9  -3   74.47   15.55
   3   9   4   39.52    8.80
  -3  -9  -4   25.42   10.65
   3   9   5   12.62    3.52
  -3  -9  -5    8.05   11.92
   3   9   6  339.65   84.29
   3   9   6  378.82   77.00
  -3  -9  -6  390.23   77.92
   3   9   7  482.21  106.10
   3   9   7  501.41  102.16
  -3  -9  -7  465.88  102.58
   3   9   8    3.93    9.10
   3   9   8    3.03    3.21
  -3  -9  -8    7.40    8.73
   3   9   9  197.81   51.60
   3   9   9  205.47   42.25
  -3  -9  -9  190.86   54.44
  -3  -9  -9  212.00   43.42
   3   9  10  434.15   89.02
   3   9  10  307.69   89.42
   3   9  10  415.96   82.55
  -3  -9 -10  351.48   92.85
  -3  -9 -10  415.06   83.36
   3   9  11  111.39   17.48
  -3  -9 -11  132.12   18.85
   3   9  11    1.62   26.62
   3   9  11   89.57   25.98
  -3  -9 -11   90.88   32.50
   3   9  12    0.29   21.73
   3   9  12   75.17   11.32
  -3  -9 -12   58.53   28.14
  -3  -9 -12   69.72   15.92
   3   9  13    0.76   13.52
   3   9  13   15.32   16.57
  -3  -9 -13   20.47   17.44
  -3 -10  -1   34.24   13.29
  -3 -10  -2    2.11    8.93
  -3 -10  -3  115.80   27.49
   3  10   4   51.46   10.87
  -3 -10  -4   44.05   13.71
   3  10   5   18.51    6.62
  -3 -10  -5   10.49   10.03
   3  10   6   17.99    4.71
  -3 -10  -6   15.40   11.90
   3  10   7  297.97   66.73
  -3 -10  -7  363.43   67.48
   3  10   8  211.28   41.67
  -3 -10  -8  165.45   42.26
   3  10   9  265.19   62.35
   3  10   9  269.38   53.36
  -3 -10  -9  189.89   53.70
   3  10  10   19.64   13.30
   3  10  10    8.03   14.45
   3  10  10   20.05    5.27
  -3 -10 -10   20.08   11.07
   3  10  11   -0.94   19.07
   3  10  11   42.31   19.01
   3  10  11   72.84   10.48
  -3 -10 -11   50.08   23.23
  -3 -10 -11   52.80   14.51
   3  10  12    0.44   10.84
   3  10  12    6.00   16.71
  -3 -10 -12    1.25   14.54
  -3 -11  -1   26.19   10.42
  -3 -11  -3   27.36   13.01
  -3 -11  -4    2.10    6.50
   3  11   5   12.22    5.22
  -3 -11  -5    3.02   12.95
   3  11   6  217.91   45.95
   3  11   7    4.12    3.10
  -3 -11  -7   -1.69   10.30
   3  11   8  121.25   18.97
  -3 -11  -8    3.08   20.31
   3  11   9   46.61    8.37
  -3 -11  -9    1.30   11.00
  -3 -12  -4   -0.73   10.21
  -3 -12  -5    4.11   11.75
   3  12   6   31.20    6.41
  -3 -12  -6    0.52    9.70
  -4  12   0    7.96   19.36
  -4  12  -1  322.63   79.00
   4 -11   0   41.28   26.94
  -4  11   0   89.00   26.44
  -4  11  -1  121.64   36.27
  -4  11  -2   -3.13   17.97
  -4  11  -3   17.58   17.86
   4 -10   0   92.78   32.76
  -4  10   0   90.76   28.54
   4 -10   1  171.34   51.84
  -4  10  -1  239.34   49.89
   4 -10   2   63.10   25.76
  -4  10  -2   61.58   25.46
   4 -10   3   64.95   25.93
  -4  10  -3   56.05   24.58
  -4  10  -4   44.22   25.03
  -4  10  -5   39.71   30.43
   4  -9   0   55.65   16.23
   4  -9   0   80.75   28.26
  -4   9   0  105.51   24.80
   4  -9   1   11.95   12.52
   4  -9   1    7.94    6.07
  -4   9  -1   17.42   16.29
   4  -9   2   48.17   12.46
  -4   9  -2   62.97   25.82
   4  -9   3   19.55   14.30
  -4   9  -3   14.67   16.34
   4  -9   4   96.81   30.86
  -4   9  -4   71.03   29.97
   4  -9   5   85.28   29.70
  -4   9  -6    5.08   27.37
   4  -8   0  383.53   83.57
   4  -8   0  277.18   75.65
  -4   8   0  447.90   83.92
   4  -8   1   98.28   32.91
   4  -8   1   87.99   22.07
  -4   8  -1  141.53   31.11
   4  -8   2    9.75   10.57
   4  -8   2   10.29    5.67
  -4   8  -2   18.03   16.16
   4  -8   3  703.61  151.78
   4  -8   3  656.99  137.15
  -4   8  -3  498.75  146.22
   4  -8   4   43.19   18.41
   4  -8   4   29.40   10.41
  -4   8  -4   42.00   20.03
  -4   8  -5   32.64   24.50
   4  -8   6    3.20    7.28
  -4   8  -6    2.01   10.81
  -4   8  -6    0.31   19.25
   4  -8   7   56.99   18.57
  -4   8  -7   -1.94   21.26
  -4   8  -7   71.20   31.44
  -4   8  -8   13.86   33.11
   4  -7   0  317.46   81.57
   4  -7   0  290.46   74.39
  -4   7   0  551.31   82.81
   4  -7   1  123.76   37.16
   4  -7   1  100.50   26.75
  -4   7  -1  181.81   35.97
   4  -7   2   15.87   11.33
   4  -7   2   16.28    5.94
  -4   7  -2   19.82   16.20
   4  -7   3  133.26   36.70
   4  -7   3  107.16   26.84
  -4   7  -3  140.18   36.13
   4  -7   4  226.03   46.01
  -4   7  -4  193.16   54.88
   4  -7   5   12.29    3.48
   4  -7   5   16.35   11.12
  -4   7  -5   12.03   13.59
  -4   7  -5   13.69   17.74
   4  -7   6   17.38    6.06
  -4   7  -6    0.65   12.45
  -4   7  -6   12.71   19.48
   4  -7   7   22.09   11.88
  -4   7  -7    2.90   15.61
  -4   7  -7   28.26   25.46
   4  -7   8   63.96   21.23
   4  -7   8  111.74   27.25
  -4   7  -8    1.13   26.01
  -4   7  -8   67.68   26.73
   4  -7   9  220.22   50.80
  -4   7  -9   84.80   50.06
   4  -6   0   25.83   14.00
   4  -6   0   17.49    6.63
  -4   6   0   35.45   13.66
   4  -6   1   60.22   26.50
   4  -6   1   74.02   16.86
  -4   6  -1  132.98   24.67
   4  -6   2  237.44   50.52
   4  -6   2  115.22   40.71
  -4   6  -2  239.65   49.69
   4  -6   3  317.06   77.27
   4  -6   3  342.46   70.64
  -4   6  -3  384.46   79.96
   4  -6   4  148.57   37.19
   4  -6   4   93.14   27.22
  -4   6  -4  144.74   37.68
   4  -6   5   30.98   15.77
   4  -6   5   27.37    8.35
  -4   6  -5   38.96   18.57
   4  -6   6   51.65   21.56
   4  -6   6   55.97   12.73
  -4   6  -6   58.55   24.21
   4  -6   7   33.02   17.79
   4  -6   7   47.52    9.93
  -4   6  -7   42.60   20.47
  -4   6  -7   21.36   26.75
   4  -6   8   89.38   31.48
   4  -6   8  132.28   34.72
  -4   6  -8   98.74   35.93
  -4   6  -8   97.97   34.26
   4  -6   9  121.11   31.71
   4  -6   9  270.99   39.93
  -4   6  -9    3.25   36.05
  -4   6  -9  117.81   38.14
   4  -6  10    8.17   22.41
   4  -5   0  239.67   59.11
   4  -5   0  194.44   50.14
  -4   5   0  317.94   57.38
   4  -5   1    1.12    3.81
   4  -5   1   -0.19    3.83
  -4   5  -1   -0.47   10.17
   4  -5   2  438.35   96.93
   4  -5   2  379.68   92.28
  -4   5  -2  585.90  101.25
   4  -5   3   27.79    5.38
  -4   5  -3   19.90   13.47
   4  -5   4   93.95   29.96
   4  -5   4   73.57   20.31
  -4   5  -4  119.34   32.10
  -4   5  -4   84.77   28.98
   4  -5   5    0.26    3.57
   4  -5   5    1.72    4.78
  -4   5  -5    0.00    6.27
  -4   5  -5    0.77   14.90
   4  -5   6   18.89    3.73
   4  -5   6   15.90   11.24
  -4   5  -6   17.01   13.20
  -4   5  -6   12.40   18.78
   4  -5   7   80.20   29.53
   4  -5   7  109.42   19.70
  -4   5  -7   86.13   32.26
  -4   5  -7   71.64   31.36
   4  -5   8   43.07   19.18
   4  -5   8   32.95   24.45
   4  -5   8   43.11   10.51
  -4   5  -8   43.49   21.81
  -4   5  -8   49.05   27.88
   4  -5   9   50.15   22.22
   4  -5   9   79.10   25.87
  -4   5  -9   59.57   25.20
  -4   5  -9   31.38   26.38
   4  -5  10  281.17   68.00
   4  -5  10  347.15   73.97
  -4   5 -10  290.51   72.84
  -4   5 -10  163.11   71.89
   4  -4   0   32.70   14.51
   4  -4   0   26.93   17.89
   4  -4   0   30.64    6.72
   4  -4   0   26.51    6.79
  -4   4   0   24.76   14.58
  -4   4   0   35.60   12.95
  -4   4   0   17.62    6.78
   4  -4   1    0.73    3.97
   4  -4   1    3.21    7.05
   4  -4   1    0.60    3.51
   4  -4   1    0.62    2.65
  -4   4  -1    0.24    7.79
  -4   4  -1   -0.54    4.00
   4  -4   2  319.61   66.92
   4  -4   2  248.02   64.88
   4  -4   2  286.22   59.26
   4  -4   2  229.05   59.21
  -4   4  -2  395.52   67.49
  -4   4  -2  276.71   59.67
   4  -4   3  330.60   80.56
  -4   4  -3  527.36   89.94
   4  -4   4   34.52    7.16
   4  -4   4   35.54   16.55
  -4   4  -4   40.33   18.29
  -4   4  -4   36.99   15.76
   4  -4   5   19.43   12.60
   4  -4   5   22.24    6.41
  -4   4  -5   22.70   14.38
  -4   4  -5   31.43   17.91
   4  -4   6  197.35   38.80
   4  -4   6  153.44   45.67
  -4   4  -6  150.23   48.53
  -4   4  -6  225.60   47.40
   4  -4   7  364.07   86.10
   4  -4   7  516.11   93.20
   4  -4   7  432.45   79.98
  -4   4  -7  330.44   89.68
  -4   4  -7  323.48   90.64
   4  -4   8  308.58   65.99
   4  -4   8  295.82   68.66
   4  -4   8  236.47   72.48
  -4   4  -8  251.59   72.42
  -4   4  -8  303.37   73.11
   4  -4   9    1.63    7.23
   4  -4   9    9.85   15.93
   4  -4   9    4.22    5.14
  -4   4  -9    5.46   10.39
  -4   4  -9    5.80   19.60
   4  -4  10  334.36   80.59
   4  -4  10  405.95   87.09
  -4   4 -10  342.45   85.58
   4  -4  11    0.70    3.52
  -4   4 -11   -1.46    6.95
  -4   4 -11  -12.19   28.91
   4  -3   0    8.18    7.35
   4  -3   0    8.51    9.94
   4  -3   0   10.43    9.16
   4  -3   0    4.24    3.28
   4  -3   0    6.24    4.36
  -4   3   0    4.60    7.47
  -4   3   0   12.52    7.59
  -4   3   0    4.69    3.75
   4  -3   1  304.15   70.33
   4  -3   1  363.51   77.48
   4  -3   1  239.72   68.60
   4  -3   1  306.36   63.00
   4  -3   1  304.99   63.01
  -4   3  -1  264.80   70.64
  -4   3  -1  491.86   70.93
  -4   3  -1  213.76   62.80
   4  -3   2  141.80   33.71
   4  -3   2  118.43   40.51
   4  -3   2  126.42   30.10
   4  -3   2  100.23   23.81
   4  -3   2  103.21   23.88
  -4   3  -2   99.27   34.41
  -4   3  -2  147.42   30.69
  -4   3  -2   85.03   23.90
   4  -3   3  257.30   52.32
   4  -3   3  198.12   49.28
   4  -3   3  195.32   43.46
  -4   3  -3  145.98   50.67
  -4   3  -3  172.02   43.73
   4  -3   4  129.94   38.03
   4  -3   4  105.45   33.78
   4  -3   4  163.82   28.79
  -4   3  -4  142.99   39.90
  -4   3  -4  112.30   36.36
   4  -3   5    1.95    4.73
   4  -3   5    1.52    4.72
  -4   3  -5    3.96    6.57
  -4   3  -5    4.01   12.06
   4  -3   6  130.69   40.28
   4  -3   6  164.49   30.75
  -4   3  -6  131.52   42.86
  -4   3  -6  180.46   40.58
   4  -3   7  192.56   40.04
   4  -3   7  148.88   46.71
   4  -3   7  203.06   48.66
  -4   3  -7  191.24   50.10
  -4   3  -7  173.78   49.55
   4  -3   8   62.81   24.56
   4  -3   8   76.41   15.02
  -4   3  -8   64.18   27.32
  -4   3  -8   63.09   27.45
   4  -3   9    0.93    4.47
   4  -3   9    4.90   15.69
   4  -3   9   -1.07    4.34
  -4   3  -9    0.11    7.07
  -4   3  -9    6.56   23.29
   4  -3  10    2.53    6.96
   4  -3  10    6.47   25.19
  -4   3 -10    6.04    9.67
  -4   3 -10    9.55   20.72
   4  -3  11  301.74   70.66
   4  -3  11  368.88   77.46
  -4   3 -11  352.09   75.92
  -4   3 -11   -3.76   71.56
   4  -3  12   36.93   18.38
   4  -3  12   43.62   25.56
  -4   3 -12   44.82   21.88
  -4   3 -12    4.43   22.83
   4  -2   0    1.94    4.56
   4  -2   0    2.29    7.76
   4  -2   0    2.53    7.99
   4  -2   0    3.15    3.88
   4  -2   0    0.66    3.74
  -4   2   0    1.86    4.89
  -4   2   0    1.86    9.29
  -4   2   0    1.22    3.16
   4  -2   1  128.65   33.23
   4  -2   1  123.99   38.23
   4  -2   1   86.61   28.23
   4  -2   1  130.45   23.44
   4  -2   1  106.38   23.32
  -4   2  -1   87.97   33.31
  -4   2  -1  171.79   30.13
  -4   2  -1   73.75   23.37
   4  -2   2  487.05  113.86
   4  -2   2  570.53  122.78
   4  -2   2  461.91  118.75
   4  -2   2  647.90  111.89
  -4   2  -2  576.42  115.06
  -4   2  -2  674.72  120.78
  -4   2  -2  346.18  111.52
   4  -2   3    6.51    7.32
   4  -2   3    6.86   11.14
   4  -2   3    6.93   10.10
   4  -2   3    8.65    4.11
  -4   2  -3    5.39    7.69
  -4   2  -3    7.94    9.92
  -4   2  -3    3.32    5.29
   4  -2   4  211.87   55.57
   4  -2   4  202.26   52.93
   4  -2   4  290.59   47.62
  -4   2  -4  243.26   57.66
  -4   2  -4  156.60   47.68
   4  -2   5  123.52   36.25
   4  -2   5  106.74   31.98
   4  -2   5  159.43   27.00
  -4   2  -5  109.67   38.32
   4  -2   6  411.32   94.15
   4  -2   6  486.57   89.54
  -4   2  -6  380.12   97.27
   4  -2   7   66.82   12.15
   4  -2   7   52.37   21.91
   4  -2   7   45.46   22.98
  -4   2  -7   56.58   24.28
  -4   2  -7   56.97   22.57
   4  -2   8   84.62   18.67
   4  -2   8   79.37   28.53
   4  -2   8  161.10   34.58
  -4   2  -8   81.78   31.47
  -4   2  -8   76.90   31.35
   4  -2   9  678.92  147.67
   4  -2   9  616.66  133.77
   4  -2   9  607.97  146.53
  -4   2  -9  588.49  138.39
  -4   2  -9  652.07  145.18
   4  -2  10    6.38    2.80
   4  -2  10    5.67    7.43
   4  -2  10    7.05   24.06
  -4   2 -10    3.98    9.95
  -4   2 -10    6.52   19.96
   4  -2  11  105.12   31.80
   4  -2  11  142.17   39.32
  -4   2 -11  102.28   35.66
  -4   2 -11   -2.55   35.08
   4  -2  12   91.11   36.81
  -4   2 -12  110.91   34.38
  -4   2 -12   -0.87   34.09
   4  -2  13   -0.45    5.26
  -4   2 -13    1.88   11.52
   4  -1   0   60.73   23.25
   4  -1   0   67.87   26.54
   4  -1   0   76.54   13.67
   4  -1   0   70.66   13.61
  -4   1   0   55.27   23.03
  -4   1   0   84.19   19.81
  -4   1   0   35.15   13.07
   4  -1   1  128.22   37.68
   4  -1   1  119.96   42.47
   4  -1   1  121.03   33.09
   4  -1   1  183.89   28.18
   4  -1   1  133.57   28.02
  -4   1  -1  124.88   37.94
  -4   1  -1  171.83   34.89
  -4   1  -1   89.85   27.89
   4  -1   2  170.38   44.85
   4  -1   2  167.74   51.43
   4  -1   2  103.45   40.40
   4  -1   2  228.86   35.92
  -4   1  -2  154.78   45.62
  -4   1  -2  183.34   42.80
   4  -1   3  230.05   50.05
   4  -1   3  164.35   57.99
   4  -1   3  267.40   41.56
  -4   1  -3  183.06   51.20
  -4   1  -3  189.56   49.31
  -4   1  -3   88.71   41.03
   4  -1   4   11.15    8.41
   4  -1   4    9.89   13.06
   4  -1   4   11.06    9.32
   4  -1   4   13.36    4.01
  -4   1  -4    8.89    9.35
  -4   1  -4    9.20    9.06
  -4   1  -4    8.89   13.38
  -4   1  -4    4.88    5.75
   4  -1   5  400.12   93.01
   4  -1   5  405.26   95.16
   4  -1   5  616.94   88.88
  -4   1  -5  364.52   95.56
  -4   1  -5  373.45   98.77
  -4   1  -5  295.61   88.74
   4  -1   6  462.66   96.45
   4  -1   6  453.32  103.59
   4  -1   6  231.35   98.40
   4  -1   6  575.44   92.24
  -4   1  -6  390.27   99.44
  -4   1  -6  460.34  102.77
   4  -1   7   66.72   25.09
   4  -1   7  117.32   26.75
   4  -1   7   71.94   15.49
  -4   1  -7   63.97   27.51
  -4   1  -7   86.21   30.47
   4  -1   8    6.58    7.95
   4  -1   8    8.31    4.08
  -4   1  -8    5.77   10.37
  -4   1  -8    8.17   20.17
   4  -1   9   -0.24    5.36
   4  -1   9    2.20    3.98
  -4   1  -9    2.11    8.44
  -4   1  -9    5.14   18.12
   4  -1  10  543.74  139.48
   4  -1  10  637.08  153.75
   4  -1  10  782.83  138.79
  -4   1 -10  678.59  144.81
  -4   1 -10  629.51  152.12
   4  -1  11   67.56   24.87
   4  -1  11  103.11   33.12
  -4   1 -11   74.92   28.57
  -4   1 -11   -4.11   34.53
   4  -1  12   38.22   19.72
   4  -1  12   46.68   34.59
  -4   1 -12   45.06   23.76
   4  -1  13    7.93   24.99
  -4   1 -13    5.27   13.06
  -4   1 -13    3.80   23.73
   4   0   0   43.57   18.01
   4   0   0   41.17   20.60
   4   0   0   36.02   15.72
   4   0   0   51.60    8.77
   4   0   0   40.81    8.64
  -4   0   0   34.24   17.56
  -4   0   0   53.61   15.23
  -4   0   0   22.41    8.32
   4   0   1  974.22  177.44
   4   0   1  836.78  183.50
   4   0   1  966.39  191.77
   4   0   1 1122.22  182.62
  -4   0  -1  667.60  177.36
  -4   0  -1 1065.25  192.68
  -4   0  -1  515.66  182.15
   4   0   2  158.52   41.65
   4   0   2  170.14   47.91
   4   0   2  160.21   37.34
   4   0   2  202.61   32.58
  -4   0  -2  135.79   42.27
  -4   0  -2   87.54   32.21
   4   0   3  326.78   84.19
   4   0   3  380.84   93.28
   4   0   3  467.89   85.35
   4   0   3  525.20   79.24
  -4   0  -3  342.96   85.67
  -4   0  -3  217.71   78.85
   4   0   4    0.16    3.22
   4   0   4   -0.91    8.03
   4   0   4    1.05    3.21
  -4   0  -4    0.83    5.05
  -4   0  -4   -0.61    3.69
  -4   0  -4    0.43    5.24
   4   0   5  174.89   50.07
   4   0   5  162.15   61.01
   4   0   5  150.84   50.69
   4   0   5  217.55   47.10
   4   0   5  267.93   41.71
  -4   0  -5  182.43   52.43
  -4   0  -5  199.84   52.37
  -4   0  -5  271.18   52.25
  -4   0  -5  145.00   42.17
   4   0   6  389.03   82.57
   4   0   6  475.27   88.42
   4   0   6  175.00   82.56
   4   0   6  455.59   76.86
  -4   0  -6  347.36   85.42
  -4   0  -6  334.82   87.46
   4   0   7  149.10   42.01
   4   0   7  173.04   45.04
   4   0   7  180.33   32.61
  -4   0  -7  143.79   44.91
  -4   0  -7   87.36   44.68
   4   0   8   38.18   17.42
   4   0   8   33.99   24.45
   4   0   8   40.19    8.80
  -4   0  -8   32.60   19.87
  -4   0  -8   48.86   27.18
   4   0   9  174.29   45.24
   4   0   9  156.68   50.30
   4   0   9  161.27   35.15
  -4   0  -9  165.30   48.88
  -4   0  -9  170.23   47.98
   4   0  10  139.04   43.38
   4   0  10  181.20   47.11
   4   0  10  172.94   33.04
  -4   0 -10  161.98   47.41
  -4   0 -10  113.71   48.88
   4   0  11   22.21    6.86
  -4   0 -11   25.71   17.11
  -4   0 -11    0.14   24.83
   4   0  12    1.06    7.28
   4   0  12   11.43   32.64
  -4   0 -12    0.19    9.03
  -4   0 -12    2.49   24.36
   4   0  13   95.11   31.27
   4   0  13   94.60   39.34
  -4   0 -13  114.21   37.00
  -4   0 -13    5.21   35.42
   4   1   0  123.14   31.62
   4   1   0  108.57   34.74
   4   1   0  118.02   20.80
   4   1   0   84.73   20.69
  -4  -1   0   91.66   31.04
  -4  -1   0   65.72   20.71
   4   1   1  108.35   33.49
   4   1   1  136.32   38.13
   4   1   1  143.03   23.61
  -4  -1  -1  104.52   33.73
  -4  -1  -1   58.39   23.29
   4   1   2   38.56   16.88
   4   1   2   34.48   20.99
   4   1   2   54.85    8.85
  -4  -1  -2   40.14   17.43
  -4  -1  -2   13.97    8.41
   4   1   3  291.72   74.81
   4   1   3  363.47   83.62
   4   1   3  291.92   74.29
   4   1   3  468.42   68.86
  -4  -1  -3  297.58   76.24
  -4  -1  -3  224.64   68.53
   4   1   4  345.30   80.90
   4   1   4  430.88   91.64
   4   1   4  287.96   80.96
   4   1   4  452.94   75.48
  -4  -1  -4  340.35   82.91
  -4  -1  -4  325.62   84.82
  -4  -1  -4  304.20   75.59
   4   1   5  128.78   39.18
   4   1   5  116.49   49.09
   4   1   5  220.26   40.51
   4   1   5  135.16   34.99
   4   1   5  204.02   30.26
  -4  -1  -5   80.38   41.21
  -4  -1  -5  159.67   41.32
  -4  -1  -5  108.47   40.78
  -4  -1  -5  144.41   31.05
   4   1   6   65.30   22.24
   4   1   6   87.36   26.28
   4   1   6   31.46   18.37
   4   1   6   84.21   13.12
  -4  -1  -6   57.82   23.86
  -4  -1  -6   57.98   25.82
  -4  -1  -6   32.94   14.04
   4   1   7   14.13   10.86
   4   1   7   16.68   19.41
   4   1   7   18.90    5.05
  -4  -1  -7   16.85   12.55
  -4  -1  -7   15.50   21.18
   4   1   8   44.24   19.43
   4   1   8   44.00   25.59
   4   1   8   50.44   10.54
  -4  -1  -8   43.47   21.84
  -4  -1  -8   63.59   26.71
   4   1   9  199.36   37.20
   4   1   9  129.41   44.17
   4   1   9  189.72   48.30
  -4  -1  -9  152.33   47.91
  -4  -1  -9  167.76   48.35
   4   1  10  311.00   67.64
   4   1  10  257.98   69.73
   4   1  10  343.04   76.13
  -4  -1 -10  305.78   74.37
  -4  -1 -10  277.94   74.97
   4   1  11    1.50    6.30
   4   1  11   15.44   29.97
   4   1  11    1.21    5.00
  -4  -1 -11   -0.04    9.89
  -4  -1 -11   -2.44   18.61
   4   1  12    1.60    7.59
   4   1  12    5.08   31.48
  -4  -1 -12    5.07   10.99
  -4  -1 -12    0.87   19.81
   4   1  13   37.48   17.76
   4   1  13   37.63   35.27
  -4  -1 -13   38.66   20.99
  -4  -1 -13   -0.28   23.71
   4   1  14  127.27   40.50
  -4  -1 -14  144.06   46.04
   4   2   0  358.03   74.84
   4   2   0  322.68   78.03
  -4  -2   0  281.77   73.79
   4   2   1  467.09   88.59
   4   2   1  468.32   93.57
   4   2   1  400.88   82.37
  -4  -2  -1  378.74   88.32
  -4  -2  -1  211.32   82.10
   4   2   2  239.07   54.17
   4   2   2  247.83   60.22
   4   2   2  272.39   45.49
  -4  -2  -2   62.96   45.07
   4   2   3   61.14   22.57
   4   2   3   60.54   28.97
   4   2   3   81.81   13.65
  -4  -2  -3   60.04   23.74
  -4  -2  -3   42.41   14.56
   4   2   4  151.84   37.15
   4   2   4  153.98   45.56
   4   2   4  184.85   28.09
  -4  -2  -4  113.27   38.63
  -4  -2  -4   34.18   27.96
   4   2   5  363.65   75.68
   4   2   5  397.82   88.03
   4   2   5  319.14   74.98
   4   2   5  437.48   69.61
  -4  -2  -5  239.33   78.11
  -4  -2  -5  381.91   77.99
  -4  -2  -5  148.40   69.11
   4   2   6  620.86  115.66
   4   2   6  827.56  124.97
   4   2   6  322.41  120.28
   4   2   6  662.39  113.81
  -4  -2  -6  651.82  118.76
  -4  -2  -6  512.72  124.52
  -4  -2  -6  215.90  113.28
   4   2   7   72.37   23.85
   4   2   7   43.92   21.52
   4   2   7   70.39   14.53
  -4  -2  -7   73.86   26.39
  -4  -2  -7   60.41   28.32
   4   2   8  156.67   42.82
   4   2   8  152.52   33.30
  -4  -2  -8  168.52   46.11
  -4  -2  -8  150.85   44.59
   4   2   9  338.16   85.64
   4   2   9  402.99   90.63
   4   2   9  450.17   79.65
  -4  -2  -9  354.48   89.93
  -4  -2  -9  297.65   90.58
   4   2  10  217.18   63.00
   4   2  10  301.53   66.04
   4   2  10  294.31   54.42
  -4  -2 -10  249.95   67.53
   4   2  11   24.56    4.24
   4   2  11   12.01   10.91
   4   2  11    6.02   29.28
  -4  -2 -11   11.87   13.79
  -4  -2 -11    0.03   23.28
   4   2  12   15.27   10.59
   4   2  12    6.98   25.62
  -4  -2 -12   14.96   13.39
  -4  -2 -12   -4.09   22.73
   4   2  13   38.18   17.92
   4   2  13   20.16   34.07
   4   2  14    4.55    9.47
  -4  -2 -14   11.61   14.06
   4   3   0  147.81   38.79
   4   3   0  124.43   40.44
  -4  -3   0  116.32   37.01
   4   3   1  275.83   64.59
   4   3   1  299.46   69.08
  -4  -3  -1  239.08   64.22
   4   3   2   66.03   21.69
   4   3   2   67.44   25.74
   4   3   2   69.46   11.89
  -4  -3  -2   58.41   12.90
  -4  -3  -2    8.97   11.76
   4   3   3   29.24   13.98
   4   3   3   26.30   18.48
   4   3   3   32.44    6.04
  -4  -3  -3   26.85   14.88
  -4  -3  -3   17.84    8.91
   4   3   4   80.05   24.32
   4   3   4   79.34   31.39
   4   3   4   84.98   14.99
  -4  -3  -4   66.66   25.66
  -4  -3  -4   33.13   14.96
   4   3   5  599.46  114.05
   4   3   5  592.47  127.30
   4   3   5  773.93  112.30
  -4  -3  -5  359.58  116.61
  -4  -3  -5  259.58  111.76
   4   3   6    1.47    4.78
   4   3   6    2.86   11.89
   4   3   6    0.55    8.58
   4   3   6    1.17    2.92
  -4  -3  -6    2.66    4.95
  -4  -3  -6    0.14    5.05
   4   3   7   25.15   13.26
   4   3   7   38.42   17.97
   4   3   7   18.29   13.44
   4   3   7   22.77    5.85
  -4  -3  -7   20.19   14.98
  -4  -3  -7   33.16   16.72
   4   3   8  169.78   42.73
   4   3   8  165.84   43.10
   4   3   8   68.85   39.27
   4   3   8  168.26   33.12
  -4  -3  -8  171.28   45.83
  -4  -3  -8  187.30   43.91
   4   3   9   74.97   26.80
   4   3   9   82.61   30.14
   4   3   9   78.32   17.18
  -4  -3  -9   76.42   29.72
  -4  -3  -9  103.45   30.15
   4   3  10   25.93    5.10
   4   3  10   22.16   13.84
   4   3  10   14.68   24.09
  -4  -3 -10   27.72   16.76
  -4  -3 -10   20.85   22.97
   4   3  11    8.76   26.64
   4   3  11    1.34    4.85
  -4  -3 -11    0.59    8.35
  -4  -3 -11    4.59   16.58
   4   3  12   93.35   30.23
   4   3  12   94.04   39.01
  -4  -3 -12  112.14   34.73
  -4  -3 -12    2.52   27.74
   4   3  13  192.77   51.83
   4   3  13  196.00   58.29
  -4  -3 -13  191.78   56.62
   4   3  14   36.93   18.41
  -4  -3 -14   33.40   24.18
   4   4   0  300.09   46.30
   4   4   0  219.22   47.13
  -4  -4   0    9.26   43.13
   4   4   1  159.65   43.00
   4   4   1  138.64   46.18
   4   4   2  157.93   36.87
   4   4   2  114.13   41.74
   4   4   2  118.29   26.04
  -4  -4  -2  130.34   36.90
  -4  -4  -2   82.67   26.19
   4   4   3  322.52   75.92
   4   4   3  358.52   84.53
   4   4   3  336.03   69.07
  -4  -4  -3  334.56   77.30
  -4  -4  -3  302.15   69.20
   4   4   4    3.03    4.82
   4   4   4    2.39   10.45
   4   4   4    2.58    3.01
  -4  -4  -4    3.19    6.02
  -4  -4  -4    0.89    7.15
  -4  -4  -4    0.17    4.26
   4   4   5  980.17  182.43
   4   4   5  759.22  196.53
   4   4   5 1168.07  188.77
  -4  -4  -5  829.76  185.47
  -4  -4  -5 1150.11  188.93
  -4  -4  -5  369.98  188.20
   4   4   6    0.13    4.64
   4   4   6    3.35    3.97
  -4  -4  -6    0.84    4.74
  -4  -4  -6   -0.62    5.97
   4   4   7  168.63   41.25
   4   4   7   78.54   36.85
   4   4   7  160.58   31.82
  -4  -4  -7  165.40   43.78
   4   4   8   19.93   11.25
   4   4   8    9.07   15.08
   4   4   8   13.88   13.38
   4   4   8   16.97    4.88
  -4  -4  -8   17.82   12.89
   4   4   9  433.78   93.31
   4   4   9  217.67   96.53
   4   4   9  488.04   88.12
  -4  -4  -9  382.47   97.08
   4   4  10   29.81   15.57
   4   4  10   22.87   23.34
   4   4  10   33.93    8.07
  -4  -4 -10   30.76   18.12
   4   4  11   13.35    3.75
   4   4  11   12.73   10.71
   4   4  11   15.06   20.69
  -4  -4 -11   17.23   13.40
   4   4  12   48.09   20.84
   4   4  12   43.30   31.69
  -4  -4 -12   50.66   24.16
   4   4  13   40.98   36.64
  -4  -4 -13   92.10   31.68
   4   4  14   12.11   26.77
  -4  -4 -14  172.32   34.01
   4   5   0 1030.89  212.57
   4   5   1    9.18    9.08
   4   5   1    7.41    9.45
  -4  -5  -1    0.74    7.92
   4   5   2   -0.52    4.70
   4   5   2    1.06    8.68
  -4  -5  -2    0.72    5.52
  -4  -5  -2   -0.42    6.11
   4   5   3   12.58    8.54
   4   5   3    7.60   13.62
   4   5   3    7.68    3.48
  -4  -5  -3    5.15    4.69
   4   5   4  500.10   98.22
   4   5   4  503.62  109.50
   4   5   4  504.06   93.66
  -4  -5  -4  435.55  100.15
  -4  -5  -4  467.17   94.16
  -4  -5  -4  258.91   93.42
   4   5   5  584.69  108.37
   4   5   5  535.38  105.29
  -4  -5  -5  584.07  105.63
  -4  -5  -5  281.71  105.11
   4   5   6   16.43   10.69
   4   5   6   11.26    4.77
  -4  -5  -6   20.52    9.60
   4   5   7  156.59   32.83
  -4  -5  -7  147.65   44.44
  -4  -5  -7  166.82   34.13
   4   5   8  287.60   63.42
   4   5   8  257.16   55.44
  -4  -5  -8  243.84   66.36
  -4  -5  -8  257.75   56.33
   4   5   9   48.29   19.75
   4   5   9   47.29   10.85
  -4  -5  -9   44.85   22.23
  -4  -5  -9   45.10   13.02
   4   5  10    3.39    6.16
   4   5  10   -5.60   18.47
   4   5  10    3.43    4.75
  -4  -5 -10    0.99    8.80
  -4  -5 -10    3.63    8.93
   4   5  11    0.64    7.27
   4   5  11    3.09   18.28
   4   5  11    0.76    4.88
  -4  -5 -11    2.75   11.13
  -4  -5 -11   -0.16    9.33
   4   5  12   48.60   23.97
   4   5  12   36.98   30.65
  -4  -5 -12   81.19   29.26
   4   5  13   -0.50   19.52
   4   5  13   36.00   24.86
  -4  -5 -13  110.83   25.75
   4   5  14    1.05    7.10
  -4  -5 -14   -1.46   13.78
   4   6   0  106.09   38.37
   4   6   1  222.66   60.03
   4   6   2   12.15   12.23
   4   6   3   78.90   24.22
   4   6   3   57.54   13.00
  -4  -6  -3   37.94   14.58
   4   6   4  510.85  118.65
   4   6   4  736.45  116.06
  -4  -6  -4  541.27  116.33
  -4  -6  -4  356.26  115.78
   4   6   5   35.51   14.16
   4   6   5   29.04    6.82
  -4  -6  -5   21.60    9.42
  -4  -6  -5    4.28    6.65
   4   6   6    4.96    7.97
   4   6   6    5.60    4.10
  -4  -6  -6    9.45   10.89
   4   6   7    0.81    5.29
   4   6   7   -0.97    4.12
  -4  -6  -7    0.34   10.80
   4   6   8  113.04   23.83
  -4  -6  -8  126.02   36.01
  -4  -6  -8   81.21   25.01
   4   6   9  227.10   70.99
   4   6   9  329.50   63.09
  -4  -6  -9  364.55   74.49
  -4  -6  -9  290.95   63.54
   4   6  10   19.66   14.09
   4   6  10   14.67   17.18
   4   6  10   21.21    5.89
  -4  -6 -10   15.06   16.43
  -4  -6 -10   12.87    9.83
   4   6  11    1.20   20.69
   4   6  11   43.08   24.86
   4   6  11   69.56   11.84
  -4  -6 -11   87.61   25.76
  -4  -6 -11   56.59   14.71
   4   6  12    3.44   21.41
   4   6  12   60.00   26.83
  -4  -6 -12  109.38   26.80
   4   6  13   -0.28   25.47
  -4  -6 -13  174.71   34.24
   4   6  14   -0.29    9.07
  -4  -6 -14    5.76   17.31
   4   7   1    1.78   11.87
   4   7   3   29.05   15.07
   4   7   3   18.36    5.59
  -4  -7  -3    7.99    9.11
   4   7   4 1327.58  194.93
   4   7   4 1007.19  199.45
  -4  -7  -4  898.93  199.58
  -4  -7  -4  454.17  199.14
   4   7   5   46.72   18.35
   4   7   5   35.40    9.19
  -4  -7  -5   27.68   14.97
   4   7   6   41.06   17.89
   4   7   6   40.40    9.55
  -4  -7  -6   26.17   12.01
   4   7   7  159.58   38.80
   4   7   7  126.96   28.60
  -4  -7  -7   97.67   29.77
   4   7   8   35.65   16.89
   4   7   8   32.16    8.46
  -4  -7  -8   34.35   13.15
   4   7   9   15.26   11.76
   4   7   9   12.28    5.69
  -4  -7  -9   23.40   14.74
  -4  -7  -9   15.58   11.94
   4   7  10   -1.22    9.59
   4   7  10    2.17   13.06
   4   7  10    6.76    4.66
  -4  -7 -10   10.59   13.42
  -4  -7 -10   15.16   12.23
   4   7  11    3.72   15.03
   4   7  11   32.84    6.73
  -4  -7 -11   27.38   18.46
  -4  -7 -11   17.48   13.51
   4   7  12   -0.91   41.21
  -4  -7 -12  367.35   49.11
   4   7  13    0.52    8.49
  -4  -7 -13   -0.43   13.34
   4   8   0   31.89   28.87
   4   8   1  168.69   55.50
   4   8   3  522.96   76.47
   4   8   3  285.15   61.80
  -4  -8  -3   34.64   61.01
   4   8   4  184.13   45.34
   4   8   4  169.15   32.20
  -4  -8  -4   61.05   32.94
   4   8   5    0.71    8.66
   4   8   5    0.94    5.11
  -4  -8  -5   -4.54   13.31
   4   8   6    5.10    9.62
   4   8   6    6.10    5.26
  -4  -8  -6    4.51   14.18
   4   8   7  128.93   34.94
   4   8   7  110.17   24.27
  -4  -8  -7   87.17   27.09
   4   8   8  108.01   38.21
   4   8   8  169.02   28.17
  -4  -8  -8   94.83   29.00
   4   8   9   -0.07    8.24
   4   8   9   17.31    4.68
  -4  -8  -9   -0.78   11.51
   4   8  10   -1.51   15.03
   4   8  10   44.01    7.85
  -4  -8 -10   49.51   18.73
  -4  -8 -10   -1.71   10.46
   4   8  11    5.24    9.81
  -4  -8 -11    3.56   11.62
   4   8  12    0.59   33.17
  -4  -8 -12  251.92   39.72
   4   9   2   11.16   22.19
   4   9   3  145.25   49.81
   4   9   4    2.45    4.09
  -4  -9  -4    2.45   11.56
   4   9   5   16.19   14.77
   4   9   5   20.85    6.66
  -4  -9  -5    6.39   13.52
   4   9   6   90.42   29.42
   4   9   6   77.74   16.03
  -4  -9  -6   29.05   19.86
   4   9   7  107.93   30.69
   4   9   7   97.34   18.27
  -4  -9  -7    0.63   18.86
   4   9   8   -3.22   13.28
   4   9   8   42.59    6.21
  -4  -9  -8   -0.74   10.91
   4   9   9    1.47   15.03
   4   9   9   56.47    8.09
  -4  -9  -9    1.14   11.63
   4   9  10    2.09    6.96
   4   9  11   -1.48    6.13
  -4 -10  -4    1.16   13.59
   4  10   5    3.37    5.97
  -4 -10  -5    1.48   13.27
   4  10   6   43.71   24.63
   4  10   6   57.07   11.93
  -4 -10  -6    2.04   17.42
   4  10   7    9.63   13.14
   4  10   7    6.07    3.66
  -4 -10  -7    0.79   10.57
   4  10   8    0.14   12.07
  -5  10   0   -7.45   19.91
   5  -9   0    7.31   12.55
  -5   9   0   -7.86   11.73
   5  -9   1  142.91   36.42
  -5   9  -1    4.47   29.27
   5  -9   2   29.13   17.91
  -5   9  -3   -2.63   17.96
   5  -8   0  331.23   61.58
  -5   8   0    3.38   56.24
   5  -8   1   25.03   14.63
  -5   8  -1    0.39   13.28
   5  -8   2   28.67   16.36
  -5   8  -2    4.88   18.06
   5  -8   3   23.66   13.62
  -5   8  -3   -6.99   16.19
   5  -8   4  104.98   33.98
   5  -7   0  297.69   56.57
  -5   7   0    0.16   50.34
   5  -7   1  224.92   45.85
   5  -7   1  151.87   34.51
  -5   7  -1   -1.46   39.92
   5  -7   2   12.60   11.63
  -5   7  -2    0.98   15.83
  -5   7  -3   -2.63   13.93
   5  -7   4  225.08   57.47
   5  -7   5   31.39   15.69
  -5   7  -5    2.10   20.47
   5  -7   6    4.69    7.74
  -5   7  -6    1.70   25.98
   5  -6   0  278.95   56.72
   5  -6   0  137.45   45.77
  -5   6   0  221.57   53.46
   5  -6   1   94.20   26.89
   5  -6   1   64.56   16.53
  -5   6  -1   30.01   22.65
   5  -6   2   57.99   19.75
   5  -6   2   42.51   11.69
  -5   6  -2    3.66   17.45
   5  -6   3  139.10   39.45
   5  -6   3  180.18   29.94
  -5   6  -3    0.96   35.98
   5  -6   4  102.10   28.31
  -5   6  -4    2.47   28.35
   5  -6   5   31.79   14.55
  -5   6  -5   -2.51   20.01
   5  -6   6    2.73    6.45
  -5   6  -6    3.58   19.45
   5  -6   7  110.21   39.46
  -5   6  -7   -6.77   21.81
   5  -5   0  232.59   55.35
   5  -5   0  167.56   44.66
  -5   5   0  248.00   52.85
   5  -5   1    1.90    5.04
   5  -5   1   -0.57    5.63
  -5   5  -1   -0.66   10.50
   5  -5   2   43.29   18.06
   5  -5   2   35.35   10.98
  -5   5  -2   32.47   17.44
   5  -5   3  141.01   46.28
   5  -5   3  213.68   37.29
   5  -5   4  328.23   73.61
   5  -5   4  395.97   66.33
  -5   5  -4   -1.69   73.12
   5  -5   5   76.69   23.52
  -5   5  -5   -5.64   27.88
   5  -5   6   22.38   12.56
  -5   5  -6    2.03   24.38
   5  -5   7   42.88   19.19
   5  -5   7   91.77   33.01
  -5   5  -7    7.96   21.83
   5  -5   8   80.64   27.81
   5  -5   8   68.11   41.90
  -5   5  -8   77.67   30.50
   5  -4   0  358.69   76.10
   5  -4   0  233.42   67.67
  -5   4   0  411.95   77.27
   5  -4   1   21.74   12.90
   5  -4   1   18.85    9.64
  -5   4  -1   19.49   16.05
   5  -4   2   90.64   31.87
   5  -4   2  122.10   22.47
  -5   4  -2   75.78   30.46
   5  -4   3  180.66   49.73
   5  -4   3  213.24   40.55
  -5   4  -3  155.36   48.92
   5  -4   4   -0.02    3.87
   5  -4   4    0.36    6.25
  -5   4  -4   -2.88   15.03
   5  -4   5   19.67   11.73
   5  -4   5   16.32    7.34
  -5   4  -5    9.57   18.91
   5  -4   6    1.05    3.88
   5  -4   6    1.06    4.91
  -5   4  -6    2.06   21.57
   5  -4   7   71.79   27.64
   5  -4   7   72.18   40.10
  -5   4  -7   92.68   30.74
   5  -4   8   50.32   20.82
  -5   4  -8   60.91   24.21
  -5   4  -8    2.08   26.64
   5  -4   9    2.98    6.42
   5  -4   9   13.85   30.76
  -5   4  -9    2.11    8.32
  -5   4  -9   -2.71   23.53
   5  -3   0    4.64    9.57
   5  -3   0    1.67    7.02
  -5   3   0    6.71   15.15
   5  -3   1   12.75    9.26
   5  -3   1    6.85    5.66
  -5   3  -1    7.59   14.19
   5  -3   2  104.31   36.46
   5  -3   2  148.63   26.61
  -5   3  -2  120.34   36.48
   5  -3   3  137.38   41.88
   5  -3   3  185.48   32.61
  -5   3  -3  101.77   42.33
   5  -3   4   44.65   22.15
   5  -3   4   73.66   13.78
   5  -3   5   60.17   24.09
   5  -3   5   89.90   15.17
  -5   3  -5    7.97   25.40
   5  -3   6    2.08    4.83
   5  -3   6   -3.25   23.47
   5  -3   6    2.53    5.24
  -5   3  -6   -6.11   19.36
   5  -3   7  276.68   73.66
   5  -3   7  337.37   83.52
   5  -3   7  378.56   66.28
  -5   3  -7  376.12   77.18
  -5   3  -7   -0.78   74.40
   5  -3   8   72.07   26.67
   5  -3   8  142.73   40.02
  -5   3  -8   86.48   29.52
  -5   3  -8   -0.64   33.01
   5  -3   9    0.75    4.30
   5  -3   9    4.07   29.39
  -5   3  -9    0.90    7.57
  -5   3  -9   -2.77   29.07
   5  -3  10    2.93    7.91
  -5   3 -10    2.75   10.52
   5  -2   0   43.97   18.94
   5  -2   0   32.35    9.73
  -5   2   0   44.69   17.70
   5  -2   1   66.45   26.00
   5  -2   1   78.14   15.85
   5  -2   2  447.51  117.28
   5  -2   2  668.18  115.00
   5  -2   3  178.96   50.10
   5  -2   3  236.66   41.20
  -5   2  -3  112.35   50.78
   5  -2   4   40.40   18.76
   5  -2   4   48.07   10.89
  -5   2  -4   43.92   29.74
   5  -2   5    1.84    4.77
   5  -2   5    0.51    4.60
   5  -2   6  200.76   48.48
   5  -2   6  155.67   53.35
   5  -2   6  216.11   39.14
  -5   2  -6   -1.39   48.06
   5  -2   7  170.43   48.58
   5  -2   7  266.42   58.95
   5  -2   7  214.17   39.32
  -5   2  -7  202.13   51.59
  -5   2  -7    5.50   47.54
   5  -2   8   21.97   13.07
   5  -2   8   25.30   35.99
  -5   2  -8   24.97   15.54
  -5   2  -8    7.48   23.75
   5  -2   9    3.23    6.76
   5  -2   9    1.54   35.06
  -5   2  -9    7.80    9.39
  -5   2  -9    6.47   23.93
   5  -2  10   11.34   10.32
   5  -2  10    8.98   36.88
  -5   2 -10   12.34   13.22
  -5   2 -10    0.97   28.29
   5  -2  11   17.89   13.12
  -5   2 -11   14.00   15.68
   5  -1   0    7.28   10.18
   5  -1   0    4.80    5.44
   5  -1   1  127.52   36.12
   5  -1   1  109.35   25.52
   5  -1   2   19.88   12.43
   5  -1   2   23.20    6.60
  -5   1  -2    7.41   19.87
   5  -1   3  200.23   56.69
   5  -1   3  260.31   48.27
  -5   1  -3  232.35   59.17
   5  -1   4    2.10    5.56
   5  -1   4    3.67    5.61
   5  -1   5   40.25   18.71
   5  -1   5   25.12   23.60
   5  -1   5   47.73   10.35
  -5   1  -5   52.12   28.19
   5  -1   6  102.81   32.41
   5  -1   6  133.07   38.38
   5  -1   6  112.59   22.70
  -5   1  -6   61.86   38.60
   5  -1   7  114.40   24.02
   5  -1   7  100.23   33.01
   5  -1   7  155.61   45.34
  -5   1  -7  127.59   35.71
  -5   1  -7    2.87   37.59
   5  -1   8   15.08    3.82
   5  -1   8   13.27   10.10
   5  -1   8   12.66   33.84
  -5   1  -8   14.47   12.44
  -5   1  -8   -0.28   27.41
   5  -1   9   16.57   11.00
   5  -1   9   11.77   28.68
  -5   1  -9   18.24   13.21
  -5   1  -9    0.33   32.23
   5  -1  10   55.10   21.03
   5  -1  10   47.56   39.88
  -5   1 -10   58.77   23.71
  -5   1 -10   -8.20   37.89
   5  -1  11   88.74   31.16
  -5   1 -11   95.90   34.73
   5   0   0   36.71   14.52
   5   0   0   25.30    6.24
   5   0   0   14.48    5.85
  -5   0   0    4.11    7.40
   5   0   1  512.44   97.89
   5   0   1  411.33  101.05
   5   0   1  539.63   92.33
  -5   0  -1  346.72  101.68
  -5   0  -1  176.74   91.91
   5   0   2  187.40   48.24
   5   0   2   99.12   44.85
   5   0   2  199.96   38.70
  -5   0  -2  223.97   49.43
   5   0   3    3.72    6.43
   5   0   3    2.59   11.07
   5   0   3    1.10    5.26
  -5   0  -3    9.04   17.91
   5   0   4    9.13    8.25
   5   0   4    9.17    5.86
  -5   0  -4    2.14   23.24
   5   0   5   83.64   28.48
   5   0   5   67.77   36.05
   5   0   5   98.62   19.37
  -5   0  -5   71.27   37.01
   5   0   6  462.37  108.97
   5   0   6  670.92  120.93
   5   0   6  530.73  105.78
  -5   0  -6  450.38  120.21
   5   0   7   16.06   11.73
   5   0   7   19.26    6.17
  -5   0  -7   21.27   13.56
  -5   0  -7    6.65   29.64
   5   0   8    2.94    3.77
   5   0   8    2.06    4.18
   5   0   8   -8.94   30.83
  -5   0  -8    0.62    6.98
  -5   0  -8   -2.56   30.73
   5   0   9   36.34   17.87
   5   0   9   37.77   36.25
  -5   0  -9   54.89   20.60
  -5   0  -9   -0.46   35.01
   5   0  10   48.47   19.26
   5   0  10   42.35   38.04
  -5   0 -10   43.99   21.70
  -5   0 -10   10.30   37.35
   5   0  11  100.68   34.76
  -5   0 -11  122.41   38.41
   5   0  12   15.66   12.64
  -5   0 -12   13.21   15.32
   5   1   0   53.96   23.52
   5   1   1  104.19   27.46
   5   1   1   78.62   16.39
   5   1   1   50.98   16.15
   5   1   2  363.55   89.46
   5   1   2  433.80   83.61
   5   1   3  100.97   30.09
   5   1   3   86.16   20.37
   5   1   4    3.73    6.15
   5   1   4    4.10    4.91
   5   1   5  109.11   33.68
   5   1   5  101.15   39.15
   5   1   5  119.91   24.09
  -5  -1  -5   95.96   39.34
   5   1   6   40.65   17.25
   5   1   6   29.85   25.32
   5   1   6   36.68    9.73
  -5  -1  -6   34.91   29.08
   5   1   7  206.86   49.82
   5   1   7  182.84   40.42
  -5  -1  -7  193.33   52.28
  -5  -1  -7  142.34   56.39
   5   1   8   23.51   30.84
   5   1   8   14.43    6.08
  -5  -1  -8   18.65   13.60
   5   1   9   71.16   26.87
   5   1   9   89.26   42.63
   5   1   9   82.10   17.16
  -5  -1  -9   75.92   29.89
   5   1  10  116.16   35.01
   5   1  10   96.78   49.44
  -5  -1 -10  149.26   38.66
  -5  -1 -10    0.07   40.54
   5   1  11   10.87   10.46
  -5  -1 -11   14.41   12.84
   5   1  12    3.82    9.25
  -5  -1 -12    7.83   11.83
   5   2   0  360.42   84.65
   5   2   2   43.01   15.52
   5   2   2   25.05    6.35
   5   2   2   16.73    5.89
  -5  -2  -2   17.10   10.41
  -5  -2  -2    4.38    9.88
   5   2   3   19.35   12.60
   5   2   3   19.11    6.06
   5   2   4   21.77   12.50
   5   2   4   19.49    6.41
   5   2   5   97.34   30.63
   5   2   5   95.97   20.94
   5   2   6  159.24   42.33
   5   2   6  148.25   32.79
   5   2   7   90.03   28.08
   5   2   7   57.41   30.20
   5   2   7   84.46   18.41
   5   2   8  156.61   40.78
   5   2   8   63.95   43.50
   5   2   8  143.46   30.93
  -5  -2  -8  155.72   43.55
   5   2   9   52.20   20.03
   5   2   9   38.12   27.20
   5   2   9   45.39   11.37
  -5  -2  -9   47.99   23.04
   5   2  10  120.96   34.46
   5   2  10  100.09   44.70
  -5  -2 -10  137.21   37.74
  -5  -2 -10   -2.32   40.48
   5   2  11   20.58   13.01
  -5  -2 -11   14.41   14.64
   5   2  12    1.40    6.72
  -5  -2 -12   -3.38   11.50
   5   3   0  112.75   37.42
   5   3   1  717.10  151.44
   5   3   2   17.62   13.86
   5   3   3    2.13    4.32
  -5  -3  -3    0.90   10.68
   5   3   4   25.49   13.79
   5   3   4   20.66    6.88
  -5  -3  -4   23.01   11.41
   5   3   5  143.61   37.92
   5   3   5  119.85   27.93
   5   3   6    0.82    4.78
   5   3   6    2.02    5.10
   5   3   7  358.76   73.84
   5   3   7  270.89   66.42
   5   3   8  223.07   50.99
   5   3   8  179.99   41.45
  -5  -3  -8  180.52   53.51
   5   3   9   83.36   26.51
   5   3   9   46.85   31.52
   5   3   9   71.49   16.73
  -5  -3  -9   82.05   29.26
   5   3  10   -0.35    4.58
  -5  -3 -10    1.25    7.08
   5   3  11   59.78   23.08
  -5  -3 -11   54.48   25.66
   5   3  12   32.41   16.75
  -5  -3 -12   24.19   19.46
   5   4   0  217.89   58.96
   5   4   1    5.47   10.13
   5   4   2  440.95   99.44
   5   4   3  258.79   50.12
   5   4   3  121.79   38.91
   5   4   4   18.09   10.78
   5   4   4    7.78    5.52
  -5  -4  -4   10.24   11.17
   5   4   5   93.29   25.49
   5   4   5   61.59   15.90
  -5  -4  -5   43.17   20.26
   5   4   6  484.91   95.23
   5   4   6  396.39   89.98
  -5  -4  -6  373.23   90.77
   5   4   7   16.86   10.69
   5   4   7   11.29    5.54
  -5  -4  -7    6.32   13.98
   5   4   8  271.82   54.26
   5   4   8  243.79   45.00
  -5  -4  -8    1.20   44.76
   5   4   9   93.29   28.99
   5   4   9   81.39   19.04
  -5  -4  -9  137.81   32.30
  -5  -4  -9    0.64   21.05
   5   4  10   36.46   17.96
  -5  -4 -10   37.81   21.16
   5   4  11   -1.38    6.92
  -5  -4 -11    6.47   12.15
   5   4  12    1.18    8.44
  -5  -4 -12    9.12   12.24
   5   5   0   39.38   22.49
   5   5   1   27.49   17.64
   5   5   2    2.04    8.12
   5   5   3   34.13   17.32
   5   5   4  144.35   34.94
   5   5   4   82.41   23.71
   5   5   5   96.63   26.92
   5   5   5   61.99   16.44
  -5  -5  -5   48.52   22.76
   5   5   6  202.45   45.43
   5   5   6  150.09   35.51
  -5  -5  -6  127.31   37.71
   5   5   7   75.37   21.30
   5   5   7   49.38   12.46
  -5  -5  -7    0.55   15.69
   5   5   8    0.91    6.51
   5   5   8    9.74    6.46
  -5  -5  -8    0.70   13.03
   5   5   9   -1.06    4.31
   5   5  10    0.29   17.06
  -5  -5 -10   79.63   20.50
   5   5  11   -2.20    7.23
  -5  -5 -11    7.76   11.64
   5   5  12   -1.02    9.52
  -5  -5 -12   18.08   15.47
   5   6   0    2.38   27.55
   5   6   1   -1.21   12.05
   5   6   3    0.06    6.20
   5   6   4    1.24    9.67
   5   6   4   15.59    5.14
  -5  -6  -4    1.28   10.97
   5   6   5    0.74    5.68
   5   6   5    2.02    5.67
  -5  -6  -5   -0.75   16.75
   5   6   6   -0.68   30.74
  -5  -6  -6   -1.22   24.36
   5   6   7   -0.51   35.84
  -5  -6  -7   -0.17   29.75
   5   6   8   -0.42   10.10
   5   6   8   28.92    6.76
  -5  -6  -8    0.71   13.91
   5   6   9    0.82    5.74
   5   6  10    2.42    6.76
   5   6  11    0.83    7.54
  -5  -6 -11    3.85   10.20
   5   7   0   -0.80   22.61
   5   7   1    3.02   24.62
   5   7   2   -0.79   10.76
   5   7   4   -1.39    7.67
   5   7   5    2.77   13.31
   5   7   5   35.49    7.04
  -5  -7  -5    3.51   13.68
   5   7   6   -1.39   10.91
   5   7   6   26.90    6.53
  -5  -7  -6   -2.45   16.06
   5   7   8   -0.11    4.46
   5   7   9    0.32    4.82
   5   7  10    0.71    6.16
   5   8   1    3.30   16.00
   5   8   2   -0.51   20.15
   5   8   3   -4.07   14.04
   5   8   4    1.59   10.70
   5   8   5   -2.42    8.38
   5   8   6    3.07    9.61
   5   8   7    0.41    8.03
   5   8   8    2.78   10.80
   6  -6   0    5.34   11.02
   6  -6   1   52.54   23.40
   6  -6   2   21.85   15.13
   6  -6   3   14.97   13.56
   6  -5   0   -2.90    7.27
   6  -5   1  250.11   63.78
   6  -5   2   17.24   13.42
   6  -5   3   85.52   30.08
   6  -5   4   11.66   11.51
   6  -4   0   98.91   28.64
  -6   4   0   -0.73   27.86
   6  -4   1   69.40   23.74
  -6   4  -1    4.15   28.98
   6  -4   2  127.42   39.33
   6  -4   3   33.69   17.29
   6  -4   4   78.64   27.89
   6  -4   5    6.33    8.58
   6  -4   6    2.57    6.99
   6  -3   0   54.50   24.11
   6  -3   1   19.22   13.06
  -6   3  -1   -1.01   25.59
   6  -3   2    2.01   10.56
  -6   3  -2   12.69   25.17
   6  -3   3  281.67   68.44
   6  -3   4  100.59   32.50
   6  -3   5    1.07    5.75
   6  -3   6    8.36    9.34
   6  -3   7   19.16   13.23
   6  -2   0  420.50   96.72
   6  -2   1  247.34   62.54
   6  -2   2   10.55   11.53
   6  -2   3   40.37   18.85
   6  -2   4    0.73    5.38
   6  -2   5    7.70    8.75
   6  -2   6   57.30   22.99
   6  -2   7    0.00    6.68
   6  -2   8   42.13   19.55
   6  -1   0   -0.08    8.13
   6  -1   1   14.67   13.27
   6  -1   2  127.26   38.60
   6  -1   3  444.73   99.34
   6  -1   4    0.68    5.31
   6  -1   5   34.69   17.13
   6  -1   6   27.33   15.09
   6  -1   7   87.90   30.00
   6  -1   8   22.30   14.02
   6   0   0    6.24   12.30
   6   0   1    1.64    8.60
   6   0   2  127.33   38.62
   6   0   3   16.56   13.26
   6   0   4   54.90   22.21
   6   0   5   46.79   20.22
   6   0   6   67.90   25.09
   6   0   7   42.18   19.30
   6   0   8    0.64    5.72
   6   1   0   20.89   17.06
   6   1   1   11.32   12.60
   6   1   2  410.76   93.48
   6   1   3    9.07   12.19
   6   1   4   -0.44    4.69
   6   1   5    0.80    5.47
   6   1   6   63.57   24.10
   6   1   7   58.27   22.94
   6   1   8   18.09   13.29
   6   1   9    0.20    5.33
   6   2   0   12.34   13.70
   6   2   1  102.43   35.61
   6   2   2  122.85   38.69
   6   2   3   30.46   17.36
   6   2   4  104.43   33.79
   6   2   5   54.93   22.28
   6   2   6    9.67   10.10
   6   2   7   -1.29    4.77
   6   2   8    3.23    7.17
   6   2   9    1.45    6.21
   6   3   0    0.41    8.64
   6   3   1    2.15    7.84
   6   3   2    9.98   11.75
   6   3   3    0.06    5.60
   6   3   4   20.92   13.64
   6   3   5  195.06   51.73
   6   3   6    4.68    9.88
   6   3   7    0.62    6.63
   6   3   8    0.28    5.85
   6   3   9   -0.06    4.80
   6   4   0   -0.24   13.17
   6   4   1    1.11    7.78
   6   4   2    2.24    7.91
   6   4   3    0.83    8.29
   6   4   4    2.87    7.10
   6   4   6   -0.36    6.73
   6   4   8    0.26    6.11
   6   5   0    0.91   26.04
   6   5   1    2.52   14.52
   6   5   2   -0.52    7.31
   6   5   3    2.71    9.82
   6   5   4    1.67    8.96
   6   5   5   -1.54    6.61
   6   5   6    4.84    9.09
   6   5   7    0.06    8.95
   0   0   0    0.00    0.00

_computing_structure_solution     'SHELXT 2014/5 (Sheldrick, 2014)'
;
_shelx_hkl_checksum              92759
loop_
_space_group_symop_operation_xyz
'x, y, z'
'-x, -y, -z'
loop_
_atom_site_label
_atom_site_type_symbol
_atom_site_fract_x
_atom_site_fract_y
_atom_site_fract_z
_atom_site_U_iso_or_equiv
_atom_site_adp_type
_atom_site_occupancy
_atom_site_site_symmetry_order
_atom_site_calc_flag
_atom_site_refinement_flags_posn
_atom_site_refinement_flags_adp
Br1 Br 1.45350(9) 0.03570(4) 0.11965(3) 0.0287(3) Uani 1 1 d . .
O1 O 0.6157(5) 0.1317(2) 0.5233(2) 0.0221(6) Uani 1 1 d . .
N1 N 0.5602(6) 0.3637(3) 0.6210(2) 0.0181(7) Uani 1 1 d . .
N2 N 0.7089(6) 0.4646(3) 0.5846(2) 0.0204(7) Uani 1 1 d . .
N3 N 0.6009(6) 0.5305(3) 0.6359(2) 0.0208(7) Uani 1 1 d . .
N4 N 0.4863(6) 0.1869(3) 0.5919(2) 0.0225(8) Uani 1 1 d . .
C3A C 0.3842(7) 0.4740(3) 0.7043(3) 0.0184(8) Uani 1 1 d . .
C4 C 0.2345(7) 0.5304(3) 0.7756(3) 0.0211(9) Uani 1 1 d . .
H4A H 0.0490 0.5199 0.7731 0.025 Uiso 1 1 calc R U
H4B H 0.2772 0.6136 0.7469 0.025 Uiso 1 1 calc R U
C5 C 0.2931(8) 0.4803(3) 0.8954(3) 0.0270(10) Uani 1 1 d . .
H5A H 0.4682 0.5064 0.8993 0.032 Uiso 1 1 calc R U
H5B H 0.1723 0.5118 0.9402 0.032 Uiso 1 1 calc R U
C6 C 0.2745(8) 0.3491(3) 0.9451(3) 0.0271(10) Uani 1 1 d . .
H6A H 0.3083 0.3272 1.0217 0.032 Uiso 1 1 calc R U
H6B H 0.4142 0.3189 0.9069 0.032 Uiso 1 1 calc R U
C7 C 0.0210(8) 0.2875(3) 0.9432(3) 0.0248(9) Uani 1 1 d . .
H7A H -0.1203 0.3212 0.9770 0.030 Uiso 1 1 calc R U
H7B H 0.0283 0.2064 0.9899 0.030 Uiso 1 1 calc R U
C8 C -0.0514(8) 0.2902(3) 0.8303(3) 0.0250(9) Uani 1 1 d . .
H8A H -0.1918 0.2327 0.8434 0.030 Uiso 1 1 calc R U
H8B H -0.1192 0.3662 0.7933 0.030 Uiso 1 1 calc R U
C9 C 0.1655(7) 0.2674(3) 0.7524(3) 0.0203(9) Uani 1 1 d . .
H9A H 0.2598 0.2008 0.7938 0.024 Uiso 1 1 calc R U
H9B H 0.0880 0.2467 0.6963 0.024 Uiso 1 1 calc R U
C9A C 0.3556(7) 0.3671(3) 0.6960(3) 0.0189(9) Uani 1 1 d . .
C10 C 0.6315(7) 0.2806(3) 0.5714(3) 0.0185(9) Uani 1 1 d . .
C11 C 0.8530(7) 0.2922(3) 0.4937(3) 0.0185(8) Uani 1 1 d . .
H11 H 0.9822 0.3515 0.4676 0.022 Uiso 1 1 calc R U
C12 C 0.8305(7) 0.1956(3) 0.4665(3) 0.0189(9) Uani 1 1 d . .
C13 C 0.9818(7) 0.1545(3) 0.3862(3) 0.0191(9) Uani 1 1 d . .
C14 C 1.2125(7) 0.2138(3) 0.3296(3) 0.0201(9) Uani 1 1 d . .
H14 H 1.2721 0.2776 0.3452 0.024 Uiso 1 1 calc R U
C15 C 1.3540(7) 0.1786(3) 0.2503(3) 0.0218(9) Uani 1 1 d . .
H15 H 1.5090 0.2180 0.2120 0.026 Uiso 1 1 calc R U
C16 C 1.2603(8) 0.0833(3) 0.2292(3) 0.0214(9) Uani 1 1 d . .
C17 C 1.0345(8) 0.0235(3) 0.2845(3) 0.0246(10) Uani 1 1 d . .
H17 H 0.9757 -0.0406 0.2690 0.029 Uiso 1 1 calc R U
C18 C 0.8950(7) 0.0592(3) 0.3634(3) 0.0207(9) Uani 1 1 d . .
H18 H 0.7409 0.0189 0.4019 0.025 Uiso 1 1 calc R U
loop_
_atom_site_aniso_label
_atom_site_aniso_U_11
_atom_site_aniso_U_22
_atom_site_aniso_U_33
_atom_site_aniso_U_23
_atom_site_aniso_U_13
_atom_site_aniso_U_12
Br1 0.0386(4) 0.0305(4) 0.0219(3) -0.0151(2) -0.0045(2) 0.0107(3)
O1 0.0262(16) 0.0212(14) 0.0226(13) -0.0129(11) -0.0008(12) 0.0026(13)
N1 0.0219(19) 0.0190(18) 0.0149(15) -0.0077(13) -0.0026(13) 0.0035(14)
N2 0.0246(19) 0.0174(17) 0.0196(16) -0.0070(13) -0.0021(14) 0.0008(15)
N3 0.028(2) 0.0195(17) 0.0164(15) -0.0078(13) -0.0042(14) 0.0045(15)
N4 0.027(2) 0.0221(18) 0.0233(16) -0.0143(14) -0.0017(14) 0.0036(16)
C3A 0.020(2) 0.022(2) 0.0154(17) -0.0074(15) -0.0063(16) 0.0062(17)
C4 0.022(2) 0.021(2) 0.0245(19) -0.0131(17) -0.0038(17) 0.0027(17)
C5 0.030(2) 0.036(3) 0.0189(19) -0.0149(18) -0.0015(17) 0.001(2)
C6 0.030(2) 0.035(3) 0.0169(19) -0.0092(18) -0.0052(17) 0.006(2)
C7 0.026(2) 0.029(2) 0.0179(19) -0.0066(17) 0.0005(17) 0.0019(19)
C8 0.028(2) 0.023(2) 0.023(2) -0.0061(17) -0.0069(17) 0.0022(18)
C9 0.025(2) 0.017(2) 0.0186(18) -0.0049(16) -0.0031(16) -0.0018(17)
C9A 0.022(2) 0.022(2) 0.0154(17) -0.0085(15) -0.0068(16) 0.0048(17)
C10 0.025(2) 0.020(2) 0.0137(17) -0.0072(15) -0.0086(16) 0.0083(18)
C11 0.022(2) 0.021(2) 0.0153(17) -0.0079(15) -0.0053(16) 0.0026(17)
C12 0.017(2) 0.023(2) 0.0168(18) -0.0059(16) -0.0059(16) 0.0055(18)
C13 0.025(2) 0.017(2) 0.0169(17) -0.0056(15) -0.0093(17) 0.0061(17)
C14 0.024(2) 0.019(2) 0.0197(18) -0.0085(16) -0.0068(17) -0.0005(18)
C15 0.021(2) 0.025(2) 0.0183(18) -0.0069(16) -0.0027(16) 0.0027(18)
C16 0.028(2) 0.023(2) 0.0172(18) -0.0106(16) -0.0089(17) 0.0100(19)
C17 0.033(3) 0.018(2) 0.026(2) -0.0112(17) -0.0100(19) 0.0059(19)
C18 0.023(2) 0.021(2) 0.0206(19) -0.0087(16) -0.0044(16) 0.0031(17)
loop_
_atom_type_symbol
_atom_type_description
_atom_type_scat_dispersion_real
_atom_type_scat_dispersion_imag
_atom_type_scat_source
C C 0.0070 0.0030 'International Tables Vol C Tables 4.2.6.8 and 6.1.1.4'
H H 0.0000 0.0000 'International Tables Vol C Tables 4.2.6.8 and 6.1.1.4'
N N 0.0130 0.0060 'International Tables Vol C Tables 4.2.6.8 and 6.1.1.4'
O O 0.0210 0.0120 'International Tables Vol C Tables 4.2.6.8 and 6.1.1.4'
Br Br -2.6470 0.5500 'International Tables Vol C Tables 4.2.6.8 and 6.1.1.4'
loop_
_geom_angle_atom_site_label_1
_geom_angle_atom_site_label_2
_geom_angle_atom_site_label_3
_geom_angle
C12 O1 N4 109.6(3)
N2 N1 C9A 111.4(3)
N2 N1 C10 116.4(3)
C9A N1 C10 132.0(3)
N3 N2 N1 106.1(3)
N2 N3 C3A 109.8(3)
C10 N4 O1 103.2(3)
C9A C3A N3 109.0(3)
C9A C3A C4 131.3(4)
N3 C3A C4 119.6(3)
C3A C4 C5 112.1(3)
C3A C4 H4A 109.2
C5 C4 H4A 109.2
C3A C4 H4B 109.2
C5 C4 H4B 109.2
H4A C4 H4B 107.9
C6 C5 C4 114.8(3)
C6 C5 H5A 108.6
C4 C5 H5A 108.6
C6 C5 H5B 108.6
C4 C5 H5B 108.6
H5A C5 H5B 107.5
C5 C6 C7 118.2(3)
C5 C6 H6A 107.8
C7 C6 H6A 107.8
C5 C6 H6B 107.8
C7 C6 H6B 107.8
H6A C6 H6B 107.1
C6 C7 C8 117.9(3)
C6 C7 H7A 107.8
C8 C7 H7A 107.8
C6 C7 H7B 107.8
C8 C7 H7B 107.8
H7A C7 H7B 107.2
C9 C8 C7 116.5(3)
C9 C8 H8A 108.2
C7 C8 H8A 108.2
C9 C8 H8B 108.2
C7 C8 H8B 108.2
H8A C8 H8B 107.3
C9A C9 C8 114.8(3)
C9A C9 H9A 108.6
C8 C9 H9A 108.6
C9A C9 H9B 108.6
C8 C9 H9B 108.6
H9A C9 H9B 107.5
C3A C9A N1 103.7(3)
C3A C9A C9 133.1(3)
N1 C9A C9 123.2(3)
N4 C10 N1 121.1(3)
N4 C10 C11 114.6(3)
N1 C10 C11 124.3(3)
C12 C11 C10 102.4(3)
C12 C11 H11 128.8
C10 C11 H11 128.8
O1 C12 C11 110.2(3)
O1 C12 C13 117.2(3)
C11 C12 C13 132.6(4)
C18 C13 C14 119.7(3)
C18 C13 C12 120.9(4)
C14 C13 C12 119.4(3)
C15 C14 C13 120.2(3)
C15 C14 H14 119.9
C13 C14 H14 119.9
C14 C15 C16 118.5(4)
C14 C15 H15 120.8
C16 C15 H15 120.8
C17 C16 C15 122.0(3)
C17 C16 Br1 119.6(3)
C15 C16 Br1 118.4(3)
C16 C17 C18 119.1(3)
C16 C17 H17 120.5
C18 C17 H17 120.5
C17 C18 C13 120.5(4)
C17 C18 H18 119.8
C13 C18 H18 119.8
loop_
_geom_bond_atom_site_label_1
_geom_bond_atom_site_label_2
_geom_bond_distance
Br1 C16 1.931(4)
O1 C12 1.371(5)
O1 N4 1.429(4)
N1 N2 1.389(4)
N1 C9A 1.390(5)
N1 C10 1.430(4)
N2 N3 1.322(4)
N3 C3A 1.396(5)
N4 C10 1.328(5)
C3A C9A 1.383(5)
C3A C4 1.511(5)
C4 C5 1.556(5)
C4 H4A 0.9900
C4 H4B 0.9900
C5 C6 1.537(6)
C5 H5A 0.9900
C5 H5B 0.9900
C6 C7 1.548(6)
C6 H6A 0.9900
C6 H6B 0.9900
C7 C8 1.568(5)
C7 H7A 0.9900
C7 H7B 0.9900
C8 C9 1.541(5)
C8 H8A 0.9900
C8 H8B 0.9900
C9 C9A 1.518(6)
C9 H9A 0.9900
C9 H9B 0.9900
C10 C11 1.436(5)
C11 C12 1.378(5)
C11 H11 0.9500
C12 C13 1.483(5)
C13 C18 1.410(5)
C13 C14 1.415(6)
C14 C15 1.407(5)
C14 H14 0.9500
C15 C16 1.412(5)
C15 H15 0.9500
C16 C17 1.392(6)
C17 C18 1.401(5)
C17 H17 0.9500
C18 H18 0.9500
loop_
_geom_torsion_atom_site_label_1
_geom_torsion_atom_site_label_2
_geom_torsion_atom_site_label_3
_geom_torsion_atom_site_label_4
_geom_torsion
C9A N1 N2 N3 0.2(3)
C10 N1 N2 N3 176.4(3)
N1 N2 N3 C3A -0.3(3)
C12 O1 N4 C10 0.2(3)
N2 N3 C3A C9A 0.4(4)
N2 N3 C3A C4 177.3(3)
C9A C3A C4 C5 74.0(5)
N3 C3A C4 C5 -102.2(4)
C3A C4 C5 C6 -50.1(5)
C4 C5 C6 C7 -55.4(5)
C5 C6 C7 C8 68.3(5)
C6 C7 C8 C9 44.3(5)
C7 C8 C9 C9A -76.4(4)
N3 C3A C9A N1 -0.2(3)
C4 C3A C9A N1 -176.7(3)
N3 C3A C9A C9 177.5(3)
C4 C3A C9A C9 1.0(6)
N2 N1 C9A C3A 0.0(3)
C10 N1 C9A C3A -175.4(3)
N2 N1 C9A C9 -178.0(3)
C10 N1 C9A C9 6.6(5)
C8 C9 C9A C3A 4.3(5)
C8 C9 C9A N1 -178.4(3)
O1 N4 C10 N1 177.0(3)
O1 N4 C10 C11 -0.4(4)
N2 N1 C10 N4 -172.7(3)
C9A N1 C10 N4 2.5(5)
N2 N1 C10 C11 4.4(4)
C9A N1 C10 C11 179.6(3)
N4 C10 C11 C12 0.5(4)
N1 C10 C11 C12 -176.8(3)
N4 O1 C12 C11 0.1(4)
N4 O1 C12 C13 -176.7(3)
C10 C11 C12 O1 -0.3(4)
C10 C11 C12 C13 175.8(3)
O1 C12 C13 C18 5.2(5)
C11 C12 C13 C18 -170.7(3)
O1 C12 C13 C14 -176.6(3)
C11 C12 C13 C14 7.5(5)
C18 C13 C14 C15 0.5(5)
C12 C13 C14 C15 -177.7(3)
C13 C14 C15 C16 -0.1(5)
C14 C15 C16 C17 -0.3(5)
C14 C15 C16 Br1 179.6(2)
C15 C16 C17 C18 0.3(5)
Br1 C16 C17 C18 -179.6(2)
C16 C17 C18 C13 0.2(5)
C14 C13 C18 C17 -0.6(5)
C12 C13 C18 C17 177.6(3)
