#------------------------------------------------------------------------------
#$Date: 2019-11-24 08:22:57 +0200 (Sun, 24 Nov 2019) $
#$Revision: 237282 $
#$URL: file:///home/coder/svn-repositories/cod/cif/1/55/44/1554493.cif $
#------------------------------------------------------------------------------
#
# This file is available in the Crystallography Open Database (COD),
# http://www.crystallography.net/
#
# All data on this site have been placed in the public domain by the
# contributors.
#
data_1554493
loop_
_publ_author_name
'Chang, Yu-Che'
'Prakash, Sekar'
'Cheng, Chien-Hong'
_publ_section_title
;
 ReI-Catalyzed highly regio- and stereoselective C--H addition to terminal
 and internal alkynes
;
_journal_issue                   4
_journal_name_full               'Organic Chemistry Frontiers'
_journal_page_first              432
_journal_paper_doi               10.1039/C8QO01068D
_journal_volume                  6
_journal_year                    2019
_chemical_formula_sum            'C20 H14 N2'
_chemical_formula_weight         282.33
_space_group_crystal_system      triclinic
_space_group_IT_number           2
_space_group_name_Hall           '-P 1'
_space_group_name_H-M_alt        'P -1'
_atom_sites_solution_hydrogens   geom
_audit_creation_method           SHELXL-2014/6
_audit_update_record
;
2018-02-22 deposited with the CCDC.
2018-11-01 downloaded from the CCDC.
;
_cell_angle_alpha                101.080(5)
_cell_angle_beta                 96.416(5)
_cell_angle_gamma                92.665(5)
_cell_formula_units_Z            2
_cell_length_a                   3.9188(4)
_cell_length_b                   12.5127(13)
_cell_length_c                   15.3057(15)
_cell_measurement_reflns_used    8090
_cell_measurement_temperature    100(2)
_cell_measurement_theta_max      26.3494
_cell_measurement_theta_min      2.3526
_cell_volume                     730.13(13)
_computing_cell_refinement       'SAINT V8.34A (Bruker AXS Inc., 2013)'
_computing_data_collection       'Bruker APEX2'
_computing_data_reduction        'SAINT V8.34A (Bruker AXS Inc., 2013)'
_computing_molecular_graphics    'Bruker SHELXTL'
_computing_publication_material  'Bruker SHELXTL'
_computing_structure_refinement  'SHELXL-2014/6 (Sheldrick, 2014)'
_diffrn_ambient_temperature      100(2)
_diffrn_detector_area_resol_mean 8.3333
_diffrn_measured_fraction_theta_full 0.999
_diffrn_measured_fraction_theta_max 0.981
_diffrn_measurement_device_type  'Bruker APEX-II CCD'
_diffrn_measurement_method       '\f and \w scans'
_diffrn_radiation_type           MoK\a
_diffrn_radiation_wavelength     0.71073
_diffrn_reflns_av_R_equivalents  0.0436
_diffrn_reflns_av_unetI/netI     0.0243
_diffrn_reflns_Laue_measured_fraction_full 0.999
_diffrn_reflns_Laue_measured_fraction_max 0.981
_diffrn_reflns_limit_h_max       4
_diffrn_reflns_limit_h_min       -4
_diffrn_reflns_limit_k_max       15
_diffrn_reflns_limit_k_min       -15
_diffrn_reflns_limit_l_max       19
_diffrn_reflns_limit_l_min       -19
_diffrn_reflns_number            25856
_diffrn_reflns_point_group_measured_fraction_full 0.999
_diffrn_reflns_point_group_measured_fraction_max 0.981
_diffrn_reflns_theta_full        25.242
_diffrn_reflns_theta_max         26.623
_diffrn_reflns_theta_min         1.366
_exptl_absorpt_coefficient_mu    0.076
_exptl_absorpt_correction_T_max  0.9485
_exptl_absorpt_correction_T_min  0.8530
_exptl_absorpt_correction_type   multi-scan
_exptl_absorpt_process_details   'SADABS V2014/4 (Bruker AXS Inc.)'
_exptl_crystal_colour            'Light Brown'
_exptl_crystal_density_diffrn    1.284
_exptl_crystal_density_meas      ?
_exptl_crystal_density_method    'not measured'
_exptl_crystal_description       Lump
_exptl_crystal_F_000             296
_exptl_crystal_size_max          0.25
_exptl_crystal_size_mid          0.20
_exptl_crystal_size_min          0.15
_refine_diff_density_max         0.467
_refine_diff_density_min         -0.507
_refine_diff_density_rms         0.050
_refine_ls_extinction_coef       0.010(7)
_refine_ls_extinction_expression Fc^*^=kFc[1+0.001xFc^2^\l^3^/sin(2\q)]^-1/4^
_refine_ls_extinction_method     SHELXL
_refine_ls_goodness_of_fit_ref   1.064
_refine_ls_hydrogen_treatment    constr
_refine_ls_matrix_type           full
_refine_ls_number_parameters     200
_refine_ls_number_reflns         2993
_refine_ls_number_restraints     0
_refine_ls_restrained_S_all      1.064
_refine_ls_R_factor_all          0.0531
_refine_ls_R_factor_gt           0.0459
_refine_ls_shift/su_max          0.000
_refine_ls_shift/su_mean         0.000
_refine_ls_structure_factor_coef Fsqd
_refine_ls_weighting_details
'w=1/[\s^2^(Fo^2^)+(0.0677P)^2^+0.3791P] where P=(Fo^2^+2Fc^2^)/3'
_refine_ls_weighting_scheme      calc
_refine_ls_wR_factor_gt          0.1268
_refine_ls_wR_factor_ref         0.1325
_reflns_Friedel_coverage         0.000
_reflns_number_gt                2581
_reflns_number_total             2993
_reflns_threshold_expression     'I > 2\s(I)'
_cod_data_source_file            c8qo01068d2.cif
_cod_data_source_block           mo_180141LT_0m_a
_cod_depositor_comments
;
The following automatic conversions were performed:

data item '_exptl_crystal_density_meas' value 'not measured' was
changed to '?' -- the value is perceived as not measured.

Automatic conversion script
Id: cif_fix_values 6909 2019-04-08 15:41:33Z antanas 
;
_cod_database_code               1554493
_shelx_space_group_comment
;
The symmetry employed for this shelxl refinement is uniquely defined
by the following loop, which should always be used as a source of
symmetry information in preference to the above space-group names.
They are only intended as comments.
;
_shelxl_version_number           2014/6
_shelx_res_file
;
TITL mo_180141LT_0m_a.res in P-1
CELL 0.71073 3.9188 12.5127 15.3057 101.080 96.416 92.665
ZERR 2.00 0.0004 0.0013 0.0015 0.005 0.005 0.005
LATT 1
SFAC C  H  N
UNIT 40  28  4
L.S. 4
ACTA
BOND $H
FMAP 2
PLAN 5
TEMP -173
OMIT 1 0 1
WGHT    0.067700    0.379100
EXTI    0.010279
FVAR       1.18528
C20   1    0.746550    0.451119    0.243677    11.00000    0.01944    0.01632 =
         0.01448    0.00010    0.00455   -0.00292
AFIX  43
H20   2    0.791494    0.392950    0.197491    11.00000   -1.20000
AFIX   0
N2    3    0.587242    0.512883    0.390727    11.00000    0.02519    0.02332 =
         0.02260    0.00264    0.00153    0.00187
N1    3    0.666536   -0.090952    0.398743    11.00000    0.05135    0.02309 =
         0.02992    0.00971   -0.00053    0.00672
C1    1    0.707801    0.641692    0.299133    11.00000    0.02104    0.01788 =
         0.02746    0.00722   -0.00134   -0.00011
AFIX  43
H1    2    0.728663    0.715078    0.291225    11.00000   -1.20000
AFIX   0
C2    1    0.772847    0.556574    0.232660    11.00000    0.02537    0.03137 =
         0.02190    0.00552    0.00540   -0.00585
AFIX  43
H13   2    0.837335    0.571761    0.178047    11.00000   -1.20000
AFIX   0
C3    1    0.654074    0.431139    0.322680    11.00000    0.01397    0.01809 =
         0.01680    0.00180   -0.00081   -0.00017
C4    1    0.642999    0.317209    0.337305    11.00000    0.01468    0.01931 =
         0.01703    0.00512    0.00312    0.00119
C5    1    0.493879    0.228059    0.270859    11.00000    0.01473    0.01897 =
         0.01609    0.00384    0.00186    0.00132
C6    1    0.319441    0.243513    0.184291    11.00000    0.02050    0.01749 =
         0.02058    0.00621   -0.00276   -0.00047
AFIX  43
H6    2    0.219176    0.310981    0.183116    11.00000   -1.20000
AFIX   0
C7    1    0.290970    0.171315    0.108198    11.00000    0.02102    0.02239 =
         0.01900    0.00667    0.00233    0.00651
AFIX  43
H11   2    0.381866    0.102746    0.110703    11.00000   -1.20000
AFIX   0
C8    1    0.133260    0.186109    0.020099    11.00000    0.01490    0.02352 =
         0.01713    0.00623    0.00145   -0.00235
C9    1    0.164774    0.107000   -0.055277    11.00000    0.02462    0.03038 =
         0.02025    0.00472    0.00205    0.00442
AFIX  43
H10   2    0.275699    0.042732   -0.048250    11.00000   -1.20000
AFIX   0
C10   1    0.037550    0.120001   -0.140529    11.00000    0.02217    0.03849 =
         0.01753    0.00343    0.00167   -0.00678
AFIX  43
H7    2    0.066769    0.065757   -0.191322    11.00000   -1.20000
AFIX   0
C11   1   -0.130587    0.211164   -0.151627    11.00000    0.02056    0.04437 =
         0.02092    0.01675   -0.00363   -0.00951
AFIX  43
H2    2   -0.219820    0.219927   -0.209947    11.00000   -1.20000
AFIX   0
C12   1    0.611487    0.617271    0.377519    11.00000    0.02085    0.01694 =
         0.02166   -0.00100    0.00039    0.00221
AFIX  43
H3    2    0.560833    0.674880    0.423424    11.00000   -1.20000
AFIX   0
C13   1    0.796499    0.298638    0.419468    11.00000    0.01935    0.02143 =
         0.01618    0.00182    0.00063    0.00039
AFIX  43
H4    2    0.895392    0.359089    0.464003    11.00000   -1.20000
AFIX   0
C14   1    0.808492    0.195086    0.437731    11.00000    0.02120    0.02577 =
         0.01609    0.00616    0.00036    0.00402
AFIX  43
H5    2    0.914523    0.184010    0.493909    11.00000   -1.20000
AFIX   0
C15   1    0.661472    0.106839    0.371897    11.00000    0.02088    0.01899 =
         0.01990    0.00620    0.00382    0.00418
C16   1    0.665596   -0.002865    0.387949    11.00000    0.02946    0.02490 =
         0.01879    0.00485    0.00022    0.00468
C17   1    0.506017    0.123694    0.289810    11.00000    0.01771    0.01943 =
         0.01759    0.00231    0.00192    0.00098
AFIX  43
H12   2    0.406220    0.062822    0.245838    11.00000   -1.20000
AFIX   0
C18   1   -0.169290    0.290144   -0.077432    11.00000    0.02726    0.03184 =
         0.03101    0.01735   -0.00328   -0.00088
AFIX  43
H9    2   -0.286952    0.353075   -0.084928    11.00000   -1.20000
AFIX   0
C19   1   -0.037929    0.278298    0.007772    11.00000    0.02316    0.02297 =
         0.02307    0.00785   -0.00037   -0.00138
AFIX  43
H8    2   -0.064702    0.333419    0.058191    11.00000   -1.20000
AFIX   0
HKLF 4 1 1 0 0 0 1 0 0 0 1

REM  mo_180141LT_0m_a.res in P-1
REM R1 =  0.0459 for    2581 Fo > 4sig(Fo)  and  0.0531 for all    2993 data
REM    200 parameters refined using      0 restraints

END

WGHT      0.0677      0.3791

REM Highest difference peak  0.467,  deepest hole -0.507,  1-sigma level  0.050
Q1    1   0.4893  0.4909  0.4479  11.00000  0.05    0.47
Q2    1   0.6793  0.4412  0.2602  11.00000  0.05    0.42
Q3    1   0.8284  0.4395  0.2437  11.00000  0.05    0.42
Q4    1   0.7311  0.4926  0.2414  11.00000  0.05    0.41
Q5    1   0.4443  0.2356  0.2261  11.00000  0.05    0.25
;
_shelx_res_checksum              60856
_shelx_hkl_file
;
  -1   0   0  601.06   20.18
  -1   0   0  603.10   20.34
  -1   0   0  609.31   21.06
  -1   0   0  599.02   20.79
  -1   0   0  592.58   20.14
  -1   0   0  681.43   29.09
  -1   0   0  678.88   25.54
  -1   0   0  615.05   20.94
  -1   0   0  619.49   20.19
   1   0   0  596.96   20.20
   1   0   0  631.19   20.43
   1   0   0  597.77   19.28
  -2   0   0  935.60   30.78
  -2   0   0  907.83   31.01
  -2   0   0  932.15   29.56
  -2   0   0  896.41   32.30
  -2   0   0  963.30   32.14
  -2   0   0  922.42   32.31
  -2   0   0  920.49   30.79
  -2   0   0  897.91   39.91
  -2   0   0  942.89   32.53
  -2   0   0  962.94   30.89
  -2   0   0  866.94   44.93
  -3   0   0   35.62    5.33
  -3   0   0   37.39    4.21
  -3   0   0   36.54    5.18
  -3   0   0   35.82    4.11
  -3   0   0   30.83    4.97
  -3   0   0   32.44    2.30
  -3   0   0   33.38    2.46
  -3   0   0   19.65    8.34
  -3   0   0   33.67    4.96
  -3   0   0   39.48    4.52
   3   0   0   31.72    4.23
  -4   0   0    8.77    3.35
  -4   0   0   14.67    4.35
  -4   0   0   17.33    3.41
  -4   0   0   11.68    2.98
  -4   0   0   16.08    4.78
  -4   0   0    9.01    3.53
  -4   0   0   10.84    3.56
  -4   0   0   10.26    3.81
   4   0   0    9.03    3.07
   4  -1   0   37.00    5.49
  -4   1   0   31.41    6.30
  -4   1   0   41.04    6.95
  -4   1   0   23.95    5.31
  -4   1   0   29.93    5.57
  -4   1   0   34.76    4.91
  -4   1   0   35.55    4.57
  -4   1   0   36.41    5.16
   3  -1   0   10.97    2.81
  -3   1   0   16.34    3.81
  -3   1   0   19.90    4.31
  -3   1   0    9.21    2.53
  -3   1   0   11.83    2.67
  -3   1   0   12.07    2.95
  -3   1   0   30.18   10.35
  -3   1   0   16.76    3.89
  -3   1   0   14.18    2.67
   2  -1   0   50.59    2.78
   2  -1   0   34.35    9.98
   2  -1   0   53.24    4.05
  -2   1   0   50.23    3.89
  -2   1   0   57.33    4.26
  -2   1   0   53.19    4.44
  -2   1   0   57.60    3.69
  -2   1   0   50.81    4.46
  -2   1   0   56.72    4.73
  -2   1   0   55.32    3.83
  -2   1   0   52.51    8.51
  -2   1   0   35.92    9.67
  -2   1   0   45.31    3.75
   1  -1   0  110.38   11.07
   1  -1   0   87.26    4.49
   1  -1   0   87.19    4.44
   1  -1   0   90.48    3.97
  -1   1   0   90.23    4.55
  -1   1   0  104.42    6.95
  -1   1   0   93.68    4.31
  -1   1   0   88.22    4.49
  -1   1   0   83.68    4.54
  -1   1   0   97.21    4.56
  -1   1   0   87.86    3.97
  -1   1   0   88.20    4.32
  -1   1   0  116.91   11.17
   0  -1   0   -0.62    0.40
   0  -1   0   -0.63    0.39
   0  -1   0    1.16    0.52
   0  -1   0   -1.72    0.71
   0  -1   0   -0.54    0.34
   0  -1   0   -0.19    0.36
   0  -1   0    0.00    0.42
   0  -1   0    0.04    0.36
   0  -1   0   -1.00    0.24
   0   1   0   -1.18    1.19
   0   1   0    0.62    0.47
   0   1   0    1.37    0.56
   0   1   0   -0.59    0.35
   0   1   0    0.20    0.42
   0   1   0   -0.20    0.34
   0   1   0   -0.28    0.38
   0   1   0   -0.34    0.29
  -1  -1   0  166.76    7.35
  -1  -1   0  169.18    6.48
  -1  -1   0  166.62    6.80
  -1  -1   0  211.88   11.74
  -1  -1   0  165.21    6.52
  -1  -1   0  166.43    6.40
  -1  -1   0  171.84    7.33
   1   1   0  172.69    6.54
   1   1   0  164.30    6.74
   1   1   0  179.02    5.72
   1   1   0  170.91    6.52
   1   1   0  172.25    7.27
  -2  -1   0  750.51   25.89
  -2  -1   0  821.43   28.53
  -2  -1   0  784.77   26.32
  -2  -1   0  753.98   27.56
  -2  -1   0  762.68   27.53
  -2  -1   0  775.05   25.39
  -2  -1   0  773.14   25.99
  -2  -1   0  752.57   41.33
  -2  -1   0  774.97   25.94
   2   1   0  793.95   26.23
   2   1   0  766.13   25.87
   2   1   0  672.54   25.77
  -3  -1   0   -0.22    0.91
  -3  -1   0    0.05    1.21
  -3  -1   0    2.73    1.53
  -3  -1   0   -1.73    1.41
  -3  -1   0    0.89    1.42
  -3  -1   0    1.21    1.30
  -3  -1   0   10.30    6.57
  -3  -1   0    0.16    1.90
  -3  -1   0    2.33    2.24
  -3  -1   0   -0.61    1.49
   3   1   0    0.47    1.37
  -4  -1   0   47.71    6.87
  -4  -1   0   54.19    7.76
  -4  -1   0   59.21    6.17
  -4  -1   0   49.75    6.61
  -4  -1   0   58.57    7.91
  -4  -1   0   42.12    6.68
  -4  -1   0   47.21    7.37
  -4  -1   0   53.75    6.06
   4   1   0   54.50    6.39
   4  -2   0    9.84    3.45
  -4   2   0    5.17    3.34
  -4   2   0   11.72    2.87
  -4   2   0   13.29    3.61
  -4   2   0   11.06    4.08
  -4   2   0   10.83    3.02
  -4   2   0   11.50    3.61
  -4   2   0   10.35    3.65
  -4   2   0   12.31    4.27
   3  -2   0  206.96    8.49
   3  -2   0  218.01   11.28
  -3   2   0  204.55   11.79
  -3   2   0  225.48   11.22
  -3   2   0  214.30   10.99
  -3   2   0  226.88   10.78
  -3   2   0  202.65    9.79
  -3   2   0  208.66   11.99
  -3   2   0  216.38   11.74
   2  -2   0   32.54    2.60
   2  -2   0   34.98   10.87
   2  -2   0   34.50    3.95
  -2   2   0   30.49    2.60
  -2   2   0   33.65    3.54
  -2   2   0   30.36    3.66
  -2   2   0   28.13    3.41
  -2   2   0   37.26    4.32
  -2   2   0   30.46    5.90
  -2   2   0   36.04    3.90
  -2   2   0   37.66    4.38
  -2   2   0   33.20    9.88
   1  -2   0   23.54    2.64
   1  -2   0   27.32    1.63
   1  -2   0   27.79    2.31
   1  -2   0   33.13    3.54
   1  -2   0   26.33    2.13
   1  -2   0   31.25    2.38
   1  -2   0   28.59    2.47
   1  -2   0   38.63    8.08
  -1   2   0   30.34    2.90
  -1   2   0   27.12    1.87
  -1   2   0   29.42    2.20
  -1   2   0   28.35    1.80
  -1   2   0   34.00    3.46
  -1   2   0   33.03    7.17
  -1   2   0   30.85    2.62
  -1   2   0   31.08    2.46
  -1   2   0   30.21    2.47
  -1   2   0   30.22    2.29
   0  -2   0 1303.53   41.53
   0  -2   0 1307.78   41.33
   0  -2   0 1314.16   41.70
   0  -2   0 1286.33   41.87
   0  -2   0 1277.96   41.89
   0  -2   0 1329.53   41.76
   0  -2   0 1546.54   56.38
   0   2   0 1336.58   41.56
   0   2   0 1453.31   54.85
   0   2   0 1318.92   41.93
   0   2   0 1312.95   41.91
   0   2   0 1315.71   42.11
   0   2   0 1322.10   41.77
   0   2   0 1321.13   41.34
  -1  -2   0 2752.84   86.16
  -1  -2   0 2855.76   87.16
  -1  -2   0 2727.02   86.02
  -1  -2   0 2981.24   94.41
  -1  -2   0 2775.60   87.12
  -1  -2   0 2712.07   85.35
  -1  -2   0 2762.19   86.03
  -1  -2   0 2761.94   87.51
  -1  -2   0 2822.26   87.71
  -1  -2   0 2823.98   85.89
  -1  -2   0 2772.68   86.48
   1   2   0 2806.46   87.54
   1   2   0 2805.13   86.10
   1   2   0 2758.38   86.03
   1   2   0 2867.32   86.54
   1   2   0 2814.25   86.22
   1   2   0 2799.44   87.08
  -2  -2   0  134.59    6.32
  -2  -2   0  131.60    6.94
  -2  -2   0  124.48    5.99
  -2  -2   0  127.20    5.29
  -2  -2   0  127.17    7.51
  -2  -2   0  136.58    6.90
  -2  -2   0  135.36    7.76
  -2  -2   0  123.16    5.86
   2   2   0  127.94    6.17
   2   2   0  108.62    5.86
   2   2   0  129.07    6.66
  -3  -2   0  116.14    5.86
  -3  -2   0  116.44    8.45
  -3  -2   0  112.52    6.59
  -3  -2   0  127.68    7.01
  -3  -2   0  119.73    6.98
  -3  -2   0  119.06    7.38
  -3  -2   0  111.58    8.38
  -3  -2   0  119.05    8.73
  -3  -2   0  129.01    7.66
  -3  -2   0  119.19    8.63
  -3  -2   0  131.31    9.36
   3   2   0  123.87    7.10
  -4  -2   0   27.38    6.39
  -4  -2   0   16.79    4.56
  -4  -2   0   14.03    3.56
  -4  -2   0   18.42    4.41
  -4  -2   0   22.94    5.25
  -4  -2   0   19.80    4.81
  -4  -2   0   25.69    4.10
  -4  -2   0   25.24    5.78
   4   2   0   15.47    3.62
   4  -3   0  129.36    9.66
  -4   3   0  122.81    9.59
  -4   3   0  135.18    9.46
  -4   3   0  124.37   10.26
  -4   3   0  118.67    9.05
  -4   3   0  122.97    8.98
  -4   3   0  124.63   10.39
  -4   3   0  125.63    8.77
  -4   3   0  115.37    8.41
   3  -3   0  339.05   15.61
   3  -3   0  253.79   30.38
  -3   3   0  328.98   13.69
  -3   3   0  328.63   13.23
  -3   3   0  359.43   16.25
  -3   3   0  337.53   15.40
  -3   3   0  335.35   15.34
  -3   3   0  338.76   13.88
  -3   3   0  338.18   14.81
  -3   3   0  352.59   14.78
  -3   3   0  345.08   15.58
   2  -3   0  223.51    9.64
   2  -3   0  231.71   10.79
   2  -3   0  208.01   23.55
  -2   3   0  220.26    9.10
  -2   3   0  229.94   23.17
  -2   3   0  224.28   10.50
  -2   3   0  243.90   11.01
  -2   3   0  226.23   10.13
  -2   3   0  236.23   10.69
  -2   3   0  222.49    9.52
  -2   3   0  244.07   14.24
  -2   3   0  232.43    9.83
  -2   3   0  232.69   10.35
   1  -3   0  693.43   22.82
   1  -3   0  676.44   23.64
   1  -3   0  671.01   23.06
   1  -3   0  725.54   24.38
   1  -3   0  695.53   21.96
   1  -3   0  740.37   41.61
   1  -3   0  669.45   23.53
  -1   3   0  709.25   24.17
  -1   3   0  661.28   23.53
  -1   3   0  679.97   21.89
  -1   3   0  675.87   23.62
  -1   3   0  680.46   24.04
  -1   3   0  752.29   41.78
  -1   3   0  700.87   22.83
  -1   3   0  684.60   21.95
  -1   3   0  710.63   22.58
  -1   3   0  672.15   23.70
  -1   3   0  664.59   23.04
   0  -3   0  849.64   28.08
   0  -3   0  828.41   28.25
   0  -3   0  834.26   28.29
   0  -3   0 1016.53   47.12
   0  -3   0  845.08   28.00
   0  -3   0  860.38   27.79
   0  -3   0  870.22   28.61
   0  -3   0  850.69   27.47
   0   3   0  817.59   28.33
   0   3   0 1011.29   46.00
   0   3   0  833.25   28.32
   0   3   0  858.31   28.13
   0   3   0  853.34   27.78
   0   3   0  861.42   28.38
   0   3   0  868.53   27.54
  -1  -3   0  741.44   23.50
  -1  -3   0  765.14   25.86
  -1  -3   0  721.87   31.61
  -1  -3   0  736.78   25.89
  -1  -3   0  760.28   24.25
  -1  -3   0  740.25   24.71
  -1  -3   0  751.13   24.79
  -1  -3   0  753.86   25.61
  -1  -3   0  762.96   25.43
   1   3   0  777.10   24.40
   1   3   0  734.98   23.51
   1   3   0  749.49   25.57
   1   3   0  750.98   24.77
   1   3   0  763.28   24.32
   1   3   0  759.23   25.57
   1   3   0  768.03   24.80
  -2  -3   0  583.31   21.60
  -2  -3   0  564.39   22.21
  -2  -3   0  591.40   20.11
  -2  -3   0  583.50   19.91
  -2  -3   0  570.04   19.67
  -2  -3   0  569.64   21.41
  -2  -3   0  568.87   20.42
  -2  -3   0  574.29   22.53
  -2  -3   0  592.71   18.49
  -2  -3   0  583.46   22.61
   2   3   0  568.98   18.94
   2   3   0  603.37   20.26
   2   3   0  605.55   22.41
  -3  -3   0   53.05    6.60
  -3  -3   0   62.88    8.01
  -3  -3   0   51.93    6.66
  -3  -3   0   52.92    5.67
  -3  -3   0   45.75   14.80
  -3  -3   0   52.43    2.97
  -3  -3   0   53.35    4.50
  -3  -3   0   61.50    4.71
  -3  -3   0   48.13    6.25
  -3  -3   0   50.66    6.11
   3   3   0   56.12    4.56
  -4  -3   0   21.37    5.21
  -4  -3   0   19.90    5.13
  -4  -3   0   23.15    5.80
  -4  -3   0   35.93    6.55
  -4  -3   0   29.93    6.68
  -4  -3   0   25.72    4.65
   4  -4   0    5.30    3.00
  -4   4   0    2.62    2.64
  -4   4   0    5.78    2.75
  -4   4   0    4.49    3.16
  -4   4   0    3.09    2.55
  -4   4   0    5.22    2.91
  -4   4   0    5.26    2.50
  -4   4   0    8.22    3.34
   3  -4   0   65.20   19.45
   3  -4   0   72.78    5.14
   3  -4   0   64.03    6.99
  -3   4   0   75.86    6.76
  -3   4   0   76.53    5.40
  -3   4   0   85.46    6.63
  -3   4   0   87.06    6.48
  -3   4   0   82.45    6.78
  -3   4   0   71.60    5.96
  -3   4   0   79.80    5.12
  -3   4   0   65.50    5.37
   2  -4   0    9.13    2.52
   2  -4   0    3.30    5.37
   2  -4   0   11.42    2.20
   2  -4   0    9.38    1.24
   2  -4   0    7.94    2.07
  -2   4   0    8.59    2.19
  -2   4   0    9.88    2.29
  -2   4   0    7.74    2.31
  -2   4   0   11.55    1.63
  -2   4   0    9.55    3.09
  -2   4   0    4.64    1.75
  -2   4   0    2.35    4.87
  -2   4   0    7.79    1.84
  -2   4   0    8.52    1.62
   1  -4   0   -0.01    0.71
   1  -4   0   -0.78    0.59
   1  -4   0   -0.93    2.69
   1  -4   0   -0.30    0.85
   1  -4   0    0.18    0.49
   1  -4   0   -0.82    0.59
   1  -4   0   -0.85    0.64
   1  -4   0    0.18    0.79
  -1   4   0   -1.22    0.79
  -1   4   0   -0.09    3.21
  -1   4   0   -0.58    0.57
  -1   4   0    0.09    0.80
  -1   4   0   -0.48    0.63
  -1   4   0    1.24    1.12
  -1   4   0   -0.64    0.84
  -1   4   0   -0.53    0.64
  -1   4   0    0.05    1.00
  -1   4   0   -0.33    0.50
   0  -4   0   42.94    3.41
   0  -4   0   42.59    2.96
   0  -4   0   46.03    2.61
   0  -4   0   40.39    2.74
   0  -4   0   43.34    3.08
   0  -4   0   58.61   11.80
   0  -4   0   44.31    3.26
   0  -4   0   47.16    3.37
   0   4   0   43.73    3.22
   0   4   0   48.30    2.67
   0   4   0   45.57    3.34
   0   4   0   38.25    2.99
   0   4   0   50.79    3.03
   0   4   0   52.75   11.01
   0   4   0   45.23    3.54
   0   4   0   28.24    3.09
   0   4   0   46.94    3.10
  -1  -4   0   26.27    3.25
  -1  -4   0   39.76    2.93
  -1  -4   0   36.85    2.11
  -1  -4   0   40.34    3.03
  -1  -4   0   35.15    2.51
  -1  -4   0   36.44    3.90
  -1  -4   0   35.68    3.80
  -1  -4   0   48.61   11.03
  -1  -4   0   33.71    3.09
  -1  -4   0   34.27    6.48
  -1  -4   0   32.44    3.70
   1   4   0   35.57    2.97
   1   4   0   40.14    2.97
   1   4   0   31.09    2.42
   1   4   0   33.11    3.54
   1   4   0   36.10    2.14
  -2  -4   0    6.09    2.23
  -2  -4   0    5.81    1.10
  -2  -4   0   12.26    2.64
  -2  -4   0    6.16    1.26
  -2  -4   0    3.82    1.59
  -2  -4   0    8.38    2.48
  -2  -4   0    5.93    1.66
   2   4   0    3.66    1.15
   2   4   0    6.42    1.49
  -3  -4   0   14.90    2.75
  -3  -4   0   16.66    3.52
  -3  -4   0   13.72    2.38
  -3  -4   0    9.57    3.30
  -3  -4   0   20.31    4.68
  -3  -4   0   17.93    4.16
  -3  -4   0   13.10    3.70
   3   4   0   14.70    2.71
  -4  -4   0    2.18    2.72
  -4  -4   0    4.88    3.29
  -4  -4   0    2.55    3.03
  -4  -4   0   -0.49    2.92
  -4  -4   0    0.16    2.45
  -4  -4   0    3.27    2.55
   4  -5   0   48.30    7.18
  -4   5   0   38.17    5.80
  -4   5   0   52.96    7.76
  -4   5   0   42.68    6.71
  -4   5   0   33.09    5.79
  -4   5   0   40.39    6.12
  -4   5   0   28.15    5.67
   3  -5   0    3.17    1.76
   3  -5   0   -1.71    5.41
   3  -5   0    1.00    2.01
  -3   5   0    1.09    1.47
  -3   5   0   -0.02    1.86
  -3   5   0    1.01    1.45
  -3   5   0    0.41    1.60
  -3   5   0    0.88    1.64
  -3   5   0    0.06    1.81
  -3   5   0    3.22    1.37
   2  -5   0  192.95    8.10
   2  -5   0  204.55   27.19
   2  -5   0  195.09    9.79
   2  -5   0  204.53   10.51
   2  -5   0  208.48    9.27
  -2   5   0  199.23   11.31
  -2   5   0  208.52   10.39
  -2   5   0  190.77    7.51
  -2   5   0  192.73    7.80
  -2   5   0  203.66    9.31
  -2   5   0  207.87    9.17
  -2   5   0  175.17   10.31
   1  -5   0   71.08    4.91
   1  -5   0   69.68    3.69
   1  -5   0   68.60    3.90
   1  -5   0   63.18    3.75
   1  -5   0   80.34   16.03
   1  -5   0   60.40    3.24
   1  -5   0   68.44    4.79
  -1   5   0   63.45    4.75
  -1   5   0   72.36    5.26
  -1   5   0   80.88   15.65
  -1   5   0   73.35    5.04
  -1   5   0   69.28    3.69
  -1   5   0   66.37    3.88
  -1   5   0   58.34    4.73
  -1   5   0   63.63    3.28
  -1   5   0   59.45    4.30
   0  -5   0  370.63   13.97
   0  -5   0  362.60   13.13
   0  -5   0  400.83   34.50
   0  -5   0  375.10   14.48
   0  -5   0  369.98   14.46
   0  -5   0  382.87   13.72
   0  -5   0  376.12   14.88
   0  -5   0  366.39   14.18
   0  -5   0  382.71   14.02
   0   5   0  389.99   14.20
   0   5   0  362.49   14.44
   0   5   0  378.79   14.91
   0   5   0  377.30   13.71
   0   5   0  372.44   32.41
   0   5   0  350.19   14.01
  -1  -5   0  105.61    6.39
  -1  -5   0  102.00    5.79
  -1  -5   0  102.60    6.10
  -1  -5   0  104.66    6.26
  -1  -5   0  100.42    5.90
  -1  -5   0  109.37    6.49
  -1  -5   0  105.27    5.21
  -1  -5   0   90.67   16.39
  -1  -5   0  104.65    4.69
  -1  -5   0   97.12    9.87
   1   5   0  105.94    4.73
   1   5   0  106.16    5.26
   1   5   0   90.71    5.92
   1   5   0  102.43    5.82
  -2  -5   0    2.20    1.75
  -2  -5   0    4.77    6.05
  -2  -5   0    1.16    1.14
  -2  -5   0    1.67    1.81
  -2  -5   0    1.77    1.57
  -2  -5   0    3.80    1.87
  -2  -5   0    4.65    1.38
  -2  -5   0    2.31    1.04
   2   5   0    3.47    1.33
   2   5   0    2.27    1.01
   2   5   0    2.91    1.20
  -3  -5   0   12.40    9.04
  -3  -5   0   20.93    3.25
  -3  -5   0   18.06    3.82
  -3  -5   0   13.81    3.67
  -3  -5   0   19.84    4.41
  -3  -5   0   20.94    4.71
  -4  -5   0    0.91    2.33
  -4  -5   0    2.31    2.48
  -4  -5   0    1.21    2.60
  -4  -5   0   -0.34    2.70
  -4  -5   0    5.89    3.58
  -4  -5   0    1.89    3.50
   4  -6   0   11.06    4.34
  -4   6   0    8.46    3.66
  -4   6   0   12.46    3.94
  -4   6   0    7.34    3.50
  -4   6   0    7.19    3.30
  -4   6   0    9.18    3.92
   3  -6   0   10.92    2.84
   3  -6   0    6.41    8.82
   3  -6   0   16.06    3.97
  -3   6   0    9.58    2.74
  -3   6   0   11.08    3.24
  -3   6   0   18.14    4.46
  -3   6   0    9.05    1.71
  -3   6   0   14.16    2.45
  -3   6   0    8.78    2.90
   2  -6   0  321.72   14.66
   2  -6   0  327.94   13.01
   2  -6   0  317.50   15.11
   2  -6   0  344.32   38.34
   2  -6   0  327.45   13.15
  -2   6   0  307.18   15.27
  -2   6   0  322.77   11.22
  -2   6   0  322.19   11.07
  -2   6   0  322.46   14.37
  -2   6   0  338.39   13.26
  -2   6   0  326.68   14.86
   1  -6   0  375.78   15.58
   1  -6   0  390.38   13.37
   1  -6   0  377.64   13.87
   1  -6   0  394.37   13.83
   1  -6   0  382.25   13.61
   1  -6   0  362.00   15.11
  -1   6   0  374.39   15.67
  -1   6   0  382.05   14.03
  -1   6   0  370.89   13.57
  -1   6   0  348.76   15.85
  -1   6   0  363.23   13.25
  -1   6   0  368.62   15.89
  -1   6   0  397.29   16.33
   0  -6   0   37.43    3.83
   0  -6   0   39.15    4.40
   0  -6   0   35.97    4.79
   0  -6   0   40.41    3.22
   0  -6   0   48.56    4.73
   0  -6   0   37.94    2.78
   0  -6   0   40.54   14.46
   0   6   0   29.47    3.48
   0   6   0   36.78    3.07
   0   6   0   40.96    4.36
   0   6   0   40.85    4.33
   0   6   0   37.20    3.97
  -1  -6   0  256.90   30.26
  -1  -6   0  252.03   10.25
  -1  -6   0  241.37   11.19
  -1  -6   0  237.48   11.01
  -1  -6   0  248.14    9.65
  -1  -6   0  246.97   11.65
  -1  -6   0  237.64   11.49
  -1  -6   0  240.66   11.34
   1   6   0  236.13   11.04
   1   6   0  244.80   11.37
   1   6   0  242.12    9.60
   1   6   0  251.00   10.32
  -2  -6   0  158.27    9.37
  -2  -6   0  167.05    8.30
  -2  -6   0  153.67    9.59
  -2  -6   0  142.63    7.62
  -2  -6   0  172.47   24.88
  -2  -6   0  159.80    9.60
  -2  -6   0  156.86    6.93
  -2  -6   0  159.59    9.78
   2   6   0  150.57    7.82
   2   6   0  153.72    7.04
  -3  -6   0   -0.19    2.05
  -3  -6   0    0.15    1.81
  -3  -6   0    1.10    1.81
  -3  -6   0   -0.64    1.38
  -3  -6   0    2.06    2.45
  -3  -6   0    2.19    5.96
   3   6   0    0.59    1.29
  -4  -6   0   55.34    9.09
  -4  -6   0   62.72    8.88
  -4  -6   0   54.46    8.42
  -4  -6   0   60.89    8.79
  -4  -6   0   58.18    7.65
  -4  -6   0   50.86    8.17
   4  -7   0   48.81    7.85
  -4   7   0   37.60    6.96
  -4   7   0   39.15    6.72
  -4   7   0   35.27    6.07
  -4   7   0   44.29    7.48
   3  -7   0   14.19    4.39
   3  -7   0   17.90   13.12
   3  -7   0   13.25    3.37
  -3   7   0   11.83    3.56
  -3   7   0   18.21    4.56
  -3   7   0   26.08    5.47
  -3   7   0   14.01    3.91
  -3   7   0   17.81    3.27
   2  -7   0    6.38    1.99
   2  -7   0   15.02    2.50
   2  -7   0   13.68    3.30
   2  -7   0    7.40    9.31
  -2   7   0   16.01    1.56
  -2   7   0   15.24    3.77
  -2   7   0    9.16    2.87
  -2   7   0   11.99    2.39
  -2   7   0   11.83    3.09
   1  -7   0   16.03    2.22
   1  -7   0    9.89    2.66
   1  -7   0   15.19    2.84
   1  -7   0   13.48    1.98
   1  -7   0    6.23    8.38
   1  -7   0   14.67    2.01
   1  -7   0   16.37    2.34
  -1   7   0   12.84    2.05
  -1   7   0    9.19    2.61
  -1   7   0   14.04    2.92
  -1   7   0   14.90    2.29
  -1   7   0    9.87    2.65
   0  -7   0   30.23    4.17
   0  -7   0   32.36    5.57
   0  -7   0   28.81    4.12
   0  -7   0   30.92    3.41
   0  -7   0   30.66    3.99
   0  -7   0   30.72    2.65
   0  -7   0   37.35    4.04
   0  -7   0   32.30   14.44
   0   7   0   36.93    4.47
   0   7   0   31.71    3.80
   0   7   0   28.63    3.87
  -1  -7   0  506.07   46.54
  -1  -7   0  466.45   20.14
  -1  -7   0  547.45   20.39
  -1  -7   0  507.88   18.16
  -1  -7   0  491.90   19.86
  -1  -7   0  500.98   19.74
  -1  -7   0  512.46   20.40
   1   7   0  494.08   20.14
   1   7   0  516.78   18.21
  -2  -7   0   42.97    5.73
  -2  -7   0   45.34    3.40
  -2  -7   0   43.51    5.99
  -2  -7   0   59.76    6.75
  -2  -7   0   39.47   16.54
  -2  -7   0   43.14    6.14
  -2  -7   0   53.27    4.59
   2   7   0   46.60    3.73
   2   7   0   44.80    3.49
   2   7   0   43.60    5.57
  -3  -7   0   14.24    3.98
  -3  -7   0   13.15    4.07
  -3  -7   0   12.97    3.97
  -3  -7   0   12.14    3.91
  -3  -7   0   15.53    3.19
  -3  -7   0   23.34   13.73
  -4  -7   0   25.73    6.41
  -4  -7   0   22.65    6.74
  -4  -7   0   29.17    6.31
  -4  -7   0   23.12    6.14
  -4  -7   0   25.94    5.42
  -4  -7   0   28.98    6.87
   4  -8   0   13.28    4.68
  -4   8   0   21.82    5.56
  -4   8   0   18.41    5.01
  -4   8   0   18.99    4.68
  -4   8   0   18.18    5.39
   3  -8   0    6.52   10.86
   3  -8   0   22.05    5.23
   3  -8   0   15.08    3.86
  -3   8   0   27.78    5.67
  -3   8   0   21.94    3.71
  -3   8   0   22.66    5.22
  -3   8   0   21.44    4.62
   2  -8   0  289.47   13.43
   2  -8   0  306.19   15.21
   2  -8   0  292.92   12.38
   2  -8   0  313.06   15.27
   2  -8   0  249.65   37.59
  -2   8   0  282.32   15.36
  -2   8   0  311.96   15.78
  -2   8   0  306.20   12.65
  -2   8   0  287.48   14.62
   1  -8   0  442.02   16.45
   1  -8   0  443.47   16.71
   1  -8   0  454.56   19.66
   1  -8   0  466.55   18.93
   1  -8   0  429.67   45.84
   1  -8   0  451.33   16.43
   1  -8   0  459.36   16.37
  -1   8   0  455.46   19.36
  -1   8   0  435.09   19.56
   0  -8   0    0.70    5.78
   0  -8   0    0.48    1.41
   0  -8   0   -0.06    1.16
   0  -8   0    0.76    2.09
   0  -8   0    0.65    1.72
   0  -8   0    1.24    1.29
   0  -8   0    0.64    1.32
   0  -8   0    0.24    0.81
   0   8   0    0.87    1.55
   0   8   0   -0.65    1.21
   0   8   0    1.62    1.46
  -1  -8   0   90.26    6.31
  -1  -8   0   78.64    6.69
  -1  -8   0   84.45    6.46
  -1  -8   0   90.40    6.94
  -1  -8   0   83.74    6.45
  -1  -8   0   86.20   24.97
   1   8   0   78.56    5.59
   1   8   0   84.19    5.28
   1   8   0   89.32    6.75
  -2  -8   0  354.00   16.89
  -2  -8   0  328.79   16.72
  -2  -8   0  364.22   17.08
  -2  -8   0  349.28   16.97
  -2  -8   0  306.36   39.62
  -2  -8   0  328.28   15.00
   2   8   0  362.54   13.98
   2   8   0  352.94   16.52
  -3  -8   0   77.79    9.33
  -3  -8   0   81.77    9.79
  -3  -8   0   95.87   10.46
  -3  -8   0   56.61    7.76
  -4   9   0    4.92    2.98
  -4   9   0    5.12    4.22
  -4   9   0    2.12    3.48
  -4   9   0    4.61    3.23
   3  -9   0    1.25    9.11
   3  -9   0    5.02    3.42
   3  -9   0    2.18    2.72
  -3   9   0    3.36    2.91
  -3   9   0    3.63    2.64
  -3   9   0    4.73    3.25
   2  -9   0  114.83   32.77
   2  -9   0  115.91    9.10
  -2   9   0  113.75    6.69
  -2   9   0  112.29    9.19
  -2   9   0  104.93    8.78
  -2   9   0  118.73    8.73
   1  -9   0   35.38    5.59
   1  -9   0   38.54    4.12
   1  -9   0   44.12    5.59
   1  -9   0   40.88    3.89
   1  -9   0   31.60   16.99
   1  -9   0   44.33    3.42
  -1   9   0   39.07    5.58
  -1   9   0   31.19    5.01
   0  -9   0  293.71   13.36
   0  -9   0  330.38   19.00
   0  -9   0  392.77   17.14
   0  -9   0  356.69   14.70
   0  -9   0  396.83   16.97
   0  -9   0  371.10   16.44
   0  -9   0  308.44   41.70
   0   9   0  351.76   16.30
   0   9   0  375.98   16.50
   0   9   0  374.40   15.82
  -1  -9   0  433.80   50.10
  -1  -9   0  495.92   20.30
  -1  -9   0  483.13   20.56
  -1  -9   0  517.54   21.91
  -1  -9   0  517.34   21.36
  -1  -9   0  508.60   21.75
   1   9   0  511.00   21.52
   1   9   0  495.59   19.08
   1   9   0  532.76   20.24
  -2  -9   0   -0.05    2.11
  -2  -9   0    0.74    2.04
  -2  -9   0   -0.61    1.84
  -2  -9   0    1.24    2.03
  -2  -9   0    8.28   10.71
  -2  -9   0    0.52    1.78
   2   9   0    2.10    1.52
   2   9   0   -0.21    1.73
   2   9   0    1.08    1.52
  -3  -9   0    3.53    2.88
  -3  -9   0    2.93    9.02
  -3  -9   0    0.39    2.23
  -3  -9   0    4.15    2.93
  -3  -9   0    0.20    2.60
   3 -10   0   20.91   17.85
   3 -10   0   56.35    7.48
  -3  10   0   53.27    7.71
  -3  10   0   43.01    7.33
  -3  10   0   70.19    9.43
   2 -10   0  216.77   39.78
   2 -10   0  251.76   14.54
  -2  10   0  261.05   15.12
  -2  10   0  244.57   15.16
  -2  10   0  259.29   11.52
  -2  10   0  282.41   14.91
   1 -10   0  127.35   29.78
   1 -10   0   81.42    5.42
   1 -10   0  100.98    6.77
   1 -10   0   72.45    7.68
   1 -10   0   80.00    8.81
  -1  10   0   88.09    7.97
  -1  10   0   83.43    8.61
  -1  10   0   86.75    8.72
   0 -10   0  314.51   12.51
   0 -10   0  275.56   42.56
   0 -10   0  254.77   14.65
   0 -10   0  292.54   15.16
   0 -10   0  286.39   13.17
   0 -10   0  278.25   17.79
   0 -10   0  304.48   15.00
   0  10   0  330.33   14.67
   0  10   0  319.99   15.54
   0  10   0  292.97   14.88
  -1 -10   0  160.76   33.12
  -1 -10   0  164.44   10.12
  -1 -10   0  178.44   11.45
  -1 -10   0  177.11   11.23
  -1 -10   0  157.06    9.66
  -1 -10   0  173.73   10.88
   1  10   0  175.74   11.07
   1  10   0  163.30    9.01
   1  10   0  185.04   10.09
  -2 -10   0  101.80   31.40
  -2 -10   0  134.25    9.13
  -2 -10   0  130.90    9.96
  -2 -10   0  133.12   10.30
  -2 -10   0  138.09   10.00
  -2 -10   0  138.03   10.16
   2  10   0  141.26    7.70
   2  10   0  104.89    9.08
  -3 -10   0    7.54    3.61
  -3 -10   0    2.25    3.05
  -3 -10   0    0.41    2.77
  -3 -10   0   -0.64    2.77
  -3 -10   0    3.43   10.32
   3 -11   0  214.45   14.33
  -3  11   0  222.30   15.36
  -3  11   0  227.85   14.79
  -3  11   0  227.32   16.03
   2 -11   0  405.33   20.07
   2 -11   0  285.39   48.17
  -2  11   0  415.83   19.99
  -2  11   0  425.30   20.62
  -2  11   0  389.08   20.54
   1 -11   0    0.34    1.96
   1 -11   0   -0.57    1.21
   1 -11   0    2.67   10.55
   1 -11   0    3.37    2.28
  -1  11   0    1.66    2.58
  -1  11   0   -0.67    1.74
  -1  11   0    1.25    2.48
   0 -11   0  174.96   11.50
   0 -11   0  162.21    9.18
   0 -11   0  178.76    8.50
   0 -11   0  167.16   11.41
   0 -11   0  142.21   10.31
   0 -11   0  106.67   32.93
   0  11   0  165.48   10.75
   0  11   0  171.05   11.17
   0  11   0  162.84   10.21
  -1 -11   0  254.17   14.55
  -1 -11   0  282.67   15.68
  -1 -11   0  271.82   13.42
  -1 -11   0  215.35   40.27
  -1 -11   0  276.22   14.01
  -1 -11   0  261.68   14.71
   1  11   0  281.71   15.21
   1  11   0  256.11   12.59
   1  11   0  267.75   13.56
  -2 -11   0   70.85    8.39
  -2 -11   0   65.77    8.66
  -2 -11   0   67.50    8.47
  -2 -11   0   78.91   30.17
  -2 -11   0   67.48    8.69
  -2 -11   0   55.51    7.09
   2  11   0   77.27    9.29
  -3 -11   0   13.15    4.76
  -3 -11   0   14.54    4.71
  -3 -11   0   16.29    5.16
  -3 -11   0    9.57    4.51
   3 -12   0   62.14    8.91
   3 -12   0   39.57   24.72
  -3  12   0   81.78   10.77
  -3  12   0   57.28    9.25
  -3  12   0   62.73    8.91
   2 -12   0    7.63    3.97
   2 -12   0   12.82    4.12
   2 -12   0    4.04   13.72
  -2  12   0    8.93    3.96
  -2  12   0   11.55    4.29
  -2  12   0   18.18    5.22
   1 -12   0   21.88    5.26
   1 -12   0   16.88   17.62
   1 -12   0   35.83    6.26
   1 -12   0   28.99    3.81
  -1  12   0   35.03    6.26
  -1  12   0   35.11    6.58
  -1  12   0   22.86    5.11
   0 -12   0   60.66    4.69
   0 -12   0   55.79    6.06
   0 -12   0   39.01    6.29
   0 -12   0   55.74    7.15
   0 -12   0   52.31    7.24
   0 -12   0   29.78   20.41
   0  12   0   54.05    7.39
   0  12   0   57.62    7.43
   0  12   0   62.59    7.37
  -1 -12   0  102.81   10.79
  -1 -12   0  103.76    8.33
  -1 -12   0   91.84    9.71
  -1 -12   0   94.29    9.89
  -1 -12   0   96.10    7.78
   1  12   0  109.32    9.39
   1  12   0  101.39    7.51
   1  12   0  100.96    8.04
  -2 -12   0   93.26    9.67
  -2 -12   0   94.39   10.82
  -2 -12   0   76.91    9.10
  -2 -12   0   86.40   10.22
  -2 -12   0   97.52   10.01
  -2 -12   0   63.00   28.29
   2  12   0   95.85   10.78
   2 -13   0   -0.58   12.26
   2 -13   0    2.55    3.15
   2 -13   0    0.07    2.66
  -2  13   0    4.86    3.58
  -2  13   0   -0.03    2.66
  -2  13   0    0.45    3.13
   1 -13   0    7.48    3.41
   1 -13   0    4.95   11.71
   1 -13   0   14.91    4.43
  -1  13   0   14.14    4.33
  -1  13   0    4.92    3.37
  -1  13   0   18.41    4.73
   0 -13   0    3.63    3.18
   0 -13   0    8.79    3.82
   0 -13   0   -1.72    9.66
   0 -13   0    5.11    3.57
   0 -13   0    5.27    2.53
   0  13   0    4.22    2.82
   0  13   0    3.74    2.83
   0  13   0    6.59    3.54
  -1 -13   0  327.62   16.06
  -1 -13   0  296.88   17.79
  -1 -13   0  305.23   17.54
  -1 -13   0  318.98   16.46
  -1 -13   0  313.89   17.76
   1  13   0  324.20   16.54
   1  13   0  323.36   18.11
  -2 -13   0   32.97    6.72
  -2 -13   0   32.19    6.86
  -2 -13   0   28.76    5.81
  -2 -13   0   34.66    6.75
  -2 -13   0   29.28    5.83
  -2 -13   0    5.68   13.82
   2  13   0   42.21    7.77
   2 -14   0    4.78    3.65
   2 -14   0    0.03   12.81
   2 -14   0   -0.71    3.14
  -2  14   0    3.05    3.71
  -2  14   0    3.13    3.80
  -2  14   0    5.08    4.03
   1 -14   0   15.67    4.67
   1 -14   0    6.46   14.27
   1 -14   0   11.71    4.78
  -1  14   0   14.61    5.09
  -1  14   0   11.98    4.52
  -1  14   0   15.37    4.55
   0 -14   0    0.95    2.86
   0 -14   0    2.22    2.66
   0 -14   0   -0.41   10.48
   0 -14   0    4.38    2.51
   0 -14   0   -1.04    2.61
   0  14   0    3.08    2.80
   0  14   0    0.69    2.51
   0  14   0    1.02    2.78
  -1 -14   0   -0.83    2.61
  -1 -14   0   -0.57    3.15
  -1 -14   0    1.63    9.63
  -1 -14   0   -3.18    2.26
  -1 -14   0   -2.04    2.48
   1  14   0   -2.55    2.22
   1 -15   0   36.25   26.71
   1 -15   0   37.67    7.62
  -1  15   0   31.66    6.86
  -1  15   0   22.76    6.31
  -1  15   0   36.92    7.07
   0 -15   0   90.61   38.28
   0 -15   0  117.86   12.38
   0 -15   0   87.76   10.81
   0 -15   0  110.94   12.11
   0  15   0  126.65   11.09
   0  15   0  109.23   12.08
   0  15   0  109.78   11.25
   0  15  -1   75.27    9.38
   0  15  -1   67.19    9.37
   0  15  -1   79.93    9.48
   0 -15   1   30.67   23.23
   0 -15   1   54.13    8.79
   0 -15   1   55.26    8.59
   0 -15   1   76.76   10.11
  -1  15  -1   75.22    9.99
  -1  15  -1   87.68   11.00
  -1  15  -1   72.24    9.98
   1 -15   1   70.44    9.37
   1 -15   1   83.11   10.90
   1 -15   1   36.69   26.36
   1  14  -1   -1.51    2.40
  -1 -14   1    0.91    2.80
  -1 -14   1   -1.33    2.26
  -1 -14   1    0.46   11.49
  -1 -14   1    0.88    3.13
  -1 -14   1   -0.43    2.07
   0  14  -1   -2.54    2.22
   0  14  -1   -0.70    2.33
   0  14  -1   -0.81    2.28
   0 -14   1   -0.74    9.56
   0 -14   1   -1.16    1.81
   0 -14   1   -0.18    2.24
   0 -14   1   -0.57    2.49
   0 -14   1    1.17    2.50
  -1  14  -1    1.50    2.85
  -1  14  -1   -0.93    3.10
  -1  14  -1    8.04    4.31
   1 -14   1    1.46    3.24
   1 -14   1    4.86   15.39
   1 -14   1    0.99    2.73
  -2  14  -1    3.32    3.59
  -2  14  -1    5.76    3.68
  -2  14  -1   -1.10    3.12
   2 -14   1   -6.70   10.27
   2 -14   1    0.28    3.14
   2  13  -1  105.63   11.30
  -2 -13   1   94.18   10.60
  -2 -13   1   97.21   11.45
  -2 -13   1  121.24   12.51
  -2 -13   1   91.13    9.94
  -2 -13   1  113.71    9.64
   1  13  -1   10.70    3.54
   1  13  -1    9.51    3.77
   1  13  -1   14.18    3.75
  -1 -13   1   13.04    4.18
  -1 -13   1   19.76    5.16
  -1 -13   1   16.32    4.29
  -1 -13   1   14.21    3.71
  -1 -13   1   13.99    4.32
  -1 -13   1    2.75   10.96
   0  13  -1    3.92    3.00
   0  13  -1    9.45    3.62
   0  13  -1    8.55    3.41
   0 -13   1    4.50    3.51
   0 -13   1    0.25    2.06
   0 -13   1    1.54   11.11
   0 -13   1    8.79    3.01
   0 -13   1    3.09    3.07
  -1  13  -1    7.71    3.67
  -1  13  -1    9.56    3.55
  -1  13  -1    5.35    3.13
   1 -13   1    8.64    3.65
   1 -13   1    5.61    2.33
   1 -13   1    1.89   11.31
   1 -13   1    7.18    3.08
  -2  13  -1    7.07    3.74
  -2  13  -1   17.86    5.31
  -2  13  -1    8.53    3.88
   2 -13   1    7.52   15.24
   2 -13   1   13.70    4.45
   2  12  -1   25.40    5.61
  -2 -12   1   19.16    4.46
  -2 -12   1   21.33    4.70
  -2 -12   1   21.28    5.19
  -2 -12   1   18.94   17.09
  -2 -12   1   24.99    5.85
  -2 -12   1   19.33    5.03
   1  12  -1    8.69    2.96
   1  12  -1    7.92    3.25
   1  12  -1    7.00    2.81
  -1 -12   1    7.74    3.38
  -1 -12   1    0.91   10.77
  -1 -12   1    2.46    2.63
  -1 -12   1    6.23    2.64
  -1 -12   1    5.44    3.14
  -1 -12   1    7.56    3.05
   0  12  -1   42.80    6.28
   0  12  -1   50.85    6.92
   0  12  -1   59.23    7.25
   0 -12   1   51.97    4.42
   0 -12   1   50.15    5.85
   0 -12   1   20.86   16.97
   0 -12   1   56.07    7.65
   0 -12   1   33.91    5.65
   0 -12   1   43.63    6.85
  -1  12  -1   -0.29    2.26
  -1  12  -1    3.34    2.88
  -1  12  -1    2.41    2.46
   1 -12   1    2.17    1.66
   1 -12   1   -0.55    2.23
   1 -12   1   -1.22    1.85
   1 -12   1   -2.05    7.53
  -2  12  -1    2.31    2.87
  -2  12  -1    1.37    2.98
  -2  12  -1   -1.73    2.45
   2 -12   1    4.30   12.21
   2 -12   1    2.53    2.80
  -3  12  -1   37.63    7.37
  -3  12  -1   38.29    7.99
  -3  12  -1   44.27    7.90
   3 -12   1   41.99    7.38
   3 -12   1   39.66   25.31
  -3 -11   1   -3.60    2.53
  -3 -11   1    0.88    3.09
  -3 -11   1    2.74    3.37
  -3 -11   1   -3.44    2.20
  -3 -11   1    5.05   10.76
   2  11  -1    0.06    2.19
  -2 -11   1    1.87   10.40
  -2 -11   1   -0.16    2.62
  -2 -11   1    3.71    2.81
  -2 -11   1   -1.03    2.06
  -2 -11   1    2.52    2.56
  -2 -11   1    3.73    2.49
   1  11  -1   30.05    5.59
   1  11  -1   33.73    4.78
   1  11  -1   31.05    4.87
  -1 -11   1   34.55    5.96
  -1 -11   1   41.85    5.71
  -1 -11   1   48.72   22.99
  -1 -11   1   27.69    5.16
  -1 -11   1   26.70    5.00
  -1 -11   1   31.04    4.91
   0  11  -1   10.35    3.36
   0  11  -1   21.37    4.43
   0  11  -1   15.52    3.76
   0 -11   1   18.30    4.34
   0 -11   1   16.55    2.83
   0 -11   1   13.94    3.11
   0 -11   1   13.87   14.64
   0 -11   1   11.72    3.60
   0 -11   1   19.38    4.21
  -1  11  -1  181.07   11.96
  -1  11  -1  171.84   11.42
  -1  11  -1  175.93   11.48
   1 -11   1  177.64   11.16
   1 -11   1  145.50   32.59
   1 -11   1  186.72    9.19
   1 -11   1  149.24   11.47
  -2  11  -1   79.91    9.39
  -2  11  -1   98.73    9.28
  -2  11  -1  101.18   10.19
   2 -11   1  107.41   34.21
   2 -11   1   83.82    9.70
  -3  11  -1  362.33   20.73
  -3  11  -1  381.87   20.38
  -3  11  -1  372.96   21.34
   3 -11   1  361.17   19.43
  -3 -10   1  201.50   13.79
  -3 -10   1  207.10   13.86
  -3 -10   1  194.72   13.81
  -3 -10   1  204.71   14.12
   2  10  -1  548.15   20.12
   2  10  -1  562.10   23.88
  -2 -10   1  411.57   52.91
  -2 -10   1  549.85   24.23
  -2 -10   1  577.48   24.15
  -2 -10   1  550.21   24.38
  -2 -10   1  535.02   24.31
  -2 -10   1  564.72   22.74
   1  10  -1  190.39   10.25
   1  10  -1  183.63   11.18
   1  10  -1  192.58    9.85
  -1 -10   1  193.12   10.90
  -1 -10   1  181.55   11.14
  -1 -10   1  164.56   11.17
  -1 -10   1  169.36   33.66
  -1 -10   1  204.14   11.72
  -1 -10   1  177.63   10.16
   0  10  -1   20.52    4.18
   0  10  -1   23.07    4.46
   0  10  -1   32.77    4.97
   0 -10   1   24.58    3.18
   0 -10   1   22.94    5.59
   0 -10   1   18.45    4.42
   0 -10   1   30.54    4.95
   0 -10   1   23.30    4.34
   0 -10   1   25.43    3.81
   0 -10   1   21.60   15.10
  -1  10  -1    0.78    2.11
  -1  10  -1    0.90    1.72
  -1  10  -1    3.38    2.37
   1 -10   1    3.06    2.21
   1 -10   1   -1.07    1.63
   1 -10   1    1.69    1.32
   1 -10   1    5.53    9.49
  -2  10  -1   36.11    6.56
  -2  10  -1   38.93    6.45
  -2  10  -1   42.46    4.88
  -2  10  -1   28.47    5.55
   2 -10   1   29.76    5.55
   2 -10   1   29.77   17.85
  -3  10  -1   38.73    7.41
  -3  10  -1   18.16    4.77
  -3  10  -1   27.69    6.02
   3 -10   1   27.92   19.46
   3 -10   1   27.11    5.55
   3 -10   1   26.69    5.54
  -3  -9   1   29.43    6.12
  -3  -9   1   31.16    6.06
  -3  -9   1   31.11    6.33
  -3  -9   1   28.17   17.32
  -3  -9   1   26.31    5.56
   2   9  -1   98.35    5.56
   2   9  -1   86.08    5.23
   2   9  -1   93.55    4.91
   2   9  -1   94.65    7.71
  -2  -9   1   73.12    7.96
  -2  -9   1   83.50   27.79
  -2  -9   1   70.16    7.85
  -2  -9   1   82.25    8.78
  -2  -9   1   71.95    8.18
  -2  -9   1   98.23    7.12
   1   9  -1   10.48    2.51
   1   9  -1   10.64    2.61
   1   9  -1   16.25    3.70
  -1  -9   1   12.63    3.09
  -1  -9   1   11.17    3.15
  -1  -9   1   12.08   12.70
  -1  -9   1   12.47    3.02
  -1  -9   1   12.26    3.27
  -1  -9   1   11.77    3.12
   0   9  -1  118.00    7.92
   0   9  -1  121.85    8.34
   0   9  -1  118.63    7.72
   0  -9   1  114.82    9.63
   0  -9   1  122.03    8.56
   0  -9   1  127.14    8.28
   0  -9   1  126.75    7.28
   0  -9   1  122.86    8.45
  -1   9  -1   43.45    5.72
  -1   9  -1   40.40    5.90
   1  -9   1   41.62    3.39
   1  -9   1   49.83    6.39
   1  -9   1   25.93   15.22
   1  -9   1   42.50    5.32
   1  -9   1   49.84    4.31
   1  -9   1   47.75    3.92
  -2   9  -1    4.92    2.63
  -2   9  -1   11.27    2.69
  -2   9  -1   14.29    3.89
  -2   9  -1   12.93    3.76
   2  -9   1   10.16    3.38
   2  -9   1   10.47   11.73
   2  -9   1    8.23    3.13
  -3   9  -1  416.00   21.18
  -3   9  -1  385.63   19.60
  -3   9  -1  378.28   17.10
  -3   9  -1  392.52   20.31
   3  -9   1  392.66   20.05
   3  -9   1  359.28   18.76
  -4   9  -1  143.72   12.70
  -4   9  -1  147.15   14.82
  -4   9  -1  142.80   11.60
  -4   9  -1  155.85   12.38
   4  -9   1  157.37   12.89
  -4  -8   1   -0.81    2.87
  -4  -8   1    0.86    3.16
  -4  -8   1    3.83    2.91
  -4  -8   1   -2.65    2.75
  -3  -8   1    9.98    3.61
  -3  -8   1    2.36    8.03
  -3  -8   1    4.90    3.28
  -3  -8   1   10.70    3.44
  -3  -8   1   17.68    4.35
   2   8  -1    0.26    0.97
   2   8  -1   -1.22    1.48
   2   8  -1   -0.61    0.64
  -2  -8   1    1.31    2.03
  -2  -8   1    1.72    2.42
  -2  -8   1   -1.40    1.71
  -2  -8   1    0.50    1.57
  -2  -8   1    4.44    8.07
  -2  -8   1   -0.10    1.98
   1   8  -1  293.99   12.23
   1   8  -1  310.73   13.92
   1   8  -1  297.65   12.23
   1   8  -1  288.41   12.51
  -1  -8   1  290.06   13.26
  -1  -8   1  264.12   36.23
  -1  -8   1  275.12   13.41
  -1  -8   1  301.12   14.00
  -1  -8   1  283.46   13.50
   0   8  -1    5.78    2.03
   0   8  -1    8.05    2.30
   0   8  -1    5.52    2.14
   0  -8   1    6.20    2.30
   0  -8   1    3.52    1.55
   0  -8   1   12.34    3.63
   0  -8   1    5.40    2.37
   0  -8   1    8.99    1.74
   0  -8   1   18.78   12.07
   0  -8   1    7.51    2.18
  -1   8  -1   90.67    5.79
  -1   8  -1   73.38    6.43
  -1   8  -1   88.63    7.09
   1  -8   1   94.48    5.68
   1  -8   1   90.28    4.80
   1  -8   1   92.78    6.60
   1  -8   1  101.10   22.56
   1  -8   1   90.35    5.31
   1  -8   1   96.62    7.34
  -2   8  -1  208.59    9.92
  -2   8  -1  193.75   11.95
  -2   8  -1  189.10   11.42
   2  -8   1  172.52   30.23
   2  -8   1  212.75   10.48
   2  -8   1  193.10   11.47
   2  -8   1  193.42   11.70
  -3   8  -1   22.15    4.61
  -3   8  -1   31.56    4.58
  -3   8  -1   19.46    4.32
  -3   8  -1   23.83    5.11
   3  -8   1   19.49    4.43
   3  -8   1   10.17   11.38
   3  -8   1   24.67    5.26
  -4   8  -1    5.44    3.54
  -4   8  -1    9.52    4.33
  -4   8  -1    6.73    3.18
  -4   8  -1    9.83    4.34
   4  -8   1    2.57    3.26
  -4  -7   1    1.83    2.74
  -4  -7   1   -2.23    2.68
  -4  -7   1    1.17    2.83
  -4  -7   1   -0.46    2.73
  -4  -7   1   -0.57    3.21
  -4  -7   1   -0.93    2.80
  -3  -7   1   82.43    9.04
  -3  -7   1   89.73    9.81
  -3  -7   1   62.13   20.77
  -3  -7   1   54.78    7.46
  -3  -7   1   86.63    8.91
   2   7  -1   38.09    4.41
   2   7  -1   32.41    4.46
   2   7  -1   32.70    2.61
   2   7  -1   30.23    3.05
  -2  -7   1   24.35    4.42
  -2  -7   1   25.03    4.34
  -2  -7   1   35.76    5.26
  -2  -7   1   30.64    2.28
  -2  -7   1   31.87    3.83
  -2  -7   1   29.06    4.51
  -2  -7   1   19.58   12.17
   1   7  -1   38.47    3.38
   1   7  -1   43.96    3.57
   1   7  -1   44.57    4.93
   1   7  -1   51.51    3.69
  -1  -7   1   40.23    4.60
  -1  -7   1   43.62    4.97
  -1  -7   1   59.92   18.73
  -1  -7   1   43.07    3.46
  -1  -7   1   51.09    4.37
  -1  -7   1   32.28    4.41
  -1  -7   1   32.55    4.29
   0   7  -1  306.01   13.53
   0   7  -1  312.83   12.98
   0   7  -1  298.42   13.61
   0   7  -1  302.09   13.25
   0  -7   1  318.11   13.28
   0  -7   1  317.73   12.81
   0  -7   1  327.48   14.00
   0  -7   1  311.99   15.79
   0  -7   1  319.68   13.75
   0  -7   1  316.04   35.90
   0  -7   1  316.91   11.83
  -1   7  -1  958.51   34.76
  -1   7  -1  980.92   33.01
   1  -7   1  925.46   34.13
   1  -7   1  957.42   34.87
   1  -7   1  965.95   32.27
   1  -7   1  971.25   31.22
   1  -7   1  964.91   33.90
   1  -7   1  973.04   32.72
   1  -7   1 1003.59   68.14
  -2   7  -1    3.78    2.26
  -2   7  -1    7.40    2.83
  -2   7  -1    3.90    1.70
   2  -7   1    5.56    8.24
   2  -7   1    4.28    1.69
   2  -7   1    0.39    1.05
   2  -7   1    1.98    1.89
  -3   7  -1    9.54    2.92
  -3   7  -1   10.81    3.62
  -3   7  -1    7.58    2.95
  -3   7  -1   10.41    3.35
   3  -7   1    6.26    9.42
   3  -7   1   10.18    3.67
   3  -7   1    7.58    3.03
  -4   7  -1    2.25    2.98
  -4   7  -1    2.36    2.72
  -4   7  -1    1.28    2.54
   4  -7   1   -0.88    2.73
  -4  -6   1   15.93    5.28
  -4  -6   1   17.03    4.89
  -4  -6   1   20.41    5.19
  -4  -6   1   18.39    5.18
  -4  -6   1   12.34    4.00
  -4  -6   1   15.54    4.84
  -3  -6   1   45.96    4.62
  -3  -6   1   42.75    6.00
  -3  -6   1   42.10   17.03
  -3  -6   1   45.44    6.81
  -3  -6   1   44.69    6.45
  -3  -6   1   40.04    5.92
   2   6  -1    2.87    1.19
   2   6  -1    0.18    1.16
   2   6  -1    1.22    0.80
  -2  -6   1    2.31    1.91
  -2  -6   1   -0.94    1.52
  -2  -6   1   -0.35    1.51
  -2  -6   1    1.51    5.09
  -2  -6   1    3.08    1.88
  -2  -6   1    0.12    0.94
  -2  -6   1    2.27    0.86
   1   6  -1  250.85   10.26
   1   6  -1  243.42   11.33
   1   6  -1  250.39   10.16
   1   6  -1  255.91   11.40
  -1  -6   1  289.43   20.37
  -1  -6   1  242.26   11.35
  -1  -6   1  252.69   10.13
  -1  -6   1  255.44   11.73
  -1  -6   1  286.77   31.50
  -1  -6   1  255.87   11.40
  -1  -6   1  260.49   12.02
   0   6  -1  548.83   20.10
   0   6  -1  540.59   20.42
   0   6  -1  546.70   22.61
   0   6  -1  560.96   19.79
   0   6  -1  554.44   20.31
   0   6  -1  586.95   21.73
   0  -6   1  548.65   18.66
   0  -6   1  551.33   22.68
   0  -6   1  582.10   45.69
   0  -6   1  521.66   20.23
   0  -6   1  525.16   19.52
   0  -6   1  559.97   20.10
   0  -6   1  560.72   20.91
   0  -6   1  493.03   19.35
   0  -6   1  554.14   20.43
   0  -6   1  533.07   20.45
  -1   6  -1    6.88    1.59
  -1   6  -1    3.06    1.57
  -1   6  -1    5.68    1.60
  -1   6  -1    9.48    2.63
  -1   6  -1    4.30    1.50
   1  -6   1    7.54    7.60
   1  -6   1    7.31    2.35
   1  -6   1    5.00    1.92
   1  -6   1    4.97    1.66
   1  -6   1    8.04    1.73
   1  -6   1    6.82    1.61
   1  -6   1    8.90    1.22
  -2   6  -1   41.46    2.32
  -2   6  -1   54.37    6.27
  -2   6  -1   37.87    4.08
  -2   6  -1   45.34    4.28
  -2   6  -1   41.04    5.18
  -2   6  -1   44.31    4.03
   2  -6   1   39.05    4.75
   2  -6   1   38.90    4.29
   2  -6   1   57.24   18.51
  -3   6  -1   -0.62    1.62
  -3   6  -1   -1.21    1.04
  -3   6  -1   -0.77    1.77
  -3   6  -1   -0.34    1.57
  -3   6  -1    0.04    1.73
   3  -6   1    0.32    1.78
   3  -6   1    1.44    6.27
   3  -6   1   -0.84    1.53
  -4   6  -1    0.51    2.31
  -4   6  -1   -0.33    2.09
  -4   6  -1   -0.75    1.89
  -4   6  -1   -1.03    2.16
   4  -6   1    2.23    2.56
  -4  -5   1   -0.01    2.80
  -4  -5   1    3.91    3.86
  -4  -5   1   -1.45    1.81
  -4  -5   1   -2.56    2.27
  -4  -5   1   -0.81    2.17
  -4  -5   1    0.01    2.23
  -3  -5   1  280.88   14.96
  -3  -5   1  277.22   11.81
  -3  -5   1  258.73   14.14
  -3  -5   1  283.37   14.16
  -3  -5   1  264.86   14.81
  -3  -5   1  275.22   11.15
   2   5  -1   -0.56    0.89
   2   5  -1   -0.97    0.66
  -2  -5   1    1.46    1.54
  -2  -5   1   -1.46    0.63
  -2  -5   1    0.61    0.62
  -2  -5   1   -1.38    1.06
  -2  -5   1    1.77    1.61
  -2  -5   1    1.27    0.94
  -2  -5   1    1.33    1.51
  -2  -5   1   -0.07    0.53
   1   5  -1   21.05    2.56
   1   5  -1   19.88    2.15
   1   5  -1   19.90    2.27
   1   5  -1   16.94    1.63
   1   5  -1   21.92    2.88
   1   5  -1   21.09    2.82
  -1  -5   1   17.78    2.55
  -1  -5   1   18.79    2.59
  -1  -5   1   16.25    2.91
  -1  -5   1   14.51    2.68
  -1  -5   1   25.25   11.69
  -1  -5   1   12.41    2.41
  -1  -5   1   17.75    2.73
  -1  -5   1   22.41    2.33
  -1  -5   1   14.42    4.47
   0   5  -1  162.53    7.74
   0   5  -1  168.73    7.43
   0   5  -1  169.73    8.20
   0   5  -1  166.65    7.86
   0   5  -1  168.55    7.75
   0   5  -1  160.73    7.33
   0  -5   1  144.26   20.18
   0  -5   1  164.98    7.80
   0  -5   1  176.56    7.81
   0  -5   1  195.03    9.86
   0  -5   1  168.07    7.70
   0  -5   1  160.39    7.34
   0  -5   1  177.88    7.99
   0  -5   1  164.27    6.69
   0  -5   1  164.64    7.28
   0  -5   1  157.00    8.11
  -1   5  -1 2106.85   94.17
  -1   5  -1 1966.01   64.76
  -1   5  -1 2005.38   65.22
  -1   5  -1 2003.33   65.00
  -1   5  -1 1993.16   63.25
  -1   5  -1 1966.55   63.91
  -1   5  -1 2040.39   65.41
  -1   5  -1 1986.96   63.74
   1  -5   1 2087.28   63.86
   1  -5   1 2073.32   95.62
   1  -5   1 2031.02   63.70
   1  -5   1 1968.79   64.84
   1  -5   1 1989.67   65.33
   1  -5   1 1955.85   61.78
   1  -5   1 1997.00   63.35
   1  -5   1 1994.93   64.90
  -2   5  -1  169.00   22.99
  -2   5  -1  171.03    8.60
  -2   5  -1  177.09    9.57
  -2   5  -1  174.56    8.08
  -2   5  -1  173.26   10.38
  -2   5  -1  179.83    9.93
  -2   5  -1  176.64    7.04
   2  -5   1  174.55    7.03
   2  -5   1  178.81    8.72
   2  -5   1  172.23    7.13
   2  -5   1  177.39    9.16
   2  -5   1  167.57   24.11
   2  -5   1  176.70    9.78
  -3   5  -1    5.18    2.43
  -3   5  -1    3.80    2.52
  -3   5  -1    5.97    2.51
  -3   5  -1    5.89    2.53
  -3   5  -1    6.26    1.55
  -3   5  -1    6.72    2.07
   3  -5   1    7.94    8.50
   3  -5   1    5.86    2.19
   3  -5   1    5.86    2.77
  -4   5  -1    6.36    3.24
  -4   5  -1    4.16    2.86
  -4   5  -1    5.10    3.55
  -4   5  -1    7.36    2.83
  -4   5  -1    8.11    3.39
   4  -5   1    0.88    2.60
  -4  -4   1   -0.03    2.49
  -4  -4   1    3.20    3.07
  -4  -4   1    1.48    2.72
  -4  -4   1    1.06    2.39
  -4  -4   1    1.35    2.28
  -4  -4   1    5.36    3.73
   3   4  -1   19.48    2.85
  -3  -4   1   13.39    3.73
  -3  -4   1   22.04    2.98
  -3  -4   1   14.48    3.36
  -3  -4   1   18.47    4.24
  -3  -4   1   23.21    4.41
  -3  -4   1   17.03    2.71
  -3  -4   1   20.73    1.81
   2   4  -1   37.71    3.04
   2   4  -1   42.32    2.80
   2   4  -1   38.12    2.72
  -2  -4   1   41.34    4.75
  -2  -4   1   38.76    2.34
  -2  -4   1   42.68    4.87
  -2  -4   1   38.27    4.14
  -2  -4   1   38.53    2.64
  -2  -4   1   32.36    4.55
  -2  -4   1   42.50    3.17
  -2  -4   1   41.01    4.62
  -2  -4   1   43.27    2.19
  -2  -4   1   42.87    2.96
   1   4  -1 1343.34   43.00
   1   4  -1 1359.23   43.57
   1   4  -1 1379.49   42.40
   1   4  -1 1374.53   42.64
   1   4  -1 1404.64   44.04
   1   4  -1 1319.00   44.30
   1   4  -1 1334.83   42.25
  -1  -4   1 1383.06   44.42
  -1  -4   1 1448.16   52.16
  -1  -4   1 1330.09   44.45
  -1  -4   1 1345.51   42.57
  -1  -4   1 1380.97   43.54
  -1  -4   1 1356.86   44.63
  -1  -4   1 1164.69   44.13
  -1  -4   1 1343.23   43.70
   0   4  -1   60.24    4.03
   0   4  -1   77.47    4.35
   0   4  -1   81.88    4.13
   0   4  -1   66.90    4.16
   0   4  -1   78.61    4.69
   0   4  -1   79.50    4.13
   0   4  -1   81.15    4.38
   0  -4   1   77.04    3.61
   0  -4   1   82.17    5.46
   0  -4   1   81.63    4.40
   0  -4   1   73.42    4.25
   0  -4   1   70.96    4.27
   0  -4   1   77.53    4.37
   0  -4   1   74.84    4.06
   0  -4   1   75.23    4.30
   0  -4   1   79.73    4.74
  -1   4  -1 1020.74   34.37
  -1   4  -1 1088.13   56.36
  -1   4  -1  978.13   33.31
  -1   4  -1 1051.55   33.21
  -1   4  -1 1024.77   34.75
  -1   4  -1  966.14   33.39
  -1   4  -1 1024.44   34.48
  -1   4  -1  998.28   34.24
   1  -4   1 1067.69   33.32
   1  -4   1 1021.14   34.45
   1  -4   1 1035.53   33.54
   1  -4   1 1012.59   33.51
   1  -4   1 1004.31   34.26
  -2   4  -1   11.45    1.46
  -2   4  -1    9.26    1.71
  -2   4  -1   11.39    7.30
  -2   4  -1    9.09    2.28
  -2   4  -1   14.58    3.71
  -2   4  -1    7.37    2.14
  -2   4  -1    8.42    2.13
  -2   4  -1   10.48    2.60
  -2   4  -1   15.81    2.79
  -2   4  -1   11.62    1.88
   2  -4   1    6.68    2.09
   2  -4   1    9.53    2.24
   2  -4   1    8.79    2.17
  -3   4  -1   -0.18    1.50
  -3   4  -1    2.06    1.70
  -3   4  -1   -1.80    1.20
  -3   4  -1    4.41    2.43
  -3   4  -1    3.84    6.25
  -3   4  -1    1.41    1.86
  -3   4  -1    1.76    1.27
  -3   4  -1    2.00    1.52
  -3   4  -1   -0.54    1.61
   3  -4   1   -0.08    1.70
   3  -4   1   -1.59    1.16
   3  -4   1    5.13    7.11
  -4   4  -1  167.13   12.77
  -4   4  -1  205.17   11.82
  -4   4  -1  186.00   12.33
  -4   4  -1  188.97   11.93
  -4   4  -1  199.98   12.36
  -4   4  -1  190.40   11.20
  -4   4  -1  192.45   12.95
   4  -4   1  186.85   12.44
  -4  -3   1   63.09    7.07
  -4  -3   1   45.62    7.31
  -4  -3   1   73.29    9.69
  -4  -3   1   44.89    7.68
  -4  -3   1   45.91    6.95
  -4  -3   1   45.26    6.88
   3   3  -1   94.74    5.54
  -3  -3   1   69.97    5.34
  -3  -3   1   83.11    7.27
  -3  -3   1   86.05    7.09
  -3  -3   1   78.98    4.42
  -3  -3   1   86.08    5.84
  -3  -3   1   77.99    4.99
  -3  -3   1   84.65    7.16
  -3  -3   1   79.00    6.36
  -3  -3   1   72.40    4.99
   2   3  -1   10.69    1.67
   2   3  -1   11.12    1.77
  -2  -3   1    9.13    2.07
  -2  -3   1   11.77    2.83
  -2  -3   1   11.68    1.84
  -2  -3   1   11.31    1.82
  -2  -3   1    9.74    1.57
  -2  -3   1   10.11    1.31
  -2  -3   1   11.45    2.41
  -2  -3   1   10.99    1.46
  -2  -3   1    7.43    2.22
  -2  -3   1    8.43    2.32
   1   3  -1   98.31    5.95
   1   3  -1   91.20    4.99
   1   3  -1   95.21    5.07
   1   3  -1   93.76    3.94
   1   3  -1   90.42    4.32
   1   3  -1   88.05    4.10
   1   3  -1   90.68    3.93
   1   3  -1   86.45    3.49
   1   3  -1   92.79    3.70
   1   3  -1   94.72    4.75
  -1  -3   1   86.00    3.46
  -1  -3   1   91.29    4.59
  -1  -3   1   87.12    5.04
  -1  -3   1   74.05    7.79
  -1  -3   1   98.38    5.18
  -1  -3   1   99.46    5.35
  -1  -3   1   89.30    4.12
  -1  -3   1   92.42    4.32
  -1  -3   1   89.99    3.89
   0   3  -1 1795.81   56.70
   0   3  -1 1768.93   56.41
   0   3  -1 1722.61   56.64
   0   3  -1 1794.91   57.04
   0   3  -1 1791.71   56.69
   0   3  -1 1747.61   56.25
   0   3  -1 1959.18   58.44
   0  -3   1 1754.75   56.66
   0  -3   1 1926.26   58.21
   0  -3   1 1825.70   56.48
   0  -3   1 1823.40   56.77
   0  -3   1 1850.82   56.72
   0  -3   1 1781.30   57.05
   0  -3   1 1769.03   56.33
   0  -3   1 1771.59   56.70
   0  -3   1 1740.95   56.61
  -1   3  -1   33.75    2.94
  -1   3  -1   36.86    3.05
  -1   3  -1   29.74    2.30
  -1   3  -1   34.46    1.87
  -1   3  -1   37.41    3.26
  -1   3  -1   37.48    2.61
  -1   3  -1   33.54    2.93
  -1   3  -1   37.07    3.21
  -1   3  -1   44.57    9.12
  -1   3  -1   37.80    2.74
   1  -3   1   35.22    2.74
   1  -3   1   35.08    2.71
   1  -3   1   42.03    8.95
   1  -3   1   35.21    2.98
   1  -3   1   33.35    3.00
  -2   3  -1  233.93   14.51
  -2   3  -1  236.18   11.08
  -2   3  -1  249.33   11.31
  -2   3  -1  233.71   22.71
  -2   3  -1  249.69   10.09
  -2   3  -1  243.78   10.97
  -2   3  -1  237.09   10.88
  -2   3  -1  258.02   10.48
  -2   3  -1  252.62   11.30
   2  -3   1  248.12   10.91
   2  -3   1  246.05   10.32
   2  -3   1  203.29   21.90
   2  -3   1  263.57   11.64
  -3   3  -1    2.99    1.80
  -3   3  -1   -0.32    4.20
  -3   3  -1    3.66    2.59
  -3   3  -1    0.83    1.60
  -3   3  -1    2.52    1.53
  -3   3  -1    1.27    1.63
  -3   3  -1    5.78    2.41
  -3   3  -1    0.55    1.68
   3  -3   1   -0.01    0.88
   3  -3   1    1.66    1.98
   3  -3   1   -0.14    3.26
  -4   3  -1   67.84    7.55
  -4   3  -1   65.24    8.10
  -4   3  -1   68.58    7.58
  -4   3  -1   76.40    7.93
  -4   3  -1   72.13    8.24
  -4   3  -1   77.12    9.38
  -4   3  -1   67.98    9.07
   4  -3   1   87.24    9.16
   4   2  -1   92.60    6.62
  -4  -2   1   77.76    7.20
  -4  -2   1   77.89    9.73
  -4  -2   1   91.63    9.73
  -4  -2   1   95.04   10.66
  -4  -2   1   67.33    8.62
  -4  -2   1   73.60    7.59
  -4  -2   1   81.05    9.07
   3   2  -1  269.31   11.65
  -3  -2   1  275.66   13.79
  -3  -2   1  248.64   10.91
  -3  -2   1  282.78   11.10
  -3  -2   1  251.66   13.71
  -3  -2   1  250.80   11.19
  -3  -2   1  262.46   13.94
  -3  -2   1  254.41   11.56
  -3  -2   1  259.58   14.46
  -3  -2   1  295.75   12.31
  -3  -2   1  273.11   13.79
  -3  -2   1  278.99   12.73
  -3  -2   1  268.26   12.50
   2   2  -1   31.80    2.60
   2   2  -1   36.18    2.80
   2   2  -1   37.35    3.87
  -2  -2   1   41.50    4.48
  -2  -2   1   33.97    3.82
  -2  -2   1   36.79    2.50
  -2  -2   1   31.07    2.61
  -2  -2   1   32.84    3.07
  -2  -2   1   34.42    4.30
  -2  -2   1   31.98    4.11
  -2  -2   1   38.26    3.29
  -2  -2   1   36.54    2.68
   1   2  -1 9066.93  288.08
   1   2  -1 9606.66  295.21
   1   2  -1 9026.82  288.06
  -1  -2   1 9999.00  295.43
   0   2  -1  968.22   30.04
   0   2  -1 1036.56   31.29
   0   2  -1  939.97   29.97
   0   2  -1  916.37   30.32
   0   2  -1  939.50   30.19
   0   2  -1  908.35   29.74
   0   2  -1  915.17   30.00
   0   2  -1  955.89   30.16
   0   2  -1  948.21   30.04
   0  -2   1  951.58   30.06
   0  -2   1  930.15   30.08
   0  -2   1 1047.40   31.30
   0  -2   1  923.55   29.98
   0  -2   1  948.14   29.99
   0  -2   1  903.82   30.13
   0  -2   1  955.95   30.05
   0  -2   1  948.41   29.79
   0  -2   1  938.01   30.33
  -1   2  -1 2149.52   66.34
  -1   2  -1 1993.46   63.61
  -1   2  -1 1945.63   62.58
  -1   2  -1 2092.69   63.73
  -1   2  -1 1988.88   63.45
  -1   2  -1 2144.63   77.59
  -1   2  -1 2003.93   63.79
  -1   2  -1 1963.79   63.52
  -1   2  -1 1958.03   63.68
   1  -2   1 2033.65   63.63
   1  -2   1 2004.14   63.39
   1  -2   1 1940.07   62.60
   1  -2   1 1959.50   61.98
   1  -2   1 2193.53   78.27
   1  -2   1 2025.43   63.88
   1  -2   1 2015.59   63.57
   1  -2   1 1941.53   63.66
  -2   2  -1    6.71    1.79
  -2   2  -1    6.57    1.90
  -2   2  -1    7.10    2.07
  -2   2  -1   10.19    2.38
  -2   2  -1   14.66    5.99
  -2   2  -1    6.50    1.56
  -2   2  -1   11.62    4.12
  -2   2  -1    9.33    1.63
  -2   2  -1    7.21    1.87
   2  -2   1    7.03    1.52
   2  -2   1    6.07    1.96
   2  -2   1   12.83    6.57
  -3   2  -1  127.45    8.01
  -3   2  -1  117.75    8.77
  -3   2  -1  118.50    6.41
  -3   2  -1   90.22   14.38
  -3   2  -1  122.73    7.61
  -3   2  -1  123.91    8.75
  -3   2  -1  109.73    7.37
  -3   2  -1  136.43    8.84
   3  -2   1  123.00    8.14
   3  -2   1  125.25    5.83
  -4   2  -1  163.58   11.86
  -4   2  -1  197.44   12.98
  -4   2  -1  173.07   11.05
  -4   2  -1  155.86   11.99
  -4   2  -1  152.32    9.93
  -4   2  -1  164.00   10.10
   4  -2   1  160.57   10.82
   4   1  -1    2.24    2.05
  -4  -1   1    0.26    2.82
  -4  -1   1   -2.82    2.05
  -4  -1   1    0.78    2.13
  -4  -1   1    0.33    1.57
  -4  -1   1    1.70    2.33
  -4  -1   1   -1.71    1.73
  -4  -1   1    0.83    2.07
  -4  -1   1    0.11    1.88
   3   1  -1    2.73    1.61
  -3  -1   1    1.31    1.16
  -3  -1   1    1.35    1.45
  -3  -1   1    0.38    1.38
  -3  -1   1    2.92    5.38
  -3  -1   1   -1.19    1.53
  -3  -1   1    1.19    1.43
  -3  -1   1    2.21    1.85
  -3  -1   1   -0.30    1.42
  -3  -1   1    0.40    2.09
  -3  -1   1    1.78    1.94
  -3  -1   1    3.14    1.55
  -3  -1   1    2.95    2.41
   2   1  -1   35.36    2.97
   2   1  -1   33.65    2.73
  -2  -1   1   42.17    4.58
  -2  -1   1   54.70   11.30
  -2  -1   1   35.65    3.70
  -2  -1   1   43.50    4.61
  -2  -1   1   40.27    3.07
  -2  -1   1   36.88    2.90
  -2  -1   1   27.54    3.51
  -2  -1   1   32.67    2.72
  -2  -1   1   36.49    2.89
   1   1  -1  742.37   25.55
   1   1  -1  812.68   24.76
   1   1  -1  804.88   25.78
   1   1  -1  779.64   24.61
  -1  -1   1  785.48   25.92
  -1  -1   1  753.32   25.45
  -1  -1   1  770.21   25.67
  -1  -1   1  771.39   24.68
  -1  -1   1  785.97   24.62
  -1  -1   1  782.73   25.72
   0   1  -1 1971.35   62.06
   0   1  -1 1965.39   62.33
   0   1  -1 2045.92   62.40
   0   1  -1 2044.21   62.00
   0   1  -1 2023.15   62.20
   0   1  -1 2081.54   62.43
   0   1  -1 1972.70   62.04
   0  -1   1 2051.28   62.28
   0  -1   1 2040.36   62.41
   0  -1   1 2030.63   62.40
   0  -1   1 2051.05   62.01
   0  -1   1 2052.33   62.32
   0  -1   1 1971.29   62.04
   0  -1   1 2024.71   62.19
  -1   1  -1 1333.57   43.69
  -1   1  -1 1347.73   43.59
  -1   1  -1 1347.38   43.82
  -1   1  -1 1314.89   43.99
  -1   1  -1 1338.52   44.01
  -1   1  -1 1526.06   51.36
  -1   1  -1 1391.05   43.30
  -1   1  -1 1328.48   43.45
   1  -1   1 1353.96   43.69
   1  -1   1 1584.54   51.95
   1  -1   1 1368.48   43.60
   1  -1   1 1286.91   43.90
   1  -1   1 1362.88   43.51
   1  -1   1 1348.17   43.88
   1  -1   1 1371.13   43.25
   1  -1   1 1367.26   44.09
  -2   1  -1  340.94   14.62
  -2   1  -1  340.18   22.18
  -2   1  -1  374.31   14.85
  -2   1  -1  357.03   13.55
  -2   1  -1  342.74   12.60
  -2   1  -1  347.94   20.22
  -2   1  -1  344.70   13.87
  -2   1  -1  342.46   13.93
  -2   1  -1  342.52   13.60
   2  -1   1  314.44   22.46
   2  -1   1  351.25   14.07
   2  -1   1  349.16   12.27
  -3   1  -1    3.49    4.19
  -3   1  -1   13.15    2.43
  -3   1  -1    7.63    2.61
  -3   1  -1   11.52    2.63
  -3   1  -1    9.85    2.43
  -3   1  -1   10.83    3.19
  -3   1  -1    8.24    2.96
  -3   1  -1   12.28    3.57
   3  -1   1    9.75    1.42
   3  -1   1   14.95    3.25
  -4   1  -1    1.87    2.14
  -4   1  -1    7.02    3.36
  -4   1  -1    3.96    2.33
  -4   1  -1    2.43    3.03
  -4   1  -1    5.88    3.38
  -4   1  -1   -1.68    2.36
   4  -1   1    6.73    2.95
   4   0  -1   -0.58    1.77
  -4   0   1   -1.14    1.64
  -4   0   1    1.01    1.92
  -4   0   1   -0.16    2.18
  -4   0   1    0.10    1.69
  -4   0   1    0.23    2.41
  -4   0   1    1.44    2.29
  -4   0   1    2.59    2.97
  -4   0   1    0.77    2.08
  -4   0   1    0.84    1.70
   3   0  -1   72.95    5.50
  -3   0   1   60.31    6.81
  -3   0   1   72.94    6.69
  -3   0   1   74.65    5.09
  -3   0   1   72.11    5.30
  -3   0   1   71.46    6.18
  -3   0   1   69.86    3.72
  -3   0   1   57.67    6.92
  -3   0   1   74.24    5.52
  -2   0   1  965.61   32.15
  -2   0   1  951.01   33.09
  -2   0   1  951.24   40.49
  -2   0   1  974.05   33.47
  -2   0   1  915.42   31.32
  -2   0   1  921.58   30.61
  -2   0   1  964.91   31.85
  -2   0   1  938.29   32.89
  -2   0   1 1007.03   52.67
  -2   0   1  959.66   32.13
   1   0  -1   11.96    3.52
   1   0  -1   14.47    1.66
   1   0  -1    9.61    5.18
  -1   0   1   10.24    3.14
  -1   0   1   15.40    1.38
  -1   0   1   11.55    1.75
  -1   0   1   15.21    1.80
  -1   0   1   17.04    1.73
  -1   0   1    7.67    4.53
  -1   0   1   12.86    1.41
  -1   0   1   13.11    0.98
   0   0  -1   79.40    2.67
   0   0  -1   80.37    2.72
   0   0   1   55.09    2.37
   0   0   1   54.69    2.49
   0   0   1   53.31    2.42
   0   0   1   67.56    3.41
   0   0   1   73.89    2.58
   0   0   1   66.35    5.48
  -1   0  -1   -2.46    0.27
  -2   0  -1  284.21   12.16
  -2   0  -1  281.21   10.15
  -2   0  -1  290.90   12.63
  -2   0  -1  276.13   11.34
  -2   0  -1  255.99   17.68
  -2   0  -1  281.22   10.80
  -2   0  -1  227.24   11.90
  -2   0  -1  288.86   12.87
  -2   0  -1  272.05   11.40
  -2   0  -1  267.35   10.60
   2   0   1  291.97   11.71
   2   0   1  287.39    9.70
  -3   0  -1  107.01    8.33
  -3   0  -1  107.70    4.98
  -3   0  -1  127.00    6.80
  -3   0  -1  111.00    8.54
  -3   0  -1  125.48    8.43
  -3   0  -1  116.81    7.25
  -3   0  -1  120.73    5.28
  -3   0  -1  115.93    6.60
  -3   0  -1  125.82    8.96
   3   0   1  130.21    7.83
  -4   0  -1   20.15    3.88
  -4   0  -1   19.96    4.72
  -4   0  -1   26.14    5.63
  -4   0  -1   14.08    4.21
  -4   0  -1   19.67    5.48
   4   0   1   23.95    4.59
   4  -1  -1  112.81    8.44
  -4   1   1  117.59    8.46
  -4   1   1  128.70   10.16
  -4   1   1  113.44    9.64
  -4   1   1  108.42    7.73
  -4   1   1  129.94   10.10
  -4   1   1  118.70    9.12
  -4   1   1  128.16    8.57
  -4   1   1  116.38    8.26
  -4   1   1  112.96    9.89
  -4   1   1  124.28    9.43
  -4   1   1  117.76    7.91
   3  -1  -1  245.36   11.56
  -3   1   1  239.40   12.85
  -3   1   1  234.20   11.45
  -3   1   1  217.51   12.31
  -3   1   1  239.11   10.91
  -3   1   1  238.56   12.10
  -3   1   1  239.08   11.07
  -3   1   1  228.48   12.49
   2  -1  -1   21.15    9.19
   2  -1  -1    3.98    0.97
   2  -1  -1    6.08    1.69
   2  -1  -1   17.49    5.15
  -2   1   1    3.71    1.65
  -2   1   1    2.78    1.48
  -2   1   1   11.13    4.23
  -2   1   1    4.48    1.62
  -2   1   1   18.32    7.77
  -2   1   1    3.55    1.37
  -2   1   1    5.43    1.08
  -2   1   1    6.75    2.00
  -2   1   1    4.59    1.38
  -2   1   1    1.97    1.21
  -2   1   1    4.43    0.82
  -1   1   1 9457.27  306.04
   0  -1  -1   11.08    1.08
   0  -1  -1   11.59    1.07
   0  -1  -1    9.56    1.06
   0  -1  -1   11.28    0.97
   0  -1  -1   12.95    0.97
   0  -1  -1   11.82    1.05
   0  -1  -1   11.27    0.59
   0  -1  -1   10.70    1.12
   0  -1  -1   12.49    0.97
   0  -1  -1    8.78    0.98
   0   1   1   12.65    1.02
   0   1   1   12.20    0.60
   0   1   1   12.96    1.12
   0   1   1   11.70    0.95
   0   1   1   11.37    1.18
   0   1   1   11.06    0.91
   0   1   1   11.04    0.95
   0   1   1   10.82    1.14
  -1  -1  -1  277.65   11.09
  -1  -1  -1  289.79    9.41
  -1  -1  -1  272.18   10.48
  -1  -1  -1  278.32   10.49
  -1  -1  -1  302.47   10.38
  -1  -1  -1  295.65   11.27
  -1  -1  -1  295.95   10.46
  -1  -1  -1  292.72   11.12
   1   1   1  286.62   10.27
   1   1   1  288.69   10.50
   1   1   1  292.62   10.53
   1   1   1  293.05   11.20
   1   1   1  280.20    9.79
  -2  -1  -1   71.16    5.39
  -2  -1  -1   67.93    3.56
  -2  -1  -1   64.21    5.05
  -2  -1  -1   55.56    4.89
  -2  -1  -1   59.62    4.19
  -2  -1  -1   66.96    4.35
  -2  -1  -1   69.13    4.18
  -2  -1  -1   68.37    5.46
  -2  -1  -1   65.97    4.32
   2   1   1   63.68    2.83
   2   1   1   64.85    2.94
   2   1   1   46.32    3.83
   2   1   1   60.51    3.91
  -3  -1  -1   39.19    5.43
  -3  -1  -1   32.69    5.42
  -3  -1  -1   31.67    5.11
  -3  -1  -1   30.78    3.35
  -3  -1  -1   27.66    7.88
  -3  -1  -1   30.92    2.97
  -3  -1  -1   32.69    4.16
  -3  -1  -1   29.37    3.80
  -3  -1  -1   38.89    3.43
  -3  -1  -1   25.76    5.07
   3   1   1   35.46    4.51
  -4  -1  -1   16.91    4.79
  -4  -1  -1   18.71    5.12
  -4  -1  -1   13.67    4.00
  -4  -1  -1   11.32    3.70
  -4  -1  -1   13.07    4.52
  -4  -1  -1   22.52    5.35
  -4  -1  -1   14.37    3.46
  -4  -1  -1   19.86    4.74
   4   1   1   15.04    3.67
   4  -2  -1    7.63    2.88
  -4   2   1    5.35    2.63
  -4   2   1    8.75    3.14
  -4   2   1    6.45    2.97
  -4   2   1    8.51    3.30
  -4   2   1    7.20    2.74
  -4   2   1    6.68    3.12
  -4   2   1    7.94    2.77
  -4   2   1    3.37    2.44
  -4   2   1    8.27    3.17
  -4   2   1    8.05    3.70
  -4   2   1    4.45    2.11
   3  -2  -1    1.59    5.97
   3  -2  -1    2.35    1.81
   3  -2  -1    1.48    1.02
  -3   2   1    1.20    1.72
  -3   2   1    0.81    1.59
  -3   2   1    1.17    1.65
  -3   2   1    0.53    1.31
  -3   2   1    1.58    1.55
  -3   2   1    0.54    2.05
  -3   2   1    1.34    5.28
  -3   2   1    2.10    2.08
  -3   2   1    0.86    1.80
   2  -2  -1  144.73    7.31
   2  -2  -1  127.86    5.85
  -2   2   1  129.77    7.29
  -2   2   1  138.94    7.42
  -2   2   1  133.19    6.66
  -2   2   1  136.43    6.97
  -2   2   1  111.50    9.90
  -2   2   1  136.77    6.90
  -2   2   1  127.99    6.38
  -2   2   1  126.49    5.90
  -2   2   1  126.67    6.74
  -2   2   1  129.83    6.68
  -2   2   1   97.94   15.92
   1  -2  -1  116.50    5.37
   1  -2  -1  112.70    4.83
   1  -2  -1  108.80    5.18
   1  -2  -1  120.30    5.69
   1  -2  -1  115.19    4.90
   1  -2  -1  119.86    7.31
   1  -2  -1  128.77   15.15
  -1   2   1  123.71    5.31
  -1   2   1  120.77    7.14
  -1   2   1  132.35   15.03
  -1   2   1  113.02    5.33
  -1   2   1  112.03    5.33
  -1   2   1  114.19    5.88
  -1   2   1  116.76    4.94
  -1   2   1  112.89    4.78
  -1   2   1  106.43    5.38
   0  -2  -1 3113.44   95.83
   0  -2  -1 3111.45   95.00
   0  -2  -1 3140.03   95.82
   0  -2  -1 2989.46   95.69
   0  -2  -1 3088.46   95.69
   0  -2  -1 3140.94   95.20
   0  -2  -1 3068.82   95.53
   0  -2  -1 3145.12   95.62
   0   2   1 3139.79   95.82
   0   2   1 3097.70   95.75
   0   2   1 3240.28   95.77
   0   2   1 2976.11   95.10
   0   2   1 3123.91   95.42
   0   2   1 3035.66   95.57
   0   2   1 3116.43   95.55
  -1  -2  -1 1858.43   59.61
  -1  -2  -1 1884.08   59.91
  -1  -2  -1 2109.07   73.82
  -1  -2  -1 1898.51   60.82
  -1  -2  -1 1913.62   60.50
  -1  -2  -1 1938.89   60.80
  -1  -2  -1 1862.94   60.00
   1   2   1 1925.56   59.70
   1   2   1 1827.94   59.32
   1   2   1 1884.89   60.74
   1   2   1 1890.87   59.97
   1   2   1 1884.04   59.70
   1   2   1 1909.71   59.91
  -2  -2  -1  346.45   15.23
  -2  -2  -1  353.38   11.98
  -2  -2  -1  372.40   16.22
  -2  -2  -1  358.54   13.68
  -2  -2  -1  349.31   13.97
  -2  -2  -1  357.87   15.39
  -2  -2  -1  359.35   13.75
  -2  -2  -1  377.07   14.13
  -2  -2  -1  356.40   15.33
   2   2   1  363.70   13.93
   2   2   1  370.51   12.22
  -3  -2  -1   44.94    4.97
  -3  -2  -1   49.10    3.17
  -3  -2  -1   45.31    6.11
  -3  -2  -1   54.86    4.53
  -3  -2  -1   45.00    4.93
  -3  -2  -1   41.61    5.97
  -3  -2  -1   52.75    6.57
  -3  -2  -1   50.06    6.97
   3   2   1   53.59    5.29
  -4  -2  -1   14.02    4.24
  -4  -2  -1   13.90    3.43
  -4  -2  -1    6.15    3.85
  -4  -2  -1    8.90    4.19
  -4  -2  -1    9.26    3.81
  -4  -2  -1   15.59    3.49
  -4  -2  -1   14.32    4.08
   4   2   1   16.71    3.85
   4  -3  -1    7.20    3.11
  -4   3   1    6.88    3.44
  -4   3   1    7.33    3.13
  -4   3   1    4.18    2.77
  -4   3   1    8.85    3.60
  -4   3   1    9.74    2.77
  -4   3   1    3.11    2.78
  -4   3   1    5.95    2.55
  -4   3   1    5.93    2.70
  -4   3   1    9.18    3.28
  -4   3   1    5.51    2.88
   3  -3  -1    8.42    2.78
   3  -3  -1    3.11    1.34
   3  -3  -1    3.10    6.35
  -3   3   1    8.25    2.25
  -3   3   1    4.37    2.23
  -3   3   1    7.78    1.88
  -3   3   1    8.67    2.67
  -3   3   1    6.50    2.72
  -3   3   1    6.50    2.27
  -3   3   1   11.78    2.64
  -3   3   1    5.39    2.18
   2  -3  -1 1028.47   35.73
   2  -3  -1 1020.39   32.44
   2  -3  -1 1151.83   34.71
  -2   3   1 1033.50   40.49
  -2   3   1 1037.86   34.16
  -2   3   1 1053.04   36.30
  -2   3   1 1032.65   34.58
  -2   3   1  977.50   58.42
  -2   3   1 1016.50   34.64
  -2   3   1 1042.03   35.29
  -2   3   1  989.52   34.31
  -2   3   1 1052.99   35.50
   1  -3  -1  204.67    9.04
   1  -3  -1  216.07    7.98
   1  -3  -1  219.13    8.24
   1  -3  -1  255.33   24.31
   1  -3  -1  222.07    9.34
   1  -3  -1  216.98    8.78
   1  -3  -1  238.06   10.63
  -1   3   1  216.22    9.17
  -1   3   1  222.77    9.39
  -1   3   1  223.54    7.86
  -1   3   1  218.75    9.72
  -1   3   1  216.39    8.46
  -1   3   1  216.62    8.26
  -1   3   1  238.78    9.54
  -1   3   1  214.89    8.00
  -1   3   1  252.96   23.04
  -1   3   1  236.14   10.40
  -1   3   1  216.58    9.68
   0  -3  -1   17.98    2.17
   0  -3  -1   16.67    1.68
   0  -3  -1   19.41    2.29
   0  -3  -1   14.31    1.60
   0  -3  -1   22.82    2.49
   0  -3  -1   14.72    1.92
   0  -3  -1   11.22    1.66
   0  -3  -1   24.02    8.26
   0   3   1   14.36    1.91
   0   3   1   16.25    2.12
   0   3   1   11.98    1.85
   0   3   1   15.55    1.64
   0   3   1   19.95    2.40
   0   3   1   19.89    7.54
   0   3   1   15.65    1.87
   0   3   1   17.08    1.69
   0   3   1   11.21    1.60
   0   3   1   13.99    1.83
  -1  -3  -1   23.30    2.93
  -1  -3  -1   25.18    2.86
  -1  -3  -1   27.47    2.27
  -1  -3  -1   31.02    2.48
  -1  -3  -1   40.91    8.91
  -1  -3  -1   28.34    2.82
  -1  -3  -1   36.19    3.57
  -1  -3  -1   31.29    3.45
   1   3   1   27.28    2.35
   1   3   1   28.11    2.44
   1   3   1   30.11    2.58
   1   3   1   32.28    3.61
   1   3   1   33.09    2.53
   1   3   1   28.19    2.92
   1   3   1   20.93    2.84
  -2  -3  -1   84.24    4.96
  -2  -3  -1   94.13    5.39
  -2  -3  -1   98.19    6.61
  -2  -3  -1   92.25    5.66
  -2  -3  -1   75.17   12.62
  -2  -3  -1   88.31    4.37
  -2  -3  -1   87.82    4.89
  -2  -3  -1   84.79    6.21
   2   3   1   88.64    4.29
   2   3   1   84.36    5.41
  -3  -3  -1   15.95    7.45
  -3  -3  -1   26.03    5.05
  -3  -3  -1   23.23    4.53
  -3  -3  -1   17.78    4.05
  -3  -3  -1   22.44    3.16
  -3  -3  -1   22.74    4.76
  -3  -3  -1   15.93    3.94
  -3  -3  -1   22.33    3.51
  -3  -3  -1   21.08    3.66
   3   3   1   23.14    3.64
  -4  -3  -1   88.44   10.07
  -4  -3  -1   74.57    9.20
  -4  -3  -1   82.88   10.70
  -4  -3  -1   74.29    9.60
  -4  -3  -1   80.49    6.92
  -4  -3  -1   88.83    6.97
  -4  -3  -1   91.34    9.98
   4   3   1   96.40    7.19
   4  -4  -1   16.48   12.01
   4  -4  -1   27.23    5.33
  -4   4   1   27.10    4.77
  -4   4   1   30.80    5.80
  -4   4   1   24.49    5.20
  -4   4   1   28.52    4.90
  -4   4   1   26.32    5.56
  -4   4   1   33.59    5.45
  -4   4   1   26.56    4.35
  -4   4   1   21.76    4.85
  -4   4   1   24.20    4.81
   3  -4  -1  196.67   10.90
   3  -4  -1  170.59    8.70
  -3   4   1  167.78   10.24
  -3   4   1  174.61   10.07
  -3   4   1  169.30    9.47
  -3   4   1  141.81    9.13
  -3   4   1  196.80    9.56
  -3   4   1  191.12    9.26
  -3   4   1  186.88   10.89
  -3   4   1  177.80    8.68
   2  -4  -1  223.46   13.37
   2  -4  -1  203.99    9.56
   2  -4  -1  202.83   10.39
   2  -4  -1  242.76   28.58
   2  -4  -1  200.43    8.12
  -2   4   1  210.97    9.12
  -2   4   1  192.84   10.55
  -2   4   1  200.97    9.69
  -2   4   1  205.18   12.54
  -2   4   1  214.37    8.63
  -2   4   1  210.72   25.12
  -2   4   1  214.82   10.19
  -2   4   1  203.48    8.65
  -2   4   1  207.95    8.72
  -2   4   1  206.81    9.72
   1  -4  -1   23.03    1.96
   1  -4  -1   21.82    1.94
   1  -4  -1   22.41    2.93
   1  -4  -1   22.97    1.76
   1  -4  -1   21.12    2.79
  -1   4   1   22.99    1.97
  -1   4   1   18.30    1.65
  -1   4   1   18.08    2.86
  -1   4   1   19.87    2.69
  -1   4   1   27.80    3.60
  -1   4   1   23.27    2.76
  -1   4   1   18.57    2.63
  -1   4   1   19.48    1.41
  -1   4   1   23.58    3.07
  -1   4   1   18.19    2.54
  -1   4   1   32.25   11.59
  -1   4   1   19.78    1.59
   0  -4  -1  316.53   12.15
   0  -4  -1  307.28   11.20
   0  -4  -1  362.93   29.81
   0  -4  -1  318.36   11.28
   0  -4  -1  309.62   12.18
   0  -4  -1  310.73   12.13
   0  -4  -1  298.25   11.65
   0  -4  -1  300.92   11.79
   0  -4  -1  312.48   12.37
   0   4   1  304.20   11.70
   0   4   1  299.84   11.79
   0   4   1  318.98   12.44
   0   4   1  342.99   28.30
   0   4   1  310.21   12.23
   0   4   1  306.07   12.02
   0   4   1  297.52   12.05
   0   4   1  299.56   11.10
   0   4   1  309.17   11.20
  -1  -4  -1  136.90    7.03
  -1  -4  -1  134.38    6.92
  -1  -4  -1  134.91    6.50
  -1  -4  -1  129.90    7.10
  -1  -4  -1  133.69    6.12
  -1  -4  -1  123.07    6.87
  -1  -4  -1  122.73    6.84
  -1  -4  -1  134.02    6.45
  -1  -4  -1  151.64   18.60
   1   4   1  130.18    6.80
   1   4   1  125.56    6.90
   1   4   1  131.65    4.94
   1   4   1  129.92    6.44
   1   4   1  132.27    6.22
   1   4   1  125.33    6.92
  -2  -4  -1   19.05    2.83
  -2  -4  -1   18.30    3.39
  -2  -4  -1   17.70    2.33
  -2  -4  -1   14.82    3.04
  -2  -4  -1   24.98    9.35
  -2  -4  -1   15.82    3.34
  -2  -4  -1   20.92    3.34
   2   4   1   16.22    2.20
   2   4   1    9.79    1.98
  -3  -4  -1   17.25    2.43
  -3  -4  -1   19.19    3.72
  -3  -4  -1   20.02    4.60
  -3  -4  -1   16.89    3.10
  -3  -4  -1   19.42    4.16
  -3  -4  -1   17.11    4.04
  -3  -4  -1   18.93    4.87
  -3  -4  -1   11.33    7.07
  -3  -4  -1   14.35    4.12
   3   4   1   15.62    2.97
  -4  -4  -1   -0.61    2.21
  -4  -4  -1    0.07    3.20
  -4  -4  -1    0.54    2.45
  -4  -4  -1   -1.58    2.72
  -4  -4  -1    3.80    3.06
  -4  -4  -1    2.22    2.15
   4  -5  -1    3.38    3.03
   4  -5  -1    3.24    9.18
  -4   5   1    4.81    3.12
  -4   5   1    4.98    2.20
  -4   5   1    5.31    2.83
  -4   5   1    9.80    3.89
  -4   5   1    6.74    3.33
  -4   5   1    7.24    3.30
  -4   5   1    7.42    3.07
   3  -5  -1   26.56    3.84
   3  -5  -1   24.61    4.58
   3  -5  -1   28.54   15.53
  -3   5   1   21.88    3.93
  -3   5   1   23.16    3.04
  -3   5   1   15.19    3.88
  -3   5   1   19.71    3.86
  -3   5   1   22.58    3.31
  -3   5   1   21.78    4.50
  -3   5   1   27.08    3.90
  -3   5   1   15.95    3.52
   2  -5  -1  120.21    7.19
   2  -5  -1  112.19    7.66
   2  -5  -1  116.87    6.10
   2  -5  -1  122.53   21.88
   2  -5  -1  120.37    6.06
   2  -5  -1  129.18    9.23
  -2   5   1  114.24    7.83
  -2   5   1  123.18    5.88
  -2   5   1  128.06    7.61
  -2   5   1  120.44    5.67
  -2   5   1  122.17    6.18
  -2   5   1  119.26    5.57
  -2   5   1  124.53    8.64
  -2   5   1  126.98    8.23
   1  -5  -1   58.62    4.63
   1  -5  -1   51.24    2.92
   1  -5  -1   50.10    4.13
   1  -5  -1   50.22    3.92
   1  -5  -1   45.42    2.93
   1  -5  -1   46.23    3.07
   1  -5  -1   53.11    2.81
   1  -5  -1   61.17   14.41
  -1   5   1   51.42    4.37
  -1   5   1   47.69    3.12
  -1   5   1   41.78    3.75
  -1   5   1   52.11    2.97
  -1   5   1   48.84    2.75
  -1   5   1   47.89    2.27
  -1   5   1   44.15    3.87
  -1   5   1   52.48    4.44
  -1   5   1   54.53   16.46
   0  -5  -1   45.60    3.81
   0  -5  -1   78.96   15.98
   0  -5  -1   63.50    4.56
   0  -5  -1   60.55    3.72
   0  -5  -1   66.41    4.57
   0  -5  -1   64.69    4.24
   0  -5  -1   58.27    3.65
   0  -5  -1   62.02    4.48
   0   5   1   56.26    3.56
   0   5   1   58.11    4.15
   0   5   1   73.29   14.67
   0   5   1   64.80    3.84
   0   5   1   60.48    4.28
   0   5   1   61.49    4.50
   0   5   1   68.23    4.88
  -1  -5  -1  178.48    8.79
  -1  -5  -1  166.79   22.05
  -1  -5  -1  168.52    8.56
  -1  -5  -1  169.66    8.86
  -1  -5  -1  168.90    8.25
  -1  -5  -1  175.09    8.23
  -1  -5  -1  169.49    8.65
  -1  -5  -1  176.80    7.93
   1   5   1  160.99    7.70
   1   5   1  175.52    8.32
   1   5   1  174.81    6.73
   1   5   1  172.14    9.45
   1   5   1  181.57    8.95
  -2  -5  -1   32.64    4.80
  -2  -5  -1   23.74    3.30
  -2  -5  -1   22.14    4.04
  -2  -5  -1   19.02    9.76
  -2  -5  -1   28.29    3.02
  -2  -5  -1   28.26    4.48
  -2  -5  -1   26.58    4.07
   2   5   1   22.87    3.00
   2   5   1   27.49    3.23
   2   5   1   29.35    3.24
  -3  -5  -1   86.47    8.79
  -3  -5  -1   69.44    8.09
  -3  -5  -1   78.07    6.47
  -3  -5  -1   83.98    8.89
  -3  -5  -1   58.39    7.30
  -3  -5  -1   66.26    8.32
  -3  -5  -1   81.55    5.94
  -3  -5  -1   63.53   15.25
   3   5   1   71.32    5.44
  -4  -5  -1   46.34    7.38
  -4  -5  -1   36.28    7.68
  -4  -5  -1   41.94    7.14
  -4  -5  -1   38.20    6.82
  -4  -5  -1   35.74    5.60
  -4  -5  -1   28.45    6.12
   4  -6  -1   10.33    3.90
   4  -6  -1    4.60   10.54
  -4   6   1   11.53    3.38
  -4   6   1    7.89    3.73
  -4   6   1   15.68    4.54
  -4   6   1   14.81    4.18
   3  -6  -1   28.11    4.35
   3  -6  -1   21.45   14.27
   3  -6  -1   29.52    5.22
  -3   6   1   30.29    5.50
  -3   6   1   28.75    3.50
  -3   6   1   23.31    4.82
  -3   6   1   28.80    3.08
  -3   6   1   24.47    3.67
  -3   6   1   32.73    5.16
   2  -6  -1    5.30    2.18
   2  -6  -1    9.15    2.11
   2  -6  -1    2.74    6.97
   2  -6  -1    8.72    1.83
   2  -6  -1    3.47    2.07
  -2   6   1    9.60    1.57
  -2   6   1    9.49    1.40
  -2   6   1   10.74    3.08
  -2   6   1    8.97    1.30
  -2   6   1    5.60    2.31
  -2   6   1    6.72    2.39
  -2   6   1   10.63    2.78
  -2   6   1    8.35    1.85
  -2   6   1   10.07    1.81
   1  -6  -1  224.47    9.15
   1  -6  -1  240.87   30.64
   1  -6  -1  227.27    8.54
   1  -6  -1  228.97    9.95
   1  -6  -1  224.75    8.65
   1  -6  -1  227.30    8.75
  -1   6   1  224.82    9.11
  -1   6   1  213.09   11.13
  -1   6   1  218.30    7.61
  -1   6   1  228.01    8.55
  -1   6   1  223.41   10.99
  -1   6   1  218.34   10.72
   0  -6  -1   35.15    4.27
   0  -6  -1   39.23    2.94
   0  -6  -1   26.30    3.42
   0  -6  -1   37.72    2.99
   0  -6  -1   59.50   17.99
   0   6   1   29.68    3.49
   0   6   1   32.26    4.06
   0   6   1   29.21    3.15
   0   6   1   36.25    4.15
   0   6   1   35.66    2.84
  -1  -6  -1   94.60    6.40
  -1  -6  -1  104.08    6.46
  -1  -6  -1  105.35    6.86
  -1  -6  -1  106.10    5.96
  -1  -6  -1  100.35    6.43
  -1  -6  -1  104.31    6.87
  -1  -6  -1  106.95   19.68
   1   6   1   96.21    6.69
   1   6   1   99.64    6.46
   1   6   1  106.97    5.08
  -2  -6  -1  377.05   17.40
  -2  -6  -1  392.40   17.01
  -2  -6  -1  395.68   15.35
  -2  -6  -1  387.27   14.60
  -2  -6  -1  387.89   17.40
  -2  -6  -1  338.18   35.75
  -2  -6  -1  373.67   15.66
  -2  -6  -1  379.58   17.38
   2   6   1  372.95   15.20
   2   6   1  382.08   14.77
   2   6   1  386.88   14.92
  -3  -6  -1   59.99    5.98
  -3  -6  -1   84.61   10.26
  -3  -6  -1   70.18    8.25
  -3  -6  -1   65.35    8.10
  -3  -6  -1   49.62   16.86
  -3  -6  -1   59.61    7.55
  -3  -6  -1   62.30    7.04
  -3  -6  -1   85.95    9.43
   3   6   1   70.90    5.27
  -4  -6  -1    6.00    3.18
  -4  -6  -1    1.42    2.71
  -4  -6  -1    4.90    3.56
  -4  -6  -1   15.85    4.97
  -4  -6  -1    4.29    3.64
  -4  -6  -1    8.35    4.38
   4  -7  -1    0.94    9.33
   4  -7  -1    6.28    3.85
  -4   7   1    9.83    3.65
  -4   7   1    9.86    3.54
  -4   7   1    9.38    4.30
  -4   7   1   14.15    4.49
   3  -7  -1   16.32    4.09
   3  -7  -1   27.91    4.62
   3  -7  -1   12.83   12.47
  -3   7   1   24.26    3.64
  -3   7   1   21.03    4.83
  -3   7   1   20.51    5.00
  -3   7   1   19.05    4.20
   2  -7  -1  175.28   30.04
   2  -7  -1  109.99    7.83
   2  -7  -1  124.01    7.36
   2  -7  -1  118.03    6.14
  -2   7   1  112.60    6.77
  -2   7   1  127.32    8.32
  -2   7   1  115.82    8.67
  -2   7   1  114.86    5.59
  -2   7   1  120.48    8.80
  -2   7   1  130.79    6.28
  -2   7   1  116.76    5.76
   1  -7  -1   28.65    2.37
   1  -7  -1   33.28    2.66
   1  -7  -1   27.25    2.96
   1  -7  -1   31.62   15.73
   1  -7  -1   30.17    4.12
   1  -7  -1   29.12    2.37
   1  -7  -1   33.03    2.96
   1  -7  -1   25.41    3.87
  -1   7   1   34.72    4.82
  -1   7   1   27.36    3.09
  -1   7   1   30.30    2.85
  -1   7   1   32.80    4.51
  -1   7   1   32.17    4.70
   0  -7  -1   22.80    2.90
   0  -7  -1   12.12    2.75
   0  -7  -1   16.53    2.89
   0  -7  -1   16.87    3.12
   0  -7  -1   17.71    2.47
   0  -7  -1   18.12    2.85
   0  -7  -1   17.99   10.71
   0   7   1   24.37    3.78
   0   7   1   23.05    2.70
   0   7   1   20.18    3.37
  -1  -7  -1   32.34    4.33
  -1  -7  -1   30.02    4.08
  -1  -7  -1   27.43    4.19
  -1  -7  -1   27.48    3.60
  -1  -7  -1   26.52    4.08
  -1  -7  -1   24.80    3.70
  -1  -7  -1   32.21   14.95
   1   7   1   28.54    4.24
   1   7   1   30.98    3.89
   1   7   1   26.98    2.94
  -2  -7  -1  160.55    9.99
  -2  -7  -1  181.78    9.27
  -2  -7  -1  140.30    9.73
  -2  -7  -1  165.83    8.88
  -2  -7  -1  173.96   10.43
  -2  -7  -1  166.96    8.12
  -2  -7  -1  150.83   10.02
  -2  -7  -1  140.99   25.37
   2   7   1  167.96    8.27
  -3  -7  -1    1.60    6.76
  -3  -7  -1    6.85    3.31
  -3  -7  -1   13.49    3.80
  -3  -7  -1    7.34    3.14
  -3  -7  -1    8.08    3.53
  -3  -7  -1    8.41    2.46
  -3  -7  -1   11.67    4.02
   3   7   1    9.02    2.34
  -4  -7  -1   42.37    7.75
  -4  -7  -1   52.86    7.34
  -4  -7  -1   57.20    8.93
  -4  -7  -1   51.82    8.28
  -4  -7  -1   58.79    8.91
  -4  -7  -1   54.85    9.28
   4  -8  -1    3.98   12.28
  -4   8   1   23.85    5.53
  -4   8   1   23.68    5.88
  -4   8   1   37.76    6.58
  -4   8   1   26.69    5.29
   3  -8  -1  167.56   10.75
   3  -8  -1  109.51   32.48
  -3   8   1  195.62   12.69
  -3   8   1  171.70   11.27
  -3   8   1  180.29   12.40
   2  -8  -1   11.83    3.02
   2  -8  -1   11.37    2.04
   2  -8  -1   14.18    2.05
   2  -8  -1    4.18    8.53
   2  -8  -1    4.97    2.56
  -2   8   1   14.92    3.88
  -2   8   1   17.01    3.73
  -2   8   1   11.45    1.85
  -2   8   1   11.20    2.15
  -2   8   1   13.49    3.90
  -2   8   1    9.30    1.90
   1  -8  -1   72.24    3.98
   1  -8  -1   77.66    5.04
   1  -8  -1   71.20    4.37
   1  -8  -1   70.59   22.42
   1  -8  -1   76.36    6.17
   1  -8  -1   72.44    7.33
   1  -8  -1   70.87    4.12
  -1   8   1   64.29    4.10
  -1   8   1   73.72    6.36
  -1   8   1   65.45    5.92
  -1   8   1   46.65    6.06
  -1   8   1   62.40    4.50
   0  -8  -1   49.31    5.67
   0  -8  -1   48.57    5.49
   0  -8  -1   55.12    4.48
   0  -8  -1   53.19    4.21
   0  -8  -1   45.19   17.81
   0   8   1   58.47    4.96
   0   8   1   62.58    5.42
   0   8   1   43.75    5.29
  -1  -8  -1   15.32    3.15
  -1  -8  -1   15.71   11.54
  -1  -8  -1   16.26    3.61
  -1  -8  -1   17.05    3.72
  -1  -8  -1   18.28    3.35
  -1  -8  -1   14.94    3.11
   1   8   1   19.32    3.74
   1   8   1   18.14    2.73
   1   8   1   18.23    3.26
   1   8   1   17.47    1.66
  -2  -8  -1   50.83    6.48
  -2  -8  -1   47.02   18.97
  -2  -8  -1   53.68    6.59
  -2  -8  -1   80.23    8.54
  -2  -8  -1   62.81    6.30
  -2  -8  -1   57.64    6.93
   2   8   1   62.33    7.04
   2   8   1   68.31    5.03
   2   8   1   61.05    4.84
  -3  -8  -1   51.48    8.02
  -3  -8  -1   62.87    7.92
  -3  -8  -1   71.72    8.48
  -3  -8  -1   64.11    6.62
  -3  -8  -1   54.34   20.73
  -3  -8  -1   77.55    9.48
  -3  -8  -1   66.68    8.81
   4  -9  -1   29.83   21.85
  -4   9   1   43.73    8.40
  -4   9   1   37.09    6.98
  -4   9   1   32.40    6.35
  -4   9   1   35.60    7.39
   3  -9  -1   12.08    4.04
   3  -9  -1   12.84   14.27
  -3   9   1   15.81    4.77
  -3   9   1   16.56    4.71
  -3   9   1   12.32    3.89
   2  -9  -1   -3.03    6.97
   2  -9  -1    1.13    2.36
   2  -9  -1    2.39    2.03
  -2   9   1    2.15    2.45
  -2   9   1    1.27    1.12
  -2   9   1    1.53    1.25
  -2   9   1   -1.45    1.58
  -2   9   1    2.83    2.56
   1  -9  -1  486.34   16.51
   1  -9  -1  458.05   18.17
   1  -9  -1  463.58   17.28
   1  -9  -1  484.59   20.37
   1  -9  -1  446.41   51.70
   1  -9  -1  460.80   16.90
   1  -9  -1  455.92   17.72
  -1   9   1  457.68   20.40
  -1   9   1  469.21   20.48
  -1   9   1  473.05   20.95
   0  -9  -1    1.98    1.87
   0  -9  -1    6.01    2.31
   0  -9  -1    2.52    7.83
   0  -9  -1    6.08    1.82
   0  -9  -1    1.35    1.57
   0  -9  -1    3.08    2.81
   0  -9  -1    4.26    1.73
   0   9   1    5.64    2.22
   0   9   1    5.53    2.42
   0   9   1   11.72    3.22
  -1  -9  -1  559.75   21.88
  -1  -9  -1  525.37   55.48
  -1  -9  -1  529.70   23.15
  -1  -9  -1  526.01   22.50
  -1  -9  -1  551.19   22.18
  -1  -9  -1  527.33   22.88
   1   9   1  549.43   23.16
   1   9   1  544.73   20.32
   1   9   1  547.48   18.38
   1   9   1  554.56   21.91
  -2  -9  -1   11.87    3.89
  -2  -9  -1   17.29    4.22
  -2  -9  -1   13.99    3.55
  -2  -9  -1   24.12   15.78
  -2  -9  -1   14.54    3.98
  -2  -9  -1   10.67    3.51
   2   9   1   11.41    2.75
   2   9   1   14.86    3.89
   2   9   1   12.36    2.77
  -3  -9  -1   34.88    6.26
  -3  -9  -1   33.14    5.84
  -3  -9  -1   23.16   18.14
  -3  -9  -1   31.68    6.16
  -3  -9  -1   37.99    6.67
   3 -10  -1   35.35   21.90
   3 -10  -1   79.76    9.04
  -3  10   1   55.29    8.60
  -3  10   1   81.20    9.98
  -3  10   1   47.98    7.06
   2 -10  -1    2.44    9.29
   2 -10  -1    5.49    2.84
   2 -10  -1    9.83    3.43
  -2  10   1    4.48    2.79
  -2  10   1   11.03    3.78
  -2  10   1    6.09    3.11
   1 -10  -1  787.21   28.89
   1 -10  -1  806.24   33.12
   1 -10  -1  856.15   28.73
   1 -10  -1  872.81   32.86
  -1  10   1  825.28   32.81
  -1  10   1  881.03   33.08
  -1  10   1  855.11   33.64
   0 -10  -1  546.02   58.23
   0 -10  -1  495.86   19.79
   0 -10  -1  497.98   22.54
   0 -10  -1  580.86   27.63
   0 -10  -1  501.63   22.31
   0 -10  -1  499.61   19.12
   0 -10  -1  469.51   21.55
   0  10   1  515.80   22.46
   0  10   1  499.09   20.95
   0  10   1  476.51   21.82
  -1 -10  -1  543.81   22.14
  -1 -10  -1  568.35   24.27
  -1 -10  -1  539.27   23.63
  -1 -10  -1  564.87   22.59
  -1 -10  -1  488.87   56.98
  -1 -10  -1  521.42   22.98
   1  10   1  545.18   22.30
   1  10   1  528.88   20.64
   1  10   1  533.80   18.58
   1  10   1  525.92   23.46
  -2 -10  -1    1.69    2.27
  -2 -10  -1    0.90    2.30
  -2 -10  -1    0.84    2.14
  -2 -10  -1    2.81    9.64
  -2 -10  -1    0.18    2.29
  -2 -10  -1   -0.72    2.16
   2  10   1    0.26    2.06
   2  10   1   -0.78    1.35
   2  10   1    1.45    1.88
  -3 -10  -1   52.71    8.17
  -3 -10  -1   54.40    8.33
  -3 -10  -1   49.31    7.65
  -3 -10  -1   31.34    6.30
  -3 -10  -1   47.32    7.14
   3 -11  -1    9.62    4.22
   3 -11  -1   12.70   16.55
  -3  11   1    3.12    3.53
  -3  11   1    8.52    4.16
  -3  11   1    5.47    3.49
   2 -11  -1   93.37   33.55
   2 -11  -1  145.47   11.18
   2 -11  -1  143.46   10.47
  -2  11   1  147.55   10.82
  -2  11   1  139.38   11.31
  -2  11   1  158.20   11.71
   1 -11  -1   39.66    4.04
   1 -11  -1   35.55    6.19
   1 -11  -1   41.50    6.24
   1 -11  -1   31.26   20.17
  -1  11   1   31.22    5.39
  -1  11   1   30.40    5.79
  -1  11   1   38.40    5.90
   0 -11  -1  103.38    8.53
   0 -11  -1   70.63   26.83
   0 -11  -1  101.58    6.98
   0 -11  -1  100.27    8.47
   0 -11  -1  107.62    6.56
   0 -11  -1  121.59    9.52
   0  11   1   94.78    8.16
   0  11   1  102.99   10.28
   0  11   1   97.25    7.74
  -1 -11  -1  144.67    9.77
  -1 -11  -1  143.92   11.02
  -1 -11  -1  161.88    9.94
  -1 -11  -1  169.78   11.25
  -1 -11  -1  140.80   10.47
   1  11   1  145.97    8.79
   1  11   1  179.08   11.71
   1  11   1  150.89    9.92
  -2 -11  -1   12.52    3.86
  -2 -11  -1    9.64    4.11
  -2 -11  -1   11.23   14.21
  -2 -11  -1   14.19    4.17
  -2 -11  -1   10.36    3.76
  -2 -11  -1   13.43    4.24
   2  11   1   20.04    4.48
   2  11   1   12.30    3.95
  -3 -11  -1    0.56    2.63
  -3 -11  -1   -1.93    2.54
  -3 -11  -1    1.80    3.25
  -3 -11  -1   -2.71    2.78
  -3 -11  -1   -1.56    2.77
   3 -12  -1   48.13    8.03
   3 -12  -1   19.87   19.11
  -3  12   1   21.63    5.45
  -3  12   1   37.66    7.83
  -3  12   1   39.98    7.45
   2 -12  -1    4.67    3.16
   2 -12  -1    2.36   10.25
   2 -12  -1    1.47    3.05
  -2  12   1    3.96    3.36
  -2  12   1    6.02    3.34
  -2  12   1    2.72    3.08
   1 -12  -1   62.27    6.04
   1 -12  -1   55.46   26.27
   1 -12  -1   41.19    6.79
   1 -12  -1   57.56    8.02
  -1  12   1   59.24    8.54
  -1  12   1   65.82    8.15
  -1  12   1   47.42    7.07
   0 -12  -1   -0.78    1.92
   0 -12  -1    0.91    2.50
   0 -12  -1    2.41   10.84
   0 -12  -1    0.08    1.47
   0 -12  -1    2.21    2.04
   0 -12  -1    1.19    2.13
   0  12   1    1.45    2.63
   0  12   1    2.68    2.31
   0  12   1   -0.83    1.95
  -1 -12  -1  150.32   11.16
  -1 -12  -1  124.00   36.98
  -1 -12  -1  152.73   11.72
  -1 -12  -1  146.71   10.00
  -1 -12  -1  160.15   10.50
  -1 -12  -1  159.62   11.47
   1  12   1  164.79    9.54
   1  12   1  163.25   10.73
   1  12   1  152.93   11.58
  -2 -12  -1   12.81   14.82
  -2 -12  -1   19.58    4.86
  -2 -12  -1   37.42    6.62
  -2 -12  -1   16.76    4.77
  -2 -12  -1   25.30    5.26
  -2 -12  -1   37.03    7.08
   2  12   1   20.47    5.16
   2 -13  -1   55.57    8.91
   2 -13  -1   22.13   20.30
   2 -13  -1   64.16    8.86
  -2  13   1   55.94    8.36
  -2  13   1   58.36    9.49
  -2  13   1   61.31    9.17
   1 -13  -1    2.16    2.64
   1 -13  -1    3.64   11.25
  -1  13   1   -0.66    2.46
  -1  13   1    3.49    2.90
  -1  13   1    1.95    2.79
   0 -13  -1   97.27   10.87
   0 -13  -1   85.25    9.88
   0 -13  -1   80.47    9.62
   0 -13  -1   76.92    6.63
   0  13   1   75.78    9.48
   0  13   1   93.94   10.34
   0  13   1   90.85    8.07
  -1 -13  -1  105.68   11.73
  -1 -13  -1  117.08    9.43
  -1 -13  -1  123.18   10.44
  -1 -13  -1  138.40   11.08
  -1 -13  -1  118.63    9.03
   1  13   1  138.17   11.31
   1  13   1  116.30    9.51
  -2 -13  -1    2.91    3.11
  -2 -13  -1    2.26    3.04
  -2 -13  -1   -2.01    2.91
  -2 -13  -1    1.71    2.99
  -2 -13  -1    4.90   13.03
  -2 -13  -1   -0.34    2.66
   2  13   1   -2.04    2.63
   2 -14  -1   43.48    8.50
   2 -14  -1   21.14   20.51
   2 -14  -1   38.54    7.45
  -2  14   1   27.61    6.39
  -2  14   1   24.58    6.41
  -2  14   1   35.66    7.39
   1 -14  -1    5.79   13.82
   1 -14  -1    5.92    3.97
  -1  14   1    8.78    3.98
  -1  14   1   11.47    4.66
  -1  14   1    7.48    3.54
   0 -14  -1   22.14   20.05
   0 -14  -1   24.22    5.48
   0 -14  -1   37.90    7.35
   0 -14  -1   28.67    6.44
   0  14   1   35.59    6.35
   0  14   1   24.46    5.78
   0  14   1   33.94    6.69
  -1 -14  -1   17.43   18.02
  -1 -14  -1   15.26    4.41
  -1 -14  -1   18.65    4.87
  -1 -14  -1   20.74    5.72
  -1 -14  -1   19.33    5.47
   1  14   1   14.20    5.95
   1  14   1   18.96    5.39
   1 -15  -1   65.20   33.70
   1 -15  -1  105.18   12.13
  -1  15   1  129.54   11.83
  -1  15   1  115.61   12.23
  -1  15   1  117.80   12.52
   0 -15  -1   92.93   10.78
   0 -15  -1   98.03   11.57
   0 -15  -1   62.75   32.06
   0 -15  -1   75.02   10.37
   0  15   1  103.98   11.58
   0  15   1  108.65   12.54
   0  15   1  102.35   10.76
   1  15  -2   53.53    8.62
  -1 -15   2   42.64    7.90
  -1 -15   2   28.27   23.42
  -1 -15   2   52.89    7.55
  -1 -15   2   52.92    8.63
  -1 -15   2   54.80    8.51
   0  15  -2   93.50   10.50
   0  15  -2   77.29   10.07
   0  15  -2   82.11   10.10
   0 -15   2   83.90    8.67
   0 -15   2   49.59   27.46
   0 -15   2   82.14   10.84
   0 -15   2   86.01   10.70
   0 -15   2   92.94   11.14
  -1  15  -2    0.34    2.83
  -1  15  -2   -0.71    2.63
  -1  15  -2   -1.46    2.78
   1 -15   2    1.51    3.02
   1 -15   2   -3.09   12.32
   1 -15   2    3.74    3.04
   1  14  -2   -0.72    2.52
  -1 -14   2   -0.50    2.68
  -1 -14   2   -0.50    2.72
  -1 -14   2    0.29   12.74
  -1 -14   2   -2.58    2.09
  -1 -14   2   -0.01    2.21
   0  14  -2    7.87    3.69
   0  14  -2    7.20    3.81
   0  14  -2    6.76    3.53
   0 -14   2    8.17    3.94
   0 -14   2    9.68    3.99
   0 -14   2    6.15    3.53
   0 -14   2   11.07   15.55
   0 -14   2    3.59    2.68
  -1  14  -2   -2.91    2.28
  -1  14  -2    0.02    2.66
  -1  14  -2    1.62    3.00
   1 -14   2    0.92    2.50
   1 -14   2   -2.09    9.36
   1 -14   2    6.72    4.15
  -2  14  -2   28.99    6.99
  -2  14  -2   33.35    7.10
  -2  14  -2   25.89    6.05
   2 -14   2   24.25    6.44
   2 -14   2   18.64   17.59
   2  13  -2   45.45    7.29
  -2 -13   2   56.23    8.64
  -2 -13   2   49.93    7.14
  -2 -13   2   18.93   19.26
  -2 -13   2   35.84    6.33
  -2 -13   2   33.13    6.30
  -2 -13   2   48.15    7.51
   1  13  -2   27.94    5.50
   1  13  -2   37.73    5.83
   1  13  -2   37.17    5.59
  -1 -13   2   35.71    6.55
  -1 -13   2   40.18    6.78
  -1 -13   2   31.41    5.06
  -1 -13   2   32.62    6.53
  -1 -13   2   26.74   20.06
  -1 -13   2   43.79    6.49
   0  13  -2   43.00    6.52
   0  13  -2   31.42    5.76
   0  13  -2   25.59    5.23
   0 -13   2   35.93    6.16
   0 -13   2   27.56    5.67
   0 -13   2   29.53    4.90
   0 -13   2    8.69   12.65
   0 -13   2   31.04    5.80
  -1  13  -2   10.01    3.83
  -1  13  -2    9.45    3.80
  -1  13  -2    7.97    3.82
   1 -13   2    9.69   13.04
   1 -13   2    4.39    3.16
   1 -13   2    8.15    3.69
   1 -13   2   14.18    3.14
  -2  13  -2    1.75    3.06
  -2  13  -2    0.44    2.82
  -2  13  -2    6.97    4.10
   2 -13   2    0.33   10.18
   2 -13   2    3.16    3.31
   2  12  -2   88.71    9.90
  -2 -12   2  118.79    9.58
  -2 -12   2  105.81   10.86
  -2 -12   2   59.15   28.32
  -2 -12   2  120.46   12.14
  -2 -12   2   89.70   10.53
  -2 -12   2   94.83    9.53
   1  12  -2    1.76    2.24
   1  12  -2   -1.37    1.77
   1  12  -2    1.23    1.98
  -1 -12   2    0.30    2.09
  -1 -12   2   -0.46    1.79
  -1 -12   2   -3.22    8.40
  -1 -12   2   -1.27    1.98
  -1 -12   2    0.37    2.12
  -1 -12   2    0.36    2.26
   0  12  -2    5.59    2.91
   0  12  -2    3.68    2.73
   0  12  -2    4.22    2.78
   0 -12   2    1.49    8.51
   0 -12   2    5.56    1.90
   0 -12   2    2.72    2.26
   0 -12   2    2.35    2.53
   0 -12   2   10.29    3.07
   0 -12   2    8.43    3.69
  -1  12  -2   33.39    6.07
  -1  12  -2   35.72    6.41
  -1  12  -2   34.12    6.12
   1 -12   2   31.66    4.39
   1 -12   2   28.57   18.71
   1 -12   2   28.48    5.20
   1 -12   2   31.56    5.72
  -2  12  -2  113.40    9.75
  -2  12  -2  107.78   12.01
  -2  12  -2  104.44   11.21
   2 -12   2  106.00   11.42
   2 -12   2   81.52   32.28
  -3  12  -2    0.40    2.55
  -3  12  -2    0.09    3.17
  -3  12  -2    1.37    2.92
   3 -12   2    1.56   12.68
   3 -12   2    1.09    3.27
  -3 -11   2    9.98    3.85
  -3 -11   2    9.88    4.17
  -3 -11   2    7.19   14.40
  -3 -11   2    9.93    4.20
  -3 -11   2    6.27    3.86
   2  11  -2  200.61   12.30
  -2 -11   2  174.08   11.78
  -2 -11   2  162.88   35.68
  -2 -11   2  183.08   12.22
  -2 -11   2  170.37   12.01
  -2 -11   2  211.84   13.41
  -2 -11   2  182.92   11.27
   1  11  -2    5.19    2.27
   1  11  -2    1.26    1.93
   1  11  -2    4.34    2.79
  -1 -11   2    1.77    8.27
  -1 -11   2    7.98    2.99
  -1 -11   2    4.98    2.41
  -1 -11   2    6.69    2.78
  -1 -11   2    3.08    2.51
  -1 -11   2    4.49    2.81
   0  11  -2    1.89    1.99
   0  11  -2   -0.32    1.64
   0  11  -2    0.89    1.83
   0 -11   2    0.17    1.59
   0 -11   2    2.85    2.09
   0 -11   2    0.02    1.69
   0 -11   2    2.52    2.17
   0 -11   2   -2.90    7.12
   0 -11   2    1.73    1.30
  -1  11  -2  217.41   12.80
  -1  11  -2  186.34   11.90
  -1  11  -2  187.00   11.73
   1 -11   2  172.83    9.45
   1 -11   2  173.95   12.06
   1 -11   2  200.84   11.65
   1 -11   2  142.75   31.78
  -2  11  -2  279.10   15.48
  -2  11  -2  267.42   12.97
  -2  11  -2  262.57   16.02
  -2  11  -2  257.82   15.36
   2 -11   2  192.82   38.57
  -3  11  -2   18.18    5.08
  -3  11  -2   20.06    4.86
  -3  11  -2   15.79    5.04
  -3  11  -2   19.54    5.21
   3 -11   2   22.52    5.40
   3 -11   2   11.20   15.84
   3 -11   2   10.82    4.29
  -3 -10   2   61.50    8.54
  -3 -10   2   50.73    7.66
  -3 -10   2   26.68   18.24
  -3 -10   2   39.95    6.76
  -3 -10   2   45.57    7.27
   2  10  -2  182.64   11.19
  -2 -10   2  183.85   12.25
  -2 -10   2  185.45   12.04
  -2 -10   2  190.76   10.86
  -2 -10   2  180.74   11.84
  -2 -10   2  192.97   11.92
  -2 -10   2  129.42   30.94
   1  10  -2  387.33   16.22
   1  10  -2  359.42   17.34
   1  10  -2  398.99   16.34
  -1 -10   2  378.01   17.86
  -1 -10   2  391.63   18.32
  -1 -10   2  383.00   17.74
  -1 -10   2  310.72   44.25
  -1 -10   2  376.10   16.62
  -1 -10   2  370.95   17.21
   0  10  -2    3.17    2.01
   0  10  -2   -0.70    1.56
   0  10  -2    3.01    2.24
   0 -10   2    0.85    2.31
   0 -10   2   -1.12    6.60
   0 -10   2   -0.77    1.81
   0 -10   2   -0.55    1.44
   0 -10   2    2.30    1.72
   0 -10   2    0.33    1.08
   0 -10   2    1.39    1.95
  -1  10  -2   -2.23    1.39
  -1  10  -2   -1.93    1.35
  -1  10  -2    1.97    1.90
   1 -10   2   -1.71    1.66
   1 -10   2   -0.13    1.18
   1 -10   2   -1.01    6.50
   1 -10   2   -0.18    1.72
   1 -10   2    0.82    1.11
  -2  10  -2   60.28    7.78
  -2  10  -2   67.18    8.67
  -2  10  -2   66.24    5.78
  -2  10  -2   66.52    7.71
   2 -10   2   31.07   18.21
   2 -10   2   57.69    7.69
   2 -10   2   45.82    6.64
  -3  10  -2  130.71   11.25
  -3  10  -2  144.82   11.05
  -3  10  -2  139.20   11.82
  -3  10  -2  147.28   11.33
   3 -10   2  146.22   11.02
   3 -10   2   92.11   31.74
   3 -10   2  139.44   11.29
  -3  -9   2   22.59    5.36
  -3  -9   2   26.63   16.36
  -3  -9   2   22.50    5.41
  -3  -9   2   28.99    5.73
  -3  -9   2   20.55    5.12
   2   9  -2  436.58   18.42
   2   9  -2  401.88   14.94
   2   9  -2  398.13   14.82
  -2  -9   2  402.34   18.68
  -2  -9   2  390.83   19.04
  -2  -9   2  384.60   18.76
  -2  -9   2  404.86   18.71
  -2  -9   2  400.63   17.18
  -2  -9   2  298.93   41.90
   1   9  -2   17.66    2.84
   1   9  -2   19.77    3.26
   1   9  -2   17.15    3.14
   1   9  -2   19.16    3.74
  -1  -9   2   14.05    3.23
  -1  -9   2   21.49    4.12
  -1  -9   2   24.27    3.77
  -1  -9   2    9.32   10.55
  -1  -9   2   18.66    3.84
   0   9  -2   88.62    6.70
   0   9  -2   97.70    7.19
   0   9  -2   92.19    6.84
   0  -9   2   81.82    6.67
   0  -9   2   89.25    7.01
   0  -9   2   98.86    8.54
   0  -9   2   96.49    6.33
  -1   9  -2   28.34    4.94
  -1   9  -2    9.81    3.11
  -1   9  -2   20.82    3.88
  -1   9  -2   27.59    3.91
   1  -9   2   18.21    3.89
   1  -9   2   21.22    3.10
   1  -9   2   18.56    3.44
   1  -9   2   17.59    3.45
   1  -9   2   26.14    2.70
   1  -9   2   24.29   14.64
  -2   9  -2   24.81    4.10
  -2   9  -2   18.10    4.27
  -2   9  -2   28.71    5.25
   2  -9   2   13.86   12.28
   2  -9   2   39.44    6.01
   2  -9   2   33.08    5.55
  -3   9  -2   -0.78    1.74
  -3   9  -2   -0.56    1.91
  -3   9  -2    0.09    2.20
  -3   9  -2   -1.33    2.64
   3  -9   2    5.44   11.22
   3  -9   2   -0.94    2.05
   3  -9   2   -0.84    2.49
  -4   9  -2  534.43   25.98
  -4   9  -2  548.78   27.34
  -4   9  -2  580.04   27.30
  -4   9  -2  558.77   28.30
   4  -9   2  580.26   28.20
  -4  -8   2    3.53    3.85
  -4  -8   2    4.82    3.21
  -4  -8   2    6.24    3.69
  -4  -8   2    3.87    3.55
  -3  -8   2   97.07    9.79
  -3  -8   2   97.24    8.48
  -3  -8   2   93.86    9.90
  -3  -8   2   75.39    9.11
  -3  -8   2   70.31   24.20
   2   8  -2  121.75    5.28
   2   8  -2  124.28    8.19
   2   8  -2  124.53    5.64
   2   8  -2  110.17    5.74
  -2  -8   2   91.94   22.75
  -2  -8   2  108.62    8.50
  -2  -8   2  121.34    8.65
  -2  -8   2  109.02    8.47
  -2  -8   2  110.50    8.41
  -2  -8   2  118.11    7.34
   1   8  -2   34.16    3.49
   1   8  -2   51.13    4.18
   1   8  -2   36.44    4.63
   1   8  -2   20.85    3.05
  -1  -8   2   31.71   15.65
  -1  -8   2   45.10    5.37
  -1  -8   2   33.47    4.52
  -1  -8   2   31.01    4.40
  -1  -8   2   36.99    4.59
   0   8  -2   19.65    3.44
   0   8  -2   13.34    2.84
   0   8  -2   19.30    3.41
   0  -8   2   23.00    4.54
   0  -8   2   23.52    3.92
   0  -8   2   14.31    2.62
   0  -8   2   15.73    2.25
   0  -8   2   11.91    9.50
   0  -8   2   18.65    3.43
   0  -8   2   15.86    3.28
  -1   8  -2   12.83    2.71
  -1   8  -2    9.70    3.00
   1  -8   2   15.96    3.51
   1  -8   2   13.25    2.76
   1  -8   2   11.98   10.61
   1  -8   2   11.86    2.26
   1  -8   2   11.45    1.62
   1  -8   2    9.58    2.37
   1  -8   2   15.91    3.28
  -2   8  -2   31.18    4.30
  -2   8  -2   23.90    4.71
  -2   8  -2   36.12    5.71
   2  -8   2   26.21    4.55
   2  -8   2   27.14   15.50
   2  -8   2   23.01    4.45
   2  -8   2   33.69    4.13
  -3   8  -2   -2.20    1.90
  -3   8  -2    2.02    2.60
  -3   8  -2    2.61    2.35
  -3   8  -2    3.41    2.16
   3  -8   2    2.29    8.65
   3  -8   2    2.08    2.60
   3  -8   2   -2.24    2.01
  -4   8  -2   10.30    4.07
  -4   8  -2    3.43    3.37
  -4   8  -2    9.18    4.30
   4  -8   2   19.36    5.69
  -4  -7   2   -1.16    2.11
  -4  -7   2   -0.76    2.66
  -4  -7   2    2.71    3.45
  -4  -7   2    2.17    2.73
  -4  -7   2   -1.55    2.70
  -3  -7   2   71.94    8.62
  -3  -7   2   74.56    8.32
  -3  -7   2   67.26    7.93
  -3  -7   2   49.09    6.69
  -3  -7   2   53.35   20.69
   2   7  -2  267.28    9.92
   2   7  -2  267.62   12.65
   2   7  -2  264.43   11.99
  -2  -7   2  260.14   10.27
  -2  -7   2  271.05   13.82
  -2  -7   2  270.28   11.80
  -2  -7   2  254.11   13.51
  -2  -7   2  259.76   35.83
  -2  -7   2  270.56   13.51
  -2  -7   2  269.04   13.87
   1   7  -2   11.59    2.21
   1   7  -2    9.72    1.79
   1   7  -2   11.81    2.14
   1   7  -2   10.03    2.55
  -1  -7   2   15.10    2.92
  -1  -7   2    6.40    7.51
  -1  -7   2   11.78    2.86
  -1  -7   2    6.13    2.07
  -1  -7   2   10.31    2.51
  -1  -7   2   14.80    3.03
   0   7  -2    0.04    1.00
   0   7  -2   -0.11    1.07
   0   7  -2    0.88    1.34
   0   7  -2   -0.18    1.02
   0  -7   2    0.76    1.12
   0  -7   2   -0.85    0.61
   0  -7   2    0.01    1.13
   0  -7   2    2.73    1.92
   0  -7   2   -0.96    1.06
   0  -7   2   -0.01    2.64
   0  -7   2    0.05    0.94
   0  -7   2   -1.54    0.95
  -1   7  -2  207.18   10.88
  -1   7  -2  205.79   11.08
  -1   7  -2  224.36   10.36
   1  -7   2  228.59   10.40
   1  -7   2  226.94    8.04
   1  -7   2  225.32   11.69
   1  -7   2  202.50   29.10
   1  -7   2  226.54   10.07
   1  -7   2  212.01    9.61
   1  -7   2  214.03   10.81
  -2   7  -2   34.90    4.36
  -2   7  -2   36.55    5.16
  -2   7  -2   30.48    5.11
   2  -7   2   25.60   13.47
   2  -7   2   32.73    3.76
   2  -7   2   24.04    4.28
  -3   7  -2   29.42    5.06
  -3   7  -2   39.54    6.01
  -3   7  -2   30.82    5.66
  -3   7  -2   40.44    5.42
   3  -7   2   29.15    5.63
   3  -7   2   33.99    5.13
   3  -7   2   20.80   12.95
  -4   7  -2  130.68   10.79
  -4   7  -2  136.45   10.96
  -4   7  -2  127.30   10.21
  -4   7  -2  132.08   10.08
   4  -7   2  128.16   10.91
  -4  -6   2    3.37    3.09
  -4  -6   2    5.13    3.29
  -4  -6   2    0.39    2.76
  -4  -6   2   -1.38    2.30
  -4  -6   2    2.92    2.84
  -3  -6   2    3.79    2.53
  -3  -6   2    3.66    1.60
  -3  -6   2    1.90    2.21
  -3  -6   2    2.05    2.43
  -3  -6   2    0.21    1.90
   2   6  -2  277.26    9.86
   2   6  -2  260.61   11.46
  -2  -6   2  275.12   13.68
  -2  -6   2  260.62   13.02
  -2  -6   2  270.16   10.29
  -2  -6   2  276.18   13.62
  -2  -6   2  266.16   13.26
  -2  -6   2  282.76   11.40
   1   6  -2   17.17    2.13
   1   6  -2   17.41    2.03
   1   6  -2    9.50    2.27
   1   6  -2   12.56    2.19
   1   6  -2   13.17    2.52
  -1  -6   2   16.82    2.87
  -1  -6   2   11.91    2.48
  -1  -6   2   12.00    2.07
  -1  -6   2   10.94    4.21
  -1  -6   2   10.11    2.21
  -1  -6   2   14.72    2.43
  -1  -6   2   12.71    2.50
  -1  -6   2   12.26    2.73
   0   6  -2 2541.34   82.05
   0   6  -2 2585.28   85.18
   0   6  -2 2528.97   82.11
   0   6  -2 2474.69   82.06
   0   6  -2 2605.88   81.38
   0  -6   2 2635.54   82.31
   0  -6   2 2518.27   81.52
   0  -6   2 2738.61   84.93
   0  -6   2 2559.11   82.14
   0  -6   2 2632.59   80.47
   0  -6   2 2542.02   81.99
   0  -6   2 2564.04   82.90
   0  -6   2 2593.09   82.20
  -1   6  -2  558.09   20.04
  -1   6  -2  516.27   19.51
  -1   6  -2  542.87   21.05
   1  -6   2  630.75   48.03
   1  -6   2  534.99   20.56
   1  -6   2  544.87   19.39
   1  -6   2  525.38   19.68
   1  -6   2  527.42   17.17
   1  -6   2  515.54   21.00
   1  -6   2  515.46   19.60
  -2   6  -2    0.67    0.72
  -2   6  -2    2.52    1.35
  -2   6  -2    0.21    1.23
  -2   6  -2    0.11    1.25
  -2   6  -2    0.71    1.63
  -2   6  -2   -0.37    1.58
   2  -6   2    0.45    0.96
   2  -6   2    2.32    5.30
   2  -6   2    1.77    1.02
   2  -6   2   -1.08    1.30
  -3   6  -2   43.51    6.34
  -3   6  -2   34.21    5.30
  -3   6  -2   38.85    5.95
  -3   6  -2   39.20    3.97
  -3   6  -2   34.12    5.04
   3  -6   2   29.87    4.54
   3  -6   2   45.52    6.46
   3  -6   2   26.65   13.63
  -4   6  -2    2.99    3.01
  -4   6  -2    1.20    2.66
  -4   6  -2    4.83    3.07
  -4   6  -2    6.31    3.05
   4  -6   2    4.44    3.54
  -4  -5   2    0.26    2.83
  -4  -5   2   -0.14    2.77
  -4  -5   2   -1.17    2.43
  -4  -5   2    1.02    2.21
  -4  -5   2    2.48    2.47
  -4  -5   2   -3.61    2.01
   3   5  -2   60.57    3.75
  -3  -5   2   54.81    6.49
  -3  -5   2   62.74    7.19
  -3  -5   2   53.60    4.32
  -3  -5   2   51.12    3.99
  -3  -5   2   59.64    6.89
  -3  -5   2   52.64    7.02
   2   5  -2  529.30   18.89
   2   5  -2  540.25   17.71
   2   5  -2  538.35   18.75
  -2  -5   2  515.18   21.12
  -2  -5   2  535.36   18.23
  -2  -5   2  507.15   19.75
  -2  -5   2  535.98   21.77
  -2  -5   2  563.55   18.86
  -2  -5   2  534.92   21.26
  -2  -5   2  545.02   21.98
   1   5  -2   16.65    2.17
   1   5  -2   18.02    1.92
   1   5  -2   14.05    1.62
   1   5  -2   19.18    2.21
   1   5  -2   18.94    2.40
   1   5  -2   13.54    2.38
  -1  -5   2   13.39    2.42
  -1  -5   2   15.61    2.29
  -1  -5   2   17.04    2.67
  -1  -5   2   16.23    2.26
  -1  -5   2   11.21    2.30
  -1  -5   2   20.33    2.75
  -1  -5   2   13.82    2.64
  -1  -5   2   13.76    4.54
   0   5  -2  263.06   11.14
   0   5  -2  272.59   10.57
   0   5  -2  266.04   12.92
   0   5  -2  284.21   11.83
   0   5  -2  278.28   10.89
   0   5  -2  288.82   11.25
   0  -5   2  275.99   11.19
   0  -5   2  257.38   10.52
   0  -5   2  281.23   11.34
   0  -5   2  268.28   12.75
   0  -5   2  256.67   11.07
   0  -5   2  273.75   11.03
   0  -5   2  263.01   10.78
   0  -5   2  270.55   11.66
  -1   5  -2   10.67    2.36
  -1   5  -2    7.11    1.57
  -1   5  -2    6.33    5.79
  -1   5  -2    5.67    2.03
  -1   5  -2    7.12    1.61
  -1   5  -2    5.61    1.60
  -1   5  -2    3.33    1.61
   1  -5   2    5.98    5.91
   1  -5   2    8.25    2.01
   1  -5   2    7.00    1.67
   1  -5   2   12.85    2.53
   1  -5   2    8.19    2.15
   1  -5   2    8.61    1.71
   1  -5   2    6.22    1.49
  -2   5  -2   65.09    3.73
  -2   5  -2   62.24    5.43
  -2   5  -2   64.39    5.05
  -2   5  -2   59.57   13.29
  -2   5  -2   59.89    5.98
  -2   5  -2   69.90    4.26
  -2   5  -2   76.88    5.70
  -2   5  -2   73.74    5.86
   2  -5   2   75.56    5.60
   2  -5   2   68.72    5.66
   2  -5   2   69.03    3.59
   2  -5   2   60.94   14.26
  -3   5  -2    9.53    1.73
  -3   5  -2    9.92    3.10
  -3   5  -2   13.27    3.29
  -3   5  -2   10.60    2.39
  -3   5  -2    9.11    2.81
  -3   5  -2   10.30    3.03
   3  -5   2   11.62    3.54
   3  -5   2    6.35    7.59
   3  -5   2   10.54    2.68
  -4   5  -2    8.56    3.35
  -4   5  -2   12.72    4.12
  -4   5  -2    9.62    4.07
  -4   5  -2   14.31    3.95
  -4   5  -2   11.56    3.57
   4  -5   2   16.04    4.32
  -4  -4   2    6.40    3.37
  -4  -4   2    4.89    2.97
  -4  -4   2    3.10    2.86
  -4  -4   2    3.59    3.32
  -4  -4   2    6.28    3.14
  -4  -4   2   -0.43    2.27
   3   4  -2   55.90    3.85
  -3  -4   2   56.99    4.64
  -3  -4   2   56.99    6.68
  -3  -4   2   47.18    6.29
  -3  -4   2   55.04    6.43
  -3  -4   2   57.28    4.01
  -3  -4   2   47.45    6.36
  -3  -4   2   63.10    3.90
   2   4  -2  881.02   29.13
   2   4  -2  889.14   28.91
   2   4  -2  917.74   28.50
  -2  -4   2  929.52   31.77
  -2  -4   2  872.57   29.84
  -2  -4   2  801.89   31.99
  -2  -4   2  870.14   29.01
  -2  -4   2  889.92   32.23
  -2  -4   2  908.47   29.19
  -2  -4   2  912.55   28.80
  -2  -4   2  909.06   30.35
  -2  -4   2  894.09   31.85
   1   4  -2  476.41   16.76
   1   4  -2  532.53   24.73
   1   4  -2  454.05   17.81
   1   4  -2  480.12   16.37
   1   4  -2  495.04   17.15
   1   4  -2  473.13   16.61
   1   4  -2  488.56   17.31
   1   4  -2  479.81   15.70
   1   4  -2  504.69   15.68
  -1  -4   2  489.18   18.11
  -1  -4   2  479.22   16.68
  -1  -4   2  482.35   18.15
  -1  -4   2  470.19   17.62
  -1  -4   2  474.85   17.16
  -1  -4   2  474.30   16.97
  -1  -4   2  516.61   23.91
   0   4  -2   55.15    3.55
   0   4  -2   51.21    3.38
   0   4  -2   54.34    3.83
   0   4  -2   51.35    3.46
   0   4  -2   55.26    3.50
   0   4  -2   48.44    3.56
   0   4  -2   50.80    4.53
   0   4  -2   51.12    3.13
   0   4  -2   47.83    3.44
   0  -4   2   51.49    3.12
   0  -4   2   54.54    3.61
   0  -4   2   52.41    3.39
   0  -4   2   47.74    3.26
   0  -4   2   49.73    4.38
   0  -4   2   45.74    3.31
   0  -4   2   49.49    3.75
   0  -4   2   49.10    3.41
   0  -4   2   50.15    3.57
  -1   4  -2  211.31    8.41
  -1   4  -2  203.26   21.28
  -1   4  -2  202.50    6.86
  -1   4  -2  207.89    8.37
  -1   4  -2  200.63    9.21
  -1   4  -2  190.60    8.60
  -1   4  -2  185.23    7.75
  -1   4  -2  185.01    8.75
  -1   4  -2  208.30    9.32
   1  -4   2  195.81    9.01
   1  -4   2  186.48    8.02
   1  -4   2  184.61   20.91
   1  -4   2  193.73    6.80
   1  -4   2  194.37    7.91
   1  -4   2  197.97    8.36
   1  -4   2  188.40    8.54
  -2   4  -2  112.60    7.16
  -2   4  -2  119.94    7.03
  -2   4  -2   88.67   14.71
  -2   4  -2  113.06    5.58
  -2   4  -2  119.04    4.65
  -2   4  -2  111.29    7.06
  -2   4  -2  118.88    7.10
  -2   4  -2   99.77    8.73
  -2   4  -2  119.16    4.64
  -2   4  -2  105.24    6.47
  -2   4  -2  117.69    5.39
   2  -4   2  111.33    6.60
   2  -4   2  104.33    6.99
   2  -4   2   82.79   14.88
  -3   4  -2    8.94    2.80
  -3   4  -2    5.53    2.58
  -3   4  -2    7.63    8.07
  -3   4  -2    9.40    2.80
  -3   4  -2    7.83    1.80
  -3   4  -2    7.36    2.83
  -3   4  -2    5.39    2.05
   3  -4   2    1.75    4.20
   3  -4   2    5.58    2.40
   3  -4   2    9.51    2.41
  -4   4  -2    6.70    2.91
  -4   4  -2    7.91    3.04
  -4   4  -2   12.51    4.14
  -4   4  -2    4.42    2.79
  -4   4  -2    8.79    3.56
  -4   4  -2    5.37    2.74
   4  -4   2    5.61    3.45
  -4  -3   2   41.70    7.20
  -4  -3   2   33.04    6.29
  -4  -3   2   42.28    6.71
  -4  -3   2   32.79    6.67
  -4  -3   2   36.17    5.72
  -4  -3   2   41.33    6.67
  -3  -3   2  153.97    7.07
  -3  -3   2  130.64    9.43
  -3  -3   2  146.57    8.36
  -3  -3   2  137.87    7.06
  -3  -3   2  161.69    9.73
  -3  -3   2  144.29    7.02
  -3  -3   2  156.93    9.85
  -3  -3   2  152.51    6.19
  -3  -3   2  145.24    7.11
  -3  -3   2  150.85    9.11
  -3  -3   2  150.63    7.28
   2   3  -2   13.22    1.69
   2   3  -2   11.91    1.56
  -2  -3   2   10.73    2.56
  -2  -3   2   13.15    1.68
  -2  -3   2   11.47    1.01
  -2  -3   2    9.30    2.28
  -2  -3   2   11.44    1.47
  -2  -3   2   12.57    2.90
  -2  -3   2   14.62    2.34
  -2  -3   2   12.29    2.58
  -2  -3   2   11.97    2.13
  -2  -3   2   12.98    1.87
   1   3  -2  508.76   16.39
   1   3  -2  489.22   17.08
   1   3  -2  503.07   17.06
   1   3  -2  502.40   17.17
   1   3  -2  524.47   17.84
   1   3  -2  511.10   17.23
   1   3  -2  493.47   23.98
   1   3  -2  503.18   18.13
  -1  -3   2  508.49   17.12
  -1  -3   2  516.31   18.28
  -1  -3   2  500.32   17.02
  -1  -3   2  498.71   18.22
  -1  -3   2  526.70   17.88
  -1  -3   2  467.97   16.90
  -1  -3   2  502.26   23.52
   0   3  -2  234.21   10.04
   0   3  -2  201.10    8.06
   0   3  -2  202.69    7.78
   0   3  -2  199.83    8.46
   0   3  -2  218.86    8.15
   0   3  -2  208.59    8.15
   0   3  -2  194.73    8.33
   0   3  -2  203.69    8.62
   0   3  -2  218.93    8.28
   0  -3   2  223.78    9.87
   0  -3   2  204.85    8.14
   0  -3   2  216.08    8.39
   0  -3   2  205.61    7.83
   0  -3   2  202.35    8.61
   0  -3   2  216.27    8.16
   0  -3   2  201.90    8.02
  -1   3  -2   31.08    2.65
  -1   3  -2   37.44    3.02
  -1   3  -2   29.73    3.26
  -1   3  -2   51.93    9.53
  -1   3  -2   32.86    2.18
  -1   3  -2   42.09    3.22
  -1   3  -2   38.35    2.20
  -1   3  -2   37.71    3.12
  -1   3  -2   34.42    3.14
   1  -3   2   50.59    9.62
   1  -3   2   35.21    2.92
   1  -3   2   37.67    3.13
   1  -3   2   26.41    3.14
   1  -3   2   36.46    2.17
   1  -3   2   31.59    2.27
   1  -3   2   35.21    2.90
  -2   3  -2    2.46    1.15
  -2   3  -2    2.88    1.56
  -2   3  -2    3.65    1.70
  -2   3  -2    2.53    1.63
  -2   3  -2    2.96    2.52
  -2   3  -2    2.70    0.97
  -2   3  -2    3.49    4.03
  -2   3  -2    4.69    1.55
  -2   3  -2    2.88    1.73
   2  -3   2    8.70    5.50
   2  -3   2    1.40    1.41
   2  -3   2    0.36    0.73
  -3   3  -2   83.18    6.27
  -3   3  -2   89.25    5.01
  -3   3  -2   81.94   13.58
  -3   3  -2  102.33    7.86
  -3   3  -2   92.87    6.78
  -3   3  -2   82.60    7.03
  -3   3  -2   90.12    6.74
   3  -3   2   71.75    5.18
   3  -3   2   95.34   15.28
   3  -3   2  103.91    7.59
  -4   3  -2   21.45    4.48
  -4   3  -2   20.66    5.26
  -4   3  -2   24.29    4.69
  -4   3  -2   12.65    4.27
  -4   3  -2   16.33    4.74
  -4   3  -2   18.57    4.71
  -4   3  -2   18.59    4.00
   4  -3   2   21.01    4.80
   4   2  -2    1.85    2.39
  -4  -2   2    0.43    2.41
  -4  -2   2    5.38    3.36
  -4  -2   2    4.86    2.65
  -4  -2   2    3.63    3.08
  -4  -2   2    4.88    2.56
  -4  -2   2    3.22    2.39
  -4  -2   2    4.83    3.52
   3   2  -2  234.66   10.29
  -3  -2   2  230.66    9.75
  -3  -2   2  241.74   11.88
  -3  -2   2  243.36   10.24
  -3  -2   2  251.42   10.69
  -3  -2   2  245.68   10.04
  -3  -2   2  224.59   10.68
  -3  -2   2  229.05    9.55
  -3  -2   2  222.50   12.33
  -3  -2   2  239.47   12.97
  -3  -2   2  224.49   12.21
  -3  -2   2  254.18   12.08
   2   2  -2 1604.59   49.14
   2   2  -2 1447.99   61.51
   2   2  -2 1566.24   52.31
   2   2  -2 1597.59   49.31
  -2  -2   2 1543.38   48.99
  -2  -2   2 1550.95   51.38
  -2  -2   2 1567.43   48.79
  -2  -2   2 1570.78   50.84
  -2  -2   2 1611.46   50.98
  -2  -2   2 1546.86   48.67
  -2  -2   2 1568.91   50.07
  -2  -2   2 1591.36   51.45
  -2  -2   2 1493.83   78.38
  -2  -2   2 1537.27   51.73
  -2  -2   2 1567.01   49.16
   1   2  -2 7834.24  230.68
   1   2  -2 7211.00  222.23
   1   2  -2 7198.04  222.77
   1   2  -2 7290.93  222.88
   1   2  -2 7356.10  222.34
  -1  -2   2 7127.26  222.86
  -1  -2   2 7175.72  222.82
  -1  -2   2 6846.98  222.77
  -1  -2   2 7329.89  222.31
  -1  -2   2 7109.21  222.21
  -1  -2   2 7398.10  229.25
   0   2  -2 1754.65   55.81
   0   2  -2 1783.09   56.06
   0   2  -2 1770.76   55.84
   0   2  -2 1806.66   55.70
   0   2  -2 1741.42   56.36
   0   2  -2 1781.22   55.75
   0   2  -2 1753.72   56.25
   0   2  -2 1767.18   56.44
   0   2  -2 1977.54   58.35
   0   2  -2 1744.96   56.44
   0  -2   2 1816.24   56.51
   0  -2   2 1942.21   58.19
   0  -2   2 1790.52   56.49
   0  -2   2 1776.05   56.20
   0  -2   2 1751.86   55.80
   0  -2   2 1795.58   55.79
   0  -2   2 1839.16   55.74
   0  -2   2 1791.89   56.30
   0  -2   2 1800.84   55.89
  -1   2  -2   16.99    2.23
  -1   2  -2   20.72    2.45
  -1   2  -2   22.84    1.60
  -1   2  -2   22.46    2.66
  -1   2  -2   19.30    2.32
  -1   2  -2   20.28    2.60
  -1   2  -2   17.50    1.88
  -1   2  -2   19.85    2.32
  -1   2  -2   19.35    1.42
  -1   2  -2   18.30    1.31
  -1   2  -2   21.89    6.14
   1  -2   2   14.48    4.89
   1  -2   2   18.71    2.37
   1  -2   2   20.37    2.41
   1  -2   2   20.35    2.39
   1  -2   2   22.73    2.67
   1  -2   2   20.43    1.97
   1  -2   2   18.26    1.49
  -2   2  -2  977.55   32.52
  -2   2  -2  961.15   44.37
  -2   2  -2  986.55   33.94
  -2   2  -2  996.27   33.42
  -2   2  -2 1004.05   34.63
  -2   2  -2  985.51   34.53
  -2   2  -2  962.94   33.51
  -2   2  -2  981.02   31.68
  -2   2  -2  963.19   40.57
   2  -2   2 1017.47   32.86
   2  -2   2  999.81   34.37
   2  -2   2  995.17   46.61
  -3   2  -2    7.65    2.72
  -3   2  -2    4.31    2.08
  -3   2  -2    3.65    2.49
  -3   2  -2    7.64    2.64
  -3   2  -2    4.55    1.56
  -3   2  -2    2.47    3.95
  -3   2  -2    4.61    2.45
  -3   2  -2    2.51    1.79
   3  -2   2    2.75    2.36
   3  -2   2    4.72    1.49
  -4   2  -2   35.14    6.50
  -4   2  -2   40.41    5.52
  -4   2  -2   42.33    6.40
  -4   2  -2   40.78    6.81
  -4   2  -2   46.10    7.59
  -4   2  -2   43.86    6.17
   4  -2   2   44.18    6.43
   4   1  -2   55.48    5.95
  -4  -1   2   65.57    8.47
  -4  -1   2   54.03    7.63
  -4  -1   2   54.02    7.50
  -4  -1   2   53.91    7.17
  -4  -1   2   82.12    9.74
  -4  -1   2   52.37    6.98
  -4  -1   2   64.41    7.05
   3   1  -2   12.48    2.46
  -3  -1   2    8.27    2.97
  -3  -1   2   11.47    2.70
  -3  -1   2    8.79    1.96
  -3  -1   2   11.11    2.20
  -3  -1   2   14.27    2.77
  -3  -1   2   10.62    2.08
  -3  -1   2   12.26    3.52
  -3  -1   2    2.55    6.51
  -3  -1   2    9.41    2.73
  -3  -1   2    8.18    2.69
  -3  -1   2   10.76    2.88
   2   1  -2  763.46   36.17
   2   1  -2  785.67   25.80
  -2  -1   2  737.89   48.19
  -2  -1   2  781.71   25.73
  -2  -1   2  778.38   27.10
  -2  -1   2  810.87   27.48
  -2  -1   2  770.90   25.30
  -2  -1   2  767.33   25.51
  -2  -1   2  761.87   27.34
  -2  -1   2  771.34   26.19
  -2  -1   2  764.82   27.38
   1   1  -2   11.32    1.71
   1   1  -2   12.71    1.27
   1   1  -2    9.28    1.79
   1   1  -2   10.72    1.88
   1   1  -2   11.29    1.84
   1   1  -2   11.67    1.90
  -1  -1   2   10.14    1.79
  -1  -1   2   10.70    1.20
  -1  -1   2   19.71    4.18
  -1  -1   2   12.87    2.01
  -1  -1   2    9.09    1.08
  -1  -1   2   10.91    1.70
  -1  -1   2   10.02    1.77
   0   1  -2   14.71    1.37
   0   1  -2   18.79    1.41
   0   1  -2   19.04    1.28
   0   1  -2   21.31    1.67
   0   1  -2   18.76    1.49
   0   1  -2   18.77    1.27
   0   1  -2   17.16    2.24
   0   1  -2   17.35    1.33
   0   1  -2   25.23    1.38
   0  -1   2   18.27    1.38
   0  -1   2   19.17    1.29
   0  -1   2   16.70    1.52
   0  -1   2   18.03    1.35
   0  -1   2   15.37    1.42
   0  -1   2   19.52    1.28
   0  -1   2   17.34    1.35
   0  -1   2   17.76    2.14
   0  -1   2   17.29    1.25
   0  -1   2   17.65    1.45
  -1   1  -2  849.44   26.57
  -1   1  -2  860.77   28.83
  -1   1  -2  864.73   27.32
  -1   1  -2  897.77   28.18
  -1   1  -2  876.35   28.51
  -1   1  -2  710.78   28.25
  -1   1  -2  829.06   28.34
  -1   1  -2  875.71   28.07
  -1   1  -2  855.32   27.63
   1  -1   2  868.31   28.81
   1  -1   2  868.88   28.12
   1  -1   2  863.98   27.33
   1  -1   2  881.69   28.67
   1  -1   2  853.40   28.53
   1  -1   2  867.40   28.15
   1  -1   2  925.22   32.61
   1  -1   2  881.94   28.11
   1  -1   2  848.25   28.38
  -2   1  -2  958.32   38.57
  -2   1  -2  966.93   33.25
  -2   1  -2  928.34   32.98
  -2   1  -2  963.82   32.43
  -2   1  -2  964.60   34.30
  -2   1  -2 1001.95   33.35
  -2   1  -2  949.32   34.03
  -2   1  -2  963.38   30.50
  -2   1  -2  959.69   31.19
  -2   1  -2 1029.85   42.14
  -2   1  -2  988.04   34.35
   2  -1   2  996.07   31.79
   2  -1   2  898.78   32.27
   2  -1   2  966.71   33.24
   2  -1   2  983.95   33.49
  -3   1  -2  964.88   36.11
  -3   1  -2  999.44   36.52
  -3   1  -2  930.00   34.75
  -3   1  -2  979.41   36.27
  -3   1  -2  911.27   33.00
  -3   1  -2  940.14   31.92
  -3   1  -2  922.98   33.97
   3  -1   2  946.17   31.09
   3  -1   2  989.12   34.92
  -4   1  -2   14.32    3.69
  -4   1  -2   18.16    5.12
  -4   1  -2   23.37    5.68
  -4   1  -2   16.21    4.71
  -4   1  -2   24.12    4.95
   4  -1   2   15.82    4.18
   4   0  -2   53.82    6.18
  -4   0   2   57.87    8.38
  -4   0   2   56.74    8.22
  -4   0   2   61.49    6.67
  -4   0   2   44.95    6.63
  -4   0   2   50.27    7.36
  -4   0   2   51.54    6.86
  -4   0   2   41.26    4.90
  -4   0   2   47.60    6.84
  -4   0   2   45.10    5.69
   3   0  -2   13.26    2.67
  -3   0   2   14.63    3.02
  -3   0   2   14.48    3.61
  -3   0   2   16.62    2.17
  -3   0   2   12.00    3.19
  -3   0   2   11.41    3.09
  -3   0   2   12.16    2.53
  -3   0   2   13.43    3.30
  -3   0   2   11.41    3.23
  -3   0   2   16.58    3.11
  -3   0   2   15.88    2.57
  -3   0   2   10.72    8.08
  -3   0   2   16.36    3.25
   2   0  -2 1185.16   48.64
   2   0  -2 1202.83   38.13
  -2   0   2 1170.70   37.37
  -2   0   2 1138.04   37.89
  -2   0   2 1186.11   39.18
  -2   0   2 1153.04   38.72
  -2   0   2 1102.55   50.05
  -2   0   2 1165.69   38.86
  -2   0   2 1136.12   37.28
  -2   0   2 1200.00   38.02
  -2   0   2 1115.45   62.31
  -2   0   2 1157.71   39.65
   0   0  -2  354.88   12.73
   0   0  -2  383.56   12.51
   0   0  -2  386.14   12.09
   0   0  -2  364.28   12.82
   0   0  -2  372.49   12.55
   0   0  -2  383.80   12.43
   0   0  -2  382.05   13.01
   0   0  -2  396.09   12.80
   0   0   2  390.55   12.59
   0   0   2  400.98   14.89
   0   0   2  360.46   12.62
   0   0   2  380.85   13.02
   0   0   2  389.47   12.50
   0   0   2  386.85   12.78
   0   0   2  385.09   12.11
   0   0   2  357.11   12.80
   0   0   2  389.73   12.66
   0   0   2  359.24   12.39
   0   0   2  375.49   12.55
  -1   0  -2 2190.01   70.75
  -1   0  -2 2178.71   68.77
  -1   0  -2 2190.08   69.61
  -1   0  -2 2257.81   70.17
  -1   0  -2 2260.69   70.52
  -1   0  -2 2244.34   70.28
  -1   0  -2 2245.88   70.64
  -1   0  -2 2229.93   70.01
  -1   0  -2 2243.12   70.16
  -1   0  -2 2278.68   69.35
   1   0   2 2279.01   69.31
   1   0   2 2260.30   70.50
   1   0   2 2270.70   70.21
   1   0   2 2213.29   70.08
   1   0   2 2232.08   68.79
   1   0   2 2274.87   70.36
   1   0   2 2214.33   70.66
  -2   0  -2 1518.95   53.16
  -2   0  -2 1620.50   52.62
  -2   0  -2 1591.47   50.41
  -2   0  -2 1606.51   52.28
  -2   0  -2 1581.95   50.30
  -2   0  -2 1658.68   52.02
  -2   0  -2 1575.93   53.18
  -2   0  -2 1559.27   51.82
  -2   0  -2 1540.24   50.57
   2   0   2 1533.75   50.52
   2   0   2 1605.97   50.21
   2   0   2 1647.70   52.19
  -3   0  -2   89.34    5.54
  -3   0  -2   85.83    5.36
  -3   0  -2   87.64    6.55
  -3   0  -2   87.37    7.48
  -3   0  -2   87.87    4.56
  -3   0  -2   91.32    7.84
  -3   0  -2   92.05    7.22
  -3   0  -2   89.72    7.83
   3   0   2   85.88    4.04
   3   0   2   90.56    6.66
  -4   0  -2  156.16    9.80
  -4   0  -2  160.48   12.00
  -4   0  -2  136.13   10.67
  -4   0  -2  146.85   11.83
  -4   0  -2  128.02   10.96
   4   0   2  142.20    9.94
   4  -1  -2    1.98    2.20
  -4   1   2    1.97    2.12
  -4   1   2    0.42    1.83
  -4   1   2   -3.00    1.69
  -4   1   2    1.95    2.02
  -4   1   2    0.06    2.37
  -4   1   2    3.92    2.38
  -4   1   2    2.77    3.19
  -4   1   2    0.99    2.05
  -4   1   2   -0.44    2.10
  -4   1   2    1.20    1.73
  -4   1   2    2.21    2.22
  -4   1   2   -0.43    2.27
   3  -1  -2  218.34   11.00
  -3   1   2  236.28   12.69
  -3   1   2  233.19   11.55
  -3   1   2  241.10   12.26
  -3   1   2  229.60   11.19
  -3   1   2  229.20   10.94
  -3   1   2  237.99   11.36
  -3   1   2  208.31   11.89
  -3   1   2  229.22   12.27
  -3   1   2  233.78   10.48
  -3   1   2  262.19   12.17
   2  -1  -2  912.82   38.82
   2  -1  -2  902.48   28.22
  -2   1   2  893.39   30.07
  -2   1   2  926.52   30.73
  -2   1   2  858.77   29.67
  -2   1   2  903.43   29.56
  -2   1   2  854.44   37.03
  -2   1   2  898.25   29.27
  -2   1   2  860.12   28.36
  -2   1   2  858.97   28.27
  -2   1   2  915.69   30.48
  -2   1   2  742.10   49.32
   1  -1  -2  319.38   11.56
   1  -1  -2  320.75   11.71
   1  -1  -2  372.68   16.28
   1  -1  -2  335.29   11.54
  -1   1   2  325.03   11.31
  -1   1   2  321.03   11.49
  -1   1   2  327.70   12.22
  -1   1   2  314.52   11.69
  -1   1   2  333.23   11.94
  -1   1   2  373.17   16.02
  -1   1   2  329.45   12.11
  -1   1   2  310.06   11.57
   0  -1  -2 5661.03  166.24
   0   1   2 4680.90  151.12
   0   1   2 4662.95  150.53
   0   1   2 5537.72  165.55
   0   1   2 4647.45  150.63
   0   1   2 4673.94  150.57
   0   1   2 4601.54  150.71
  -1  -1  -2 1111.06   36.32
  -1  -1  -2 1065.99   35.95
  -1  -1  -2 1126.58   36.48
  -1  -1  -2 1115.59   35.86
  -1  -1  -2 1093.22   34.49
  -1  -1  -2 1125.18   36.57
  -1  -1  -2 1077.32   36.12
  -1  -1  -2 1115.95   36.36
  -1  -1  -2 1194.07   41.53
  -1  -1  -2 1088.83   36.04
  -1  -1  -2 1103.75   35.21
   1   1   2 1118.88   35.96
   1   1   2 1110.81   36.39
   1   1   2 1137.22   36.03
   1   1   2 1093.09   36.11
   1   1   2 1064.71   35.12
   1   1   2 1129.57   34.51
  -2  -1  -2  467.24   16.84
  -2  -1  -2  468.57   17.86
  -2  -1  -2  466.15   19.01
  -2  -1  -2  447.22   17.49
  -2  -1  -2  453.85   18.59
  -2  -1  -2  475.44   19.03
  -2  -1  -2  462.61   17.38
  -2  -1  -2  483.86   19.64
  -2  -1  -2  465.77   16.00
  -2  -1  -2  528.33   22.04
  -2  -1  -2  453.14   17.69
   2   1   2  464.24   17.84
   2   1   2  470.44   16.77
  -3  -1  -2   32.08    5.50
  -3  -1  -2   33.77    3.97
  -3  -1  -2   48.16    5.28
  -3  -1  -2   36.03    5.67
  -3  -1  -2   37.07    3.98
  -3  -1  -2   43.26    5.89
  -3  -1  -2   49.23    6.84
  -3  -1  -2   36.88    3.19
   3   1   2   40.00    5.04
  -4  -1  -2   47.60    6.16
  -4  -1  -2   32.78    6.52
  -4  -1  -2   39.89    6.68
  -4  -1  -2   55.72    8.68
  -4  -1  -2   42.03    7.28
   4   1   2   44.36    6.12
   4  -2  -2   -0.11    2.09
  -4   2   2   -0.28    1.70
  -4   2   2   -0.47    1.51
  -4   2   2   -2.07    1.97
  -4   2   2    0.53    2.28
  -4   2   2    1.75    2.04
  -4   2   2    1.32    2.02
  -4   2   2    0.10    2.45
  -4   2   2    0.42    1.82
  -4   2   2   -1.80    1.37
  -4   2   2   -2.42    2.11
  -4   2   2   -2.58    2.08
  -4   2   2    0.01    1.72
   3  -2  -2   28.55   13.28
   3  -2  -2   30.89    2.67
   3  -2  -2   35.58    4.60
  -3   2   2   40.47    5.06
  -3   2   2   37.02    4.57
  -3   2   2   43.51    5.59
  -3   2   2   33.01    4.31
  -3   2   2   32.65    4.58
  -3   2   2   42.07    4.56
  -3   2   2   31.14    4.98
  -3   2   2   45.06    4.87
  -3   2   2   42.80    5.20
  -3   2   2   37.87    2.90
  -3   2   2   29.24    4.63
   2  -2  -2  199.78    9.45
   2  -2  -2  232.89   15.16
   2  -2  -2  163.63   22.54
   2  -2  -2  194.23    7.59
   2  -2  -2  201.78    8.30
  -2   2   2  195.99    9.06
  -2   2   2  207.95    9.13
  -2   2   2  187.60    9.40
  -2   2   2  190.25    9.14
  -2   2   2  221.40   10.26
  -2   2   2  206.29    9.04
  -2   2   2  197.70    9.51
  -2   2   2  197.48    8.40
  -2   2   2  199.49    7.72
  -2   2   2  223.98   14.37
  -2   2   2  225.65   25.01
   1  -2  -2  802.41   26.76
   1  -2  -2  789.82   26.78
   1  -2  -2  795.05   26.73
   1  -2  -2  857.52   30.89
   1  -2  -2  804.87   26.96
   1  -2  -2  922.16   48.98
  -1   2   2  773.29   27.46
  -1   2   2  779.64   25.71
  -1   2   2  800.53   27.03
  -1   2   2  777.74   26.71
  -1   2   2  774.44   27.08
  -1   2   2  958.85   48.80
  -1   2   2  836.86   30.33
  -1   2   2  798.05   26.76
  -1   2   2  798.30   26.78
   0  -2  -2   68.20    3.61
   0  -2  -2   68.35    3.58
   0  -2  -2   75.55    4.04
   0  -2  -2   66.09    3.84
   0  -2  -2   63.07    3.73
   0  -2  -2   88.30   11.84
   0  -2  -2   69.09    3.25
   0  -2  -2   68.20    3.79
   0  -2  -2   64.63    3.68
   0   2   2   66.57    3.80
   0   2   2   68.08    3.51
   0   2   2   70.84    3.58
   0   2   2   67.42    3.57
   0   2   2   70.14    3.81
   0   2   2   67.24    3.88
   0   2   2   70.67    3.92
   0   2   2   69.82    3.85
   0   2   2   93.96   11.90
  -1  -2  -2  376.07   14.38
  -1  -2  -2  365.31   13.53
  -1  -2  -2  371.33   13.91
  -1  -2  -2  378.31   14.48
  -1  -2  -2  370.40   13.81
  -1  -2  -2  391.06   14.17
  -1  -2  -2  421.41   24.23
  -1  -2  -2  367.67   14.45
   1   2   2  379.25   13.97
   1   2   2  392.45   13.95
   1   2   2  369.80   14.32
   1   2   2  366.19   13.67
   1   2   2  363.23   13.36
   1   2   2  385.91   13.61
  -2  -2  -2 1152.03   38.19
  -2  -2  -2 1212.43   40.04
  -2  -2  -2 1151.54   37.87
  -2  -2  -2 1182.88   38.54
  -2  -2  -2 1123.72   48.66
  -2  -2  -2 1101.22   40.22
  -2  -2  -2 1155.06   39.84
  -2  -2  -2 1140.79   39.83
  -2  -2  -2 1107.53   37.96
   2   2   2 1186.54   38.42
   2   2   2 1073.87   36.47
   2   2   2 1138.38   37.71
  -3  -2  -2   49.32    6.60
  -3  -2  -2   41.75    4.78
  -3  -2  -2   43.06    4.55
  -3  -2  -2   33.69    2.38
  -3  -2  -2   27.04    4.75
  -3  -2  -2   23.50    8.33
  -3  -2  -2   28.88    6.35
  -3  -2  -2   50.84    7.28
  -3  -2  -2   39.11    4.65
  -3  -2  -2   35.92    5.77
   3   2   2   33.44    4.40
  -4  -2  -2    1.60    2.07
  -4  -2  -2    8.71    4.37
  -4  -2  -2   -1.18    2.43
  -4  -2  -2    4.67    3.46
  -4  -2  -2    8.74    3.66
  -4  -2  -2    4.40    2.98
   4   2   2    9.03    3.14
   4  -3  -2  151.16   10.40
  -4   3   2  124.47    8.95
  -4   3   2  139.04    8.71
  -4   3   2  130.25    9.63
  -4   3   2  132.56    8.89
  -4   3   2  122.87   10.29
  -4   3   2  130.21    8.81
  -4   3   2  144.73   10.74
  -4   3   2  146.04    9.48
  -4   3   2  140.41    9.85
  -4   3   2  136.91   10.02
  -4   3   2  142.42    9.69
   3  -3  -2   27.75   14.16
   3  -3  -2   17.60    3.63
  -3   3   2   17.20    3.78
  -3   3   2   19.81    3.55
  -3   3   2   12.93    3.49
  -3   3   2   16.27    3.06
  -3   3   2   14.01    2.48
  -3   3   2   16.46    3.24
  -3   3   2   15.62    3.46
  -3   3   2   15.07    3.10
  -3   3   2   21.81    3.68
   2  -3  -2   40.39    2.72
   2  -3  -2   50.60   16.44
   2  -3  -2   33.02    4.06
  -2   3   2   36.96    3.75
  -2   3   2   46.53    6.19
  -2   3   2   36.88    4.42
  -2   3   2   38.46    3.30
  -2   3   2   39.75    4.19
  -2   3   2   39.17    4.54
  -2   3   2   51.18   15.42
  -2   3   2   39.80    4.17
  -2   3   2   39.48    3.19
   1  -3  -2  839.68   28.78
   1  -3  -2  848.54   28.52
   1  -3  -2  841.84   28.53
   1  -3  -2  864.38   28.04
   1  -3  -2  866.72   31.48
  -1   3   2  839.06   29.30
  -1   3   2  852.70   26.58
  -1   3   2  863.61   28.08
  -1   3   2  857.89   28.83
  -1   3   2  850.40   27.48
  -1   3   2  868.32   29.44
  -1   3   2  880.54   26.44
  -1   3   2  834.98   30.87
  -1   3   2  847.03   28.87
  -1   3   2  829.71   27.40
  -1   3   2  880.98   50.64
  -1   3   2  818.08   28.46
   0  -3  -2    4.95    1.34
   0  -3  -2    6.35    0.66
   0  -3  -2    7.25    1.53
   0  -3  -2    3.76    4.10
   0  -3  -2    5.77    1.30
   0  -3  -2    7.49    1.56
   0  -3  -2    7.37    1.13
   0  -3  -2    8.54    1.76
   0  -3  -2    6.77    1.29
   0  -3  -2    6.83    1.49
   0  -3  -2    6.59    1.50
   0   3   2    4.33    1.32
   0   3   2    5.53    1.14
   0   3   2    5.21    1.38
   0   3   2    4.35    4.58
   0   3   2    8.51    1.73
   0   3   2    7.13    1.53
   0   3   2    5.48    1.51
   0   3   2    5.40    1.32
   0   3   2    4.76    1.16
  -1  -3  -2  453.50   17.53
  -1  -3  -2  476.12   17.10
  -1  -3  -2  517.11   32.32
  -1  -3  -2  454.38   17.54
  -1  -3  -2  465.11   16.94
  -1  -3  -2  466.54   16.88
  -1  -3  -2  467.49   17.59
  -1  -3  -2  466.48   17.04
  -1  -3  -2  448.08   16.76
   1   3   2  481.91   16.93
   1   3   2  463.99   16.99
   1   3   2  490.75   16.88
   1   3   2  459.45   17.66
   1   3   2  476.66   17.03
   1   3   2  477.81   17.64
  -2  -3  -2  210.36   19.64
  -2  -3  -2  210.51   11.15
  -2  -3  -2  225.48   10.21
  -2  -3  -2  222.60    9.77
  -2  -3  -2  239.58   10.24
  -2  -3  -2  217.19   11.06
  -2  -3  -2  212.57   11.16
   2   3   2  234.43   10.07
   2   3   2  221.86    8.91
   2   3   2  210.03    9.79
  -3  -3  -2   71.56    8.17
  -3  -3  -2   60.91    4.55
  -3  -3  -2   70.13    7.94
  -3  -3  -2   77.08   11.68
  -3  -3  -2   46.17    5.31
  -3  -3  -2   57.78    5.83
  -3  -3  -2   49.54    6.95
  -3  -3  -2   71.55    8.08
  -3  -3  -2   63.55    5.82
   3   3   2   61.77    5.31
  -4  -3  -2   57.21    6.63
  -4  -3  -2   64.53    9.50
  -4  -3  -2   57.27    8.36
  -4  -3  -2   74.80    9.64
  -4  -3  -2   54.87    8.44
  -4  -3  -2   68.13    9.40
   4   3   2   58.97    6.92
   4  -4  -2   37.18    5.92
   4  -4  -2   15.43   13.60
  -4   4   2   23.57    5.52
  -4   4   2   35.74    5.11
  -4   4   2   35.55    5.25
  -4   4   2   28.17    5.43
  -4   4   2   31.54    5.92
  -4   4   2   32.84    5.79
  -4   4   2   39.50    5.42
  -4   4   2   33.84    5.43
  -4   4   2   39.72    5.78
  -4   4   2   38.41    5.39
   3  -4  -2   30.52    3.75
   3  -4  -2   31.10    4.91
   3  -4  -2   28.56   14.44
  -3   4   2   36.61    4.51
  -3   4   2   36.94    4.91
  -3   4   2   33.75    4.97
  -3   4   2   33.31    4.98
  -3   4   2   32.91    4.50
  -3   4   2   41.20    5.26
  -3   4   2   46.01    6.18
  -3   4   2   45.08    4.94
  -3   4   2   42.22    4.49
   2  -4  -2  143.74    6.64
   2  -4  -2  119.75   10.22
   2  -4  -2  137.80    7.43
   2  -4  -2  147.69    8.27
  -2   4   2  131.98    8.15
  -2   4   2  143.78    6.54
  -2   4   2  148.34    7.70
  -2   4   2  135.19    8.45
  -2   4   2  147.30    7.42
  -2   4   2  127.90    9.91
  -2   4   2  142.42    6.75
  -2   4   2  136.37    7.57
   1  -4  -2   57.57    4.36
   1  -4  -2   62.64    4.32
   1  -4  -2   63.79    4.39
   1  -4  -2   68.08    5.50
   1  -4  -2   62.67    2.60
   1  -4  -2   78.20   15.88
   1  -4  -2   62.07    3.73
  -1   4   2   61.94    5.11
  -1   4   2   62.39    2.52
  -1   4   2   59.47    3.73
  -1   4   2   58.78    4.65
  -1   4   2   63.38    4.79
  -1   4   2   57.83    2.60
  -1   4   2   63.69    4.50
  -1   4   2   59.26    4.45
  -1   4   2   65.95    4.40
  -1   4   2   73.74   14.45
  -1   4   2   56.87    4.16
  -1   4   2   59.96    3.10
   0  -4  -2   79.91    4.96
   0  -4  -2   84.67    4.12
   0  -4  -2   91.38   15.24
   0  -4  -2   81.66    4.88
   0  -4  -2   83.46    4.33
   0  -4  -2   82.46    4.84
   0  -4  -2   84.24    5.16
   0  -4  -2   74.41    4.78
   0  -4  -2   85.07    5.02
   0   4   2   64.57    4.64
   0   4   2   84.91    5.19
   0   4   2   84.36    4.33
   0   4   2   82.90    4.65
   0   4   2  105.50   16.14
   0   4   2   80.38    4.93
   0   4   2   86.25    5.53
   0   4   2   83.80    4.89
   0   4   2   84.70    5.10
  -1  -4  -2   65.07    4.40
  -1  -4  -2   76.97    5.12
  -1  -4  -2   57.80   12.20
  -1  -4  -2   71.45    4.92
  -1  -4  -2   70.10    4.60
  -1  -4  -2   72.40    4.49
  -1  -4  -2   74.65    4.89
  -1  -4  -2   71.14    4.94
  -1  -4  -2   68.63    5.08
   1   4   2   69.38    5.09
   1   4   2   66.81    4.44
   1   4   2   69.49    3.07
   1   4   2   72.86    4.75
   1   4   2   75.61    5.04
   1   4   2   71.22    4.51
  -2  -4  -2   40.39    5.07
  -2  -4  -2   38.36   11.66
  -2  -4  -2   30.36    3.72
  -2  -4  -2   29.91    4.11
  -2  -4  -2   38.95    5.61
  -2  -4  -2   32.89    3.65
  -2  -4  -2   32.65    4.05
   2   4   2   31.43    3.69
   2   4   2   33.36    3.37
  -3  -4  -2    6.36    2.55
  -3  -4  -2    6.17    2.61
  -3  -4  -2    7.06    2.28
  -3  -4  -2    5.55    2.58
  -3  -4  -2    3.53    2.64
  -3  -4  -2   10.09    6.48
  -3  -4  -2    3.92    2.72
  -3  -4  -2    3.95    2.78
  -3  -4  -2   10.50    3.43
  -3  -4  -2    5.37    2.24
   3   4   2    7.94    2.44
  -4  -4  -2   46.34    7.40
  -4  -4  -2   58.39    8.66
  -4  -4  -2   56.76    8.08
  -4  -4  -2   55.07    6.60
  -4  -4  -2   70.95    9.61
  -4  -4  -2   81.36   10.72
   4  -5  -2   15.81    4.50
   4  -5  -2    4.21    9.66
  -4   5   2   15.22    4.00
  -4   5   2   11.58    3.84
  -4   5   2    7.37    2.82
  -4   5   2   12.45    3.95
  -4   5   2    8.75    2.98
  -4   5   2   14.72    5.12
  -4   5   2   10.53    3.95
  -4   5   2   12.35    3.66
   3  -5  -2   38.74   18.37
   3  -5  -2   30.29    4.06
   3  -5  -2   32.36    5.17
  -3   5   2   29.69    3.94
  -3   5   2   29.21    3.59
  -3   5   2   24.23    4.28
  -3   5   2   23.75    4.24
  -3   5   2   25.36    4.65
  -3   5   2   25.72    3.66
  -3   5   2   34.82    5.78
   2  -5  -2    0.60    1.12
   2  -5  -2   -0.35    1.54
   2  -5  -2    0.56    5.19
   2  -5  -2    0.65    1.29
  -2   5   2    1.15    1.46
  -2   5   2   -0.24    1.15
  -2   5   2    0.65    1.12
  -2   5   2    0.40    1.01
  -2   5   2    0.33    1.52
  -2   5   2    0.26    0.78
  -2   5   2    0.80    0.81
  -2   5   2    0.31    1.47
   1  -5  -2    1.28    1.26
   1  -5  -2    1.01    0.56
   1  -5  -2    1.56    1.03
   1  -5  -2    0.48    0.45
   1  -5  -2   -0.43    1.11
   1  -5  -2    0.04    1.02
   1  -5  -2   -0.20    3.81
   1  -5  -2    0.07    0.94
  -1   5   2    1.09    1.23
  -1   5   2   -0.13    1.10
  -1   5   2    0.53    1.04
  -1   5   2   -0.95    0.79
  -1   5   2   -0.16    0.54
  -1   5   2    0.71    0.92
  -1   5   2    0.26    0.47
  -1   5   2   -0.41    0.61
   0  -5  -2   79.47    4.41
   0  -5  -2  110.95   18.53
   0  -5  -2   81.93    4.64
   0  -5  -2   75.39    5.15
   0  -5  -2   78.90    5.39
   0  -5  -2   84.43    5.46
   0  -5  -2   85.60    5.47
   0  -5  -2   83.79    5.64
   0   5   2   89.08    5.54
   0   5   2   83.63    5.55
   0   5   2   97.22   17.19
   0   5   2   78.29    4.93
   0   5   2   89.18    4.69
   0   5   2   81.26    5.25
   0   5   2   85.08    5.70
  -1  -5  -2    8.39    7.17
  -1  -5  -2    2.83    1.37
  -1  -5  -2    2.66    1.48
  -1  -5  -2    5.26    1.83
  -1  -5  -2    2.35    1.34
  -1  -5  -2    3.22    1.78
  -1  -5  -2    1.85    1.56
  -1  -5  -2    3.77    1.74
   1   5   2    3.99    1.01
   1   5   2    2.84    1.69
   1   5   2    2.09    1.51
  -2  -5  -2  133.05    7.81
  -2  -5  -2   96.34    7.64
  -2  -5  -2  111.94    7.97
  -2  -5  -2  117.87    7.58
  -2  -5  -2  116.29   18.97
  -2  -5  -2  113.02    6.37
  -2  -5  -2  120.39    7.15
  -2  -5  -2  111.64    7.89
   2   5   2  122.21    6.74
   2   5   2  118.35    6.50
  -3  -5  -2    1.38    2.00
  -3  -5  -2    0.07    2.39
  -3  -5  -2    0.49    1.75
  -3  -5  -2    1.79    5.54
  -3  -5  -2    0.02    2.06
  -3  -5  -2   -0.11    1.40
  -3  -5  -2   -1.49    1.81
  -3  -5  -2   -1.40    1.55
   3   5   2    3.31    1.71
  -4  -5  -2   49.55    8.35
  -4  -5  -2   45.37    7.79
  -4  -5  -2   59.89    8.58
  -4  -5  -2   49.04    8.59
  -4  -5  -2   62.96    8.78
   4  -6  -2    3.79    9.65
  -4   6   2    0.88    2.61
  -4   6   2    7.52    3.78
  -4   6   2    1.95    2.89
  -4   6   2    2.13    2.65
  -4   6   2    3.52    2.62
   3  -6  -2   51.70    5.90
   3  -6  -2   53.34    4.51
   3  -6  -2   32.93   17.93
  -3   6   2   57.20    7.40
  -3   6   2   57.61    4.37
  -3   6   2   45.36    3.92
  -3   6   2   56.86    6.66
  -3   6   2   44.20    6.33
  -3   6   2   56.55    4.49
  -3   6   2   47.51    5.72
   2  -6  -2  259.04   14.35
   2  -6  -2  262.67   12.65
   2  -6  -2  259.61   10.56
   2  -6  -2  214.22   31.87
  -2   6   2  258.86    9.91
  -2   6   2  255.70    9.66
  -2   6   2  286.81   13.99
  -2   6   2  267.86   13.60
  -2   6   2  241.74   13.27
  -2   6   2  267.77   10.59
  -2   6   2  265.68    9.59
  -2   6   2  249.20   12.36
   1  -6  -2    6.53    1.62
   1  -6  -2    0.76    5.02
   1  -6  -2   11.18    2.55
   1  -6  -2    7.72    2.28
   1  -6  -2    6.65    2.22
   1  -6  -2    7.01    1.15
   1  -6  -2    7.30    1.09
  -1   6   2    6.63    1.70
  -1   6   2    9.79    2.48
  -1   6   2    9.00    1.31
  -1   6   2    8.73    2.48
  -1   6   2    7.56    1.18
  -1   6   2    9.61    2.56
   0  -6  -2   55.53   16.51
   0  -6  -2   56.76    4.89
   0  -6  -2   59.56    3.83
   0  -6  -2   49.96    3.65
   0  -6  -2   57.15    4.61
   0   6   2   55.64    3.76
   0   6   2   55.53    4.73
   0   6   2   53.56    4.15
   0   6   2   56.19    4.49
  -1  -6  -2   21.37    3.31
  -1  -6  -2   25.19    3.45
  -1  -6  -2   24.88    3.59
  -1  -6  -2   16.45    3.15
  -1  -6  -2   25.33    3.81
  -1  -6  -2   15.35    9.76
  -1  -6  -2   21.97    3.37
  -1  -6  -2   31.86    3.88
   1   6   2   30.99    4.32
   1   6   2   26.74    2.33
   1   6   2   26.10    3.48
  -2  -6  -2  167.20    8.26
  -2  -6  -2  166.18   10.17
  -2  -6  -2  179.19   10.49
  -2  -6  -2  156.50    9.21
  -2  -6  -2  152.74    9.96
  -2  -6  -2  131.79   22.48
  -2  -6  -2  159.21    8.85
  -2  -6  -2  166.80    9.61
   2   6   2  158.69    8.31
   2   6   2  164.33    8.42
   2   6   2  172.40   10.09
  -3  -6  -2  168.51   12.39
  -3  -6  -2  155.62    9.40
  -3  -6  -2  122.54   22.04
  -3  -6  -2  174.97   11.78
  -3  -6  -2  169.11   10.37
  -3  -6  -2  158.66   11.33
  -3  -6  -2  167.40   11.21
  -3  -6  -2  175.26   11.82
   3   6   2  175.04    9.28
  -4  -6  -2   38.70    7.19
  -4  -6  -2   31.27    7.33
  -4  -6  -2   25.73    5.93
  -4  -6  -2   18.32    5.10
  -4  -6  -2   31.28    6.80
   4  -7  -2   24.78   17.36
  -4   7   2   24.59    5.01
  -4   7   2   19.71    5.40
  -4   7   2   20.79    4.98
  -4   7   2   15.92    5.04
   3  -7  -2    0.83    1.91
   3  -7  -2   -0.06    7.59
  -3   7   2    0.49    1.28
  -3   7   2   -1.71    1.81
  -3   7   2   -0.07    1.89
  -3   7   2   -1.55    1.50
   2  -7  -2   52.80    5.98
   2  -7  -2   46.94    5.23
   2  -7  -2   35.01    4.79
   2  -7  -2   26.93   15.53
   2  -7  -2   45.96    3.51
  -2   7   2   36.52    4.92
  -2   7   2   37.25    4.46
  -2   7   2   37.19    5.37
  -2   7   2   42.30    2.75
  -2   7   2   42.90    3.00
  -2   7   2   36.42    5.56
  -2   7   2   41.92    2.49
  -2   7   2   40.35    3.33
   1  -7  -2    0.23    0.77
   1  -7  -2    0.10    0.66
   1  -7  -2   -0.55    1.25
   1  -7  -2   -0.28    5.20
   1  -7  -2    0.96    1.28
  -1   7   2   -0.90    1.25
  -1   7   2    0.27    1.48
  -1   7   2   -0.17    1.23
  -1   7   2    0.84    0.65
  -1   7   2    0.98    0.76
  -1   7   2    0.07    0.99
   0  -7  -2    2.03    1.12
   0  -7  -2   -0.06    0.77
   0  -7  -2    0.38    4.56
   0  -7  -2   -0.29    0.72
   0  -7  -2    0.72    1.24
   0  -7  -2   -1.84    1.10
   0   7   2    0.05    0.87
   0   7   2    2.28    1.63
   0   7   2   -0.98    0.99
   0   7   2    0.33    1.23
   0   7   2    0.92    0.98
  -1  -7  -2    3.86    1.85
  -1  -7  -2    3.12    1.93
  -1  -7  -2    1.71    1.55
  -1  -7  -2    3.41    6.08
  -1  -7  -2   -0.21    1.17
  -1  -7  -2    1.73    1.69
   1   7   2    3.92    1.78
   1   7   2    2.30    2.01
   1   7   2    2.26    1.19
  -2  -7  -2   19.90    4.07
  -2  -7  -2   16.25    3.90
  -2  -7  -2   20.11    3.76
  -2  -7  -2   16.59   11.27
  -2  -7  -2   11.67    2.85
  -2  -7  -2   16.21    3.71
  -2  -7  -2    9.83    3.18
  -2  -7  -2   20.37    4.06
   2   7   2   19.25    3.14
   2   7   2   17.32    3.09
  -3  -7  -2   10.81   13.84
  -3  -7  -2   31.72    4.86
  -3  -7  -2   21.93    4.92
  -3  -7  -2   20.70    4.87
  -3  -7  -2   22.86    4.71
  -3  -7  -2   32.40    5.96
  -3  -7  -2   31.28    6.81
  -3  -7  -2   26.06    5.58
   3   7   2   27.96    4.18
  -4  -7  -2   65.17    9.48
  -4  -7  -2   62.72    9.26
  -4  -7  -2   74.89    9.80
   4  -8  -2    7.00   13.80
  -4   8   2    3.02    2.80
  -4   8   2   -0.21    2.84
  -4   8   2    4.13    3.43
  -4   8   2   -0.39    2.52
   3  -8  -2   41.12   21.59
   3  -8  -2   82.57    8.33
  -3   8   2   65.17    7.82
  -3   8   2   58.09    8.06
  -3   8   2   80.61    9.67
   2  -8  -2  605.86   25.39
   2  -8  -2  552.49   23.26
   2  -8  -2  639.45   24.75
   2  -8  -2  656.15   21.69
  -2   8   2  635.25   26.39
  -2   8   2  623.08   26.45
  -2   8   2  624.94   25.24
  -2   8   2  626.85   20.91
  -2   8   2  605.49   21.81
   1  -8  -2   63.80    5.91
   1  -8  -2   88.47    4.56
   1  -8  -2   86.52    7.13
   1  -8  -2   81.64    3.80
   1  -8  -2   82.22    4.03
   1  -8  -2   86.07    4.30
  -1   8   2   80.32    6.93
  -1   8   2   76.76    6.57
  -1   8   2   80.02    6.48
  -1   8   2   81.72    4.02
  -1   8   2   83.63    4.38
  -1   8   2   88.73    5.62
   0  -8  -2   27.21   14.23
   0  -8  -2   30.74    4.82
   0  -8  -2   27.53    4.16
   0  -8  -2   33.55    3.65
   0  -8  -2   32.05    3.67
   0   8   2   32.90    3.69
   0   8   2   30.73    4.65
   0   8   2   28.37    3.96
  -1  -8  -2   18.37    3.90
  -1  -8  -2   30.47   15.91
  -1  -8  -2   15.97    3.44
  -1  -8  -2   23.74    4.32
  -1  -8  -2   26.11    4.04
  -1  -8  -2   19.28    3.61
   1   8   2   22.03    3.00
   1   8   2   18.72    3.55
   1   8   2   16.28    3.53
  -2  -8  -2  119.87    8.93
  -2  -8  -2   80.99   24.51
  -2  -8  -2  125.25    9.13
  -2  -8  -2  120.18    8.03
  -2  -8  -2  120.70    8.93
  -2  -8  -2  118.42    9.22
  -2  -8  -2  126.08    8.18
   2   8   2  129.92    7.56
   2   8   2  114.17    8.83
   2   8   2  120.95    7.53
  -3  -8  -2   48.00    8.50
  -3  -8  -2   38.98    6.78
  -3  -8  -2   50.78    7.54
  -3  -8  -2   34.21    6.11
  -3  -8  -2   41.82    6.63
  -3  -8  -2   49.30    6.94
  -3  -8  -2   55.02    6.42
   4  -9  -2   -2.76   10.10
  -4   9   2    0.30    3.08
  -4   9   2   -1.70    2.44
  -4   9   2    1.93    3.53
  -4   9   2   -2.88    2.31
   3  -9  -2   15.40   15.50
   3  -9  -2    4.99    2.97
  -3   9   2    9.27    3.60
  -3   9   2    4.23    2.82
  -3   9   2    0.81    2.74
   2  -9  -2   26.80   18.52
   2  -9  -2   23.62    4.46
   2  -9  -2   21.23    4.43
  -2   9   2   14.84    3.85
  -2   9   2   23.08    5.14
  -2   9   2   20.67    4.58
  -2   9   2   24.22    3.15
   1  -9  -2    5.25    1.59
   1  -9  -2    7.46   10.64
   1  -9  -2    2.79    0.95
   1  -9  -2    4.97    2.66
   1  -9  -2    3.88    2.01
   1  -9  -2    5.03    1.41
   1  -9  -2    3.43    1.04
  -1   9   2    3.26    2.31
  -1   9   2    2.89    1.74
  -1   9   2    4.09    2.64
  -1   9   2    5.40    1.29
  -1   9   2    4.09    1.43
  -1   9   2    1.32    1.92
   0  -9  -2 1440.87   50.89
   0  -9  -2 1432.73   47.62
   0  -9  -2 1410.72   49.97
   0  -9  -2 1451.03   47.73
   0   9   2 1291.20   50.23
   0   9   2 1594.75   50.67
   0   9   2 1448.41   49.26
   0   9   2 1428.24   50.48
  -1  -9  -2   91.19    8.91
  -1  -9  -2   80.03    7.07
  -1  -9  -2   84.00    7.25
  -1  -9  -2   84.34    6.76
  -1  -9  -2  112.44   25.66
  -1  -9  -2   84.67    6.72
   1   9   2   90.33    7.77
   1   9   2   79.04    5.50
   1   9   2   87.86    6.82
   1   9   2   87.38    4.03
  -2  -9  -2   73.79    8.33
  -2  -9  -2   94.44    8.00
  -2  -9  -2   86.86    7.13
  -2  -9  -2   91.42    7.06
  -2  -9  -2   48.77   20.68
  -2  -9  -2   71.51    8.31
  -2  -9  -2   68.66    8.28
   2   9   2   97.95    8.36
   2   9   2   94.85    6.56
   2   9   2   91.15    6.64
  -3  -9  -2   11.05    4.13
  -3  -9  -2    9.83    3.71
  -3  -9  -2   16.98    5.64
  -3  -9  -2   11.34    4.12
  -3  -9  -2   11.03    4.30
  -3  -9  -2   14.44    4.25
   3 -10  -2   24.68   20.23
   3 -10  -2   65.55    8.19
  -3  10   2   59.79    7.79
  -3  10   2   76.77    9.81
  -3  10   2   64.84    9.11
   2 -10  -2  225.59   42.07
   2 -10  -2  209.64   12.87
   2 -10  -2  203.42   13.27
  -2  10   2  241.81   14.55
  -2  10   2  222.68   13.36
  -2  10   2  227.68   14.34
   1 -10  -2   60.04    5.83
   1 -10  -2   59.76    7.62
   1 -10  -2   72.98    4.46
   1 -10  -2   60.92   26.52
   1 -10  -2   60.09    3.47
  -1  10   2   54.17    7.16
  -1  10   2   73.83    8.35
  -1  10   2   52.83    6.76
   0 -10  -2 1836.76   63.96
   0 -10  -2 1861.13   63.32
   0 -10  -2 1500.45  109.78
   0 -10  -2 1889.23   60.43
   0 -10  -2 1881.65   60.16
   0 -10  -2 1825.13   63.68
   0  10   2 1925.95   63.91
   0  10   2 1906.36   62.20
   0  10   2 1876.39   64.08
  -1 -10  -2  415.59   19.69
  -1 -10  -2  399.84   18.17
  -1 -10  -2  418.91   18.44
  -1 -10  -2  396.39   19.39
  -1 -10  -2  381.47   18.88
  -1 -10  -2  348.15   47.21
   1  10   2  438.29   18.78
   1  10   2  421.38   16.73
   1  10   2  410.14   19.90
  -2 -10  -2   35.72    5.93
  -2 -10  -2   47.11    7.26
  -2 -10  -2   46.26    6.28
  -2 -10  -2   27.62    5.52
  -2 -10  -2   25.63   16.60
  -2 -10  -2   32.34    5.82
  -2 -10  -2   45.29    5.92
   2  10   2   44.47    5.57
   2  10   2   42.24    6.77
   2  10   2   42.33    5.18
  -3 -10  -2    1.74    3.00
  -3 -10  -2   -1.50    2.48
  -3 -10  -2   -0.67    2.64
  -3 -10  -2   -2.90    2.66
  -3 -10  -2    1.49    2.76
  -3 -10  -2    0.48    3.37
   3 -11  -2   47.34   27.43
   3 -11  -2   93.24   10.30
  -3  11   2   78.79    9.73
  -3  11   2   95.95   11.69
  -3  11   2   87.25   10.70
   2 -11  -2    1.87    2.43
   2 -11  -2    0.98   10.55
   2 -11  -2    3.59    2.83
  -2  11   2    2.23    2.82
  -2  11   2    1.34    2.46
  -2  11   2    0.49    2.69
   1 -11  -2  184.23    8.37
   1 -11  -2  201.35   13.00
  -1  11   2  162.64   11.35
  -1  11   2  185.57   12.46
  -1  11   2  154.57   11.22
   0 -11  -2  379.41   15.91
   0 -11  -2  400.94   19.23
   0 -11  -2  367.51   15.45
   0 -11  -2  377.90   18.44
   0 -11  -2  375.24   21.95
   0 -11  -2  372.83   18.91
   0  11   2  351.09   16.99
   0  11   2  343.98   18.35
   0  11   2  362.68   18.37
  -1 -11  -2    2.87    2.22
  -1 -11  -2    0.08    2.44
  -1 -11  -2    0.96    8.17
  -1 -11  -2    0.62    2.10
  -1 -11  -2    5.26    2.86
  -1 -11  -2    0.62    1.95
   1  11   2    2.20    2.67
   1  11   2   -0.54    1.65
   1  11   2    3.89    2.57
  -2 -11  -2   26.53    6.24
  -2 -11  -2   35.95    5.29
  -2 -11  -2   31.53    5.55
  -2 -11  -2   35.73    6.34
  -2 -11  -2   36.35    6.53
  -2 -11  -2   35.76    6.63
   2  11   2   25.32    5.57
   2  11   2   33.12    4.86
   3 -12  -2   -0.90    3.03
   3 -12  -2   -4.51   10.69
  -3  12   2   -3.16    2.42
  -3  12   2   -0.29    3.04
  -3  12   2    1.07    3.14
   2 -12  -2   18.61   18.95
   2 -12  -2   34.48    6.51
   2 -12  -2   35.78    6.73
  -2  12   2   30.26    5.90
  -2  12   2   37.02    6.83
  -2  12   2   43.01    7.81
   1 -12  -2   -2.09    9.64
   1 -12  -2    0.14    2.03
  -1  12   2   -1.28    2.27
  -1  12   2    0.01    2.23
  -1  12   2   -0.39    2.14
   0 -12  -2   47.93    7.27
   0 -12  -2   38.76    4.82
   0 -12  -2   41.40    4.84
   0 -12  -2   35.40    6.36
   0 -12  -2   27.67   20.28
   0 -12  -2   30.25    7.19
   0 -12  -2   38.29    6.81
   0  12   2   43.07    6.75
   0  12   2   51.32    7.79
   0  12   2   38.59    5.87
  -1 -12  -2   72.26    9.06
  -1 -12  -2   95.34   10.20
  -1 -12  -2   89.15    8.83
  -1 -12  -2   81.56   30.91
  -1 -12  -2   84.70    8.52
  -1 -12  -2   80.57    9.90
   1  12   2   82.43   10.24
   1  12   2   81.63    8.96
  -2 -12  -2   87.97    9.50
  -2 -12  -2   80.14    9.65
  -2 -12  -2   76.55    9.87
  -2 -12  -2   89.49   10.78
  -2 -12  -2   93.55   10.20
   2  12   2   80.29   10.07
   2 -13  -2    9.27    4.08
   2 -13  -2   15.54    5.01
   2 -13  -2   -2.53   11.03
  -2  13   2   16.71    5.32
  -2  13   2    9.27    3.93
  -2  13   2   14.44    4.67
   1 -13  -2   35.50   23.44
   1 -13  -2   53.24    8.13
   1 -13  -2   43.35    7.68
  -1  13   2   43.35    7.80
  -1  13   2   45.39    7.10
  -1  13   2   49.04    7.79
   0 -13  -2  293.78   14.12
   0 -13  -2  266.90   16.78
   0 -13  -2  292.31   16.66
   0 -13  -2  290.81   17.20
   0 -13  -2  206.45   44.45
   0  13   2  297.20   17.35
   0  13   2  283.23   16.63
   0  13   2  308.24   15.71
  -1 -13  -2   97.19   10.85
  -1 -13  -2   87.48   10.51
  -1 -13  -2   93.92    9.33
  -1 -13  -2   90.70    9.21
  -1 -13  -2   91.02   10.34
   1  13   2   95.96   11.26
   1  13   2   93.55   10.07
  -2 -13  -2    6.02    3.87
  -2 -13  -2    2.41    3.83
  -2 -13  -2    3.65    3.32
  -2 -13  -2    1.31    2.80
  -2 -13  -2   -0.32   10.35
   2 -14  -2   19.63   20.83
   2 -14  -2   62.91    9.68
   2 -14  -2   60.38    9.33
  -2  14   2   52.25    8.55
  -2  14   2   48.52    8.88
  -2  14   2   47.91    8.59
   1 -14  -2    4.75    3.64
   1 -14  -2   -0.26   11.96
   1 -14  -2    1.38    3.47
  -1  14   2   -1.29    2.92
  -1  14   2    3.99    3.52
  -1  14   2    4.76    3.25
   0 -14  -2   27.56    6.20
   0 -14  -2   13.95   17.17
   0 -14  -2   28.00    6.25
   0 -14  -2   22.49    5.86
   0  14   2   23.08    5.08
   0  14   2   36.19    7.13
   0  14   2   24.62    5.76
  -1 -14  -2   -0.79    2.72
  -1 -14  -2    1.70    2.34
  -1 -14  -2    3.89    3.52
  -1 -14  -2   -4.12   10.52
  -1 -14  -2   -2.90    2.54
   1  14   2    1.23    3.35
   1  14   2    2.54    3.17
   1  15  -3    5.90    3.93
  -1 -15   3   12.31    4.15
  -1 -15   3    5.08   14.60
  -1 -15   3    9.05    3.94
  -1 -15   3   10.16    5.10
  -1 -15   3    4.65    3.94
   0  15  -3   37.26    7.11
   0  15  -3   36.14    6.74
   0  15  -3   33.68    6.57
   0 -15   3   33.56    7.09
   0 -15   3   21.65   20.69
   0 -15   3   30.90    6.81
   0 -15   3   40.75    7.18
   0 -15   3   35.71    5.98
  -1  15  -3   62.08    9.27
  -1  15  -3   71.09    9.98
  -1  15  -3   54.82    8.72
   1 -15   3   57.69    9.24
   1 -15   3   43.38   27.03
   1 -15   3   69.57    9.19
  -2 -14   3   -1.78   12.17
   1  14  -3   40.39    6.95
   1  14  -3   41.77    7.28
  -1 -14   3   40.66    7.23
  -1 -14   3   42.91    7.48
  -1 -14   3   42.94    7.39
  -1 -14   3   15.76   17.96
  -1 -14   3   43.79    6.72
   0  14  -3    2.73    3.06
   0  14  -3   -0.21    2.54
   0  14  -3   -0.34    2.35
   0 -14   3   -0.63    2.25
   0 -14   3    5.43   13.08
   0 -14   3    0.44    2.69
   0 -14   3   -0.28    1.95
   0 -14   3   -1.73    2.36
  -1  14  -3   28.25    6.43
  -1  14  -3   41.81    7.32
  -1  14  -3   36.57    6.62
   1 -14   3   33.88    6.42
   1 -14   3   33.18    4.93
   1 -14   3   21.63   18.77
   1 -14   3   33.10    7.03
  -2  14  -3   -0.07    3.24
  -2  14  -3   -3.61    2.53
  -2  14  -3    3.47    3.37
   2 -14   3    0.69   12.22
   2 -14   3    2.17    3.58
   2  13  -3   11.15    4.40
  -2 -13   3   13.30   16.88
  -2 -13   3   19.98    5.43
  -2 -13   3   20.77    5.06
  -2 -13   3   15.19    4.52
  -2 -13   3   21.66    5.42
  -2 -13   3   17.91    5.45
   1  13  -3    5.52    2.76
   1  13  -3    8.40    3.66
   1  13  -3    8.17    3.30
  -1 -13   3    4.45    3.12
  -1 -13   3    0.27    2.11
  -1 -13   3    6.50    2.75
  -1 -13   3    3.22    3.38
  -1 -13   3    8.81   12.59
  -1 -13   3    6.39    3.42
   0  13  -3   32.51    6.02
   0  13  -3   27.83    5.72
   0  13  -3   33.40    5.84
   0 -13   3   26.96    5.60
   0 -13   3   34.79    6.15
   0 -13   3   41.40    5.72
   0 -13   3   46.10   25.60
   0 -13   3   40.30    7.03
  -1  13  -3    5.40    3.28
  -1  13  -3    8.85    3.75
  -1  13  -3    8.62    3.62
   1 -13   3    8.69    3.97
   1 -13   3   12.85    3.17
   1 -13   3    4.81    2.89
   1 -13   3   15.95   16.45
  -2  13  -3    8.37    4.44
  -2  13  -3    9.09    4.11
  -2  13  -3    3.79    3.55
   2 -13   3    6.82    3.92
   2 -13   3    6.03   13.51
  -3 -12   3   -1.81   10.80
   2  12  -3   -0.19    2.49
  -2 -12   3    2.89    2.90
  -2 -12   3   -2.02    2.48
  -2 -12   3    2.83    2.89
  -2 -12   3   -1.45    2.12
  -2 -12   3   -0.27    9.41
  -2 -12   3   -2.17    1.95
   1  12  -3   71.28    7.67
   1  12  -3   59.21    7.48
   1  12  -3   65.06    5.91
  -1 -12   3   59.63    7.38
  -1 -12   3   63.86    8.15
  -1 -12   3   65.96   28.62
  -1 -12   3   46.65    6.61
  -1 -12   3   66.49    8.29
  -1 -12   3   70.38    7.32
   0  12  -3   46.28    6.65
   0  12  -3   47.70    6.49
   0  12  -3   45.06    6.82
   0 -12   3   50.71    6.17
   0 -12   3   44.71    6.45
   0 -12   3   47.22    6.78
   0 -12   3   29.34   19.70
   0 -12   3   52.30    4.15
   0 -12   3   51.09    7.32
  -1  12  -3   21.23    4.81
  -1  12  -3   21.54    4.95
  -1  12  -3   23.48    5.29
   1 -12   3    6.06   10.67
   1 -12   3   11.73    3.99
   1 -12   3   15.29    3.97
   1 -12   3   19.95    3.63
  -2  12  -3   -2.09    2.39
  -2  12  -3    1.27    2.63
  -2  12  -3   -1.01    1.84
  -2  12  -3    1.20    2.71
   2 -12   3    2.36   11.43
   2 -12   3   -0.01    2.71
  -3  12  -3    6.86    3.92
  -3  12  -3    5.72    3.91
  -3  12  -3   10.40    4.68
  -3  12  -3   12.22    4.14
   3 -12   3   12.60    5.05
   3 -12   3    7.22   13.26
   3 -12   3    5.41    4.02
  -3 -11   3   -1.20    9.58
  -3 -11   3   -2.65    2.48
  -3 -11   3   -2.12    2.68
  -3 -11   3    0.98    2.53
  -3 -11   3   -0.27    2.41
   2  11  -3    0.34    2.43
  -2 -11   3    4.12    2.50
  -2 -11   3   -0.31    1.88
  -2 -11   3    0.91    2.38
  -2 -11   3    9.84   13.72
  -2 -11   3    5.05    3.17
  -2 -11   3    2.21    2.46
   1  11  -3   36.13    5.71
   1  11  -3   29.54    4.44
   1  11  -3   25.44    4.43
  -1 -11   3   21.81    4.69
  -1 -11   3   26.16    4.78
  -1 -11   3   23.10    4.70
  -1 -11   3   33.32    4.91
  -1 -11   3   35.70   19.65
  -1 -11   3   25.87    4.96
   0  11  -3   -0.66    1.60
   0  11  -3    0.29    1.59
   0  11  -3   -1.30    1.62
   0 -11   3   -1.18    1.80
   0 -11   3    0.95    1.80
   0 -11   3   -0.57    1.43
   0 -11   3    1.06    1.62
   0 -11   3    0.13    1.24
   0 -11   3   -2.55    7.21
  -1  11  -3  170.01   11.44
  -1  11  -3  171.73   11.43
  -1  11  -3  178.34   11.94
   1 -11   3  181.16    9.80
   1 -11   3  175.38   10.75
   1 -11   3  192.63   12.50
   1 -11   3  162.68   34.79
  -2  11  -3   84.65    9.54
  -2  11  -3   95.55    7.53
  -2  11  -3  103.94    9.15
   2 -11   3   82.07    9.60
   2 -11   3   84.86   29.75
   2 -11   3  109.67    9.17
  -3  11  -3   86.94   10.53
  -3  11  -3   90.58   11.02
  -3  11  -3   76.16    9.19
   3 -11   3   48.61   24.80
   3 -11   3  100.96   11.36
   3 -11   3   69.73    9.04
  -3 -10   3  267.09   16.17
  -3 -10   3  232.19   15.42
  -3 -10   3  276.75   16.36
  -3 -10   3  259.87   15.53
   2  10  -3   89.52    7.50
   2  10  -3   88.95    5.90
  -2 -10   3   89.15    9.18
  -2 -10   3   69.80   26.59
  -2 -10   3   88.29    7.14
  -2 -10   3   81.72    8.60
  -2 -10   3   79.55    8.98
  -2 -10   3   98.82    8.26
   1  10  -3  236.38   12.34
   1  10  -3  228.89   11.02
   1  10  -3  230.97   11.68
  -1 -10   3  216.95   12.68
  -1 -10   3  209.24   11.99
  -1 -10   3  213.96   12.20
  -1 -10   3  225.16   12.50
  -1 -10   3  176.22   34.06
  -1 -10   3  219.79   11.46
   0  10  -3   19.20    4.00
   0  10  -3   12.71    3.27
   0  10  -3   22.83    4.35
   0 -10   3   18.84    3.84
   0 -10   3   24.82   15.79
   0 -10   3   20.42    4.29
   0 -10   3   21.33    3.75
   0 -10   3   13.46    2.35
   0 -10   3   12.71    3.47
   0 -10   3   20.04    4.81
  -1  10  -3   27.54    4.76
  -1  10  -3   26.28    5.08
   1 -10   3   25.85   16.57
   1 -10   3   25.35    3.77
   1 -10   3   29.22    3.00
   1 -10   3   29.24    4.93
   1 -10   3   26.89    4.39
   1 -10   3   29.31    5.36
  -2  10  -3    5.49    2.93
  -2  10  -3    0.38    1.67
  -2  10  -3    4.39    2.78
   2 -10   3    1.61    2.61
   2 -10   3    0.58    2.22
   2 -10   3   -2.28    6.75
  -3  10  -3    2.74    2.79
  -3  10  -3    1.45    2.18
  -3  10  -3   -0.98    2.64
  -3  10  -3    1.78    2.73
   3 -10   3    1.04   10.08
   3 -10   3   -1.30    2.34
   3 -10   3    1.52    2.78
  -3  -9   3   37.23    6.03
  -3  -9   3   47.30    7.30
  -3  -9   3   26.98   17.23
  -3  -9   3   52.26    7.77
  -3  -9   3   22.74    5.42
   2   9  -3   15.84    2.76
   2   9  -3   19.20    2.40
   2   9  -3   15.85    3.48
  -2  -9   3   14.60    3.87
  -2  -9   3   14.55   13.52
  -2  -9   3   14.67    3.23
  -2  -9   3   15.18    3.97
  -2  -9   3   14.58    3.82
  -2  -9   3   16.65    4.07
   1   9  -3  212.82   10.71
   1   9  -3  221.84   10.12
   1   9  -3  198.42    9.19
   1   9  -3  233.72   11.48
  -1  -9   3  216.74   11.51
  -1  -9   3  215.89   11.44
  -1  -9   3  203.27   11.31
  -1  -9   3  203.56   10.61
  -1  -9   3  150.36   28.68
   0   9  -3  125.50    8.15
   0   9  -3  131.53    8.48
   0   9  -3  135.11    8.50
   0  -9   3  139.80    8.10
   0  -9   3  131.39    9.05
   0  -9   3  124.61    9.79
   0  -9   3  147.38    8.97
   0  -9   3  143.34    8.63
  -1   9  -3   35.09    5.01
  -1   9  -3   39.38    5.63
  -1   9  -3   35.59    4.71
   1  -9   3   34.56    2.68
   1  -9   3   36.83    5.02
   1  -9   3   31.37    3.97
   1  -9   3   34.50    5.33
   1  -9   3   34.01    4.73
   1  -9   3   27.05   15.40
  -2   9  -3  221.47   13.09
  -2   9  -3  201.12   12.30
  -2   9  -3  211.17   11.31
   2  -9   3  224.42   12.95
   2  -9   3  238.01   13.07
   2  -9   3  155.21   30.56
  -3   9  -3   43.90    6.77
  -3   9  -3   55.63    6.71
  -3   9  -3   68.44    8.50
  -3   9  -3   40.17    6.91
   3  -9   3   58.08    8.01
   3  -9   3   54.70    7.18
   3  -9   3   42.89   21.21
  -4   9  -3   15.60    5.12
  -4   9  -3   18.50    5.57
  -4   9  -3   25.04    5.86
   4  -9   3   14.77    5.00
  -4  -8   3   31.46    6.38
  -4  -8   3   32.16    6.42
  -4  -8   3   25.52    6.22
  -4  -8   3   40.68    7.18
  -3  -8   3  109.17    9.40
  -3  -8   3   97.33   29.83
  -3  -8   3  116.69    9.16
  -3  -8   3  106.48    9.21
  -3  -8   3   79.64    9.17
   2   8  -3  164.55    7.78
   2   8  -3  159.12    9.29
   2   8  -3  157.10    6.26
  -2  -8   3  164.42    8.90
  -2  -8   3  174.81   10.58
  -2  -8   3  163.53   31.30
  -2  -8   3  155.97    9.92
  -2  -8   3  150.43   10.28
  -2  -8   3  160.51   10.37
   1   8  -3  404.63   15.06
   1   8  -3  387.40   16.40
   1   8  -3  400.24   16.98
  -1  -8   3  408.50   17.51
  -1  -8   3  408.00   17.40
  -1  -8   3  453.38   47.60
  -1  -8   3  405.86   17.53
  -1  -8   3  412.74   17.12
   0   8  -3  297.75   13.67
   0   8  -3  321.41   14.04
   0  -8   3  305.04   13.87
   0  -8   3  300.83   15.72
   0  -8   3  313.02   13.86
   0  -8   3  292.34   13.16
   0  -8   3  271.13   14.11
   0  -8   3  302.67   11.85
  -1   8  -3    5.59    2.33
  -1   8  -3    8.08    2.57
  -1   8  -3    9.73    2.66
   1  -8   3    8.63    2.38
   1  -8   3    7.33    2.64
   1  -8   3    7.74    2.09
   1  -8   3    9.46    2.67
   1  -8   3    9.64    1.40
   1  -8   3   -0.28    5.63
  -2   8  -3  132.28    8.25
  -2   8  -3  132.79    9.32
  -2   8  -3  133.07    9.20
   2  -8   3  134.79    9.29
   2  -8   3  130.44    7.49
   2  -8   3  132.69    9.39
   2  -8   3   97.25   23.06
  -3   8  -3   36.13    6.44
  -3   8  -3   38.67    6.08
  -3   8  -3   27.85    5.58
  -3   8  -3   30.13    5.04
   3  -8   3   28.93   16.19
   3  -8   3   38.08    5.83
   3  -8   3   30.84    5.84
  -4   8  -3  133.33   11.60
  -4   8  -3  136.07   11.69
  -4   8  -3  124.54   10.83
   4  -8   3  138.82   11.85
  -4  -7   3   89.12   10.46
  -4  -7   3   89.64   10.14
  -4  -7   3   74.49    9.99
  -4  -7   3   81.31    9.49
  -3  -7   3   33.31    5.82
  -3  -7   3   35.21    5.80
  -3  -7   3   47.92    6.46
  -3  -7   3   48.43    7.10
   2   7  -3   74.76    4.49
   2   7  -3   68.76    5.48
   2   7  -3   69.78    5.37
  -2  -7   3   64.90    6.89
  -2  -7   3   83.22    8.07
  -2  -7   3   73.28    4.66
  -2  -7   3   76.75    5.40
  -2  -7   3   78.87    6.67
  -2  -7   3   75.53    7.86
   1   7  -3  201.02    8.77
   1   7  -3  202.41    9.89
   1   7  -3  206.77    9.63
   1   7  -3  206.60    8.28
  -1  -7   3  199.84   10.23
  -1  -7   3  202.28   10.11
  -1  -7   3  198.44   10.23
  -1  -7   3  220.27   10.65
   0   7  -3 1032.08   35.60
   0   7  -3 1020.04   34.37
   0   7  -3 1022.02   35.35
   0  -7   3 1034.25   34.45
   0  -7   3  915.06   64.60
   0  -7   3 1067.53   35.14
   0  -7   3 1049.07   36.36
   0  -7   3 1014.34   35.38
   0  -7   3 1024.26   37.87
   0  -7   3  983.43   35.17
  -1   7  -3   14.63    3.08
  -1   7  -3   25.92    3.78
  -1   7  -3   29.21    3.99
  -1   7  -3   21.24    3.52
   1  -7   3   27.81    4.20
   1  -7   3   23.74    3.43
   1  -7   3   23.22    3.15
   1  -7   3   21.14    3.42
   1  -7   3   21.98    1.59
   1  -7   3   32.16   14.26
  -2   7  -3   62.18    4.55
  -2   7  -3   69.16    5.64
  -2   7  -3   56.39    6.20
  -2   7  -3   68.19    7.28
  -2   7  -3   61.86    6.62
   2  -7   3   60.54    4.44
   2  -7   3   65.05    7.02
   2  -7   3   65.46   20.38
  -3   7  -3   11.13    3.23
  -3   7  -3   12.49    3.46
  -3   7  -3   18.81    4.57
  -3   7  -3    8.75    3.35
   3  -7   3    2.07    7.34
   3  -7   3    9.26    3.16
   3  -7   3    8.22    3.40
  -4   7  -3   25.47    5.58
  -4   7  -3   45.43    7.31
  -4   7  -3   39.82    7.21
  -4   7  -3   41.90    6.93
   4  -7   3   43.02    7.60
  -4  -6   3    0.25    2.63
  -4  -6   3   -1.84    2.48
  -4  -6   3    3.21    2.80
  -4  -6   3    1.51    2.41
  -3  -6   3   96.79    8.24
  -3  -6   3  100.59    8.21
  -3  -6   3  108.14    8.76
  -3  -6   3  116.56    8.99
   2   6  -3  107.87    6.51
   2   6  -3  112.12    6.30
   2   6  -3  110.69    5.56
   2   6  -3  113.62    5.89
  -2  -6   3  118.33    7.56
  -2  -6   3  110.22    6.10
  -2  -6   3  108.90    5.73
  -2  -6   3  100.06    7.61
  -2  -6   3  115.65    7.92
  -2  -6   3  101.96    7.58
   1   6  -3  198.75   14.73
   1   6  -3  177.51    8.12
   1   6  -3  137.11    7.12
   1   6  -3  169.06    6.66
   1   6  -3  166.03    8.65
   1   6  -3  177.90    8.26
   1   6  -3  168.55    7.14
  -1  -6   3  163.48    7.91
  -1  -6   3  172.92    8.97
  -1  -6   3  173.51   13.51
  -1  -6   3  166.64    8.54
  -1  -6   3  166.02    8.56
   0   6  -3  334.02   13.60
   0   6  -3  315.14   13.06
   0   6  -3  307.13   13.05
   0   6  -3  320.34   15.74
   0   6  -3  312.50   12.39
   0  -6   3  325.11   13.98
   0  -6   3  325.52   12.55
   0  -6   3  308.02   12.88
   0  -6   3  314.14   13.19
   0  -6   3  331.52   13.27
   0  -6   3  320.71   33.77
   0  -6   3  320.11   15.28
   0  -6   3  317.02   13.45
   0  -6   3  312.82   12.98
  -1   6  -3  743.02   25.97
  -1   6  -3  735.62   26.48
  -1   6  -3  722.09   24.82
  -1   6  -3  695.66   26.53
   1  -6   3  708.58   25.57
   1  -6   3  707.73   25.56
   1  -6   3  713.40   25.21
   1  -6   3  703.40   26.73
   1  -6   3  739.53   52.71
   1  -6   3  698.84   26.02
  -2   6  -3   10.93    1.62
  -2   6  -3   13.20    3.13
  -2   6  -3   11.14    2.82
  -2   6  -3   17.93    3.52
  -2   6  -3   10.51    2.89
  -2   6  -3    8.35    2.56
  -2   6  -3   12.99    2.18
   2  -6   3   16.64    9.82
   2  -6   3   10.07    1.87
   2  -6   3    8.26    2.66
  -3   6  -3   29.50    5.25
  -3   6  -3   30.28    4.91
  -3   6  -3   24.89    3.38
  -3   6  -3   27.52    5.10
  -3   6  -3   26.08    4.80
   3  -6   3   20.73    4.35
   3  -6   3   15.56   10.27
   3  -6   3   26.75    4.46
  -4   6  -3   12.71    3.97
  -4   6  -3    9.93    3.99
  -4   6  -3   12.79    4.29
  -4   6  -3   12.07    4.18
   4  -6   3   11.54    4.13
  -4  -5   3   23.66    5.05
  -4  -5   3   25.93    5.22
  -4  -5   3   28.81    5.88
  -4  -5   3   28.04    6.00
   3   5  -3    9.66    1.60
  -3  -5   3   10.68    3.45
  -3  -5   3    9.66    2.43
  -3  -5   3    8.75    1.69
  -3  -5   3    9.31    3.13
  -3  -5   3   11.94    3.87
  -3  -5   3    8.20    2.92
   2   5  -3   36.86    8.94
   2   5  -3   49.60    3.62
   2   5  -3   48.90    3.11
  -2  -5   3   47.58    3.75
  -2  -5   3   37.44    4.77
  -2  -5   3   49.85    3.51
  -2  -5   3   53.93    5.86
  -2  -5   3   53.13    6.03
  -2  -5   3   50.41    5.40
  -2  -5   3   52.02    3.53
   1   5  -3 1263.59   41.70
   1   5  -3 1208.09   41.05
   1   5  -3 1232.83   39.18
   1   5  -3 1230.34   40.90
   1   5  -3 1273.07   40.24
   1   5  -3 1275.08   39.78
   1   5  -3 1323.00   50.95
   1   5  -3 1205.76   40.84
  -1  -5   3 1222.96   40.76
  -1  -5   3 1243.01   42.25
  -1  -5   3 1254.31   41.54
  -1  -5   3 1272.21   41.05
  -1  -5   3 1286.48   41.70
  -1  -5   3 1320.78   49.77
   0   5  -3 2013.20   66.40
   0   5  -3 1963.51   62.47
   0   5  -3 2009.80   64.25
   0   5  -3 2027.68   63.24
   0   5  -3 1962.03   63.80
   0   5  -3 1967.42   63.56
   0  -5   3 1942.87   63.63
   0  -5   3 1998.97   63.25
   0  -5   3 1942.26   62.99
   0  -5   3 2037.00   66.09
   0  -5   3 1894.43   62.44
   0  -5   3 1960.69   64.04
   0  -5   3 1988.85   63.16
  -1   5  -3  301.01   11.89
  -1   5  -3  293.42   13.14
  -1   5  -3  296.05   12.78
  -1   5  -3  289.68   11.29
  -1   5  -3  303.42   13.10
  -1   5  -3  290.63   12.48
   1  -5   3  313.12   13.28
   1  -5   3  329.93   13.10
   1  -5   3  292.37   12.06
   1  -5   3  292.44   28.78
   1  -5   3  281.39   11.90
   1  -5   3  304.46   12.49
   1  -5   3  292.35   10.08
   1  -5   3  300.64   11.52
  -2   5  -3  253.72    9.76
  -2   5  -3  248.99    9.74
  -2   5  -3  226.97   11.94
  -2   5  -3  247.41   12.30
  -2   5  -3  240.45   11.94
  -2   5  -3  234.00   13.84
  -2   5  -3  246.61   11.83
   2  -5   3  222.23   25.72
   2  -5   3  254.56    9.48
   2  -5   3  249.72   11.87
   2  -5   3  271.23   12.73
  -3   5  -3    6.89    2.82
  -3   5  -3    8.83    3.05
  -3   5  -3    6.58    2.14
  -3   5  -3    8.01    2.78
  -3   5  -3    9.58    1.67
  -3   5  -3    7.61    2.97
  -3   5  -3    6.89    1.61
   3  -5   3    9.53    3.42
   3  -5   3    3.97    6.17
   3  -5   3   10.54    2.82
  -4   5  -3   39.05    7.43
  -4   5  -3   35.47    6.20
  -4   5  -3   45.10    6.74
  -4   5  -3   37.64    6.64
  -4   5  -3   41.22    6.82
   4  -5   3   39.54    6.57
  -4  -4   3   11.23    3.85
  -4  -4   3   16.59    4.35
  -4  -4   3   24.85    5.73
  -4  -4   3   14.13    4.07
   3   4  -3  263.38   11.74
   3   4  -3  255.42    9.48
  -3  -4   3  248.89   11.74
  -3  -4   3  245.87   12.91
  -3  -4   3  236.47    9.48
  -3  -4   3  238.34   13.24
  -3  -4   3  231.43   12.49
  -3  -4   3  229.84   13.58
   2   4  -3 1837.21   73.86
   2   4  -3 1887.88   57.91
  -2  -4   3 1859.08   60.80
  -2  -4   3 1868.70   58.26
  -2  -4   3 1888.92   61.56
  -2  -4   3 1847.01   59.03
  -2  -4   3 1786.12   59.08
  -2  -4   3 1892.43   59.96
  -2  -4   3 1834.87   61.69
   1   4  -3  294.66   12.60
   1   4  -3  349.55   13.05
   1   4  -3  367.39   13.83
   1   4  -3  384.65   20.24
   1   4  -3  350.89   11.71
   1   4  -3  339.34   12.32
   1   4  -3  327.98   12.64
   1   4  -3  329.00   12.71
  -1  -4   3  345.40   12.24
  -1  -4   3  344.84   13.00
  -1  -4   3  331.82   13.91
  -1  -4   3  339.30   18.67
  -1  -4   3  333.17   12.85
  -1  -4   3  345.38   12.70
  -1  -4   3  305.24   13.37
   0   4  -3  913.78   30.54
   0   4  -3  922.93   31.46
   0   4  -3  950.42   30.83
   0   4  -3  943.27   31.15
   0   4  -3  914.24   30.10
   0   4  -3  915.26   30.54
   0   4  -3  993.59   33.84
   0   4  -3  943.54   30.52
   0   4  -3  931.76   31.33
   0  -4   3  925.87   30.60
   0  -4   3  898.62   31.03
   0  -4   3  923.37   31.51
   0  -4   3  921.80   30.75
   0  -4   3  972.06   33.39
   0  -4   3  876.00   30.42
   0  -4   3  909.21   31.39
   0  -4   3  897.06   30.10
   0  -4   3  920.85   30.97
   0  -4   3  912.79   30.45
  -1   4  -3    1.13    1.10
  -1   4  -3    0.23    0.54
  -1   4  -3    1.11    1.11
  -1   4  -3    2.31    1.23
  -1   4  -3    0.22    0.96
  -1   4  -3    1.42    0.75
  -1   4  -3    2.28    1.24
  -1   4  -3    2.49    1.35
  -1   4  -3    1.67    0.69
   1  -4   3   -0.35    0.91
   1  -4   3    1.91    1.18
   1  -4   3    0.79    0.94
   1  -4   3    0.69    0.61
   1  -4   3    0.99    1.14
   1  -4   3    0.87    0.65
   1  -4   3    0.63    0.78
   1  -4   3    2.16    3.58
  -2   4  -3    3.87    1.06
  -2   4  -3    2.83    1.54
  -2   4  -3    4.89    1.93
  -2   4  -3    2.43    1.25
  -2   4  -3    3.95    1.83
  -2   4  -3    7.03    1.10
  -2   4  -3    4.83    2.01
  -2   4  -3    4.35    2.64
  -2   4  -3    4.72    1.88
   2  -4   3    3.03    0.89
   2  -4   3    5.48    1.79
   2  -4   3    3.26    4.57
   2  -4   3    3.48    1.90
   2  -4   3    4.27    1.47
  -3   4  -3   53.67    6.65
  -3   4  -3   56.14    3.59
  -3   4  -3   61.89    6.71
  -3   4  -3   70.53    7.53
  -3   4  -3   60.64    5.89
  -3   4  -3   62.89    6.71
   3  -4   3   38.18   12.21
   3  -4   3   56.10    4.93
   3  -4   3   55.56    6.62
  -4   4  -3  125.07    9.41
  -4   4  -3   87.40   10.04
  -4   4  -3  104.06   10.61
  -4   4  -3  111.89    8.51
  -4   4  -3   91.51   10.59
  -4   4  -3   98.77    8.28
   4  -4   3  104.03   10.87
  -4  -3   3    8.61    3.18
  -4  -3   3    5.41    3.71
  -4  -3   3    7.57    3.39
  -4  -3   3    5.69    3.04
  -4  -3   3    7.28    2.99
  -4  -3   3    5.01    3.47
  -4  -3   3    6.65    3.30
   3   3  -3  302.94   11.55
  -3  -3   3  278.54   14.46
  -3  -3   3  304.86   12.51
  -3  -3   3  284.95   11.07
  -3  -3   3  304.43   14.42
  -3  -3   3  300.92   13.76
  -3  -3   3  301.99   15.41
  -3  -3   3  298.48   14.36
   2   3  -3   62.70    3.01
   2   3  -3   58.67    2.87
  -2  -3   3   52.61    3.58
  -2  -3   3   63.21    6.13
  -2  -3   3   68.65    4.60
  -2  -3   3   66.08    2.98
  -2  -3   3   62.48    2.93
  -2  -3   3   55.78    4.69
  -2  -3   3   64.46    2.87
  -2  -3   3   58.84    3.95
  -2  -3   3   59.52    4.61
  -2  -3   3   60.15    4.94
   1   3  -3    6.46    1.63
   1   3  -3    7.30    1.19
   1   3  -3    6.40    1.48
   1   3  -3    7.37    0.87
   1   3  -3    9.39    3.50
   1   3  -3   11.18    1.76
   1   3  -3   11.14    1.85
   1   3  -3    7.71    0.73
  -1  -3   3    8.07    1.57
  -1  -3   3    5.02    1.29
  -1  -3   3    5.89    1.43
  -1  -3   3    8.88    1.99
  -1  -3   3    3.99    1.42
  -1  -3   3    8.63    3.37
  -1  -3   3    8.10    1.82
  -1  -3   3    7.20    1.13
   0   3  -3    1.89    1.04
   0   3  -3    0.35    0.80
   0   3  -3    1.71    0.83
   0   3  -3    1.35    1.05
   0   3  -3    0.95    1.34
   0   3  -3    0.65    0.77
   0   3  -3    2.01    0.84
   0   3  -3   -0.17    0.79
   0   3  -3    2.13    0.92
   0  -3   3    1.10    0.84
   0  -3   3    0.32    0.67
   0  -3   3    1.98    1.07
   0  -3   3    0.75    1.24
   0  -3   3    0.82    0.75
   0  -3   3    0.62    0.79
   0  -3   3    3.03    1.29
   0  -3   3    1.45    1.08
   0  -3   3    0.33    0.88
   0  -3   3    1.13    0.77
  -1   3  -3  264.18    8.82
  -1   3  -3  259.33   10.90
  -1   3  -3  260.35    9.03
  -1   3  -3  256.68   11.01
  -1   3  -3  243.41   10.81
  -1   3  -3  262.77    9.73
  -1   3  -3  268.52   10.69
  -1   3  -3  249.32   10.89
  -1   3  -3  254.61    9.94
   1  -3   3  270.80    8.82
   1  -3   3  252.79   10.98
   1  -3   3  264.42    9.08
   1  -3   3  256.66   10.93
   1  -3   3  270.02    9.64
   1  -3   3  292.75   22.43
   1  -3   3  246.93    9.86
   1  -3   3  271.76   11.07
  -2   3  -3  179.88    9.51
  -2   3  -3  177.74    7.31
  -2   3  -3  179.36    6.64
  -2   3  -3  177.81    6.62
  -2   3  -3  174.88    9.14
  -2   3  -3  175.02    8.27
  -2   3  -3  182.40    9.16
   2  -3   3  180.33    8.39
   2  -3   3  180.92    9.51
   2  -3   3  151.87   16.34
  -3   3  -3    8.34    3.45
  -3   3  -3   10.03    2.98
  -3   3  -3   13.06    3.05
  -3   3  -3    7.51    2.61
  -3   3  -3    8.49    2.74
  -3   3  -3   11.06    3.25
  -3   3  -3   13.05    1.90
   3  -3   3   14.96    2.72
   3  -3   3   16.78    6.92
   3  -3   3    9.39    3.13
  -4   3  -3   57.39    7.16
  -4   3  -3   48.51    7.84
  -4   3  -3   55.99    8.04
  -4   3  -3   49.85    6.54
  -4   3  -3   45.37    6.53
   4  -3   3   48.48    7.25
  -4  -2   3   89.72    7.87
  -4  -2   3   92.43   10.36
  -4  -2   3   94.24    7.79
  -4  -2   3   73.35    9.22
  -4  -2   3  104.31   10.18
  -4  -2   3   72.52    8.46
  -4  -2   3   80.89    9.43
  -3  -2   3   18.76    2.39
  -3  -2   3   16.85    3.56
  -3  -2   3   19.19    3.14
  -3  -2   3   14.48    3.22
  -3  -2   3   20.89    2.68
  -3  -2   3   15.06    3.40
  -3  -2   3   14.17    2.12
  -3  -2   3   21.47    3.51
  -3  -2   3   22.42    4.17
  -3  -2   3   16.92    3.44
  -3  -2   3   20.71    2.44
   2   2  -3  442.56   25.29
   2   2  -3  365.07   13.06
  -2  -2   3  372.47   15.10
  -2  -2   3  377.83   12.57
  -2  -2   3  362.25   15.29
  -2  -2   3  378.47   13.02
  -2  -2   3  368.41   15.34
  -2  -2   3  385.69   15.01
  -2  -2   3  369.79   12.66
  -2  -2   3  363.98   14.74
  -2  -2   3  379.50   13.62
   1   2  -3  770.11   24.15
   1   2  -3  725.08   25.81
   1   2  -3  755.88   26.34
   1   2  -3  800.71   26.22
   1   2  -3  797.70   25.29
   1   2  -3  803.90   26.15
   1   2  -3  812.37   32.65
  -1  -2   3  745.56   26.23
  -1  -2   3  777.64   25.17
  -1  -2   3  759.00   25.17
  -1  -2   3  811.95   32.15
  -1  -2   3  754.87   25.57
  -1  -2   3  750.31   26.13
  -1  -2   3  769.72   26.06
  -1  -2   3  767.18   24.18
  -1  -2   3  772.18   26.07
  -1  -2   3  754.40   24.16
   0   2  -3   24.03    1.86
   0   2  -3   20.38    1.61
   0   2  -3   14.95    1.99
   0   2  -3   24.29    2.54
   0   2  -3   18.97    1.81
   0   2  -3   23.99    1.83
   0   2  -3   18.22    2.15
   0   2  -3   20.90    1.74
   0   2  -3   25.24    3.39
   0  -2   3   23.25    1.78
   0  -2   3   24.11    2.17
   0  -2   3   22.30    3.08
   0  -2   3   19.71    1.94
   0  -2   3   21.44    2.32
   0  -2   3   21.45    1.75
   0  -2   3   20.20    1.72
   0  -2   3   19.68    1.77
   0  -2   3   22.74    2.26
  -1   2  -3   85.43    5.02
  -1   2  -3   91.01    5.06
  -1   2  -3   94.92    4.63
  -1   2  -3   91.74    5.36
  -1   2  -3   96.86    5.13
  -1   2  -3   88.33    4.05
  -1   2  -3   95.32    4.44
   1  -2   3  108.72   10.70
   1  -2   3   91.50    5.14
   1  -2   3  100.45    4.57
   1  -2   3   97.43    4.17
   1  -2   3   96.04    5.07
   1  -2   3   88.93    5.13
   1  -2   3   90.25    4.54
   1  -2   3   89.43    5.29
  -2   2  -3  347.66   13.35
  -2   2  -3  363.98   15.35
  -2   2  -3  355.53   15.36
  -2   2  -3  353.07   14.24
  -2   2  -3  352.18   11.97
  -2   2  -3  348.59   14.73
  -2   2  -3  355.29   14.30
  -2   2  -3  355.75   11.95
   2  -2   3  352.41   13.94
   2  -2   3  388.55   15.41
   2  -2   3  357.71   14.35
   2  -2   3  345.60   20.73
  -3   2  -3  490.35   19.10
  -3   2  -3  481.17   21.49
  -3   2  -3  440.87   20.69
  -3   2  -3  467.50   21.04
  -3   2  -3  461.53   19.50
  -3   2  -3  466.32   19.75
  -3   2  -3  473.73   16.53
   3  -2   3  483.34   20.41
  -4   2  -3  123.23    9.35
  -4   2  -3  125.40   10.81
  -4   2  -3  140.26   11.14
  -4   2  -3  140.28   10.13
   4  -2   3  128.94    9.96
   4   1  -3   74.76    6.26
  -4  -1   3   87.90    9.83
  -4  -1   3   84.33    6.72
  -4  -1   3   87.08    8.14
  -4  -1   3   63.23    7.68
  -4  -1   3   83.94    9.21
  -4  -1   3   89.97    7.52
  -4  -1   3   90.56    9.64
  -4  -1   3   86.51   10.08
   3   1  -3   35.00    9.60
   3   1  -3   47.91    4.07
  -3  -1   3   43.68    5.73
  -3  -1   3   46.57    4.43
  -3  -1   3   51.23    5.69
  -3  -1   3   48.24    5.07
  -3  -1   3   47.65    3.88
  -3  -1   3   50.27    5.64
  -3  -1   3   49.28    3.76
  -3  -1   3   56.01    6.18
  -3  -1   3   46.00    3.53
  -3  -1   3   44.91    5.62
   2   1  -3 2337.76   78.85
   2   1  -3 2023.67   64.01
  -2  -1   3 1974.44   63.08
  -2  -1   3 1960.67   64.78
  -2  -1   3 2037.71   65.43
  -2  -1   3 2030.57   63.89
  -2  -1   3 1963.90   65.71
  -2  -1   3 2040.42   63.87
  -2  -1   3 2008.05   66.11
  -2  -1   3 1991.63   65.54
   1   1  -3  423.97   15.52
   1   1  -3  431.71   14.51
   1   1  -3  429.59   15.13
   1   1  -3  424.47   15.64
   1   1  -3  429.96   14.34
  -1  -1   3  405.90   15.37
  -1  -1   3  417.84   15.41
  -1  -1   3  426.36   14.04
  -1  -1   3  446.86   20.36
  -1  -1   3  472.66   33.28
  -1  -1   3  428.13   15.14
  -1  -1   3  415.80   14.28
  -1  -1   3  423.86   14.45
  -1  -1   3  435.43   15.74
   0   1  -3  481.84   16.28
   0   1  -3  483.61   15.77
   0   1  -3  473.72   15.97
   0   1  -3  467.74   16.46
   0   1  -3  467.01   16.21
   0   1  -3  483.21   16.09
   0   1  -3  472.57   16.32
   0   1  -3  476.22   16.13
   0   1  -3  509.11   19.35
   0   1  -3  478.08   15.82
   0  -1   3  469.10   15.81
   0  -1   3  461.45   15.94
   0  -1   3  470.29   16.05
   0  -1   3  468.74   16.03
   0  -1   3  476.81   16.49
   0  -1   3  468.07   15.62
   0  -1   3  462.05   16.15
   0  -1   3  496.90   16.43
   0  -1   3  461.95   15.68
  -1   1  -3 2826.65   87.03
  -1   1  -3 2663.26   86.60
  -1   1  -3 2770.88   86.21
  -1   1  -3 2694.57   87.47
  -1   1  -3 2646.78   86.10
  -1   1  -3 2836.28   87.02
  -1   1  -3 2786.19   86.48
   1  -1   3 2960.77   91.82
   1  -1   3 2793.89   86.64
   1  -1   3 2815.26   86.24
   1  -1   3 2732.15   86.20
   1  -1   3 2730.72   87.45
   1  -1   3 2878.64   86.49
   1  -1   3 2731.67   87.09
  -2   1  -3   11.15    2.89
  -2   1  -3    7.38    1.82
  -2   1  -3   10.91    2.44
  -2   1  -3    8.55    1.43
  -2   1  -3   10.52    2.29
  -2   1  -3   15.07    3.24
  -2   1  -3   11.22    1.41
   2  -1   3    7.01    1.72
   2  -1   3   11.83    2.04
   2  -1   3    8.40    2.17
  -3   1  -3  257.37   10.16
  -3   1  -3  245.37   12.60
  -3   1  -3  264.40   11.76
  -3   1  -3  264.55   14.30
  -3   1  -3  233.43   13.68
  -3   1  -3  265.23   14.01
  -3   1  -3  270.21   13.21
   3  -1   3  251.16   10.43
   3  -1   3  247.05   12.88
  -4   1  -3   -0.23    2.59
  -4   1  -3    2.37    2.68
  -4   1  -3    5.22    3.49
  -4   1  -3    2.84    2.68
  -4   1  -3    0.74    2.99
   4  -1   3    3.36    2.86
   4   0  -3   11.72    3.16
  -4   0   3    7.73    3.45
  -4   0   3   13.12    3.53
  -4   0   3   14.19    3.38
  -4   0   3   12.24    3.63
  -4   0   3   14.25    4.34
  -4   0   3   15.02    3.62
  -4   0   3   12.44    3.92
  -4   0   3    9.11    3.72
  -4   0   3   20.24    4.71
  -4   0   3   12.21    3.60
   3   0  -3   35.74    9.32
   3   0  -3   33.93    4.13
  -3   0   3   48.97    6.12
  -3   0   3   36.53    4.97
  -3   0   3   33.17    4.58
  -3   0   3   45.45    5.55
  -3   0   3   41.57    4.33
  -3   0   3   33.95    5.12
  -3   0   3   37.59    3.75
  -3   0   3   36.09    3.17
  -3   0   3   42.34    5.05
  -3   0   3   43.65    5.17
  -3   0   3   43.83    4.50
   2   0  -3  447.87   15.78
   2   0  -3  407.13   24.12
   2   0  -3  442.13   15.82
  -2   0   3  412.55   14.36
  -2   0   3  425.06   15.59
  -2   0   3  434.51   14.95
  -2   0   3  432.87   15.28
  -2   0   3  428.21   15.65
  -2   0   3  435.92   16.57
  -2   0   3  414.30   16.26
  -2   0   3  437.65   17.58
  -2   0   3  437.81   16.81
  -2   0   3  442.94   15.86
   1   0  -3 2844.73   90.36
   1   0  -3 2747.84   84.51
   1   0  -3 2708.96   83.14
   1   0  -3 2621.96   83.73
   1   0  -3 2650.72   83.29
   1   0  -3 2797.66  110.08
  -1   0   3 2709.86   84.46
  -1   0   3 2620.33   82.17
  -1   0   3 2623.83   83.29
  -1   0   3 2772.09   89.55
  -1   0   3 2681.50   83.08
  -1   0   3 2607.60   82.95
  -1   0   3 2634.28  107.18
  -1   0   3 2681.23   84.16
  -1   0   3 2535.31   83.62
   0   0  -3 2362.19   76.73
   0   0  -3 2460.30   76.34
   0   0  -3 2395.32   76.99
   0   0  -3 2458.31   76.73
   0   0  -3 2499.76   76.14
   0   0  -3 2521.37   76.65
   0   0  -3 2504.29   75.60
   0   0  -3 2281.04   76.13
   0   0   3 2388.89   76.97
   0   0   3 2463.48   76.84
   0   0   3 2503.64   76.50
   0   0   3 2471.52   76.46
   0   0   3 2549.49   80.13
   0   0   3 2515.97   76.23
   0   0   3 2502.38   75.61
   0   0   3 2429.43   76.32
   0   0   3 2624.89   76.77
   0   0   3 2464.96   76.14
   0   0   3 2440.43   76.32
  -1   0  -3  450.84   16.65
  -1   0  -3  403.36   16.37
  -1   0  -3  458.75   15.72
  -1   0  -3  447.75   16.23
  -1   0  -3  459.20   16.35
  -1   0  -3  479.29   16.58
  -1   0  -3  455.56   14.84
  -1   0  -3  476.36   16.67
  -1   0  -3  463.34   16.94
  -1   0  -3  476.97   16.91
   1   0   3  458.81   16.47
   1   0   3  481.45   16.70
   1   0   3  456.89   16.55
   1   0   3  479.73   16.51
   1   0   3  459.45   16.67
   1   0   3  450.37   14.81
   1   0   3  465.79   15.65
   1   0   3  461.65   16.28
   1   0   3  461.17   17.11
   1   0   3  470.53   17.05
  -2   0  -3   98.07    6.29
  -2   0  -3   92.05    6.41
  -2   0  -3   88.96    4.99
  -2   0  -3   96.29    6.26
  -2   0  -3  103.86    4.63
  -2   0  -3   93.58    6.75
  -2   0  -3   84.39    6.52
  -2   0  -3   93.07    5.15
  -2   0  -3  102.58    6.23
   2   0   3  101.34    5.12
   2   0   3   94.54    6.10
  -3   0  -3  430.58   19.91
  -3   0  -3  407.62   16.22
  -3   0  -3  395.39   18.59
  -3   0  -3  425.71   19.75
  -3   0  -3  421.12   15.77
  -3   0  -3  439.87   15.71
  -3   0  -3  465.83   20.75
  -3   0  -3  416.67   18.08
   3   0   3  441.74   15.52
   3   0   3  425.90   18.40
  -4   0  -3   93.12    9.87
  -4   0  -3  103.07   11.28
  -4   0  -3   86.15   10.23
  -4   0  -3   86.77    8.59
  -4   0  -3   98.38   11.44
   4   0   3   96.53    8.33
   4  -1  -3  164.85   10.14
  -4   1   3  179.82   12.22
  -4   1   3  173.01   10.16
  -4   1   3  163.67   10.16
  -4   1   3  178.21   11.12
  -4   1   3  155.14   10.33
  -4   1   3  167.56   11.98
  -4   1   3  187.08   11.93
  -4   1   3  142.94    9.95
  -4   1   3  156.23    9.46
  -4   1   3  146.77   11.07
  -4   1   3  172.18    9.92
  -4   1   3  162.78   11.09
   3  -1  -3   17.96    7.01
   3  -1  -3   11.14    2.78
  -3   1   3   11.24    2.88
  -3   1   3   12.17    2.93
  -3   1   3    9.45    2.60
  -3   1   3    5.86    2.73
  -3   1   3   11.53    2.50
  -3   1   3    9.83    1.44
  -3   1   3    8.36    2.06
  -3   1   3    6.71    2.38
  -3   1   3    8.56    2.48
  -3   1   3    8.91    2.72
  -3   1   3    6.77    2.33
  -3   1   3    9.47    2.82
  -3   1   3   10.54    1.77
  -3   1   3   10.34    2.92
   2  -1  -3 1036.88   64.43
   2  -1  -3 1076.56   34.29
   2  -1  -3 1122.44   45.00
  -2   1   3 1042.66   43.19
  -2   1   3 1039.83   33.84
  -2   1   3 1033.22   34.30
  -2   1   3 1020.01   61.49
  -2   1   3 1047.66   34.79
  -2   1   3 1056.84   35.35
  -2   1   3 1028.22   34.90
  -2   1   3 1022.28   34.28
  -2   1   3 1047.19   35.81
  -2   1   3 1046.06   36.96
   1  -1  -3 3254.72  102.40
   1  -1  -3 3193.44  101.24
   1  -1  -3 3248.15  101.05
   1  -1  -3 3299.48  102.49
   1  -1  -3 3630.61  131.53
   1  -1  -3 3465.36  108.09
   1  -1  -3 3162.37  102.29
  -1   1   3 3279.81  101.90
  -1   1   3 3645.74  130.71
  -1   1   3 3273.82  101.01
  -1   1   3 3296.40  107.22
  -1   1   3 3124.32  102.20
  -1   1   3 3267.09  103.21
  -1   1   3 3111.82  101.20
  -1   1   3 3229.05  102.42
  -1   1   3 3280.80  102.01
  -1   1   3 3236.77  102.42
   0  -1  -3   -0.10    0.69
   0  -1  -3    0.70    0.88
   0  -1  -3    2.12    1.00
   0  -1  -3    0.06    0.35
   0  -1  -3   -0.67    1.04
   0  -1  -3   -0.94    2.51
   0  -1  -3    0.03    0.74
   0  -1  -3   -0.34    0.72
   0  -1  -3    0.37    0.65
   0  -1  -3    0.34    0.65
   0  -1  -3   -0.18    0.69
   0   1   3   -0.28    0.71
   0   1   3   -1.46    0.59
   0   1   3   -0.43    1.24
   0   1   3   -0.50    0.66
   0   1   3   -0.30    0.53
   0   1   3    0.84    0.62
   0   1   3   -0.39    0.73
   0   1   3   -0.04    0.73
   0   1   3    2.71    3.54
   0   1   3   -0.20    0.28
   0   1   3   -0.38    0.57
  -1  -1  -3  291.88   11.98
  -1  -1  -3  276.08   11.72
  -1  -1  -3  289.87   10.67
  -1  -1  -3  298.33   11.92
  -1  -1  -3  297.82   11.59
  -1  -1  -3  294.71   11.91
  -1  -1  -3  313.81   12.14
  -1  -1  -3  305.12   11.82
  -1  -1  -3  314.17   11.86
  -1  -1  -3  300.45   10.38
   1   1   3  355.14   17.60
   1   1   3  304.50   11.71
   1   1   3  299.05   11.98
   1   1   3  293.79   12.00
   1   1   3  300.37   10.65
   1   1   3  331.55   13.02
   1   1   3  298.25   10.38
   1   1   3  297.60   11.96
   1   1   3  277.26   11.55
   1   1   3  286.44   12.14
  -2  -1  -3   21.79    2.17
  -2  -1  -3    9.68    2.63
  -2  -1  -3   16.01    2.86
  -2  -1  -3   15.87    2.55
  -2  -1  -3   10.79    2.58
  -2  -1  -3   12.61    2.49
  -2  -1  -3   12.83    2.95
  -2  -1  -3   16.14    2.10
  -2  -1  -3   18.07    3.10
   2   1   3   15.07    2.00
   2   1   3   17.43    1.95
   2   1   3   19.21    3.06
  -3  -1  -3  565.82   24.60
  -3  -1  -3  596.96   21.02
  -3  -1  -3  627.85   24.56
  -3  -1  -3  552.46   22.71
  -3  -1  -3  556.07   20.00
  -3  -1  -3  577.88   21.39
  -3  -1  -3  560.92   25.08
  -3  -1  -3  586.94   24.79
   3   1   3  573.19   23.06
   3   1   3  575.42   19.79
  -4  -1  -3  237.38   15.13
  -4  -1  -3  241.75   16.13
  -4  -1  -3  237.88   15.53
  -4  -1  -3  237.82   14.75
  -4  -1  -3  230.41   13.20
   4   1   3  251.34   13.73
   4  -2  -3   44.99    6.04
  -4   2   3   51.45    6.38
  -4   2   3   34.17    6.01
  -4   2   3   46.50    7.23
  -4   2   3   40.05    5.01
  -4   2   3   40.18    6.14
  -4   2   3   46.68    6.20
  -4   2   3   46.68    6.61
  -4   2   3   44.15    6.09
  -4   2   3   47.29    6.27
  -4   2   3   29.33    5.80
  -4   2   3   42.24    5.59
  -4   2   3   55.98    7.15
   3  -2  -3   95.97   12.43
   3  -2  -3   85.88    6.47
   3  -2  -3   90.35   21.25
  -3   2   3   89.40    7.20
  -3   2   3   89.85    6.64
  -3   2   3   92.85    7.82
  -3   2   3   90.66    6.19
  -3   2   3   91.32    6.57
  -3   2   3   94.91    7.24
  -3   2   3   85.51    6.41
  -3   2   3   94.19    4.44
  -3   2   3   89.47    5.84
  -3   2   3  101.12    7.37
  -3   2   3   83.93    5.91
  -3   2   3   88.96    6.62
  -3   2   3   91.95    5.08
   2  -2  -3  293.68   11.40
   2  -2  -3  318.11   33.42
   2  -2  -3  307.38   11.29
   2  -2  -3  299.98   18.44
  -2   2   3  301.73   12.33
  -2   2   3  275.08   11.13
  -2   2   3  283.74   11.23
  -2   2   3  292.77   30.47
  -2   2   3  285.08   12.17
  -2   2   3  289.40   17.47
  -2   2   3  291.11   11.65
  -2   2   3  290.43   11.43
  -2   2   3  275.66   11.44
  -2   2   3  283.94   12.55
   1  -2  -3   12.27    2.06
   1  -2  -3   13.00    7.46
   1  -2  -3   14.88    2.41
   1  -2  -3   16.77    2.01
   1  -2  -3   17.02    2.22
   1  -2  -3   19.54    4.08
   1  -2  -3   15.16    2.13
  -1   2   3   12.59    3.16
  -1   2   3   16.92    1.09
  -1   2   3   16.21    1.93
  -1   2   3   13.21    1.96
  -1   2   3   16.51    2.03
  -1   2   3   12.15    1.96
  -1   2   3   15.01    1.93
  -1   2   3   16.00    2.48
  -1   2   3   15.40    7.49
  -1   2   3   13.56    2.02
  -1   2   3   18.17    2.34
   0  -2  -3  485.69   20.16
   0  -2  -3  454.12   16.20
   0  -2  -3  468.99   15.90
   0  -2  -3  469.98   16.71
   0  -2  -3  458.99   16.01
   0  -2  -3  489.01   16.40
   0  -2  -3  478.06   16.29
   0  -2  -3  483.05   16.62
   0  -2  -3  449.82   15.53
   0   2   3  462.67   15.88
   0   2   3  484.21   16.33
   0   2   3  433.34   16.84
   0   2   3  459.98   16.11
   0   2   3  449.52   16.02
   0   2   3  447.76   16.10
   0   2   3  466.39   16.50
   0   2   3  461.35   14.89
   0   2   3  453.38   15.52
   0   2   3  460.88   16.72
   0   2   3  452.93   16.50
  -1  -2  -3  225.06    8.82
  -1  -2  -3  218.60    9.37
  -1  -2  -3  202.77    9.56
  -1  -2  -3  207.36    9.83
  -1  -2  -3  192.23    8.90
  -1  -2  -3  215.28    9.30
  -1  -2  -3  210.79    9.54
  -1  -2  -3  245.26   18.29
   1   2   3  213.94    8.67
   1   2   3  211.41    9.69
   1   2   3  218.63    9.50
   1   2   3  222.87    9.68
   1   2   3  208.04    8.82
   1   2   3  237.79   17.61
   1   2   3  219.87    7.59
  -2  -2  -3  569.05   22.09
  -2  -2  -3  481.57   26.32
  -2  -2  -3  534.90   21.55
  -2  -2  -3  576.46   21.30
  -2  -2  -3  557.86   19.76
  -2  -2  -3  568.57   21.89
  -2  -2  -3  558.70   20.83
  -2  -2  -3  568.88   20.82
   2   2   3  567.84   19.68
   2   2   3  556.77   20.68
   2   2   3  555.69   19.24
  -3  -2  -3   39.89    4.92
  -3  -2  -3   50.68    7.27
  -3  -2  -3   43.25    6.30
  -3  -2  -3   41.34    5.22
  -3  -2  -3   36.19    5.56
  -3  -2  -3   31.66    5.32
  -3  -2  -3   38.39    4.22
   3   2   3   33.97    2.88
   3   2   3   44.62    5.46
  -4  -2  -3   42.80    5.99
  -4  -2  -3   39.22    6.69
  -4  -2  -3   32.40    6.66
  -4  -2  -3   43.70    7.93
  -4  -2  -3   61.13    9.04
   4   2   3   47.67    6.35
   4  -3  -3   19.33    4.43
  -4   3   3   15.56    3.91
  -4   3   3   13.00    3.61
  -4   3   3    5.65    2.99
  -4   3   3   19.04    4.39
  -4   3   3   20.02    4.42
  -4   3   3   13.14    3.25
  -4   3   3   18.18    4.19
  -4   3   3   16.17    3.78
  -4   3   3   15.70    4.37
  -4   3   3   14.07    3.57
  -4   3   3    8.96    3.91
  -4   3   3   15.55    3.70
   3  -3  -3  222.05   34.17
   3  -3  -3  312.25   14.45
   3  -3  -3  285.18   21.26
  -3   3   3  294.04   13.18
  -3   3   3  319.25   15.30
  -3   3   3  317.70   14.79
  -3   3   3  309.02   12.45
  -3   3   3  314.53   13.65
  -3   3   3  312.20   13.63
  -3   3   3  295.47   12.90
  -3   3   3  293.06   13.38
  -3   3   3  294.68   14.34
   2  -3  -3  304.19   11.70
   2  -3  -3  270.48   33.48
   2  -3  -3  278.86   17.29
  -2   3   3  288.55   11.29
  -2   3   3  308.03   13.41
  -2   3   3  302.98   12.28
  -2   3   3  299.87   12.44
  -2   3   3  287.03   16.89
  -2   3   3  299.97   11.61
  -2   3   3  282.44   12.06
  -2   3   3  304.38   13.78
  -2   3   3  299.79   11.10
  -2   3   3  296.62   12.23
   1  -3  -3    4.36    1.47
   1  -3  -3    5.17    2.27
   1  -3  -3    6.04    1.49
   1  -3  -3    4.51    1.34
   1  -3  -3    4.05    1.45
   1  -3  -3    0.72    0.86
  -1   3   3    7.97    1.80
  -1   3   3    3.93    1.50
  -1   3   3    5.04    1.33
  -1   3   3    4.61    1.16
  -1   3   3    8.33    1.73
  -1   3   3    6.71    1.92
  -1   3   3    2.38    1.19
  -1   3   3    6.19    2.43
  -1   3   3    5.82    1.44
  -1   3   3    4.59    5.29
   0  -3  -3 2333.92   72.73
   0  -3  -3 2253.63   72.31
   0  -3  -3 2218.95   71.16
   0  -3  -3 2224.29   71.84
   0  -3  -3 2331.75   72.30
   0  -3  -3 2300.43   72.65
   0  -3  -3 2333.68   77.06
   0  -3  -3 2242.10   72.36
   0  -3  -3 2253.86   71.86
   0   3   3 2574.39   98.02
   0   3   3 2156.26   72.57
   0   3   3 2253.70   72.39
   0   3   3 2265.26   71.88
   0   3   3 2295.54   72.55
   0   3   3 2255.80   71.69
   0   3   3 2407.59   72.48
   0   3   3 2313.74   71.83
   0   3   3 2197.77   72.42
  -1  -3  -3  213.67   10.07
  -1  -3  -3  217.84    9.59
  -1  -3  -3  214.40    7.69
  -1  -3  -3  217.04   10.53
  -1  -3  -3  202.55    9.16
  -1  -3  -3  254.38   22.11
  -1  -3  -3  201.16    9.87
  -1  -3  -3  236.20    9.83
  -1  -3  -3  217.99   10.04
  -1  -3  -3  221.56    9.42
  -1  -3  -3  219.48    9.99
   1   3   3  197.61    9.48
   1   3   3  219.25    9.34
   1   3   3  215.45    9.29
   1   3   3  217.44    7.64
   1   3   3  250.51   20.97
   1   3   3  218.03   10.27
   1   3   3  218.60    9.98
  -2  -3  -3   36.35    4.89
  -2  -3  -3   34.07    7.95
  -2  -3  -3   35.61    4.52
  -2  -3  -3   36.39    4.88
  -2  -3  -3   36.29    3.93
  -2  -3  -3   33.86    4.05
  -2  -3  -3   36.46    4.32
  -2  -3  -3   51.13    6.17
  -2  -3  -3   41.52    5.15
   2   3   3   38.89    3.19
   2   3   3   45.60    4.10
   2   3   3   42.14    3.57
   2   3   3   41.44    4.35
  -3  -3  -3   81.60    9.73
  -3  -3  -3   95.41    6.43
  -3  -3  -3   80.45    8.55
  -3  -3  -3   77.52    8.68
  -3  -3  -3   90.11    7.89
  -3  -3  -3   86.94    6.61
  -3  -3  -3   92.73    7.21
   3   3   3   84.56    6.54
  -4  -3  -3    1.62    2.99
  -4  -3  -3    3.97    3.60
  -4  -3  -3    4.56    2.88
  -4  -3  -3   -2.04    1.69
  -4  -3  -3    0.68    2.90
  -4  -3  -3    5.18    2.63
   4   3   3    1.20    2.20
   4  -4  -3   -0.04    8.08
  -4   4   3   10.18    3.16
  -4   4   3   13.17    3.93
  -4   4   3    8.07    3.07
  -4   4   3    7.76    3.62
  -4   4   3   10.26    3.86
  -4   4   3   16.46    4.51
  -4   4   3   16.04    5.03
  -4   4   3    7.70    3.00
  -4   4   3   15.98    4.32
  -4   4   3    8.15    3.02
  -4   4   3    5.04    2.46
  -4   4   3    6.34    2.75
   3  -4  -3  102.68   12.03
   3  -4  -3  107.72    4.94
   3  -4  -3   82.02   25.71
   3  -4  -3  118.86    6.85
  -3   4   3  113.15    8.67
  -3   4   3  115.50    6.52
  -3   4   3  106.71    6.83
  -3   4   3  114.54    6.83
  -3   4   3   88.91    7.25
  -3   4   3  117.06    8.30
  -3   4   3  118.62    7.48
   2  -4  -3   14.55   11.18
   2  -4  -3    9.60    2.04
   2  -4  -3   12.12    2.46
  -2   4   3   12.73    2.42
  -2   4   3    7.77    1.90
  -2   4   3    8.74    2.28
  -2   4   3   12.97    2.86
  -2   4   3   16.33    4.34
  -2   4   3   11.88    1.76
  -2   4   3   10.57    2.35
  -2   4   3   10.24    2.90
   1  -4  -3  390.26   14.85
   1  -4  -3  395.19   18.31
   1  -4  -3  399.56   36.94
   1  -4  -3  411.66   15.91
   1  -4  -3  407.69   16.33
   1  -4  -3  404.43   15.36
  -1   4   3  380.25   15.96
  -1   4   3  412.41   16.00
  -1   4   3  388.41   13.32
  -1   4   3  387.03   14.02
  -1   4   3  397.82   17.93
  -1   4   3  396.80   14.99
  -1   4   3  394.16   15.74
  -1   4   3  399.74   36.10
  -1   4   3  395.47   16.25
  -1   4   3  414.34   15.48
   0  -4  -3   29.72    2.32
   0  -4  -3   25.63    3.24
   0  -4  -3   28.50    3.37
   0  -4  -3   26.61    3.23
   0  -4  -3   29.89    3.34
   0  -4  -3   24.54    3.23
   0  -4  -3   26.29    2.84
   0  -4  -3   53.08   12.67
   0   4   3   30.11    2.67
   0   4   3   48.46   11.70
   0   4   3   28.29    2.58
   0   4   3   36.95    3.90
   0   4   3   27.33    3.39
   0   4   3   24.83    3.14
   0   4   3   28.72    3.53
   0   4   3   28.06    3.29
  -1  -4  -3  675.37   24.82
  -1  -4  -3  711.19   25.76
  -1  -4  -3  713.87   25.44
  -1  -4  -3  687.48   24.74
  -1  -4  -3  700.43   24.93
  -1  -4  -3  732.90   45.17
  -1  -4  -3  690.01   25.42
   1   4   3  756.45   44.77
   1   4   3  674.97   24.64
   1   4   3  704.26   25.87
   1   4   3  682.48   22.53
   1   4   3  695.06   24.71
   1   4   3  663.39   25.50
   1   4   3  693.78   24.54
  -2  -4  -3   56.39    4.48
  -2  -4  -3   58.53    4.75
  -2  -4  -3   47.80    5.90
  -2  -4  -3   59.72    6.62
  -2  -4  -3   35.63   10.66
  -2  -4  -3   53.43    4.51
  -2  -4  -3   45.47    5.24
  -2  -4  -3   53.48    6.01
   2   4   3   54.62    4.56
   2   4   3   51.24    4.01
   2   4   3   48.62    4.36
  -3  -4  -3   14.66    4.08
  -3  -4  -3   22.22    4.48
  -3  -4  -3   17.31    4.66
  -3  -4  -3   21.92    4.83
  -3  -4  -3   18.41    3.64
  -3  -4  -3   23.43    4.72
  -3  -4  -3   13.36    3.21
   3   4   3   20.96    3.74
  -4  -4  -3   -0.30    2.59
  -4  -4  -3    2.68    3.44
  -4  -4  -3    2.61    3.12
  -4  -4  -3    1.35    2.48
  -4  -4  -3   -0.30    2.40
  -4  -4  -3    2.57    2.27
   4   4   3    3.10    3.17
   4  -5  -3   -0.46    8.32
  -4   5   3    1.21    2.27
  -4   5   3    2.51    2.71
  -4   5   3    1.83    2.55
  -4   5   3   -0.83    2.08
  -4   5   3   -0.68    1.59
   3  -5  -3   44.02    4.99
   3  -5  -3   23.22    6.78
   3  -5  -3   41.48    3.11
  -3   5   3   32.83    4.85
  -3   5   3   40.48    4.26
  -3   5   3   47.94    4.94
  -3   5   3   40.53    4.56
  -3   5   3   38.16    3.91
  -3   5   3   45.95    6.43
  -3   5   3   46.02    5.56
  -3   5   3   51.93    6.97
   2  -5  -3   49.42   19.03
   2  -5  -3   39.68    4.66
  -2   5   3   44.98    3.74
  -2   5   3   39.30    2.61
  -2   5   3   44.96    4.86
  -2   5   3   40.24    3.52
  -2   5   3   34.67    5.11
  -2   5   3   42.10    2.45
  -2   5   3   48.49    6.01
  -2   5   3   44.34    3.28
  -2   5   3   41.78    5.39
   1  -5  -3    9.64    2.97
   1  -5  -3   11.43    9.16
   1  -5  -3    8.82    2.18
   1  -5  -3   10.40    2.47
  -1   5   3   14.33    1.89
  -1   5   3   13.74    3.00
  -1   5   3   10.67    2.16
  -1   5   3    7.42    2.29
  -1   5   3   10.28    3.00
  -1   5   3    7.82    2.00
   0  -5  -3    1.73    1.39
   0  -5  -3    8.05    7.32
   0  -5  -3    4.06    1.60
   0  -5  -3    8.56    2.08
   0  -5  -3    4.26    1.27
   0  -5  -3    4.94    0.67
   0  -5  -3    5.14    1.80
   0  -5  -3    0.68    0.77
   0   5   3    3.66    1.61
   0   5   3    7.40    7.23
   0   5   3    6.08    1.51
   0   5   3    2.78    1.34
   0   5   3    6.01    2.09
   0   5   3    4.52    1.71
   0   5   3    5.13    1.48
  -1  -5  -3   63.47    5.17
  -1  -5  -3   74.21    5.68
  -1  -5  -3   81.75   15.80
  -1  -5  -3   70.82    5.37
  -1  -5  -3   68.96    5.17
  -1  -5  -3   58.54    4.68
  -1  -5  -3   75.13    5.40
  -1  -5  -3   73.41    5.31
   1   5   3   77.44    5.35
   1   5   3   65.92    3.58
   1   5   3   68.69    5.55
   1   5   3   79.47    5.36
   1   5   3   90.21   16.36
  -2  -5  -3   36.71    5.67
  -2  -5  -3   29.81    4.58
  -2  -5  -3   31.73    4.19
  -2  -5  -3   43.76   13.52
  -2  -5  -3   33.15    4.90
  -2  -5  -3   27.99    4.63
  -2  -5  -3   26.92    4.17
  -2  -5  -3   29.19    4.21
  -2  -5  -3   29.15    4.18
   2   5   3   33.84    4.13
   2   5   3   38.84    4.27
   2   5   3   27.08    3.75
  -3  -5  -3    5.98    3.11
  -3  -5  -3    5.55    3.01
  -3  -5  -3    3.73    2.53
  -3  -5  -3    4.77    2.33
  -3  -5  -3    8.54    3.68
  -3  -5  -3    8.60    3.74
  -3  -5  -3    4.84    2.15
  -3  -5  -3    3.88    2.69
   3   5   3    4.44    2.20
  -4  -5  -3    6.65    4.31
  -4  -5  -3   14.25    5.62
  -4  -5  -3   11.43    3.98
  -4  -5  -3   10.34    4.31
  -4  -5  -3    9.84    5.26
  -4  -5  -3    2.33    3.16
   4  -6  -3   10.64   14.02
  -4   6   3   41.95    5.95
  -4   6   3   35.22    5.75
  -4   6   3   34.11    6.53
  -4   6   3   41.76    6.62
  -4   6   3   37.20    6.62
   3  -6  -3   99.20    5.62
   3  -6  -3   96.20    7.22
   3  -6  -3   64.95   10.82
  -3   6   3   96.25    7.11
  -3   6   3  112.68    7.98
  -3   6   3  110.29    6.43
  -3   6   3  105.40    8.64
  -3   6   3  112.46    9.19
  -3   6   3  110.32    6.52
  -3   6   3  101.04    5.87
  -3   6   3   99.04    5.60
   2  -6  -3    3.71    1.99
   2  -6  -3    6.19    2.09
   2  -6  -3    9.24    9.84
   2  -6  -3    6.79    3.01
  -2   6   3    3.69    2.30
  -2   6   3    7.45    2.99
  -2   6   3    4.36    2.10
  -2   6   3    6.05    1.01
  -2   6   3    4.73    0.99
  -2   6   3    6.04    1.40
  -2   6   3    2.08    1.47
  -2   6   3    6.33    2.43
   1  -6  -3  246.74    7.74
   1  -6  -3  204.63   30.37
   1  -6  -3  238.26   11.65
   1  -6  -3  233.31    9.06
   1  -6  -3  225.79   12.71
   1  -6  -3  221.15   11.50
  -1   6   3  238.01   11.28
  -1   6   3  184.31   11.06
  -1   6   3  232.29    8.97
  -1   6   3  234.66   10.30
  -1   6   3  216.57   11.29
   0  -6  -3   42.50    3.50
   0  -6  -3   43.27    4.71
   0  -6  -3   40.39   14.96
   0  -6  -3   47.67    3.36
   0  -6  -3   32.77    4.30
   0  -6  -3   47.96    5.21
   0  -6  -3   45.19    2.07
   0   6   3   49.47    5.29
   0   6   3   36.72    3.27
   0   6   3   42.54    3.83
   0   6   3   41.60    4.65
   0   6   3   47.97    4.47
   0   6   3   40.13    3.42
  -1  -6  -3  847.24   29.74
  -1  -6  -3  850.80   30.19
  -1  -6  -3  743.91   55.10
  -1  -6  -3  862.25   29.69
  -1  -6  -3  829.37   30.28
  -1  -6  -3  752.44   29.33
  -1  -6  -3  831.56   29.85
   1   6   3  811.77   29.42
   1   6   3  817.68   27.07
   1   6   3  824.20   30.58
  -2  -6  -3    0.78    4.99
  -2  -6  -3    0.93    1.78
  -2  -6  -3   -1.55    1.37
  -2  -6  -3    0.06    1.81
  -2  -6  -3   -1.55    1.08
  -2  -6  -3    0.27    1.46
  -2  -6  -3   -0.58    1.53
  -2  -6  -3    1.72    2.37
   2   6   3    0.05    1.21
   2   6   3    2.23    1.59
  -3  -6  -3    4.69    3.46
  -3  -6  -3    6.41    3.00
  -3  -6  -3    7.06    2.96
  -3  -6  -3    8.94    3.59
  -3  -6  -3    5.93    3.16
  -3  -6  -3    3.88    3.00
  -3  -6  -3    5.11    2.42
  -3  -6  -3    4.32    2.86
   3   6   3    4.44    2.26
  -4  -6  -3  146.94   13.70
  -4  -6  -3  145.27   12.59
  -4  -6  -3  156.15   13.03
  -4  -6  -3  171.69   13.22
  -4  -6  -3  162.01   12.85
   4  -7  -3   14.93   16.34
  -4   7   3   48.06    7.68
  -4   7   3   49.86    7.02
  -4   7   3   50.04    6.71
  -4   7   3   43.34    7.67
   3  -7  -3  103.53    7.85
   3  -7  -3  112.08   33.88
  -3   7   3   91.32    6.08
  -3   7   3  110.36    9.29
  -3   7   3  105.12    9.09
  -3   7   3   92.62    7.75
   2  -7  -3   43.40    5.27
   2  -7  -3   34.06    5.83
   2  -7  -3   50.52    6.06
   2  -7  -3   16.14   14.00
  -2   7   3   40.75    4.14
  -2   7   3   30.81    4.74
  -2   7   3   50.40    6.74
  -2   7   3   40.47    5.19
  -2   7   3   39.38    2.82
  -2   7   3   46.14    6.10
   1  -7  -3  180.09   11.31
   1  -7  -3  186.60    6.80
   1  -7  -3  181.39    7.60
   1  -7  -3  174.16   10.23
   1  -7  -3  190.37   10.79
   1  -7  -3  184.34    6.67
  -1   7   3  173.64   10.15
  -1   7   3  184.73   10.11
  -1   7   3  168.72    8.76
  -1   7   3  165.37   10.28
  -1   7   3  177.42    7.48
   0  -7  -3  179.09   10.17
   0  -7  -3  222.77   31.87
   0  -7  -3  181.27    8.60
   0  -7  -3  185.98    6.38
   0  -7  -3  186.03    9.73
   0  -7  -3  181.40    8.23
   0  -7  -3  186.61   10.14
   0   7   3  178.48    9.57
   0   7   3  188.31   10.26
   0   7   3  167.96    8.95
   0   7   3  176.54    8.49
   0   7   3  132.05    9.03
  -1  -7  -3   74.48    5.77
  -1  -7  -3   61.69    5.52
  -1  -7  -3   69.25    4.57
  -1  -7  -3   62.33    6.54
  -1  -7  -3   37.31   15.47
  -1  -7  -3   70.74    6.07
  -1  -7  -3   73.13    6.04
   1   7   3   68.76    4.27
   1   7   3   71.11    7.66
   1   7   3   73.72    5.71
  -2  -7  -3   -0.23    1.73
  -2  -7  -3    1.35    2.15
  -2  -7  -3    2.95    1.78
  -2  -7  -3    1.40    2.06
  -2  -7  -3   -1.08    5.26
  -2  -7  -3    2.21    1.91
  -2  -7  -3    4.23    2.25
  -2  -7  -3    0.96    2.00
   2   7   3    1.43    1.59
   2   7   3    1.94    1.76
  -3  -7  -3   13.45    3.83
  -3  -7  -3   13.27    4.29
  -3  -7  -3   16.91    4.70
  -3  -7  -3   14.28    4.85
  -3  -7  -3   13.29    4.53
  -3  -7  -3   15.91    4.44
  -3  -7  -3   18.52    4.02
  -3  -7  -3    8.95    3.81
   3   7   3   18.90    3.79
   4  -8  -3    1.25   12.12
  -4   8   3    2.94    3.09
  -4   8   3    2.45    3.35
  -4   8   3    7.74    3.22
  -4   8   3    6.05    3.38
   3  -8  -3   63.08    7.47
  -3   8   3   52.97    7.81
  -3   8   3   62.45    8.46
  -3   8   3   56.14    7.15
   2  -8  -3    1.20    1.96
   2  -8  -3    6.26    2.61
   2  -8  -3    9.82    3.20
   2  -8  -3   17.66   14.63
  -2   8   3    5.52    2.99
  -2   8   3    3.45    2.55
  -2   8   3    7.68    2.00
  -2   8   3    2.26    2.20
   1  -8  -3  364.58   18.32
   1  -8  -3  405.88   18.37
   1  -8  -3  374.53   13.12
   1  -8  -3  367.72   16.64
   1  -8  -3  405.17   18.02
   1  -8  -3  374.40   13.86
   1  -8  -3  389.22   13.35
  -1   8   3  383.83   17.97
  -1   8   3  374.31   17.34
  -1   8   3  365.33   15.58
  -1   8   3  365.38   17.15
  -1   8   3  390.27   13.89
   0  -8  -3   57.79    6.18
   0  -8  -3   63.46    4.73
   0  -8  -3   59.91    4.37
   0  -8  -3   54.85    6.26
   0  -8  -3   48.41   19.15
   0   8   3   66.78    5.35
   0   8   3   63.13    5.48
   0   8   3   63.39    6.85
  -1  -8  -3  337.57   15.90
  -1  -8  -3  321.74   14.75
  -1  -8  -3  312.57   15.52
  -1  -8  -3  327.22   15.50
  -1  -8  -3  311.17   14.98
  -1  -8  -3  332.41   13.12
   1   8   3  324.59   16.04
   1   8   3  315.01   12.83
   1   8   3  312.10   14.88
  -2  -8  -3    6.28    2.70
  -2  -8  -3    2.80    2.32
  -2  -8  -3    4.08    2.28
  -2  -8  -3    3.80    2.23
  -2  -8  -3    2.94    2.59
  -2  -8  -3    4.74    2.88
  -2  -8  -3    5.77    8.83
   2   8   3    7.94    2.70
   2   8   3    6.35    2.31
  -3  -8  -3    1.29    2.61
  -3  -8  -3    4.40    3.53
  -3  -8  -3    1.05    2.52
  -3  -8  -3    1.52    2.96
  -3  -8  -3    0.79    2.08
  -3  -8  -3    0.81    2.80
  -3  -8  -3    1.85    2.49
  -3  -8  -3   -1.15    2.16
   3   8   3   -0.18    2.35
   4  -9  -3   -1.56   11.95
  -4   9   3    1.64    3.78
  -4   9   3   -0.23    2.72
  -4   9   3   -0.85    3.13
  -4   9   3   -1.26    2.69
   3  -9  -3    1.37    9.66
   3  -9  -3   13.07    3.94
  -3   9   3    4.84    3.03
  -3   9   3    9.22    3.49
  -3   9   3    9.22    4.21
   2  -9  -3  251.04   13.98
   2  -9  -3  171.25   35.56
   2  -9  -3  261.32   13.58
  -2   9   3  223.37   13.85
  -2   9   3  229.73   13.19
  -2   9   3  233.11   14.35
  -2   9   3  235.48   10.77
   1  -9  -3  219.42   12.94
   1  -9  -3  242.50    9.32
   1  -9  -3  177.15   12.35
   1  -9  -3  222.57   13.37
   1  -9  -3  224.53    9.00
   1  -9  -3  227.12    8.75
   1  -9  -3  237.58   12.43
  -1   9   3  225.85   13.11
  -1   9   3  222.55   12.59
  -1   9   3  212.81   12.34
  -1   9   3  219.47   11.10
  -1   9   3  249.64   10.48
   0  -9  -3  109.63    6.52
   0  -9  -3  108.20   10.94
   0  -9  -3  100.43    8.18
   0  -9  -3  119.29    7.04
   0  -9  -3  127.59    8.97
   0  -9  -3  132.96   28.99
   0  -9  -3   98.33    7.78
   0   9   3  107.35    8.33
   0   9   3  113.60    8.60
   0   9   3  114.25    7.65
  -1  -9  -3  183.99   11.10
  -1  -9  -3  150.12   29.90
  -1  -9  -3  156.74   10.74
  -1  -9  -3  188.21    8.65
  -1  -9  -3  184.97   11.45
  -1  -9  -3  175.98   10.35
  -1  -9  -3  179.48   10.26
   1   9   3  169.12   10.31
   1   9   3  162.64   11.13
   1   9   3  180.99    8.76
  -2  -9  -3   53.73    7.29
  -2  -9  -3   47.10    6.64
  -2  -9  -3   45.82    6.76
  -2  -9  -3   45.25    7.09
  -2  -9  -3   39.91   18.65
  -2  -9  -3   52.95    6.31
   2   9   3   49.56    7.05
   2   9   3   51.65    6.14
   2   9   3   54.03    6.00
  -3  -9  -3    0.64    2.06
  -3  -9  -3    0.77    3.03
  -3  -9  -3   -0.66    2.90
  -3  -9  -3    1.64    2.89
  -3  -9  -3    0.01    2.52
  -3  -9  -3   -0.62    2.40
  -3  -9  -3   -1.71    2.67
  -3  -9  -3    0.16    2.85
   3 -10  -3    0.97   10.48
   3 -10  -3   -0.63    2.26
  -3  10   3    0.93    2.89
  -3  10   3    0.45    2.76
  -3  10   3    0.79    2.32
   2 -10  -3  203.85   12.99
   2 -10  -3  234.45   14.05
  -2  10   3  206.27   13.13
  -2  10   3  213.88   10.53
  -2  10   3  238.95   14.57
  -2  10   3  222.18   14.40
   1 -10  -3 1023.23   34.25
   1 -10  -3 1059.88   40.96
   1 -10  -3  943.30   85.05
   1 -10  -3 1051.71   34.11
   1 -10  -3 1028.99   38.86
   1 -10  -3 1104.93   40.57
  -1  10   3 1045.04   37.12
  -1  10   3 1090.89   39.78
  -1  10   3 1040.13   40.41
  -1  10   3 1037.55   39.41
   0 -10  -3  206.90   12.51
   0 -10  -3  218.48   10.88
   0 -10  -3  236.50   16.72
   0 -10  -3  231.31   10.74
   0 -10  -3  225.41   13.38
   0 -10  -3  235.76   13.63
   0 -10  -3  254.38   41.45
   0  10   3  219.56   11.21
   0  10   3  204.20   12.85
   0  10   3  224.39   13.21
   0  10   3  196.40   11.51
  -1 -10  -3  572.38   22.99
  -1 -10  -3  530.47   23.56
  -1 -10  -3  519.18   23.82
  -1 -10  -3  408.34   52.86
  -1 -10  -3  549.15   22.49
  -1 -10  -3  528.70   24.07
  -1 -10  -3  542.66   19.91
   1  10   3  537.34   20.53
   1  10   3  581.42   24.89
   1  10   3  553.35   23.07
  -2 -10  -3  157.66    9.63
  -2 -10  -3   96.10   29.68
  -2 -10  -3  135.64   11.05
  -2 -10  -3  159.50   11.14
  -2 -10  -3  148.63   11.18
  -2 -10  -3  157.48   11.30
  -2 -10  -3  151.02   10.34
   2  10   3  151.83    9.32
   2  10   3  147.90    9.53
   2  10   3  142.04   11.19
  -3 -10  -3    2.17    3.56
  -3 -10  -3    0.54    2.77
  -3 -10  -3    4.34    3.36
  -3 -10  -3    3.93    3.82
  -3 -10  -3    5.07    3.78
  -3 -10  -3    4.57    3.99
  -3 -10  -3    0.64    2.75
   3 -11  -3   -7.06    9.20
   3 -11  -3   -1.04    2.69
  -3  11   3   -0.04    2.75
  -3  11   3    1.40    2.62
  -3  11   3    0.36    2.95
   2 -11  -3   -0.50    2.33
   2 -11  -3    3.46   11.28
   2 -11  -3    0.17    2.41
  -2  11   3   -0.03    2.16
  -2  11   3   -1.49    2.36
  -2  11   3    0.81    2.11
   1 -11  -3  237.81   14.68
   1 -11  -3  259.14   15.80
   1 -11  -3  189.20   39.90
  -1  11   3  243.65   14.97
  -1  11   3  276.08   14.90
  -1  11   3  246.74   14.52
   0 -11  -3  124.06    7.61
   0 -11  -3  125.45    9.95
   0 -11  -3  130.66    9.80
   0 -11  -3  139.99   10.49
   0 -11  -3  127.29    7.89
   0 -11  -3  111.39   11.99
   0  11   3  113.92    9.54
   0  11   3  126.04    9.89
   0  11   3  124.23    8.13
   0  11   3  121.63    8.76
  -1 -11  -3   30.66   19.18
  -1 -11  -3   48.14    7.05
  -1 -11  -3   56.15    6.79
  -1 -11  -3   40.23    6.45
  -1 -11  -3   48.51    7.04
  -1 -11  -3   69.64    7.62
   1  11   3   56.73    8.31
   1  11   3   56.81    7.14
   1  11   3   53.40    5.76
  -2 -11  -3    4.04    3.11
  -2 -11  -3   11.72    4.21
  -2 -11  -3   10.58    3.94
  -2 -11  -3    6.59    4.00
  -2 -11  -3    8.34    3.49
  -2 -11  -3   18.63   16.24
   2  11   3   11.46    3.35
   2  11   3    9.72    4.07
   3 -12  -3    9.50    4.14
   3 -12  -3    0.60   13.54
  -3  12   3    2.95    3.54
  -3  12   3   10.34    4.69
  -3  12   3    6.51    4.43
   2 -12  -3   19.40    5.12
   2 -12  -3    8.56    3.88
   2 -12  -3   12.61   16.49
  -2  12   3    4.29    2.86
  -2  12   3   10.81    4.37
  -2  12   3    7.64    3.85
   1 -12  -3   62.45    8.38
   1 -12  -3   38.80   23.64
   1 -12  -3   49.16    8.40
  -1  12   3   55.16    7.59
  -1  12   3   53.29    7.88
  -1  12   3   48.16    7.22
   0 -12  -3   72.26   29.91
   0 -12  -3   63.32    8.39
   0 -12  -3   58.33    8.03
   0 -12  -3   64.89    5.66
   0 -12  -3   65.96    5.80
   0 -12  -3   63.02   10.72
   0 -12  -3   63.73    8.41
   0  12   3   68.15    8.67
   0  12   3   70.80    6.19
   0  12   3   71.87    8.77
   0  12   3   74.34    8.13
  -1 -12  -3   85.13    8.50
  -1 -12  -3   41.20   24.07
  -1 -12  -3   80.22    9.39
  -1 -12  -3   90.61   10.33
  -1 -12  -3   87.45    7.67
  -1 -12  -3   72.65    8.99
   1  12   3   67.04    8.94
   1  12   3   80.04    8.89
  -2 -12  -3   48.71    7.47
  -2 -12  -3   51.92    8.52
  -2 -12  -3   57.07    8.13
  -2 -12  -3   49.37    7.51
  -2 -12  -3   42.42    7.39
  -2 -12  -3   35.48   22.44
  -2 -12  -3   66.16    9.20
   2  12   3   59.07    8.89
   2 -13  -3   42.90   28.10
   2 -13  -3   62.99    9.02
   2 -13  -3   66.88    9.56
  -2  13   3   56.52    8.30
  -2  13   3   61.32    9.16
  -2  13   3   64.26   10.09
   1 -13  -3    8.31   15.47
   1 -13  -3   24.81    5.77
   1 -13  -3   28.85    6.59
  -1  13   3   32.91    6.58
  -1  13   3   25.62    6.13
  -1  13   3   21.97    5.49
   0 -13  -3    3.33   11.72
   0 -13  -3    7.08    3.57
   0 -13  -3    6.40    4.31
   0 -13  -3    9.31    3.70
   0 -13  -3   10.77    4.22
   0  13   3    8.48    3.74
   0  13   3    6.89    3.82
   0  13   3    5.58    3.11
  -1 -13  -3    7.60    3.91
  -1 -13  -3    5.05    2.93
  -1 -13  -3    0.99   11.68
  -1 -13  -3    7.60    3.91
  -1 -13  -3    7.01    3.23
  -1 -13  -3    4.38    3.46
   1  13   3   12.41    4.23
   1  13   3    8.78    4.11
   1 -14  -3    2.50   12.26
   1 -14  -3    0.11    3.39
   1 -14  -3    1.47    2.93
  -1  14   3    7.30    4.03
  -1  14   3    2.26    3.55
  -1  14   3    3.55    3.39
   0 -14  -3   17.24    5.87
   0 -14  -3   13.90   17.69
   0 -14  -3   16.64    5.36
   0 -14  -3   10.37    4.64
   0 -14  -3   13.32    4.56
   0  14   3   18.23    5.57
   0  14   3   21.23    5.78
   0  14   3   21.23    4.90
  -1 -14  -3    1.41    2.98
  -1 -14  -3    2.08   12.62
  -1 -14  -3    1.14    3.10
  -1 -14  -3    0.01    2.84
   1  14   3    1.66    2.94
   1  14   3    3.65    4.02
   1  15  -4   14.77    4.63
  -1 -15   4   22.14    5.43
  -1 -15   4   22.03   20.25
  -1 -15   4   16.44    5.43
  -1 -15   4   20.55    5.42
  -1 -15   4   14.60    4.75
   0  15  -4    8.97    4.25
   0  15  -4    6.82    3.86
   0  15  -4    2.32    3.29
   0 -15   4    3.81    3.07
   0 -15   4    9.23   16.30
   0 -15   4   10.10    4.38
   0 -15   4    7.21    3.90
  -1  15  -4   17.89    5.32
  -1  15  -4   24.40    6.44
  -1  15  -4   16.54    5.07
   1 -15   4   22.27    5.63
   1 -15   4   10.19   15.16
   1 -15   4   19.70    5.73
  -2 -14   4    3.03   13.08
   1  14  -4   -0.59    2.41
   1  14  -4    4.86    3.03
  -1 -14   4    2.74    2.96
  -1 -14   4    6.24   13.95
  -1 -14   4   -0.67    2.42
  -1 -14   4   -1.30    2.41
  -1 -14   4    2.03    2.79
   0  14  -4    7.52    3.67
   0  14  -4    6.05    3.64
   0  14  -4    4.81    3.04
   0 -14   4    3.51    2.78
   0 -14   4   -0.05    2.18
   0 -14   4   -0.14    2.37
   0 -14   4    3.07    3.02
   0 -14   4   -0.01   10.61
  -1  14  -4   55.30    8.39
  -1  14  -4   55.17    8.65
  -1  14  -4   43.49    7.33
   1 -14   4   52.07    6.45
   1 -14   4   61.06    8.04
   1 -14   4   22.72   18.61
   1 -14   4   47.57    7.82
  -2  14  -4    3.28    3.40
  -2  14  -4    2.23    3.47
  -2  14  -4    3.26    3.83
   2 -14   4    2.27   12.48
   2 -14   4    0.19    3.32
   2  13  -4   29.67    5.85
  -2 -13   4   24.05    5.40
  -2 -13   4   23.74    5.52
  -2 -13   4   25.91    5.73
  -2 -13   4   25.18    5.25
  -2 -13   4   20.70    5.33
  -2 -13   4   15.63   16.65
   1  13  -4   23.53    5.13
   1  13  -4   41.00    6.18
   1  13  -4   36.57    5.40
  -1 -13   4   29.69    5.38
  -1 -13   4   29.87    4.91
  -1 -13   4   26.62    5.57
  -1 -13   4   34.67    6.49
  -1 -13   4   34.09    6.20
  -1 -13   4    6.59   12.48
   0  13  -4    2.41    2.78
   0  13  -4    2.42    2.49
   0  13  -4    0.19    2.51
   0 -13   4    5.31    2.94
   0 -13   4    0.19    2.52
   0 -13   4    2.87   11.94
   0 -13   4    2.27    2.52
   0 -13   4    1.71    2.54
  -1  13  -4   74.25    8.91
  -1  13  -4   75.28    9.71
  -1  13  -4   82.74    9.60
   1 -13   4   44.37   23.49
   1 -13   4   74.79    9.71
   1 -13   4   83.30    6.87
   1 -13   4   74.68    8.52
  -2  13  -4    2.34    3.18
  -2  13  -4    2.26    2.85
  -2  13  -4    1.38    2.98
   2 -13   4    0.14    2.89
   2 -13   4    0.72   10.85
  -3 -12   4   -3.36    8.86
   2  12  -4   18.25    4.56
  -2 -12   4   14.62    4.75
  -2 -12   4   15.96    4.15
  -2 -12   4    9.86    4.13
  -2 -12   4   13.57    4.00
  -2 -12   4   17.13   16.84
  -2 -12   4   14.09    4.22
   1  12  -4   -0.01    1.88
   1  12  -4    0.67    1.75
   1  12  -4   -1.10    1.81
  -1 -12   4    1.98    2.53
  -1 -12   4    2.68   10.77
  -1 -12   4   -0.22    1.88
  -1 -12   4   -0.32    2.33
  -1 -12   4   -0.98    1.54
  -1 -12   4    1.88    2.17
   0  12  -4   92.34    8.05
   0  12  -4   99.27    8.47
   0  12  -4   94.62    8.36
   0 -12   4  104.06    8.69
   0 -12   4  106.59    7.93
   0 -12   4  103.60    8.76
   0 -12   4  100.27   32.15
   0 -12   4   90.70    9.84
   0 -12   4  104.36    6.08
  -1  12  -4  179.57   12.40
  -1  12  -4  172.87   12.08
  -1  12  -4  187.44   12.06
   1 -12   4  180.14   12.63
   1 -12   4  174.08   10.09
   1 -12   4  170.37   10.89
   1 -12   4  105.49   33.36
  -2  12  -4   13.87    4.38
  -2  12  -4   24.43    6.19
  -2  12  -4   14.64    3.95
   2 -12   4   13.13   14.89
   2 -12   4   17.27    4.84
   2 -12   4   11.71    4.12
  -3  12  -4    1.07    2.74
  -3  12  -4   -0.14    3.51
  -3  12  -4    0.55    3.31
   3 -12   4    2.78    3.49
   3 -12   4   -2.58   10.63
   3 -12   4    0.40    2.65
  -3 -11   4   48.93   24.53
  -3 -11   4   63.32    8.60
  -3 -11   4   67.99    9.30
  -3 -11   4   64.82    9.04
  -3 -11   4   62.64    8.77
   2  11  -4    2.15    2.41
  -2 -11   4    0.55    2.19
  -2 -11   4   -1.19    7.29
  -2 -11   4   -1.92    2.27
  -2 -11   4    0.70    1.95
  -2 -11   4    0.16    1.94
  -2 -11   4   -1.34    2.03
   1  11  -4  129.94    8.08
   1  11  -4  123.12    8.61
   1  11  -4  132.40    9.17
  -1 -11   4   99.39   32.41
  -1 -11   4  129.52    8.48
  -1 -11   4  116.26    9.47
  -1 -11   4  125.29    9.14
  -1 -11   4  136.43    9.40
  -1 -11   4  127.44    9.46
   0  11  -4   -0.59    1.62
   0  11  -4   -0.21    1.84
   0  11  -4    1.24    2.01
   0 -11   4   -0.50    8.10
   0 -11   4   -1.86    1.57
   0 -11   4    1.07    1.29
   0 -11   4    0.78    1.75
   0 -11   4   -2.79    1.50
   0 -11   4   -0.10    2.01
  -1  11  -4   -1.71    2.00
  -1  11  -4    3.92    2.66
   1 -11   4    1.30    2.44
   1 -11   4    0.30    1.52
   1 -11   4    0.02    8.82
   1 -11   4   -1.41    1.67
   1 -11   4   -0.53    2.05
  -2  11  -4  172.93   11.95
  -2  11  -4  178.42   12.60
  -2  11  -4  155.82   10.50
   2 -11   4  170.90   12.26
   2 -11   4  173.98   11.97
   2 -11   4  126.37   35.73
  -3  11  -4    9.42    4.06
  -3  11  -4    6.95    3.57
  -3  11  -4    8.96    4.36
   3 -11   4    5.15    3.49
   3 -11   4    4.48    3.74
   3 -11   4    4.38   10.64
  -3 -10   4   98.69   10.29
  -3 -10   4   98.17   10.85
  -3 -10   4  107.83   11.13
  -3 -10   4  121.46   10.48
   2  10  -4  212.10   12.35
   2  10  -4  235.14   11.26
  -2 -10   4  230.24   12.57
  -2 -10   4  234.44   14.20
  -2 -10   4  270.59   14.48
  -2 -10   4  247.16   13.68
  -2 -10   4  249.19   13.87
  -2 -10   4  215.24   38.76
   1  10  -4   23.48    3.68
   1  10  -4   20.16    3.86
   1  10  -4   16.51    3.66
  -1 -10   4   17.49    3.95
  -1 -10   4   20.07    3.83
  -1 -10   4   10.41    3.26
  -1 -10   4   24.72   16.57
  -1 -10   4   10.07    3.57
  -1 -10   4   17.86    3.97
   0  10  -4  152.66    9.42
   0  10  -4  142.66    9.26
   0  10  -4  124.82    8.96
   0 -10   4  154.05    9.57
   0 -10   4  136.70    7.16
   0 -10   4  137.38   29.37
   0 -10   4  149.76   10.33
   0 -10   4  143.27    8.79
   0 -10   4  144.71   10.82
   0 -10   4  145.56    9.45
  -1  10  -4    2.43    2.20
  -1  10  -4    2.89    2.37
  -1  10  -4    2.57    2.00
   1 -10   4    2.72    2.40
   1 -10   4    5.45    2.98
   1 -10   4   -0.59    7.46
   1 -10   4    5.68    2.04
   1 -10   4    4.72    1.52
   1 -10   4    4.64    2.38
  -2  10  -4   12.29    4.17
  -2  10  -4    6.87    2.85
  -2  10  -4    8.32    3.46
   2 -10   4    4.20    9.08
   2 -10   4   10.87    3.82
   2 -10   4    7.17    3.14
  -3  10  -4    6.66    3.06
  -3  10  -4    5.63    3.32
  -3  10  -4    2.74    3.11
  -3  10  -4    3.29    2.79
   3 -10   4    8.47   11.84
   3 -10   4    5.62    3.10
   3 -10   4    3.36    3.14
  -3  -9   4  423.87   21.09
  -3  -9   4  422.50   21.22
  -3  -9   4  427.05   20.38
  -3  -9   4  442.57   21.42
  -3  -9   4  331.73   49.64
   2   9  -4    3.40    1.83
   2   9  -4    2.76    2.03
  -2  -9   4    6.03   10.83
  -2  -9   4    2.18    2.77
  -2  -9   4    4.52    2.88
  -2  -9   4    0.38    2.10
  -2  -9   4    0.52    1.79
  -2  -9   4    3.26    2.33
   1   9  -4  108.23    6.45
   1   9  -4  107.79    7.28
   1   9  -4   95.70    5.58
   1   9  -4  108.83    7.35
  -1  -9   4  107.33    7.74
  -1  -9   4   94.66    7.40
  -1  -9   4  127.21    7.78
  -1  -9   4  109.84    7.69
  -1  -9   4  100.58    7.91
  -1  -9   4  102.68   25.51
   0   9  -4    9.85    2.89
   0   9  -4   15.11    3.46
   0  -9   4    6.47    2.58
   0  -9   4   12.75    2.74
   0  -9   4    6.76    2.84
   0  -9   4   12.26    2.90
   0  -9   4   11.52    3.74
  -1   9  -4    2.91    1.98
  -1   9  -4    5.70    2.54
  -1   9  -4    4.83    2.45
   1  -9   4    3.81    2.20
   1  -9   4    3.00    1.10
   1  -9   4    2.12    1.80
   1  -9   4   -1.31    5.83
   1  -9   4    1.64    1.42
   1  -9   4    1.09    2.13
   1  -9   4    3.24    1.03
  -2   9  -4    1.67    2.11
  -2   9  -4    0.48    1.77
  -2   9  -4   -2.63    1.50
   2  -9   4   -1.79    5.86
   2  -9   4   -0.87    2.14
   2  -9   4    1.41    1.81
  -3   9  -4  811.33   33.59
  -3   9  -4  820.20   31.79
  -3   9  -4  740.12   32.57
  -3   9  -4  799.03   33.70
   3  -9   4  808.55   33.68
   3  -9   4  795.17   32.49
  -4   9  -4  169.06   13.87
  -4   9  -4  180.05   13.28
   4  -9   4  171.44   13.73
  -4  -8   4  124.25   10.61
  -4  -8   4  113.23   12.16
  -4  -8   4  124.67   13.23
  -4  -8   4  137.96   11.46
  -3  -8   4  149.87   10.29
  -3  -8   4  129.38   10.43
  -3  -8   4  127.44   10.39
  -3  -8   4  131.74   10.18
   2   8  -4   82.95    6.16
   2   8  -4   85.03    5.57
  -2  -8   4   77.30    8.41
  -2  -8   4   88.64    6.29
  -2  -8   4   84.88    8.56
  -2  -8   4   85.80    6.96
   1   8  -4  132.45    7.80
   1   8  -4  130.91    7.70
   1   8  -4  127.31    6.13
  -1  -8   4  136.74    8.46
  -1  -8   4  128.32    7.89
  -1  -8   4  141.39    8.22
  -1  -8   4  124.83    8.21
   0   8  -4  391.40   16.22
   0   8  -4  379.92   16.44
   0   8  -4  352.55   18.73
   0  -8   4  384.73   15.87
   0  -8   4  364.31   15.02
   0  -8   4  349.52   40.05
   0  -8   4  381.79   16.13
   0  -8   4  393.78   16.31
   0  -8   4  373.99   18.41
   0  -8   4  386.19   17.19
  -1   8  -4  122.68    8.42
  -1   8  -4  130.99    8.34
  -1   8  -4  109.13    7.59
   1  -8   4  128.15   24.77
   1  -8   4  127.14    7.40
   1  -8   4  116.39    5.07
   1  -8   4  124.52    7.96
   1  -8   4  123.71    5.06
   1  -8   4  124.06    7.31
   1  -8   4  113.97    8.47
  -2   8  -4   83.89    7.16
  -2   8  -4   89.65    7.49
  -2   8  -4   71.46    7.87
  -2   8  -4   74.30    6.45
   2  -8   4   82.67    5.80
   2  -8   4   70.75    7.76
   2  -8   4   87.11    8.64
   2  -8   4   83.19   20.21
  -3   8  -4   96.42    9.73
  -3   8  -4   79.12    9.17
  -3   8  -4   78.71    9.06
  -3   8  -4   81.54    7.49
   3  -8   4   97.14    8.28
   3  -8   4   74.82    9.19
  -4   8  -4   15.37    4.95
  -4   8  -4   10.28    4.26
  -4   8  -4    8.43    4.24
  -4   8  -4    8.18    4.18
   4  -8   4    7.96    4.50
  -4  -7   4   33.38    6.29
  -4  -7   4   33.86    6.69
  -4  -7   4   44.20    7.61
  -4  -7   4   40.33    7.02
  -3  -7   4   46.54    6.80
  -3  -7   4   53.33    6.90
  -3  -7   4   44.01    6.52
  -3  -7   4   51.68    7.49
   2   7  -4    5.46    1.76
   2   7  -4    3.21    1.23
   2   7  -4    2.27    1.60
   2   7  -4    2.12    1.70
  -2  -7   4    2.48    1.93
  -2  -7   4    1.63    1.92
  -2  -7   4    4.28    2.32
  -2  -7   4    4.34    1.78
  -2  -7   4    2.73    1.94
   1   7  -4   55.04    3.76
   1   7  -4   58.24    3.33
   1   7  -4   54.42    4.57
   1   7  -4   49.60    9.30
   1   7  -4   50.16    4.27
  -1  -7   4   68.87    6.68
  -1  -7   4   56.01    5.63
  -1  -7   4   60.20    4.96
  -1  -7   4   58.30    4.72
  -1  -7   4   60.48    5.04
   0   7  -4  129.14    9.62
   0   7  -4  119.50    6.51
   0   7  -4  110.01    7.27
   0   7  -4  120.25    7.15
   0  -7   4  118.03    6.51
   0  -7   4  123.01    7.92
   0  -7   4  142.12    7.57
   0  -7   4  119.10    7.04
   0  -7   4  134.94    7.49
   0  -7   4  120.61    8.92
   0  -7   4  115.62   22.54
  -1   7  -4   14.51    2.54
  -1   7  -4    9.55    2.69
  -1   7  -4   12.03    2.98
  -1   7  -4   18.53    3.43
   1  -7   4    8.86    2.15
   1  -7   4   13.14    2.44
   1  -7   4    6.71    8.07
   1  -7   4   11.63    1.30
   1  -7   4   12.67    3.08
   1  -7   4   13.50    1.34
   1  -7   4    8.62    2.35
   1  -7   4   11.69    1.21
  -2   7  -4   35.38    4.11
  -2   7  -4   39.80    5.29
  -2   7  -4   38.87    2.57
  -2   7  -4   42.82    4.27
  -2   7  -4   41.93    3.48
  -2   7  -4   44.13    5.83
  -2   7  -4   42.55    5.78
  -2   7  -4   38.46    5.16
   2  -7   4   46.17    5.86
   2  -7   4   38.24    4.14
   2  -7   4   40.75   15.56
   2  -7   4   35.51    5.32
  -3   7  -4  372.19   17.70
  -3   7  -4  364.58   17.94
  -3   7  -4  329.91   16.67
  -3   7  -4  344.12   17.60
   3  -7   4  347.71   17.84
   3  -7   4  288.07   35.82
   3  -7   4  353.69   17.02
  -4   7  -4   71.03    9.19
  -4   7  -4   77.25    9.28
  -4   7  -4   84.61    9.64
  -4   7  -4   79.38    9.77
   4  -7   4   65.99    9.29
  -4  -6   4  148.42   11.22
  -4  -6   4  139.07   10.82
  -4  -6   4  154.33   12.22
  -4  -6   4  127.48   10.96
  -3  -6   4  245.03   14.06
  -3  -6   4  210.50   12.19
  -3  -6   4  209.67   12.94
  -3  -6   4  213.68   12.70
   2   6  -4  163.45    8.16
   2   6  -4  173.62    7.02
   2   6  -4  166.48   16.77
   2   6  -4  167.85    8.21
  -2  -6   4  166.68    7.95
  -2  -6   4  173.35    9.34
  -2  -6   4  146.14    9.48
  -2  -6   4  168.40    8.01
  -2  -6   4  155.44    9.70
   1   6  -4 1151.05   36.99
   1   6  -4 1173.84   39.49
   1   6  -4 1243.69   49.75
   1   6  -4 1168.48   40.02
  -1  -6   4 1178.33   38.77
  -1  -6   4 1150.19   40.28
  -1  -6   4 1168.71   39.86
  -1  -6   4 1172.68   39.60
  -1  -6   4 1157.41   40.49
   0   6  -4  361.37   14.58
   0   6  -4  353.62   15.29
   0   6  -4  364.12   14.58
   0   6  -4  370.79   13.99
   0   6  -4  410.20   18.22
   0   6  -4  392.63   15.40
   0  -6   4  381.88   17.44
   0  -6   4  364.26   14.69
   0  -6   4  360.00   13.99
   0  -6   4  360.94   15.55
   0  -6   4  340.68   14.27
   0  -6   4  342.53   14.46
   0  -6   4  360.35   14.60
  -1   6  -4   85.69    6.44
  -1   6  -4   96.86    6.39
  -1   6  -4   99.08    6.51
  -1   6  -4   93.61    5.83
  -1   6  -4  104.56    5.45
   1  -6   4  103.55    6.05
   1  -6   4   93.55    6.32
   1  -6   4   97.76    6.07
   1  -6   4   96.35    4.22
   1  -6   4   94.41    6.81
   1  -6   4   75.87   16.81
  -2   6  -4   32.32    2.82
  -2   6  -4   31.75    4.61
  -2   6  -4   30.63    2.62
  -2   6  -4   36.72    4.92
  -2   6  -4   24.84    3.98
  -2   6  -4   34.32    4.55
  -2   6  -4   26.76    4.54
   2  -6   4   32.92    3.08
   2  -6   4   32.85    3.01
   2  -6   4   37.30    5.08
   2  -6   4   38.16   13.74
  -3   6  -4   63.14    7.43
  -3   6  -4   62.38    7.36
  -3   6  -4   89.46    9.03
  -3   6  -4   57.27    4.72
  -3   6  -4   50.82    7.04
   3  -6   4   65.85   18.51
   3  -6   4   59.96    7.29
   3  -6   4   64.40    6.90
  -4   6  -4   25.13    5.30
  -4   6  -4   27.48    5.76
  -4   6  -4   27.59    5.72
  -4   6  -4   23.45    5.35
  -4   6  -4   19.02    5.50
   4  -6   4   22.45    5.47
  -4  -5   4   -2.53    2.25
  -4  -5   4    1.30    2.30
  -4  -5   4   -0.48    2.35
  -4  -5   4    0.68    2.56
  -3  -5   4    9.46    3.24
  -3  -5   4    9.14    3.30
  -3  -5   4    5.29    2.63
  -3  -5   4    6.32    2.84
  -3  -5   4    3.70    2.02
   2   5  -4   15.28    1.63
   2   5  -4   17.99    6.37
   2   5  -4   14.28    2.61
  -2  -5   4   14.55    2.20
  -2  -5   4   12.64    3.01
  -2  -5   4   11.86    2.07
  -2  -5   4   11.33    2.68
  -2  -5   4   11.91    2.70
   1   5  -4    3.20    1.17
   1   5  -4    4.77    1.65
   1   5  -4    4.07    0.71
   1   5  -4    2.67    1.44
   1   5  -4    0.38    2.27
   1   5  -4    3.99    1.51
  -1  -5   4    2.27    2.71
  -1  -5   4    3.41    1.56
  -1  -5   4    4.79    1.61
  -1  -5   4    2.68    1.33
  -1  -5   4    4.27    1.18
  -1  -5   4    3.75    1.51
   0   5  -4  448.83   16.21
   0   5  -4  440.19   19.61
   0   5  -4  455.62   17.39
   0   5  -4  439.75   16.94
   0   5  -4  441.04   15.70
   0   5  -4  439.57   17.13
   0  -5   4  411.40   17.01
   0  -5   4  423.41   16.77
   0  -5   4  414.78   15.98
   0  -5   4  418.44   15.94
   0  -5   4  455.85   16.54
   0  -5   4  430.01   17.28
   0  -5   4  450.99   15.84
   0  -5   4  423.02   19.08
  -1   5  -4   13.21    1.86
  -1   5  -4   13.98    2.85
  -1   5  -4   13.45    2.72
  -1   5  -4   12.18    2.50
  -1   5  -4   13.87    1.71
  -1   5  -4   10.77    2.37
  -1   5  -4    9.48    2.27
   1  -5   4   14.36    2.68
   1  -5   4   14.28    2.02
   1  -5   4   14.78    2.49
   1  -5   4   14.47    1.02
   1  -5   4   17.09    2.84
   1  -5   4   10.93    2.38
   1  -5   4   17.99    9.10
   1  -5   4   14.19    1.68
   1  -5   4   12.58    2.79
  -2   5  -4   29.77    4.52
  -2   5  -4   29.76    2.34
  -2   5  -4   32.58    4.57
  -2   5  -4   30.63    3.22
  -2   5  -4   32.18    4.48
  -2   5  -4   39.57    5.04
   2  -5   4   34.02    2.74
   2  -5   4   16.47    8.39
   2  -5   4   34.17    3.00
   2  -5   4   33.74    4.53
  -3   5  -4    7.41    3.00
  -3   5  -4    6.09    2.94
  -3   5  -4   -1.31    1.76
  -3   5  -4    3.22    1.91
  -3   5  -4    1.85    1.99
   3  -5   4    7.02    2.94
   3  -5   4    3.23    2.02
   3  -5   4   -0.74    3.33
  -4   5  -4    4.84    3.07
  -4   5  -4    5.15    3.71
  -4   5  -4    8.29    3.68
  -4   5  -4    6.54    3.59
  -4   5  -4    1.55    2.60
   4  -5   4    6.85    3.67
  -4  -4   4    3.50    2.54
  -4  -4   4    7.00    2.93
  -4  -4   4    1.81    2.90
  -4  -4   4    4.07    3.00
  -3  -4   4  432.82   18.67
  -3  -4   4  423.36   19.44
  -3  -4   4  459.58   18.47
  -3  -4   4  404.39   19.74
  -3  -4   4  445.67   19.47
   2   4  -4  820.24   25.50
   2   4  -4  838.35   28.77
   2   4  -4  842.86   41.65
  -2  -4   4  809.69   29.85
  -2  -4   4  794.99   29.69
  -2  -4   4  822.26   28.82
  -2  -4   4  836.48   28.88
  -2  -4   4  778.91   26.83
  -2  -4   4  786.97   26.90
   1   4  -4    9.15    1.93
   1   4  -4    8.19    3.47
   1   4  -4   14.78    1.82
   1   4  -4   15.11    2.34
   1   4  -4   14.24    2.50
   1   4  -4   12.06    1.95
   1   4  -4   11.31    1.36
  -1  -4   4   10.73    2.04
  -1  -4   4   11.30    1.84
  -1  -4   4    6.28    3.33
  -1  -4   4   13.12    1.64
  -1  -4   4   14.38    2.76
  -1  -4   4    6.96    1.79
  -1  -4   4   12.09    2.16
  -1  -4   4   23.18    3.48
   0   4  -4   16.64    2.70
   0   4  -4   19.82    2.34
   0   4  -4   18.04    2.74
   0   4  -4   17.07    3.62
   0   4  -4   16.15    2.65
   0   4  -4   15.56    2.20
   0   4  -4   23.03    2.45
   0   4  -4   19.85    2.44
   0  -4   4   13.19    2.11
   0  -4   4   19.08    2.30
   0  -4   4   19.05    2.91
   0  -4   4   19.83    3.05
   0  -4   4   18.41    2.28
   0  -4   4   13.74    2.04
   0  -4   4   20.07    2.36
   0  -4   4   17.17    2.72
   0  -4   4   22.81    4.21
  -1   4  -4   11.15    1.69
  -1   4  -4    9.79    2.11
  -1   4  -4    6.87    1.83
  -1   4  -4    9.19    1.10
  -1   4  -4    7.47    1.88
  -1   4  -4   12.63    2.59
  -1   4  -4    9.23    2.29
  -1   4  -4   11.35    2.44
  -1   4  -4    6.90    1.21
  -1   4  -4   10.54    2.76
   1  -4   4    8.86    1.35
   1  -4   4    8.82    2.18
   1  -4   4    9.01    1.05
   1  -4   4   10.58    2.12
   1  -4   4   10.75    2.52
   1  -4   4   12.12    6.70
   1  -4   4   10.67    1.93
   1  -4   4   10.42    1.61
   1  -4   4   10.66    2.25
  -2   4  -4   12.44    1.57
  -2   4  -4   13.53    1.42
  -2   4  -4   12.59    2.23
  -2   4  -4   16.75    3.36
  -2   4  -4   14.22    3.13
  -2   4  -4   11.88    2.69
   2  -4   4   11.09    2.75
   2  -4   4   16.61    2.48
   2  -4   4   21.50    8.39
   2  -4   4   10.90    1.69
   2  -4   4   12.38    2.73
  -3   4  -4  109.91    7.83
  -3   4  -4  101.56    6.94
  -3   4  -4  101.36    8.17
  -3   4  -4  108.04    7.99
   3  -4   4   74.48   12.90
   3  -4   4  112.31    7.13
   3  -4   4  109.55    8.42
  -4   4  -4   90.03   10.20
  -4   4  -4   91.17    9.51
  -4   4  -4  111.75    9.76
  -4   4  -4  130.10   11.15
  -4   4  -4  118.90    8.91
  -4   4  -4  105.36    8.61
   4  -4   4  127.83   10.24
  -4  -3   4   24.53    5.02
  -4  -3   4   28.32    5.24
  -4  -3   4   30.70    5.31
  -4  -3   4   28.19    5.50
  -4  -3   4   27.08    5.50
   3   3  -4  349.36   27.89
  -3  -3   4  357.35   16.45
  -3  -3   4  391.30   16.88
  -3  -3   4  381.34   18.05
  -3  -3   4  393.22   15.91
  -3  -3   4  379.36   17.18
  -3  -3   4  372.26   17.34
  -3  -3   4  375.88   12.82
  -2  -3   4   75.16    5.41
  -2  -3   4   72.88    5.01
  -2  -3   4   75.85    5.46
  -2  -3   4   83.64    5.86
  -2  -3   4   80.62    5.76
  -2  -3   4   82.84    4.04
  -2  -3   4   71.05    3.76
   1   3  -4    0.84    0.97
   1   3  -4   -0.25    0.69
   1   3  -4   -0.11    0.80
   1   3  -4    0.63    0.95
   1   3  -4    0.71    0.51
   1   3  -4    0.91    0.60
   1   3  -4    1.01    1.89
   1   3  -4   -0.23    0.35
  -1  -3   4    2.45    2.24
  -1  -3   4    1.43    1.20
  -1  -3   4    0.48    0.77
  -1  -3   4    1.08    1.07
  -1  -3   4   -0.12    0.75
  -1  -3   4    0.07    0.47
  -1  -3   4    0.44    0.45
  -1  -3   4    0.23    0.95
  -1  -3   4    1.10    0.95
   0   3  -4  313.14   12.85
   0   3  -4  345.38   12.13
   0   3  -4  340.14   12.17
   0   3  -4  349.05   12.23
   0   3  -4  292.81   12.84
   0   3  -4  328.28   11.87
   0   3  -4  354.77   15.92
   0   3  -4  342.66   13.36
   0   3  -4  350.64   12.32
   0  -3   4  347.19   15.68
   0  -3   4  339.99   12.30
   0  -3   4  337.35   12.85
   0  -3   4  338.46   12.17
   0  -3   4  329.13   12.62
   0  -3   4  328.81   13.11
   0  -3   4  325.45   12.85
   0  -3   4  333.60   12.10
   0  -3   4  339.27   12.30
  -1   3  -4   27.49    3.31
  -1   3  -4   25.89    1.87
  -1   3  -4   21.59    3.07
  -1   3  -4   19.51    2.34
  -1   3  -4   18.28    2.44
  -1   3  -4   23.57    3.13
  -1   3  -4   22.07    1.41
  -1   3  -4   23.58    4.15
  -1   3  -4   24.32    3.24
   1  -3   4   22.88    1.80
   1  -3   4   21.05    1.47
   1  -3   4   16.65    2.69
   1  -3   4   19.46    2.30
   1  -3   4   20.01    2.47
   1  -3   4   31.31    9.09
   1  -3   4   20.72    2.96
  -2   3  -4   64.68    5.56
  -2   3  -4   74.49    5.58
  -2   3  -4   65.57    4.71
  -2   3  -4   65.13    5.18
  -2   3  -4   71.48    4.06
  -2   3  -4   60.71    3.52
   2  -3   4   65.79    3.70
   2  -3   4   73.19    4.87
   2  -3   4   76.40    5.87
   2  -3   4   73.18    5.24
  -3   3  -4   78.58    8.41
  -3   3  -4   61.91    6.89
  -3   3  -4   67.72    5.95
  -3   3  -4   61.67    7.36
  -3   3  -4   66.07    5.83
   3  -3   4   72.15    5.40
   3  -3   4   58.52    6.90
  -4   3  -4   82.37    7.25
  -4   3  -4   69.95    8.15
  -4   3  -4   78.45    8.58
  -4   3  -4  112.98   11.71
  -4   3  -4   61.71    8.94
   4  -3   4   79.75    9.07
  -4  -2   4  389.82   18.77
  -4  -2   4  404.10   19.27
  -4  -2   4  406.51   20.53
  -4  -2   4  413.32   20.90
  -4  -2   4  394.93   19.35
  -4  -2   4  382.63   19.01
   3   2  -4  103.56   14.53
  -3  -2   4  137.60    8.70
  -3  -2   4  121.63    8.08
  -3  -2   4  132.32    8.59
  -3  -2   4  141.52   10.06
  -3  -2   4  137.85    6.93
  -3  -2   4  139.41    8.73
  -3  -2   4  125.29    5.92
  -3  -2   4  127.75    6.37
  -3  -2   4  131.85    5.60
   2   2  -4 1282.06   54.18
  -2  -2   4 1256.50   42.65
  -2  -2   4 1221.92   42.09
  -2  -2   4 1263.04   42.39
  -2  -2   4 1240.51   39.63
  -2  -2   4 1252.80   39.61
  -2  -2   4 1293.48   42.78
  -2  -2   4 1232.25   39.56
  -2  -2   4 1222.02   39.76
  -2  -2   4 1313.54   75.63
  -2  -2   4 1256.04   41.55
   1   2  -4  231.82   10.44
   1   2  -4  236.84   10.05
   1   2  -4  237.24    8.71
   1   2  -4  241.49   15.01
   1   2  -4  244.37    8.87
   1   2  -4  251.51   10.31
   1   2  -4  242.19    9.93
  -1  -2   4  239.17   10.34
  -1  -2   4  242.25    8.77
  -1  -2   4  242.63   10.23
  -1  -2   4  234.29    9.80
  -1  -2   4  240.77   14.62
  -1  -2   4  261.27   10.54
  -1  -2   4  247.37    8.87
   0   2  -4   10.93    2.92
   0   2  -4   13.20    1.80
   0   2  -4   12.86    2.00
   0   2  -4   12.25    1.56
   0   2  -4   11.11    1.50
   0   2  -4   11.53    1.79
   0   2  -4    5.71    1.37
   0   2  -4   15.55    2.31
   0   2  -4   10.84    1.60
   0  -2   4   11.09    1.92
   0  -2   4   10.86    2.80
   0  -2   4   13.05    1.82
   0  -2   4   13.19    1.69
   0  -2   4   13.17    1.92
   0  -2   4    8.39    1.57
   0  -2   4   12.58    1.62
   0  -2   4   11.01    1.52
   0  -2   4   11.16    1.68
  -1   2  -4   30.02    3.29
  -1   2  -4   30.13    3.71
  -1   2  -4   32.48    2.79
  -1   2  -4   26.74    3.56
  -1   2  -4   29.30    2.29
  -1   2  -4   26.65    2.49
  -1   2  -4   29.84    3.26
  -1   2  -4   25.02    2.97
   1  -2   4   27.39    2.89
   1  -2   4   30.48    3.28
   1  -2   4   26.21    2.83
   1  -2   4   25.13    3.33
   1  -2   4   28.76    3.32
   1  -2   4   25.54    2.18
  -2   2  -4    3.15    1.74
  -2   2  -4    2.12    1.95
  -2   2  -4    3.01    1.45
  -2   2  -4    4.82    2.03
  -2   2  -4    3.78    1.96
  -2   2  -4    5.72    1.60
  -2   2  -4    3.14    1.01
   2  -2   4    0.47    0.92
   2  -2   4    2.48    1.00
   2  -2   4    3.43    1.78
  -3   2  -4   15.29    1.66
  -3   2  -4   13.46    3.16
  -3   2  -4   12.38    3.65
  -3   2  -4    8.63    3.09
  -3   2  -4   14.39    3.41
  -3   2  -4   16.92    3.32
   3  -2   4   11.33    3.22
   3  -2   4   11.29    2.43
  -4   2  -4    7.19    3.95
  -4   2  -4    3.65    3.45
  -4   2  -4   10.80    3.87
  -4   2  -4    6.95    3.23
   4  -2   4    5.58    2.99
  -4  -1   4   24.50    5.59
  -4  -1   4   34.84    5.81
  -4  -1   4   26.27    5.34
  -4  -1   4   25.05    5.34
  -4  -1   4   31.01    5.87
  -4  -1   4   31.33    5.63
  -4  -1   4   32.52    5.62
  -4  -1   4   28.55    4.72
  -4  -1   4   34.27    5.51
   3   1  -4   19.68    7.32
  -3  -1   4   19.67    3.57
  -3  -1   4   22.49    2.46
  -3  -1   4   17.36    2.99
  -3  -1   4   23.78    3.07
  -3  -1   4   26.24    4.18
  -3  -1   4   21.64    3.91
  -3  -1   4   21.17    2.84
  -3  -1   4   20.57    4.07
   2   1  -4  496.71   27.31
  -2  -1   4  482.49   15.98
  -2  -1   4  463.04   17.76
  -2  -1   4  495.42   15.60
  -2  -1   4  421.55   39.62
  -2  -1   4  474.00   17.68
  -2  -1   4  469.78   16.05
  -2  -1   4  478.44   18.11
  -2  -1   4  500.65   19.09
  -2  -1   4  476.87   16.74
  -2  -1   4  463.79   18.57
  -2  -1   4  486.29   16.57
   1   1  -4  953.87   31.68
   1   1  -4  907.24   31.64
   1   1  -4  934.16   30.34
   1   1  -4  980.63   30.93
  -1  -1   4  927.53   30.35
  -1  -1   4  881.00   31.55
  -1  -1   4  943.44   30.80
  -1  -1   4  945.41   29.64
  -1  -1   4  935.04   29.07
  -1  -1   4 1025.84   37.72
  -1  -1   4  922.09   31.08
  -1  -1   4  945.74   31.82
  -1  -1   4  912.44   31.47
   0   1  -4  941.27   34.12
   0   1  -4  898.10   29.98
   0   1  -4  925.78   29.28
   0   1  -4  917.87   29.77
   0   1  -4  870.34   29.71
   0   1  -4  897.43   29.44
   0   1  -4  884.45   30.16
   0   1  -4  920.23   29.70
   0   1  -4  866.70   29.30
   0   1  -4  901.00   29.80
   0  -1   4  927.13   29.50
   0  -1   4  890.39   29.31
   0  -1   4  911.71   29.60
   0  -1   4  902.05   29.71
   0  -1   4  911.01   30.32
   0  -1   4  923.12   30.08
   0  -1   4  928.65   29.74
   0  -1   4  923.48   33.69
   0  -1   4  858.81   29.08
  -1   1  -4  522.58   18.91
  -1   1  -4  522.34   19.43
  -1   1  -4  541.06   19.41
  -1   1  -4  519.04   18.62
  -1   1  -4  516.93   19.25
  -1   1  -4  559.02   20.15
  -1   1  -4  535.18   19.02
  -1   1  -4  539.13   19.19
   1  -1   4  545.07   18.86
   1  -1   4  527.24   19.84
   1  -1   4  613.98   27.67
   1  -1   4  528.02   19.40
   1  -1   4  542.75   18.79
   1  -1   4  536.95   19.01
   1  -1   4  534.90   19.12
  -2   1  -4 3737.09  116.32
  -2   1  -4 3913.48  118.56
  -2   1  -4 3811.81  118.38
  -2   1  -4 3699.83  119.48
  -2   1  -4 3626.17  118.87
  -2   1  -4 3678.91  114.42
  -2   1  -4 3765.82  117.10
   2  -1   4 3740.65  118.58
  -3   1  -4   45.75    3.08
  -3   1  -4   49.42    5.04
  -3   1  -4   54.66    7.12
  -3   1  -4   49.99    3.13
  -3   1  -4   55.54    6.36
  -3   1  -4   46.01    6.42
  -3   1  -4   58.68    6.78
  -3   1  -4   53.08    7.09
   3  -1   4   58.54    6.62
  -4   1  -4  458.63   21.93
  -4   1  -4  469.66   23.26
  -4   1  -4  437.29   23.09
  -4   1  -4  442.91   20.92
  -4   1  -4  459.05   23.43
   4  -1   4  480.05   21.85
  -4   0   4   24.35    4.74
  -4   0   4   29.77    4.77
  -4   0   4   26.05    4.61
  -4   0   4   20.76    4.98
  -4   0   4   32.55    6.15
  -4   0   4   23.94    5.01
  -4   0   4   23.92    4.80
  -4   0   4   29.62    5.96
  -4   0   4   29.53    5.91
  -4   0   4   21.17    4.46
   3   0  -4  561.48   35.10
  -3   0   4  603.25   21.94
  -3   0   4  603.71   24.35
  -3   0   4  605.33   21.17
  -3   0   4  596.09   23.88
  -3   0   4  627.50   24.04
  -3   0   4  604.25   23.32
  -3   0   4  609.67   22.47
  -3   0   4  641.88   25.35
  -3   0   4  602.79   21.76
   2   0  -4  608.64   21.62
   2   0  -4  650.27   31.44
  -2   0   4  590.63   21.51
  -2   0   4  699.70   50.50
  -2   0   4  588.57   23.11
  -2   0   4  579.71   21.19
  -2   0   4  576.14   19.95
  -2   0   4  586.94   22.37
  -2   0   4  587.99   20.86
  -2   0   4  596.01   20.20
  -2   0   4  600.51   22.69
  -2   0   4  628.98   21.69
  -2   0   4  582.27   21.49
  -2   0   4  597.38   20.14
   1   0  -4  752.24   25.59
   1   0  -4  777.22   24.52
   1   0  -4  790.37   26.19
   1   0  -4  756.34   25.00
   1   0  -4  749.92   31.28
   1   0  -4  775.98   23.47
   1   0  -4  735.08   25.62
  -1   0   4  734.63   25.55
  -1   0   4  736.56   25.00
  -1   0   4  739.44   25.64
  -1   0   4  674.51   44.95
  -1   0   4  734.96   23.44
  -1   0   4  742.54   23.79
  -1   0   4  727.61   30.54
  -1   0   4  728.19   25.98
  -1   0   4  766.32   24.45
  -1   0   4  729.84   24.65
   0   0  -4 1054.94   35.20
   0   0  -4 1133.68   35.21
   0   0  -4 1061.92   34.74
   0   0  -4 1134.92   34.63
   0   0  -4 1110.88   33.79
   0   0  -4  911.93   38.82
   0   0  -4 1043.80   35.58
   0   0  -4 1094.74   34.62
   0   0  -4 1125.21   35.45
   0   0  -4 1076.28   34.45
   0   0   4 1124.20   39.47
   0   0   4 1017.69   35.47
   0   0   4 1078.98   35.15
   0   0   4 1064.04   35.39
   0   0   4 1063.05   34.86
   0   0   4 1060.99   34.92
   0   0   4 1104.35   34.62
   0   0   4 1119.45   34.87
   0   0   4 1093.08   34.51
   0   0   4 1069.77   33.77
   0   0   4 1077.13   34.75
  -1   0  -4  336.97   13.15
  -1   0  -4  333.86   12.85
  -1   0  -4  338.26   13.03
  -1   0  -4  337.84   13.13
  -1   0  -4  328.95   13.17
  -1   0  -4  322.47   12.98
  -1   0  -4  326.84   12.20
  -1   0  -4  326.18   13.44
   1   0   4  339.04   13.10
   1   0   4  328.71   11.15
   1   0   4  348.40   12.23
   1   0   4  328.15   13.03
   1   0   4  318.45   13.40
   1   0   4  338.86   12.97
   1   0   4  365.07   18.54
   1   0   4  326.95   12.98
  -2   0  -4   61.08    5.53
  -2   0  -4   57.44    3.79
  -2   0  -4   55.56    5.85
  -2   0  -4   58.12    4.98
  -2   0  -4   52.99    4.12
  -2   0  -4   48.46    5.48
  -2   0  -4   54.34    2.99
  -2   0  -4   55.08    5.48
   2   0   4   52.06    2.90
   2   0   4   57.14    4.81
   2   0   4   51.61    3.59
  -3   0  -4  266.87   11.25
  -3   0  -4  240.81   14.15
  -3   0  -4  261.86   13.21
  -3   0  -4  254.25   13.65
  -3   0  -4  278.25   14.60
  -3   0  -4  255.25   10.25
  -3   0  -4  274.83   15.11
  -3   0  -4  270.12   11.08
   3   0   4  256.48   11.01
   3   0   4  240.33   13.03
  -4   0  -4  636.29   26.35
  -4   0  -4  571.28   27.92
  -4   0  -4  619.58   28.57
  -4   0  -4  631.97   29.21
  -4   0  -4  614.70   27.47
   4   0   4  608.75   26.28
  -4   1   4    0.58    2.39
  -4   1   4    1.43    2.26
  -4   1   4   -0.61    2.10
  -4   1   4    6.46    2.39
  -4   1   4    2.92    2.56
  -4   1   4    2.12    2.43
  -4   1   4    5.53    3.21
  -4   1   4    2.31    2.59
  -4   1   4    2.19    2.78
  -4   1   4    3.29    2.30
  -4   1   4    3.09    2.33
   3  -1  -4  221.66   20.49
  -3   1   4  285.69   13.25
  -3   1   4  252.78   13.07
  -3   1   4  258.61   12.88
  -3   1   4  264.07    9.98
  -3   1   4  271.28   13.08
  -3   1   4  273.83   11.17
  -3   1   4  243.28   13.85
  -3   1   4  268.05   12.22
  -3   1   4  280.70   11.58
  -3   1   4  248.84   12.11
  -3   1   4  254.14   10.87
  -3   1   4  278.18   13.37
   2  -1  -4   71.65    4.55
   2  -1  -4   51.82    8.98
  -2   1   4   65.31    4.43
  -2   1   4   66.12    4.76
  -2   1   4   77.75    4.07
  -2   1   4   65.67    4.27
  -2   1   4   77.16    4.74
  -2   1   4   65.73    3.98
  -2   1   4   65.60    5.05
  -2   1   4   75.10    5.94
   1  -1  -4  233.31   10.05
   1  -1  -4  229.97   13.81
   1  -1  -4  241.81   10.00
   1  -1  -4  218.55   10.24
   1  -1  -4  236.91    8.44
   1  -1  -4  233.99    8.63
   1  -1  -4  235.12    9.87
  -1   1   4  228.42    8.60
  -1   1   4  235.63    8.83
  -1   1   4  230.11    8.56
  -1   1   4  225.59    9.78
  -1   1   4  236.90    8.38
  -1   1   4  236.63   13.62
  -1   1   4  259.11   26.25
  -1   1   4  255.80    9.62
  -1   1   4  241.25   10.00
  -1   1   4  215.02    9.78
   0  -1  -4  474.62   16.42
   0  -1  -4  468.82   15.61
   0  -1  -4  466.87   15.45
   0  -1  -4  448.73   16.11
   0  -1  -4  440.88   17.02
   0  -1  -4  474.19   16.23
   0  -1  -4  423.31   20.13
   0  -1  -4  457.32   16.35
   0  -1  -4  467.31   16.76
   0  -1  -4  447.81   15.81
   0   1   4  441.02   16.53
   0   1   4  464.08   16.11
   0   1   4  453.50   15.40
   0   1   4  464.90   20.42
   0   1   4  457.96   15.80
   0   1   4  466.95   16.47
   0   1   4  454.14   16.16
   0   1   4  443.33   16.30
   0   1   4  514.13   32.04
   0   1   4  451.68   16.98
  -1  -1  -4  106.97    5.05
  -1  -1  -4  121.02    6.25
  -1  -1  -4  115.63    6.48
  -1  -1  -4  121.62    6.75
  -1  -1  -4  114.61    6.44
  -1  -1  -4  114.95    6.28
  -1  -1  -4  117.35    5.17
  -1  -1  -4  114.17    6.28
  -1  -1  -4  115.59    6.47
   1   1   4  115.72    6.37
   1   1   4  106.05    6.00
   1   1   4  113.67    6.04
   1   1   4  113.12    5.11
   1   1   4  113.57    6.32
   1   1   4  117.29    5.15
   1   1   4  118.19    6.49
   1   1   4  138.30   11.69
   1   1   4  108.18    6.17
  -2  -1  -4    1.62    1.50
  -2  -1  -4    0.56    0.83
  -2  -1  -4    0.88    1.73
  -2  -1  -4    0.06    1.07
  -2  -1  -4    0.35    0.93
  -2  -1  -4   -0.42    0.85
  -2  -1  -4    2.21    1.72
  -2  -1  -4    1.15    1.59
   2   1   4    0.09    0.78
   2   1   4    4.21    1.99
   2   1   4    0.34    0.79
  -3  -1  -4  189.88   11.63
  -3  -1  -4  191.80    8.33
  -3  -1  -4  197.68   12.84
  -3  -1  -4  202.65    8.84
  -3  -1  -4  204.46   12.35
  -3  -1  -4  204.00   11.09
  -3  -1  -4  186.09    9.64
  -3  -1  -4  193.53   11.99
   3   1   4  189.43    8.74
   3   1   4  204.80   11.15
  -4  -1  -4   43.81    7.43
  -4  -1  -4   47.29    8.23
  -4  -1  -4   36.95    6.84
  -4  -1  -4   53.62    8.40
  -4  -1  -4   64.23    7.63
   4   1   4   56.17    7.24
  -4   2   4    0.45    2.41
  -4   2   4   -1.81    1.50
  -4   2   4   -1.38    1.46
  -4   2   4    0.68    2.05
  -4   2   4    0.79    2.35
  -4   2   4   -1.34    1.87
  -4   2   4   -0.17    2.14
  -4   2   4   -0.22    2.31
  -4   2   4   -0.65    1.92
  -4   2   4   -0.75    1.50
  -4   2   4    2.44    2.61
  -4   2   4   -1.09    2.02
   3  -2  -4   62.62   21.54
   3  -2  -4   58.32   11.62
  -3   2   4   50.17    5.63
  -3   2   4   48.79    5.42
  -3   2   4   46.10    4.54
  -3   2   4   50.00    5.01
  -3   2   4   45.15    6.31
  -3   2   4   34.12    4.73
  -3   2   4   48.59    6.26
  -3   2   4   43.42    5.51
  -3   2   4   41.63    4.47
  -3   2   4   41.14    3.40
  -3   2   4   44.36    5.42
  -3   2   4   39.99    3.47
   2  -2  -4 1309.36   78.66
   2  -2  -4 1381.10   52.61
   2  -2  -4 1272.95   42.20
  -2   2   4 1294.77   42.25
  -2   2   4 1276.58   43.18
  -2   2   4 1226.41   42.10
  -2   2   4 1224.09   44.62
  -2   2   4 1297.42   41.92
  -2   2   4 1262.32   43.41
  -2   2   4 1257.34   41.29
  -2   2   4 1334.12   54.92
   1  -2  -4  154.25    5.28
   1  -2  -4  138.73    7.37
   1  -2  -4  150.15    6.51
   1  -2  -4  151.50    7.45
   1  -2  -4  134.57    7.01
   1  -2  -4  152.75   10.54
  -1   2   4  177.29   21.64
  -1   2   4  161.62   10.58
  -1   2   4  146.48    6.76
  -1   2   4  147.56    6.59
  -1   2   4  149.17    6.54
  -1   2   4  158.62    7.22
  -1   2   4  144.68    7.45
  -1   2   4  144.15    6.19
  -1   2   4  140.73    7.25
  -1   2   4  139.24    7.10
  -1   2   4  142.22    5.15
  -1   2   4  144.29    5.30
   0  -2  -4  894.49   29.74
   0  -2  -4  900.83   29.95
   0  -2  -4  887.44   30.42
   0  -2  -4  879.98   29.84
   0  -2  -4  946.45   51.03
   0  -2  -4  906.31   35.14
   0  -2  -4  889.26   29.09
   0  -2  -4  876.53   29.21
   0  -2  -4  908.34   29.89
   0   2   4  953.32   50.54
   0   2   4  887.48   30.15
   0   2   4  877.67   30.83
   0   2   4  890.26   29.80
   0   2   4  884.44   29.18
   0   2   4  887.06   30.03
   0   2   4  887.20   29.80
   0   2   4  881.55   29.10
   0   2   4  926.59   30.46
   0   2   4  906.88   29.82
   0   2   4  876.48   29.75
  -1  -2  -4  225.24   10.56
  -1  -2  -4  228.72   10.25
  -1  -2  -4  268.47   20.76
  -1  -2  -4  232.67    9.42
  -1  -2  -4  225.85   10.60
  -1  -2  -4  244.14   10.55
  -1  -2  -4  232.23   10.89
  -1  -2  -4  229.71   10.42
   1   2   4  228.94    9.86
   1   2   4  249.13   10.35
   1   2   4  257.92   20.06
   1   2   4  225.79   10.62
   1   2   4  232.64    9.39
   1   2   4  236.40    8.66
   1   2   4  228.09   10.42
   1   2   4  221.90    9.66
  -2  -2  -4   89.15    6.07
  -2  -2  -4   80.35    4.95
  -2  -2  -4   90.79    6.75
  -2  -2  -4   90.32    6.35
  -2  -2  -4   90.38    6.73
  -2  -2  -4   96.13    9.16
  -2  -2  -4   86.93    6.42
   2   2   4   90.61    3.82
   2   2   4   87.05    4.98
   2   2   4   85.32    5.94
   2   2   4   79.89    5.03
  -3  -2  -4  148.57   10.26
  -3  -2  -4  147.77   10.17
  -3  -2  -4  121.73    9.69
  -3  -2  -4  143.73    8.75
  -3  -2  -4  145.22   10.93
  -3  -2  -4  140.80    7.55
  -3  -2  -4  155.30    9.26
   3   2   4  153.52    9.33
  -4  -2  -4   65.67    8.97
  -4  -2  -4   58.32    9.26
  -4  -2  -4   68.23    9.70
  -4  -2  -4   59.82    7.15
  -4  -2  -4   58.77    8.42
   4   2   4   79.95    8.53
   4  -3  -4    0.51    9.55
  -4   3   4    3.27    2.80
  -4   3   4    0.91    1.81
  -4   3   4    0.66    2.34
  -4   3   4   -0.21    1.52
  -4   3   4    1.24    2.17
  -4   3   4   -1.65    1.79
  -4   3   4    0.46    2.02
  -4   3   4    0.18    2.21
  -4   3   4   -0.03    2.20
  -4   3   4    3.86    2.92
  -4   3   4    0.07    1.54
  -4   3   4    3.20    2.29
   3  -3  -4   -0.08    6.54
   3  -3  -4    1.55    1.10
   3  -3  -4    2.23    3.60
  -3   3   4   -0.47    1.14
  -3   3   4    2.06    1.88
  -3   3   4    0.16    1.62
  -3   3   4   -0.21    1.56
  -3   3   4    1.48    1.97
  -3   3   4   -1.03    1.15
  -3   3   4    1.01    1.79
  -3   3   4    0.78    1.24
  -3   3   4   -0.21    1.30
   2  -3  -4  391.40   42.09
   2  -3  -4  447.11   16.83
   2  -3  -4  457.91   24.23
   2  -3  -4  452.63   17.13
   2  -3  -4  456.30   17.13
  -2   3   4  437.37   18.28
  -2   3   4  457.97   17.25
  -2   3   4  454.28   19.39
  -2   3   4  451.05   17.42
  -2   3   4  427.88   16.81
  -2   3   4  459.15   15.41
  -2   3   4  431.51   16.74
  -2   3   4  416.99   22.63
  -2   3   4  469.91   15.80
   1  -3  -4   15.94    9.32
   1  -3  -4   13.89    2.34
   1  -3  -4   23.68    4.75
   1  -3  -4   16.49    2.33
   1  -3  -4   18.24    3.00
  -1   3   4   17.86    3.07
  -1   3   4   17.54    2.46
  -1   3   4   18.54    2.35
  -1   3   4   22.65    3.08
  -1   3   4   20.31    2.67
  -1   3   4   18.37    2.82
  -1   3   4   17.07    2.79
  -1   3   4   23.92    4.75
  -1   3   4   18.00    2.25
   0  -3  -4 1016.24   33.22
   0  -3  -4  978.22   33.52
   0  -3  -4  977.62   32.43
   0  -3  -4 1027.10   57.54
   0  -3  -4 1006.74   34.15
   0  -3  -4  879.70   33.09
   0  -3  -4  970.04   32.96
   0  -3  -4 1025.76   33.67
   0   3   4 1067.79   57.48
   0   3   4 1035.07   33.57
   0   3   4  979.48   33.12
   0   3   4 1000.99   31.40
   0   3   4 1011.53   34.07
   0   3   4 1021.07   33.94
   0   3   4 1014.48   33.82
   0   3   4 1014.80   33.11
   0   3   4 1015.98   33.31
  -1  -3  -4 1011.55   34.85
  -1  -3  -4 1052.22   35.66
  -1  -3  -4  986.11   35.19
  -1  -3  -4 1029.60   35.14
  -1  -3  -4 1173.84   56.84
  -1  -3  -4 1006.29   34.98
  -1  -3  -4  961.24   32.71
  -1  -3  -4  991.00   34.26
  -1  -3  -4 1019.61   36.27
   1   3   4 1014.69   34.17
   1   3   4 1119.99   54.22
   1   3   4  957.81   34.34
   1   3   4 1024.85   34.78
   1   3   4 1035.83   35.30
   1   3   4 1018.63   35.66
   1   3   4 1007.02   32.60
  -2  -3  -4   41.35    4.21
  -2  -3  -4   34.02    5.03
  -2  -3  -4   37.46    5.29
  -2  -3  -4   33.78    4.44
  -2  -3  -4   40.04    8.81
  -2  -3  -4   35.56    4.88
  -2  -3  -4   28.84    4.16
   2   3   4   29.03    4.10
   2   3   4   37.40    3.91
   2   3   4   40.21    4.09
   2   3   4   40.24    4.58
  -3  -3  -4   27.38    5.16
  -3  -3  -4   27.14    5.29
  -3  -3  -4   27.45    5.28
  -3  -3  -4   22.78    4.14
  -3  -3  -4   28.84    4.83
  -3  -3  -4   35.92    6.26
  -3  -3  -4   31.11    4.12
   3   3   4   36.61    5.03
  -4  -3  -4    0.40    2.18
  -4  -3  -4   -0.02    3.08
  -4  -3  -4    3.62    3.24
  -4  -3  -4    1.71    3.17
  -4  -3  -4    0.43    2.76
   4   3   4    2.50    2.51
   4  -4  -4   -1.77    7.71
  -4   4   4    6.64    3.44
  -4   4   4   10.67    3.71
  -4   4   4    6.46    3.27
  -4   4   4    9.94    2.92
  -4   4   4   10.20    2.94
  -4   4   4   12.00    3.49
  -4   4   4    6.08    3.72
  -4   4   4    9.48    3.02
  -4   4   4   13.60    3.74
  -4   4   4    8.30    3.63
   3  -4  -4   25.91    2.98
   3  -4  -4   17.05    6.54
   3  -4  -4   20.46    3.28
   3  -4  -4    8.32   10.80
  -3   4   4   22.67    4.93
  -3   4   4   27.12    5.13
  -3   4   4   30.00    3.40
  -3   4   4   28.46    4.73
  -3   4   4   25.48    3.82
  -3   4   4   23.81    4.21
  -3   4   4   27.86    3.60
  -3   4   4   20.67    3.53
   2  -4  -4  177.84   29.51
   2  -4  -4  167.18    8.89
   2  -4  -4  187.22   13.76
  -2   4   4  163.60    9.72
  -2   4   4  163.22    6.46
  -2   4   4  174.12   12.60
  -2   4   4  180.86    6.81
  -2   4   4  171.94    8.28
  -2   4   4  169.28    8.61
  -2   4   4  163.26    9.92
  -2   4   4  186.03    8.80
  -2   4   4  160.06    7.95
   1  -4  -4  475.87   17.58
   1  -4  -4  497.09   22.28
   1  -4  -4  486.06   18.61
   1  -4  -4  459.16   18.16
   1  -4  -4  409.75   39.86
  -1   4   4  457.30   17.54
  -1   4   4  450.90   15.24
  -1   4   4  469.42   19.43
  -1   4   4  482.47   16.71
  -1   4   4  468.46   17.68
  -1   4   4  439.62   18.42
  -1   4   4  453.87   18.58
  -1   4   4  481.68   21.54
   0  -4  -4 1318.58   43.74
   0  -4  -4 1336.53   44.33
   0  -4  -4 1326.95   43.74
   0  -4  -4 1333.84   44.37
   0  -4  -4 1270.70   72.18
   0  -4  -4 1323.22   42.37
   0  -4  -4 1319.59   43.31
   0  -4  -4 1349.52   43.96
   0   4   4 1220.27   68.33
   0   4   4 1278.58   43.86
   0   4   4 1349.84   43.80
   0   4   4 1340.34   44.50
   0   4   4 1318.88   42.99
   0   4   4 1320.25   44.09
   0   4   4 1314.16   44.09
   0   4   4 1347.45   43.25
  -1  -4  -4   31.10    2.18
  -1  -4  -4   36.34    4.05
  -1  -4  -4   36.94    4.33
  -1  -4  -4   40.62    4.67
  -1  -4  -4   27.82    3.74
  -1  -4  -4   36.49    5.09
  -1  -4  -4   36.97    4.17
  -1  -4  -4   33.73    4.02
  -1  -4  -4   51.94   12.16
   1   4   4   51.28   11.85
   1   4   4   37.23    4.11
   1   4   4   28.81    4.00
   1   4   4   41.47    4.96
   1   4   4   38.79    4.12
   1   4   4   39.63    4.55
   1   4   4   35.65    4.06
  -2  -4  -4   41.66   11.60
  -2  -4  -4   34.49    5.13
  -2  -4  -4   27.27    4.12
  -2  -4  -4   25.79    4.53
  -2  -4  -4   23.98    4.63
  -2  -4  -4   36.10    4.27
  -2  -4  -4   31.89    4.44
   2   4   4   33.26    3.87
   2   4   4   29.76    4.18
   2   4   4   29.24    3.99
  -3  -4  -4   86.45    9.85
  -3  -4  -4   82.06    6.92
  -3  -4  -4   87.37    6.49
  -3  -4  -4   77.97    8.94
  -3  -4  -4   87.25    9.09
  -3  -4  -4   84.85    7.76
  -3  -4  -4  104.20    8.48
   3   4   4   81.86    6.79
  -4  -4  -4   51.93    8.07
  -4  -4  -4   70.90    9.64
  -4  -4  -4   48.52    7.85
  -4  -4  -4   49.24    6.68
  -4  -4  -4   44.25    8.39
  -4  -4  -4   54.39    8.77
   4   4   4   63.85    7.60
   4  -5  -4    5.72   11.70
  -4   5   4   20.26    4.22
  -4   5   4   17.39    5.10
  -4   5   4   18.52    4.95
  -4   5   4   18.38    4.00
  -4   5   4   18.83    4.79
  -4   5   4   22.52    5.07
   3  -5  -4    5.08    4.25
   3  -5  -4    2.36    1.39
   3  -5  -4    2.71    8.36
   3  -5  -4    1.88    1.79
  -3   5   4    2.08    1.74
  -3   5   4    1.84    2.15
  -3   5   4    2.42    1.26
  -3   5   4    2.12    1.76
  -3   5   4    1.74    1.87
  -3   5   4    3.55    2.49
  -3   5   4    5.05    1.56
   2  -5  -4   46.47    4.46
   2  -5  -4   45.82    5.18
   2  -5  -4   48.45    6.97
   2  -5  -4   29.69   14.92
  -2   5   4   49.12    6.50
  -2   5   4   54.77    6.42
  -2   5   4   53.50    4.64
  -2   5   4   41.30    5.51
  -2   5   4   55.18    4.40
  -2   5   4   47.16    3.69
  -2   5   4   42.41    3.50
   1  -5  -4   41.41   16.63
   1  -5  -4   44.72    3.39
   1  -5  -4   42.56    5.01
   1  -5  -4   46.20    5.73
   1  -5  -4   40.51    4.70
  -1   5   4   51.99    4.15
  -1   5   4   49.66    4.33
  -1   5   4   50.02    3.48
  -1   5   4   52.34    5.60
  -1   5   4   51.98    4.89
  -1   5   4   51.29    4.75
  -1   5   4   46.16    5.83
   0  -5  -4  125.77   10.50
   0  -5  -4  135.13    7.76
   0  -5  -4  118.81    8.10
   0  -5  -4  126.90   22.05
   0  -5  -4  122.43    6.68
   0  -5  -4  115.92    6.84
   0  -5  -4  137.46    7.56
   0  -5  -4  121.66    5.88
   0  -5  -4  121.80    5.95
   0   5   4  120.33    7.32
   0   5   4  128.30    6.57
   0   5   4  118.05    6.38
   0   5   4  125.96    6.78
   0   5   4  118.40    7.42
   0   5   4  117.84    7.19
  -1  -5  -4   17.12    9.40
  -1  -5  -4    9.07    2.91
  -1  -5  -4    8.39    2.41
  -1  -5  -4    9.70    2.66
  -1  -5  -4   11.07    2.56
  -1  -5  -4    8.63    2.28
  -1  -5  -4    4.11    1.80
   1   5   4    8.14    2.63
   1   5   4    8.01    1.46
   1   5   4    6.73    2.15
   1   5   4    7.43    2.39
   1   5   4   15.13    8.73
  -2  -5  -4    0.58    1.91
  -2  -5  -4    3.35    2.43
  -2  -5  -4    1.46    1.66
  -2  -5  -4   -0.07    1.84
  -2  -5  -4    4.36    2.07
  -2  -5  -4    1.95    4.89
  -2  -5  -4    2.06    2.29
  -2  -5  -4    8.17    2.54
   2   5   4   -0.38    1.30
   2   5   4    1.14    1.53
  -3  -5  -4    1.65    2.46
  -3  -5  -4    2.46    2.48
  -3  -5  -4    0.36    1.84
  -3  -5  -4    1.61    2.55
  -3  -5  -4    1.41    2.39
  -3  -5  -4    3.05    2.49
  -3  -5  -4    3.02    3.32
  -3  -5  -4    3.31    2.00
   3   5   4    0.23    2.00
  -4  -5  -4    2.00    3.28
  -4  -5  -4    0.25    2.26
  -4  -5  -4    0.68    3.46
  -4  -5  -4    1.87    3.56
  -4  -5  -4    0.54    2.51
  -4  -5  -4    2.54    2.90
   4  -6  -4    6.26   11.84
  -4   6   4    3.05    3.06
  -4   6   4    0.31    2.03
  -4   6   4   -2.02    2.13
  -4   6   4   -1.82    2.58
  -4   6   4    0.43    2.43
  -4   6   4    1.56    2.30
   3  -6  -4  142.79   14.37
   3  -6  -4  178.77    9.04
   3  -6  -4  126.86   37.10
   3  -6  -4  215.54   11.16
  -3   6   4  197.89   12.34
  -3   6   4  211.61   11.15
  -3   6   4  196.60   12.68
  -3   6   4  188.69    9.76
  -3   6   4  207.14   10.55
   2  -6  -4  104.45   10.00
   2  -6  -4  137.43    8.16
   2  -6  -4  129.74    8.43
   2  -6  -4   79.14   26.17
  -2   6   4  130.83    7.31
  -2   6   4  135.33    9.21
  -2   6   4  129.34    8.06
  -2   6   4  127.79    6.32
  -2   6   4  128.20    6.42
  -2   6   4  140.88   10.90
  -2   6   4  128.17    8.98
   1  -6  -4    4.67    2.06
   1  -6  -4    8.01    2.08
   1  -6  -4    3.66    5.89
   1  -6  -4    8.05    2.69
   1  -6  -4    7.11    1.69
  -1   6   4    9.75    2.47
  -1   6   4   10.82    2.63
  -1   6   4    4.49    1.94
  -1   6   4    8.28    1.66
   0  -6  -4   24.67    2.71
   0  -6  -4   23.52    3.10
   0  -6  -4   16.11    3.73
   0  -6  -4   18.60    5.01
   0  -6  -4   15.96   10.49
   0  -6  -4   19.40    3.35
   0  -6  -4   23.78    2.89
   0  -6  -4   19.63    3.50
   0  -6  -4   21.01    3.24
   0   6   4   18.99    3.26
   0   6   4   17.06    2.92
   0   6   4   17.38    3.45
   0   6   4   24.70    3.16
   0   6   4   22.41    3.80
  -1  -6  -4  148.96    9.12
  -1  -6  -4  149.51    9.00
  -1  -6  -4  124.00   22.44
  -1  -6  -4  148.18    8.92
  -1  -6  -4  155.25    8.99
  -1  -6  -4  156.06    8.67
  -1  -6  -4  161.26   10.50
  -1  -6  -4  160.22    9.08
  -1  -6  -4  156.39    8.86
   1   6   4  155.24    6.89
   1   6   4  156.84    8.97
   1   6   4  163.35    9.63
  -2  -6  -4   44.64    6.81
  -2  -6  -4   39.78    5.22
  -2  -6  -4   35.53    5.26
  -2  -6  -4   38.62    5.33
  -2  -6  -4   38.20    5.87
  -2  -6  -4   40.31    5.14
  -2  -6  -4   27.10   12.65
  -2  -6  -4   39.72    5.86
  -2  -6  -4   35.23    5.58
   2   6   4   36.07    4.99
   2   6   4   43.72    5.14
  -3  -6  -4   34.64    6.18
  -3  -6  -4   36.10    5.40
  -3  -6  -4   25.11    5.65
  -3  -6  -4   38.11    5.56
  -3  -6  -4   25.10    5.38
  -3  -6  -4   30.13    5.50
  -3  -6  -4   34.06    6.19
  -3  -6  -4   26.01    6.11
   3   6   4   26.00    4.56
   4  -7  -4   12.69   15.24
  -4   7   4   22.75    5.76
  -4   7   4   20.33    5.66
  -4   7   4   14.85    4.07
  -4   7   4   13.87    5.21
  -4   7   4   16.19    3.97
   3  -7  -4   19.86    6.15
   3  -7  -4   20.38    4.23
   3  -7  -4   29.13    4.17
   3  -7  -4   21.94   17.71
  -3   7   4   27.10    4.74
  -3   7   4   18.89    5.08
  -3   7   4   25.04    5.43
  -3   7   4   21.10    3.48
   2  -7  -4  303.44   14.80
   2  -7  -4  307.13   14.47
   2  -7  -4  211.04   36.99
  -2   7   4  302.10   15.65
  -2   7   4  286.75   15.42
  -2   7   4  300.81   11.51
  -2   7   4  304.60   12.97
  -2   7   4  286.42   14.11
  -2   7   4  288.49   16.27
   1  -7  -4   26.57    3.15
   1  -7  -4   37.10    4.98
   1  -7  -4   41.40    4.78
  -1   7   4   57.01    6.13
  -1   7   4   63.08    6.28
  -1   7   4   55.70    4.70
   0  -7  -4    2.13    2.49
   0  -7  -4   -0.16    1.55
   0  -7  -4    2.14    7.04
   0  -7  -4    0.47    1.51
   0  -7  -4   -0.18    0.96
   0  -7  -4   -0.20    1.17
   0  -7  -4   -0.55    1.12
   0  -7  -4   -1.03    1.29
   0   7   4   -0.53    1.23
   0   7   4   -0.33    1.37
   0   7   4    0.63    1.48
   0   7   4    1.96    1.32
   0   7   4   -0.06    0.98
  -1  -7  -4   46.21    5.77
  -1  -7  -4   32.67    4.67
  -1  -7  -4   43.20    3.61
  -1  -7  -4   41.10    5.39
  -1  -7  -4   50.31    5.68
  -1  -7  -4   39.01    5.09
  -1  -7  -4   18.05   11.69
  -1  -7  -4   34.12    5.66
  -1  -7  -4   35.32    4.94
  -1  -7  -4   49.86    5.59
   1   7   4   41.96    3.38
   1   7   4   45.63    5.58
   1   7   4   36.01    5.31
  -2  -7  -4   18.77    4.29
  -2  -7  -4   19.62    4.49
  -2  -7  -4   17.91    3.67
  -2  -7  -4   25.69    4.54
  -2  -7  -4   17.16    3.97
  -2  -7  -4    5.26    8.30
  -2  -7  -4   17.19    3.84
  -2  -7  -4   19.49    4.90
  -2  -7  -4   22.70    4.94
   2   7   4   17.70    3.68
   2   7   4   23.72    4.05
  -3  -7  -4   41.65    7.61
  -3  -7  -4   34.31    6.40
  -3  -7  -4   41.39    6.63
  -3  -7  -4   40.71    5.80
  -3  -7  -4   47.42    7.58
  -3  -7  -4   31.57    6.20
  -3  -7  -4   49.63    6.80
  -3  -7  -4   43.53    7.58
   3   7   4   47.16    6.04
   4  -8  -4    3.02   12.99
  -4   8   4   15.50    5.05
  -4   8   4   15.91    5.34
  -4   8   4   17.06    5.54
  -4   8   4   22.45    5.15
  -4   8   4   12.16    3.97
   3  -8  -4    2.11    2.65
   3  -8  -4    1.40   10.44
  -3   8   4    3.78    3.16
  -3   8   4    2.29    2.33
  -3   8   4    3.33    3.04
   2  -8  -4   17.53    3.94
   2  -8  -4   14.21    3.84
   2  -8  -4    5.89   10.98
  -2   8   4   16.38    4.16
  -2   8   4   15.20    3.64
  -2   8   4   11.25    3.95
  -2   8   4   16.38    3.04
   1  -8  -4  194.39    7.13
   1  -8  -4  201.99   10.92
   1  -8  -4  192.00   11.52
   1  -8  -4  208.16   12.40
   1  -8  -4  182.46   12.82
  -1   8   4  209.43   11.66
  -1   8   4  197.05    8.64
  -1   8   4  207.94   11.50
  -1   8   4  210.19   10.47
  -1   8   4  187.97   11.74
   0  -8  -4   84.40    7.92
   0  -8  -4   77.32    9.43
   0  -8  -4   84.62    5.94
   0  -8  -4   86.35   25.77
   0  -8  -4   81.59    5.30
   0  -8  -4  104.34    7.81
   0  -8  -4   73.43    6.42
   0  -8  -4   85.17    7.05
   0   8   4   85.26    6.25
   0   8   4   85.05    6.72
   0   8   4   92.80    7.37
   0   8   4   89.10    5.95
  -1  -8  -4   80.58    6.92
  -1  -8  -4   67.52   22.38
  -1  -8  -4   77.01    7.92
  -1  -8  -4   81.29    5.07
  -1  -8  -4   62.53    8.17
  -1  -8  -4   74.34    6.13
  -1  -8  -4   81.29    8.12
  -1  -8  -4   65.32    6.90
   1   8   4   68.84    8.04
   1   8   4   74.63    6.55
   1   8   4   74.61    4.98
  -2  -8  -4  193.89   12.82
  -2  -8  -4  198.44   12.48
  -2  -8  -4  214.26   12.55
  -2  -8  -4  202.03   11.90
  -2  -8  -4  220.34   11.60
  -2  -8  -4  200.93   13.16
  -2  -8  -4  215.11   14.37
  -2  -8  -4  212.41   13.12
   2   8   4  207.54   11.55
   2   8   4  214.78   11.45
  -3  -8  -4  207.81   14.90
  -3  -8  -4  183.92   12.20
  -3  -8  -4  169.77   12.99
  -3  -8  -4  171.18   12.90
  -3  -8  -4  190.17   12.38
  -3  -8  -4  205.17   14.04
  -3  -8  -4  167.01   13.72
  -3  -8  -4  181.69   11.57
   3   8   4  184.16   11.03
   4  -9  -4    8.80   15.03
  -4   9   4   35.30    7.65
   3  -9  -4   -0.16   10.13
   3  -9  -4    3.20    2.87
  -3   9   4    1.79    2.52
  -3   9   4    3.93    2.96
  -3   9   4    4.50    3.04
   2  -9  -4   45.04    7.57
   2  -9  -4   29.25   20.37
   2  -9  -4   58.95    7.29
   2  -9  -4   77.68    7.36
  -2   9   4   67.51    7.60
  -2   9   4   67.35    5.43
  -2   9   4   70.80    8.55
  -2   9   4   83.70    9.09
   1  -9  -4  714.95   72.49
   1  -9  -4  962.73   33.93
   1  -9  -4  838.79   36.31
   1  -9  -4  908.40   28.52
   1  -9  -4  882.41   34.68
   1  -9  -4  948.09   35.94
  -1   9   4  904.68   32.54
  -1   9   4  872.85   34.03
  -1   9   4  905.85   35.14
  -1   9   4  916.67   34.41
   0  -9  -4   54.97    9.44
   0  -9  -4   42.95    6.23
   0  -9  -4   41.14    6.09
   0  -9  -4   34.56    5.01
   0  -9  -4   39.92    4.31
   0  -9  -4   50.31   21.47
   0  -9  -4   34.48    4.51
   0  -9  -4   43.13    6.57
   0   9   4   52.03    6.67
   0   9   4   34.96    4.40
   0   9   4   46.12    5.41
   0   9   4   40.74    5.54
   0   9   4   30.27    5.13
  -1  -9  -4    5.07    3.25
  -1  -9  -4    4.36    1.77
  -1  -9  -4    2.71    2.62
  -1  -9  -4    4.89    2.43
  -1  -9  -4   -1.33    6.21
  -1  -9  -4    4.85    2.51
  -1  -9  -4    8.99    3.30
  -1  -9  -4    3.89    2.48
   1   9   4    4.39    3.01
   1   9   4    8.62    3.01
   1   9   4    4.07    1.78
  -2  -9  -4   46.09    7.01
  -2  -9  -4   46.25    6.52
  -2  -9  -4   44.49    6.96
  -2  -9  -4   48.02    7.97
  -2  -9  -4   28.07   16.56
  -2  -9  -4   36.57    5.31
  -2  -9  -4   42.71    6.38
  -2  -9  -4   26.52    5.46
   2   9   4   41.42    5.76
   2   9   4   35.47    5.20
  -3  -9  -4   81.50   10.44
  -3  -9  -4  116.25   13.48
  -3  -9  -4   84.46   10.46
  -3  -9  -4   83.91   10.75
  -3  -9  -4   81.08   11.22
  -3  -9  -4   91.51    9.98
  -3  -9  -4   73.96    9.23
  -3  -9  -4   80.70    8.64
   3 -10  -4   16.53   17.34
   3 -10  -4   17.25    4.71
  -3  10   4   10.99    3.85
  -3  10   4   16.93    5.25
  -3  10   4   15.84    4.83
   2 -10  -4   23.16   19.35
   2 -10  -4   63.58    8.10
   2 -10  -4   66.88    8.33
  -2  10   4   43.84    7.05
  -2  10   4   58.14    5.87
  -2  10   4   62.23    8.62
  -2  10   4   66.24    8.15
   1 -10  -4  951.79   38.27
   1 -10  -4  818.31   81.67
   1 -10  -4  950.24   32.08
   1 -10  -4  988.00   37.72
   1 -10  -4  921.81   38.84
   1 -10  -4  975.48   36.22
  -1  10   4  962.86   36.67
  -1  10   4  999.40   37.19
  -1  10   4  951.20   37.69
  -1  10   4  940.87   34.74
   0 -10  -4  774.06   31.24
   0 -10  -4  767.32   33.05
   0 -10  -4  769.46   28.33
   0 -10  -4  774.70   27.33
   0 -10  -4  768.35   30.38
   0 -10  -4  772.37   37.01
   0 -10  -4  604.43   66.56
   0 -10  -4  728.55   31.01
   0  10   4  782.18   28.40
   0  10   4  816.32   31.56
   0  10   4  755.28   29.25
   0  10   4  774.74   31.26
  -1 -10  -4   46.87    6.14
  -1 -10  -4   47.59    6.00
  -1 -10  -4   49.42    5.12
  -1 -10  -4   53.91    8.43
  -1 -10  -4   47.21    6.82
  -1 -10  -4   36.89    6.51
  -1 -10  -4   51.70    7.04
   1  10   4   66.26    8.42
   1  10   4   51.18    7.00
   1  10   4   50.44    5.30
  -2 -10  -4  264.36   15.34
  -2 -10  -4  258.21   15.60
  -2 -10  -4  237.40   15.50
  -2 -10  -4  284.37   18.13
  -2 -10  -4  256.42   15.37
  -2 -10  -4  246.14   15.71
  -2 -10  -4  271.74   13.47
   2  10   4  276.20   14.36
   2  10   4  250.67   13.51
   3 -11  -4  151.75   11.79
  -3  11   4  131.56   12.03
  -3  11   4   95.95   11.60
  -3  11   4  114.52   10.33
   2 -11  -4   25.25   19.62
   2 -11  -4   35.25    6.47
   2 -11  -4   31.56    6.07
  -2  11   4   37.14    6.43
  -2  11   4   32.39    6.48
  -2  11   4   30.11    6.46
   1 -11  -4  467.75   21.64
   1 -11  -4  501.07   23.37
   1 -11  -4  494.75   24.07
  -1  11   4  469.12   22.99
  -1  11   4  450.24   21.80
  -1  11   4  457.79   20.28
  -1  11   4  452.26   22.18
   0 -11  -4   28.28   19.55
   0 -11  -4   38.87    6.62
   0 -11  -4   35.80    6.88
   0 -11  -4   38.62    4.95
   0 -11  -4   42.94    9.26
   0 -11  -4   38.76    6.15
   0 -11  -4   36.06    6.02
   0 -11  -4   48.74    5.08
   0  11   4   47.04    6.85
   0  11   4   34.30    5.45
   0  11   4   41.29    6.56
   0  11   4   42.33    5.24
  -1 -11  -4   44.46    7.00
  -1 -11  -4   48.20    8.24
  -1 -11  -4   46.28    6.19
  -1 -11  -4   50.25    6.55
  -1 -11  -4   35.82    6.25
  -1 -11  -4   45.98    7.10
   1  11   4   41.31    7.27
   1  11   4   42.69    6.51
  -2 -11  -4  123.60   10.24
  -2 -11  -4  132.74   11.39
  -2 -11  -4  135.11   13.37
  -2 -11  -4  134.84   11.24
  -2 -11  -4  122.70   14.54
  -2 -11  -4  129.80   11.08
   2  11   4  148.58   11.91
   2  11   4  132.47    9.44
   2 -12  -4   -0.14    2.76
   2 -12  -4   -0.50    2.62
   2 -12  -4   -0.61    9.93
  -2  12   4   -3.05    2.44
  -2  12   4    1.31    2.84
  -2  12   4   -0.61    2.23
   1 -12  -4   12.73    4.28
   1 -12  -4   11.46    4.62
   1 -12  -4    6.88   13.52
  -1  12   4   11.97    4.09
  -1  12   4   13.01    3.98
  -1  12   4   10.93    4.14
  -1  12   4    4.95    3.23
   0 -12  -4   28.50    5.97
   0 -12  -4   37.44   23.82
   0 -12  -4   28.83    6.86
   0 -12  -4   29.15    6.00
   0 -12  -4   22.59    3.98
   0 -12  -4   30.48    6.00
   0 -12  -4   28.77    7.65
   0  12   4   31.50    5.41
   0  12   4   20.65    5.02
   0  12   4   30.72    6.00
  -1 -12  -4   29.66    6.04
  -1 -12  -4   38.16    8.07
  -1 -12  -4   13.02   13.90
  -1 -12  -4   28.12    5.98
  -1 -12  -4   28.19    6.03
  -1 -12  -4   35.68    5.90
  -1 -12  -4   31.29    5.36
   1  12   4   28.79    6.32
   1  12   4   31.65    5.99
  -2 -12  -4   41.71    7.63
  -2 -12  -4   45.97    7.46
  -2 -12  -4   29.08    7.42
  -2 -12  -4   39.56    6.74
  -2 -12  -4   43.70    7.64
  -2 -12  -4   21.50   17.73
  -2 -12  -4   45.43    7.97
   2  12   4   29.87    6.84
   2 -13  -4   37.91    7.33
   2 -13  -4   20.72   19.77
   2 -13  -4   39.30    7.44
  -2  13   4   36.40    6.79
  -2  13   4   41.49    7.95
  -2  13   4   41.74    8.02
   1 -13  -4    7.23    4.27
   1 -13  -4    4.31    3.56
   1 -13  -4    1.19   11.32
  -1  13   4    8.26    3.99
  -1  13   4    2.35    3.25
  -1  13   4    6.48    3.60
  -1  13   4    2.90    2.95
   0 -13  -4   19.53   19.49
   0 -13  -4   30.08    6.36
   0 -13  -4   30.48    7.29
   0 -13  -4   38.10    7.09
   0 -13  -4   39.37    6.99
   0  13   4   33.89    6.68
   0  13   4   37.05    6.07
   0  13   4   34.17    6.86
  -1 -13  -4    0.11    2.50
  -1 -13  -4    1.96   12.19
  -1 -13  -4    0.29    2.32
  -1 -13  -4   -1.39    2.78
  -1 -13  -4   -4.14    2.91
  -1 -13  -4   -1.57    2.72
  -1 -13  -4   -0.04    2.51
  -1 -13  -4    0.91    2.97
   1  13   4    0.44    3.29
   1  13   4    0.84    2.63
   1 -14  -4    6.21   14.95
   1 -14  -4    4.08    3.79
   1 -14  -4    7.24    4.44
  -1  14   4    3.94    3.53
  -1  14   4    2.99    3.43
  -1  14   4    6.07    3.84
  -1  14   4   10.56    4.28
   0 -14  -4   16.99    5.23
   0 -14  -4   14.11    5.12
   0 -14  -4   17.26    6.23
   0 -14  -4   11.13    4.58
   0 -14  -4   16.65   19.67
   0  14   4   18.33    5.42
   0  14   4   20.70    5.05
   0  14   4   20.67    6.13
   1  15  -5    0.62    2.98
  -1 -15   5   -0.22   11.73
  -1 -15   5    0.59    3.20
  -1 -15   5    0.16    2.39
  -1 -15   5    1.32    2.76
  -1 -15   5    3.48    3.73
   0  15  -5   18.81    5.02
   0  15  -5   12.26    4.51
   0  15  -5   19.19    5.09
   0 -15   5   11.21   17.84
   0 -15   5   19.61    5.20
   0 -15   5   12.18    4.98
   0 -15   5   11.67    4.04
  -1  15  -5   -3.09    2.82
  -1  15  -5   14.41    5.25
  -1  15  -5    8.46    4.23
   1 -15   5    2.45    3.09
   1 -15   5    1.71   12.77
   1 -15   5    2.26    2.69
   1 -15   5    1.58    3.63
  -2 -14   5   19.62   19.97
   1  14  -5   18.22    4.84
   1  14  -5    9.24    3.58
  -1 -14   5   18.82    5.09
  -1 -14   5   10.65    3.97
  -1 -14   5   10.14    4.58
  -1 -14   5    0.32   10.87
  -1 -14   5   13.74    4.62
   0  14  -5   62.16    8.42
   0  14  -5   52.70    7.71
   0  14  -5   62.15    8.42
   0 -14   5   58.82    8.69
   0 -14   5   47.37    7.94
   0 -14   5   53.42    7.00
   0 -14   5   29.34   21.06
  -1  14  -5    2.37    3.09
  -1  14  -5   -3.12    2.20
  -1  14  -5    0.52    2.84
   1 -14   5   -0.24    2.19
   1 -14   5   -2.02    8.95
   1 -14   5    2.24    2.95
   1 -14   5   -1.49    1.79
  -2  14  -5    5.34    3.85
  -2  14  -5   -2.56    2.69
  -2  14  -5    7.98    4.66
   2 -14   5   -0.25   12.50
   2 -14   5    0.41    3.18
   2  13  -5    1.55    2.47
  -2 -13   5    2.43    2.79
  -2 -13   5    5.65    3.27
  -2 -13   5    5.49    3.58
  -2 -13   5    0.28   11.44
  -2 -13   5    0.22    2.75
  -2 -13   5    2.14    2.64
   1  13  -5   86.20    9.10
   1  13  -5   82.99    8.92
  -1 -13   5   75.57    7.69
  -1 -13   5   68.25    8.70
  -1 -13   5   76.17    9.15
  -1 -13   5   74.98    8.48
  -1 -13   5   75.85    9.07
  -1 -13   5   58.29   27.84
   0  13  -5    6.17    3.17
   0  13  -5    6.90    3.54
   0  13  -5   11.93    4.02
   0 -13   5    4.99    3.40
   0 -13   5    8.50    3.08
   0 -13   5    9.85    3.65
   0 -13   5    5.66   11.85
  -1  13  -5    2.73    3.08
  -1  13  -5   -0.83    1.86
  -1  13  -5   -0.14    2.56
   1 -13   5   -1.07    2.08
   1 -13   5   -2.36    1.87
   1 -13   5   -1.42    1.71
   1 -13   5   -0.59    9.96
  -2  13  -5   30.25    6.15
  -2  13  -5   30.62    5.79
  -2  13  -5   37.30    7.34
   2 -13   5   38.32    6.87
   2 -13   5   24.59   18.56
   2 -13   5   36.09    6.98
  -3 -12   5    0.06    9.81
   2  12  -5    0.79    2.16
  -2 -12   5    1.29    9.93
  -2 -12   5    3.23    2.94
  -2 -12   5    2.28    2.48
  -2 -12   5    1.50    2.52
  -2 -12   5    2.51    3.17
  -2 -12   5   -0.23    2.30
   1  12  -5   48.73    6.02
   1  12  -5   62.50    7.30
   1  12  -5   53.78    6.82
  -1 -12   5   63.41    7.89
  -1 -12   5   47.66    5.99
  -1 -12   5   41.24   22.09
  -1 -12   5   58.82    7.78
  -1 -12   5   44.33    6.38
  -1 -12   5   56.47    7.83
   0  12  -5    1.98    2.21
   0  12  -5    1.12    2.48
   0  12  -5    2.88    2.24
   0 -12   5    3.76    1.67
   0 -12   5    1.52    2.35
   0 -12   5    0.91    2.01
   0 -12   5   -0.56    8.48
   0 -12   5    2.37    2.38
   0 -12   5    2.19    2.38
  -1  12  -5   76.88    9.33
  -1  12  -5   81.92    9.14
   1 -12   5   82.58    8.45
   1 -12   5   80.80   30.51
   1 -12   5   92.09   10.33
   1 -12   5   83.95    7.05
   1 -12   5   78.25    8.22
  -2  12  -5   22.43    5.72
  -2  12  -5   31.85    6.06
  -2  12  -5   19.42    4.72
   2 -12   5   12.87   14.47
   2 -12   5   25.62    5.62
   2 -12   5   13.77    4.77
  -3  12  -5   -0.55    2.60
  -3  12  -5    2.77    3.05
  -3  12  -5    8.32    4.40
   3 -12   5    1.42   11.22
   3 -12   5    2.27    3.33
   3 -12   5    4.02    3.52
  -3 -11   5   -1.54    2.49
  -3 -11   5   -2.34    2.40
  -3 -11   5   -1.85    2.40
  -3 -11   5    4.76   12.34
  -3 -11   5    0.23    2.46
   2  11  -5   66.50    7.50
   2  11  -5   71.75    5.98
  -2 -11   5   45.41   24.30
  -2 -11   5   74.47    8.63
  -2 -11   5   65.62    8.65
  -2 -11   5   57.98    7.47
  -2 -11   5   68.27    8.66
  -2 -11   5   65.51    7.44
   1  11  -5    6.90    2.41
   1  11  -5    4.89    2.43
   1  11  -5    2.56    2.17
  -1 -11   5    4.68    2.40
  -1 -11   5    0.58    7.31
  -1 -11   5    6.31    2.89
  -1 -11   5    5.38    2.89
  -1 -11   5    1.91    2.34
  -1 -11   5    4.65    2.62
   0  11  -5  313.21   15.64
   0  11  -5  319.75   16.00
   0  11  -5  326.48   15.75
   0 -11   5  314.89   12.88
   0 -11   5  299.56   16.65
   0 -11   5  307.52   15.02
   0 -11   5  287.66   15.16
   0 -11   5  253.66   42.55
   0 -11   5  312.45   15.73
  -1  11  -5    1.20    2.40
  -1  11  -5    2.53    2.11
  -1  11  -5    0.73    1.89
   1 -11   5    2.22    2.78
   1 -11   5    1.99    1.30
   1 -11   5   -0.11    1.81
   1 -11   5   -0.02    8.60
   1 -11   5    1.86    1.90
   1 -11   5    1.60    2.22
  -2  11  -5   10.60    3.87
  -2  11  -5    5.12    2.97
  -2  11  -5    6.58    3.39
  -2  11  -5    7.04    3.16
   2 -11   5    9.25    4.18
   2 -11   5    8.08   11.67
   2 -11   5    4.07    2.79
  -3  11  -5    3.78    3.39
  -3  11  -5    2.76    3.08
  -3  11  -5    0.97    2.52
  -3  11  -5    0.93    2.61
   3 -11   5   -2.24    9.30
   3 -11   5    0.13    2.54
   3 -11   5    1.81    3.00
  -3 -10   5    1.17    2.86
  -3 -10   5    1.03    9.41
  -3 -10   5    2.59    2.88
  -3 -10   5    5.90    3.65
  -3 -10   5    4.10    3.23
   2  10  -5    0.77    1.81
   2  10  -5    1.16    1.77
  -2 -10   5    5.02    2.70
  -2 -10   5    4.35    2.83
  -2 -10   5    1.60    2.17
  -2 -10   5    6.03   10.99
  -2 -10   5    2.43    2.72
  -2 -10   5   -0.27    2.08
   1  10  -5    4.01    1.89
   1  10  -5    5.94    2.55
   1  10  -5    4.15    2.25
  -1 -10   5    3.19    2.15
  -1 -10   5    4.18    9.34
  -1 -10   5    4.53    2.24
  -1 -10   5    4.05    2.56
  -1 -10   5    3.91    2.40
  -1 -10   5    3.45    2.61
   0  10  -5   92.65    7.51
   0  10  -5   94.89    7.23
   0 -10   5   74.91    8.11
   0 -10   5   80.65    6.94
   0 -10   5   89.56    5.51
   0 -10   5   80.77   25.47
   0 -10   5   85.57    8.92
   0 -10   5   90.43    6.89
   0 -10   5   78.26    6.68
  -1  10  -5   37.60    5.70
  -1  10  -5   36.32    5.48
  -1  10  -5   29.13    5.41
   1 -10   5   23.42    4.18
   1 -10   5   25.48    4.55
   1 -10   5   36.64    6.23
   1 -10   5   32.75    2.68
   1 -10   5   26.11    4.12
   1 -10   5   40.21   19.63
  -2  10  -5  107.68    8.39
  -2  10  -5   76.55    9.46
  -2  10  -5   93.64    9.68
  -2  10  -5   90.77    9.50
   2 -10   5   63.31   24.61
   2 -10   5   85.52    9.42
   2 -10   5   92.56    9.49
  -3  10  -5   39.43    6.40
  -3  10  -5   37.22    7.18
  -3  10  -5   30.95    6.14
  -3  10  -5   44.31    7.26
   3 -10   5   32.42    6.46
   3 -10   5   46.36    7.31
   3 -10   5   35.20   19.43
  -3  -9   5  155.95   10.83
  -3  -9   5  145.51   11.51
  -3  -9   5  148.24   11.47
  -3  -9   5  153.79   11.60
   2   9  -5  362.63   15.30
   2   9  -5  341.09   15.66
  -2  -9   5  346.70   17.55
  -2  -9   5  364.13   18.13
  -2  -9   5  336.86   16.59
  -2  -9   5  362.54   16.14
  -2  -9   5  394.59   18.12
   1   9  -5   90.24    6.03
   1   9  -5  104.56    7.28
   1   9  -5   96.78    5.36
   1   9  -5  111.15    7.14
   1   9  -5   81.60   11.15
  -1  -9   5  110.74    8.04
  -1  -9   5   99.78    7.71
  -1  -9   5  103.31    7.24
  -1  -9   5  103.00    7.60
   0   9  -5    0.71    1.65
   0   9  -5    0.42    2.02
   0   9  -5    3.42    2.34
   0  -9   5    0.51    1.87
   0  -9   5    2.42    1.92
   0  -9   5    0.76    1.48
   0  -9   5   -0.13    1.26
   0  -9   5    2.15    1.93
   0  -9   5    1.84    7.32
   0  -9   5    1.20    1.55
  -1   9  -5    2.65    2.04
  -1   9  -5    1.70    1.81
  -1   9  -5    2.80    2.12
   1  -9   5    0.86    0.87
   1  -9   5    2.36    7.89
   1  -9   5    1.67    0.75
   1  -9   5    1.51    2.20
   1  -9   5   -0.13    1.58
   1  -9   5    0.77    1.70
   1  -9   5    1.40    1.63
   1  -9   5    1.71    0.93
  -2   9  -5    3.99    2.57
  -2   9  -5    7.79    2.88
  -2   9  -5   12.45    3.93
  -2   9  -5   12.74    3.51
   2  -9   5    9.23    3.50
   2  -9   5    5.03    9.06
   2  -9   5    4.88    2.97
  -3   9  -5   94.73   10.48
  -3   9  -5   83.55    9.31
  -3   9  -5   81.43    8.81
  -3   9  -5   79.58    9.73
   3  -9   5   70.29    8.55
   3  -9   5   69.26    9.15
   3  -9   5   44.91   20.31
  -4  -8   5  132.61   11.72
  -4  -8   5  158.46   11.91
  -4  -8   5  143.48   12.59
  -4  -8   5  144.50   11.97
  -3  -8   5  305.09   17.39
  -3  -8   5  334.37   16.51
  -3  -8   5  301.28   16.98
  -3  -8   5  311.99   17.07
   2   8  -5   32.84    4.18
   2   8  -5   23.87    3.54
  -2  -8   5   28.76    5.01
  -2  -8   5   20.50    4.30
  -2  -8   5   25.33    3.90
  -2  -8   5   24.02    4.21
  -2  -8   5   22.31    4.57
   1   8  -5   -0.42    1.44
   1   8  -5    0.62    2.50
   1   8  -5    1.97    1.50
   1   8  -5    3.38    1.15
   1   8  -5   -0.55    0.74
  -1  -8   5    0.40    1.36
  -1  -8   5    3.92    2.13
  -1  -8   5    0.07    1.59
  -1  -8   5    2.82    2.03
   0   8  -5    4.92    2.77
   0   8  -5    4.90    2.27
   0   8  -5    4.64    1.97
   0  -8   5    7.81    2.42
   0  -8   5    7.65    3.11
   0  -8   5    4.48    8.22
   0  -8   5    4.78    2.45
   0  -8   5    8.11    2.11
   0  -8   5    5.45    2.04
   0  -8   5    9.09    2.46
  -1   8  -5  421.85   19.32
  -1   8  -5  463.51   19.29
  -1   8  -5  419.76   18.74
  -1   8  -5  423.76   16.92
   1  -8   5  454.27   18.72
   1  -8   5  458.60   19.98
   1  -8   5  449.38   14.98
   1  -8   5  423.04   45.05
   1  -8   5  436.67   18.05
   1  -8   5  446.93   14.94
   1  -8   5  438.28   14.84
   1  -8   5  443.94   17.62
  -2   8  -5   19.86    4.08
  -2   8  -5   20.76    4.87
  -2   8  -5   15.52    3.63
  -2   8  -5   14.93    3.64
   2  -8   5   18.21    3.96
   2  -8   5   22.66    4.49
   2  -8   5   14.12    3.87
   2  -8   5   20.43   12.92
  -3   8  -5  578.20   25.30
  -3   8  -5  586.34   25.97
  -3   8  -5  573.22   25.79
  -3   8  -5  584.97   24.86
   3  -8   5  598.51   26.11
   3  -8   5  603.63   25.32
   3  -8   5  446.64   48.20
  -4   8  -5   96.77   10.84
  -4   8  -5  105.61   11.04
  -4   8  -5  122.00   12.70
  -4   8  -5  114.92   12.35
   4  -8   5  126.58   13.37
  -4  -7   5   59.28    9.19
  -4  -7   5   80.71    9.86
  -4  -7   5   72.67    9.59
  -4  -7   5   74.64    9.21
  -3  -7   5   22.05    4.74
  -3  -7   5   27.59    5.10
  -3  -7   5   30.49    5.90
  -3  -7   5   29.95    5.20
   2   7  -5  259.08   22.14
   2   7  -5  262.65   10.12
   2   7  -5  270.42   11.69
   2   7  -5  268.39   11.95
  -2  -7   5  272.76   13.86
  -2  -7   5  255.48   12.00
  -2  -7   5  270.24   11.38
  -2  -7   5  255.19   13.65
  -2  -7   5  276.82   12.94
   1   7  -5  471.87   27.15
   1   7  -5  477.87   16.35
   1   7  -5  488.24   18.20
   1   7  -5  486.61   19.14
  -1  -7   5  478.78   17.94
  -1  -7   5  475.49   19.64
  -1  -7   5  466.68   19.68
  -1  -7   5  486.80   18.74
  -1  -7   5  476.88   19.36
   0   7  -5    1.09    1.30
   0   7  -5    0.79    1.10
   0   7  -5   -1.03    1.36
   0   7  -5    0.09    1.31
   0   7  -5   -0.43    1.23
   0  -7   5   -0.67    0.88
   0  -7   5   -0.28    1.50
   0  -7   5   -0.86    1.12
   0  -7   5   -0.35    1.26
   0  -7   5    0.44    1.20
   0  -7   5    1.66    1.16
  -1   7  -5   85.71    5.41
  -1   7  -5   88.99    6.61
  -1   7  -5   97.87    6.52
  -1   7  -5   84.63    6.85
  -1   7  -5   82.37    6.46
   1  -7   5   86.10    6.07
   1  -7   5   98.25   20.20
   1  -7   5   88.29    4.36
   1  -7   5   89.98    5.62
   1  -7   5   92.06    7.10
   1  -7   5   93.02    3.99
   1  -7   5  101.08    6.80
  -2   7  -5  100.71    5.04
  -2   7  -5   92.80    7.38
  -2   7  -5  109.20    7.99
  -2   7  -5   94.09    7.49
  -2   7  -5  107.48    8.10
  -2   7  -5   90.26    7.45
  -2   7  -5  105.12    5.50
  -2   7  -5   81.17    7.32
   2  -7   5  103.55    7.98
   2  -7   5   74.17   21.01
   2  -7   5  101.02    6.18
   2  -7   5  100.86    5.00
   2  -7   5  107.53    8.04
  -3   7  -5    0.84    2.20
  -3   7  -5    1.33    2.31
  -3   7  -5    0.75    2.22
  -3   7  -5   -1.79    2.03
   3  -7   5    0.83    1.92
   3  -7   5   -0.62    2.00
   3  -7   5    0.91    6.28
  -4   7  -5   -0.56    2.64
  -4   7  -5    1.38    2.70
  -4   7  -5   -1.50    2.54
  -4   7  -5    2.08    3.19
   4  -7   5   -2.53    2.77
  -4  -6   5  251.22   16.19
  -4  -6   5  289.92   16.45
  -4  -6   5  256.02   15.41
  -4  -6   5  222.56   14.39
  -3  -6   5  462.98   21.59
  -3  -6   5  503.37   22.53
  -3  -6   5  486.04   21.84
  -3  -6   5  452.18   20.30
   2   6  -5    0.33    3.31
   2   6  -5    0.07    1.18
   2   6  -5    1.08    0.91
   2   6  -5    0.56    0.75
  -2  -6   5    0.07    1.17
  -2  -6   5   -0.68    1.22
  -2  -6   5    2.35    1.07
  -2  -6   5    0.38    1.59
  -2  -6   5   -0.65    1.31
   1   6  -5    4.99    0.98
   1   6  -5    5.74    1.39
   1   6  -5    7.64    4.11
   1   6  -5    5.97    1.92
  -1  -6   5    4.10    1.85
  -1  -6   5    6.29    2.00
  -1  -6   5    4.27    1.56
  -1  -6   5    4.75    1.88
  -1  -6   5    4.47    1.36
   0   6  -5  217.26   13.22
   0   6  -5  214.98   10.63
   0   6  -5  226.41   11.00
   0   6  -5  217.49    9.40
   0   6  -5  222.77    9.97
   0   6  -5  207.11    9.73
   0  -6   5  211.62    9.88
   0  -6   5  203.98   10.86
   0  -6   5  199.52    9.97
   0  -6   5  204.37    9.59
   0  -6   5  238.05   13.27
   0  -6   5  227.68    9.56
  -1   6  -5  165.82    8.92
  -1   6  -5  152.83    8.69
  -1   6  -5  163.25    9.57
  -1   6  -5  156.79    9.23
  -1   6  -5  146.07    8.74
  -1   6  -5  168.27    7.43
   1  -6   5  157.11    8.33
   1  -6   5  160.73    8.80
   1  -6   5  164.41    6.06
   1  -6   5  151.77   22.41
   1  -6   5  149.83    7.29
   1  -6   5  160.09    9.37
   1  -6   5  154.70    8.39
   1  -6   5  157.63    6.70
  -2   6  -5   53.08    3.66
  -2   6  -5   38.33    5.06
  -2   6  -5   53.45    6.47
  -2   6  -5   40.78    3.02
  -2   6  -5   53.10    6.11
  -2   6  -5   47.01    5.82
   2  -6   5   45.31   14.74
   2  -6   5   58.51    6.56
   2  -6   5   47.53    3.88
   2  -6   5   44.45    3.49
  -3   6  -5  213.60   12.62
  -3   6  -5  193.87    9.98
  -3   6  -5  193.99   12.28
  -3   6  -5  223.69   13.31
  -3   6  -5  204.63   12.54
   3  -6   5  206.13   11.82
   3  -6   5  215.17   13.09
  -4   6  -5  112.01   11.85
  -4   6  -5   86.25   10.99
  -4   6  -5  119.06   11.78
  -4   6  -5  103.81    9.74
  -4   6  -5  103.87   10.62
   4  -6   5  133.06   13.02
  -4  -5   5   85.47    9.20
  -4  -5   5   71.93    8.80
  -4  -5   5   74.84    8.88
  -4  -5   5   90.99   10.75
   3   5  -5   34.97   10.72
  -3  -5   5   24.98    4.86
  -3  -5   5   36.50    5.68
  -3  -5   5   27.24    4.56
  -3  -5   5   23.52    4.65
   2   5  -5  108.20   13.69
   2   5  -5  118.18    6.98
  -2  -5   5  103.43    6.59
  -2  -5   5  108.70    5.31
  -2  -5   5  110.26    5.94
  -2  -5   5  106.94    7.39
  -2  -5   5  122.21    7.93
   1   5  -5  700.44   25.68
   1   5  -5  724.88   24.06
   1   5  -5  736.01   25.70
   1   5  -5  770.04   34.32
   1   5  -5  694.48   23.87
   1   5  -5  688.55   22.66
  -1  -5   5  708.69   24.82
  -1  -5   5  721.36   26.12
  -1  -5   5  699.33   23.90
  -1  -5   5  716.07   25.81
  -1  -5   5  713.03   26.14
  -1  -5   5  716.66   22.75
  -1  -5   5  764.29   36.72
   0   5  -5   35.05    4.20
   0   5  -5   34.47    3.32
   0   5  -5   31.18    3.38
   0   5  -5   34.94    4.86
   0   5  -5   40.74    5.37
   0   5  -5   29.39    3.97
   0   5  -5   36.09    3.58
   0  -5   5   35.73    4.24
   0  -5   5   33.09    4.12
   0  -5   5   40.58    3.17
   0  -5   5   34.70    4.83
   0  -5   5   29.71    3.24
   0  -5   5   31.50    3.53
   0  -5   5   37.73    3.06
   0  -5   5   31.36    4.20
  -1   5  -5  603.91   21.02
  -1   5  -5  608.62   20.70
  -1   5  -5  617.71   23.36
  -1   5  -5  654.06   23.65
  -1   5  -5  602.52   22.88
  -1   5  -5  621.12   25.05
   1  -5   5  622.07   23.72
   1  -5   5  597.99   19.94
   1  -5   5  652.15   44.98
   1  -5   5  612.36   22.63
   1  -5   5  605.69   22.92
   1  -5   5  596.58   20.78
   1  -5   5  576.28   22.20
   1  -5   5  619.41   20.84
  -2   5  -5   92.68    7.09
  -2   5  -5   93.92    6.97
  -2   5  -5   88.31    6.91
  -2   5  -5   96.80    4.13
  -2   5  -5   93.84    3.88
  -2   5  -5  109.16    5.87
   2  -5   5   85.09    6.74
   2  -5   5   97.28    5.47
   2  -5   5   99.59    5.60
  -3   5  -5  271.67   14.85
  -3   5  -5  286.11   14.50
  -3   5  -5  260.99   14.15
  -3   5  -5  258.86   14.53
  -3   5  -5  260.44   12.45
   3  -5   5  265.94   14.86
   3  -5   5  267.61   13.40
  -4   5  -5   35.40    6.23
  -4   5  -5   26.63    5.49
  -4   5  -5   32.55    6.68
  -4   5  -5   18.73    5.09
  -4   5  -5   20.43    5.12
   4  -5   5   44.87    7.52
  -4  -4   5   15.43    4.63
  -4  -4   5   12.03    3.81
  -4  -4   5   20.62    4.62
  -4  -4   5   16.80    4.44
  -4  -4   5   20.92    5.32
   3   4  -5  177.62   20.07
  -3  -4   5  207.03   11.22
  -3  -4   5  213.38   12.07
  -3  -4   5  206.25   12.01
  -3  -4   5  222.16   11.28
   2   4  -5  111.06   13.48
   2   4  -5  136.64    7.62
  -2  -4   5  138.29    8.27
  -2  -4   5  132.17    7.91
  -2  -4   5  124.83    7.03
  -2  -4   5  125.95    6.19
  -2  -4   5  128.45    5.45
  -2  -4   5  121.26    7.36
   1   4  -5  113.00    4.87
   1   4  -5  130.88   11.41
   1   4  -5  116.44    6.41
   1   4  -5  112.31    5.48
   1   4  -5  112.12    6.48
   1   4  -5  110.91    5.12
   1   4  -5  113.37    4.65
  -1  -4   5  117.02    7.83
  -1  -4   5  123.71    6.75
  -1  -4   5  113.72    4.22
  -1  -4   5  109.23    5.46
  -1  -4   5  112.30    6.31
  -1  -4   5  106.09    4.73
  -1  -4   5  110.41    6.51
  -1  -4   5  113.58   10.47
   0   4  -5    6.72    2.79
   0   4  -5    7.80    2.21
   0   4  -5    5.90    1.94
   0   4  -5    5.33    1.48
   0   4  -5    4.49    1.31
   0   4  -5    6.70    2.06
   0   4  -5    6.36    1.57
   0   4  -5    7.38    1.63
   0   4  -5    6.29    1.62
   0  -4   5    5.64    1.63
   0  -4   5    6.74    1.67
   0  -4   5    5.24    1.48
   0  -4   5    9.49    1.75
   0  -4   5    8.47    1.78
   0  -4   5    9.35    3.16
   0  -4   5    7.78    2.13
   0  -4   5    9.77    2.24
   0  -4   5    7.24    2.23
  -1   4  -5    9.79    2.27
  -1   4  -5    9.74    1.81
  -1   4  -5   13.27    3.42
  -1   4  -5   12.68    1.57
  -1   4  -5   13.43    2.73
  -1   4  -5    7.86    2.10
  -1   4  -5   11.47    1.43
  -1   4  -5   11.95    2.23
   1  -4   5    8.44    2.15
   1  -4   5   12.81    2.01
   1  -4   5   13.21    2.34
   1  -4   5   12.54    2.56
   1  -4   5   11.82    2.30
   1  -4   5   11.51    1.47
   1  -4   5    9.96    1.40
  -2   4  -5   27.59    4.12
  -2   4  -5   28.86    3.49
  -2   4  -5   25.40    2.48
  -2   4  -5   21.20    3.82
  -2   4  -5   24.47    3.92
   2  -4   5   25.18    3.29
   2  -4   5   29.10    2.79
   2  -4   5   25.28    3.93
   2  -4   5   24.59    8.36
   2  -4   5   24.04    4.00
  -3   4  -5  113.19    7.46
  -3   4  -5  106.11    8.82
  -3   4  -5  113.56    8.15
  -3   4  -5  116.08    8.56
  -3   4  -5  109.89    9.16
   3  -4   5  119.50    7.75
   3  -4   5   92.89   13.81
   3  -4   5   99.29    8.41
  -4   4  -5  216.06   14.55
  -4   4  -5  212.35   13.33
  -4   4  -5  214.88   14.94
  -4   4  -5  185.56   12.03
  -4   4  -5  217.68   12.74
   4  -4   5  211.90   13.93
  -4  -3   5   72.79    8.51
  -4  -3   5   61.81    7.79
  -4  -3   5   90.98   10.56
  -4  -3   5   67.37    7.85
  -4  -3   5   63.71    7.94
   3   3  -5   17.84    7.62
  -3  -3   5   18.95    3.51
  -3  -3   5   15.18    3.46
  -3  -3   5   10.43    3.00
  -3  -3   5   17.40    3.60
   2   3  -5  267.28   12.72
  -2  -3   5  254.11   11.68
  -2  -3   5  236.40   11.37
  -2  -3   5  225.93   11.56
  -2  -3   5  233.87    9.53
  -2  -3   5  237.12    8.44
  -2  -3   5  233.96   10.30
   1   3  -5   43.78    3.63
   1   3  -5   60.00    7.66
   1   3  -5   45.11    2.82
   1   3  -5   44.68    3.83
   1   3  -5   46.69    2.84
   1   3  -5   42.05    2.09
   1   3  -5   41.34    3.57
   1   3  -5   41.55    2.03
   1   3  -5   40.35    3.92
  -1  -3   5   41.40    3.91
  -1  -3   5   44.41    3.54
  -1  -3   5   56.78    7.19
  -1  -3   5   40.45    3.75
  -1  -3   5   41.52    3.80
  -1  -3   5   44.48    2.85
  -1  -3   5   40.89    2.13
  -1  -3   5   44.07    3.67
  -1  -3   5   39.84    2.67
   0   3  -5  194.37    8.88
   0   3  -5  203.04   12.11
   0   3  -5  184.94    8.62
   0   3  -5  193.35    7.54
   0   3  -5  189.10    7.88
   0   3  -5  195.47    8.20
   0   3  -5  193.79    7.98
   0   3  -5  188.58    7.85
   0   3  -5  187.80    9.03
   0  -3   5  177.68    8.32
   0  -3   5  186.56    7.86
   0  -3   5  190.04    7.95
   0  -3   5  187.75    8.16
   0  -3   5  189.68    8.98
   0  -3   5  206.75   11.84
   0  -3   5  198.17    7.98
   0  -3   5  186.05    8.99
   0  -3   5  191.88    8.20
   0  -3   5  188.24    8.71
  -1   3  -5  305.09   11.18
  -1   3  -5  313.32   13.26
  -1   3  -5  273.40   11.63
  -1   3  -5  290.63   12.63
  -1   3  -5  292.68   12.12
  -1   3  -5  312.30   12.80
  -1   3  -5  304.28   16.07
  -1   3  -5  304.71   12.70
   1  -3   5  301.66   12.26
   1  -3   5  305.39   10.03
   1  -3   5  302.79   11.82
   1  -3   5  307.17   11.16
   1  -3   5  311.29   12.82
   1  -3   5  296.79   13.02
   1  -3   5  308.22   13.09
  -2   3  -5   61.16    5.07
  -2   3  -5   65.14    5.74
  -2   3  -5   62.42    4.01
  -2   3  -5   55.50    5.67
  -2   3  -5   53.76    4.46
  -2   3  -5   58.35    3.82
   2  -3   5   66.90    4.13
   2  -3   5   63.83    5.42
   2  -3   5   58.16    9.14
   2  -3   5   72.85    5.44
  -3   3  -5  334.94   16.52
  -3   3  -5  341.29   17.59
  -3   3  -5  350.84   16.07
  -3   3  -5  362.27   18.03
  -3   3  -5  356.15   16.04
   3  -3   5  353.77   15.33
   3  -3   5  351.17   17.17
  -4   3  -5   68.88    8.24
  -4   3  -5   68.37    8.57
  -4   3  -5   65.91    9.46
  -4   3  -5   66.40    9.33
   4  -3   5   83.48    9.63
  -4  -2   5    5.59    2.94
  -4  -2   5    7.25    3.19
  -4  -2   5    6.17    2.68
  -4  -2   5   -0.28    2.44
  -4  -2   5    7.17    2.89
  -4  -2   5    6.97    3.26
  -4  -2   5   -1.13    1.90
   3   2  -5   41.80   11.38
  -3  -2   5   44.68    3.21
  -3  -2   5   55.65    4.29
  -3  -2   5   47.26    5.46
  -3  -2   5   47.22    5.59
  -3  -2   5   52.31    6.13
  -3  -2   5   59.17    4.97
  -3  -2   5   46.96    5.93
   2   2  -5   27.21    7.73
   2   2  -5   16.51    2.99
  -2  -2   5   15.53    2.42
  -2  -2   5   15.58    3.08
  -2  -2   5   17.07    3.02
  -2  -2   5   19.36    2.09
  -2  -2   5   24.59    1.47
  -2  -2   5   18.70    1.39
  -2  -2   5   17.90    1.83
  -2  -2   5   19.30    3.21
  -2  -2   5   26.43    3.81
   1   2  -5   71.10    3.96
   1   2  -5   77.12    3.46
   1   2  -5   82.10    8.70
   1   2  -5   76.10    2.99
   1   2  -5   78.02    5.07
  -1  -2   5   70.85    4.98
  -1  -2   5   74.33    3.38
  -1  -2   5   76.09    2.97
  -1  -2   5   76.61    4.88
  -1  -2   5   76.04    5.18
  -1  -2   5   71.27    3.98
  -1  -2   5   81.21    4.71
  -1  -2   5   71.68    7.90
  -1  -2   5   67.00    4.90
  -1  -2   5   77.09    3.51
   0   2  -5  790.01   26.32
   0   2  -5  788.91   27.20
   0   2  -5  865.16   32.53
   0   2  -5  815.99   26.33
   0   2  -5  787.22   26.92
   0   2  -5  782.29   27.17
   0   2  -5  797.19   27.60
   0   2  -5  791.19   26.72
   0  -2   5  818.99   31.79
   0  -2   5  796.96   26.12
   0  -2   5  783.56   26.70
   0  -2   5  780.31   26.70
   0  -2   5  790.12   26.71
   0  -2   5  791.99   26.36
   0  -2   5  787.19   26.21
   0  -2   5  767.47   27.14
   0  -2   5  781.24   27.04
   0  -2   5  784.38   27.49
  -1   2  -5  765.23   27.14
  -1   2  -5  768.83   27.41
  -1   2  -5  741.01   26.01
  -1   2  -5  761.39   26.51
  -1   2  -5  761.57   26.52
  -1   2  -5  761.01   26.43
  -1   2  -5  777.41   25.44
  -1   2  -5  755.73   25.99
  -1   2  -5  800.45   31.69
   1  -2   5  729.14   26.45
   1  -2   5  699.68   25.71
   1  -2   5  743.71   26.92
   1  -2   5  749.66   25.39
   1  -2   5  746.79   26.15
  -2   2  -5  227.62   10.69
  -2   2  -5  223.41    9.34
  -2   2  -5  227.65   11.83
  -2   2  -5  205.88   10.19
  -2   2  -5  220.09   11.07
  -2   2  -5  230.65   11.80
   2  -2   5  228.70    9.57
   2  -2   5  210.35   10.45
   2  -2   5  228.95   11.33
  -3   2  -5   53.17    6.98
  -3   2  -5   66.00    6.85
  -3   2  -5   45.08    6.33
  -3   2  -5   57.45    6.65
  -3   2  -5   50.35    5.64
   3  -2   5   63.57    5.13
   3  -2   5   72.13    7.74
  -4   2  -5    1.17    2.84
  -4   2  -5    3.56    3.08
  -4   2  -5    0.74    3.20
  -4   2  -5   -1.69    2.17
   4  -2   5    2.71    3.20
  -4  -1   5   10.55    3.47
  -4  -1   5   16.94    3.94
  -4  -1   5   17.60    4.49
  -4  -1   5   18.02    4.11
  -4  -1   5   11.24    3.45
  -4  -1   5   10.70    4.19
  -4  -1   5   27.40    5.50
  -4  -1   5   20.31    4.94
   3   1  -5  289.64   23.81
  -3  -1   5  241.56   10.45
  -3  -1   5  237.91   11.95
  -3  -1   5  250.53   13.23
  -3  -1   5  232.94    9.04
  -3  -1   5  242.06   11.40
  -3  -1   5  256.50   12.85
  -3  -1   5  228.71   12.78
  -3  -1   5  238.22    9.81
  -3  -1   5  239.70   11.91
  -3  -1   5  235.81   10.28
   2   1  -5   67.93    5.09
   2   1  -5   75.95   10.23
  -2  -1   5   70.04    5.33
  -2  -1   5   67.46    2.85
  -2  -1   5   58.05    5.18
  -2  -1   5   74.56    3.96
  -2  -1   5   68.58    4.11
  -2  -1   5   65.78    2.79
  -2  -1   5   65.23    3.82
  -2  -1   5   63.19    4.27
  -2  -1   5   70.72    4.88
  -2  -1   5   65.43    3.02
  -2  -1   5   59.91    5.20
  -2  -1   5   59.42    4.72
   1   1  -5  395.08   14.01
   1   1  -5  342.97   14.74
   1   1  -5  383.93   12.56
   1   1  -5  365.61   13.77
  -1  -1   5  431.22   20.82
  -1  -1   5  391.72   14.35
  -1  -1   5  386.98   15.02
  -1  -1   5  368.55   14.86
  -1  -1   5  366.01   13.88
  -1  -1   5  373.73   12.28
  -1  -1   5  373.41   15.15
  -1  -1   5  382.31   12.54
  -1  -1   5  377.63   13.89
   0   1  -5  362.61   13.87
   0   1  -5  358.44   12.08
   0   1  -5  363.34   13.13
   0   1  -5  378.17   18.24
   0   1  -5  353.08   13.61
   0   1  -5  354.30   13.52
   0   1  -5  358.78   14.09
   0   1  -5  362.67   13.02
   0   1  -5  360.61   13.20
   0   1  -5  350.62   13.50
   0   1  -5  338.55   13.45
   0  -1   5  355.66   13.17
   0  -1   5  377.01   17.79
   0  -1   5  349.18   13.09
   0  -1   5  346.07   12.86
   0  -1   5  349.07   13.42
   0  -1   5  350.36   14.10
   0  -1   5  437.21   31.11
   0  -1   5  333.48   13.37
   0  -1   5  351.87   13.86
   0  -1   5  358.47   13.53
   0  -1   5  337.08   13.32
  -1   1  -5  224.75    9.65
  -1   1  -5  201.64    9.45
  -1   1  -5  211.43    9.54
  -1   1  -5  199.26    8.92
  -1   1  -5  217.93    9.55
  -1   1  -5  207.73    9.10
  -1   1  -5  196.92    9.34
   1  -1   5  202.22    8.98
   1  -1   5  211.20    7.09
   1  -1   5  216.40    9.15
   1  -1   5  203.42    9.88
   1  -1   5  206.10    9.39
   1  -1   5  209.49    9.43
   1  -1   5  219.81    9.69
   1  -1   5  246.88   18.32
  -2   1  -5   71.33    5.91
  -2   1  -5   65.51    4.66
  -2   1  -5   56.75    5.73
  -2   1  -5   61.41    4.36
  -2   1  -5   50.14    5.28
  -2   1  -5   62.76    5.65
   2  -1   5   65.36    5.44
  -3   1  -5  121.96    9.65
  -3   1  -5  144.83   10.47
  -3   1  -5  144.30    7.98
  -3   1  -5  135.39    6.72
  -3   1  -5  148.43    9.73
  -3   1  -5  133.98    9.21
   3  -1   5  147.18    8.04
   3  -1   5  137.45    9.34
  -4   1  -5   58.05    7.99
  -4   1  -5   45.99    6.78
  -4   1  -5   49.89    7.76
  -4   1  -5   54.23    8.61
   4  -1   5   58.68    7.92
  -4   0   5    0.63    2.68
  -4   0   5    1.78    2.11
  -4   0   5    0.87    2.30
  -4   0   5   -0.16    1.84
  -4   0   5   -1.58    1.96
  -4   0   5   -1.42    1.96
  -4   0   5    0.25    1.93
  -4   0   5    2.38    2.45
  -4   0   5    0.58    2.31
   3   0  -5  496.58   33.12
  -3   0   5  530.28   21.10
  -3   0   5  564.45   22.84
  -3   0   5  548.61   20.49
  -3   0   5  538.89   19.21
  -3   0   5  515.97   20.33
  -3   0   5  543.95   18.77
  -3   0   5  542.93   23.23
  -3   0   5  549.14   18.23
  -3   0   5  533.71   22.22
  -3   0   5  537.84   21.49
   2   0  -5 1146.54   76.12
   2   0  -5 1177.20   49.08
  -2   0   5 1095.07   37.76
  -2   0   5 1128.58   38.86
  -2   0   5 1069.18   36.51
  -2   0   5 1067.18   39.15
  -2   0   5 1107.18   35.40
  -2   0   5 1114.47   37.26
  -2   0   5 1115.41   38.55
  -2   0   5 1122.73   37.11
  -2   0   5 1103.84   36.88
  -2   0   5 1136.91   36.42
   1   0  -5   52.26    3.64
   1   0  -5   57.25    3.26
   1   0  -5   49.07    2.45
   1   0  -5   49.34    4.18
  -1   0   5   46.06    3.54
  -1   0   5   44.41    3.76
  -1   0   5   55.64    2.59
  -1   0   5   40.91    5.90
  -1   0   5   53.51    2.88
  -1   0   5   49.42    3.97
  -1   0   5   55.28    3.41
  -1   0   5   44.46    3.97
  -1   0   5   51.02    3.11
   0   0  -5  929.85   33.96
   0   0  -5 1021.11   32.36
   0   0  -5 1037.37   33.24
   0   0  -5 1032.24   34.09
   0   0  -5 1031.00   33.38
   0   0  -5 1011.53   33.58
   0   0  -5 1051.61   34.39
   0   0  -5 1148.69   57.07
   0   0  -5  963.37   34.56
   0   0  -5  992.35   33.37
   0   0  -5 1026.91   39.81
   0   0   5 1032.79   39.15
   0   0   5 1011.55   32.37
   0   0   5 1036.76   33.62
   0   0   5 1027.19   33.33
   0   0   5 1023.36   33.78
   0   0   5 1052.63   34.49
   0   0   5 1029.38   33.41
   0   0   5 1090.49   54.45
   0   0   5  969.10   33.99
   0   0   5  979.49   33.73
  -1   0  -5  319.75   12.28
  -1   0  -5  324.95   13.07
  -1   0  -5  320.65   13.51
  -1   0  -5  321.15   13.14
  -1   0  -5  326.29   13.66
  -1   0  -5  331.25   13.09
  -1   0  -5  314.67   13.29
  -1   0  -5  338.82   13.33
   1   0   5  303.35   11.03
   1   0   5  308.67   13.07
   1   0   5  316.16   13.10
   1   0   5  327.10   13.78
   1   0   5  342.24   13.44
   1   0   5  332.94   21.24
   1   0   5  319.00   13.47
   1   0   5  341.43   13.17
   1   0   5  319.92   12.19
   1   0   5  318.00   12.99
  -2   0  -5  231.11    8.50
  -2   0  -5  232.57    9.96
  -2   0  -5  251.43   11.92
  -2   0  -5  245.12   10.96
  -2   0  -5  248.12   12.29
  -2   0  -5  229.57   11.44
   2   0   5  228.25    9.85
   2   0   5  259.62   11.95
   2   0   5  236.87    8.57
  -3   0  -5   47.91    6.44
  -3   0  -5   51.24    6.94
  -3   0  -5   64.94    4.85
  -3   0  -5   54.06    6.36
  -3   0  -5   65.66    4.92
  -3   0  -5   67.81    3.81
  -3   0  -5   56.04    6.77
  -3   0  -5   65.78    8.31
   3   0   5   49.59    6.18
   3   0   5   64.99    4.94
  -4   0  -5  199.55   14.45
  -4   0  -5  222.75   14.56
  -4   0  -5  223.20   15.48
  -4   0  -5  214.68   14.76
  -4   0  -5  214.15   13.15
   4   0   5  220.45   13.62
   4  -1  -5   66.57   15.43
  -4   1   5  103.30   10.08
  -4   1   5   74.27    8.85
  -4   1   5   79.96    8.77
  -4   1   5   89.43    8.12
  -4   1   5   89.59    9.32
  -4   1   5   85.11    8.89
  -4   1   5   89.59    7.32
  -4   1   5   99.95    8.28
  -4   1   5   65.74    7.74
  -4   1   5   87.90   10.16
   3  -1  -5  514.48   33.63
  -3   1   5  581.92   20.45
  -3   1   5  542.03   24.46
  -3   1   5  582.86   22.83
  -3   1   5  581.61   20.64
  -3   1   5  597.54   22.48
  -3   1   5  579.11   21.44
  -3   1   5  582.43   20.81
  -3   1   5  600.30   23.56
  -3   1   5  582.09   22.01
  -3   1   5  582.81   23.61
   2  -1  -5  788.20   61.02
   2  -1  -5  814.39   38.11
  -2   1   5  813.52   29.18
  -2   1   5  791.58   26.64
  -2   1   5  837.34   27.37
  -2   1   5  829.33   28.64
  -2   1   5  813.80   30.36
  -2   1   5  780.38   28.32
  -2   1   5  835.89   27.62
  -2   1   5  773.94   27.83
   1  -1  -5   38.25    3.59
   1  -1  -5   37.44    3.29
   1  -1  -5   35.81    2.32
   1  -1  -5   36.86    2.45
  -1   1   5   33.23    5.86
  -1   1   5   35.35    3.06
  -1   1   5   29.04    2.03
  -1   1   5   32.10    3.38
  -1   1   5   32.69    3.65
  -1   1   5   39.84    3.46
  -1   1   5   36.05    3.46
  -1   1   5   37.60    2.28
  -1   1   5   34.16    2.34
  -1   1   5   34.19    2.56
  -1   1   5   31.38    2.35
   0  -1  -5  194.32    8.28
   0  -1  -5  186.98    7.46
   0  -1  -5  185.75    8.46
   0  -1  -5  196.26    8.90
   0  -1  -5  192.35    7.79
   0  -1  -5  197.32    8.14
   0  -1  -5  195.39    9.60
   0  -1  -5  191.83    8.33
   0  -1  -5  191.70    9.27
   0   1   5  197.38    7.52
   0   1   5  185.30    9.09
   0   1   5  190.90    8.77
   0   1   5  194.96    8.61
   0   1   5  197.65   12.39
   0   1   5  184.02    7.91
   0   1   5  193.27    8.26
  -1  -1  -5  248.94   11.48
  -1  -1  -5  266.81   20.84
  -1  -1  -5  249.18   11.43
  -1  -1  -5  251.53    9.88
  -1  -1  -5  255.19   11.51
  -1  -1  -5  257.84   11.10
  -1  -1  -5  238.28   11.15
  -1  -1  -5  252.79   10.94
  -1  -1  -5  250.37   11.09
   1   1   5  257.85   11.52
   1   1   5  253.09    9.95
   1   1   5  255.25   10.76
   1   1   5  278.76   12.00
   1   1   5  260.22   19.51
   1   1   5  265.70    9.70
   1   1   5  253.98   11.28
   1   1   5  240.42   11.49
   1   1   5  269.47   11.26
   1   1   5  250.29   11.44
  -2  -1  -5  448.39   18.41
  -2  -1  -5  418.26   17.75
  -2  -1  -5  430.59   15.43
  -2  -1  -5  445.22   18.65
  -2  -1  -5  435.78   17.61
  -2  -1  -5  437.23   15.35
  -2  -1  -5  432.83   18.38
   2   1   5  437.33   15.45
   2   1   5  411.73   15.16
   2   1   5  439.32   17.87
  -3  -1  -5  411.90   15.35
  -3  -1  -5  407.35   18.58
  -3  -1  -5  413.33   15.29
  -3  -1  -5  420.24   19.66
  -3  -1  -5  384.42   19.49
  -3  -1  -5  447.15   20.22
  -3  -1  -5  408.14   20.49
  -3  -1  -5  416.16   17.41
   3   1   5  408.81   16.41
   3   1   5  431.63   18.85
  -4  -1  -5  153.07   12.13
  -4  -1  -5  125.95    9.94
  -4  -1  -5  142.68   12.44
  -4  -1  -5  120.18   12.30
  -4  -1  -5  140.30   13.86
   4   1   5  137.26   10.31
   4  -2  -5    0.03    5.13
  -4   2   5    4.50    2.60
  -4   2   5    6.06    3.09
  -4   2   5   -1.19    1.74
  -4   2   5    3.90    2.55
  -4   2   5    2.33    2.60
  -4   2   5    3.00    2.91
  -4   2   5   -0.02    2.62
  -4   2   5    3.07    2.57
  -4   2   5    0.87    2.15
  -4   2   5    0.91    2.10
   3  -2  -5   16.59   12.93
   3  -2  -5   17.44    7.70
  -3   2   5   24.02    3.15
  -3   2   5   26.12    3.54
  -3   2   5   17.25    3.66
  -3   2   5   15.36    3.87
  -3   2   5   18.67    2.98
  -3   2   5   25.09    3.76
  -3   2   5   20.63    3.59
  -3   2   5   20.29    3.84
  -3   2   5   19.94    4.64
  -3   2   5   19.47    4.03
  -3   2   5   21.50    3.70
   2  -2  -5    9.16    4.21
   2  -2  -5    2.51    7.84
  -2   2   5    7.82    2.29
  -2   2   5    9.44    2.22
  -2   2   5    7.51    2.58
  -2   2   5   11.36    2.19
  -2   2   5   12.87    2.02
  -2   2   5   14.85    1.92
  -2   2   5   11.48    2.43
   1  -2  -5  909.83   29.62
   1  -2  -5  927.23   28.25
   1  -2  -5  916.70   31.27
  -1   2   5  878.18   31.13
  -1   2   5  891.71   30.92
  -1   2   5  898.68   29.68
  -1   2   5  904.73   28.15
  -1   2   5  880.62   29.74
  -1   2   5  869.43   56.50
  -1   2   5  924.09   30.76
  -1   2   5  853.49   28.25
  -1   2   5  908.57   31.27
  -1   2   5  904.79   36.32
  -1   2   5  867.52   29.01
  -1   2   5  924.16   31.75
  -1   2   5  866.49   30.20
   0  -2  -5   16.62    2.46
   0  -2  -5   18.48    2.22
   0  -2  -5   16.51    2.13
   0  -2  -5   11.76    7.15
   0  -2  -5   16.14    2.53
   0  -2  -5   11.40    2.48
   0  -2  -5   15.99    2.34
   0  -2  -5   15.86    2.35
   0   2   5   16.36    2.42
   0   2   5   17.32    2.14
   0   2   5   19.27    2.70
   0   2   5   17.96    3.14
   0   2   5   22.84    3.06
   0   2   5   17.44    2.47
   0   2   5   20.13    2.75
   0   2   5   20.39    2.27
   0   2   5   10.25    6.17
   0   2   5   20.50    2.88
  -1  -2  -5  444.40   18.21
  -1  -2  -5  507.03   19.03
  -1  -2  -5  478.72   17.21
  -1  -2  -5  484.48   18.41
  -1  -2  -5  498.63   33.12
  -1  -2  -5  467.95   18.71
  -1  -2  -5  490.75   19.34
   1   2   5  485.43   17.20
   1   2   5  487.31   18.38
   1   2   5  493.08   18.89
   1   2   5  503.84   31.46
   1   2   5  484.57   17.78
   1   2   5  456.32   18.75
   1   2   5  473.16   16.64
   1   2   5  456.91   18.67
  -2  -2  -5  125.86   11.34
  -2  -2  -5  142.24    8.58
  -2  -2  -5  159.25    9.46
  -2  -2  -5  160.39    9.06
  -2  -2  -5  144.87    9.18
  -2  -2  -5  152.06    7.20
  -2  -2  -5  151.51    9.76
  -2  -2  -5  155.19    9.03
   2   2   5  156.41    8.75
   2   2   5  166.33    9.33
   2   2   5  155.52    7.13
   2   2   5  155.84    7.79
   2   2   5  158.45    6.21
  -3  -2  -5    1.21    1.87
  -3  -2  -5   -1.99    1.89
  -3  -2  -5   -1.62    1.64
  -3  -2  -5    0.86    2.49
  -3  -2  -5   -1.21    1.64
  -3  -2  -5    2.74    1.58
  -3  -2  -5   -1.00    2.25
   3   2   5    2.87    2.17
  -4  -2  -5    2.79    3.39
  -4  -2  -5    7.22    4.20
  -4  -2  -5    5.54    3.60
  -4  -2  -5   -1.41    2.11
  -4  -2  -5    5.13    4.23
   4   2   5    6.81    3.20
   4  -3  -5   -0.74    8.84
   4  -3  -5   -0.40    4.42
  -4   3   5   -1.64    2.29
  -4   3   5   -0.12    2.19
  -4   3   5    0.94    2.16
  -4   3   5    1.59    2.41
  -4   3   5    0.71    2.58
  -4   3   5   -0.51    1.94
  -4   3   5    5.44    3.02
  -4   3   5    0.14    1.88
  -4   3   5   -1.61    2.53
  -4   3   5   -1.16    2.13
  -4   3   5    0.26    2.72
   3  -3  -5   25.83   15.88
   3  -3  -5   42.64   10.09
  -3   3   5   61.07    6.63
  -3   3   5   49.83    7.09
  -3   3   5   59.08    6.25
  -3   3   5   53.66    4.20
  -3   3   5   42.19    5.55
  -3   3   5   57.41    7.19
  -3   3   5   52.07    4.42
  -3   3   5   56.95    4.71
   2  -3  -5   23.31    3.10
   2  -3  -5   16.97    5.24
   2  -3  -5   20.73    3.26
   2  -3  -5    7.36    8.79
  -2   3   5   23.96    3.07
  -2   3   5   14.05    3.18
  -2   3   5   22.51    3.84
  -2   3   5   22.32    3.34
  -2   3   5   22.83    1.89
  -2   3   5   22.87    2.08
  -2   3   5   20.26    3.58
  -2   3   5   26.19    3.74
   1  -3  -5  553.92   19.32
   1  -3  -5  556.93   20.98
  -1   3   5  543.76   20.92
  -1   3   5  544.24   20.81
  -1   3   5  541.04   25.02
  -1   3   5  535.72   18.71
  -1   3   5  526.50   19.26
  -1   3   5  530.51   20.07
  -1   3   5  507.01   19.10
  -1   3   5  530.73   20.53
  -1   3   5  512.17   19.97
   0  -3  -5  206.73   24.74
   0  -3  -5  156.02    7.83
   0  -3  -5  145.92    7.15
   0  -3  -5  154.43    6.91
   0  -3  -5  149.78    7.46
   0  -3  -5  150.56    7.70
   0  -3  -5  155.42    7.78
   0  -3  -5  154.75   11.75
   0  -3  -5  167.54    8.45
   0   3   5  155.69    6.09
   0   3   5  160.22    8.42
   0   3   5  160.72    8.05
   0   3   5  165.97    8.36
   0   3   5  194.08   22.92
   0   3   5  159.11    7.79
   0   3   5  154.11    7.22
   0   3   5  149.08    7.54
   0   3   5  154.16    7.56
   0   3   5  148.48    7.98
   0   3   5  151.77    8.57
  -1  -3  -5  490.50   17.68
  -1  -3  -5  516.67   19.62
  -1  -3  -5  502.80   18.75
  -1  -3  -5  465.44   35.13
  -1  -3  -5  514.20   19.92
  -1  -3  -5  526.27   19.98
  -1  -3  -5  509.63   19.57
  -1  -3  -5  510.30   20.78
   1   3   5  514.45   20.09
   1   3   5  512.60   18.70
   1   3   5  491.95   20.15
   1   3   5  511.14   19.26
   1   3   5  526.06   36.23
   1   3   5  531.23   19.55
   1   3   5  519.11   17.53
  -2  -3  -5   45.99    5.37
  -2  -3  -5   35.89    8.60
  -2  -3  -5   46.77    5.86
  -2  -3  -5   55.73    6.30
  -2  -3  -5   37.66    4.99
  -2  -3  -5   39.96    4.12
  -2  -3  -5   45.29    5.99
   2   3   5   52.23    5.45
   2   3   5   40.01    5.09
   2   3   5   47.27    3.93
   2   3   5   46.51    5.20
  -3  -3  -5   27.41    5.27
  -3  -3  -5   24.71    4.46
  -3  -3  -5   26.44    3.82
  -3  -3  -5   23.76    5.37
  -3  -3  -5   31.20    5.17
  -3  -3  -5   24.90    5.48
  -3  -3  -5   26.14    5.26
   3   3   5   40.70    5.63
  -4  -3  -5   58.11    9.09
  -4  -3  -5   64.30    9.90
  -4  -3  -5   49.59    7.85
  -4  -3  -5   66.27    9.63
  -4  -3  -5   62.44    7.73
   4   3   5   62.90    7.86
   4  -4  -5   19.37    8.53
   4  -4  -5   13.79   14.85
  -4   4   5   24.31    5.36
  -4   4   5   17.64    4.88
  -4   4   5   14.03    4.97
  -4   4   5   24.78    4.23
  -4   4   5   21.25    4.88
  -4   4   5   22.30    4.46
  -4   4   5   26.00    5.02
  -4   4   5   22.66    4.96
  -4   4   5   23.96    4.48
  -4   4   5   28.14    4.61
   3  -4  -5   29.44    8.54
  -3   4   5   55.95    4.22
  -3   4   5   58.25    7.40
  -3   4   5   58.89    6.38
  -3   4   5   55.59    6.93
  -3   4   5   55.52    5.73
  -3   4   5   43.98    5.29
  -3   4   5   56.04    3.93
  -3   4   5   46.08    7.16
   2  -4  -5    8.54    2.42
   2  -4  -5    5.84    8.18
   2  -4  -5   12.74    2.80
   2  -4  -5    8.03    4.02
  -2   4   5   10.42    1.19
  -2   4   5   12.23    2.45
  -2   4   5   10.44    2.18
  -2   4   5   10.36    1.20
  -2   4   5   14.67    2.83
  -2   4   5   11.92    2.54
  -2   4   5   11.09    2.37
  -2   4   5   10.55    2.82
   1  -4  -5  175.20    9.12
   1  -4  -5  174.72    8.40
   1  -4  -5  173.83    9.50
   1  -4  -5  194.87   13.04
  -1   4   5  172.94    8.48
  -1   4   5  162.78    9.30
  -1   4   5  170.34    8.76
  -1   4   5  173.03   12.06
  -1   4   5  163.51    7.86
  -1   4   5  157.33   10.12
  -1   4   5  160.13    9.15
   0  -4  -5 2565.95   87.55
   0  -4  -5 2390.74   77.91
   0  -4  -5 2412.70   79.47
   0  -4  -5 2392.29   78.84
   0  -4  -5 2605.05  116.64
   0  -4  -5 2516.02   79.35
   0   4   5 2511.22  112.95
   0   4   5 2481.39   79.97
   0   4   5 2538.91   80.26
   0   4   5 2440.41   80.42
   0   4   5 2479.94   79.09
  -1  -4  -5   81.13    5.26
  -1  -4  -5  103.37    6.29
  -1  -4  -5  109.39    6.97
  -1  -4  -5  104.30    4.92
  -1  -4  -5  108.34    6.90
  -1  -4  -5   99.13    6.53
  -1  -4  -5  103.56    7.67
  -1  -4  -5  104.52   17.89
  -1  -4  -5  102.10    6.77
   1   4   5   98.95    4.89
   1   4   5   87.68    6.80
   1   4   5   98.88    6.77
   1   4   5   95.47   16.36
   1   4   5  106.27    6.58
  -2  -4  -5   21.23    1.92
  -2  -4  -5   23.51    4.00
  -2  -4  -5   15.95    7.86
  -2  -4  -5   21.17    3.41
  -2  -4  -5   24.87    3.99
  -2  -4  -5   21.52    4.20
  -2  -4  -5   20.30    4.41
  -2  -4  -5   26.00    4.90
   2   4   5   20.97    3.62
   2   4   5   21.63    3.87
  -3  -4  -5   12.82    4.20
  -3  -4  -5    2.84    2.63
  -3  -4  -5    6.58    3.38
  -3  -4  -5    8.07    3.23
  -3  -4  -5    8.05    3.67
  -3  -4  -5    9.74    3.55
  -3  -4  -5    5.95    2.30
   3   4   5    9.57    3.13
  -4  -4  -5   11.10    4.54
  -4  -4  -5   14.67    4.12
  -4  -4  -5   20.16    5.52
  -4  -4  -5    9.75    4.82
  -4  -4  -5   24.19    6.52
  -4  -4  -5   10.11    3.95
   4   4   5   13.55    4.23
   4  -5  -5    7.77   14.93
  -4   5   5   15.20    4.44
  -4   5   5    6.73    4.01
  -4   5   5    7.99    3.08
  -4   5   5   10.74    4.50
  -4   5   5    7.44    3.47
  -4   5   5   10.85    3.31
   3  -5  -5  169.77    9.73
   3  -5  -5  136.89   14.92
   3  -5  -5  178.39    8.91
  -3   5   5  158.95    9.05
  -3   5   5  168.79    8.28
  -3   5   5  171.01    9.49
  -3   5   5  152.24   10.65
  -3   5   5  174.54    9.74
  -3   5   5  167.45   11.56
  -3   5   5  154.52    9.31
  -3   5   5  177.91   12.30
   2  -5  -5   39.34    5.08
   2  -5  -5   54.93    7.87
   2  -5  -5   55.90    5.19
  -2   5   5   51.51    4.09
  -2   5   5   45.77    5.97
  -2   5   5   46.24    5.99
  -2   5   5   49.00    5.16
  -2   5   5   50.15    6.36
  -2   5   5   49.43    3.78
  -2   5   5   49.00    5.12
   1  -5  -5  472.88   18.48
   1  -5  -5  440.03   22.30
   1  -5  -5  425.84   18.45
   1  -5  -5  416.82   16.65
  -1   5   5  422.30   18.17
  -1   5   5  429.43   17.39
  -1   5   5  437.66   21.78
  -1   5   5  413.94   17.25
  -1   5   5  418.70   16.18
  -1   5   5  451.21   18.79
   0  -5  -5   20.72    3.14
   0  -5  -5   22.47    2.71
   0  -5  -5   24.99    3.49
   0  -5  -5   28.14    4.20
   0  -5  -5   21.48    3.93
   0  -5  -5   14.77    2.75
   0  -5  -5   59.30   18.20
   0  -5  -5   33.05    6.76
   0   5   5   25.21    3.86
   0   5   5   29.97    4.16
   0   5   5   18.28    3.38
  -1  -5  -5    0.83    0.98
  -1  -5  -5    2.03    1.89
  -1  -5  -5   -0.28    1.33
  -1  -5  -5    2.02    1.45
  -1  -5  -5   -1.07    1.25
  -1  -5  -5    1.13    1.56
  -1  -5  -5    5.11    6.16
  -1  -5  -5   -0.04    1.60
   1   5   5    1.44    1.00
   1   5   5    1.24    1.57
   1   5   5    2.87    5.96
   1   5   5    0.60    0.94
   1   5   5    2.92    1.82
   1   5   5   -0.82    1.07
  -2  -5  -5   91.12    6.96
  -2  -5  -5  100.01    6.99
  -2  -5  -5   97.55    7.88
  -2  -5  -5   98.64    6.80
  -2  -5  -5   73.63   16.16
  -2  -5  -5   87.48    7.92
  -2  -5  -5   91.81    7.79
  -2  -5  -5   92.52    8.21
   2   5   5   86.34    6.82
   2   5   5   88.90    6.60
  -3  -5  -5    4.07    2.27
  -3  -5  -5    4.35    3.11
  -3  -5  -5    2.10    2.74
  -3  -5  -5    4.52    2.39
  -3  -5  -5    5.86    3.81
  -3  -5  -5    7.98    3.52
  -3  -5  -5    2.73    2.55
   3   5   5    7.89    2.98
  -4  -5  -5   43.74    7.78
  -4  -5  -5   45.15    6.68
  -4  -5  -5   35.55    7.03
  -4  -5  -5   45.25    7.84
  -4  -5  -5   49.82    9.22
  -4  -5  -5   44.90    8.59
   4  -6  -5   18.32   18.31
  -4   6   5   42.44    7.27
  -4   6   5   39.36    6.22
  -4   6   5   35.55    5.65
  -4   6   5   36.20    6.66
  -4   6   5   34.72    5.49
  -4   6   5   38.58    7.87
   3  -6  -5    0.84   10.43
   3  -6  -5    0.11    1.70
   3  -6  -5   -0.30    1.45
   3  -6  -5    3.25    4.07
  -3   6   5    1.50    2.39
  -3   6   5    0.69    1.75
  -3   6   5    0.30    2.36
  -3   6   5    0.22    1.50
  -3   6   5   -1.58    1.58
  -3   6   5   -1.49    1.75
   2  -6  -5  330.21   20.07
   2  -6  -5  273.73   40.94
   2  -6  -5  346.69   15.71
   2  -6  -5  332.96   15.63
  -2   6   5  322.45   12.57
  -2   6   5  331.24   21.10
  -2   6   5  350.69   14.70
  -2   6   5  331.89   16.44
  -2   6   5  323.00   16.69
  -2   6   5  340.92   15.10
  -2   6   5  329.98   16.54
  -2   6   5  320.45   13.09
   1  -6  -5   21.96    4.12
   1  -6  -5   17.38    4.82
   1  -6  -5   13.70    2.84
   1  -6  -5   16.23    2.57
   1  -6  -5   17.83    3.67
  -1   6   5   17.10    3.23
  -1   6   5   16.87    2.55
  -1   6   5   18.65    3.26
  -1   6   5   16.15    3.23
  -1   6   5   14.21    3.14
   0  -6  -5  514.04   19.99
   0  -6  -5  496.64   19.50
   0  -6  -5  487.81   26.12
   0  -6  -5  520.72   18.26
   0  -6  -5  491.93   20.79
   0  -6  -5  511.06   22.13
   0  -6  -5  484.28   47.97
   0   6   5  488.79   19.49
   0   6   5  509.12   20.69
   0   6   5  495.10   20.42
   0   6   5  523.47   19.30
   0   6   5  506.34   21.04
  -1  -6  -5    0.51    1.55
  -1  -6  -5    2.28    1.59
  -1  -6  -5    1.67    2.17
  -1  -6  -5    3.89    2.00
  -1  -6  -5    2.03    1.24
  -1  -6  -5    0.64    1.75
  -1  -6  -5    1.82    1.68
  -1  -6  -5   -0.09    1.58
  -1  -6  -5    3.32    6.72
   1   6   5    2.68    1.79
   1   6   5    1.30    1.12
   1   6   5    1.27    1.82
   1   6   5    0.84    1.07
  -2  -6  -5   39.99    6.02
  -2  -6  -5   46.38    6.62
  -2  -6  -5   50.81    6.88
  -2  -6  -5   38.71    5.26
  -2  -6  -5   29.64   13.25
  -2  -6  -5   57.23    7.83
  -2  -6  -5   56.21    6.16
  -2  -6  -5   41.96    5.76
  -2  -6  -5   48.28    5.75
   2   6   5   52.06    6.13
   2   6   5   48.66    5.70
  -3  -6  -5   32.34    5.12
  -3  -6  -5   23.44    5.25
  -3  -6  -5   32.49    6.66
  -3  -6  -5   39.48    6.91
  -3  -6  -5   30.70    5.65
  -3  -6  -5   30.93    6.02
  -3  -6  -5   32.34    6.53
  -3  -6  -5   22.82    4.62
   3   6   5   33.74    5.40
   4  -7  -5   31.63   22.50
  -4   7   5   71.29    8.09
  -4   7   5   69.46   10.07
  -4   7   5   67.85    9.73
  -4   7   5   78.97    9.84
   3  -7  -5  159.79   15.63
   3  -7  -5  211.58   12.23
   3  -7  -5  236.12   11.72
  -3   7   5  209.90   13.62
  -3   7   5  226.00   12.30
  -3   7   5  207.04   14.35
  -3   7   5  216.52   10.81
  -3   7   5  223.20   14.37
  -3   7   5  230.71   11.24
   2  -7  -5  247.25   13.18
   2  -7  -5  216.41   15.78
   2  -7  -5  248.04   12.99
  -2   7   5  245.83   14.09
  -2   7   5  228.75   11.40
  -2   7   5  230.50   13.61
  -2   7   5  254.88   14.10
  -2   7   5  220.83   18.17
  -2   7   5  227.63   12.24
   1  -7  -5   -0.66    1.79
   1  -7  -5    0.37    1.55
   1  -7  -5   -0.37    1.01
   1  -7  -5   -0.52    3.32
   1  -7  -5   -1.22    1.44
   1  -7  -5    2.68    1.95
  -1   7   5   -0.17    1.12
  -1   7   5    0.39    1.54
  -1   7   5    0.12    1.01
  -1   7   5    3.29    1.93
  -1   7   5    0.18    1.43
  -1   7   5    0.41    1.35
   0  -7  -5   71.79    7.41
   0  -7  -5   49.10   18.96
   0  -7  -5   51.68    5.57
   0  -7  -5   61.79    8.55
   0  -7  -5   47.42    6.49
   0  -7  -5   49.25    5.69
   0  -7  -5   57.77    4.19
   0  -7  -5   63.34    5.13
   0   7   5   54.18    6.38
   0   7   5   75.09    7.51
   0   7   5   61.63    4.81
   0   7   5   59.35    6.34
   0   7   5   46.40    5.11
  -1  -7  -5   12.65    3.23
  -1  -7  -5    5.27    2.90
  -1  -7  -5   12.24    3.27
  -1  -7  -5   10.20    3.01
  -1  -7  -5    7.01    8.76
  -1  -7  -5    8.85    2.79
  -1  -7  -5    8.20    2.79
  -1  -7  -5   13.97    3.11
  -1  -7  -5   16.08    2.57
   1   7   5   11.76    2.16
   1   7   5    7.56    2.73
   1   7   5   11.23    3.27
   1   7   5    8.31    2.83
  -2  -7  -5    3.23    2.18
  -2  -7  -5   -0.39    6.52
  -2  -7  -5    1.52    1.88
  -2  -7  -5    0.92    2.10
  -2  -7  -5    1.83    2.00
  -2  -7  -5    2.94    2.86
  -2  -7  -5    0.12    2.19
  -2  -7  -5    1.82    2.33
  -2  -7  -5    1.21    2.37
   2   7   5   -1.35    1.40
   2   7   5    3.52    2.21
  -3  -7  -5    5.47    3.04
  -3  -7  -5    6.48    3.79
  -3  -7  -5    3.68    3.85
  -3  -7  -5    7.14    3.22
  -3  -7  -5    7.05    4.17
  -3  -7  -5    4.64    3.42
  -3  -7  -5    4.05    3.49
  -3  -7  -5    6.81    2.97
   3   7   5   12.40    3.65
  -4   8   5   83.49   10.77
  -4   8   5   55.54    9.57
  -4   8   5   61.43    7.88
  -4   8   5   71.08    9.91
   3  -8  -5   58.47    7.42
   3  -8  -5   32.52   22.22
   3  -8  -5   53.81    7.27
  -3   8   5   46.52    7.26
  -3   8   5   44.83    7.49
  -3   8   5   48.67    7.65
  -3   8   5   47.35    6.55
   2  -8  -5    4.32    2.56
   2  -8  -5    3.43    3.29
   2  -8  -5    9.05    3.20
   2  -8  -5    1.00   10.33
  -2   8   5    4.44    2.79
  -2   8   5    4.67    2.01
  -2   8   5    4.69    2.62
  -2   8   5    3.55    2.52
  -2   8   5    2.04    2.22
   1  -8  -5   25.37    4.31
   1  -8  -5   43.69   21.11
   1  -8  -5   29.18    5.37
   1  -8  -5   21.71    3.17
   1  -8  -5   19.01    4.09
   1  -8  -5   23.57    5.83
  -1   8   5   21.97    4.25
  -1   8   5   20.18    4.02
  -1   8   5   26.66    4.75
  -1   8   5   20.57    4.42
  -1   8   5   22.95    3.14
  -1   8   5   17.32    3.42
   0  -8  -5   47.42    4.01
   0  -8  -5   39.55    5.49
   0  -8  -5   40.96    8.66
   0  -8  -5   47.57    5.28
   0  -8  -5   46.17    6.37
   0  -8  -5   36.42   18.06
   0  -8  -5   42.09    6.49
   0  -8  -5   46.89    4.08
   0  -8  -5   46.91    5.90
   0   8   5   58.45    7.18
   0   8   5   53.80    4.73
   0   8   5   56.93    6.03
   0   8   5   57.74    6.81
   0   8   5   34.95    5.13
  -1  -8  -5  143.00    8.93
  -1  -8  -5  159.47    9.54
  -1  -8  -5  128.43    8.99
  -1  -8  -5  106.93   25.28
  -1  -8  -5  146.32    9.79
  -1  -8  -5  168.31   12.06
  -1  -8  -5  140.98    9.81
  -1  -8  -5  136.04    9.57
  -1  -8  -5  143.79    7.22
   1   8   5  143.44    7.51
   1   8   5  150.36   10.29
   1   8   5  145.99    9.74
  -2  -8  -5   12.94    4.12
  -2  -8  -5   17.29    4.15
  -2  -8  -5   17.08    4.42
  -2  -8  -5    3.55    8.80
  -2  -8  -5   12.85    3.90
  -2  -8  -5   15.39    4.43
  -2  -8  -5   14.64    3.54
  -2  -8  -5   12.98    3.96
  -2  -8  -5   10.85    4.18
   2   8   5   11.86    3.39
   2   8   5   20.10    4.23
  -3  -8  -5  180.03   12.13
  -3  -8  -5  169.54   14.04
  -3  -8  -5  184.04   12.25
  -3  -8  -5  179.91   13.47
  -3  -8  -5  185.66   14.46
  -3  -8  -5  186.95   13.71
  -3  -8  -5  178.24   11.97
  -3  -8  -5  180.77   13.63
   3   8   5  175.58   11.22
   3  -9  -5    3.12    2.82
   3  -9  -5    1.65   10.23
  -3   9   5    4.74    2.97
  -3   9   5    4.91    3.37
  -3   9   5   -0.62    2.47
  -3   9   5    7.74    4.03
   2  -9  -5  558.50   28.57
   2  -9  -5  621.89   27.16
   2  -9  -5  643.69   27.20
  -2   9   5  627.02   24.45
  -2   9   5  669.29   28.28
  -2   9   5  639.97   26.65
  -2   9   5  646.13   28.31
  -2   9   5  642.75   28.06
   1  -9  -5    3.93    1.79
   1  -9  -5    7.55    3.61
   1  -9  -5    5.28    3.45
   1  -9  -5   20.47   16.01
   1  -9  -5    2.30    2.46
   1  -9  -5    7.33    3.07
  -1   9   5    0.92    2.12
  -1   9   5    4.90    2.19
  -1   9   5    2.50    2.05
  -1   9   5    8.35    3.19
  -1   9   5    1.45    2.21
   0  -9  -5   59.77    8.39
   0  -9  -5   73.42    5.01
   0  -9  -5   66.69    7.28
   0  -9  -5   48.85    6.67
   0  -9  -5   53.97   10.23
   0  -9  -5   62.47    4.85
   0  -9  -5   60.25   23.87
   0  -9  -5   72.34    5.95
   0  -9  -5   50.41    6.73
   0   9   5   53.65    7.16
   0   9   5   62.14    7.07
   0   9   5   54.05    6.05
   0   9   5   59.23    5.18
   0   9   5   62.80    7.58
  -1  -9  -5  204.39    9.23
  -1  -9  -5  216.96   11.62
  -1  -9  -5  225.50   12.17
  -1  -9  -5  216.50   14.64
  -1  -9  -5  195.33   12.29
  -1  -9  -5  202.19   12.54
  -1  -9  -5  213.43   12.16
  -1  -9  -5  143.03   31.03
  -1  -9  -5  215.01   12.73
   1   9   5  222.00   13.36
   1   9   5  214.87   12.58
   1   9   5  205.77    9.95
  -2  -9  -5   61.60    7.93
  -2  -9  -5   48.85    7.58
  -2  -9  -5   27.18   16.67
  -2  -9  -5   64.23    9.81
  -2  -9  -5   46.42    5.86
  -2  -9  -5   54.64    7.80
  -2  -9  -5   50.80    7.52
  -2  -9  -5   48.94    6.90
  -2  -9  -5   52.38    6.86
   2   9   5   55.11    6.59
   2   9   5   45.93    6.49
  -3  -9  -5   26.06    6.90
  -3  -9  -5   18.01    4.72
  -3  -9  -5   17.04    4.71
  -3  -9  -5   23.51    6.25
  -3  -9  -5   19.06    5.46
  -3  -9  -5   18.19    5.27
  -3  -9  -5   21.42    6.25
  -3  -9  -5   21.16    5.41
   3 -10  -5   13.74    4.53
   3 -10  -5    7.64   15.96
  -3  10   5   19.07    6.01
  -3  10   5   12.58    4.97
  -3  10   5   13.54    4.16
  -3  10   5   12.86    4.49
   2 -10  -5  368.02   18.86
   2 -10  -5  348.00   18.72
  -2  10   5  341.21   15.76
  -2  10   5  349.19   18.98
  -2  10   5  340.60   19.14
  -2  10   5  355.39   18.05
  -2  10   5  337.41   18.93
   1 -10  -5   -1.78    1.88
   1 -10  -5    3.23    3.18
   1 -10  -5    0.49    2.58
   1 -10  -5   -0.18    1.81
   1 -10  -5   18.65   17.00
   1 -10  -5    0.07    1.30
  -1  10   5   -2.25    1.87
  -1  10   5    0.53    1.58
  -1  10   5    1.26    2.16
  -1  10   5    1.12    2.00
  -1  10   5    3.38    2.96
   0 -10  -5  329.17   19.00
   0 -10  -5  312.13   17.15
   0 -10  -5  320.00   22.06
   0 -10  -5  311.50   13.80
   0 -10  -5  326.45   14.86
   0 -10  -5  310.07   13.49
   0 -10  -5  278.87   45.98
   0 -10  -5  308.58   16.86
   0 -10  -5  338.51   16.53
   0  10   5  306.87   15.22
   0  10   5  315.95   17.04
   0  10   5  309.11   16.99
   0  10   5  318.55   16.39
   0  10   5  330.04   14.70
  -1 -10  -5  163.86   35.51
  -1 -10  -5  187.94   12.81
  -1 -10  -5  225.93   12.79
  -1 -10  -5  206.25   13.25
  -1 -10  -5  231.02   12.64
  -1 -10  -5  225.75   15.57
  -1 -10  -5  230.97   12.24
  -1 -10  -5  226.63   13.70
   1  10   5  211.34   13.03
   1  10   5  211.57   10.40
   1  10   5  183.58   13.26
  -2 -10  -5    1.00    2.63
  -2 -10  -5   -3.36    2.21
  -2 -10  -5    4.35    3.28
  -2 -10  -5    0.56    2.51
  -2 -10  -5    0.96    2.66
  -2 -10  -5   -1.71    9.66
  -2 -10  -5    1.07    3.14
   2  10   5    2.50    2.31
   2  10   5    1.96    2.54
   3 -11  -5    1.74   12.05
   3 -11  -5    6.24    3.74
  -3  11   5   13.88    4.36
  -3  11   5   16.34    5.80
  -3  11   5   19.68    6.05
  -3  11   5   11.58    5.20
   2 -11  -5    5.42    3.13
   2 -11  -5    5.30    3.42
   2 -11  -5    3.20   10.88
  -2  11   5    8.47    3.88
  -2  11   5    9.80    4.16
  -2  11   5    6.92    3.64
  -2  11   5    8.61    3.93
   1 -11  -5   63.71    8.83
   1 -11  -5   28.25   19.65
   1 -11  -5   50.98    6.94
   1 -11  -5   62.97    9.25
  -1  11   5   39.93    6.66
  -1  11   5   55.89    6.83
  -1  11   5   44.59    6.81
  -1  11   5   56.00    8.42
  -1  11   5   66.39    7.92
   0 -11  -5    0.38    3.07
   0 -11  -5    0.66    1.56
   0 -11  -5    1.98    2.87
   0 -11  -5    2.01    1.75
   0 -11  -5   -0.64    8.00
   0 -11  -5    2.19    3.25
   0 -11  -5   -1.56    1.39
   0 -11  -5    3.49    2.62
   0 -11  -5   -0.36    2.28
   0  11   5    0.18    2.19
   0  11   5    2.54    2.03
   0  11   5    1.29    2.66
   0  11   5    2.36    2.37
  -1 -11  -5   35.45    6.48
  -1 -11  -5   32.89    5.28
  -1 -11  -5   36.78    5.81
  -1 -11  -5   41.15    8.31
  -1 -11  -5   30.70    6.07
  -1 -11  -5   39.32   23.12
  -1 -11  -5   42.22    7.10
  -1 -11  -5   35.33    5.77
   1  11   5   45.47    6.92
   1  11   5   47.09    7.86
  -2 -11  -5   21.33    5.33
  -2 -11  -5   21.61    5.14
  -2 -11  -5    5.96   12.81
  -2 -11  -5   31.20    6.40
  -2 -11  -5   19.05    5.90
  -2 -11  -5   21.46    5.56
  -2 -11  -5   14.25    5.66
   2  11   5   17.07    4.22
   2 -12  -5   88.56   10.78
   2 -12  -5  103.77   11.96
   2 -12  -5   82.90   35.87
  -2  12   5  118.38   11.90
  -2  12   5   96.05   11.30
  -2  12   5  103.52   11.41
  -2  12   5   90.34   10.78
   1 -12  -5   64.38    9.64
   1 -12  -5   51.06    7.33
   1 -12  -5   52.28   28.09
   1 -12  -5   62.78    9.19
  -1  12   5   58.60    7.68
  -1  12   5   65.60    8.79
  -1  12   5   60.02    7.45
  -1  12   5   60.87    8.37
  -1  12   5   48.33    7.84
   0 -12  -5   38.99    5.22
   0 -12  -5   28.39   21.09
   0 -12  -5   42.38    8.72
   0 -12  -5   39.15    9.53
   0 -12  -5   36.62    6.73
   0 -12  -5   42.12    7.37
   0  12   5   35.12    6.69
   0  12   5   37.81    5.98
   0  12   5   38.47    6.89
  -1 -12  -5  126.47   10.95
  -1 -12  -5  118.26    9.32
  -1 -12  -5  114.84    9.46
  -1 -12  -5  100.50   11.06
  -1 -12  -5  106.02   13.35
  -1 -12  -5  121.11    9.08
  -1 -12  -5  132.82   11.16
   1  12   5  132.65   11.65
   1  12   5  136.02   10.85
   2 -13  -5   62.08    9.57
   2 -13  -5   22.48   21.88
   2 -13  -5   49.30    8.44
  -2  13   5   55.10    8.47
  -2  13   5   58.65    8.87
  -2  13   5   47.15    8.29
  -2  13   5   56.23    9.02
   1 -13  -5    4.13    3.28
   1 -13  -5    1.42    3.65
   1 -13  -5   -2.04    7.75
  -1  13   5    3.02    3.26
  -1  13   5    4.77    3.15
  -1  13   5   -0.58    2.80
  -1  13   5    5.38    3.76
   0 -13  -5   83.16   35.64
   0 -13  -5  142.42   11.82
   0 -13  -5   95.66   12.45
   0 -13  -5  107.76   11.46
   0  13   5   96.35    8.65
   0  13   5   95.97   11.31
   0  13   5  138.00   11.64
  -1 -13  -5   31.70   23.04
  -1 -13  -5   53.38    8.68
  -1 -13  -5   58.96    8.11
  -1 -13  -5   46.99    7.97
  -1 -13  -5   60.30   10.67
  -1 -13  -5   64.20   14.22
  -1 -13  -5   79.13   10.06
   1  13   5   49.48    8.60
   1  13   5   63.25    8.85
   1  15  -6   48.25    7.66
   1  15  -6   57.35    8.51
  -1 -15   6   48.46    8.21
  -1 -15   6   61.90    9.28
  -1 -15   6   55.50    8.29
  -1 -15   6   70.52    9.33
   0  15  -6   16.19    4.82
   0  15  -6   19.10    5.10
   0  15  -6   17.27    5.33
   0 -15   6    8.13    3.86
   0 -15   6   15.39    5.31
   0 -15   6   16.39    4.66
   0 -15   6   18.73   19.77
  -1  15  -6    5.41    3.81
  -1  15  -6    0.32    3.14
  -1  15  -6    5.03    3.96
   1 -15   6    5.78    3.29
   1 -15   6    9.80    3.69
   1 -15   6    8.52    4.53
   1 -15   6    1.88   13.16
  -2 -14   6    5.31   16.02
   1  14  -6   23.86    5.35
   1  14  -6   34.36    6.15
  -1 -14   6   22.91    5.60
  -1 -14   6   36.10    6.61
  -1 -14   6   19.67   18.75
  -1 -14   6   14.18    4.82
  -1 -14   6   24.50    5.43
   0  14  -6   27.91    5.76
   0  14  -6   40.51    6.95
   0  14  -6   22.59    5.30
   0 -14   6   26.64    5.97
   0 -14   6   10.85   14.09
   0 -14   6   31.86    5.72
   0 -14   6   24.16    5.52
  -1  14  -6   14.50    4.85
  -1  14  -6   19.63    5.31
  -1  14  -6   18.41    5.29
   1 -14   6   22.15    4.91
   1 -14   6   11.16   15.19
   1 -14   6   21.03    4.84
   1 -14   6   18.61    5.40
  -2  14  -6   44.13    7.82
  -2  14  -6   55.91    8.56
  -2  14  -6   62.29   10.00
  -2  14  -6   57.46    9.19
   2 -14   6   57.70    8.77
   2 -14   6   44.10    7.91
   2 -14   6   38.77   25.57
   2  13  -6    4.01    2.82
  -2 -13   6   -2.07    9.06
  -2 -13   6    1.48    2.77
  -2 -13   6    2.48    2.95
  -2 -13   6   -1.96    2.84
  -2 -13   6   -1.54    2.41
  -2 -13   6    5.52    3.21
   1  13  -6   12.65    3.85
   1  13  -6   10.10    3.86
  -1 -13   6    3.11   11.41
  -1 -13   6    5.49    3.26
  -1 -13   6   10.21    3.53
  -1 -13   6   13.17    4.74
  -1 -13   6   10.68    3.78
  -1 -13   6    8.19    3.09
   0  13  -6  106.06    9.30
   0  13  -6   89.31    8.18
   0  13  -6   99.67    8.82
   0 -13   6  111.03   10.87
   0 -13   6   57.13   26.03
   0 -13   6   99.12    8.35
   0 -13   6  104.91   11.34
  -1  13  -6    8.94    3.91
  -1  13  -6   12.42    3.98
   1 -13   6    1.73   12.37
   1 -13   6    8.61    3.07
   1 -13   6    6.52    3.64
   1 -13   6   12.95    3.98
  -2  13  -6   10.73    4.09
  -2  13  -6    3.73    2.94
  -2  13  -6    2.97    3.41
  -2  13  -6    8.03    4.36
   2 -13   6    5.96    3.17
   2 -13   6    2.85   11.40
   2 -13   6    2.66    3.59
  -3 -12   6    1.69   11.56
   2  12  -6    2.94    2.71
  -2 -12   6    5.48    2.95
  -2 -12   6    6.80   12.67
  -2 -12   6    8.28    3.88
  -2 -12   6    8.21    3.85
  -2 -12   6    6.70    3.20
  -2 -12   6    5.85    3.06
   1  12  -6   37.45    5.84
   1  12  -6   41.18    5.33
   1  12  -6   32.96    5.52
  -1 -12   6   34.47    6.00
  -1 -12   6   30.43   18.40
  -1 -12   6   35.28    6.33
  -1 -12   6   45.49    6.72
  -1 -12   6   32.42    5.04
  -1 -12   6   32.54    5.73
   0  12  -6   56.60    7.74
   0  12  -6   44.79    6.44
   0  12  -6   49.06    6.64
   0 -12   6   33.62   20.07
   0 -12   6   39.04    6.41
   0 -12   6   43.66    4.57
   0 -12   6   61.05    7.11
   0 -12   6   50.02    7.79
  -1  12  -6    5.85    3.28
  -1  12  -6    3.02    2.58
   1 -12   6    1.14    2.12
   1 -12   6    1.98    2.10
   1 -12   6    7.08    3.82
   1 -12   6    1.33    2.40
   1 -12   6    2.41   10.43
  -2  12  -6    4.70    3.31
  -2  12  -6    6.43    3.41
  -2  12  -6    6.98    3.69
  -2  12  -6    6.36    3.31
   2 -12   6   11.26    4.19
   2 -12   6    3.65   10.94
   2 -12   6    2.61    2.93
  -3  12  -6    4.89    3.74
  -3  12  -6    3.82    4.35
  -3  12  -6    3.91    3.12
   3 -12   6    3.71    3.42
   3 -12   6    5.00   13.57
   3 -12   6    2.18    3.63
  -3 -11   6   11.49   16.32
  -3 -11   6   32.87    6.63
  -3 -11   6   21.83    5.21
  -3 -11   6   24.07    5.72
  -3 -11   6   22.52    5.60
   2  11  -6  140.44    9.14
   2  11  -6  146.60    9.43
  -2 -11   6  140.49   11.04
  -2 -11   6  146.19   10.71
  -2 -11   6  152.25   10.08
  -2 -11   6   97.71   33.76
  -2 -11   6  144.28   10.06
  -2 -11   6  144.94   10.99
   1  11  -6    3.64    2.57
   1  11  -6    2.47    1.90
   1  11  -6    1.45    1.90
  -1 -11   6    3.57    2.34
  -1 -11   6   -2.20    2.07
  -1 -11   6    4.72   10.60
  -1 -11   6    5.00    2.53
  -1 -11   6    2.64    2.05
  -1 -11   6    3.47    2.65
   0  11  -6  152.30   10.00
   0  11  -6  164.46   10.81
   0 -11   6  151.15   10.11
   0 -11   6  153.79    8.08
   0 -11   6  149.05   10.92
   0 -11   6  127.68   30.48
   0 -11   6  154.11    9.84
  -1  11  -6  276.47   15.00
  -1  11  -6  284.85   14.98
  -1  11  -6  262.40   15.15
   1 -11   6  278.69   14.42
   1 -11   6  262.71   13.60
   1 -11   6  244.01   13.22
   1 -11   6  219.02   39.36
   1 -11   6  263.66   15.74
  -2  11  -6   85.96    9.50
  -2  11  -6   63.92    8.51
  -2  11  -6   71.21    8.33
  -2  11  -6   65.05    8.16
   2 -11   6   74.23    8.59
   2 -11   6   56.04    8.48
   2 -11   6   56.37   24.17
  -3  11  -6   25.64    5.87
  -3  11  -6   39.62    7.93
  -3  11  -6   18.12    5.00
  -3  11  -6   26.64    5.75
   3 -11   6   26.87    6.20
   3 -11   6   13.06   14.75
   3 -11   6   33.06    6.88
  -3 -10   6    9.44    3.83
  -3 -10   6    8.02    4.10
  -3 -10   6    9.53    3.89
  -3 -10   6   15.01    4.76
   2  10  -6  187.37   10.46
   2  10  -6  189.88   10.49
  -2 -10   6  175.64   12.30
  -2 -10   6  196.02   12.21
  -2 -10   6  185.09   11.46
  -2 -10   6  199.13   11.27
  -2 -10   6  175.58   11.98
   1  10  -6    1.76    1.72
   1  10  -6    0.82    1.95
   1  10  -6    2.41    3.83
   1  10  -6    1.73    1.63
  -1 -10   6   -0.10    2.02
  -1 -10   6    3.47    2.25
  -1 -10   6    1.59    9.25
  -1 -10   6    4.18    2.56
  -1 -10   6    1.96    2.25
   0  10  -6   11.62    3.35
   0  10  -6   11.04    4.42
   0  10  -6   13.27    3.70
   0 -10   6   10.66    3.03
   0 -10   6    8.66    3.00
   0 -10   6    6.47    2.28
   0 -10   6   18.34   13.87
   0 -10   6   13.52    4.97
   0 -10   6    8.50    3.15
  -1  10  -6   82.76    9.03
  -1  10  -6   84.32    8.72
  -1  10  -6   57.41    7.29
   1 -10   6   60.19    6.30
   1 -10   6   56.36   23.32
   1 -10   6   60.05    6.52
   1 -10   6   60.29    7.77
   1 -10   6   64.38    3.84
   1 -10   6   53.48    6.42
  -2  10  -6  174.20   11.49
  -2  10  -6  150.11   11.68
  -2  10  -6  193.58   12.32
  -2  10  -6  173.82   11.81
   2 -10   6  204.99   12.58
   2 -10   6  137.51   29.80
   2 -10   6  169.54   12.12
  -3  10  -6  143.77   10.89
  -3  10  -6  159.30   11.80
  -3  10  -6  113.09   12.50
  -3  10  -6  157.58   12.10
   3 -10   6  146.95   11.63
   3 -10   6   92.86   29.41
   3 -10   6  143.79   11.74
  -3  -9   6  156.55   12.16
  -3  -9   6  145.40   11.56
  -3  -9   6  178.98   11.51
  -3  -9   6  158.51   12.01
   2   9  -6   16.71    7.70
   2   9  -6   26.24    3.99
   2   9  -6   30.47    4.39
  -2  -9   6   26.12    5.12
  -2  -9   6   23.15    4.76
  -2  -9   6   28.55    4.55
  -2  -9   6   26.79    4.81
  -2  -9   6   20.91    4.42
   1   9  -6   67.65    6.89
   1   9  -6   59.87    5.22
   1   9  -6   63.15   11.46
   1   9  -6   61.04    4.01
  -1  -9   6   68.90    7.25
  -1  -9   6   75.89    7.77
  -1  -9   6   66.66    7.48
  -1  -9   6   55.29    6.05
   0   9  -6    6.55    2.67
   0   9  -6   10.39    2.75
   0   9  -6   12.13    4.29
   0  -9   6   10.79   12.42
   0  -9   6   11.59    4.01
   0  -9   6   10.06    2.79
   0  -9   6   12.25    3.05
   0  -9   6   10.57    2.57
   0  -9   6    9.94    3.27
  -1   9  -6  102.46    7.89
  -1   9  -6   82.31    6.27
  -1   9  -6   81.71    7.45
  -1   9  -6   94.90    7.56
   1  -9   6   92.25    6.54
   1  -9   6   79.97   25.92
   1  -9   6  105.85    8.53
   1  -9   6   92.68    4.56
   1  -9   6   88.31    6.85
   1  -9   6   83.86    6.97
   1  -9   6   92.69    4.50
   1  -9   6  101.74    4.69
  -2   9  -6  373.06   19.06
  -2   9  -6  410.27   20.07
  -2   9  -6  401.56   18.99
  -2   9  -6  401.67   19.26
   2  -9   6  374.79   45.75
   2  -9   6  440.56   20.39
   2  -9   6  400.91   19.31
  -3   9  -6   48.48    7.45
  -3   9  -6   37.06    6.49
  -3   9  -6   41.49    6.63
  -3   9  -6   44.51    7.54
   3  -9   6   22.99   15.85
   3  -9   6   48.97    7.40
   3  -9   6   40.62    6.68
  -4  -8   6  523.85   26.12
  -4  -8   6  540.50   26.92
  -4  -8   6  549.83   26.49
  -4  -8   6  521.16   24.61
  -3  -8   6  351.74   18.67
  -3  -8   6  371.97   18.81
  -3  -8   6  344.53   18.80
  -3  -8   6  347.21   17.14
   2   8  -6   21.95    8.11
   2   8  -6   18.76    3.10
  -2  -8   6   18.36    3.63
  -2  -8   6    8.54    2.78
  -2  -8   6   14.48    3.24
  -2  -8   6    9.07    3.10
   1   8  -6   12.40    3.02
   1   8  -6    3.69    3.92
   1   8  -6    7.81    1.54
   1   8  -6   13.24    2.52
  -1  -8   6   10.63    2.93
  -1  -8   6    7.39    2.88
  -1  -8   6    8.77    2.45
  -1  -8   6   14.22    3.29
   0   8  -6    4.99    2.62
   0   8  -6    1.80    1.54
   0   8  -6    1.73    1.77
   0   8  -6    2.12    2.29
   0  -8   6    0.94    1.48
   0  -8   6    3.15    1.50
   0  -8   6    4.76    2.31
   0  -8   6    6.75    2.24
   0  -8   6    3.15    2.53
  -1   8  -6  305.72   14.64
  -1   8  -6  309.33   15.03
  -1   8  -6  309.91   15.18
  -1   8  -6  304.92   14.38
  -1   8  -6  288.35   14.30
   1  -8   6  303.11   10.80
   1  -8   6  270.74   35.73
   1  -8   6  312.08   14.03
   1  -8   6  298.25   11.18
   1  -8   6  292.13   12.88
   1  -8   6  266.06   13.82
   1  -8   6  281.03   15.00
  -2   8  -6    9.33    3.19
  -2   8  -6   11.78    3.70
  -2   8  -6    7.43    3.28
  -2   8  -6   11.23    3.33
  -2   8  -6    5.50    2.37
   2  -8   6    1.46    7.32
   2  -8   6    2.47    2.44
   2  -8   6   10.14    3.48
  -3   8  -6    6.01    3.24
  -3   8  -6   -0.37    2.37
  -3   8  -6   -1.97    2.81
  -3   8  -6   -1.94    2.29
   3  -8   6   -3.93    2.01
   3  -8   6    1.29    2.88
   3  -8   6    1.15    8.07
  -4   8  -6    2.77    3.32
  -4   8  -6    4.93    3.77
   4  -8   6   -0.12    3.17
  -4  -7   6    3.36    2.84
  -4  -7   6   -3.49    2.61
  -4  -7   6   -3.71    2.67
  -4  -7   6    2.58    2.89
  -3  -7   6  104.02   10.58
  -3  -7   6  100.52    8.66
  -3  -7   6  101.47    7.85
  -3  -7   6  101.27   10.63
   2   7  -6   57.79   12.16
   2   7  -6   78.12    3.81
   2   7  -6   77.26    4.98
  -2  -7   6   70.95    5.58
  -2  -7   6   79.61    6.75
  -2  -7   6   73.64    7.60
  -2  -7   6   75.74    5.86
  -2  -7   6   68.16    4.57
   1   7  -6  428.60   17.67
   1   7  -6  421.07   16.29
   1   7  -6  418.66   14.62
   1   7  -6  418.71   25.42
   1   7  -6  433.84   16.09
  -1  -7   6  429.16   17.98
  -1  -7   6  411.57   17.95
  -1  -7   6  432.02   16.85
  -1  -7   6  406.54   15.92
  -1  -7   6  432.06   18.14
   0   7  -6   10.83    2.45
   0   7  -6    5.90    1.76
   0   7  -6    3.69    2.09
   0   7  -6    4.39    2.57
   0   7  -6    3.20    1.88
   0  -7   6    5.17    2.88
   0  -7   6    7.63    1.95
   0  -7   6    8.58    2.79
   0  -7   6    4.69    1.96
   0  -7   6    3.47    1.44
   0  -7   6    6.71    1.82
   0  -7   6    5.75    2.00
  -1   7  -6    8.36    2.55
  -1   7  -6    7.73    2.45
  -1   7  -6    7.19    2.47
  -1   7  -6    7.49    2.72
  -1   7  -6    7.36    2.54
  -1   7  -6    8.36    1.96
   1  -7   6    8.90    2.64
   1  -7   6    8.07    1.33
   1  -7   6   11.86    9.47
   1  -7   6    6.09    2.24
   1  -7   6    5.61    2.31
   1  -7   6   10.08    1.77
   1  -7   6    7.17    1.96
  -2   7  -6 1108.52   41.69
  -2   7  -6 1084.79   40.33
  -2   7  -6 1129.60   40.94
  -2   7  -6 1098.60   40.26
  -2   7  -6 1118.63   36.32
  -2   7  -6 1102.18   40.21
   2  -7   6 1057.87   36.02
   2  -7   6 1092.02   37.68
   2  -7   6 1128.41   40.66
   2  -7   6 1114.38   40.70
   2  -7   6 1004.23   69.55
  -3   7  -6  158.22   11.14
  -3   7  -6  156.87   10.95
  -3   7  -6  146.98   10.86
  -3   7  -6  139.79   10.59
   3  -7   6  151.60   10.39
   3  -7   6  149.09   11.13
   3  -7   6  112.38   21.59
  -4   7  -6   10.56    4.11
  -4   7  -6   17.08    5.23
  -4   7  -6   11.29    4.34
  -4   7  -6    8.87    4.41
  -4   7  -6   17.65    5.25
   4  -7   6   19.26    5.40
  -4  -6   6   34.89    6.26
  -4  -6   6   54.66    8.63
  -4  -6   6   33.78    6.39
  -4  -6   6   31.49    6.06
   3   6  -6  329.91   29.38
  -3  -6   6  395.53   18.72
  -3  -6   6  369.17   18.43
  -3  -6   6  396.42   17.33
   2   6  -6  206.42   19.70
   2   6  -6  227.36    7.40
  -2  -6   6  214.50   11.66
  -2  -6   6  200.32   11.67
  -2  -6   6  213.48   10.18
  -2  -6   6  214.28    8.85
  -2  -6   6  221.40   10.61
   1   6  -6    6.05    1.56
   1   6  -6    3.47    1.96
   1   6  -6    6.45    1.14
   1   6  -6    5.71    1.48
   1   6  -6    2.73    3.08
  -1  -6   6    3.75    1.95
  -1  -6   6    5.04    1.37
  -1  -6   6    4.89    1.70
  -1  -6   6    5.73    1.05
  -1  -6   6    2.90    1.87
  -1  -6   6    6.68    2.18
   0   6  -6    1.44    1.27
   0   6  -6    1.57    2.08
   0   6  -6    2.20    1.23
   0   6  -6    0.67    1.13
   0   6  -6    0.03    1.45
   0   6  -6    1.70    1.24
   0   6  -6    0.96    1.41
   0  -6   6    1.53    1.57
   0  -6   6    2.77    1.33
   0  -6   6    0.49    1.15
   0  -6   6    3.81    1.45
   0  -6   6    1.77    1.28
   0  -6   6    1.85    2.04
   0  -6   6    2.66    1.30
  -1   6  -6   25.43    4.05
  -1   6  -6   20.42    2.56
  -1   6  -6   15.74    3.81
  -1   6  -6   16.05    3.18
  -1   6  -6   19.35    3.50
  -1   6  -6   17.64    3.35
   1  -6   6   15.37    9.78
   1  -6   6   15.02    3.07
   1  -6   6   20.82    2.06
   1  -6   6   13.58    2.72
   1  -6   6   18.09    2.36
   1  -6   6   24.15    2.74
   1  -6   6   23.00    4.16
   1  -6   6   19.75    3.64
  -2   6  -6  377.82   19.73
  -2   6  -6  369.82   17.59
  -2   6  -6  386.10   13.19
  -2   6  -6  427.97   15.26
  -2   6  -6  355.68   17.17
  -2   6  -6  375.93   17.72
   2  -6   6  386.40   15.50
   2  -6   6  393.74   14.94
   2  -6   6  407.74   18.04
   2  -6   6  343.14   34.97
   2  -6   6  378.87   17.72
  -3   6  -6   92.33    6.60
  -3   6  -6   91.91    8.44
  -3   6  -6  104.96    8.91
  -3   6  -6  106.39    8.63
  -3   6  -6  106.61    8.70
   3  -6   6  101.39    8.07
   3  -6   6  111.42    9.22
   3  -6   6   69.40   21.13
  -4   6  -6   37.87    7.37
  -4   6  -6   40.97    7.00
  -4   6  -6   49.95    7.35
  -4   6  -6   35.77    7.02
  -4   6  -6   39.36    7.86
   4  -6   6   37.90    7.26
  -4  -5   6   80.97    9.43
  -4  -5   6  109.05   11.10
  -4  -5   6  102.62    8.64
  -4  -5   6  101.56   11.24
   3   5  -6   35.53   10.81
  -3  -5   6   37.71    5.95
  -3  -5   6   31.03    4.78
  -3  -5   6   23.23    4.50
   2   5  -6   12.93    6.27
  -2  -5   6   12.46    2.38
  -2  -5   6   10.83    2.78
  -2  -5   6   16.52    3.53
  -2  -5   6   17.65    2.91
  -2  -5   6   14.02    1.70
   1   5  -6  103.16    4.30
   1   5  -6   98.49    6.32
   1   5  -6  102.78    4.98
   1   5  -6  109.50    6.77
   1   5  -6   98.87    5.20
   1   5  -6  104.71   10.94
   1   5  -6  100.32    4.75
  -1  -5   6   93.56    5.28
  -1  -5   6   98.89    6.44
  -1  -5   6  101.07    4.27
  -1  -5   6  104.82    6.51
  -1  -5   6   99.24    4.80
  -1  -5   6   98.73    6.48
   0   5  -6   45.63    3.58
   0   5  -6   44.24    3.65
   0   5  -6   41.95    3.37
   0   5  -6   39.04    5.71
   0   5  -6   45.13    3.63
   0   5  -6   40.88    3.89
   0   5  -6   48.56    5.20
   0   5  -6   44.40    5.04
   0   5  -6   40.94    4.80
   0  -5   6   45.99    3.62
   0  -5   6   45.11    3.62
   0  -5   6   36.43    3.22
   0  -5   6   49.84    4.97
   0  -5   6   45.82    5.04
   0  -5   6   41.81    3.47
   0  -5   6   41.18    5.67
  -1   5  -6   43.94    2.84
  -1   5  -6   35.37    4.52
  -1   5  -6   31.64    4.02
  -1   5  -6   41.02    3.37
  -1   5  -6   37.74    5.29
  -1   5  -6   41.44    4.01
  -1   5  -6   37.46    4.44
  -1   5  -6   41.36    2.86
  -1   5  -6   33.09    4.54
   1  -5   6   40.39    3.24
   1  -5   6   46.19    5.56
   1  -5   6   39.49    3.81
   1  -5   6   39.22    4.41
   1  -5   6   39.79    2.84
   1  -5   6   46.81    4.88
   1  -5   6   41.22    2.74
  -2   5  -6  101.79    6.18
  -2   5  -6   99.35    7.49
  -2   5  -6   96.33    7.33
  -2   5  -6   96.18    7.57
  -2   5  -6  104.86    9.86
  -2   5  -6  104.79    4.68
   2  -5   6  103.57    6.13
   2  -5   6   99.06    7.41
   2  -5   6  101.64    6.13
  -3   5  -6  278.16   14.75
  -3   5  -6  250.42   14.75
  -3   5  -6  271.01   14.32
  -3   5  -6  258.41   12.72
   3  -5   6  254.02   13.49
   3  -5   6  270.14   15.08
  -4   5  -6   15.13    4.86
  -4   5  -6   17.23    4.71
  -4   5  -6   16.13    4.46
  -4   5  -6    9.34    4.09
  -4   5  -6   -1.22    2.77
   4  -5   6   11.08    4.28
  -4  -4   6    9.78    3.59
  -4  -4   6   16.80    4.67
  -4  -4   6   15.70    4.27
  -4  -4   6    6.73    3.54
  -4  -4   6   15.97    3.88
   3   4  -6   79.40   16.27
  -3  -4   6  103.15    7.01
  -3  -4   6  106.08    7.84
  -3  -4   6   95.42    7.84
  -3  -4   6   82.90    7.28
   2   4  -6   98.29   12.68
  -2  -4   6  151.72    8.44
  -2  -4   6  125.78    6.81
  -2  -4   6  129.48    6.75
  -2  -4   6  145.32    8.59
   1   4  -6    1.92    0.90
   1   4  -6    0.26    0.53
   1   4  -6   -0.06    0.73
   1   4  -6    2.24    1.56
   1   4  -6    0.03    1.09
   1   4  -6    0.28    1.82
   1   4  -6    0.16    1.04
   1   4  -6   -0.19    0.52
  -1  -4   6    0.23    1.22
  -1  -4   6    0.01    0.63
  -1  -4   6   -0.70    0.74
  -1  -4   6    0.04    0.51
  -1  -4   6    1.33    1.10
  -1  -4   6   -0.80    0.89
   0   4  -6   51.73    3.47
   0   4  -6   58.00    4.64
   0   4  -6   42.92    3.62
   0   4  -6   48.54    4.54
   0   4  -6   52.15    3.77
   0   4  -6   59.17    4.52
   0   4  -6   52.11    3.76
   0   4  -6   57.99    6.74
   0   4  -6   44.10    3.53
   0  -4   6   58.35    4.84
   0  -4   6   57.08    4.59
   0  -4   6   58.48    4.78
   0  -4   6   52.19    3.80
   0  -4   6   55.91    4.00
   0  -4   6   55.96    4.04
   0  -4   6   54.38    6.46
  -1   4  -6   62.55    4.86
  -1   4  -6   67.64    3.31
  -1   4  -6   69.96    5.29
  -1   4  -6   64.51    5.32
  -1   4  -6   68.36    3.95
  -1   4  -6   69.87    5.39
  -1   4  -6   65.08    4.43
  -1   4  -6   64.17    7.07
   1  -4   6   71.09    3.46
   1  -4   6   66.24    5.10
   1  -4   6   69.59    5.21
   1  -4   6   70.00    3.91
   1  -4   6   67.18    5.51
   1  -4   6   66.90    4.89
   1  -4   6   66.59    4.34
  -2   4  -6   11.28    2.63
  -2   4  -6   11.17    1.86
  -2   4  -6   12.54    3.48
  -2   4  -6    9.64    2.77
  -2   4  -6    9.94    2.08
  -2   4  -6    9.27    2.76
   2  -4   6    9.23    2.14
   2  -4   6    8.16    2.57
   2  -4   6    8.26    5.72
  -3   4  -6   67.85    8.14
  -3   4  -6   82.83    8.80
  -3   4  -6   98.53    8.50
  -3   4  -6   81.66    6.63
  -3   4  -6   80.12    7.05
   3  -4   6   75.20    8.26
   3  -4   6   81.90    6.70
  -4   4  -6    2.73    2.66
  -4   4  -6    0.03    2.87
  -4   4  -6   -3.62    2.18
  -4   4  -6   -0.62    3.62
  -4   4  -6    5.27    3.82
   4  -4   6   -1.57    2.52
  -4  -3   6   47.70    6.51
  -4  -3   6   45.23    6.74
  -4  -3   6   41.25    6.85
  -4  -3   6   40.48    6.42
  -4  -3   6   34.92    6.33
  -4  -3   6   59.78    7.59
   3   3  -6   -2.61    3.37
  -3  -3   6   -0.81    1.53
  -3  -3   6    2.09    1.83
  -3  -3   6    1.29    0.88
  -3  -3   6    0.37    1.77
  -3  -3   6    0.68    1.83
  -2  -3   6  137.21    8.67
  -2  -3   6  137.31    8.01
  -2  -3   6  130.65    8.25
  -2  -3   6  142.26    6.98
  -2  -3   6  139.25    5.21
  -2  -3   6  149.14    7.07
  -2  -3   6  153.82    8.79
  -2  -3   6  147.79    5.95
   1   3  -6  383.59   12.66
   1   3  -6  394.13   13.10
   1   3  -6  389.45   14.01
   1   3  -6  406.10   16.37
   1   3  -6  358.60   15.40
   1   3  -6  377.84   12.33
   1   3  -6  379.06   22.00
  -1  -3   6  383.10   13.02
  -1  -3   6  383.36   23.64
  -1  -3   6  397.01   15.04
  -1  -3   6  381.00   15.62
  -1  -3   6  366.77   15.82
  -1  -3   6  370.94   12.93
  -1  -3   6  360.89   13.91
  -1  -3   6  350.33   15.22
  -1  -3   6  383.68   15.24
   0   3  -6  173.28    7.85
   0   3  -6  171.86    9.00
   0   3  -6  191.52    8.41
   0   3  -6  181.63   12.44
   0   3  -6  190.61    8.97
   0   3  -6  182.46    8.76
   0   3  -6  194.43    8.02
   0  -3   6  177.25    8.99
   0  -3   6  172.83    7.82
   0  -3   6  179.85    8.69
   0  -3   6  189.29    8.52
   0  -3   6  168.16    8.10
   0  -3   6  193.64    7.95
   0  -3   6  180.32    8.24
   0  -3   6  169.90   11.80
   0  -3   6  177.15    7.86
  -1   3  -6 1314.94   50.47
  -1   3  -6 1343.38   45.83
  -1   3  -6 1292.65   45.23
  -1   3  -6 1300.35   45.00
  -1   3  -6 1344.32   44.31
  -1   3  -6 1381.68   43.60
  -1   3  -6 1339.54   44.79
   1  -3   6 1350.01   45.24
   1  -3   6 1376.75   43.60
   1  -3   6 1376.85   41.86
   1  -3   6 1357.52   44.95
   1  -3   6 1368.32   45.88
   1  -3   6 1349.07   44.20
  -2   3  -6  105.88    6.03
  -2   3  -6  112.70    7.21
  -2   3  -6  118.34    6.77
  -2   3  -6  109.57    7.46
  -2   3  -6  116.87    8.17
  -2   3  -6   97.46    6.61
   2  -3   6  108.73    7.22
   2  -3   6  110.79    6.25
   2  -3   6  108.53    7.64
  -3   3  -6  274.35   15.09
  -3   3  -6  245.45   13.56
  -3   3  -6  258.02   13.01
  -3   3  -6  248.12   12.73
  -3   3  -6  232.20   14.38
   3  -3   6  251.09   12.61
   3  -3   6  256.72   14.16
  -4   3  -6  160.86   11.21
  -4   3  -6  155.74   12.78
  -4   3  -6  167.89   11.83
  -4   3  -6  164.72   12.98
   4  -3   6  151.74   11.82
   4   2  -6   19.69    9.89
  -4  -2   6   24.32    4.64
  -4  -2   6   18.14    4.22
  -4  -2   6   20.99    5.33
  -4  -2   6   14.43    4.29
  -4  -2   6   21.56    4.79
  -4  -2   6   17.86    4.63
   3   2  -6   85.80   16.04
  -3  -2   6   86.45    6.73
  -3  -2   6   83.75    4.18
  -3  -2   6   74.04    7.92
  -3  -2   6   83.93    7.31
  -3  -2   6   71.89    5.93
  -3  -2   6   88.98    7.20
  -3  -2   6   87.86    3.95
  -3  -2   6   91.84    4.85
   2   2  -6  310.04   13.91
   2   2  -6  305.57   11.44
   2   2  -6  327.83   22.53
  -2  -2   6  306.44   11.50
  -2  -2   6  286.46   12.80
  -2  -2   6  299.78   13.73
  -2  -2   6  305.45   14.12
  -2  -2   6  284.63   13.89
  -2  -2   6  295.34   11.72
  -2  -2   6  287.62   10.78
   1   2  -6  108.51    6.78
   1   2  -6  139.99   11.75
   1   2  -6  122.87    4.72
   1   2  -6  104.93    5.66
   1   2  -6  114.57    4.40
   1   2  -6  113.11    7.00
  -1  -2   6  141.72   22.35
  -1  -2   6  118.60    6.54
  -1  -2   6  120.44    4.40
  -1  -2   6  124.42   10.81
  -1  -2   6  119.13    5.26
  -1  -2   6  115.68    6.92
  -1  -2   6  112.12    4.60
  -1  -2   6  123.78    6.27
  -1  -2   6  108.87    5.78
  -1  -2   6  112.87    6.43
  -1  -2   6  105.43    6.65
   0   2  -6 1064.84   35.40
   0   2  -6 1034.17   35.20
   0   2  -6 1030.71   34.24
   0   2  -6 1076.44   35.16
   0   2  -6 1040.59   34.85
   0   2  -6 1092.44   41.62
   0   2  -6 1062.30   34.35
   0   2  -6  995.68   35.67
   0  -2   6 1060.88   34.90
   0  -2   6 1065.35   35.50
   0  -2   6 1043.62   35.12
   0  -2   6 1025.99   33.94
   0  -2   6 1068.53   40.63
   0  -2   6  985.64   34.04
   0  -2   6 1033.55   34.73
   0  -2   6 1043.38   34.72
   0  -2   6 1003.98   34.32
  -1   2  -6  479.22   18.59
  -1   2  -6  496.85   18.81
  -1   2  -6  480.59   18.72
  -1   2  -6  508.71   19.06
  -1   2  -6  486.15   24.24
  -1   2  -6  527.60   18.22
   1  -2   6  473.55   18.88
   1  -2   6  499.59   18.59
   1  -2   6  505.41   15.87
   1  -2   6  504.38   18.16
   1  -2   6  504.21   19.04
  -2   2  -6    5.69    2.48
  -2   2  -6    7.53    2.32
  -2   2  -6    4.80    2.32
  -2   2  -6    4.61    1.62
  -2   2  -6    3.46    1.82
  -2   2  -6    0.56    1.53
   2  -2   6    3.11    1.77
   2  -2   6    2.91    2.04
   2  -2   6    3.98    1.62
  -3   2  -6    2.91    2.58
  -3   2  -6    1.67    2.91
  -3   2  -6    1.71    2.18
  -3   2  -6    4.20    2.89
  -3   2  -6    1.05    1.74
   3  -2   6    3.48    2.08
   3  -2   6    4.05    2.77
  -4   2  -6   17.35    4.65
  -4   2  -6   19.88    4.74
  -4   2  -6   19.05    5.31
  -4   2  -6   11.81    4.65
   4  -2   6   17.57    5.02
   4   1  -6   -0.12    5.56
  -4  -1   6    2.37    2.63
  -4  -1   6   -0.19    1.65
  -4  -1   6   -1.19    2.16
  -4  -1   6   -0.33    2.00
  -4  -1   6   -0.53    2.02
  -4  -1   6   -1.05    1.89
  -4  -1   6   -1.67    1.78
   3   1  -6  255.03   23.31
  -3  -1   6  271.28   14.30
  -3  -1   6  255.96   13.60
  -3  -1   6  258.07   13.98
  -3  -1   6  274.37   12.88
  -3  -1   6  252.57   11.14
  -3  -1   6  260.87   12.28
  -3  -1   6  252.30    9.88
  -3  -1   6  271.71   12.21
  -3  -1   6  268.27    9.25
   2   1  -6  114.86   12.65
   2   1  -6   83.54    6.09
   2   1  -6   88.43    5.10
  -2  -1   6   75.37    6.09
  -2  -1   6   82.11    3.37
  -2  -1   6   88.89    5.14
  -2  -1   6   88.35    4.87
  -2  -1   6   94.36    6.84
  -2  -1   6   84.79    5.42
  -2  -1   6   71.79    5.58
  -2  -1   6   88.97    4.69
  -2  -1   6   84.38    6.21
   1   1  -6  152.01    8.07
   1   1  -6  148.29    7.07
   1   1  -6  140.85    6.77
   1   1  -6  147.73    5.19
   1   1  -6  144.07    5.85
   1   1  -6  154.01    8.19
  -1  -1   6  146.58    7.14
  -1  -1   6  142.78    5.82
  -1  -1   6  145.17    8.11
  -1  -1   6  153.96   11.98
  -1  -1   6  150.61    7.22
  -1  -1   6  156.91    8.04
  -1  -1   6  143.33    6.83
  -1  -1   6  138.58    7.86
  -1  -1   6  148.72   22.54
   0   1  -6   67.33    3.27
   0   1  -6   66.80    4.85
   0   1  -6   68.19    4.50
   0   1  -6   67.20    7.36
   0   1  -6   64.38    4.49
   0   1  -6   61.88    4.50
   0   1  -6   61.58    3.98
   0  -1   6   60.20    3.83
   0  -1   6   67.25    4.37
   0  -1   6   59.67    4.74
   0  -1   6   49.75   11.66
   0  -1   6   62.60    4.28
   0  -1   6   71.89    4.24
   0  -1   6   72.29    4.60
   0  -1   6   64.37    7.06
   0  -1   6   66.57    4.20
   0  -1   6   68.07    4.80
  -1   1  -6 1962.83   65.56
  -1   1  -6 1961.86   65.56
  -1   1  -6 1981.69   65.75
  -1   1  -6 1948.86   64.95
  -1   1  -6 1999.94   65.24
  -1   1  -6 1916.62   66.09
  -1   1  -6 2058.42   73.19
   1  -1   6 2008.65   66.72
   1  -1   6 2364.32   84.97
   1  -1   6 2025.06   62.61
   1  -1   6 2087.93   70.43
   1  -1   6 2062.72   65.52
   1  -1   6 2012.23   65.14
   1  -1   6 1993.54   65.72
  -2   1  -6   19.53    3.66
  -2   1  -6   22.79    3.35
  -2   1  -6   16.58    3.18
  -2   1  -6   22.80    3.25
  -2   1  -6   22.95    3.62
   2  -1   6   15.82    2.87
   2  -1   6   24.16    3.94
  -3   1  -6  109.59    9.41
  -3   1  -6  118.54    8.81
  -3   1  -6  124.60    7.42
  -3   1  -6  104.76    9.17
  -3   1  -6  124.88    8.90
  -3   1  -6  111.83    6.47
   3  -1   6  102.02    7.13
   3  -1   6  114.73    8.76
  -4   1  -6   -0.88    2.24
  -4   1  -6    2.60    3.12
  -4   1  -6   -2.92    2.56
  -4   1  -6   -0.46    2.99
   4  -1   6    0.08    2.46
   4   0  -6   79.99   17.61
  -4   0   6   83.74    9.07
  -4   0   6   86.24    9.63
  -4   0   6   77.32    7.85
  -4   0   6   87.48    9.20
  -4   0   6   78.24    8.70
  -4   0   6   69.35    8.91
  -4   0   6   90.82    7.72
   3   0  -6  173.00   18.64
   3   0  -6  163.55    8.88
  -3   0   6  149.65    8.43
  -3   0   6  139.63    8.49
  -3   0   6  168.03   10.78
  -3   0   6  159.36   10.19
  -3   0   6  164.34   10.12
  -3   0   6  150.17    6.99
  -3   0   6  168.54    9.09
  -3   0   6  161.29    6.89
   2   0  -6 1350.34   43.38
   2   0  -6 1301.17   44.20
   2   0  -6 1300.68   55.32
  -2   0   6 1259.24   42.09
  -2   0   6 1275.29   44.06
  -2   0   6 1299.65   40.78
  -2   0   6 1366.51   43.47
  -2   0   6 1280.70   42.54
  -2   0   6 1266.05   41.05
  -2   0   6 1337.72   44.92
  -2   0   6 1261.00   42.61
  -2   0   6 1324.13   45.57
  -2   0   6 1278.03   42.45
   1   0  -6    6.86    1.36
   1   0  -6    6.73    1.13
   1   0  -6    6.99    1.49
   1   0  -6   12.37    4.44
   1   0  -6    9.76    2.39
   1   0  -6    4.78    1.84
   1   0  -6    7.34    1.85
  -1   0   6    8.55    1.45
  -1   0   6    9.23    1.91
  -1   0   6    7.92    0.82
  -1   0   6    7.44    1.20
  -1   0   6    8.73    1.71
  -1   0   6    8.24    2.25
  -1   0   6    7.01    1.46
  -1   0   6   26.37   11.21
  -1   0   6    8.69    2.41
  -1   0   6    8.86    3.47
  -1   0   6    9.90    2.34
  -1   0   6   10.12    2.25
   0   0  -6  395.76   16.35
   0   0  -6  385.72   15.83
   0   0  -6  413.73   15.25
   0   0  -6  430.97   21.64
   0   0  -6  406.73   15.86
   0   0  -6  403.24   15.03
   0   0  -6  403.99   14.96
   0   0  -6  394.38   14.75
   0   0  -6  435.08   34.98
   0   0  -6  409.37   13.87
   0   0   6  411.02   16.48
   0   0   6  414.50   20.80
   0   0   6  408.45   13.90
   0   0   6  394.36   16.03
   0   0   6  441.41   34.02
   0   0   6  393.09   15.12
   0   0   6  391.67   14.88
   0   0   6  394.61   15.45
   0   0   6  358.22   15.07
   0   0   6  442.10   16.13
  -1   0  -6 1094.52   35.85
  -1   0  -6 1051.01   37.14
  -1   0  -6 1102.60   37.49
  -1   0  -6 1109.24   36.91
  -1   0  -6 1091.39   37.03
  -1   0  -6 1115.90   36.62
   1   0   6 1094.59   34.42
   1   0   6 1071.44   36.83
   1   0   6 1081.88   36.73
   1   0   6 1031.60   35.59
   1   0   6 1030.23   50.33
   1   0   6 1054.37   36.43
   1   0   6 1099.02   37.28
   1   0   6 1065.56   37.74
  -2   0  -6    0.20    1.56
  -2   0  -6    1.33    1.59
  -2   0  -6    2.66    1.63
  -2   0  -6    1.19    1.22
  -2   0  -6    3.84    2.09
  -2   0  -6    0.21    0.83
   2   0   6    1.55    0.67
   2   0   6    2.42    1.84
  -3   0  -6  391.86   18.82
  -3   0  -6  386.04   19.37
  -3   0  -6  382.36   18.13
  -3   0  -6  395.40   15.63
  -3   0  -6  404.22   20.16
  -3   0  -6  403.07   16.54
   3   0   6  387.27   16.48
   3   0   6  402.63   18.54
  -4   0  -6  111.18    9.52
  -4   0  -6  114.53   11.82
  -4   0  -6   96.40   11.08
  -4   0  -6  105.05   11.82
   4   0   6  108.01   10.76
   4  -1  -6    8.49    7.13
  -4   1   6   19.87    4.76
  -4   1   6   17.00    4.28
  -4   1   6   14.30    3.89
  -4   1   6   21.05    5.21
  -4   1   6   26.82    5.20
  -4   1   6   25.27    4.40
  -4   1   6   18.32    5.05
  -4   1   6   27.63    5.11
   3  -1  -6  448.59   17.63
   3  -1  -6  368.06   28.04
  -3   1   6  456.16   19.67
  -3   1   6  429.36   19.10
  -3   1   6  451.13   20.56
  -3   1   6  418.40   15.89
  -3   1   6  426.56   17.88
  -3   1   6  420.98   17.81
  -3   1   6  421.23   17.08
  -3   1   6  452.15   19.39
  -3   1   6  416.07   15.83
   2  -1  -6  466.80   17.49
   2  -1  -6  416.69   25.44
   2  -1  -6  440.45   17.55
  -2   1   6  402.00   18.45
  -2   1   6  433.50   17.39
  -2   1   6  423.61   17.18
  -2   1   6  433.33   16.50
  -2   1   6  441.79   15.10
  -2   1   6  395.62   17.54
  -2   1   6  408.93   15.52
  -2   1   6  434.39   15.33
  -2   1   6  425.10   16.33
   1  -1  -6  153.90    6.20
   1  -1  -6  151.60    9.02
   1  -1  -6  141.94    7.61
   1  -1  -6  154.13    8.41
   1  -1  -6  138.55    6.20
   1  -1  -6  152.43   12.19
   1  -1  -6  144.27    6.62
  -1   1   6  146.07    6.13
  -1   1   6  134.59    6.50
  -1   1   6  146.29    6.38
  -1   1   6  179.63   24.87
  -1   1   6  141.19    7.38
  -1   1   6  142.81    6.29
  -1   1   6  149.06    7.94
  -1   1   6  139.98    7.70
  -1   1   6  151.94    7.59
  -1   1   6  133.98    7.83
  -1   1   6  153.86    5.73
  -1   1   6  155.08   11.85
   0  -1  -6   67.42    4.70
   0  -1  -6   75.36   14.73
   0  -1  -6   64.79    3.97
   0  -1  -6   70.56    5.02
   0  -1  -6   59.28    4.25
   0  -1  -6   68.33    3.73
   0  -1  -6   59.72    5.17
   0  -1  -6   62.46    4.17
   0  -1  -6   64.79    4.36
   0   1   6   75.83    4.87
   0   1   6   63.44    7.27
   0   1   6   68.95    4.26
   0   1   6   66.01    4.81
   0   1   6   67.77    5.07
   0   1   6   66.27    3.71
   0   1   6   67.08   13.58
   0   1   6   69.73    5.25
  -1  -1  -6   -0.33    0.96
  -1  -1  -6    1.21    1.42
  -1  -1  -6    1.36    1.22
  -1  -1  -6    0.01    1.17
  -1  -1  -6    0.94    1.35
  -1  -1  -6    2.10    3.87
   1   1   6    1.54    1.31
   1   1   6    0.41    0.85
   1   1   6    1.13    1.08
   1   1   6    0.80    1.25
   1   1   6    0.31    2.94
   1   1   6   -0.52    1.11
   1   1   6    0.81    1.19
   1   1   6    0.57    0.93
  -2  -1  -6  196.87   10.69
  -2  -1  -6  185.89    8.12
  -2  -1  -6  174.66   10.07
  -2  -1  -6  184.48    7.65
  -2  -1  -6  184.00   10.11
  -2  -1  -6  203.24   10.84
   2   1   6  185.32   10.17
   2   1   6  173.62    7.50
   2   1   6  186.00    8.07
  -3  -1  -6  257.78   14.99
  -3  -1  -6  285.12   15.11
  -3  -1  -6  253.74   15.50
  -3  -1  -6  270.98   14.27
  -3  -1  -6  254.93   13.01
   3   1   6  269.20   14.20
  -4  -1  -6  439.05   23.61
  -4  -1  -6  437.45   22.68
  -4  -1  -6  397.05   21.54
  -4  -1  -6  405.24   20.26
   4   1   6  400.09   20.26
   4  -2  -6  191.29   22.22
  -4   2   6  250.48   12.65
  -4   2   6  264.07   13.73
  -4   2   6  232.85   15.74
  -4   2   6  254.77   13.84
  -4   2   6  275.29   15.49
  -4   2   6  261.50   14.67
  -4   2   6  259.14   14.28
  -4   2   6  270.10   15.30
  -4   2   6  263.20   14.64
   3  -2  -6   97.47   30.06
   3  -2  -6  109.65   13.99
   3  -2  -6  104.42    6.59
  -3   2   6  102.50    7.74
  -3   2   6  102.69    5.98
  -3   2   6   98.13    6.63
  -3   2   6   97.94    6.06
  -3   2   6   87.08    8.26
  -3   2   6  101.16    7.27
  -3   2   6   99.34    7.11
   2  -2  -6    0.92    2.38
   2  -2  -6    2.00    1.17
   2  -2  -6    0.74    6.78
   2  -2  -6   -1.69    1.06
  -2   2   6    1.56    1.03
  -2   2   6    0.80    0.88
  -2   2   6    1.32    1.00
  -2   2   6    0.11    1.50
  -2   2   6    3.53    1.72
  -2   2   6    1.92    1.31
  -2   2   6    1.23    1.46
  -2   2   6    0.31    1.33
   1  -2  -6 1796.42   56.88
   1  -2  -6 1776.04   59.32
   1  -2  -6 1871.62   66.74
   1  -2  -6 1801.45   55.55
   1  -2  -6 1740.73   58.72
  -1   2   6 1839.87   65.81
  -1   2   6 1800.16   55.77
  -1   2   6 1787.38   56.11
  -1   2   6 1704.15   58.84
  -1   2   6 1741.69   57.80
  -1   2   6 1778.15   55.52
  -1   2   6 1815.91   59.02
  -1   2   6 1737.44   59.15
  -1   2   6 1813.55   58.76
  -1   2   6 1783.40   58.29
  -1   2   6 1786.73   57.00
   0  -2  -6  170.57    7.48
   0  -2  -6  180.04    9.60
   0  -2  -6  169.61    7.41
   0  -2  -6  163.75    8.15
   0  -2  -6  171.96   23.54
   0  -2  -6  179.13   13.17
   0  -2  -6  167.87    7.73
   0  -2  -6  170.84    8.99
   0  -2  -6  168.26    8.34
   0  -2  -6  180.16    8.68
   0  -2  -6  173.71    8.32
   0   2   6  160.92   21.46
   0   2   6  170.52    8.38
   0   2   6  173.46    8.41
   0   2   6  170.90    7.65
   0   2   6  186.99    8.37
   0   2   6  165.47    9.28
   0   2   6  186.47    9.08
   0   2   6  168.46    7.45
   0   2   6  173.54    8.72
  -1  -2  -6  402.47   17.35
  -1  -2  -6  406.37   15.36
  -1  -2  -6  423.74   16.25
  -1  -2  -6  424.83   16.61
  -1  -2  -6  365.24   30.94
  -1  -2  -6  413.26   16.74
   1   2   6  413.77   16.91
   1   2   6  368.57   28.90
   1   2   6  399.62   14.75
   1   2   6  400.87   17.05
   1   2   6  413.93   15.72
   1   2   6  405.70   16.40
   1   2   6  390.12   14.91
  -2  -2  -6   46.53    6.10
  -2  -2  -6   34.07    5.28
  -2  -2  -6   47.09    5.37
  -2  -2  -6   44.18    3.54
  -2  -2  -6   45.44    5.90
  -2  -2  -6   52.76    6.10
   2   2   6   57.99    6.46
   2   2   6   44.42    3.47
   2   2   6   41.91    5.28
   2   2   6   46.98    3.13
  -3  -2  -6  537.87   24.19
  -3  -2  -6  540.20   22.49
  -3  -2  -6  522.44   23.89
  -3  -2  -6  505.74   22.60
  -3  -2  -6  526.87   25.06
  -3  -2  -6  552.18   24.01
   3   2   6  535.15   22.73
  -4  -2  -6   40.45    8.13
  -4  -2  -6   47.39    7.13
  -4  -2  -6   45.91    7.59
  -4  -2  -6   43.84    7.85
   4   2   6   55.04    7.55
   4  -3  -6    0.20   10.24
   4  -3  -6    1.95    5.61
  -4   3   6    4.13    3.46
  -4   3   6   10.74    3.69
  -4   3   6   11.54    3.62
  -4   3   6    6.10    3.24
  -4   3   6   17.07    4.70
  -4   3   6   14.98    4.38
  -4   3   6    9.85    3.54
   3  -3  -6    3.65    4.25
   3  -3  -6    1.37    9.12
   3  -3  -6    1.45    1.66
  -3   3   6    4.83    1.89
  -3   3   6    8.50    2.00
  -3   3   6    5.50    2.23
  -3   3   6    4.77    2.98
  -3   3   6    3.41    2.33
  -3   3   6    6.33    1.89
   2  -3  -6    3.90    1.54
   2  -3  -6    9.27    4.64
   2  -3  -6    5.74    2.09
   2  -3  -6   10.90   10.64
  -2   3   6    6.39    1.24
  -2   3   6    5.46    1.06
  -2   3   6    8.29    1.98
  -2   3   6    3.44    1.79
  -2   3   6    3.81    1.98
   1  -3  -6  808.85   63.30
   1  -3  -6  932.55   28.11
   1  -3  -6  893.85   38.42
   1  -3  -6  879.74   30.47
   1  -3  -6  949.04   32.95
  -1   3   6  883.24   30.67
  -1   3   6  916.68   32.46
  -1   3   6  891.95   37.63
  -1   3   6  902.29   29.83
  -1   3   6  969.54   32.74
  -1   3   6  908.69   31.93
  -1   3   6  865.95   28.17
  -1   3   6  853.81   30.70
   0  -3  -6  536.77   20.27
   0  -3  -6  545.60   19.45
   0  -3  -6  616.37   22.11
   0  -3  -6  558.16   20.65
   0  -3  -6  527.33   20.37
   0  -3  -6  551.46   19.64
   0  -3  -6  571.56   27.56
   0   3   6  527.61   20.58
   0   3   6  519.85   19.18
   0   3   6  533.61   21.33
   0   3   6  562.09   18.49
   0   3   6  542.57   21.12
   0   3   6  549.71   20.52
  -1  -3  -6   23.27    2.76
  -1  -3  -6   20.97    9.39
  -1  -3  -6   25.82    3.74
  -1  -3  -6   19.55    2.87
  -1  -3  -6   13.88    2.88
  -1  -3  -6   20.51    3.46
  -1  -3  -6   16.60    3.61
  -1  -3  -6   19.17    3.18
   1   3   6   18.59    3.33
   1   3   6   22.32    9.46
   1   3   6   19.70    3.60
   1   3   6   21.92    3.10
   1   3   6   15.48    3.24
   1   3   6   20.50    2.56
   1   3   6   24.33    3.12
  -2  -3  -6   27.40    4.47
  -2  -3  -6   29.86    4.86
  -2  -3  -6   24.42    3.41
  -2  -3  -6   15.76    3.74
  -2  -3  -6   27.78    4.76
  -2  -3  -6   20.89    8.20
  -2  -3  -6   21.00    4.33
  -2  -3  -6   31.66    4.58
   2   3   6   30.39    4.46
   2   3   6   36.21    2.30
   2   3   6   27.57    4.48
   2   3   6   33.22    3.82
  -3  -3  -6   36.73    6.36
  -3  -3  -6   22.60    3.69
  -3  -3  -6   29.35    5.22
  -3  -3  -6   33.00    5.59
  -3  -3  -6   22.05    5.21
  -3  -3  -6   22.51    5.01
  -3  -3  -6   26.57    5.75
   3   3   6   23.79    4.67
  -4  -3  -6   14.38    4.32
  -4  -3  -6    5.33    3.81
  -4  -3  -6   18.00    5.42
  -4  -3  -6   19.42    5.85
  -4  -3  -6    7.33    4.39
   4   3   6   14.81    4.48
   4  -4  -6   52.73   13.36
  -4   4   6   88.85    9.65
  -4   4   6  103.83    8.27
  -4   4   6   87.37   10.99
  -4   4   6  103.96    8.97
  -4   4   6  111.17   10.75
  -4   4   6   82.22    9.26
  -4   4   6   94.15   10.92
   3  -4  -6   38.30    9.58
   3  -4  -6   28.10   19.22
   3  -4  -6   49.07    4.59
  -3   4   6   44.88    5.63
  -3   4   6   47.53    5.67
  -3   4   6   44.59    6.31
  -3   4   6   46.74    6.81
  -3   4   6   41.14    3.24
  -3   4   6   46.45    3.73
  -3   4   6   54.55    5.50
  -3   4   6   38.63    6.69
   2  -4  -6    9.94    4.47
   2  -4  -6    8.83   11.49
   2  -4  -6   11.00    2.77
  -2   4   6   11.36    3.10
  -2   4   6   10.88    2.79
  -2   4   6   11.20    2.42
   1  -4  -6  414.80   15.88
   1  -4  -6  393.70   16.36
   1  -4  -6  441.94   23.20
   1  -4  -6  431.04   18.35
   1  -4  -6  394.93   43.70
  -1   4   6  423.49   17.97
  -1   4   6  416.39   16.34
  -1   4   6  440.53   18.31
  -1   4   6  438.45   17.54
  -1   4   6  420.02   24.51
  -1   4   6  434.36   16.85
   0  -4  -6  256.17   11.82
   0  -4  -6  295.80   18.30
   0  -4  -6  279.78   32.85
   0  -4  -6  251.19   11.90
   0  -4  -6  277.73   11.79
   0  -4  -6  263.95   11.40
   0  -4  -6  278.30   10.84
   0   4   6  268.95   12.86
   0   4   6  258.14   12.49
   0   4   6  253.68   11.57
   0   4   6  250.19    9.39
   0   4   6  248.48   12.12
  -1  -4  -6   63.25    5.37
  -1  -4  -6   67.42    6.68
  -1  -4  -6   59.58    3.96
  -1  -4  -6   63.15    5.35
  -1  -4  -6   95.20   17.92
  -1  -4  -6   57.69    4.82
  -1  -4  -6   61.67    5.31
  -1  -4  -6   47.06    6.23
   1   4   6   66.89    5.79
   1   4   6   52.05    6.18
   1   4   6   89.05   16.66
   1   4   6   59.31    3.95
   1   4   6   59.40    5.92
  -2  -4  -6    1.63    1.74
  -2  -4  -6    0.44    1.96
  -2  -4  -6    2.35    4.97
  -2  -4  -6    0.15    1.76
  -2  -4  -6   -0.20    1.75
  -2  -4  -6    0.36    1.02
  -2  -4  -6    1.27    2.01
  -2  -4  -6    1.26    1.88
  -2  -4  -6    2.86    1.75
   2   4   6    1.07    1.65
   2   4   6   -0.23    1.62
  -3  -4  -6    5.89    3.17
  -3  -4  -6    4.70    3.07
  -3  -4  -6    2.41    2.10
  -3  -4  -6    8.26    3.53
  -3  -4  -6    2.86    2.96
  -3  -4  -6    6.90    2.62
  -3  -4  -6    6.41    3.49
   3   4   6    7.02    3.01
  -4  -4  -6    0.12    2.54
  -4  -4  -6    8.27    4.01
  -4  -4  -6    6.45    4.08
  -4  -4  -6    3.74    4.11
  -4  -4  -6    2.76    3.22
   4   4   6    2.88    3.11
   4  -5  -6   20.05    8.62
  -4   5   6   56.67    7.33
  -4   5   6   60.23    8.18
  -4   5   6   39.72    7.12
  -4   5   6   51.56    7.50
  -4   5   6   38.77    7.41
   3  -5  -6  133.85   14.77
   3  -5  -6   80.05   29.51
   3  -5  -6  144.86    8.46
  -3   5   6  150.76   11.41
  -3   5   6  136.42    9.98
  -3   5   6  137.95    8.85
  -3   5   6  140.37   10.66
  -3   5   6  142.59    8.74
  -3   5   6  133.83    8.33
   2  -5  -6   90.38    6.94
   2  -5  -6   94.34    6.91
   2  -5  -6   79.61    9.93
   2  -5  -6   43.73   19.90
  -2   5   6   91.18    6.24
  -2   5   6   79.45    7.23
  -2   5   6   81.99    6.29
  -2   5   6   83.11    7.10
  -2   5   6   76.30    4.81
   1  -5  -6  136.06    9.42
   1  -5  -6  169.98   13.39
   1  -5  -6  160.54    8.28
   1  -5  -6  176.48   29.39
   1  -5  -6  160.20    9.51
   1  -5  -6  161.01    8.23
  -1   5   6  167.12    9.96
  -1   5   6  158.57    9.50
  -1   5   6  169.78    9.13
  -1   5   6  154.82    8.78
  -1   5   6  158.37    8.98
   0  -5  -6  240.16   10.92
   0  -5  -6  190.94    9.09
   0  -5  -6  217.68   10.33
   0  -5  -6  204.24   10.73
   0  -5  -6  207.71   12.04
   0  -5  -6  232.00   16.52
   0   5   6  222.63   11.31
   0   5   6  211.69   11.18
   0   5   6  222.08   10.34
   0   5   6  223.66   11.62
  -1  -5  -6   13.99    3.14
  -1  -5  -6   20.05    3.63
  -1  -5  -6   18.40    4.23
  -1  -5  -6   15.47    3.17
  -1  -5  -6   16.61    3.11
  -1  -5  -6   25.73    4.12
  -1  -5  -6   30.75   13.44
   1   5   6   16.28    3.32
   1   5   6   16.23    3.76
   1   5   6   12.29    3.14
  -2  -5  -6   31.13    4.61
  -2  -5  -6   28.47    5.33
  -2  -5  -6   27.47    4.07
  -2  -5  -6   36.04    5.90
  -2  -5  -6   38.09    6.00
  -2  -5  -6   30.04    4.74
  -2  -5  -6   31.35    5.62
   2   5   6   36.52    5.15
   2   5   6   39.06    5.71
  -3  -5  -6    4.95    2.95
  -3  -5  -6    2.98    2.89
  -3  -5  -6    7.57    3.04
  -3  -5  -6    5.78    3.49
  -3  -5  -6   11.71    4.77
  -3  -5  -6    6.16    3.33
  -3  -5  -6    9.37    3.19
   3   5   6   16.97    3.95
   4  -6  -6   -2.06   10.99
  -4   6   6    3.43    3.76
  -4   6   6   -1.59    2.38
  -4   6   6   -0.61    2.63
  -4   6   6    1.72    3.12
   3  -6  -6   12.80   14.70
   3  -6  -6   20.55    6.92
   3  -6  -6   22.90    4.34
   3  -6  -6   24.16    4.26
  -3   6   6   26.78    4.10
  -3   6   6   20.74    4.98
  -3   6   6   32.93    6.41
  -3   6   6   24.31    4.14
  -3   6   6   20.75    4.12
  -3   6   6   17.83    4.73
   2  -6  -6   26.81    4.74
   2  -6  -6   34.41    7.50
   2  -6  -6   29.00   17.45
   2  -6  -6   20.75    4.06
  -2   6   6   23.33    4.01
  -2   6   6   26.09    4.91
  -2   6   6   20.63    4.36
  -2   6   6   22.49    4.75
  -2   6   6   25.43    4.05
  -2   6   6   26.88    2.88
   1  -6  -6   17.20    3.19
   1  -6  -6   21.14    3.87
   1  -6  -6   21.00    4.25
   1  -6  -6   22.59    3.28
   1  -6  -6   18.83    5.28
  -1   6   6   12.78    2.93
  -1   6   6   27.30    4.52
  -1   6   6   20.10    3.59
   0  -6  -6    9.99    2.61
   0  -6  -6   17.23    2.50
   0  -6  -6   22.52    6.34
   0  -6  -6   16.85    3.20
   0  -6  -6   10.50    2.95
   0  -6  -6   17.63   11.59
   0   6   6   14.91    3.49
   0   6   6   14.18    3.29
   0   6   6   14.48    3.35
   0   6   6   15.46    2.91
  -1  -6  -6    1.77    2.08
  -1  -6  -6    0.88    5.75
  -1  -6  -6    1.34    1.77
  -1  -6  -6    2.07    1.89
  -1  -6  -6    0.46    1.85
  -1  -6  -6    0.16    1.41
  -1  -6  -6    0.90    1.53
   1   6   6    0.37    1.13
   1   6   6    1.18    1.68
   1   6   6    2.00    1.80
   1   6   6    0.80    1.13
  -2  -6  -6    2.78    2.49
  -2  -6  -6    1.39    6.27
  -2  -6  -6    5.82    3.21
  -2  -6  -6    4.43    2.23
  -2  -6  -6    3.07    2.72
  -2  -6  -6    3.67    2.15
  -2  -6  -6   11.06    3.18
  -2  -6  -6    3.80    2.83
   2   6   6    6.89    2.62
   2   6   6    8.75    3.02
  -3  -6  -6    0.06    2.39
  -3  -6  -6    0.80    2.80
  -3  -6  -6   -2.38    2.38
  -3  -6  -6   -0.09    2.52
  -3  -6  -6   -3.69    1.71
  -3  -6  -6    0.97    2.96
  -3  -6  -6   -2.31    1.75
  -3  -6  -6    0.69    2.16
   3   6   6   -1.88    2.08
   4  -7  -6   32.96   23.36
  -4   7   6   66.75    9.65
  -4   7   6   58.38   10.13
  -4   7   6   59.92    9.95
  -4   7   6   59.73    8.89
   3  -7  -6  358.68   25.44
   3  -7  -6  472.97   19.93
   3  -7  -6  459.89   20.66
  -3   7   6  470.24   19.33
  -3   7   6  494.62   20.03
  -3   7   6  443.54   19.90
  -3   7   6  452.89   23.08
  -3   7   6  463.82   22.95
  -3   7   6  411.56   21.55
   2  -7  -6  178.29   10.96
   2  -7  -6  158.38   13.76
   2  -7  -6  171.84   10.87
  -2   7   6  158.94    9.89
  -2   7   6  159.31   11.22
  -2   7   6  156.45    9.38
  -2   7   6  157.22   11.01
  -2   7   6  163.87   11.11
   1  -7  -6   13.19    3.12
   1  -7  -6   20.43    5.82
   1  -7  -6   18.64   13.94
   1  -7  -6   11.80    2.57
   1  -7  -6   15.61    3.90
   1  -7  -6   15.59    3.97
  -1   7   6   14.71    3.60
  -1   7   6   14.87    3.53
  -1   7   6    3.84    2.09
  -1   7   6   20.86    3.93
  -1   7   6   14.92    3.45
   0  -7  -6    0.22    1.03
   0  -7  -6   -0.34    1.73
   0  -7  -6   -0.76    1.52
   0  -7  -6    0.55    1.11
   0  -7  -6    0.96    1.33
   0  -7  -6    0.27    1.36
   0  -7  -6   -1.07    4.99
   0  -7  -6   -1.35    1.84
   0   7   6    0.16    1.79
   0   7   6    0.23    1.64
   0   7   6    1.67    1.63
   0   7   6    0.40    1.23
   0   7   6   -1.85    1.20
  -1  -7  -6    2.27    2.11
  -1  -7  -6    6.03    2.63
  -1  -7  -6    3.23    2.05
  -1  -7  -6    3.92    2.93
  -1  -7  -6    0.50    1.52
  -1  -7  -6    3.45    8.20
  -1  -7  -6    1.45    1.82
  -1  -7  -6    4.68    2.47
   1   7   6    1.83    2.07
   1   7   6    3.61    2.42
   1   7   6    1.64    1.37
   1   7   6    3.94    2.56
  -2  -7  -6   -1.28    1.58
  -2  -7  -6    2.58    2.70
  -2  -7  -6    3.96    2.74
  -2  -7  -6    1.76    2.41
  -2  -7  -6   -1.38    2.36
  -2  -7  -6    4.97    8.30
  -2  -7  -6    2.25    1.97
  -2  -7  -6   -1.04    1.92
  -2  -7  -6   -1.98    1.82
   2   7   6    2.54    2.19
   2   7   6    3.29    2.34
  -3  -7  -6   96.52   10.87
  -3  -7  -6   95.64    9.99
  -3  -7  -6  100.48   11.70
  -3  -7  -6   98.05   11.19
  -3  -7  -6   91.48   10.81
  -3  -7  -6   98.84   10.00
  -3  -7  -6  113.54   10.84
  -3  -7  -6  105.45    8.72
   3   7   6  120.50    9.13
  -4   8   6   65.87    9.72
  -4   8   6   50.86    8.83
  -4   8   6   44.22    9.02
   3  -8  -6    2.79    2.60
   3  -8  -6    3.56    2.60
   3  -8  -6    1.14   10.69
  -3   8   6    0.59    2.25
  -3   8   6   -0.28    2.55
  -3   8   6    0.84    2.18
  -3   8   6    2.04    3.01
   2  -8  -6   86.16   10.20
   2  -8  -6  103.70    8.58
   2  -8  -6   92.44   32.95
   2  -8  -6   99.66    8.33
  -2   8   6   83.49    9.38
  -2   8   6   94.63    7.64
  -2   8   6   80.12    6.62
  -2   8   6   79.54    9.11
  -2   8   6   75.65    9.08
   1  -8  -6   29.84    5.20
   1  -8  -6   24.36    5.06
   1  -8  -6    7.63   11.89
   1  -8  -6   21.28    3.91
   1  -8  -6   22.05    6.14
   1  -8  -6   31.55    3.97
  -1   8   6   31.13    5.05
  -1   8   6   22.84    4.30
  -1   8   6   24.17    4.26
  -1   8   6   16.84    3.89
  -1   8   6   24.50    4.95
   0  -8  -6   14.67    3.51
   0  -8  -6   14.50    2.62
   0  -8  -6   18.87    2.91
   0  -8  -6   17.48    4.33
   0  -8  -6   18.27   13.89
   0  -8  -6   17.34    6.33
   0  -8  -6   21.84    5.10
   0  -8  -6   14.41    3.15
   0   8   6   13.19    3.13
   0   8   6    9.24    3.01
   0   8   6    9.94    3.25
   0   8   6   15.18    4.12
   0   8   6   14.34    3.05
  -1  -8  -6   33.29    5.17
  -1  -8  -6   51.72   21.53
  -1  -8  -6   46.97    6.21
  -1  -8  -6   41.94    5.85
  -1  -8  -6   41.41    7.41
  -1  -8  -6   42.97    6.03
  -1  -8  -6   55.96    6.61
  -1  -8  -6   40.97    5.43
   1   8   6   46.25    6.54
   1   8   6   54.07    4.36
   1   8   6   42.84    6.54
   1   8   6   34.51    5.77
  -2  -8  -6  307.69   16.22
  -2  -8  -6  307.76   18.98
  -2  -8  -6  320.09   14.96
  -2  -8  -6  308.67   16.40
  -2  -8  -6  302.02   17.03
  -2  -8  -6  303.09   17.16
  -2  -8  -6  352.73   18.27
  -2  -8  -6  319.36   16.92
   2   8   6  308.13   16.21
   2   8   6  328.79   15.99
  -3  -8  -6   67.80    8.44
  -3  -8  -6   68.84   10.13
  -3  -8  -6   59.31    7.69
  -3  -8  -6   82.37   10.44
  -3  -8  -6   67.35    9.60
  -3  -8  -6   65.02    8.89
  -3  -8  -6   59.29    9.68
  -3  -8  -6   62.56    8.24
   3   8   6   68.23    8.03
   3  -9  -6    9.37    3.60
   3  -9  -6   27.76   21.81
  -3   9   6    8.10    3.87
  -3   9   6   11.19    3.70
  -3   9   6   11.95    4.64
  -3   9   6   13.45    4.79
   2  -9  -6   70.93   30.50
   2  -9  -6   61.87    8.69
   2  -9  -6   69.14    8.72
   2  -9  -6   53.92    7.61
  -2   9   6   67.99    7.02
  -2   9   6   46.12    7.20
  -2   9   6   52.07    6.96
  -2   9   6   51.73    7.51
  -2   9   6   52.79    7.92
   1  -9  -6   49.91    6.18
   1  -9  -6   42.89    4.86
   1  -9  -6   44.29    8.55
   1  -9  -6   28.57    5.35
   1  -9  -6   46.35    7.44
   1  -9  -6   21.91   16.90
  -1   9   6   41.80    6.08
  -1   9   6   57.73    7.97
  -1   9   6   38.76    6.01
  -1   9   6   47.90    6.11
  -1   9   6   40.92    5.97
   0  -9  -6   10.09    2.55
   0  -9  -6    7.47    3.88
   0  -9  -6    9.21    2.39
   0  -9  -6    3.92    9.97
   0  -9  -6    8.63    4.81
   0  -9  -6    9.31    3.41
   0  -9  -6    8.90    3.06
   0  -9  -6   12.37    3.09
   0   9   6    6.36    2.55
   0   9   6   10.55    3.44
   0   9   6   12.17    2.81
   0   9   6    9.91    3.53
   0   9   6    6.29    2.70
  -1  -9  -6   24.70    4.30
  -1  -9  -6   33.85    7.15
  -1  -9  -6   16.23    3.97
  -1  -9  -6   19.13    4.54
  -1  -9  -6   33.37    5.47
  -1  -9  -6   20.91   15.50
  -1  -9  -6   30.25    5.11
   1   9   6   24.02    5.41
   1   9   6   16.87    4.30
   1   9   6   27.65    3.89
  -2  -9  -6  434.15   20.63
  -2  -9  -6  388.66   20.76
  -2  -9  -6  401.27   23.07
  -2  -9  -6  428.32   21.54
  -2  -9  -6  441.34   21.29
  -2  -9  -6  420.17   20.15
  -2  -9  -6  406.89   20.17
  -2  -9  -6  420.17   18.22
   2   9   6  367.66   18.71
   2   9   6  386.89   19.54
   3 -10  -6   68.65   33.29
   3 -10  -6  103.91   11.01
  -3  10   6   93.80   10.19
  -3  10   6  126.93   13.62
  -3  10   6   95.50   11.49
  -3  10   6  113.33   12.79
   2 -10  -6  209.09   44.72
   2 -10  -6  269.81   16.38
   2 -10  -6  283.66   16.73
  -2  10   6  314.69   17.50
  -2  10   6  293.11   17.44
  -2  10   6  299.10   17.13
  -2  10   6  292.72   14.40
  -2  10   6  296.69   16.15
   1 -10  -6   84.71    8.80
   1 -10  -6   89.80    9.93
   1 -10  -6   90.62    6.28
   1 -10  -6   81.39   31.78
   1 -10  -6   87.64   10.56
   1 -10  -6   83.66   10.13
  -1  10   6   86.73    7.49
  -1  10   6   76.67    8.73
  -1  10   6  102.05    8.48
  -1  10   6   94.57    9.76
  -1  10   6   99.12    9.30
   0 -10  -6   46.69    5.19
   0 -10  -6   15.38   15.16
   0 -10  -6   34.94    5.95
   0 -10  -6   42.84    7.98
   0 -10  -6   37.61    9.23
   0 -10  -6   45.82    4.81
   0 -10  -6   51.76    6.85
   0 -10  -6   47.61    5.66
   0  10   6   39.96    6.61
   0  10   6   47.44    6.92
   0  10   6   50.10    5.77
   0  10   6   39.52    5.45
   0  10   6   53.97    7.31
  -1 -10  -6  182.79   12.15
  -1 -10  -6  104.02   33.43
  -1 -10  -6  179.89   11.56
  -1 -10  -6  169.27   11.89
  -1 -10  -6  184.60   11.43
  -1 -10  -6  154.92   13.30
  -1 -10  -6  180.76   10.89
   1  10   6  171.11   12.40
   1  10   6  179.85   12.17
  -2 -10  -6   13.81    4.19
  -2 -10  -6   15.89    4.74
  -2 -10  -6   12.66   13.41
  -2 -10  -6   10.02    4.15
  -2 -10  -6   11.34    4.38
  -2 -10  -6   12.27    4.86
  -2 -10  -6   13.39    5.41
   2  10   6   13.89    4.19
   2  10   6   15.02    4.12
   3 -11  -6  128.48   13.27
  -3  11   6  140.52   12.89
  -3  11   6  141.78   14.82
  -3  11   6  124.78   10.74
  -3  11   6  128.12   14.10
   2 -11  -6  324.10   18.51
   2 -11  -6  319.28   18.33
   2 -11  -6  210.93   47.35
  -2  11   6  325.42   19.03
  -2  11   6  313.91   18.15
  -2  11   6  306.42   17.21
  -2  11   6  302.58   17.91
   1 -11  -6    2.66    9.49
   1 -11  -6   10.18    4.16
   1 -11  -6   16.63    5.06
   1 -11  -6    6.22    3.21
  -1  11   6    4.90    3.04
  -1  11   6   12.72    3.76
  -1  11   6    2.67    2.79
  -1  11   6   12.65    4.36
  -1  11   6   10.52    3.61
   0 -11  -6    4.59    4.33
   0 -11  -6    0.66    9.23
   0 -11  -6    2.23    3.35
   0 -11  -6    3.04    2.34
   0 -11  -6    2.71    2.89
   0 -11  -6    5.23    3.26
   0  11   6    2.54    2.72
   0  11   6    0.81    2.67
   0  11   6    4.00    3.13
   0  11   6    3.83    2.47
   0  11   6    4.89    2.96
  -1 -11  -6   16.05    4.07
  -1 -11  -6   15.51   15.71
  -1 -11  -6   21.39    5.40
  -1 -11  -6   16.03    4.71
  -1 -11  -6   31.27    7.39
  -1 -11  -6   20.41    4.70
  -1 -11  -6   24.21    5.08
   1  11   6   18.39    5.24
   1  11   6   23.72    5.52
  -2 -11  -6   17.82    5.33
  -2 -11  -6   11.73    4.74
  -2 -11  -6    7.14   14.81
  -2 -11  -6   17.83    6.45
  -2 -11  -6   21.42    5.71
  -2 -11  -6   17.45    5.15
  -2 -11  -6   17.55    5.08
   2  11   6   16.60    4.49
   2 -12  -6   79.91   10.33
   2 -12  -6   80.52   10.56
   2 -12  -6   32.71   24.17
  -2  12   6   74.42   10.33
  -2  12   6   70.95    9.66
  -2  12   6   99.92   11.49
  -2  12   6   99.58   10.88
   1 -12  -6    4.20   11.31
   1 -12  -6   -1.56    2.79
   1 -12  -6   -0.86    2.03
   1 -12  -6    0.22    2.43
  -1  12   6   -0.36    2.29
  -1  12   6   -0.99    1.94
  -1  12   6   -0.63    2.48
  -1  12   6    1.15    2.60
  -1  12   6   -2.13    2.00
   0 -12  -6   -2.50    2.92
   0 -12  -6    1.07    3.98
   0 -12  -6    0.85    2.71
   0 -12  -6   -1.63    2.14
   0 -12  -6    0.01    2.07
   0 -12  -6   -1.69    9.67
   0  12   6    1.45    2.76
   0  12   6   -0.39    2.65
   0  12   6    0.09    2.08
  -1 -12  -6   25.32    5.92
  -1 -12  -6   29.85    7.14
  -1 -12  -6   10.01   15.80
  -1 -12  -6   20.60    5.83
  -1 -12  -6   16.54    8.17
  -1 -12  -6   26.58    5.92
  -1 -12  -6   15.57    4.28
  -1 -12  -6   17.43    6.23
   1  12   6   28.14    6.44
   1  12   6   24.95    5.95
   1 -13  -6   95.66   12.41
   1 -13  -6   88.12   10.85
  -1  13   6   99.32   11.97
  -1  13   6   95.26   10.49
  -1  13   6   91.80   10.76
  -1  13   6   77.28   10.29
   0 -13  -6   33.45    7.84
   0 -13  -6   14.91   18.82
   0 -13  -6   46.76    7.83
   0 -13  -6   41.44    7.84
   0  13   6   34.75    7.08
   0  13   6   51.64    7.63
   0  13   6   32.64    7.17
  -1 -15   7    2.49   13.79
   0  15  -7    8.35    3.89
   0  15  -7   14.91    5.19
   0  15  -7   13.29    4.57
   0 -15   7    9.11    4.21
   0 -15   7    8.36    3.75
   0 -15   7    6.45    4.15
   0 -15   7    1.14   11.51
  -1  15  -7    1.27    3.31
  -1  15  -7    4.41    4.09
  -1  15  -7    8.79    4.48
   1 -15   7    3.14    2.98
   1 -15   7    8.97    3.82
   1 -15   7    1.92   14.86
   1 -15   7    2.55    3.38
   1  14  -7   18.52    4.81
   1  14  -7   27.47    5.57
  -1 -14   7   38.03    6.62
  -1 -14   7   15.57   16.80
  -1 -14   7   21.12    5.18
  -1 -14   7   15.55    5.03
  -1 -14   7   12.22    4.42
   0  14  -7   41.42    6.80
   0  14  -7   24.96    6.00
   0  14  -7   21.81    5.09
   0 -14   7   26.50    5.41
   0 -14   7   26.85    5.86
   0 -14   7   22.48    5.53
   0 -14   7   20.71   18.91
  -1  14  -7    5.65    3.46
  -1  14  -7    1.19    3.20
   1 -14   7    0.51    2.55
   1 -14   7    1.49    3.26
   1 -14   7    2.36    2.91
   1 -14   7    0.97   12.86
  -2  14  -7   28.71    6.48
  -2  14  -7   18.25    6.05
  -2  14  -7   22.39    5.76
   2 -14   7   16.86    5.72
   2 -14   7   20.54   17.65
   2 -14   7   24.58    6.09
  -2 -13   7   20.44   17.51
  -2 -13   7   29.59    5.73
  -2 -13   7   29.28    6.36
  -2 -13   7   30.81    5.88
  -2 -13   7   29.20    5.96
  -2 -13   7   36.57    6.39
   1  13  -7    2.91    2.58
   1  13  -7    0.28    2.56
  -1 -13   7    1.25    2.15
  -1 -13   7    4.16    3.13
  -1 -13   7    0.43    8.78
  -1 -13   7    3.02    2.44
  -1 -13   7   -1.59    2.44
  -1 -13   7    1.85    2.63
   0  13  -7   -0.68    2.26
   0  13  -7    1.63    2.95
   0  13  -7    3.43    2.70
   0 -13   7    4.16    3.27
   0 -13   7    1.80    2.76
   0 -13   7   -1.11    8.95
   0 -13   7    4.16    2.89
  -1  13  -7  112.65   10.14
  -1  13  -7  116.21    9.91
   1 -13   7   97.67    8.53
   1 -13   7  131.86    9.84
   1 -13   7   86.75   33.70
   1 -13   7  114.60    9.29
  -2  13  -7    3.00    3.29
  -2  13  -7    2.04    2.99
  -2  13  -7    1.36    3.30
  -2  13  -7    1.08    3.18
   2 -13   7   -0.74    3.19
   2 -13   7    1.08    2.79
   2 -13   7    1.05   10.33
   2  12  -7    1.59    2.25
   2  12  -7    0.16    2.21
  -2 -12   7    0.70    2.74
  -2 -12   7    0.15    2.28
  -2 -12   7    5.29    3.39
  -2 -12   7    1.19   10.89
  -2 -12   7    4.84    2.59
  -2 -12   7    1.29    2.40
   1  12  -7   -2.24    1.90
   1  12  -7   -1.38    1.65
   1  12  -7    1.43    1.84
  -1 -12   7    0.78    9.61
  -1 -12   7    2.47    2.43
  -1 -12   7   -0.01    1.75
  -1 -12   7    2.35    2.13
  -1 -12   7   -2.52    2.08
  -1 -12   7    2.32    2.89
   0  12  -7   67.39    7.70
   0  12  -7   56.57    8.05
   0 -12   7   54.13    6.85
   0 -12   7   59.69    7.49
   0 -12   7   55.78    4.86
   0 -12   7   64.68   28.02
   0 -12   7   71.04    9.13
  -1  12  -7   18.92    4.62
  -1  12  -7   18.44    4.65
  -1  12  -7   26.46    5.32
   1 -12   7   21.43    4.48
   1 -12   7   19.22    4.44
   1 -12   7   22.59    4.59
   1 -12   7   24.17   18.17
   1 -12   7   20.00    5.13
  -2  12  -7    1.98    2.85
  -2  12  -7    6.12    3.42
  -2  12  -7    3.68    2.94
  -2  12  -7    2.74    3.32
   2 -12   7    7.07    3.55
   2 -12   7    3.87    3.36
   2 -12   7    5.44   11.33
  -3 -11   7   23.08    5.80
  -3 -11   7   12.37    4.34
  -3 -11   7   23.74    5.65
  -3 -11   7   38.05    7.45
   2  11  -7    2.27    2.15
   2  11  -7    0.94    2.19
  -2 -11   7    1.86    2.38
  -2 -11   7    0.65    2.26
  -2 -11   7    0.92    2.56
  -2 -11   7   -0.39    1.91
  -2 -11   7    3.02    2.72
   1  11  -7  102.45    8.40
   1  11  -7  101.91    7.70
   1  11  -7   98.80    6.98
  -1 -11   7  117.70    9.34
  -1 -11   7   95.65    9.75
  -1 -11   7  107.40    8.08
  -1 -11   7  107.03    8.92
  -1 -11   7   89.87   31.23
   0  11  -7   -1.04    1.63
   0  11  -7   -1.20    2.64
   0  11  -7   -1.13    2.00
   0 -11   7    0.60    1.47
   0 -11   7   -0.83    1.84
   0 -11   7    1.23    7.96
   0 -11   7    0.34    1.92
   0 -11   7    0.66    2.47
   0 -11   7   -1.77    1.31
  -1  11  -7   22.94    4.84
  -1  11  -7   22.90    4.88
  -1  11  -7   30.39    5.61
  -1  11  -7   32.80    6.30
   1 -11   7   40.19    5.89
   1 -11   7   31.00    4.95
   1 -11   7   24.91    5.40
   1 -11   7   25.58    4.73
   1 -11   7   17.13   15.15
  -2  11  -7    2.86    2.52
  -2  11  -7    2.80    2.75
  -2  11  -7    5.36    3.47
  -2  11  -7    2.44    2.70
   2 -11   7   -1.09    9.31
   2 -11   7    1.53    2.58
   2 -11   7    2.33    2.99
  -3  11  -7   19.25    5.98
  -3  11  -7   18.67    5.59
  -3  11  -7   11.74    4.29
  -3  11  -7   16.60    5.20
   3 -11   7   11.23    4.64
   3 -11   7   15.74    5.11
  -3 -10   7   13.93    4.77
  -3 -10   7   25.19    5.74
  -3 -10   7   12.68    4.58
  -3 -10   7   24.99    5.23
   2  10  -7   84.25    6.92
   2  10  -7   81.69    6.38
   2  10  -7   61.74   14.21
  -2 -10   7   97.16    7.52
  -2 -10   7   92.11    9.71
  -2 -10   7  105.34   10.42
  -2 -10   7   97.96    7.79
  -2 -10   7   78.42    8.78
   1  10  -7   59.87   11.75
   1  10  -7   82.12    7.25
   1  10  -7   81.38    6.27
  -1 -10   7   72.95    8.07
  -1 -10   7   70.61    7.77
  -1 -10   7   77.22    6.52
  -1 -10   7   96.47    9.41
   0  10  -7   -1.75    1.33
   0  10  -7    1.85    2.74
   0  10  -7    0.77    2.11
   0 -10   7    2.48    1.59
   0 -10   7    1.47    2.07
   0 -10   7    0.41    1.90
   0 -10   7    1.80    7.88
   0 -10   7    3.03    2.12
   0 -10   7    1.01    1.58
  -1  10  -7   -0.17    1.93
  -1  10  -7   -0.19    2.10
  -1  10  -7   -0.89    1.88
  -1  10  -7    4.02    2.54
   1 -10   7    1.28    2.40
   1 -10   7    6.12    2.40
   1 -10   7   -1.51    1.47
   1 -10   7    1.99    1.92
   1 -10   7    0.54    7.26
   1 -10   7    1.78    1.09
  -2  10  -7   21.68    5.02
  -2  10  -7   29.14    5.64
  -2  10  -7   14.57    4.25
  -2  10  -7   26.20    5.59
   2 -10   7   26.42   16.84
   2 -10   7   33.73    6.25
   2 -10   7   35.51    6.04
  -3  10  -7    4.53    3.73
  -3  10  -7    3.61    3.41
  -3  10  -7    0.12    2.57
  -3  10  -7    2.54    3.00
   3 -10   7    3.86    3.20
   3 -10   7    3.38    3.19
  -3  -9   7  122.70   10.51
  -3  -9   7  123.68   12.32
  -3  -9   7  132.34    9.76
  -3  -9   7  150.57   11.61
   2   9  -7   70.61    6.13
   2   9  -7   87.78   16.34
   2   9  -7   70.95    5.43
  -2  -9   7   73.56    7.46
  -2  -9   7   63.02    7.59
  -2  -9   7   62.85    7.96
  -2  -9   7   71.92    6.39
   1   9  -7    0.36    3.18
   1   9  -7   -0.60    1.59
   1   9  -7    1.19    1.57
   1   9  -7    1.54    1.39
   1   9  -7    0.12    1.36
  -1  -9   7   -1.08    1.46
  -1  -9   7    0.20    2.02
  -1  -9   7   -0.17    1.57
  -1  -9   7    2.15    2.07
   0   9  -7   26.29    4.18
   0   9  -7   35.00    5.70
   0   9  -7   33.71    5.60
   0   9  -7   46.89    8.06
   0  -9   7   25.09    4.25
   0  -9   7   26.91    4.37
   0  -9   7   27.46    3.81
   0  -9   7   33.65    6.73
   0  -9   7   40.09   19.04
   0  -9   7   40.40    6.04
   0  -9   7   28.02    3.89
  -1   9  -7  105.80    8.35
  -1   9  -7   98.68    8.43
  -1   9  -7  103.00    8.03
  -1   9  -7  110.57    8.21
  -1   9  -7  121.76    9.16
   1  -9   7  106.57    5.27
   1  -9   7  100.58    8.71
   1  -9   7  112.27    7.92
   1  -9   7  117.02    8.19
   1  -9   7  110.58   25.17
   1  -9   7  108.57    7.11
  -2   9  -7  294.07   15.81
  -2   9  -7  329.61   16.53
  -2   9  -7  304.58   16.68
  -2   9  -7  346.57   16.97
   2  -9   7  288.99   16.34
   2  -9   7  292.07   16.08
   2  -9   7  230.54   36.51
  -3   9  -7   17.83    4.73
  -3   9  -7    9.86    4.31
  -3   9  -7   12.34    4.45
  -3   9  -7   10.11    3.87
   3  -9   7   11.86    4.10
   3  -9   7    8.92    3.67
  -4  -8   7  392.99   19.42
  -4  -8   7  394.07   21.31
  -4  -8   7  320.88   19.77
   3   8  -7   44.37   13.64
  -3  -8   7   39.32    6.58
  -3  -8   7   47.04    7.32
  -3  -8   7   39.16    6.34
  -3  -8   7   37.54    5.61
   2   8  -7  368.10   14.32
   2   8  -7  299.46   26.09
  -2  -8   7  350.12   17.19
  -2  -8   7  367.31   15.92
  -2  -8   7  341.91   15.63
  -2  -8   7  343.57   17.23
   1   8  -7   69.26    6.13
   1   8  -7   73.27    5.20
   1   8  -7   79.72    4.26
   1   8  -7   71.15    5.24
   1   8  -7   56.57   10.80
  -1  -8   7   78.80    7.81
  -1  -8   7   81.62    5.76
  -1  -8   7   70.88    7.25
  -1  -8   7   65.33    7.05
   0   8  -7    4.13    2.44
   0   8  -7    7.05    2.16
   0   8  -7    8.10    3.92
   0   8  -7    7.89    2.66
   0   8  -7    7.00    2.35
   0  -8   7    6.57    2.60
   0  -8   7   11.85    2.52
   0  -8   7   10.41    2.48
   0  -8   7    6.54    2.38
   0  -8   7    5.62    2.17
   0  -8   7    7.33    3.57
   0  -8   7    4.74    1.78
  -1   8  -7  102.99    7.64
  -1   8  -7   95.81    8.03
  -1   8  -7  113.27    8.99
  -1   8  -7  103.25    7.60
  -1   8  -7   95.55    7.94
   1  -8   7  108.04    5.14
   1  -8   7  102.14    8.38
   1  -8   7  104.08    5.61
   1  -8   7  102.10    7.48
   1  -8   7  102.23   22.23
   1  -8   7   95.21    7.20
   1  -8   7  101.87    6.40
  -2   8  -7 1475.14   53.37
  -2   8  -7 1517.55   53.71
  -2   8  -7 1554.88   53.96
  -2   8  -7 1493.67   54.32
  -2   8  -7 1563.24   54.47
   2  -8   7 1534.88   53.90
   2  -8   7 1360.28   89.27
   2  -8   7 1539.82   54.39
  -3   8  -7   48.18    7.43
  -3   8  -7   54.31    8.19
  -3   8  -7   38.12    6.55
  -3   8  -7   51.04    7.67
   3  -8   7   54.11    8.12
   3  -8   7   50.29    7.25
  -4  -7   7   11.23    3.87
  -4  -7   7    6.41    3.54
  -4  -7   7    2.56    3.41
  -4  -7   7   11.98    4.97
   3   7  -7  147.36   20.22
  -3  -7   7  198.17   11.22
  -3  -7   7  201.10   12.64
  -3  -7   7  228.14   13.52
   2   7  -7  448.24   15.00
   2   7  -7  456.25   15.01
   2   7  -7  452.32   31.39
  -2  -7   7  448.28   18.54
  -2  -7   7  460.50   20.26
  -2  -7   7  460.05   18.49
  -2  -7   7  464.41   20.56
   1   7  -7   12.44    2.13
   1   7  -7   12.96    3.06
   1   7  -7   10.19    1.66
   1   7  -7   10.35    4.84
   1   7  -7   12.24    2.38
   1   7  -7   11.33    2.27
  -1  -7   7   10.88    2.03
  -1  -7   7   10.07    1.57
  -1  -7   7    8.67    2.78
  -1  -7   7    8.61    2.43
  -1  -7   7    6.66    2.15
  -1  -7   7   12.00    3.09
   0   7  -7   88.54    9.25
   0   7  -7   69.84    5.31
   0   7  -7   71.92    5.37
   0   7  -7   69.57    6.24
   0   7  -7   70.04    6.32
   0  -7   7   76.36    5.17
   0  -7   7   71.11    5.39
   0  -7   7   83.44    6.07
   0  -7   7   73.17    5.18
   0  -7   7   67.66    7.88
   0  -7   7   80.09    6.78
   0  -7   7   78.24    5.25
  -1   7  -7   29.21    5.49
  -1   7  -7   24.56    4.06
  -1   7  -7   33.88    4.83
  -1   7  -7   27.37    4.60
  -1   7  -7   34.31    3.57
  -1   7  -7   29.70    4.81
   1  -7   7   33.07    4.74
   1  -7   7   20.59   12.04
   1  -7   7   34.42    3.68
   1  -7   7   29.84    2.52
   1  -7   7   25.46    4.06
   1  -7   7   24.60    4.56
   1  -7   7   34.27    3.47
  -2   7  -7   89.22    7.66
  -2   7  -7   87.80    5.49
  -2   7  -7   67.82    7.75
  -2   7  -7   75.96    7.99
  -2   7  -7   75.10    8.33
  -2   7  -7   86.66    7.74
   2  -7   7   94.48    7.89
   2  -7   7   85.51    8.81
   2  -7   7   62.26   19.88
  -3   7  -7   92.41   10.12
  -3   7  -7   95.21   10.07
  -3   7  -7   87.11    9.64
   3  -7   7  102.34    8.61
   3  -7   7   78.78    9.11
  -4   7  -7   -0.97    3.43
  -4   7  -7    0.43    3.14
  -4   7  -7    3.08    3.15
  -4   7  -7    2.96    3.65
  -4   7  -7   -1.50    2.91
   4  -7   7   -0.24    2.90
  -4  -6   7   52.31    8.45
  -4  -6   7   55.45    8.20
  -4  -6   7   46.91    6.65
  -4  -6   7   52.26    8.08
   3   6  -7   51.06   13.36
  -3  -6   7   71.16    6.15
  -3  -6   7   68.88    7.98
  -3  -6   7   79.91    8.78
   2   6  -7  159.02   17.54
  -2  -6   7  163.88   10.01
  -2  -6   7  178.01    9.02
  -2  -6   7  159.53    6.71
  -2  -6   7  162.58    8.51
   1   6  -7   17.97    5.89
   1   6  -7   21.42    2.11
   1   6  -7   19.83    2.81
   1   6  -7   15.89    2.17
   1   6  -7   18.12    3.45
   1   6  -7   17.57    2.35
  -1  -6   7   17.07    3.30
  -1  -6   7   16.13    3.18
  -1  -6   7   21.86    3.52
  -1  -6   7   19.75    2.03
  -1  -6   7   17.13    3.33
  -1  -6   7   15.60    2.55
   0   6  -7   14.85    3.43
   0   6  -7   12.61    4.33
   0   6  -7    9.09    2.14
   0   6  -7   17.66    2.83
   0   6  -7    6.87    2.27
   0   6  -7   14.86    2.59
   0  -6   7   14.90    4.31
   0  -6   7   13.88    2.56
   0  -6   7   11.56    2.67
   0  -6   7   12.62    2.52
   0  -6   7   15.21    2.60
   0  -6   7   15.48    3.46
   0  -6   7   13.13    2.57
  -1   6  -7  122.31    8.29
  -1   6  -7  131.90   10.38
  -1   6  -7  121.21    7.76
  -1   6  -7  120.88    7.78
  -1   6  -7  112.68    5.83
   1  -6   7  121.79    7.73
   1  -6   7  125.40    6.09
   1  -6   7  124.32    7.76
   1  -6   7  121.98    8.45
   1  -6   7  111.18    5.62
   1  -6   7  116.98    6.28
  -2   6  -7  376.20   12.63
  -2   6  -7  380.63   17.47
  -2   6  -7  364.00   17.41
  -2   6  -7  347.97   17.10
  -2   6  -7  383.55   15.01
  -2   6  -7  358.04   20.25
  -2   6  -7  362.26   17.58
   2  -6   7  348.24   15.28
   2  -6   7  378.64   15.39
   2  -6   7  368.96   17.44
   2  -6   7  375.56   17.77
   2  -6   7  330.55   34.09
  -3   6  -7  326.04   16.81
  -3   6  -7  315.55   17.05
  -3   6  -7  299.17   16.82
  -3   6  -7  306.84   14.11
  -3   6  -7  303.54   16.22
  -3   6  -7  290.12   20.29
   3  -6   7  309.18   15.95
   3  -6   7  287.00   16.57
  -4   6  -7    5.34    3.44
  -4   6  -7    7.84    4.34
  -4   6  -7    3.94    3.87
  -4   6  -7    1.42    3.48
  -4   6  -7    8.30    3.95
   4  -6   7    6.75    4.00
  -4  -5   7   20.00    5.23
  -4  -5   7   21.04    4.49
  -4  -5   7   24.63    5.47
  -4  -5   7   24.28    5.65
  -4  -5   7   23.78    5.07
   3   5  -7   20.64    9.39
  -3  -5   7   31.36    4.44
  -3  -5   7   27.45    4.92
  -3  -5   7   28.44    5.30
   2   5  -7   77.01   13.45
  -2  -5   7   72.96    3.23
  -2  -5   7   79.93    5.52
  -2  -5   7   75.43    6.24
  -2  -5   7   78.22    5.20
   1   5  -7   36.03    4.57
   1   5  -7   27.02    3.19
   1   5  -7   27.12    6.89
   1   5  -7   26.94    2.30
   1   5  -7   22.06    3.93
   1   5  -7   29.50    2.29
   1   5  -7   23.84    2.76
  -1  -5   7   25.12    3.73
  -1  -5   7   27.37    2.11
  -1  -5   7   28.63    2.95
  -1  -5   7   26.50    3.89
  -1  -5   7   33.41    4.35
  -1  -5   7   21.25    3.29
   0   5  -7  282.15   11.51
   0   5  -7  255.50   13.03
   0   5  -7  311.21   17.75
   0   5  -7  268.68   11.53
   0   5  -7  266.96   12.79
   0   5  -7  235.83   12.59
   0   5  -7  289.01   11.77
   0   5  -7  311.88   14.11
   0   5  -7  273.38   11.57
   0  -5   7  265.51   11.62
   0  -5   7  268.28   11.51
   0  -5   7  304.51   17.05
   0  -5   7  273.51   11.57
   0  -5   7  266.29   12.34
   0  -5   7  266.92   11.70
   0  -5   7  276.44   13.20
  -1   5  -7   73.72    6.15
  -1   5  -7   65.36    7.57
  -1   5  -7   67.86    5.92
  -1   5  -7   71.87    3.89
  -1   5  -7   78.22    5.72
  -1   5  -7   74.67    4.36
  -1   5  -7   66.47    5.53
  -1   5  -7   61.11    4.64
   1  -5   7   72.26    5.60
   1  -5   7   70.54    4.75
   1  -5   7   71.88    4.24
   1  -5   7   67.13    5.93
   1  -5   7   71.84    3.98
   1  -5   7   69.97    5.55
  -2   5  -7  723.45   28.69
  -2   5  -7  701.21   27.93
  -2   5  -7  722.71   33.18
  -2   5  -7  709.35   24.02
  -2   5  -7  706.12   25.96
  -2   5  -7  737.64   26.07
   2  -5   7  711.78   26.07
   2  -5   7  694.62   28.08
  -3   5  -7    8.73    3.29
  -3   5  -7    7.43    3.45
  -3   5  -7    5.70    3.18
  -3   5  -7    8.63    2.95
   3  -5   7   11.78    3.42
   3  -5   7   13.35    4.20
  -4   5  -7  165.74   13.78
  -4   5  -7  194.59   14.02
  -4   5  -7  194.29   12.94
  -4   5  -7  189.55   13.10
  -4   5  -7  197.86   14.51
   4  -5   7  168.14   13.12
   4   4  -7    3.28    7.50
  -4  -4   7    1.02    2.17
  -4  -4   7    2.94    2.80
  -4  -4   7    2.57    2.68
  -4  -4   7    1.05    2.87
  -4  -4   7   -2.73    2.04
  -4  -4   7   -0.07    2.03
   3   4  -7   -1.49    4.33
  -3  -4   7    3.18    1.98
  -3  -4   7   -0.20    1.28
  -3  -4   7   -0.29    1.80
  -3  -4   7    1.15    1.98
  -3  -4   7    0.28    1.77
   2   4  -7    0.44    2.70
   2   4  -7   -0.36    0.63
  -2  -4   7   -0.99    1.07
  -2  -4   7   -1.06    0.95
  -2  -4   7   -1.31    0.89
  -2  -4   7    0.18    0.91
  -2  -4   7   -0.65    1.24
   1   4  -7   12.75    2.88
   1   4  -7   11.45    1.46
   1   4  -7   14.02    5.01
   1   4  -7    8.83    2.77
   1   4  -7   12.47    1.61
   1   4  -7   16.07    1.92
   1   4  -7   12.02    2.13
  -1  -4   7   11.54    1.61
  -1  -4   7    9.86    2.55
  -1  -4   7    7.65    2.17
  -1  -4   7   12.88    2.58
  -1  -4   7   12.71    2.79
  -1  -4   7   11.09    1.70
   0   4  -7    8.64    1.86
   0   4  -7    8.39    2.48
   0   4  -7    7.87    2.54
   0   4  -7   12.64    2.24
   0   4  -7    7.30    2.22
   0   4  -7   10.71    3.93
   0   4  -7   11.94    2.72
   0   4  -7    9.64    1.81
   0   4  -7    9.17    1.65
   0  -4   7   11.30    2.14
   0  -4   7    7.96    2.00
   0  -4   7    9.01    3.66
   0  -4   7    9.61    2.28
   0  -4   7    8.99    2.03
   0  -4   7    6.58    2.30
  -1   4  -7   24.97    4.10
  -1   4  -7   26.34    4.05
  -1   4  -7   31.11    3.70
  -1   4  -7   20.70    3.27
  -1   4  -7   26.33    3.61
  -1   4  -7   32.55    3.30
  -1   4  -7   28.42    6.02
   1  -4   7   32.42    3.64
   1  -4   7   23.56    1.97
   1  -4   7   20.30    3.63
   1  -4   7   23.39    2.71
   1  -4   7   31.99    4.27
   1  -4   7   23.32    3.60
   1  -4   7   22.81    3.46
  -2   4  -7    0.20    1.61
  -2   4  -7    0.42    1.50
  -2   4  -7   -0.33    1.08
  -2   4  -7    1.06    2.82
  -2   4  -7    0.98    1.53
  -2   4  -7    0.39    2.03
  -2   4  -7   -1.40    0.89
   2  -4   7    2.35    1.77
   2  -4   7    0.29    3.44
   2  -4   7   -0.34    0.95
   2  -4   7    0.10    1.15
  -3   4  -7   16.46    3.65
  -3   4  -7   17.93    4.41
  -3   4  -7   13.19    4.03
  -3   4  -7   17.31    3.85
  -3   4  -7   19.55    5.01
   3  -4   7   15.91    4.19
   3  -4   7    8.30    3.08
  -4   4  -7    5.93    3.35
  -4   4  -7    5.40    3.65
  -4   4  -7    4.66    4.11
  -4   4  -7    3.28    3.46
   4  -4   7    9.49    4.01
   4   3  -7    1.71    6.09
  -4  -3   7    2.51    2.75
  -4  -3   7    6.90    3.06
  -4  -3   7    2.07    2.56
  -4  -3   7   -0.48    1.93
  -4  -3   7    4.82    2.43
   3   3  -7   -2.64    3.89
  -3  -3   7   -0.95    1.74
  -3  -3   7    3.29    1.68
  -3  -3   7    1.31    1.63
  -3  -3   7   -1.60    1.58
  -3  -3   7    0.75    1.05
  -3  -3   7    2.54    2.00
   2   3  -7   12.12    1.85
   2   3  -7    9.24    2.73
  -2  -3   7   10.02    1.90
  -2  -3   7   14.05    2.86
  -2  -3   7    9.30    1.27
  -2  -3   7   12.64    3.29
  -2  -3   7    9.55    1.73
  -2  -3   7    9.97    2.70
  -2  -3   7   11.71    3.11
  -2  -3   7   11.98    1.36
   1   3  -7  588.41   29.88
   1   3  -7  570.26   20.58
   1   3  -7  583.95   19.05
   1   3  -7  586.71   18.47
   1   3  -7  553.18   22.63
   1   3  -7  587.97   18.76
  -1  -3   7  551.09   21.18
  -1  -3   7  582.43   20.74
  -1  -3   7  568.23   19.41
  -1  -3   7  564.55   21.50
  -1  -3   7  596.04   18.69
  -1  -3   7  549.75   21.94
   0   3  -7  205.93    9.01
   0   3  -7  203.54   10.03
   0   3  -7  219.13   10.16
   0   3  -7  201.20   10.35
   0   3  -7  203.40    8.96
   0   3  -7  217.77   14.65
   0   3  -7  199.24    9.95
   0  -3   7  159.06    8.26
   0  -3   7  211.57    9.59
   0  -3   7  232.34   11.25
   0  -3   7  207.73    9.45
   0  -3   7  210.88    9.47
   0  -3   7  193.80    8.96
   0  -3   7  215.85   14.21
  -1   3  -7    0.70    1.25
  -1   3  -7    1.00    1.31
  -1   3  -7   -0.21    1.35
  -1   3  -7   -0.55    0.97
  -1   3  -7   -0.08    1.09
  -1   3  -7    1.60    1.40
  -1   3  -7    0.91    2.09
   1  -3   7    1.40    1.41
   1  -3   7   -0.80    1.06
   1  -3   7   -0.77    0.93
   1  -3   7   -0.08    0.93
   1  -3   7   -0.31    0.53
  -2   3  -7   -2.10    1.28
  -2   3  -7   -0.35    1.44
  -2   3  -7    1.25    1.64
  -2   3  -7    1.49    1.76
  -2   3  -7    0.09    1.54
  -2   3  -7   -0.03    1.19
   2  -3   7   -0.65    2.68
   2  -3   7    0.88    1.57
   2  -3   7    0.77    2.87
   2  -3   7    0.40    1.13
   2  -3   7    0.23    1.21
   2  -3   7    0.30    1.23
  -3   3  -7  118.38    8.29
  -3   3  -7  108.62    9.50
  -3   3  -7  110.96    8.35
  -3   3  -7  120.94    9.73
  -3   3  -7  113.98    9.11
   3  -3   7  123.32    8.46
   3  -3   7  116.72    9.23
  -4   3  -7   84.39   10.63
  -4   3  -7   74.01    8.79
  -4   3  -7   77.70   10.23
  -4   3  -7  103.16   10.85
   4  -3   7   76.02    9.55
   4   2  -7    3.32    6.38
  -4  -2   7    9.00    3.48
  -4  -2   7    8.42    3.34
  -4  -2   7   11.02    3.95
  -4  -2   7    6.37    2.76
  -4  -2   7   12.13    4.03
   3   2  -7   35.25   10.92
  -3  -2   7   26.59    2.83
  -3  -2   7   32.15    3.32
  -3  -2   7   18.77    3.72
  -3  -2   7   18.02    3.23
  -3  -2   7   20.10    4.28
  -3  -2   7   26.31    4.60
  -3  -2   7   25.38    4.78
   2   2  -7   47.41    5.65
   2   2  -7   54.20   10.95
   2   2  -7   55.25    3.80
  -2  -2   7   45.98    3.58
  -2  -2   7   50.50    3.15
  -2  -2   7   37.18    4.28
  -2  -2   7   54.12    3.41
  -2  -2   7   43.68    5.18
  -2  -2   7   42.43    5.40
  -2  -2   7   38.59    5.08
   1   2  -7  414.42   14.50
   1   2  -7  413.96   17.65
   1   2  -7  419.33   16.01
   1   2  -7  423.51   13.76
   1   2  -7  467.60   25.02
  -1  -2   7  398.83   17.05
  -1  -2   7  437.01   16.23
  -1  -2   7  402.46   15.06
  -1  -2   7  418.24   16.67
  -1  -2   7  431.30   16.25
  -1  -2   7  447.02   16.74
  -1  -2   7  425.27   14.45
   0   2  -7 2274.71   73.96
   0   2  -7 2507.05   82.61
   0   2  -7 2261.33   73.68
   0   2  -7 2172.73   72.74
   0   2  -7 2312.89   72.75
   0   2  -7 2321.97   73.85
   0   2  -7 2314.40   73.90
   0   2  -7 2190.00   74.37
   0  -2   7 2321.06   73.41
   0  -2   7 2394.07   80.90
   0  -2   7 2325.55   72.96
   0  -2   7 2235.35   73.62
   0  -2   7 2249.14   74.54
   0  -2   7 2315.26   73.50
   0  -2   7 2286.02   72.33
   0  -2   7 2233.39   73.15
   0  -2   7 2291.45   74.24
  -1   2  -7  203.66    9.61
  -1   2  -7  192.14   14.23
  -1   2  -7  194.44    9.66
  -1   2  -7  196.84    9.37
  -1   2  -7  197.06    9.74
  -1   2  -7  192.36    9.55
  -1   2  -7  201.28   10.26
   1  -2   7  206.34   10.05
   1  -2   7  193.38    6.96
   1  -2   7  155.10   19.22
   1  -2   7  187.62    8.92
   1  -2   7  187.95    9.61
  -2   2  -7   38.90    5.29
  -2   2  -7   49.04    4.29
  -2   2  -7   37.39    5.08
  -2   2  -7   21.63    4.12
  -2   2  -7   47.79    5.43
  -2   2  -7   37.21    4.60
   2  -2   7   44.42    4.61
   2  -2   7   31.83    5.44
   2  -2   7   52.80    4.62
   2  -2   7   42.66    5.20
   2  -2   7   52.14    6.00
  -3   2  -7   38.44    5.63
  -3   2  -7   49.58    7.41
  -3   2  -7   39.19    6.43
  -3   2  -7   51.23    5.80
  -3   2  -7   50.47    6.87
   3  -2   7   43.74    6.25
   3  -2   7   47.20    5.84
  -4   2  -7   26.46    6.24
  -4   2  -7   45.86    7.26
  -4   2  -7   30.51    5.93
  -4   2  -7   32.63    7.20
   4  -2   7   31.91    6.33
   4   1  -7    4.47    5.66
  -4  -1   7    0.46    2.34
  -4  -1   7    2.07    2.71
  -4  -1   7   -0.33    2.15
  -4  -1   7    0.08    2.61
  -4  -1   7    2.87    2.29
   3   1  -7   18.30    8.22
  -3  -1   7   26.49    5.09
  -3  -1   7   23.60    3.60
  -3  -1   7   24.97    4.76
  -3  -1   7   15.72    3.96
  -3  -1   7   28.19    4.19
  -3  -1   7   20.34    1.72
  -3  -1   7   29.79    3.77
   2   1  -7   97.14    6.73
   2   1  -7   94.26    5.61
   2   1  -7   91.39   11.66
  -2  -1   7   77.99    6.46
  -2  -1   7   84.53    3.62
  -2  -1   7   82.57    6.67
  -2  -1   7   90.18    5.48
  -2  -1   7   90.15    4.97
  -2  -1   7   77.27    4.47
  -2  -1   7   81.79    5.45
  -2  -1   7  102.09    6.88
   1   1  -7    0.11    1.35
   1   1  -7    1.56    1.48
   1   1  -7   -0.17    0.81
   1   1  -7    2.21    1.38
   1   1  -7    3.63    0.82
   1   1  -7    2.43    0.97
  -1  -1   7    4.23    1.59
  -1  -1   7    3.82    1.45
  -1  -1   7    1.78    1.16
  -1  -1   7    3.03    1.02
  -1  -1   7    2.49    1.39
  -1  -1   7    1.47    1.47
   0   1  -7  719.97   25.30
   0   1  -7  749.28   23.89
   0   1  -7  737.84   26.25
   0   1  -7  707.24   26.30
   0   1  -7  713.66   26.02
   0   1  -7  672.33   26.31
   0   1  -7  747.66   27.05
   0   1  -7  772.90   33.48
   0   1  -7  742.22   26.09
   0  -1   7  726.54   26.13
   0  -1   7  770.27   51.05
   0  -1   7  740.28   25.94
   0  -1   7  716.63   25.79
   0  -1   7  711.66   31.94
   0  -1   7  731.55   27.00
   0  -1   7  754.17   26.79
   0  -1   7  739.91   25.60
   0  -1   7  724.06   25.45
  -1   1  -7    3.17    1.59
  -1   1  -7    5.30    3.38
  -1   1  -7    2.68    1.43
  -1   1  -7    4.52    1.86
  -1   1  -7    2.24    1.51
  -1   1  -7    2.52    1.58
  -1   1  -7    1.23    1.37
   1  -1   7    2.64    1.58
   1  -1   7   -0.19    2.79
   1  -1   7    2.24    0.83
   1  -1   7    2.54    1.49
   1  -1   7    3.59    1.76
   1  -1   7    2.32    1.42
  -2   1  -7   11.46    2.88
  -2   1  -7   22.71    4.06
  -2   1  -7   14.69    2.87
  -2   1  -7   16.34    3.46
  -2   1  -7   17.59    3.24
   2  -1   7   18.65    3.37
   2  -1   7    9.78    2.85
   2  -1   7    9.75    2.50
  -3   1  -7    1.32    1.52
  -3   1  -7   -0.36    1.72
  -3   1  -7   -1.23    1.69
  -3   1  -7    2.08    1.80
  -3   1  -7    0.42    2.04
  -3   1  -7    0.12    2.21
   3  -1   7   -0.49    2.00
   3  -1   7   -0.03    1.64
  -4   1  -7   86.70   10.13
  -4   1  -7   78.00    9.29
  -4   1  -7   61.70    9.18
  -4   1  -7   81.22   11.16
   4  -1   7   73.02    9.18
   4   0  -7   29.17   11.36
  -4   0   7   48.03    7.39
  -4   0   7   48.84    7.54
  -4   0   7   47.96    6.41
  -4   0   7   52.51    7.27
  -4   0   7   51.72    6.35
  -4   0   7   51.97    7.16
  -4   0   7   51.88    7.09
   3   0  -7   74.75   15.02
   3   0  -7   53.09    6.02
  -3   0   7   60.58    5.12
  -3   0   7   56.87    3.47
  -3   0   7   63.45    5.15
  -3   0   7   58.28    4.99
  -3   0   7   52.60    6.97
  -3   0   7   46.76    6.22
  -3   0   7   52.11    3.31
  -3   0   7   63.84    7.10
   2   0  -7  111.38   12.73
   2   0  -7   94.07    5.95
   2   0  -7   89.41    6.49
  -2   0   7   80.49    6.39
  -2   0   7   80.27    5.70
  -2   0   7   87.12    4.25
  -2   0   7   89.00    4.73
  -2   0   7   84.10    5.20
  -2   0   7   79.62    5.37
  -2   0   7   84.61    6.96
  -2   0   7   79.36    5.20
  -2   0   7   83.73    3.71
  -2   0   7   80.16    5.31
   1   0  -7  742.05   33.94
   1   0  -7  704.30   23.47
   1   0  -7  693.71   26.63
   1   0  -7  817.42   59.59
   1   0  -7  702.48   24.32
   1   0  -7  698.90   25.69
   1   0  -7  700.18   24.10
   1   0  -7  710.67   24.85
  -1   0   7  712.14   24.29
  -1   0   7  722.94   25.94
  -1   0   7  730.62   26.41
  -1   0   7  707.72   24.11
  -1   0   7  709.12   24.62
   0   0  -7  285.34   30.47
   0   0  -7  293.06   11.96
   0   0  -7  289.72   12.77
   0   0  -7  308.54   18.68
   0   0  -7  288.18   12.95
   0   0  -7  286.03   11.80
   0   0  -7  292.52   10.59
   0   0  -7  297.50   13.52
   0   0   7  286.05   29.49
   0   0   7  305.64   12.83
   0   0   7  296.44   12.24
   0   0   7  284.25   12.02
   0   0   7  269.33   12.85
   0   0   7  290.76   13.36
   0   0   7  288.91   13.29
   0   0   7  313.45   19.97
  -1   0  -7   24.92    3.70
  -1   0  -7   26.10    6.62
  -1   0  -7   28.29    3.70
  -1   0  -7   27.23    3.35
  -1   0  -7   31.89    3.87
  -1   0  -7   31.37    4.16
  -1   0  -7   27.50    4.01
   1   0   7   17.93    3.17
   1   0   7   31.98    4.80
   1   0   7   22.67    3.33
   1   0   7   32.09    4.59
   1   0   7   25.19    8.73
   1   0   7   30.30    2.37
  -2   0  -7  463.13   19.53
  -2   0  -7  448.09   17.20
  -2   0  -7  450.91   19.17
  -2   0  -7  451.13   18.77
  -2   0  -7  420.37   18.94
   2   0   7  435.83   14.78
   2   0   7  455.90   19.18
   2   0   7  461.06   18.88
  -3   0  -7   96.33    8.45
  -3   0  -7   86.12    9.83
  -3   0  -7   83.39    9.11
  -3   0  -7  114.76    7.48
  -3   0  -7   90.77    9.18
  -3   0  -7  103.82    6.48
   3   0   7  111.47    8.63
   3   0   7  106.63    7.45
  -4   0  -7  136.38   12.20
  -4   0  -7   99.30   10.77
  -4   0  -7  111.42   11.64
  -4   0  -7  104.61   12.09
   4   0   7  112.92   11.30
  -4   1   7  682.11   28.33
  -4   1   7  686.26   28.45
  -4   1   7  638.18   28.11
  -4   1   7  637.79   29.47
  -4   1   7  628.52   26.42
  -4   1   7  680.02   27.01
  -4   1   7  602.22   25.16
   3  -1  -7   30.09    4.39
   3  -1  -7   38.17   10.33
   3  -1  -7   36.34   20.52
  -3   1   7   32.87    4.33
  -3   1   7   24.77    4.71
  -3   1   7   31.85    4.01
  -3   1   7   27.96    3.04
  -3   1   7   30.17    4.56
  -3   1   7   26.51    5.17
  -3   1   7   26.92    4.88
   2  -1  -7  118.47   13.36
   2  -1  -7  131.29    8.23
   2  -1  -7   92.98   27.60
  -2   1   7  134.91    5.98
  -2   1   7  146.13    6.48
  -2   1   7  142.12    9.18
  -2   1   7  134.39    6.51
  -2   1   7  144.78    8.60
  -2   1   7  150.51    8.60
  -2   1   7  138.43    8.07
  -2   1   7  127.12    6.73
   1  -1  -7    3.79    1.24
   1  -1  -7    2.88    1.80
   1  -1  -7    3.41    1.19
   1  -1  -7    3.64    1.86
   1  -1  -7    7.67    4.00
   1  -1  -7    3.27    1.11
   1  -1  -7    3.54    1.38
  -1   1   7    2.99    1.08
  -1   1   7    2.23    1.44
  -1   1   7    4.74    1.25
  -1   1   7    1.45    1.49
  -1   1   7    3.58    1.21
  -1   1   7    3.37    0.87
  -1   1   7    1.99    1.62
   0  -1  -7    3.85    3.07
   0  -1  -7    0.10    1.01
   0  -1  -7   -2.04    0.61
   0  -1  -7    1.38    1.49
   0  -1  -7    0.35    1.58
   0  -1  -7    0.44    1.23
   0  -1  -7    1.61    1.51
   0  -1  -7    0.35    1.39
   0  -1  -7   -0.22    5.00
   0   1   7    0.62    1.78
   0   1   7   -1.98    3.28
   0   1   7    1.34    1.60
   0   1   7    0.18    1.06
   0   1   7    5.24    1.88
   0   1   7    0.60    1.13
  -1  -1  -7    1.60    1.51
  -1  -1  -7    1.55    1.54
  -1  -1  -7    1.20    1.50
  -1  -1  -7   -0.82    1.65
  -1  -1  -7    1.91    1.51
  -1  -1  -7    1.26    1.51
  -1  -1  -7    3.47    4.90
   1   1   7   -1.05    0.99
   1   1   7    4.01    4.38
   1   1   7    0.55    0.88
   1   1   7   -0.05    1.28
   1   1   7    2.37    1.48
  -2  -1  -7  324.62   15.47
  -2  -1  -7  310.09   15.92
  -2  -1  -7  319.94   12.72
  -2  -1  -7  327.42   15.47
  -2  -1  -7  325.79   15.30
  -2  -1  -7  326.33   15.23
   2   1   7  335.05   15.33
   2   1   7  308.27   11.82
   2   1   7  326.40   15.29
  -3  -1  -7  160.19   10.41
  -3  -1  -7  138.99    9.22
  -3  -1  -7  134.66   10.60
  -3  -1  -7  149.58   11.42
  -3  -1  -7  145.73   10.64
   3   1   7  128.30    9.75
  -4  -1  -7   21.81    5.79
  -4  -1  -7   27.23    6.19
  -4  -1  -7   34.70    6.44
  -4  -1  -7   33.51    7.17
   4   1   7   20.15    5.11
   4  -2  -7   39.92   12.42
  -4   2   7   37.09    6.15
  -4   2   7   26.99    5.27
  -4   2   7   43.20    6.12
  -4   2   7   52.97    7.63
  -4   2   7   48.16    7.16
  -4   2   7   39.68    7.43
  -4   2   7   37.29    6.51
   3  -2  -7  195.87   19.43
   3  -2  -7  247.69   11.73
   3  -2  -7  180.79   35.91
  -3   2   7  234.46   13.95
  -3   2   7  201.99   11.63
  -3   2   7  229.52   11.34
  -3   2   7  221.50    9.71
  -3   2   7  224.31   12.39
  -3   2   7  215.00    9.89
   2  -2  -7  175.57    7.84
   2  -2  -7  140.54   29.03
   2  -2  -7  185.38   16.29
   2  -2  -7  177.27    9.91
  -2   2   7  192.50    8.77
  -2   2   7  199.15   10.32
  -2   2   7  170.13    7.29
  -2   2   7  158.52    9.44
  -2   2   7  175.67    7.68
  -2   2   7  174.80    7.85
   1  -2  -7   15.64    2.29
   1  -2  -7   21.20   12.27
   1  -2  -7   14.93    3.16
   1  -2  -7   13.03    1.78
   1  -2  -7   15.05    1.78
   1  -2  -7   11.60    4.33
  -1   2   7   16.52    3.28
  -1   2   7   12.28    2.23
  -1   2   7   16.30    3.35
  -1   2   7   13.45    1.81
  -1   2   7   15.66    1.96
  -1   2   7   10.20    1.50
  -1   2   7   12.57    2.83
   0  -2  -7  149.39    7.83
   0  -2  -7  145.49    8.18
   0  -2  -7  154.98    9.26
   0  -2  -7  195.33   25.88
   0  -2  -7  147.12    6.97
   0  -2  -7  140.71    7.71
   0  -2  -7  162.62   13.29
   0  -2  -7  148.88    8.01
   0   2   7  144.58    7.65
   0   2   7  135.48    6.85
   0   2   7  181.68   23.73
   0   2   7  156.16    7.41
   0   2   7  142.72    8.33
  -1  -2  -7  420.66   16.00
  -1  -2  -7  420.32   16.47
  -1  -2  -7  414.85   16.94
  -1  -2  -7  400.24   17.86
  -1  -2  -7  399.22   16.94
  -1  -2  -7  359.62   32.28
   1   2   7  409.38   17.41
   1   2   7  377.15   31.42
   1   2   7  407.22   15.32
   1   2   7  403.16   16.83
   1   2   7  404.04   17.70
  -2  -2  -7  161.23    9.77
  -2  -2  -7  109.03   13.50
  -2  -2  -7  155.66    9.72
  -2  -2  -7  149.57    9.59
  -2  -2  -7  163.44    9.52
  -2  -2  -7  155.46   10.10
   2   2   7  132.95    6.83
   2   2   7  145.54    9.11
   2   2   7  138.41    9.42
   2   2   7  153.19    9.65
   2   2   7  139.84    6.66
  -3  -2  -7   61.94    7.29
  -3  -2  -7   51.47    7.74
  -3  -2  -7   62.63    7.96
  -3  -2  -7   61.12    8.20
  -3  -2  -7   57.62    6.94
   3   2   7   51.77    6.87
  -4  -2  -7  100.92   11.63
  -4  -2  -7   76.68   10.52
  -4  -2  -7   73.76    9.75
  -4  -2  -7   85.93    9.58
   4   2   7   90.62   10.19
   4  -3  -7  129.80   22.13
  -4   3   7  178.85   11.53
  -4   3   7  149.57   11.91
  -4   3   7  164.64   11.07
  -4   3   7  167.83   13.30
  -4   3   7  193.79   12.55
  -4   3   7  149.74   11.34
  -4   3   7  167.19   11.00
   3  -3  -7    0.19    1.65
   3  -3  -7   -0.36    3.29
   3  -3  -7   -2.16    8.45
  -3   3   7    2.47    1.32
  -3   3   7    0.90    1.47
  -3   3   7    4.66    2.60
  -3   3   7   -0.38    1.57
  -3   3   7    1.28    1.37
  -3   3   7    0.54    2.07
   2  -3  -7  245.57   10.31
   2  -3  -7  230.80   18.10
   2  -3  -7  229.07   12.02
   2  -3  -7  166.05   31.49
  -2   3   7  229.63    8.25
  -2   3   7  226.39   12.06
  -2   3   7  234.39    8.57
  -2   3   7  235.01   11.78
  -2   3   7  226.08   10.08
   1  -3  -7  133.27    7.03
   1  -3  -7  138.21    5.52
   1  -3  -7  137.59    5.36
   1  -3  -7  125.80   12.02
   1  -3  -7  130.60    8.74
   1  -3  -7  148.87   26.64
  -1   3   7  133.36    8.46
  -1   3   7  132.26    5.46
  -1   3   7  132.85    8.42
  -1   3   7  137.72    6.46
  -1   3   7  135.04    8.14
  -1   3   7  131.98    7.17
   0  -3  -7  218.03   10.40
   0  -3  -7  225.63   30.20
   0  -3  -7  222.85   16.35
   0  -3  -7  226.26   10.76
   0  -3  -7  199.13   10.21
   0  -3  -7  224.19    9.63
   0   3   7  218.95   10.57
   0   3   7  225.84   11.52
   0   3   7  200.07    9.25
   0   3   7  224.00   10.73
   0   3   7  221.11   11.12
  -1  -3  -7  117.46    7.44
  -1  -3  -7  109.32    7.60
  -1  -3  -7  122.81    7.34
  -1  -3  -7  109.91    6.25
  -1  -3  -7  120.42    8.53
  -1  -3  -7   99.83   18.45
  -1  -3  -7  114.66    7.44
   1   3   7  120.71    7.50
   1   3   7  115.28    7.83
   1   3   7  120.43    7.36
   1   3   7  121.71    8.13
   1   3   7  111.89    6.48
   1   3   7   92.65   16.40
  -2  -3  -7  125.41    9.24
  -2  -3  -7  117.58    9.15
  -2  -3  -7  112.11    8.42
  -2  -3  -7  117.48    8.31
  -2  -3  -7  114.30   16.17
  -2  -3  -7  115.72    6.80
  -2  -3  -7  110.10    8.51
  -2  -3  -7  118.80    7.07
   2   3   7  122.39    8.82
   2   3   7  110.74    8.05
   2   3   7  120.00    5.56
  -3  -3  -7   87.54    8.89
  -3  -3  -7  108.28    9.41
  -3  -3  -7  107.43   11.76
  -3  -3  -7   99.13    8.63
  -3  -3  -7   94.42   10.08
   3   3   7   83.14    8.67
  -4  -3  -7   10.71    4.27
  -4  -3  -7    4.81    4.22
  -4  -3  -7    9.32    4.51
  -4  -3  -7    8.98    4.70
   4   3   7    3.14    3.35
   4  -4  -7   51.49   13.65
  -4   4   7   66.73    9.14
  -4   4   7   64.64    8.33
  -4   4   7   60.19    7.61
  -4   4   7   68.71    7.97
  -4   4   7   63.48    9.28
  -4   4   7   77.17    8.89
   3  -4  -7  110.11    7.56
   3  -4  -7   52.08   25.25
   3  -4  -7   91.25   13.14
  -3   4   7  100.04    7.69
  -3   4   7  104.25    7.37
  -3   4   7  113.10    9.79
  -3   4   7  103.22    6.79
  -3   4   7  108.23    9.17
  -3   4   7  113.00    8.62
   2  -4  -7   76.73   10.24
   2  -4  -7   87.79   28.54
   2  -4  -7   87.88    6.94
  -2   4   7   76.17    7.13
  -2   4   7   84.33    6.52
  -2   4   7   73.25    6.68
  -2   4   7   74.50    5.47
   1  -4  -7  742.02   63.92
   1  -4  -7  756.48   35.01
   1  -4  -7  739.20   26.67
   1  -4  -7  696.22   25.29
   1  -4  -7  724.82   28.68
  -1   4   7  718.75   27.46
  -1   4   7  727.11   26.49
  -1   4   7  711.28   28.13
  -1   4   7  745.44   28.11
   0  -4  -7    7.99    2.23
   0  -4  -7   11.37    2.52
   0  -4  -7   14.07    2.59
   0  -4  -7    9.86    8.78
   0  -4  -7    9.57    2.60
   0  -4  -7   12.43    4.95
   0   4   7    8.30    2.30
   0   4   7   10.28    2.92
   0   4   7   10.83    2.98
   0   4   7    7.26    2.23
   0   4   7   12.83    1.70
  -1  -4  -7  296.43   13.78
  -1  -4  -7  273.72   32.05
  -1  -4  -7  300.90   15.39
  -1  -4  -7  278.73   11.80
  -1  -4  -7  294.20   14.14
  -1  -4  -7  302.14   13.70
  -1  -4  -7  292.79   13.78
   1   4   7  286.88   14.40
   1   4   7  263.46   30.13
   1   4   7  286.95   13.76
   1   4   7  302.33   14.65
  -2  -4  -7   23.11    4.70
  -2  -4  -7   16.68    9.39
  -2  -4  -7   20.85    4.06
  -2  -4  -7   29.86    5.11
  -2  -4  -7   33.76    5.76
  -2  -4  -7   29.89    4.00
  -2  -4  -7   29.67    5.43
   2   4   7   27.07    4.50
   2   4   7   29.31    5.07
  -3  -4  -7    6.16    2.91
  -3  -4  -7    5.03    3.42
  -3  -4  -7    7.25    3.59
  -3  -4  -7    9.53    3.93
  -3  -4  -7   14.55    5.13
   3   4   7    7.14    3.13
   4  -5  -7   73.12   15.96
  -4   5   7  135.38   12.27
  -4   5   7  132.05   11.40
  -4   5   7  142.30   10.06
  -4   5   7  118.16   10.12
   3  -5  -7  149.57    9.05
   3  -5  -7  100.99   13.76
  -3   5   7  134.10    9.91
  -3   5   7  132.52   10.62
  -3   5   7  119.20   10.45
  -3   5   7  110.08    7.70
  -3   5   7  137.85    8.41
  -3   5   7  133.53    8.97
   2  -5  -7   21.54   16.84
   2  -5  -7   31.90    7.89
   2  -5  -7   30.03    5.06
  -2   5   7   21.02    3.50
  -2   5   7   27.14    4.41
  -2   5   7   31.55    3.33
  -2   5   7   27.61    5.42
  -2   5   7   21.86    4.64
   1  -5  -7   20.52    4.33
   1  -5  -7   25.81    6.42
   1  -5  -7   25.88   15.22
   1  -5  -7   19.22    3.23
   1  -5  -7   18.77    3.00
  -1   5   7   18.73    3.30
  -1   5   7    9.01    2.89
  -1   5   7   22.52    3.89
  -1   5   7   24.95    4.03
   0  -5  -7    2.18    3.06
   0  -5  -7   -0.38    5.50
   0  -5  -7    0.59    1.18
   0  -5  -7    0.58    0.78
   0  -5  -7    0.09    1.15
   0  -5  -7   -0.76    1.33
   0  -5  -7   -1.71    1.11
   0   5   7   -0.31    1.20
   0   5   7   -1.02    1.12
   0   5   7    1.24    1.67
   0   5   7    1.55    1.38
  -1  -5  -7  181.14   11.72
  -1  -5  -7  176.22   10.04
  -1  -5  -7  164.09    7.86
  -1  -5  -7  160.05    9.59
  -1  -5  -7  166.89    9.72
  -1  -5  -7  134.82   24.39
  -1  -5  -7  151.97    9.73
   1   5   7  162.83   10.33
   1   5   7  172.80    9.93
   1   5   7  170.15   10.57
  -2  -5  -7   54.67    7.23
  -2  -5  -7   46.42    5.50
  -2  -5  -7   31.71   13.34
  -2  -5  -7   36.14    5.79
  -2  -5  -7   40.94    6.61
  -2  -5  -7   47.90    6.30
  -2  -5  -7   51.47    6.82
   2   5   7   52.68    6.23
   2   5   7   42.82    6.17
  -3  -5  -7  312.76   18.24
  -3  -5  -7  304.53   17.88
  -3  -5  -7  351.02   19.91
  -3  -5  -7  358.34   17.47
  -3  -5  -7  302.33   17.89
   3   5   7  336.39   17.01
   4  -6  -7   13.38   17.28
  -4   6   7   35.37    6.69
  -4   6   7   39.34    7.78
  -4   6   7   35.51    7.53
   3  -6  -7   11.89    6.13
   3  -6  -7   11.16    3.28
   3  -6  -7   14.57   15.78
  -3   6   7   11.33    4.19
  -3   6   7    7.43    2.69
  -3   6   7    9.87    2.70
  -3   6   7   10.84    3.99
  -3   6   7   11.56    4.37
  -3   6   7   10.80    3.18
   2  -6  -7   38.23   20.09
   2  -6  -7   40.85    8.76
   2  -6  -7   26.75    5.11
  -2   6   7   18.98    4.35
  -2   6   7   27.73    4.47
  -2   6   7   24.00    4.80
  -2   6   7   26.01    4.15
  -2   6   7   32.82    5.70
  -2   6   7   25.19    2.75
   1  -6  -7  133.74    9.76
   1  -6  -7  142.84    8.01
   1  -6  -7  110.65   26.52
   1  -6  -7  128.97    7.67
   1  -6  -7  136.57   12.90
  -1   6   7  133.41    8.54
  -1   6   7  146.89    8.98
  -1   6   7  121.89    8.71
   0  -6  -7   31.51    4.69
   0  -6  -7   12.49   11.27
   0  -6  -7   29.19    4.29
   0  -6  -7   31.26    7.72
   0  -6  -7   32.80    4.44
   0  -6  -7   29.35    3.47
   0   6   7   13.00    3.49
   0   6   7   23.11    4.19
   0   6   7   29.81    4.10
   0   6   7   35.16    5.13
  -1  -6  -7   15.03   11.14
  -1  -6  -7   26.40    4.38
  -1  -6  -7   29.15    4.83
  -1  -6  -7   29.88    4.69
  -1  -6  -7   24.11    4.30
  -1  -6  -7   28.96    5.50
   1   6   7   25.72    4.77
   1   6   7   32.73    5.22
   1   6   7   29.86    4.83
   1   6   7   33.80    5.29
  -2  -6  -7   72.90    8.26
  -2  -6  -7   92.71    9.53
  -2  -6  -7   89.41    9.64
  -2  -6  -7   64.70    7.40
  -2  -6  -7   85.99   10.22
  -2  -6  -7   76.35    7.67
  -2  -6  -7   50.32   17.90
   2   6   7   69.31    8.15
   2   6   7   86.46    8.38
  -3  -6  -7   10.83    4.77
  -3  -6  -7    8.03    3.33
  -3  -6  -7   14.09    5.00
  -3  -6  -7    5.69    3.41
  -3  -6  -7   11.48    4.48
  -3  -6  -7   12.64    5.11
  -3  -6  -7    5.08    3.07
   3   6   7    7.34    3.44
   4  -7  -7    4.81   14.13
  -4   7   7   26.57    6.78
  -4   7   7   26.02    6.04
  -4   7   7   31.37    7.36
   3  -7  -7   45.07    6.20
   3  -7  -7   18.75   17.95
   3  -7  -7   30.59    8.98
  -3   7   7   30.89    6.41
  -3   7   7   44.02    7.36
  -3   7   7   40.90    5.66
  -3   7   7   37.26    7.00
  -3   7   7   32.77    5.21
   2  -7  -7   50.55    9.72
   2  -7  -7   35.46   21.80
   2  -7  -7   64.16    7.48
   2  -7  -7   69.04    8.10
  -2   7   7   46.18    6.88
  -2   7   7   59.35    6.61
  -2   7   7   58.63    6.52
  -2   7   7   56.52    7.47
  -2   7   7   44.00    6.62
   1  -7  -7   -0.37    1.67
   1  -7  -7    4.43    1.90
   1  -7  -7   -0.92    1.84
   1  -7  -7    3.05    8.93
   1  -7  -7    0.37    2.43
   1  -7  -7    2.60    1.86
  -1   7   7    3.12    2.11
  -1   7   7    1.13    1.80
  -1   7   7    0.04    1.79
  -1   7   7    3.85    2.28
  -1   7   7   -1.12    1.46
   0  -7  -7    7.63    3.23
   0  -7  -7   15.82    3.52
   0  -7  -7   15.96    2.73
   0  -7  -7   17.81    3.64
   0  -7  -7   18.59    2.95
   0  -7  -7   13.28    5.60
   0  -7  -7    2.84    9.53
   0   7   7   13.66    3.58
   0   7   7   11.32    3.26
   0   7   7   12.56    2.90
   0   7   7   12.55    3.47
   0   7   7   13.74    3.14
  -1  -7  -7   -1.95    1.40
  -1  -7  -7   -0.21    1.79
  -1  -7  -7   -1.15    1.58
  -1  -7  -7    0.04    1.64
  -1  -7  -7    1.34    2.05
  -1  -7  -7   -2.58    5.63
  -1  -7  -7    0.36    2.27
  -1  -7  -7    1.19    1.78
   1   7   7    0.01    1.89
   1   7   7    1.19    2.13
   1   7   7    0.66    1.93
   1   7   7    2.43    1.44
  -2  -7  -7   -0.60    2.22
  -2  -7  -7    0.74    7.15
  -2  -7  -7    0.44    2.19
  -2  -7  -7   -1.05    2.06
  -2  -7  -7    1.14    2.30
  -2  -7  -7    1.15    2.88
  -2  -7  -7   -0.20    2.24
  -2  -7  -7   -2.11    1.81
   2   7   7    1.65    2.19
   2   7   7   -0.77    1.78
  -3  -7  -7  206.29   14.74
  -3  -7  -7  239.81   14.29
  -3  -7  -7  205.67   15.50
  -3  -7  -7  229.65   15.41
  -3  -7  -7  192.04   14.60
  -3  -7  -7  215.83   13.57
  -3  -7  -7  216.56   15.95
   3   7   7  227.11   13.51
   3  -8  -7   99.98   10.24
   3  -8  -7  105.95    8.71
  -3   8   7   84.66   10.26
  -3   8   7   72.79    9.76
  -3   8   7   84.96    7.37
  -3   8   7  103.48   11.70
  -3   8   7   88.35    7.94
   2  -8  -7   31.37    8.01
   2  -8  -7   54.60   27.12
   2  -8  -7   27.78    5.56
   2  -8  -7   23.70    5.15
  -2   8   7   19.64    4.86
  -2   8   7   23.55    5.28
  -2   8   7   23.67    4.66
  -2   8   7   22.92    5.27
  -2   8   7   26.26    4.60
   1  -8  -7    0.60    1.80
   1  -8  -7    0.90    2.20
   1  -8  -7    0.75    2.80
   1  -8  -7    2.45    8.24
   1  -8  -7    1.53    1.58
   1  -8  -7   -0.87    1.56
  -1   8   7   -2.80    1.44
  -1   8   7    1.55    2.20
  -1   8   7   -0.78    1.41
  -1   8   7   -0.66    1.59
  -1   8   7   -0.72    1.76
   0  -8  -7    1.43    1.36
   0  -8  -7    0.26    1.35
   0  -8  -7   -1.85    1.40
   0  -8  -7    1.15    7.68
   0  -8  -7   -0.07    2.79
   0  -8  -7    2.62    2.09
   0  -8  -7   -0.57    1.83
   0   8   7    0.55    1.61
   0   8   7   -0.36    1.73
   0   8   7   -2.03    1.55
   0   8   7    1.26    2.27
   0   8   7    1.11    1.74
  -1  -8  -7   81.51    6.87
  -1  -8  -7   74.28    6.81
  -1  -8  -7   89.04   11.06
  -1  -8  -7   89.26    8.99
  -1  -8  -7   87.65    8.75
  -1  -8  -7   85.89    8.81
  -1  -8  -7   88.48    7.80
   1   8   7   92.51   10.15
   1   8   7   82.31    5.77
   1   8   7   73.01    8.52
   1   8   7   62.81    8.01
  -2  -8  -7  198.19   12.65
  -2  -8  -7  184.53   12.08
  -2  -8  -7  199.11   14.90
  -2  -8  -7  201.60   13.26
  -2  -8  -7  194.52   13.12
  -2  -8  -7  180.07   12.77
  -2  -8  -7  201.13   12.29
  -2  -8  -7  153.89   30.18
   2   8   7  186.17   12.28
   2   8   7  200.26   12.06
  -3  -8  -7    3.62    3.19
  -3  -8  -7   -2.97    2.54
  -3  -8  -7   -0.09    3.80
  -3  -8  -7    0.66    3.19
  -3  -8  -7    1.99    3.33
  -3  -8  -7    1.78    3.54
   3   8   7   -1.02    2.32
   3  -9  -7  294.51   16.53
   3  -9  -7  189.64   46.48
  -3   9   7  241.55   16.84
  -3   9   7  283.03   17.36
  -3   9   7  258.35   17.14
  -3   9   7  281.90   15.21
   2  -9  -7  100.41   10.48
   2  -9  -7  104.53   11.91
   2  -9  -7  106.55    9.48
   2  -9  -7   79.27   31.81
  -2   9   7  120.64    9.20
  -2   9   7   82.94    9.73
  -2   9   7  102.61    9.66
  -2   9   7  108.87    9.81
  -2   9   7  104.42    8.10
   1  -9  -7   19.72    4.90
   1  -9  -7   16.94    3.96
   1  -9  -7    5.31   11.13
   1  -9  -7   15.09    3.24
   1  -9  -7   12.61    4.41
   1  -9  -7   15.04    5.82
  -1   9   7   12.50    3.90
  -1   9   7   19.64    4.40
  -1   9   7   15.24    3.75
  -1   9   7   16.14    4.22
  -1   9   7   22.08    5.37
   0  -9  -7   -0.67    8.02
   0  -9  -7    6.61    2.62
   0  -9  -7    6.17    3.60
   0  -9  -7    5.09    2.04
   0  -9  -7    5.77    2.94
   0  -9  -7    3.43    2.55
   0  -9  -7    4.78    4.56
   0  -9  -7    3.19    1.84
   0   9   7    3.65    2.58
   0   9   7   11.12    3.04
   0   9   7    9.06    3.49
   0   9   7    2.13    2.33
   0   9   7    4.85    2.50
  -1  -9  -7  124.55   11.63
  -1  -9  -7  107.26    8.38
  -1  -9  -7   76.00   27.80
  -1  -9  -7  106.67    8.15
  -1  -9  -7  109.43    9.15
  -1  -9  -7  114.34    9.32
  -1  -9  -7  103.13    8.78
  -1  -9  -7  100.29   14.66
   1   9   7  113.18    9.49
   1   9   7  114.67    9.92
   1   9   7  112.40    7.17
  -2  -9  -7   -0.51    3.52
  -2  -9  -7    0.25    2.42
  -2  -9  -7   -2.05    2.47
  -2  -9  -7   -0.80    2.43
  -2  -9  -7    2.79    9.46
  -2  -9  -7   -2.41    2.32
  -2  -9  -7   -0.20    2.19
  -2  -9  -7    0.32    2.56
   2   9   7   -2.74    1.85
   2   9   7    2.73    2.94
   3 -10  -7    1.26    3.23
   3 -10  -7   11.04   19.34
  -3  10   7    8.91    4.42
  -3  10   7    1.84    3.41
  -3  10   7    6.45    3.12
  -3  10   7    6.90    4.22
   2 -10  -7   28.00    6.11
   2 -10  -7   33.59    6.45
  -2  10   7   36.47    6.72
  -2  10   7   32.01    5.23
  -2  10   7   28.77    6.31
  -2  10   7   26.80    6.26
  -2  10   7   35.32    6.15
   1 -10  -7   49.51   26.45
   1 -10  -7   72.17    9.71
   1 -10  -7   79.71    9.66
   1 -10  -7   71.74   11.98
   1 -10  -7   64.35    6.52
   1 -10  -7   69.44    7.89
  -1  10   7   59.89    7.35
  -1  10   7   66.47    8.11
  -1  10   7   75.01    8.94
  -1  10   7   74.50    8.51
  -1  10   7   50.75    7.68
   0 -10  -7   -0.06    8.85
   0 -10  -7   10.50    5.53
   0 -10  -7   14.85    4.50
   0 -10  -7   11.67    3.33
   0 -10  -7    8.80    4.23
   0 -10  -7    9.70    3.38
   0  10   7    9.05    3.31
   0  10   7   11.40    3.92
   0  10   7    9.76    3.18
   0  10   7   12.76    4.13
   0  10   7   10.85    3.12
  -1 -10  -7   16.55    4.49
  -1 -10  -7   18.60    4.26
  -1 -10  -7   19.82    6.24
  -1 -10  -7   22.33    4.40
  -1 -10  -7   21.56    4.84
  -1 -10  -7   13.43   15.62
  -1 -10  -7   15.66    7.67
  -1 -10  -7   17.50    4.75
   1  10   7   27.04    5.69
   1  10   7   11.77    4.06
  -2 -10  -7  174.77   13.03
  -2 -10  -7  180.36   13.39
  -2 -10  -7  178.85   12.64
  -2 -10  -7  160.42   12.71
  -2 -10  -7  182.50   12.51
  -2 -10  -7  147.40   14.21
   2  10   7  192.23   12.91
   2  10   7  176.54   12.11
   2 -11  -7  116.06   10.90
   2 -11  -7   52.98   29.42
   2 -11  -7  108.84   11.66
  -2  11   7  133.71   10.75
  -2  11   7  113.56   12.47
  -2  11   7   94.18   11.30
  -2  11   7  111.89   10.44
  -2  11   7  110.42   11.86
   1 -11  -7   23.24   18.69
   1 -11  -7   52.64    7.35
   1 -11  -7   42.56    7.29
   1 -11  -7   45.49    8.15
  -1  11   7   59.83    8.95
  -1  11   7   52.99    7.28
  -1  11   7   52.26    7.23
  -1  11   7   54.17    7.79
  -1  11   7   58.19    7.89
   0 -11  -7    3.67    4.29
   0 -11  -7    0.33    3.58
   0 -11  -7   -3.96    7.65
   0 -11  -7    1.94    2.45
   0 -11  -7    0.54    2.73
   0 -11  -7    1.19    2.61
   0  11   7    3.13    3.16
   0  11   7    3.51    2.76
   0  11   7    1.59    2.97
   0  11   7    0.23    2.49
  -1 -11  -7   10.56    4.22
  -1 -11  -7   12.78    3.78
  -1 -11  -7   16.72    4.81
  -1 -11  -7    5.46   13.14
  -1 -11  -7    9.24    6.45
  -1 -11  -7   14.21    4.01
  -1 -11  -7   14.74    4.64
  -1 -11  -7    2.63    4.36
   1  11   7   16.05    5.04
   1  11   7    8.98    4.17
   2 -12  -7   39.92   27.68
   2 -12  -7   83.44   11.34
   2 -12  -7   89.99   11.23
  -2  12   7   61.72    9.61
  -2  12   7   85.82   10.76
  -2  12   7   87.37   10.40
  -2  12   7   69.04    9.63
   1 -12  -7   12.76    4.08
   1 -12  -7    7.12   14.24
   1 -12  -7   24.95    6.26
   1 -12  -7   23.17    6.42
  -1  12   7   19.10    4.89
  -1  12   7   15.41    4.98
  -1  12   7   17.69    4.74
  -1  12   7   16.42    5.21
  -1  12   7   20.13    4.81
   0 -12  -7   21.02    4.79
   0 -12  -7   14.19    7.12
   0 -12  -7    6.02   13.36
   0 -12  -7   19.14    5.09
   0 -12  -7   18.66    6.17
   0 -12  -7   19.26    5.62
   0  12   7   18.29    5.44
   0  12   7   19.81    5.51
   0  12   7   26.97    5.40
  -1 -12  -7   23.69    6.79
  -1 -12  -7   19.36    8.69
  -1 -12  -7   21.48    5.31
  -1 -12  -7   15.79    4.56
  -1 -12  -7    6.15   14.45
   1  12   7   21.88    5.91
   1  12   7   15.87    5.30
   1 -13  -7   84.81   11.08
   1 -13  -7   51.68   30.08
   1 -13  -7  100.89   13.18
  -1  13   7   94.59   10.23
  -1  13   7   95.73   11.28
  -1  13   7  115.94   12.14
  -1  13   7   93.09   11.99
   0 -13  -7  129.96   15.53
   0 -13  -7   84.93   11.23
   0 -13  -7  106.04   11.84
   0 -13  -7   52.03   29.95
   0  13   7  104.68   12.62
   0  13   7  109.95   12.89
   0  15  -8    2.33    3.06
   0  15  -8    0.42    3.30
   0  15  -8   -0.28    2.71
   0 -15   8   -1.40    2.77
   0 -15   8   -0.06    3.04
   0 -15   8   -1.96    2.72
   0 -15   8   -4.43   10.81
   1  14  -8   -0.29    2.31
   1  14  -8    0.29    2.57
  -1 -14   8   -1.57    2.15
  -1 -14   8   -1.03    2.70
  -1 -14   8    6.97   12.45
  -1 -14   8    2.03    2.97
  -1 -14   8   -2.73    2.70
   0  14  -8   10.76    4.02
   0  14  -8   14.15    4.45
   0  14  -8   11.74    4.74
   0 -14   8    8.19    4.15
   0 -14   8   16.26    4.80
   0 -14   8   19.97    5.27
   0 -14   8   27.92   21.65
  -1  14  -8   65.39    9.10
  -1  14  -8   54.81    8.79
  -1  14  -8   64.84    8.99
   1 -14   8   62.85    9.72
   1 -14   8   41.39   25.77
   1 -14   8   69.29    8.41
   1 -14   8   67.38    8.51
   1 -14   8   64.39    8.22
  -2 -13   8   13.41    4.38
  -2 -13   8    4.47   12.29
  -2 -13   8    5.97    3.73
  -2 -13   8    6.39    3.53
  -2 -13   8    6.22    3.22
  -2 -13   8    6.44    3.70
   1  13  -8    2.12    2.43
   1  13  -8    4.38    3.15
  -1 -13   8    1.57    2.12
  -1 -13   8   -1.82    2.32
  -1 -13   8    0.97    2.83
  -1 -13   8    0.99    2.50
  -1 -13   8    2.49    9.18
  -1 -13   8    0.82    3.05
   0  13  -8   15.72    4.67
   0  13  -8   14.60    4.19
   0 -13   8   16.86    4.46
   0 -13   8    8.25    3.46
   0 -13   8   10.76    4.42
   0 -13   8   10.08    3.41
   0 -13   8    7.52   13.22
  -1  13  -8   -2.68    1.89
  -1  13  -8    0.41    2.62
  -1  13  -8   -0.50    2.08
   1 -13   8   -1.59    9.42
   1 -13   8   -1.90    2.08
   1 -13   8   -1.19    2.24
   1 -13   8    0.20    2.34
   1 -13   8    2.88    3.12
  -2  13  -8    3.07    3.49
  -2  13  -8    8.78    4.58
  -2  13  -8    2.55    3.12
  -2  13  -8    7.75    3.93
   2 -13   8    4.25   13.03
   2 -13   8   -0.43    2.55
   2 -13   8    3.91    3.59
   2  12  -8    1.22    2.19
  -2 -12   8    0.25    2.29
  -2 -12   8    3.60   12.65
  -2 -12   8    3.42    3.23
  -2 -12   8    5.02    3.38
  -2 -12   8    2.34    2.37
  -2 -12   8    4.35    2.99
   1  12  -8    1.98    1.99
   1  12  -8    1.99    2.73
   1  12  -8    2.39    2.10
  -1 -12   8    5.07    2.70
  -1 -12   8    1.42    2.40
  -1 -12   8    5.31    3.09
  -1 -12   8    3.00    2.90
  -1 -12   8    7.83   12.86
   0  12  -8    3.41    2.55
   0  12  -8    0.93    2.62
   0 -12   8   -1.56    9.30
   0 -12   8    1.74    1.91
   0 -12   8   -1.29    1.50
   0 -12   8    1.31    2.35
   0 -12   8    1.44    2.71
   0 -12   8    2.12    2.16
  -1  12  -8    6.41    3.36
  -1  12  -8   10.79    3.71
  -1  12  -8    4.40    3.17
  -1  12  -8    5.12    3.34
   1 -12   8    4.98    2.64
   1 -12   8    5.18    3.02
   1 -12   8    4.95    2.95
   1 -12   8    8.85    3.96
   1 -12   8   12.61   15.32
  -2  12  -8    2.55    3.09
  -2  12  -8    4.23    3.13
  -2  12  -8    1.42    2.98
  -2  12  -8    3.04    2.99
   2 -12   8    3.82    3.58
   2 -12   8   -2.93    8.02
   2 -12   8    3.85    3.02
  -3 -11   8   14.41    5.19
  -3 -11   8   15.62    5.04
  -3 -11   8   13.71    3.97
  -3 -11   8    9.99    4.53
   2  11  -8    1.13    2.09
  -2 -11   8   -1.79    1.92
  -2 -11   8    2.27    2.73
  -2 -11   8   -2.01    1.93
  -2 -11   8    0.64    1.79
  -2 -11   8    0.48    2.36
   1  11  -8  123.99    9.54
   1  11  -8  129.48    8.40
   1  11  -8   88.54   13.00
  -1 -11   8  120.13    9.76
  -1 -11   8  116.36    9.38
  -1 -11   8  133.76    9.84
  -1 -11   8  119.11    8.48
   0  11  -8  105.87    9.18
   0  11  -8   84.24    7.41
   0  11  -8  115.88   12.02
   0  11  -8   95.92    7.88
   0 -11   8  111.56    7.57
   0 -11   8   96.19    8.18
   0 -11   8  107.46    7.42
   0 -11   8  106.08   32.67
   0 -11   8   94.74   10.14
   0 -11   8  102.54    8.14
  -1  11  -8   65.39    8.05
  -1  11  -8   63.23    8.29
  -1  11  -8   61.03    8.17
  -1  11  -8   81.13    8.80
   1 -11   8   69.29    8.94
   1 -11   8   56.72    7.10
   1 -11   8   58.53   25.93
   1 -11   8   54.33    6.34
   1 -11   8   63.61    7.71
  -2  11  -8  159.26   11.84
  -2  11  -8  149.88   11.34
  -2  11  -8  150.92   11.39
  -2  11  -8  136.35   11.54
   2 -11   8  145.24   11.21
   2 -11   8  161.22   12.43
   2 -11   8   97.78   32.33
  -3  11  -8   32.05    6.66
  -3  11  -8   42.51    7.95
  -3  11  -8   26.31    6.18
  -3  11  -8   33.96    6.91
   3 -11   8   42.41    7.58
   3 -11   8   22.81    5.88
  -3 -10   8  154.18   12.35
  -3 -10   8  169.37   12.59
  -3 -10   8  195.32   11.93
  -3 -10   8  140.86   12.15
   2  10  -8   51.64    5.58
   2  10  -8   47.59   12.52
   2  10  -8   51.26    6.43
  -2 -10   8   55.65    6.52
  -2 -10   8   55.81    7.66
  -2 -10   8   63.08    7.20
  -2 -10   8   50.35    7.44
   1  10  -8  372.49   27.15
   1  10  -8  443.54   18.04
   1  10  -8  428.77   19.60
  -1 -10   8  403.27   18.11
  -1 -10   8  433.94   19.89
  -1 -10   8  425.74   19.96
  -1 -10   8  403.70   19.43
   0  10  -8   22.45    4.05
   0  10  -8   24.38    6.48
   0  10  -8   15.92    3.56
   0  10  -8   19.04    4.44
   0 -10   8   15.83    3.74
   0 -10   8   25.44   17.72
   0 -10   8   18.12    3.35
   0 -10   8   17.18    3.39
   0 -10   8   19.83    4.13
   0 -10   8   17.36    4.21
  -1  10  -8  368.24   18.00
  -1  10  -8  381.27   19.04
  -1  10  -8  389.02   19.08
  -1  10  -8  345.20   17.46
   1 -10   8  302.49   43.70
   1 -10   8  369.93   17.41
   1 -10   8  378.31   16.34
   1 -10   8  388.98   19.53
   1 -10   8  362.95   13.76
   1 -10   8  359.44   17.32
  -2  10  -8   21.52    4.86
  -2  10  -8   19.07    4.95
  -2  10  -8   35.60    6.10
  -2  10  -8   22.71    4.99
   2 -10   8   17.30    4.49
   2 -10   8   28.16    5.65
   2 -10   8   14.87   13.62
  -3  10  -8  130.56   10.94
  -3  10  -8  120.07   10.90
  -3  10  -8  133.27   11.53
  -3  10  -8  120.68   12.98
   3 -10   8  126.28   12.89
   3 -10   8  127.46   11.15
   3   9  -8   33.84   12.42
  -3  -9   8   34.42    6.38
  -3  -9   8   48.32    7.88
  -3  -9   8   35.23    6.79
  -3  -9   8   46.30    6.44
   2   9  -8   15.66    3.70
   2   9  -8   17.19    8.15
   2   9  -8   18.86    3.12
  -2  -9   8   19.87    4.75
  -2  -9   8   11.43    3.12
  -2  -9   8   14.19    3.86
  -2  -9   8   23.21    4.39
   1   9  -8  272.76   12.34
   1   9  -8  259.20   21.09
   1   9  -8  233.13   13.41
   1   9  -8  263.14   11.77
  -1  -9   8  270.28   14.11
  -1  -9   8  270.32   14.18
  -1  -9   8  245.20   13.90
  -1  -9   8  270.21   12.73
   0   9  -8   -0.82    1.95
   0   9  -8    0.03    1.40
   0   9  -8    0.93    2.77
   0   9  -8    0.36    1.62
   0   9  -8   -1.05    2.03
   0  -9   8    0.44    1.61
   0  -9   8    0.68    1.39
   0  -9   8    0.16    1.25
   0  -9   8    0.98    1.82
   0  -9   8    0.20    1.65
  -1   9  -8  864.17   35.46
  -1   9  -8  885.99   33.06
  -1   9  -8  841.21   32.90
  -1   9  -8  865.59   34.16
   1  -9   8  894.63   30.88
   1  -9   8  791.73   67.67
   1  -9   8  844.90   28.55
   1  -9   8  823.60   34.10
   1  -9   8  894.75   32.81
   1  -9   8  814.57   32.33
  -2   9  -8    0.08    2.12
  -2   9  -8   -0.10    2.11
  -2   9  -8    0.31    2.06
  -2   9  -8   -0.52    1.76
   2  -9   8    0.65    7.20
   2  -9   8    0.29    2.11
   2  -9   8   -0.50    2.07
  -3   9  -8   64.85    8.76
  -3   9  -8   80.83    9.63
  -3   9  -8  100.17   11.23
  -3   9  -8   70.86    9.13
   3  -9   8   75.86   10.12
   3  -9   8   67.12    8.86
   3   8  -8   12.68    7.97
  -3  -8   8   19.83    4.86
  -3  -8   8   29.44    4.83
  -3  -8   8   26.88    5.35
   2   8  -8   42.46    4.39
   2   8  -8   39.78   11.36
   2   8  -8   35.33    3.78
  -2  -8   8   38.24    4.84
  -2  -8   8   41.15    6.24
  -2  -8   8   30.72    5.17
  -2  -8   8   37.81    5.23
   1   8  -8  384.44   17.59
   1   8  -8  374.88   13.93
   1   8  -8  344.21   24.42
   1   8  -8  390.94   15.89
   1   8  -8  428.61   15.82
   1   8  -8  398.17   15.21
  -1  -8   8  387.47   14.02
  -1  -8   8  389.06   17.54
  -1  -8   8  366.94   17.57
  -1  -8   8  374.98   17.20
  -1  -8   8  368.76   17.48
  -1  -8   8  360.09   15.69
   0   8  -8  407.22   16.51
   0   8  -8  407.92   18.28
   0   8  -8  381.75   18.20
   0   8  -8  397.43   16.56
   0   8  -8  317.42   21.06
   0  -8   8  376.67   17.17
   0  -8   8  405.55   16.22
   0  -8   8  379.68   15.83
   0  -8   8  397.83   18.69
   0  -8   8  362.63   16.24
  -1   8  -8  517.16   21.96
  -1   8  -8  498.32   24.95
  -1   8  -8  536.73   23.44
  -1   8  -8  540.67   23.34
  -1   8  -8  537.67   22.41
   1  -8   8  537.28   18.75
   1  -8   8  574.94   20.30
   1  -8   8  524.75   21.88
   1  -8   8  542.08   23.87
   1  -8   8  480.23   49.66
   1  -8   8  512.70   21.90
  -2   8  -8   20.72    4.84
  -2   8  -8   22.66    3.34
  -2   8  -8   23.50    5.38
  -2   8  -8   25.01    5.13
  -2   8  -8   27.32    5.83
  -2   8  -8   22.30    4.79
   2  -8   8   22.75    4.98
   2  -8   8   23.34    5.28
   2  -8   8   21.55   13.42
  -3   8  -8   16.72    4.91
  -3   8  -8   33.94    6.15
  -3   8  -8   17.60    5.08
  -3   8  -8   21.37    5.13
   3  -8   8   26.21    5.40
   3  -8   8   25.19    5.50
  -4  -7   8   28.70    6.71
  -4  -7   8   36.70    7.17
  -4  -7   8   34.84    6.65
  -4  -7   8   35.72    7.12
   3   7  -8    2.58    5.81
  -3  -7   8    5.75    3.02
  -3  -7   8   10.35    2.89
  -3  -7   8    6.46    2.95
   2   7  -8  517.25   34.73
   2   7  -8  535.66   18.68
  -2  -7   8  542.70   23.06
  -2  -7   8  561.62   23.45
  -2  -7   8  526.78   20.66
  -2  -7   8  520.71   21.42
   1   7  -8   50.93    5.94
   1   7  -8   42.46    3.62
   1   7  -8   38.11    9.17
   1   7  -8   43.61    3.08
   1   7  -8   37.75    3.76
   1   7  -8   41.78    4.54
  -1  -7   8   51.91    5.98
  -1  -7   8   48.75    5.79
  -1  -7   8   37.19    4.85
  -1  -7   8   39.11    5.36
  -1  -7   8   42.67    4.40
  -1  -7   8   42.74    3.01
   0   7  -8    0.03    1.28
   0   7  -8   -1.44    1.21
   0   7  -8   -0.73    1.39
   0   7  -8    1.09    2.45
   0   7  -8   -1.01    1.08
   0  -7   8    0.42    1.08
   0  -7   8   -0.11    1.04
   0  -7   8    0.67    1.50
   0  -7   8   -0.66    1.55
   0  -7   8   -0.12    1.30
  -1   7  -8 1310.13   44.67
  -1   7  -8 1196.20   45.22
  -1   7  -8 1254.98   44.33
  -1   7  -8 1242.21   41.54
  -1   7  -8 1269.40   49.45
  -1   7  -8 1237.25   45.52
   1  -7   8 1260.25   41.69
   1  -7   8 1250.50   41.91
   1  -7   8 1273.96   44.35
   1  -7   8 1292.80   44.61
   1  -7   8 1195.35   45.62
   1  -7   8 1314.86   41.20
  -2   7  -8   15.01    4.15
  -2   7  -8   15.46    4.98
  -2   7  -8   30.57    5.47
  -2   7  -8   18.23    4.36
  -2   7  -8   20.27    3.17
  -2   7  -8    9.91    3.55
   2  -7   8   18.70    4.45
   2  -7   8   12.55    3.55
   2  -7   8    9.01    9.48
  -3   7  -8   32.05    5.88
  -3   7  -8   16.44    4.60
  -3   7  -8   12.18    4.01
  -3   7  -8   13.19    4.40
   3  -7   8   18.59    4.73
   3  -7   8   15.88    4.71
  -4  -6   8   39.55    6.97
  -4  -6   8   44.29    8.02
  -4  -6   8   51.10    7.94
  -4  -6   8   42.10    7.59
   3   6  -8  159.73   20.99
  -3  -6   8  169.33   11.90
  -3  -6   8  159.84   11.33
  -3  -6   8  160.69    9.38
  -3  -6   8  159.57   10.90
   2   6  -8   40.99    2.51
   2   6  -8   36.92   10.18
  -2  -6   8   38.72    5.42
  -2  -6   8   46.13    5.23
  -2  -6   8   47.44    6.09
  -2  -6   8   52.26    4.30
  -2  -6   8   41.97    5.99
   1   6  -8  202.14   17.24
   1   6  -8  203.79    8.74
   1   6  -8  208.41    9.77
   1   6  -8  226.29    9.02
   1   6  -8  201.29    8.39
   1   6  -8  226.96   11.50
  -1  -6   8  196.36   10.76
  -1  -6   8  204.40   11.24
  -1  -6   8  208.21   11.18
  -1  -6   8  211.07    8.47
  -1  -6   8  214.77   11.20
  -1  -6   8  223.01    9.35
   0   6  -8    2.91    2.05
   0   6  -8    1.80    1.51
   0   6  -8    4.03    1.59
   0   6  -8    1.93    1.46
   0   6  -8    1.80    2.51
   0   6  -8    2.27    1.94
   0  -6   8   -0.10    1.03
   0  -6   8    3.42    2.04
   0  -6   8    1.84    1.67
   0  -6   8   -0.26    1.08
   0  -6   8    3.18    1.65
  -1   6  -8    0.19    1.54
  -1   6  -8   -0.82    1.83
  -1   6  -8    2.06    1.75
  -1   6  -8    0.47    1.67
  -1   6  -8    0.11    1.37
  -1   6  -8   -1.14    1.24
  -1   6  -8    1.96    1.05
  -1   6  -8    0.68    1.38
   1  -6   8    1.45    1.73
   1  -6   8    1.11    1.06
   1  -6   8   -0.33    1.17
   1  -6   8    0.14    0.94
   1  -6   8    0.55    1.55
   1  -6   8   -0.55    1.19
  -2   6  -8    7.90    4.21
  -2   6  -8   10.80    3.49
  -2   6  -8    7.23    2.93
  -2   6  -8   10.80    3.21
  -2   6  -8    6.16    2.88
  -2   6  -8   11.11    2.74
   2  -6   8    3.33    2.54
   2  -6   8   23.93   11.40
   2  -6   8   13.93    3.76
  -3   6  -8   50.20    7.07
  -3   6  -8   59.52    8.23
  -3   6  -8   47.65    7.13
  -3   6  -8   36.22    6.30
  -3   6  -8   62.51    6.42
  -3   6  -8   41.00    9.29
   3  -6   8   47.81    7.37
   3  -6   8   48.75    6.79
  -4   6  -8   71.85   10.33
  -4   6  -8   46.03    7.98
  -4   6  -8   59.94    9.61
  -4   6  -8   51.00    8.08
  -4   6  -8   60.54    8.41
   4  -6   8   51.45    8.23
   4   5  -8    5.55    7.58
  -4  -5   8    0.88    2.86
  -4  -5   8    0.32    2.95
  -4  -5   8    3.08    2.66
  -4  -5   8   -0.78    2.28
   3   5  -8    1.32    4.21
  -3  -5   8    5.08    2.70
  -3  -5   8    8.82    3.38
  -3  -5   8    4.39    2.69
  -3  -5   8    3.50    1.95
   2   5  -8   88.85    4.31
   2   5  -8   72.04   13.07
  -2  -5   8   76.81    6.85
  -2  -5   8   87.22    5.27
  -2  -5   8   78.54    6.52
  -2  -5   8   80.63    5.98
   1   5  -8  327.32   12.41
   1   5  -8  342.76   12.12
   1   5  -8  315.53   21.93
   1   5  -8  315.97   14.76
   1   5  -8  355.31   16.46
   1   5  -8  323.11   12.12
   1   5  -8  329.60   13.50
  -1  -5   8  329.11   14.62
  -1  -5   8  319.73   12.28
  -1  -5   8  339.64   15.15
  -1  -5   8  309.82   14.46
  -1  -5   8  337.38   12.16
  -1  -5   8  334.16   15.02
   0   5  -8  143.93    7.38
   0   5  -8  142.44    7.28
   0   5  -8  129.42    8.35
   0   5  -8  139.33    7.25
   0   5  -8  125.63    8.61
   0   5  -8  149.80   12.65
   0   5  -8  146.01    7.40
   0  -5   8  133.30    7.46
   0  -5   8  134.53    8.63
   0  -5   8  133.59    7.16
   0  -5   8  126.64    7.10
   0  -5   8  125.92    7.76
  -1   5  -8  240.53   11.04
  -1   5  -8  236.37   12.49
  -1   5  -8  231.32   11.51
  -1   5  -8  217.97   11.53
  -1   5  -8  215.66   15.45
  -1   5  -8  233.52   12.09
  -1   5  -8  225.09   10.70
   1  -5   8  230.04    9.00
   1  -5   8  219.97    9.74
   1  -5   8  217.03   12.17
   1  -5   8  220.36   11.50
   1  -5   8  225.22   11.46
  -2   5  -8  337.29   16.77
  -2   5  -8  350.23   15.28
  -2   5  -8  336.64   21.39
  -2   5  -8  366.49   17.71
  -2   5  -8  362.09   17.15
  -2   5  -8  364.79   14.67
  -2   5  -8  355.07   15.50
   2  -5   8  377.81   17.64
   2  -5   8  357.24   17.10
   2  -5   8  364.86   13.71
  -3   5  -8  154.64    9.86
  -3   5  -8  164.24   10.91
  -3   5  -8  135.85   14.59
  -3   5  -8  166.70   12.04
  -3   5  -8  173.48   12.11
  -3   5  -8  160.39   11.25
   3  -5   8  157.12   11.34
   3  -5   8  161.10   10.85
  -4   5  -8   22.91    6.08
  -4   5  -8   15.18    4.92
  -4   5  -8   11.74    4.48
  -4   5  -8   13.53    4.71
   4  -5   8   15.42    5.01
   4   4  -8   48.08   15.41
  -4  -4   8   81.20    8.89
  -4  -4   8   62.57    8.89
  -4  -4   8   80.45    9.29
  -4  -4   8   65.55    8.56
  -4  -4   8   75.02   11.19
   3   4  -8   54.08   14.24
  -3  -4   8   57.36    5.18
  -3  -4   8   64.75    5.39
  -3  -4   8   62.78    6.91
  -3  -4   8   56.89    7.27
  -3  -4   8   74.82    7.14
  -3  -4   8   57.20    7.10
   2   4  -8    9.53    2.94
   2   4  -8    5.33    1.66
   2   4  -8    8.49    1.71
   2   4  -8    5.87    4.83
  -2  -4   8    8.18    2.66
  -2  -4   8    7.15    2.24
  -2  -4   8    8.56    1.85
  -2  -4   8    8.77    1.66
  -2  -4   8    1.93    1.70
   1   4  -8  433.50   14.51
   1   4  -8  431.87   14.57
   1   4  -8  428.00   14.86
   1   4  -8  411.49   25.45
   1   4  -8  415.20   16.40
   1   4  -8  431.58   17.81
   1   4  -8  419.02   18.73
  -1  -4   8  419.03   17.40
  -1  -4   8  444.09   17.36
  -1  -4   8  401.95   17.59
  -1  -4   8  404.60   15.01
  -1  -4   8  436.87   18.02
   0   4  -8    0.46    1.07
   0   4  -8    2.04    1.57
   0   4  -8    2.09    1.66
   0   4  -8    0.21    0.83
   0   4  -8    0.03    1.96
   0   4  -8   -0.34    1.09
   0   4  -8    1.11    1.17
   0  -4   8   -1.21    0.92
   0  -4   8    0.59    1.05
   0  -4   8    0.74    0.98
   0  -4   8   -0.75    0.96
  -1   4  -8   22.96    3.52
  -1   4  -8   24.94    3.71
  -1   4  -8   26.10    4.19
  -1   4  -8   28.37    4.05
  -1   4  -8   30.17    6.89
  -1   4  -8   28.17    4.39
   1  -4   8   30.56    4.29
   1  -4   8   31.41    3.45
   1  -4   8   18.10    3.58
   1  -4   8   24.58    2.11
  -2   4  -8    5.06    3.83
  -2   4  -8    2.94    1.86
  -2   4  -8    7.70    3.14
  -2   4  -8    6.26    2.87
  -2   4  -8    8.38    2.50
  -2   4  -8    6.24    2.75
   2  -4   8    5.01    2.52
   2  -4   8    8.14    5.95
   2  -4   8    6.96    2.37
   2  -4   8    4.81    2.27
   2  -4   8    5.64    1.76
  -3   4  -8   73.34    9.06
  -3   4  -8   66.44    7.66
  -3   4  -8   64.41    8.43
  -3   4  -8   72.91    8.39
  -3   4  -8   72.49    7.70
   3  -4   8   66.79    8.12
   3  -4   8   70.61    7.83
  -4   4  -8    3.89    3.34
  -4   4  -8    0.67    2.93
  -4   4  -8   -0.48    2.97
  -4   4  -8    0.31    3.12
   4  -4   8   -0.34    2.68
   4   3  -8   23.23   10.80
  -4  -3   8   40.60    6.74
  -4  -3   8   32.12    5.88
  -4  -3   8   29.45    5.34
  -4  -3   8   39.62    7.36
  -4  -3   8   37.81    6.35
   3   3  -8   77.87   16.45
  -3  -3   8   86.90    5.89
  -3  -3   8   76.30    6.54
  -3  -3   8   73.53    8.34
  -3  -3   8   82.89    5.13
  -3  -3   8   88.54    9.45
  -3  -3   8   86.61    9.03
   2   3  -8   57.39    3.92
   2   3  -8   57.30    6.85
  -2  -3   8   46.26    5.14
  -2  -3   8   51.86    3.11
  -2  -3   8   51.68    3.10
  -2  -3   8   55.95    6.52
  -2  -3   8   50.14    3.79
  -2  -3   8   46.12    5.72
  -2  -3   8   49.81    3.38
   1   3  -8   31.24    4.49
   1   3  -8   36.22    4.48
   1   3  -8   30.11    7.17
   1   3  -8   43.60    3.79
   1   3  -8   44.16    2.11
   1   3  -8   42.68    2.83
   1   3  -8   45.90    2.42
  -1  -3   8   40.40    3.03
  -1  -3   8   49.19    4.84
  -1  -3   8   35.32    2.66
  -1  -3   8   36.99    4.64
  -1  -3   8   49.27    5.00
  -1  -3   8   39.72    4.34
   0   3  -8 1742.98   56.43
   0   3  -8 1702.90   57.69
   0   3  -8 1743.46   57.96
   0   3  -8 1799.92   56.47
   0   3  -8 1808.59   66.52
   0   3  -8 1748.56   58.60
   0  -3   8 1683.20   57.90
   0  -3   8 1704.52   56.45
   0  -3   8 1758.29   57.16
   0  -3   8 1694.14   57.01
  -1   3  -8   33.27    4.81
  -1   3  -8   37.54    4.44
  -1   3  -8   46.40    8.07
  -1   3  -8   39.94    4.91
  -1   3  -8   45.88    4.94
  -1   3  -8   44.61    5.28
   1  -3   8   45.29    3.91
   1  -3   8   41.25    2.52
   1  -3   8   43.51    5.12
  -2   3  -8   47.63    6.26
  -2   3  -8   45.40    5.46
  -2   3  -8   54.12    6.44
  -2   3  -8   57.42   10.44
  -2   3  -8   42.19    5.41
  -2   3  -8   61.74    6.79
  -2   3  -8   54.87    4.86
   2  -3   8   59.25    5.65
   2  -3   8   51.87    4.46
   2  -3   8   51.34    6.12
   2  -3   8   43.37    5.61
   2  -3   8   45.84    9.83
   2  -3   8   40.15    8.80
  -3   3  -8    0.63    2.23
  -3   3  -8   -2.33    1.63
  -3   3  -8   -1.34    2.00
  -3   3  -8    3.09    2.81
  -3   3  -8    0.74    2.23
   3  -3   8    0.20    2.30
   3  -3   8    0.89    2.07
  -4   3  -8    7.42    4.17
  -4   3  -8    7.02    3.63
  -4   3  -8    9.28    4.12
  -4   3  -8   10.56    4.73
   4  -3   8    5.01    3.41
   4   2  -8   15.29    9.09
  -4  -2   8   42.29    6.90
  -4  -2   8   32.60    6.47
  -4  -2   8   32.21    5.51
  -4  -2   8   30.01    5.45
  -4  -2   8   34.78    6.63
   3   2  -8   28.19    9.61
  -3  -2   8   50.02    7.05
  -3  -2   8   50.41    6.59
  -3  -2   8   41.64    4.61
  -3  -2   8   60.08    7.66
  -3  -2   8   46.50    3.91
  -3  -2   8   44.17    5.27
   2   2  -8  148.90    9.36
   2   2  -8  138.03    7.26
  -2  -2   8  126.10    6.29
  -2  -2   8  126.60    5.94
  -2  -2   8  153.40    7.52
  -2  -2   8  143.80    9.42
  -2  -2   8  153.64    8.05
  -2  -2   8  129.79    8.86
   1   2  -8  385.12   13.26
   1   2  -8  397.69   15.68
   1   2  -8  404.09   24.16
   1   2  -8  406.73   14.12
   1   2  -8  399.42   16.25
   1   2  -8  386.17   17.26
  -1  -2   8  391.51   16.66
  -1  -2   8  403.73   14.02
  -1  -2   8  386.21   15.41
  -1  -2   8  369.20   15.86
  -1  -2   8  391.76   15.86
  -1  -2   8  396.18   14.69
   0   2  -8  369.70   14.20
   0   2  -8  341.70   14.84
   0   2  -8  352.13   12.62
   0   2  -8  326.00   14.73
   0   2  -8  392.65   22.04
   0   2  -8  338.32   15.54
   0   2  -8  347.64   14.98
   0   2  -8  348.40   14.14
   0  -2   8  364.41   14.33
   0  -2   8  333.02   15.19
   0  -2   8  343.75   14.68
   0  -2   8  336.41   14.23
   0  -2   8  420.33   38.47
  -1   2  -8  606.23   31.00
  -1   2  -8  623.82   24.75
  -1   2  -8  581.46   23.94
  -1   2  -8  633.23   23.86
  -1   2  -8  663.54   23.51
  -1   2  -8  629.11   23.92
  -1   2  -8  604.07   23.84
   1  -2   8  631.89   24.08
   1  -2   8  709.90   45.65
   1  -2   8  623.00   20.74
   1  -2   8  650.06   23.42
  -2   2  -8   94.61    6.53
  -2   2  -8   84.21    6.26
  -2   2  -8   82.45   11.14
  -2   2  -8   88.83    7.09
  -2   2  -8   92.15    7.26
  -2   2  -8   71.17    6.45
   2  -2   8   92.94    6.30
   2  -2   8   77.78    9.80
   2  -2   8   84.15    6.99
  -3   2  -8   23.09    5.14
  -3   2  -8   18.73    3.71
  -3   2  -8   15.64    4.21
  -3   2  -8   19.88    4.38
  -3   2  -8   13.04    4.24
   3  -2   8   14.43    4.01
   3  -2   8   23.91    4.31
  -4   2  -8    6.94    3.89
  -4   2  -8   13.66    4.32
  -4   2  -8    3.18    3.54
  -4   2  -8    3.17    3.40
   4  -2   8    7.67    3.74
   4   1  -8   29.16   11.80
  -4  -1   8   22.03    4.46
  -4  -1   8   31.88    5.84
  -4  -1   8   23.31    5.52
  -4  -1   8   29.34    5.98
  -4  -1   8   23.64    4.55
   3   1  -8    0.77    1.87
   3   1  -8    0.59    4.35
  -3  -1   8   -1.44    1.82
  -3  -1   8    0.94    1.54
  -3  -1   8    0.05    1.39
  -3  -1   8   -0.43    1.59
  -3  -1   8   -2.19    1.33
  -3  -1   8    0.49    1.86
   2   1  -8   87.49    6.88
   2   1  -8   88.43   12.20
   2   1  -8   83.52    5.73
  -2  -1   8   88.07    7.32
  -2  -1   8   94.12    6.02
  -2  -1   8   90.45    5.76
  -2  -1   8   92.34    7.06
  -2  -1   8   83.80    3.91
  -2  -1   8   86.18    4.28
   1   1  -8  415.59   14.21
   1   1  -8  417.84   16.69
   1   1  -8  437.82   18.20
   1   1  -8  416.43   14.98
   1   1  -8  404.54   16.31
  -1  -1   8  389.37   15.97
  -1  -1   8  404.17   14.89
  -1  -1   8  439.28   17.06
  -1  -1   8  417.49   17.44
  -1  -1   8  418.54   15.79
   0   1  -8    2.06    0.93
   0   1  -8    0.86    1.38
   0   1  -8    0.33    1.32
   0   1  -8    1.39    1.22
   0   1  -8    2.29    2.80
   0   1  -8    1.07    1.31
   0  -1   8   14.56    9.49
   0  -1   8    1.01    1.22
   0  -1   8    0.44    1.20
   0  -1   8    2.23    1.53
   0  -1   8    1.46    1.18
   0  -1   8    2.04    1.27
  -1   1  -8  259.23   12.12
  -1   1  -8  238.63   11.79
  -1   1  -8  251.14   12.55
  -1   1  -8  241.83   17.81
  -1   1  -8  251.26   11.53
  -1   1  -8  244.78   12.29
  -1   1  -8  254.23   11.44
   1  -1   8  247.42   11.78
   1  -1   8  254.63    9.51
   1  -1   8  242.97   24.99
   1  -1   8  272.74   13.27
   1  -1   8  256.32   12.11
  -2   1  -8    6.55    2.63
  -2   1  -8    4.86    2.38
  -2   1  -8    7.33    2.69
  -2   1  -8    5.89    2.21
  -2   1  -8    3.11    2.02
  -2   1  -8    3.47    1.83
   2  -1   8    5.38    2.14
   2  -1   8    5.33    2.62
  -3   1  -8   24.81    5.46
  -3   1  -8   34.43    4.61
  -3   1  -8   38.93    6.80
  -3   1  -8   23.41    4.76
  -3   1  -8   23.33    5.30
  -3   1  -8   27.70    5.29
   3  -1   8   24.66    5.04
   3  -1   8   30.88    5.01
  -4   1  -8    4.16    3.31
  -4   1  -8    0.19    2.77
  -4   1  -8    4.38    3.53
  -4   1  -8    2.35    2.97
   4  -1   8    1.73    2.97
   4   0  -8   12.16    8.47
  -4   0   8    2.42    2.55
  -4   0   8    0.37    2.55
  -4   0   8    1.72    2.45
  -4   0   8   -0.32    1.91
  -4   0   8    1.04    2.06
   3   0  -8  201.22   10.92
   3   0  -8  116.54   16.30
  -3   0   8  189.04   11.45
  -3   0   8  161.23   11.54
  -3   0   8  174.63   11.08
  -3   0   8  168.79    9.13
  -3   0   8  173.49    7.21
  -3   0   8  174.30    8.96
  -3   0   8  183.27    9.76
   2   0  -8  327.45   15.04
   2   0  -8  294.66   22.63
  -2   0   8  319.68   13.87
  -2   0   8  304.01   14.82
  -2   0   8  304.87   10.58
  -2   0   8  304.03   11.34
  -2   0   8  318.13   12.65
  -2   0   8  318.68   15.59
  -2   0   8  307.37   13.13
  -2   0   8  309.33   11.47
   1   0  -8  206.62    8.00
   1   0  -8  194.66   10.66
   1   0  -8  208.61    8.63
   1   0  -8  185.97   15.45
  -1   0   8  191.40   10.18
  -1   0   8  214.51    9.53
  -1   0   8  158.52   10.03
  -1   0   8  190.41    8.51
  -1   0   8  188.58    8.76
  -1   0   8  218.25   10.45
   0   0  -8  144.93    9.04
   0   0  -8  139.35    7.65
   0   0  -8  158.01   13.61
   0   0  -8  149.64    7.77
   0   0  -8  205.56   27.87
   0   0  -8  150.03    6.49
   0   0  -8  154.43    8.08
   0   0   8  143.92    7.96
   0   0   8  153.43    8.92
   0   0   8  150.42    8.58
   0   0   8  186.59   25.33
   0   0   8  147.04    7.93
  -1   0  -8   18.37    3.42
  -1   0  -8   23.45    6.98
  -1   0  -8   18.34    3.63
  -1   0  -8   24.96    4.17
  -1   0  -8   18.70    3.04
  -1   0  -8   18.88    3.46
  -1   0  -8   16.34    2.85
   1   0   8   25.71    4.71
   1   0   8   18.20    2.41
   1   0   8   26.57    3.91
   1   0   8   10.71    7.05
  -2   0  -8   18.52    3.96
  -2   0  -8   24.60    3.57
  -2   0  -8   26.33    4.44
  -2   0  -8   21.87    4.31
  -2   0  -8   16.62    3.82
  -2   0  -8   19.05    3.77
   2   0   8   22.13    1.77
   2   0   8   20.69    4.11
   2   0   8   23.99    4.03
  -3   0  -8   58.74    6.61
  -3   0  -8   52.28    7.64
  -3   0  -8   44.79    7.16
  -3   0  -8   59.49    7.53
  -3   0  -8   51.39    7.07
   3   0   8   48.38    6.86
   3   0   8   57.87    6.54
  -4   0  -8    2.66    3.67
  -4   0  -8    2.92    3.15
  -4   0  -8    4.83    3.49
  -4   0  -8    4.79    4.23
   4   0   8    3.30    3.43
  -4   1   8  435.81   23.15
  -4   1   8  474.63   22.48
  -4   1   8  431.83   21.80
  -4   1   8  507.22   28.46
  -4   1   8  433.45   20.09
   3  -1  -8  914.61   50.91
   3  -1  -8 1082.22   37.39
  -3   1   8 1047.75   33.42
  -3   1   8 1000.36   35.31
  -3   1   8 1004.69   38.45
  -3   1   8 1021.79   38.47
  -3   1   8  995.75   34.98
  -3   1   8 1040.02   39.99
  -3   1   8 1025.72   36.89
   2  -1  -8   -0.74    2.39
   2  -1  -8    1.85    0.97
   2  -1  -8    1.28    1.60
   2  -1  -8    7.51   10.03
  -2   1   8    1.01    0.84
  -2   1   8    1.20    1.76
  -2   1   8    0.18    0.91
  -2   1   8   -0.99    0.91
  -2   1   8    3.24    1.83
  -2   1   8   -0.77    1.61
  -2   1   8    0.20    0.76
   1  -1  -8   34.70    2.97
   1  -1  -8   30.14   14.49
   1  -1  -8   40.80    3.28
   1  -1  -8   29.30    7.54
   1  -1  -8   37.66    5.24
   1  -1  -8   42.59    3.11
   1  -1  -8   42.55    3.54
  -1   1   8   41.68    2.22
  -1   1   8   36.28    2.99
  -1   1   8   39.04    3.15
  -1   1   8   39.37    5.24
  -1   1   8   28.56    4.14
  -1   1   8   43.81    5.26
  -1   1   8   40.44    3.19
   0  -1  -8   40.24    3.75
   0  -1  -8   35.73    7.68
   0  -1  -8   36.21    5.10
   0  -1  -8   41.81    4.85
   0  -1  -8   38.21    4.13
   0  -1  -8   42.16    4.54
   0  -1  -8   34.80   14.40
   0  -1  -8   40.94    3.06
   0   1   8   41.06    3.64
   0   1   8   52.45    5.24
   0   1   8   34.30   14.60
   0   1   8   34.55    4.64
   0   1   8   51.89    5.38
   0   1   8   43.52    3.21
  -1  -1  -8    3.15    5.35
  -1  -1  -8    6.54    2.23
  -1  -1  -8    4.66    1.96
  -1  -1  -8    3.94    3.48
  -1  -1  -8   12.81    2.98
  -1  -1  -8    5.36    1.99
  -1  -1  -8    6.74    2.60
   1   1   8    4.22    2.30
   1   1   8    2.71    4.88
   1   1   8    2.72    1.72
   1   1   8    4.20    1.51
   1   1   8    6.02    2.17
  -2  -1  -8  245.18   13.04
  -2  -1  -8  226.61   12.47
  -2  -1  -8  235.17   13.34
  -2  -1  -8  233.10   12.61
  -2  -1  -8  233.90   12.79
   2   1   8  224.35    9.20
   2   1   8  233.49   12.60
   2   1   8  226.34   13.16
   2   1   8  232.63   12.48
  -3  -1  -8  395.97   19.77
  -3  -1  -8  381.23   20.43
  -3  -1  -8  397.30   18.21
  -3  -1  -8  368.79   18.56
  -3  -1  -8  378.36   19.24
   3   1   8  359.86   18.43
  -4  -1  -8    8.14    3.61
  -4  -1  -8   12.35    4.62
  -4  -1  -8    6.73    4.50
  -4  -1  -8   10.46    4.97
   4   1   8   12.65    4.45
   4  -2  -8   15.74    9.07
  -4   2   8   17.14    4.36
  -4   2   8   19.89    5.37
  -4   2   8   17.44    4.76
  -4   2   8   28.13    5.58
  -4   2   8   17.79    5.44
  -4   2   8   15.54    4.61
  -4   2   8   15.52    4.81
   3  -2  -8  140.71    9.08
   3  -2  -8  122.57   16.05
  -3   2   8  127.79    9.33
  -3   2   8  135.93   10.67
  -3   2   8  133.17    7.06
  -3   2   8  120.31    8.69
  -3   2   8  137.14    8.12
  -3   2   8  142.88    7.01
   2  -2  -8  144.14   14.85
   2  -2  -8  150.41    7.06
   2  -2  -8  110.61   26.58
   2  -2  -8  144.16    9.25
  -2   2   8  153.58    7.18
  -2   2   8  140.42    9.10
  -2   2   8  145.68    9.09
  -2   2   8  150.76    6.82
  -2   2   8  148.35    6.49
  -2   2   8  154.55    6.88
   1  -2  -8    4.00    2.04
   1  -2  -8    5.49    1.41
   1  -2  -8    3.04    3.13
   1  -2  -8    8.35    8.72
   1  -2  -8    4.94    1.21
   1  -2  -8    3.58    1.51
   1  -2  -8    3.12    1.27
  -1   2   8    6.85    2.52
  -1   2   8    6.26    1.80
  -1   2   8    3.49    1.17
  -1   2   8    0.77    1.56
  -1   2   8    5.20    1.30
  -1   2   8    4.28    1.91
  -1   2   8    5.10    1.37
   0  -2  -8  537.17   19.16
   0  -2  -8  571.49   29.93
   0  -2  -8  532.52   21.06
   0  -2  -8  563.27   20.74
   0  -2  -8  499.06   45.79
   0  -2  -8  534.94   19.97
   0  -2  -8  538.26   22.58
   0   2   8  533.71   21.43
   0   2   8  517.46   19.11
   0   2   8  530.49   19.84
  -1  -2  -8   70.48   15.70
  -1  -2  -8   63.94    6.41
  -1  -2  -8   76.66    6.80
  -1  -2  -8   64.70    5.69
  -1  -2  -8   66.86    5.11
  -1  -2  -8   67.22    5.26
   1   2   8   68.60    7.00
   1   2   8   67.53   14.11
   1   2   8   68.75    6.38
   1   2   8   66.33    4.75
   1   2   8   62.73    6.29
  -2  -2  -8  889.67   33.85
  -2  -2  -8  861.29   33.83
  -2  -2  -8  871.22   34.28
  -2  -2  -8  936.48   35.08
  -2  -2  -8  877.70   34.91
   2   2   8  864.37   58.10
   2   2   8  943.23   35.16
   2   2   8  911.23   31.66
   2   2   8  907.70   33.94
   2   2   8  906.53   34.38
  -3  -2  -8  240.50   15.59
  -3  -2  -8  228.56   14.54
  -3  -2  -8  256.02   14.93
  -3  -2  -8  240.56   14.02
  -3  -2  -8  230.33   13.74
   3   2   8  231.86   13.92
   4  -3  -8   14.75    8.80
   4  -3  -8   18.21   18.82
  -4   3   8   31.90    6.74
  -4   3   8   24.27    5.66
  -4   3   8   26.75    6.32
  -4   3   8   28.03    5.42
  -4   3   8   21.27    5.23
  -4   3   8   29.27    5.57
  -4   3   8   21.27    5.24
   3  -3  -8  137.11   16.81
   3  -3  -8  177.71   10.67
  -3   3   8  186.51    9.11
  -3   3   8  195.84   11.58
  -3   3   8  175.23   12.58
  -3   3   8  194.67    9.46
  -3   3   8  184.87   11.33
  -3   3   8  197.74   10.70
   2  -3  -8  308.17   14.84
   2  -3  -8  249.93   40.32
   2  -3  -8  305.88   21.92
   2  -3  -8  296.04   12.25
  -2   3   8  285.63   10.50
  -2   3   8  287.68   12.29
  -2   3   8  283.83   10.21
  -2   3   8  294.22   14.62
  -2   3   8  304.63   14.51
   1  -3  -8  144.13    6.06
   1  -3  -8  156.69    6.92
   1  -3  -8  160.04    9.93
   1  -3  -8  136.14   13.33
   1  -3  -8  163.00    8.67
   1  -3  -8  137.02    6.24
  -1   3   8  138.63    6.76
  -1   3   8  143.55    6.24
  -1   3   8  154.11    9.42
  -1   3   8  154.92    8.09
  -1   3   8  149.10    9.03
  -1   3   8  149.15    9.29
   0  -3  -8   18.86    2.89
   0  -3  -8   17.13    4.02
   0  -3  -8   18.93    3.26
   0  -3  -8   24.22    6.80
   0  -3  -8   24.03    3.92
   0  -3  -8   18.24    2.78
   0  -3  -8   15.03   10.32
   0   3   8   19.64    3.54
   0   3   8   17.28    3.53
   0   3   8   23.27    3.16
   0   3   8   14.88    3.26
  -1  -3  -8   52.14    5.46
  -1  -3  -8   28.98    4.85
  -1  -3  -8   43.89    5.30
  -1  -3  -8   42.43    6.15
  -1  -3  -8   56.94    4.54
  -1  -3  -8   37.65   14.41
  -1  -3  -8   54.96    6.17
   1   3   8   53.34    6.23
   1   3   8   53.54    5.75
   1   3   8   33.76   12.34
   1   3   8   54.40    6.56
  -2  -3  -8  540.93   24.00
  -2  -3  -8  534.62   22.87
  -2  -3  -8  515.28   23.38
  -2  -3  -8  546.26   23.09
  -2  -3  -8  566.86   24.32
   2   3   8  557.76   23.90
   2   3   8  540.00   22.86
   2   3   8  499.64   23.27
  -3  -3  -8   35.44    5.83
  -3  -3  -8   43.44    6.82
  -3  -3  -8   45.47    7.27
  -3  -3  -8   34.10    6.55
  -3  -3  -8   31.75    6.09
   3   3   8   32.17    5.71
   4  -4  -8   -0.08   11.78
   4  -4  -8    7.41    6.90
  -4   4   8   17.96    4.58
  -4   4   8   13.32    4.59
  -4   4   8    6.54    4.05
  -4   4   8   11.28    3.87
  -4   4   8   12.97    4.34
  -4   4   8   12.78    4.93
   3  -4  -8   82.81    6.98
   3  -4  -8  101.46   35.76
   3  -4  -8   96.55   16.03
  -3   4   8   65.26    8.61
  -3   4   8   74.14    5.76
  -3   4   8   84.33    7.76
  -3   4   8   81.83    7.16
   2  -4  -8   84.38   11.40
   2  -4  -8   95.02   30.82
   2  -4  -8   91.97    7.64
  -2   4   8   92.22    7.61
  -2   4   8   82.27    7.65
  -2   4   8   91.16    7.21
  -2   4   8   95.07    6.27
   1  -4  -8  113.84   25.94
   1  -4  -8  120.40    7.81
   1  -4  -8  123.05    5.05
   1  -4  -8  127.36   12.95
   1  -4  -8  128.49    9.28
   1  -4  -8  133.41    6.84
   1  -4  -8  128.68    5.25
  -1   4   8  118.08    8.68
  -1   4   8  128.21    7.70
  -1   4   8  127.05    8.37
  -1   4   8  138.19    8.95
   0  -4  -8   27.69    4.01
   0  -4  -8   47.11   18.54
   0  -4  -8   28.05    3.45
   0  -4  -8   19.99    3.53
   0  -4  -8   32.76    3.93
   0  -4  -8   28.88    7.56
   0   4   8   20.96    3.84
   0   4   8   30.83    4.37
   0   4   8   28.14    4.83
   0   4   8   28.70    2.44
   0   4   8   23.32    3.86
  -1  -4  -8    2.72    1.93
  -1  -4  -8    2.45    2.03
  -1  -4  -8    1.04    2.10
  -1  -4  -8    0.73    5.53
  -1  -4  -8    2.61    2.02
  -1  -4  -8   -0.81    2.81
  -1  -4  -8    1.40    1.29
  -1  -4  -8    3.26    2.60
   1   4   8    2.43    2.12
   1   4   8   -0.77    1.73
   1   4   8    2.08    1.83
  -2  -4  -8    3.67    2.19
  -2  -4  -8   -1.36    1.70
  -2  -4  -8   -1.61    4.80
  -2  -4  -8   -1.47    1.76
  -2  -4  -8    5.36    2.90
  -2  -4  -8   -1.24    2.30
   2   4   8    0.69    2.09
   2   4   8    1.70    2.10
  -3  -4  -8    2.71    2.72
  -3  -4  -8    0.08    2.16
  -3  -4  -8    3.32    3.31
  -3  -4  -8   -0.56    3.19
  -3  -4  -8    1.36    2.86
   3   4   8    0.37    2.38
   4  -5  -8  144.38   19.47
  -4   5   8  197.87   13.49
  -4   5   8  194.79   14.35
  -4   5   8  178.77   12.83
  -4   5   8  178.86   14.50
  -4   5   8  189.54   13.73
   3  -5  -8   44.75   11.13
   3  -5  -8   64.90    7.28
  -3   5   8   48.21    5.64
  -3   5   8   55.82    7.69
  -3   5   8   44.83    7.15
  -3   5   8   54.95    5.99
  -3   5   8   50.60    6.67
  -3   5   8   47.71    7.64
   2  -5  -8   73.97    7.04
   2  -5  -8   72.95   10.58
   2  -5  -8   62.34   25.04
  -2   5   8   57.81    7.74
  -2   5   8   70.91    7.40
  -2   5   8   66.57    7.82
  -2   5   8   77.47    5.98
   1  -5  -8    6.27    4.02
   1  -5  -8    1.12    6.89
   1  -5  -8   12.99    2.51
   1  -5  -8   15.63    4.23
   1  -5  -8   17.48    3.42
  -1   5   8    9.54    2.82
  -1   5   8   10.95    3.45
  -1   5   8    9.00    3.00
  -1   5   8    9.45    2.68
   0  -5  -8    6.81    2.08
   0  -5  -8    7.20    2.53
   0  -5  -8    9.02    4.49
   0  -5  -8    5.97    2.39
   0  -5  -8    8.82   10.13
   0  -5  -8    0.69    1.51
   0  -5  -8    7.64    2.01
   0   5   8    6.37    2.49
   0   5   8   10.06    2.73
   0   5   8    3.80    2.20
   0   5   8    7.16    2.59
  -1  -5  -8   93.89   12.99
  -1  -5  -8   96.15    7.34
  -1  -5  -8   95.91    5.92
  -1  -5  -8   85.81    8.42
  -1  -5  -8   90.07    7.60
  -1  -5  -8   91.97    7.14
  -1  -5  -8   84.82    7.17
   1   5   8   95.92    8.08
   1   5   8   86.62    7.61
   1   5   8   98.65    7.66
  -2  -5  -8   80.26    8.57
  -2  -5  -8   72.16    8.18
  -2  -5  -8   94.07    6.91
  -2  -5  -8  103.84   11.26
  -2  -5  -8   81.82    9.44
  -2  -5  -8   75.16   20.83
  -2  -5  -8   85.68    9.42
   2   5   8   98.74    8.45
   2   5   8   92.32    7.71
  -3  -5  -8  250.52   15.83
  -3  -5  -8  212.73   14.75
  -3  -5  -8  262.46   16.94
  -3  -5  -8  263.71   14.87
  -3  -5  -8  242.36   15.81
   3   5   8  225.67   14.15
   4  -6  -8   -1.96   12.04
  -4   6   8    7.12    4.67
  -4   6   8    8.32    3.73
  -4   6   8    5.49    4.03
   3  -6  -8    5.26    5.08
   3  -6  -8    7.45   14.29
   3  -6  -8    4.56    2.69
  -3   6   8    1.16    1.99
  -3   6   8   -0.02    2.63
  -3   6   8    0.43    1.79
  -3   6   8    2.62    2.79
  -3   6   8    2.48    2.82
   2  -6  -8    4.04    3.75
   2  -6  -8    4.39    2.64
   2  -6  -8   -3.04    8.16
  -2   6   8    3.19    1.98
  -2   6   8    3.15    2.43
  -2   6   8    1.65    1.95
  -2   6   8    0.81    0.99
  -2   6   8    0.73    2.20
   1  -6  -8    3.71    2.72
   1  -6  -8    0.60    3.03
   1  -6  -8    3.63    1.91
   1  -6  -8   -1.18    6.68
   1  -6  -8    0.32    1.26
  -1   6   8    1.67    2.17
  -1   6   8    4.90    2.48
  -1   6   8    1.53    1.78
  -1   6   8   -0.76    1.41
   0  -6  -8   13.96    3.36
   0  -6  -8    9.41    4.96
   0  -6  -8   15.11   12.62
   0  -6  -8   11.55    3.66
   0  -6  -8   14.01    2.56
   0  -6  -8   20.27    3.95
   0  -6  -8   12.12    2.98
   0   6   8   16.71    3.87
   0   6   8    9.84    3.03
   0   6   8   17.29    3.44
   0   6   8   18.87    4.20
  -1  -6  -8    1.37    2.18
  -1  -6  -8    0.69    1.82
  -1  -6  -8    1.42    7.12
  -1  -6  -8    0.03    3.07
  -1  -6  -8   -0.10    1.50
  -1  -6  -8    0.60    2.04
  -1  -6  -8    4.50    3.08
   1   6   8    0.01    2.06
   1   6   8    0.41    2.02
   1   6   8    2.07    2.14
  -2  -6  -8  109.67    8.10
  -2  -6  -8  120.06   10.80
  -2  -6  -8  113.65    9.48
  -2  -6  -8  110.39    8.84
  -2  -6  -8   74.66   22.23
  -2  -6  -8  121.66    9.95
  -2  -6  -8  105.96    9.45
   2   6   8  114.02    8.91
   2   6   8  120.70    9.59
  -3  -6  -8   55.64    7.88
  -3  -6  -8   55.22    8.89
  -3  -6  -8   57.49    8.45
  -3  -6  -8   58.69    9.17
  -3  -6  -8   48.47    8.41
   3   6   8   77.37    9.03
   4  -7  -8   26.26   23.71
   3  -7  -8   16.54    7.25
   3  -7  -8   14.91    4.16
   3  -7  -8   11.44   15.03
  -3   7   8   16.82    3.82
  -3   7   8    9.57    4.11
  -3   7   8   11.24    3.39
  -3   7   8   13.51    4.59
  -3   7   8   10.16    4.00
   2  -7  -8   83.50    8.07
   2  -7  -8   73.01   12.41
   2  -7  -8   37.40   23.27
  -2   7   8  104.04   10.61
  -2   7   8   65.81    8.59
  -2   7   8   86.64    8.28
  -2   7   8   80.95    6.93
  -2   7   8   77.51    6.91
   1  -7  -8   44.72   21.69
   1  -7  -8   75.23    9.02
   1  -7  -8   73.74    5.99
   1  -7  -8   64.87    5.73
   1  -7  -8   59.41   10.91
  -1   7   8   64.82    7.85
  -1   7   8   65.17    7.61
  -1   7   8   68.25    7.30
  -1   7   8   69.45    7.46
   0  -7  -8    7.76    5.00
   0  -7  -8    5.77    1.84
   0  -7  -8    3.05    2.50
   0  -7  -8    0.24    7.74
   0  -7  -8    6.75    2.47
   0  -7  -8    5.82    1.96
   0  -7  -8    9.28    2.95
   0   7   8    5.03    2.53
   0   7   8    6.83    2.60
   0   7   8    5.15    2.82
   0   7   8    6.34    2.74
  -1  -7  -8  137.66   11.46
  -1  -7  -8  115.17   27.18
  -1  -7  -8  133.11    9.51
  -1  -7  -8  144.61    9.91
  -1  -7  -8  136.56   16.26
  -1  -7  -8  133.24    9.79
  -1  -7  -8  158.88    9.78
   1   7   8  129.27   10.18
   1   7   8  124.51    9.92
   1   7   8  139.90   10.45
   1   7   8  130.57    7.71
   1   7   8  136.52    9.56
  -2  -7  -8   52.61    7.23
  -2  -7  -8   48.57    7.46
  -2  -7  -8   41.21    6.12
  -2  -7  -8   53.91    9.01
  -2  -7  -8   47.10    7.20
  -2  -7  -8   42.26    6.55
  -2  -7  -8   25.32   15.85
  -2  -7  -8   48.56    7.10
   2   7   8   41.34    6.08
   2   7   8   46.12    7.01
  -3  -7  -8  114.04   13.09
  -3  -7  -8  114.84   13.12
  -3  -7  -8   85.82   10.89
  -3  -7  -8   93.88   11.29
  -3  -7  -8  121.01   12.70
  -3  -7  -8  119.90   11.77
   3   7   8   99.52   10.30
   3  -8  -8   23.76   20.83
   3  -8  -8   41.61    6.77
  -3   8   8   34.51    7.02
  -3   8   8   29.07    6.41
  -3   8   8   37.51    7.13
  -3   8   8   39.61    5.85
  -3   8   8   32.64    5.45
   2  -8  -8   56.39    7.99
   2  -8  -8   53.83   26.84
   2  -8  -8   49.45   10.34
  -2   8   8   61.67    7.32
  -2   8   8   54.05    7.61
  -2   8   8   64.38    8.81
  -2   8   8   61.73    8.64
  -2   8   8   61.79    7.02
   1  -8  -8   38.06    5.23
   1  -8  -8   17.66   15.00
   1  -8  -8   37.78    6.88
   1  -8  -8   30.44    8.12
   1  -8  -8   34.71    4.86
  -1   8   8   33.25    5.72
  -1   8   8   23.87    4.81
  -1   8   8   28.44    5.20
  -1   8   8   24.12    4.80
  -1   8   8   26.07    5.35
   0  -8  -8   -0.59    7.46
   0  -8  -8    3.05    2.34
   0  -8  -8    2.16    3.89
   0  -8  -8    7.29    2.20
   0  -8  -8    7.26    2.05
   0  -8  -8    8.32    3.71
   0  -8  -8    3.34    2.41
   0   8   8    3.58    2.59
   0   8   8    1.89    2.04
   0   8   8    2.51    2.74
   0   8   8    4.75    2.84
   0   8   8    3.94    2.20
  -1  -8  -8   30.51   17.73
  -1  -8  -8   49.20    6.96
  -1  -8  -8   62.93    6.87
  -1  -8  -8   64.13    7.30
  -1  -8  -8   46.88   11.66
  -1  -8  -8   64.72    8.10
  -1  -8  -8   47.83    6.64
  -1  -8  -8   67.85    9.79
   1   8   8   59.45    7.79
   1   8   8   51.99    7.51
   1   8   8   73.05    8.10
   1   8   8   54.57    7.95
   1   8   8   57.39    5.81
  -2  -8  -8   43.69    6.72
  -2  -8  -8   41.98    7.11
  -2  -8  -8   55.26    7.96
  -2  -8  -8   66.71    9.11
  -2  -8  -8   50.59    8.92
  -2  -8  -8   47.75    6.84
  -2  -8  -8   39.59    6.39
   2   8   8   48.01    7.50
   2   8   8   40.77    6.38
   3  -9  -8    3.24   13.71
  -3   9   8    1.12    3.04
  -3   9   8   -2.74    2.15
  -3   9   8   -0.97    3.18
  -3   9   8   -0.79    2.70
   2  -9  -8   95.84   10.90
   2  -9  -8   78.44   11.17
   2  -9  -8   54.01   28.17
   2  -9  -8  101.61   10.96
  -2   9   8   83.61   10.41
  -2   9   8   53.62    7.86
  -2   9   8   72.08    8.05
  -2   9   8   75.88    9.79
  -2   9   8   69.21    8.28
   1  -9  -8   17.17    3.54
   1  -9  -8   12.13    5.73
   1  -9  -8    6.56   12.80
   1  -9  -8    8.45    3.13
   1  -9  -8   11.09    4.08
  -1   9   8   16.34    4.03
  -1   9   8   11.90    4.06
  -1   9   8    5.10    2.97
  -1   9   8    8.17    3.42
  -1   9   8    7.01    3.41
   0  -9  -8   10.01    4.30
   0  -9  -8   10.09    2.42
   0  -9  -8    9.63    6.03
   0  -9  -8    5.54   11.56
   0  -9  -8    5.49    2.68
   0  -9  -8    7.74    2.36
   0  -9  -8   12.48    3.61
   0   9   8    5.58    2.51
   0   9   8    8.60    3.68
   0   9   8   13.22    4.34
   0   9   8    4.27    2.84
   0   9   8    4.87    2.51
  -1  -9  -8  106.76    9.33
  -1  -9  -8  105.49    8.22
  -1  -9  -8  136.71   10.34
  -1  -9  -8  121.93    9.08
  -1  -9  -8   68.48   26.41
  -1  -9  -8  119.10   16.14
  -1  -9  -8   98.79   12.17
   1   9   8  131.75   10.55
   1   9   8  121.64   10.44
   1   9   8  107.36   11.55
  -2  -9  -8   15.31    4.74
  -2  -9  -8   15.56    4.71
  -2  -9  -8   23.95    5.62
  -2  -9  -8   11.64    5.12
  -2  -9  -8   15.78    4.91
  -2  -9  -8   12.68    3.97
  -2  -9  -8   27.36    6.06
   2   9   8    9.15    3.68
   2   9   8   16.63    4.95
  -3  10   8  274.83   18.20
  -3  10   8  268.38   15.85
  -3  10   8  262.92   18.09
  -3  10   8  252.14   17.76
   2 -10  -8   22.56    5.74
   2 -10  -8   28.59    6.06
  -2  10   8   38.89    6.03
  -2  10   8   34.43    6.15
  -2  10   8   29.44    6.44
  -2  10   8   18.63    5.23
  -2  10   8   28.88    6.74
   1 -10  -8   53.73   11.20
   1 -10  -8   41.77    7.00
   1 -10  -8   53.57   28.28
   1 -10  -8   51.15    8.50
   1 -10  -8   54.14    7.06
   1 -10  -8   51.63    6.16
  -1  10   8   59.69    7.96
  -1  10   8   44.04    7.00
  -1  10   8   50.17    8.28
  -1  10   8   55.04    7.50
  -1  10   8   43.32    6.59
   0 -10  -8    1.82    2.41
   0 -10  -8   -2.03    8.09
   0 -10  -8    0.58    3.68
   0 -10  -8    2.48    2.30
   0 -10  -8    7.84    4.42
   0  10   8    0.57    2.21
   0  10   8    2.00    2.97
   0  10   8    0.80    2.29
   0  10   8    2.29    2.19
   0  10   8    8.72    3.69
  -1 -10  -8  100.10    8.63
  -1 -10  -8  117.08   10.05
  -1 -10  -8  102.41   17.93
  -1 -10  -8  117.86    9.95
  -1 -10  -8  101.46    8.28
  -1 -10  -8   91.22   11.89
   1  10   8  123.48   10.80
   1  10   8  117.76   10.42
  -2 -10  -8   -3.72    3.20
  -2 -10  -8    8.11    3.87
  -2 -10  -8   -2.53    2.55
  -2 -10  -8   -1.12    2.87
  -2 -10  -8    0.08    2.79
  -2 -10  -8    0.17    2.99
   2  10   8   -2.70    2.58
   2  10   8    0.29    2.60
   2 -11  -8    8.96    4.28
   2 -11  -8   16.68    5.46
   2 -11  -8   -1.76   11.00
  -2  11   8   18.14    5.53
  -2  11   8   20.85    5.27
  -2  11   8   16.58    5.06
  -2  11   8   18.15    4.44
  -2  11   8   17.65    5.52
   1 -11  -8    3.40    3.18
   1 -11  -8   -1.38    2.20
   1 -11  -8   -1.25   10.98
   1 -11  -8    1.00    3.01
  -1  11   8    1.30    2.87
  -1  11   8    0.50    2.60
  -1  11   8   -2.44    2.06
  -1  11   8    1.68    2.37
  -1  11   8   -1.18    2.33
   0 -11  -8   39.89    6.05
   0 -11  -8   26.88    9.25
   0 -11  -8   10.48   14.56
   0 -11  -8   26.24    5.51
   0 -11  -8   28.00    7.13
   0  11   8   32.13    6.82
   0  11   8   36.41    5.81
   0  11   8   27.88    5.80
   0  11   8   43.54    7.45
  -1 -11  -8    1.15    4.63
  -1 -11  -8    4.95    3.27
  -1 -11  -8    1.62    4.08
  -1 -11  -8    2.07   11.18
  -1 -11  -8    6.39    3.70
   1  11   8   -1.38    2.42
   1  11   8    4.56    3.57
   1 -12  -8   35.04    7.65
   1 -12  -8   42.83    7.16
   1 -12  -8   37.34    7.75
  -1  12   8   40.26    7.33
  -1  12   8   39.19    8.14
  -1  12   8   32.25    6.28
  -1  12   8   43.65    7.07
  -1  12   8   36.81    6.54
   0 -12  -8    5.06    4.59
   0 -12  -8   -0.49    4.39
   0 -12  -8    0.83    2.69
   0 -12  -8   -1.63   10.68
   0 -12  -8    0.77    3.60
   0  12   8   -0.45    2.79
   0  12   8   -1.15    2.34
   0  12   8   -0.14    2.69
   0 -15   9   26.67   23.08
   1  14  -9   54.22    8.42
   1  14  -9   75.79    8.61
  -1 -14   9   70.81    9.77
  -1 -14   9   28.03   21.90
  -1 -14   9   49.57    7.26
  -1 -14   9   73.13    9.44
  -1 -14   9   51.01    8.20
   0  14  -9    1.65    2.72
   0  14  -9   -1.56    2.42
   0  14  -9    0.41    2.88
   0 -14   9   -0.51    2.54
   0 -14   9    1.41    3.21
   0 -14   9   -0.99    2.78
   0 -14   9    1.35   12.27
  -1  14  -9   36.55    7.66
  -1  14  -9   39.96    7.27
  -1  14  -9   32.51    6.47
   1 -14   9   37.58    6.44
   1 -14   9   29.38    5.87
   1 -14   9   35.55    6.20
   1 -14   9   26.52   21.65
   1 -14   9   28.82    6.63
  -2 -13   9   10.50    3.88
  -2 -13   9    4.56   13.15
  -2 -13   9   12.18    4.01
  -2 -13   9   15.93    4.75
  -2 -13   9    6.24    4.18
  -2 -13   9    4.25    3.42
   1  13  -9    5.79    2.95
   1  13  -9    6.55    3.67
   1  13  -9    7.34    3.31
  -1 -13   9    8.83    3.49
  -1 -13   9    5.50    3.52
  -1 -13   9    8.46    3.94
  -1 -13   9    7.66    3.71
  -1 -13   9    5.60    3.07
  -1 -13   9    2.47   11.40
  -1 -13   9    7.20    3.04
   0  13  -9    9.93    4.08
   0  13  -9   16.19    4.48
   0  13  -9   13.35    3.93
   0 -13   9   15.91   16.10
   0 -13   9   11.89    4.10
   0 -13   9    9.33    3.66
   0 -13   9    6.10    3.76
  -1  13  -9   -0.08    2.36
  -1  13  -9   -2.05    2.51
  -1  13  -9   -0.21    2.93
  -1  13  -9    0.12    2.70
   1 -13   9    0.15    2.49
   1 -13   9   -0.16    2.36
   1 -13   9    0.00    2.75
   1 -13   9    0.36    2.27
   1 -13   9    6.07   12.82
  -2  13  -9    3.69    3.48
  -2  13  -9    1.12    3.08
  -2  13  -9    0.79    3.16
  -2  13  -9    2.16    3.61
   2 -13   9    0.59   10.27
   2 -13   9    4.73    3.78
   2 -13   9    2.49    3.14
   2  12  -9    4.06    2.69
  -2 -12   9    6.74    3.30
  -2 -12   9    4.78    3.69
  -2 -12   9    8.05    3.85
  -2 -12   9    5.21    3.27
  -2 -12   9    6.85    3.54
   1  12  -9    0.94    1.77
   1  12  -9   -0.01    2.67
   1  12  -9    2.97    2.34
   1  12  -9    0.45    4.05
  -1 -12   9    2.01    2.97
  -1 -12   9    3.62    2.59
  -1 -12   9    1.85    2.22
  -1 -12   9    2.98    2.29
  -1 -12   9    2.38    2.75
  -1 -12   9    3.49   10.77
   0  12  -9   66.23    8.71
   0  12  -9   65.74    7.36
   0  12  -9   60.05    7.43
   0 -12   9   58.27    7.35
   0 -12   9   52.35    7.65
   0 -12   9   33.76   20.65
   0 -12   9   67.54    8.16
   0 -12   9   56.82    6.64
   0 -12   9   51.86    6.17
  -1  12  -9    3.10    2.64
  -1  12  -9    2.45    2.83
  -1  12  -9   -0.37    2.30
  -1  12  -9   -0.60    2.90
   1 -12   9    0.29    2.30
   1 -12   9    0.45    2.07
   1 -12   9    3.88    3.43
   1 -12   9   -1.74    9.19
   1 -12   9    4.05    2.55
  -2  12  -9   88.02   11.41
  -2  12  -9   94.24   11.09
  -2  12  -9   99.37   10.84
   2 -12   9   92.12   11.37
   2 -12   9   51.68   25.73
   2 -12   9   83.28    9.90
  -3 -11   9    5.95    4.03
  -3 -11   9   15.12    4.95
  -3 -11   9    5.75    3.58
   2  11  -9   -3.24    4.19
   2  11  -9    2.35    2.40
  -2 -11   9   -0.08    2.23
  -2 -11   9   -0.74    2.19
  -2 -11   9    4.09    2.56
  -2 -11   9   -0.85    2.57
   1  11  -9   15.22    3.47
   1  11  -9   11.62    2.95
   1  11  -9   10.46    6.29
   1  11  -9   12.47    3.91
  -1 -11   9   13.94    4.19
  -1 -11   9   12.83    3.70
  -1 -11   9   13.53    4.19
  -1 -11   9    9.30    3.90
  -1 -11   9   13.80    3.62
   0  11  -9   20.16    5.10
   0  11  -9   20.10    4.32
   0  11  -9   21.50    4.39
   0  11  -9   22.98    6.95
   0 -11   9   23.60    4.10
   0 -11   9   36.29   21.67
   0 -11   9   22.77    4.55
   0 -11   9   21.36    5.38
   0 -11   9   16.65    4.30
   0 -11   9   15.94    3.45
  -1  11  -9    9.68    3.86
  -1  11  -9   12.85    4.28
  -1  11  -9   12.68    3.92
  -1  11  -9   11.22    3.83
   1 -11   9    8.88   12.11
   1 -11   9   13.08    3.72
   1 -11   9   10.55    3.12
   1 -11   9   11.65    4.27
   1 -11   9   12.76    3.55
  -2  11  -9    8.62    3.78
  -2  11  -9    4.99    2.89
  -2  11  -9    7.68    4.05
  -2  11  -9    1.22    3.03
   2 -11   9    7.89    3.70
   2 -11   9    1.52    2.84
   2 -11   9    1.84   10.50
   3  10  -9   41.60   14.27
  -3 -10   9   66.62    9.25
  -3 -10   9   70.48    9.44
  -3 -10   9   72.22    9.99
  -3 -10   9   50.51    7.19
   2  10  -9   45.73    6.25
   2  10  -9   38.68   11.64
  -2 -10   9   40.06    7.08
  -2 -10   9   31.08    5.31
  -2 -10   9   32.95    5.97
  -2 -10   9   40.88    5.53
   1  10  -9   23.35    3.91
   1  10  -9   27.39    4.00
   1  10  -9   35.04    9.67
   1  10  -9   26.48    5.17
  -1 -10   9   30.97    4.73
  -1 -10   9   23.14    4.55
  -1 -10   9   31.44    5.70
  -1 -10   9   31.39    5.47
  -1 -10   9   26.22    5.05
   0  10  -9  447.01   26.93
   0  10  -9  506.81   21.41
   0  10  -9  558.77   21.58
   0  10  -9  485.01   22.82
   0 -10   9  501.04   20.48
   0 -10   9  492.60   20.30
   0 -10   9  497.82   22.20
   0 -10   9  510.79   23.61
   0 -10   9  497.09   21.31
  -1  10  -9   82.78    9.32
  -1  10  -9   77.98    9.26
  -1  10  -9   74.47    8.10
  -1  10  -9   84.69    8.74
   1 -10   9   74.10    6.17
   1 -10   9   71.73   26.32
   1 -10   9   72.24    8.90
   1 -10   9   81.26    8.63
   1 -10   9   90.32    8.94
  -2  10  -9    2.68    2.94
  -2  10  -9   -0.41    2.38
  -2  10  -9    0.19    2.20
  -2  10  -9   -0.71    2.34
   2 -10   9   -0.47    2.38
   2 -10   9   -1.25    2.22
   2 -10   9    1.34    7.95
  -3  10  -9   19.25    5.48
  -3  10  -9   23.29    5.60
  -3  10  -9   11.40    4.33
  -3  10  -9   24.19    6.30
   3 -10   9   15.54    5.04
   3 -10   9   16.17    5.54
   3   9  -9   43.68   14.02
  -3  -9   9   40.59    6.82
  -3  -9   9   41.55    5.94
  -3  -9   9   36.10    6.40
   2   9  -9   50.66   13.31
  -2  -9   9   69.59    7.46
  -2  -9   9   43.43    6.40
  -2  -9   9   50.07    7.17
  -2  -9   9   66.22    6.55
  -2  -9   9   60.27    7.72
   1   9  -9   51.99   10.92
   1   9  -9   45.51    6.43
   1   9  -9   46.47    5.05
   1   9  -9   46.67    4.79
  -1  -9   9   47.03    6.45
  -1  -9   9   34.61    5.71
  -1  -9   9   51.69    6.71
  -1  -9   9   47.73    3.70
  -1  -9   9   47.47    6.03
  -1  -9   9   51.07    5.64
   0   9  -9  141.13   10.37
   0   9  -9  145.19    8.94
   0   9  -9  143.60   10.34
   0   9  -9  131.76   13.26
   0   9  -9  155.00    9.30
   0  -9   9  149.84    9.89
   0  -9   9  134.25    8.35
   0  -9   9  144.74    8.53
   0  -9   9  136.28    8.88
   0  -9   9  159.67   11.00
  -1   9  -9    2.74    2.55
  -1   9  -9    1.52    2.17
  -1   9  -9    5.96    2.88
  -1   9  -9   10.26    4.32
  -1   9  -9    8.73    3.57
   1  -9   9    6.12    2.23
   1  -9   9    2.42    2.01
   1  -9   9    4.20    1.47
   1  -9   9    1.52    2.20
   1  -9   9   14.92   13.40
   1  -9   9    6.69    3.08
  -2   9  -9   49.85    7.45
  -2   9  -9   56.54    7.80
  -2   9  -9   60.03    7.83
  -2   9  -9   65.51    8.19
   2  -9   9   67.83    8.32
   2  -9   9   60.76   22.67
   2  -9   9   60.37    8.53
  -3   9  -9   17.22    5.43
  -3   9  -9   17.46    4.96
  -3   9  -9   20.10    4.87
  -3   9  -9   26.68    6.29
   3  -9   9   24.94    5.86
   3  -9   9   25.30    5.80
   3   8  -9  108.62   20.92
  -3  -8   9  146.52    9.28
  -3  -8   9  164.89   12.28
  -3  -8   9  127.76   10.56
  -3  -8   9  152.11   11.69
   2   8  -9  197.06    9.40
   2   8  -9  174.69   20.30
  -2  -8   9  220.76   12.74
  -2  -8   9  203.43   10.47
  -2  -8   9  215.00   11.82
  -2  -8   9  216.64   13.07
  -2  -8   9  226.32   13.21
   1   8  -9  118.50   14.18
   1   8  -9  117.53    8.70
   1   8  -9  112.09    6.57
   1   8  -9  127.43    6.98
   1   8  -9  122.28    6.91
  -1  -8   9  108.21    8.22
  -1  -8   9  111.35    8.78
  -1  -8   9  127.83    7.41
  -1  -8   9  119.33    5.99
  -1  -8   9  119.71    8.53
  -1  -8   9  119.08    8.59
   0   8  -9 1580.96   51.93
   0   8  -9 1497.98   61.27
   0   8  -9 1562.86   52.00
   0   8  -9 1560.76   54.13
   0   8  -9 1511.38   54.50
   0  -8   9 1541.48   51.40
   0  -8   9 1503.47   51.49
   0  -8   9 1534.23   51.87
   0  -8   9 1434.37   52.75
   0  -8   9 1537.61   54.54
  -1   8  -9 1333.24   46.65
  -1   8  -9 1267.50   47.82
  -1   8  -9 1307.18   46.38
  -1   8  -9 1268.80   51.55
  -1   8  -9 1307.43   48.08
   1  -8   9 1335.36   46.70
   1  -8   9 1305.99   46.27
   1  -8   9 1342.66   43.70
   1  -8   9 1281.54   42.72
   1  -8   9 1245.69   87.62
   1  -8   9 1312.50   48.34
  -2   8  -9   78.99    9.42
  -2   8  -9   86.48    6.07
  -2   8  -9   76.63    9.03
  -2   8  -9  102.72    8.44
  -2   8  -9   93.45   10.06
  -2   8  -9   94.76    8.35
   2  -8   9   71.55   22.94
   2  -8   9   89.36    9.51
   2  -8   9   80.39    9.03
  -3   8  -9   46.74    7.60
  -3   8  -9   45.77    7.76
  -3   8  -9   29.43    5.80
  -3   8  -9   43.98    7.46
   3  -8   9   42.36    6.88
   3  -8   9   42.22    7.49
   4   7  -9   10.67    9.94
  -4  -7   9    6.39    3.71
  -4  -7   9   11.85    4.55
  -4  -7   9   10.61    4.22
  -4  -7   9    4.85    3.87
   3   7  -9   35.03   11.93
  -3  -7   9   42.31    5.44
  -3  -7   9   38.34    6.85
  -3  -7   9   36.45    6.29
  -3  -7   9   37.62    6.04
   2   7  -9   43.33    2.86
   2   7  -9   42.87   11.57
  -2  -7   9   41.05    4.51
  -2  -7   9   42.17    5.59
  -2  -7   9   34.45    5.90
  -2  -7   9   38.68    5.80
  -2  -7   9   27.51    4.84
   1   7  -9  274.60   11.51
   1   7  -9  296.31   14.46
   1   7  -9  283.43   11.16
   1   7  -9  277.05   11.62
   1   7  -9  277.99   12.71
   1   7  -9  297.13   22.25
  -1  -7   9  286.13   11.15
  -1  -7   9  285.95   14.56
  -1  -7   9  277.19   14.01
  -1  -7   9  275.04   14.08
  -1  -7   9  286.37   12.00
  -1  -7   9  281.31   13.89
   0   7  -9  507.31   21.97
   0   7  -9  513.04   20.10
   0   7  -9  483.53   27.41
   0   7  -9  523.96   20.14
   0  -7   9  493.74   21.04
   0  -7   9  508.52   19.84
   0  -7   9  522.09   20.15
   0  -7   9  516.45   20.18
   0  -7   9  498.72   22.37
  -1   7  -9  146.88   10.24
  -1   7  -9  132.49    9.04
  -1   7  -9  148.10    9.33
  -1   7  -9  142.72   12.68
  -1   7  -9  150.46    7.31
  -1   7  -9  145.19   10.13
   1  -7   9  140.26    7.22
   1  -7   9  150.26    9.51
   1  -7   9  148.55    9.34
   1  -7   9  133.79   10.07
   1  -7   9  132.25    7.21
  -2   7  -9  220.29   16.28
  -2   7  -9  208.61   10.57
  -2   7  -9  219.89   13.52
  -2   7  -9  209.57   13.04
  -2   7  -9  222.07   13.02
  -2   7  -9  216.61   12.70
   2  -7   9  152.56   25.53
   2  -7   9  213.31   12.73
   2  -7   9  206.26   13.07
  -3   7  -9    9.05    3.90
  -3   7  -9   17.73    4.83
  -3   7  -9   21.10    4.94
  -3   7  -9   18.85    5.08
   3  -7   9   13.75    4.30
   3  -7   9   10.75    3.85
   4   6  -9    7.70    7.98
  -4  -6   9   12.01    4.60
  -4  -6   9    3.53    3.30
  -4  -6   9    3.69    3.17
   3   6  -9  134.04   19.48
  -3  -6   9  128.29   10.63
  -3  -6   9  139.57   10.14
  -3  -6   9  148.04    8.53
  -3  -6   9  150.24   11.09
   2   6  -9   -1.45    3.26
  -2  -6   9    1.67    1.86
  -2  -6   9    0.68    1.42
  -2  -6   9    1.95    1.86
  -2  -6   9    0.82    1.22
  -2  -6   9   -0.94    1.42
   1   6  -9   20.02    2.58
   1   6  -9   19.50    3.25
   1   6  -9   19.33    6.66
   1   6  -9   19.00    2.51
   1   6  -9   22.38    4.18
  -1  -6   9   21.26    3.73
  -1  -6   9   22.21    4.33
  -1  -6   9   16.00    2.28
  -1  -6   9   15.14    3.29
  -1  -6   9   20.03    3.64
   0   6  -9   90.97    7.24
   0   6  -9   83.85    5.75
   0   6  -9   74.52    6.83
   0   6  -9   69.22    9.44
   0   6  -9   79.17    5.67
   0  -6   9   80.17    6.95
   0  -6   9   78.57    5.60
   0  -6   9   90.88    6.12
   0  -6   9   78.69    6.31
   0  -6   9   87.00    5.81
  -1   6  -9   56.52    6.74
  -1   6  -9   43.29    5.95
  -1   6  -9   58.08    6.23
  -1   6  -9   67.48    5.38
  -1   6  -9   70.40    9.12
  -1   6  -9   62.96    6.03
  -1   6  -9   62.97    6.77
   1  -6   9   68.92    4.64
   1  -6   9   50.96    3.77
   1  -6   9   70.09    7.03
   1  -6   9   64.49    7.75
   1  -6   9   62.21    6.67
  -2   6  -9   -2.32    1.49
  -2   6  -9    0.23    1.76
  -2   6  -9   -2.11    1.77
  -2   6  -9    0.03    2.09
  -2   6  -9   -0.18    3.00
  -2   6  -9   -0.25    1.70
   2  -6   9    0.96    1.12
   2  -6   9    2.55    2.31
   2  -6   9   -1.68    1.68
   2  -6   9   -0.16    4.83
  -3   6  -9   -0.28    2.46
  -3   6  -9    4.22    3.14
  -3   6  -9    0.48    2.29
  -3   6  -9    1.92    3.89
  -3   6  -9   -1.41    2.30
  -3   6  -9   -1.91    2.19
  -3   6  -9    3.37    2.34
   3  -6   9    0.34    2.27
   3  -6   9    4.24    2.95
   4   5  -9  114.59   23.26
  -4  -5   9  166.21   12.51
  -4  -5   9  151.53   12.64
  -4  -5   9  148.16   11.10
   3   5  -9    5.38    6.75
  -3  -5   9    9.40    2.45
  -3  -5   9   10.06    3.78
  -3  -5   9    6.76    3.21
  -3  -5   9   14.37    3.70
   2   5  -9   11.85    2.08
   2   5  -9    6.49    5.28
  -2  -5   9   12.47    3.13
  -2  -5   9    9.81    2.79
  -2  -5   9   17.26    4.08
  -2  -5   9   12.64    2.20
  -2  -5   9   13.56    3.53
   1   5  -9  178.23    7.46
   1   5  -9  172.28   16.28
   1   5  -9  176.44    7.17
   1   5  -9  131.80    6.78
   1   5  -9  164.19    9.75
   1   5  -9  153.03    8.48
  -1  -5   9  189.33   10.16
  -1  -5   9  169.87    7.46
  -1  -5   9  166.22    9.32
  -1  -5   9  163.70    9.37
  -1  -5   9  164.79    9.82
   0   5  -9   98.15    7.39
   0   5  -9   94.03    7.09
   0   5  -9   90.13   10.40
   0   5  -9   97.99    6.01
   0   5  -9   92.44    7.44
   0   5  -9   88.42    5.92
   0  -5   9   86.07    5.87
   0  -5   9   77.75    6.84
   0  -5   9   98.77    6.72
   0  -5   9   82.77    5.99
   0  -5   9   91.36    5.77
  -1   5  -9  115.72   11.59
  -1   5  -9  102.29    7.31
  -1   5  -9  108.56    7.79
  -1   5  -9  103.20    7.88
  -1   5  -9  112.40    7.15
   1  -5   9   96.54    7.84
   1  -5   9  108.05    5.34
   1  -5   9  104.40    7.36
   1  -5   9  111.63    7.78
   1  -5   9  102.73    6.22
  -2   5  -9    6.31    2.46
  -2   5  -9    6.15    2.88
  -2   5  -9    9.27    3.49
  -2   5  -9    4.45    3.78
  -2   5  -9    8.47    2.65
  -2   5  -9    4.19    2.46
   2  -5   9    5.57    6.50
   2  -5   9    2.94    2.29
   2  -5   9    8.58    2.22
   2  -5   9    8.49    3.14
  -3   5  -9  232.76   13.87
  -3   5  -9  227.71   14.11
  -3   5  -9  211.67   19.26
  -3   5  -9  230.79   12.66
  -3   5  -9  217.18   14.56
  -3   5  -9  256.72   15.25
   3  -5   9  241.57   13.80
   3  -5   9  206.60   13.77
   4   4  -9   -3.59    4.69
  -4  -4   9    0.16    2.76
  -4  -4   9    0.88    2.45
  -4  -4   9   -1.97    2.45
  -4  -4   9   -0.02    2.59
   3   4  -9  124.24   21.26
  -3  -4   9  132.46    9.89
  -3  -4   9  115.26    9.69
  -3  -4   9  128.17    7.37
  -3  -4   9  117.44    7.80
  -3  -4   9  121.67    8.74
  -3  -4   9  121.28    9.58
   2   4  -9   14.84    2.38
   2   4  -9   10.03    3.58
   2   4  -9    9.95    6.01
  -2  -4   9    6.99    2.26
  -2  -4   9    7.00    2.47
  -2  -4   9   10.87    1.42
  -2  -4   9    6.67    2.80
  -2  -4   9   12.26    1.90
  -2  -4   9   10.80    1.50
  -2  -4   9   13.65    2.99
  -2  -4   9   12.26    2.26
   1   4  -9   92.69   11.55
   1   4  -9   88.56    4.65
   1   4  -9   78.99    5.64
   1   4  -9   88.36    3.90
   1   4  -9   79.30    6.53
   1   4  -9   88.29    7.37
   1   4  -9   79.14    4.07
  -1  -4   9   89.09    6.69
  -1  -4   9   87.69    6.28
  -1  -4   9   82.39    4.77
  -1  -4   9   82.35    6.06
  -1  -4   9   71.69    5.56
   0   4  -9  145.80    6.83
   0   4  -9  165.29    8.15
   0   4  -9  146.35    9.02
   0   4  -9  149.09   13.80
   0   4  -9  150.44    9.55
   0   4  -9  144.61    9.11
   0  -4   9  145.50    8.30
   0  -4   9  159.47    7.86
   0  -4   9  156.30    8.68
   0  -4   9  157.47    8.12
  -1   4  -9    0.18    0.90
  -1   4  -9    0.99    1.48
  -1   4  -9   -0.47    2.17
  -1   4  -9    1.03    1.69
  -1   4  -9   -0.68    1.23
  -1   4  -9    0.48    1.38
   1  -4   9    2.43    2.01
   1  -4   9    0.09    0.79
   1  -4   9    0.75    1.23
   1  -4   9    2.24    1.69
  -2   4  -9   37.74    5.01
  -2   4  -9   34.61    5.69
  -2   4  -9   41.07    5.11
  -2   4  -9   35.08    8.32
  -2   4  -9   29.79    4.88
  -2   4  -9   28.13    4.85
  -2   4  -9   32.65    5.10
   2  -4   9   41.69    4.42
   2  -4   9   40.52    5.86
   2  -4   9   27.10    9.51
   2  -4   9   27.65    4.67
  -3   4  -9    1.17    2.58
  -3   4  -9    1.06    2.70
  -3   4  -9    2.56    4.22
  -3   4  -9    0.58    2.30
  -3   4  -9    1.41    2.48
  -3   4  -9    0.54    2.12
   3  -4   9    1.66    2.34
   3  -4   9    2.74    2.82
  -4   4  -9   21.23    6.12
   4   3  -9    1.46    6.82
  -4  -3   9    0.41    2.26
  -4  -3   9    1.55    2.76
  -4  -3   9    0.78    2.73
  -4  -3   9   -2.06    2.02
   3   3  -9   16.02    8.64
  -3  -3   9   12.40    2.61
  -3  -3   9   11.88    2.55
  -3  -3   9   11.07    3.88
  -3  -3   9   13.44    4.02
  -3  -3   9    9.58    2.96
  -3  -3   9   15.10    4.33
   2   3  -9   27.34    3.46
   2   3  -9   29.72    5.21
  -2  -3   9   26.18    3.91
  -2  -3   9   26.43    3.58
  -2  -3   9   27.42    2.67
  -2  -3   9   20.68    4.08
  -2  -3   9   25.79    2.22
   1   3  -9    2.36    1.43
   1   3  -9    0.62    0.71
   1   3  -9    0.02    2.59
   1   3  -9    2.28    1.06
   1   3  -9    0.85    1.45
   1   3  -9    1.83    1.84
  -1  -3   9    0.93    1.54
  -1  -3   9    2.30    1.72
  -1  -3   9    2.14    1.53
  -1  -3   9    3.13    1.30
  -1  -3   9    2.12    1.80
  -1  -3   9    1.67    0.99
   0   3  -9    2.21    1.58
   0   3  -9    1.27    1.53
   0   3  -9   -1.23    1.27
   0   3  -9    1.44    2.69
   0   3  -9   -0.20    1.13
   0  -3   9    3.46    1.74
   0  -3   9    2.86    1.47
   0  -3   9    1.73    1.72
   0  -3   9    0.89    1.17
   0  -3   9    1.17    1.30
  -1   3  -9  237.89   11.90
  -1   3  -9  255.48   12.03
  -1   3  -9  235.45   17.76
  -1   3  -9  235.09   11.56
  -1   3  -9  228.38   11.03
  -1   3  -9  231.83   11.99
   1  -3   9  219.43    8.67
   1  -3   9  213.66   26.84
   1  -3   9  206.81   11.27
   1  -3   9  227.69   10.84
  -2   3  -9   68.14   11.97
  -2   3  -9   62.42    6.93
  -2   3  -9   77.69    6.42
  -2   3  -9   78.24    8.38
  -2   3  -9   64.59    7.31
  -2   3  -9   71.13    5.98
  -2   3  -9   78.26    6.53
   2  -3   9   58.32   10.54
   2  -3   9   81.91    8.30
   2  -3   9   47.21   13.63
   2  -3   9   81.42    8.43
   2  -3   9   69.44    5.46
  -3   3  -9   29.38    5.33
  -3   3  -9   21.04    5.19
  -3   3  -9   38.62    6.68
  -3   3  -9   36.66    5.48
  -3   3  -9   38.09    7.05
   3  -3   9   38.04    5.89
   3  -3   9   26.96    5.54
  -4   3  -9   26.92    6.50
  -4   3  -9   28.68    6.29
  -4   3  -9   13.20    5.12
  -4   3  -9   17.57    5.36
   4  -3   9   25.69    6.08
   4   2  -9   16.93    9.94
  -4  -2   9   22.72    5.52
  -4  -2   9   20.98    5.46
  -4  -2   9   23.75    5.65
  -4  -2   9   19.45    4.39
   3   2  -9   57.60   13.58
   3   2  -9   63.89    7.44
  -3  -2   9   49.19    4.37
  -3  -2   9   41.73    6.23
  -3  -2   9   55.66    6.19
  -3  -2   9   66.07    8.26
  -3  -2   9   58.06    4.42
  -3  -2   9   45.36    6.73
   2   2  -9    2.51    1.50
   2   2  -9   -0.36    1.86
   2   2  -9    1.41    1.97
  -2  -2   9    2.56    1.60
  -2  -2   9    1.08    1.90
  -2  -2   9    2.68    1.63
  -2  -2   9   -0.28    1.34
  -2  -2   9    2.62    0.87
  -2  -2   9   -0.26    1.08
   1   2  -9  437.84   26.47
   1   2  -9  431.56   15.80
   1   2  -9  447.03   17.95
   1   2  -9  436.72   15.00
   1   2  -9  436.38   19.32
  -1  -2   9  435.43   17.78
  -1  -2   9  428.66   15.66
  -1  -2   9  445.53   16.51
  -1  -2   9  435.06   18.48
  -1  -2   9  437.83   17.13
  -1  -2   9  413.10   17.55
   0   2  -9  244.80   17.94
   0   2  -9  244.79    9.45
   0   2  -9  239.41   10.96
   0   2  -9  241.68   11.82
   0   2  -9  232.60   12.45
   0   2  -9  252.06   11.97
   0   2  -9  251.55   12.07
   0  -2   9  249.54   12.46
   0  -2   9  255.05   11.32
   0  -2   9  239.46   10.52
   0  -2   9  239.14   11.29
   0  -2   9  238.73   11.68
  -1   2  -9   38.59    4.87
  -1   2  -9   51.46    5.68
  -1   2  -9   39.54    5.35
  -1   2  -9   40.05    4.94
  -1   2  -9   41.39    4.65
  -1   2  -9   40.43    5.14
  -1   2  -9   41.43    8.52
   1  -2   9   41.14    2.81
   1  -2   9   40.72    5.26
   1  -2   9   40.81    4.81
   1  -2   9   49.28   15.04
  -2   2  -9   49.42    6.25
  -2   2  -9   54.32    6.69
  -2   2  -9   36.64    5.68
  -2   2  -9   36.27    8.98
  -2   2  -9   45.65    5.36
  -2   2  -9   42.88    5.39
  -2   2  -9   41.55    5.74
   2  -2   9   43.77    9.06
   2  -2   9   35.80    5.22
   2  -2   9   43.99    5.16
  -3   2  -9   17.50    3.78
  -3   2  -9   16.52    4.47
  -3   2  -9   13.18    4.46
  -3   2  -9    8.31    3.80
  -3   2  -9   23.10    5.13
   3  -2   9    8.32    3.20
   3  -2   9   14.75    3.81
  -4   2  -9   -2.78    2.43
  -4   2  -9    3.14    3.72
  -4   2  -9   -1.47    2.64
  -4   2  -9   -1.95    2.72
   4  -2   9    1.17    3.12
   4   1  -9   27.81   11.69
  -4  -1   9   44.19    5.93
  -4  -1   9   48.86    7.60
  -4  -1   9   58.24    8.09
  -4  -1   9   65.31    9.09
   3   1  -9    4.40    2.66
   3   1  -9    3.29    5.27
  -3  -1   9    6.01    3.04
  -3  -1   9    5.14    2.21
  -3  -1   9    5.69    2.88
  -3  -1   9    4.19    1.81
  -3  -1   9    4.78    2.77
  -3  -1   9    2.46    1.80
   2   1  -9   14.86    3.66
   2   1  -9   20.55    7.10
  -2  -1   9   12.87    1.74
  -2  -1   9   14.95    3.64
  -2  -1   9   14.59    1.51
  -2  -1   9   10.27    3.14
  -2  -1   9    9.58    2.38
  -2  -1   9   13.70    2.88
   1   1  -9  301.48   11.18
   1   1  -9  314.79   14.98
   1   1  -9  302.88   13.24
   1   1  -9  286.56   11.79
  -1  -1   9  317.72   12.79
  -1  -1   9  296.10   13.74
  -1  -1   9  294.21   14.06
  -1  -1   9  316.23   16.11
  -1  -1   9  297.23   12.52
   0   1  -9  374.44   14.99
   0   1  -9  391.81   15.34
   0   1  -9  376.93   13.41
   0   1  -9  357.75   16.86
   0   1  -9  385.21   16.39
   0   1  -9  376.39   23.37
   0   1  -9  374.92   15.91
   0  -1   9  351.08   15.14
   0  -1   9  391.16   15.68
   0  -1   9  372.68   16.15
   0  -1   9  373.98   16.74
  -1   1  -9  161.17    9.48
  -1   1  -9  162.34   14.86
  -1   1  -9  148.70    9.22
  -1   1  -9  143.40    8.70
  -1   1  -9  160.71    8.74
  -1   1  -9  153.83    9.05
  -1   1  -9  142.94    8.07
   1  -1   9  160.16    8.93
   1  -1   9  137.13    8.55
   1  -1   9  109.46   18.70
   1  -1   9  154.20    6.66
  -2   1  -9   59.97    5.80
  -2   1  -9   55.19    6.55
  -2   1  -9   57.73    6.76
  -2   1  -9   69.65    7.50
  -2   1  -9   64.22    5.42
  -2   1  -9   70.58   12.38
  -2   1  -9   66.28    8.06
   2  -1   9   51.79    8.40
   2  -1   9   88.42    7.09
   2  -1   9   62.53    6.54
  -3   1  -9   14.47    3.73
  -3   1  -9    7.89    3.73
  -3   1  -9    4.43    3.32
  -3   1  -9   10.65    3.73
  -3   1  -9   14.35    4.61
   3  -1   9    9.94    3.39
   3  -1   9   11.92    3.70
  -4   1  -9    3.20    3.47
  -4   1  -9    4.54    3.69
  -4   1  -9    6.20    4.32
   4   0  -9    3.71    6.54
  -4   0   9    5.60    3.74
  -4   0   9    3.24    3.24
  -4   0   9    0.61    2.38
  -4   0   9    0.88    2.19
   3   0  -9   41.74    5.90
   3   0  -9   60.37   14.10
  -3   0   9   37.78    6.17
  -3   0   9   44.92    5.42
  -3   0   9   48.49    4.18
  -3   0   9   42.37    4.91
  -3   0   9   40.39    6.66
  -3   0   9   42.91    6.51
   2   0  -9   14.65    3.54
   2   0  -9   12.13    5.98
  -2   0   9   16.14    2.16
  -2   0   9   12.07    2.38
  -2   0   9   11.64    1.46
  -2   0   9   17.00    1.75
  -2   0   9   12.87    3.42
  -2   0   9   14.25    3.16
  -2   0   9   14.83    3.47
   1   0  -9  217.65    8.92
   1   0  -9  176.99   31.39
   1   0  -9  221.83   10.18
   1   0  -9  233.33    9.74
   1   0  -9  209.17   17.52
   1   0  -9  231.17   12.25
  -1   0   9  211.70    9.78
  -1   0   9  207.84   11.09
  -1   0   9  217.60    9.53
  -1   0   9  236.19   11.72
  -1   0   9  218.01   11.95
   0   0  -9  223.77    8.96
   0   0  -9  220.72   10.65
   0   0  -9  240.81   11.11
   0   0  -9  223.07   31.64
   0   0  -9  247.37   11.76
   0   0  -9  220.52   12.25
   0   0  -9  219.65   17.32
   0   0   9  213.52   11.33
   0   0   9  219.31   10.85
   0   0   9  240.52   12.20
  -1   0  -9  307.29   14.68
  -1   0  -9  319.39   13.73
  -1   0  -9  324.80   15.10
  -1   0  -9  324.57   14.67
  -1   0  -9  327.03   22.35
  -1   0  -9  299.66   15.22
   1   0   9  328.51   14.83
   1   0   9  316.70   12.17
   1   0   9  267.81   28.34
   1   0   9  324.17   15.86
  -2   0  -9  185.81   11.44
  -2   0  -9  220.01   12.15
  -2   0  -9  192.07   11.47
  -2   0  -9  172.89   11.72
  -2   0  -9  176.10    9.59
  -2   0  -9  192.07   11.34
   2   0   9  212.63   11.91
   2   0   9  208.51   11.43
  -3   0  -9   12.55    3.90
  -3   0  -9   13.67    3.87
  -3   0  -9   19.87    4.84
  -3   0  -9   18.80    5.65
  -3   0  -9   19.74    5.06
   3   0   9   22.63    5.30
   4  -1  -9   19.11   10.64
  -4   1   9   15.30    4.75
  -4   1   9   13.62    4.53
  -4   1   9   16.86    5.57
   3  -1  -9   34.90   10.91
   3  -1  -9   64.92    7.15
  -3   1   9   59.18    4.78
  -3   1   9   51.03    6.75
  -3   1   9   66.70    8.61
  -3   1   9   57.70    6.63
  -3   1   9   46.26    6.39
  -3   1   9   56.03    4.75
   2  -1  -9  261.67   21.51
   2  -1  -9  318.34   15.04
   2  -1  -9  290.63   10.79
  -2   1   9  266.22   10.30
  -2   1   9  290.04   11.52
  -2   1   9  287.81   11.92
  -2   1   9  299.10   11.01
  -2   1   9  279.22   10.62
  -2   1   9  281.27   13.77
  -2   1   9  272.39   14.23
   1  -1  -9    9.31    2.17
   1  -1  -9   11.47   10.58
   1  -1  -9    9.35    1.96
   1  -1  -9    9.16    5.06
   1  -1  -9   11.91    3.26
  -1   1   9   13.07    2.07
  -1   1   9   11.36    3.15
  -1   1   9    9.43    2.72
  -1   1   9   10.57    2.82
  -1   1   9   12.27    1.33
  -1   1   9   10.95    2.12
   0  -1  -9  268.88   19.83
   0  -1  -9  275.93   10.82
   0  -1  -9  265.54   13.01
   0  -1  -9  263.75   12.32
   0  -1  -9  283.99   12.38
   0  -1  -9  283.80   14.39
   0   1   9  270.37   13.19
   0   1   9  271.07   10.84
   0   1   9  287.37   13.97
   0   1   9  256.82   12.62
  -1  -1  -9   68.07   16.52
  -1  -1  -9   51.85    6.34
  -1  -1  -9   63.51    5.75
  -1  -1  -9   56.46   10.72
  -1  -1  -9   46.08    5.33
  -1  -1  -9   60.55    5.14
   1   1   9   58.22    4.21
   1   1   9   58.50    6.35
   1   1   9   48.50    6.41
   1   1   9   57.88   13.78
  -2  -1  -9   13.79    3.73
  -2  -1  -9   13.22    3.47
  -2  -1  -9   26.66    5.32
  -2  -1  -9   18.84    4.33
  -2  -1  -9   13.67    3.65
   2   1   9   14.89    4.23
   2   1   9   23.03    4.56
   2   1   9   19.04    4.08
  -3  -1  -9    1.89    2.47
  -3  -1  -9    2.14    2.90
  -3  -1  -9    4.13    2.99
  -3  -1  -9    2.34    3.04
  -3  -1  -9    2.93    2.64
   3   1   9    0.12    2.43
   4  -2  -9  405.73   36.10
  -4   2   9  553.21   24.84
  -4   2   9  536.85   26.66
  -4   2   9  565.40   25.29
   3  -2  -9    3.37   10.75
   3  -2  -9   -0.17    1.79
   3  -2  -9    0.73    4.45
  -3   2   9   -0.27    1.13
  -3   2   9    0.37    1.93
  -3   2   9    0.25    2.41
  -3   2   9    0.47    2.03
  -3   2   9    0.97    1.57
   2  -2  -9  250.49   13.39
   2  -2  -9  243.24   10.14
   2  -2  -9  252.15   41.28
   2  -2  -9  254.74   20.80
   2  -2  -9  250.22    9.84
  -2   2   9  233.32   12.85
  -2   2   9  217.13    9.71
  -2   2   9  238.02    9.59
  -2   2   9  233.34   12.72
  -2   2   9  240.55    9.54
  -2   2   9  245.98   10.28
   1  -2  -9   28.75    7.48
   1  -2  -9   32.41    4.10
   1  -2  -9   36.39    2.89
   1  -2  -9   43.87    3.40
   1  -2  -9   34.91    3.90
   1  -2  -9   16.24   13.05
   1  -2  -9   44.06    6.07
  -1   2   9   41.81    2.73
  -1   2   9   37.87    4.08
  -1   2   9   36.65    4.89
  -1   2   9   32.11    4.77
  -1   2   9   46.91    6.07
  -1   2   9   39.27    3.17
   0  -2  -9   71.30    5.99
   0  -2  -9   68.18    6.49
   0  -2  -9   66.83   11.87
   0  -2  -9   68.26    5.47
   0  -2  -9   66.78    5.05
   0  -2  -9   66.25    4.43
   0  -2  -9   70.57   22.00
   0   2   9   69.74    5.09
   0   2   9   71.09    5.74
   0   2   9   57.74    6.23
  -1  -2  -9   32.94    4.31
  -1  -2  -9   28.07    4.95
  -1  -2  -9   52.28   17.23
  -1  -2  -9   30.82    4.88
  -1  -2  -9   35.19    5.07
   1   2   9   18.03    3.51
   1   2   9   20.59    4.03
   1   2   9   28.32    5.09
   1   2   9   35.08   12.74
  -2  -2  -9  500.74   22.18
  -2  -2  -9  473.68   21.27
  -2  -2  -9  519.33   22.78
  -2  -2  -9  485.02   22.35
  -2  -2  -9  496.54   21.54
   2   2   9  469.53   22.20
   2   2   9  453.30   21.08
   2   2   9  469.24   21.60
  -3  -2  -9  202.53   13.50
  -3  -2  -9  191.46   12.49
  -3  -2  -9  195.11   14.00
  -3  -2  -9  164.01   12.46
  -3  -2  -9  187.72   12.43
   3   2   9  168.96   11.96
   4  -3  -9   -0.53   12.41
   4  -3  -9    3.13    7.14
  -4   3   9   10.22    3.62
  -4   3   9   10.41    3.93
  -4   3   9   10.13    3.82
  -4   3   9   13.48    4.85
  -4   3   9   11.51    4.73
  -4   3   9   21.11    5.61
   3  -3  -9  270.41   24.52
   3  -3  -9  333.43   16.22
  -3   3   9  313.66   17.99
  -3   3   9  313.43   13.83
  -3   3   9  330.66   16.55
  -3   3   9  324.81   16.42
   2  -3  -9  633.79   25.76
   2  -3  -9  621.40   22.40
   2  -3  -9  559.20   33.92
  -2   3   9  586.58   24.93
  -2   3   9  633.95   20.89
  -2   3   9  602.35   20.09
  -2   3   9  624.25   22.49
  -2   3   9  601.19   26.38
  -2   3   9  604.81   25.34
   1  -3  -9   60.21   22.55
   1  -3  -9   30.71    3.98
   1  -3  -9   32.11    2.53
   1  -3  -9   27.03    2.89
   1  -3  -9   33.02    8.38
   1  -3  -9   30.66    2.76
   1  -3  -9   29.17    5.17
  -1   3   9   32.09    2.66
  -1   3   9   25.67    4.43
  -1   3   9   19.97    4.06
  -1   3   9   35.70    3.10
  -1   3   9   30.14    4.04
  -1   3   9   35.00    5.19
   0  -3  -9   11.03    2.34
   0  -3  -9   10.22    5.21
   0  -3  -9   11.48    2.84
   0  -3  -9   10.08    2.90
   0  -3  -9    9.24    2.11
   0  -3  -9    1.73    6.25
   0   3   9    8.74    2.82
   0   3   9   13.75    2.66
  -1  -3  -9    1.58    1.83
  -1  -3  -9    3.78    4.10
  -1  -3  -9    1.23    2.33
  -1  -3  -9    3.48    2.12
  -1  -3  -9    0.93    1.71
  -1  -3  -9   -0.45    1.75
  -1  -3  -9   -2.68    4.42
   1   3   9    4.52    2.40
   1   3   9    2.43    2.32
   1   3   9    3.76    2.53
  -2  -3  -9  674.31   29.32
  -2  -3  -9  721.65   28.24
  -2  -3  -9  687.59   28.64
  -2  -3  -9  563.64   43.81
  -2  -3  -9  697.04   27.83
  -2  -3  -9  706.17   29.08
   2   3   9  674.33   28.81
   2   3   9  723.42   28.92
   2   3   9  704.98   28.07
  -3  -3  -9   17.73    4.88
  -3  -3  -9   16.86    5.13
  -3  -3  -9   20.40    5.62
  -3  -3  -9   20.63    5.41
  -3  -3  -9   23.75    5.13
   3   3   9   28.20    5.93
   4  -4  -9    2.31   14.20
   4  -4  -9   -0.19    6.17
  -4   4   9    2.23    3.36
  -4   4   9    0.92    2.46
  -4   4   9   -0.04    2.68
  -4   4   9    5.44    3.89
  -4   4   9    1.72    2.68
   3  -4  -9    8.28    6.16
   3  -4  -9   14.78   17.21
   3  -4  -9    0.47    2.09
  -3   4   9    0.95    1.67
  -3   4   9    5.50    2.86
  -3   4   9    3.05    2.63
  -3   4   9    4.30    2.98
   2  -4  -9   -4.52    6.15
   2  -4  -9   -1.49    1.71
   2  -4  -9   -1.08    2.81
  -2   4   9    2.80    1.71
  -2   4   9    0.18    2.15
  -2   4   9    1.32    2.28
  -2   4   9    1.75    1.97
   1  -4  -9   12.69   12.69
   1  -4  -9    3.30    3.93
   1  -4  -9    1.49    0.87
   1  -4  -9    1.18    1.56
   1  -4  -9    1.25    2.15
   1  -4  -9    1.10    0.89
   1  -4  -9   -0.81    1.06
  -1   4   9    0.54    1.33
  -1   4   9   -1.05    1.74
  -1   4   9   -0.04    1.51
  -1   4   9    0.71    0.77
  -1   4   9    0.46    1.60
   0  -4  -9   24.58    4.14
   0  -4  -9   15.61   12.25
   0  -4  -9   26.02    7.59
   0  -4  -9   22.02    3.30
   0  -4  -9   24.29    4.33
   0  -4  -9   19.60    3.27
   0   4   9    9.03    2.99
   0   4   9   23.67    4.35
   0   4   9   23.64    2.75
   0   4   9   24.12    4.23
  -1  -4  -9  303.27   15.46
  -1  -4  -9  334.76   17.61
  -1  -4  -9  316.30   15.34
  -1  -4  -9  355.03   16.69
  -1  -4  -9  320.39   15.16
  -1  -4  -9  314.52   24.26
   1   4   9  336.67   15.92
   1   4   9  330.89   16.67
   1   4   9  315.19   16.63
  -2  -4  -9    3.60    2.37
  -2  -4  -9    0.92    6.40
  -2  -4  -9    1.35    2.70
  -2  -4  -9    3.06    2.62
  -2  -4  -9    1.81    2.54
  -2  -4  -9    6.34    3.10
   2   4   9    4.86    2.91
   2   4   9    4.69    2.91
   2   4   9    3.13    2.57
  -3  -4  -9  128.96   10.97
  -3  -4  -9  143.46   10.84
  -3  -4  -9  122.77   11.55
  -3  -4  -9  125.00   11.20
  -3  -4  -9  137.07   11.72
   3   4   9  151.10   10.91
   4  -5  -9   28.98   11.45
   4  -5  -9   20.42   21.27
  -4   5   9   35.04    6.08
  -4   5   9   36.96    7.63
  -4   5   9   29.08    6.25
  -4   5   9   34.40    7.59
   3  -5  -9    1.89    4.41
   3  -5  -9    0.97    2.35
   3  -5  -9   -0.64    9.64
  -3   5   9    1.26    1.72
  -3   5   9   -0.43    1.92
  -3   5   9    3.11    2.80
  -3   5   9   -1.48    1.87
  -3   5   9    1.19    1.73
   2  -5  -9    5.56   10.60
   2  -5  -9    4.12    2.56
   2  -5  -9    6.21    4.77
  -2   5   9   14.30    4.18
  -2   5   9    5.86    2.72
  -2   5   9   11.28    2.88
  -2   5   9   11.41    3.69
   1  -5  -9   -0.28    2.05
   1  -5  -9   -0.46    1.10
   1  -5  -9   -1.94    6.66
   1  -5  -9    0.25    0.64
   1  -5  -9    0.48    1.52
   1  -5  -9    0.41    2.77
  -1   5   9    0.46    2.08
  -1   5   9   -0.48    1.68
  -1   5   9    3.25    2.06
  -1   5   9   -0.01    1.74
   0  -5  -9   54.24    6.24
   0  -5  -9   53.40   22.16
   0  -5  -9   38.19    6.25
   0  -5  -9   39.19    5.42
   0  -5  -9   46.28    5.03
   0  -5  -9   54.75   11.00
   0  -5  -9   49.45    4.39
   0   5   9   43.83    5.70
   0   5   9   64.49    7.82
   0   5   9   52.28    3.31
   0   5   9   49.44    6.35
   0   5   9   48.22    5.75
  -1  -5  -9   10.08    3.75
  -1  -5  -9    6.64    2.73
  -1  -5  -9    5.19    2.73
  -1  -5  -9    6.77    2.85
  -1  -5  -9    3.84    5.07
  -1  -5  -9    2.34    8.00
  -1  -5  -9    2.45    2.39
   1   5   9    8.51    3.13
   1   5   9    1.93    2.25
   1   5   9    6.96    2.72
  -2  -5  -9  531.61   24.01
  -2  -5  -9  500.60   23.70
  -2  -5  -9  504.07   24.93
  -2  -5  -9  485.03   22.91
  -2  -5  -9  492.59   22.73
   2   5   9  498.44   23.54
   2   5   9  523.88   22.83
  -3  -5  -9   16.75    5.31
  -3  -5  -9   20.17    4.95
  -3  -5  -9   29.34    6.58
  -3  -5  -9   23.15    6.09
  -3  -5  -9   14.58    4.75
   3   5   9   17.71    4.90
   4  -6  -9    7.28   17.18
  -4   6   9    2.30    3.45
  -4   6   9    2.85    3.38
  -4   6   9    3.92    3.85
   3  -6  -9   17.29    7.36
   3  -6  -9   13.24   17.49
   3  -6  -9   12.94    3.97
  -3   6   9   13.79    3.85
  -3   6   9    9.42    3.92
  -3   6   9   12.74    4.47
  -3   6   9   20.93    5.32
  -3   6   9   12.67    3.35
   2  -6  -9   18.37   15.96
   2  -6  -9   21.45    4.99
   2  -6  -9   15.13    6.58
  -2   6   9   15.02    3.52
  -2   6   9   13.74    4.03
  -2   6   9   21.78    4.53
  -2   6   9   19.21    4.71
   1  -6  -9    8.46   12.46
   1  -6  -9   18.13    3.65
   1  -6  -9   16.13    3.09
   1  -6  -9   19.50    4.96
   1  -6  -9   16.28    6.44
  -1   6   9   20.27    4.24
  -1   6   9   16.22    4.37
  -1   6   9   17.00    3.82
  -1   6   9   11.38    3.54
   0  -6  -9   24.15    3.54
   0  -6  -9   18.39    3.97
   0  -6  -9   18.97    3.59
   0  -6  -9   23.58    7.95
   0  -6  -9   11.82   12.41
   0  -6  -9   21.54    5.28
   0  -6  -9   25.10    4.43
   0   6   9   29.51    5.15
   0   6   9   21.31    4.00
   0   6   9   26.89    4.88
   0   6   9   22.76    4.93
  -1  -6  -9   72.33    7.81
  -1  -6  -9   91.39    8.00
  -1  -6  -9   70.59   13.97
  -1  -6  -9   57.29    6.85
  -1  -6  -9   81.94   10.19
  -1  -6  -9   90.86    7.29
  -1  -6  -9   77.11   25.71
   1   6   9   77.28    8.10
   1   6   9   84.59    9.48
   1   6   9   65.23    8.10
  -2  -6  -9  117.62   10.08
  -2  -6  -9  116.99   11.16
  -2  -6  -9  129.11   10.56
  -2  -6  -9  121.32    9.80
  -2  -6  -9  118.98    9.94
   2   6   9  130.93    9.82
   2   6   9  126.31   10.37
  -3  -6  -9    4.45    3.98
  -3  -6  -9    7.73    4.22
  -3  -6  -9    7.61    3.76
  -3  -6  -9    2.54    3.53
  -3  -6  -9    8.11    4.30
   3   6   9    6.28    3.43
   3  -7  -9    9.76    6.02
   3  -7  -9    9.62   15.45
   3  -7  -9   13.20    4.31
  -3   7   9   13.79    4.51
  -3   7   9    8.63    2.93
  -3   7   9    6.76    3.76
  -3   7   9   16.03    5.18
  -3   7   9   11.33    3.74
   2  -7  -9    7.01    5.11
   2  -7  -9    6.59    3.80
   2  -7  -9   -1.42    7.30
  -2   7   9    2.29    2.27
  -2   7   9    7.37    3.47
  -2   7   9   10.94    3.92
  -2   7   9    1.58    2.51
  -2   7   9    6.30    2.74
   1  -7  -9   36.77    4.87
   1  -7  -9   38.88    5.43
   1  -7  -9   34.31    9.24
   1  -7  -9   34.11    6.22
   1  -7  -9   26.04   18.08
  -1   7   9   36.96    5.83
  -1   7   9   33.04    5.57
  -1   7   9   27.66    5.62
  -1   7   9   46.47    6.47
   0  -7  -9   39.16    9.75
   0  -7  -9   25.52   16.50
   0  -7  -9   54.88    6.51
   0  -7  -9   42.28    7.40
   0  -7  -9   49.95    5.10
   0  -7  -9   43.42    5.63
   0  -7  -9   41.43    4.48
   0   7   9   43.77    5.74
   0   7   9   37.01    5.85
   0   7   9   49.81    7.25
   0   7   9   30.45    5.45
  -1  -7  -9    3.84    2.55
  -1  -7  -9   12.69   12.72
  -1  -7  -9    5.30    2.78
  -1  -7  -9    0.44    1.85
  -1  -7  -9    5.10    5.15
  -1  -7  -9    5.88    3.77
  -1  -7  -9    1.88    2.05
   1   7   9    7.62    3.30
   1   7   9    2.32    2.46
   1   7   9    2.40    2.37
   1   7   9    7.34    2.46
  -2  -7  -9   -0.53    2.46
  -2  -7  -9    1.15    3.00
  -2  -7  -9    1.85    3.25
  -2  -7  -9   -3.78    2.18
  -2  -7  -9    1.04    2.51
   2   7   9    0.39    2.47
   2   7   9   -0.44    2.19
   3  -8  -9   54.33    7.93
   3  -8  -9   27.09   22.99
  -3   8   9   69.44    8.04
  -3   8   9   41.76    7.75
  -3   8   9   48.63    6.68
  -3   8   9   47.95    8.34
  -3   8   9   42.68    7.91
   2  -8  -9   -0.37   11.17
   2  -8  -9    3.00    3.03
   2  -8  -9   -0.12    3.48
  -2   8   9    1.60    2.34
  -2   8   9    4.11    3.18
  -2   8   9    0.38    2.49
  -2   8   9   -0.61    1.82
  -2   8   9    1.28    2.17
   1  -8  -9   29.07    8.51
   1  -8  -9    9.72   13.34
   1  -8  -9   21.25    4.08
   1  -8  -9   18.92    5.08
   1  -8  -9   22.24    4.41
  -1   8   9   11.82    3.71
  -1   8   9   25.22    5.18
  -1   8   9   20.38    5.31
  -1   8   9   13.12    3.87
  -1   8   9   21.42    4.69
   0  -8  -9  397.12   28.28
   0  -8  -9  398.27   18.84
   0  -8  -9  397.17   21.99
   0  -8  -9  416.23   16.42
   0  -8  -9  416.95   18.83
   0  -8  -9  396.65   16.54
   0   8   9  386.56   18.37
   0   8   9  412.73   20.96
   0   8   9  411.54   18.42
   0   8   9  419.40   20.41
   0   8   9  390.99   20.07
  -1  -8  -9   11.96    3.37
  -1  -8  -9   13.32    4.05
  -1  -8  -9   10.35    4.38
  -1  -8  -9   18.37    8.14
  -1  -8  -9   12.61    3.67
  -1  -8  -9   29.44   18.10
  -1  -8  -9   19.23    4.58
  -1  -8  -9    6.91    3.55
   1   8   9   16.68    4.65
   1   8   9   12.22    4.41
   1   8   9   12.21    4.07
   1   8   9   15.07    4.61
  -2  -8  -9   10.10    4.32
  -2  -8  -9   18.60    5.50
  -2  -8  -9   13.58    4.41
  -2  -8  -9   22.35    5.42
  -2  -8  -9   15.22    5.59
  -2  -8  -9   11.06    4.16
   2   8   9    9.10    3.75
   2   8   9   16.51    4.78
   3  -9  -9   15.26   18.81
  -3   9   9   20.74    5.84
  -3   9   9   23.96    5.23
  -3   9   9   20.64    6.01
  -3   9   9   18.35    5.92
   2  -9  -9    3.70    3.53
   2  -9  -9   -2.02   10.18
   2  -9  -9    2.34    4.21
  -2   9   9    1.01    2.71
  -2   9   9   -0.67    2.01
  -2   9   9    3.27    3.14
  -2   9   9    7.14    3.37
  -2   9   9    2.74    2.65
   1  -9  -9   25.68    6.34
   1  -9  -9   18.70    4.11
   1  -9  -9   22.50    7.95
   1  -9  -9   19.56    4.34
   1  -9  -9   21.74   18.42
  -1   9   9   16.12    4.77
  -1   9   9   21.43    4.96
  -1   9   9   24.21    5.07
  -1   9   9   23.69    5.24
  -1   9   9   24.02    5.18
   0  -9  -9   27.82    5.04
   0  -9  -9   20.84   17.82
   0  -9  -9   28.94    5.14
   0  -9  -9   37.37    7.36
   0  -9  -9   22.91    8.75
   0   9   9   32.80    6.69
   0   9   9   26.44    4.81
   0   9   9   28.65    5.84
   0   9   9   22.23    5.17
   0   9   9   26.20    4.76
  -1  -9  -9   -1.30    2.39
  -1  -9  -9    1.25    3.14
  -1  -9  -9   -0.04    9.01
  -1  -9  -9   -1.09    2.03
  -1  -9  -9   -1.43    2.20
  -1  -9  -9   -2.85    1.79
  -1  -9  -9    1.12    4.22
   1   9   9    0.86    2.71
   1   9   9    0.30    2.65
   1   9   9    0.28    2.48
   1   9   9   -0.64    2.48
  -2  -9  -9    7.97    3.89
  -2  -9  -9    3.91    3.63
  -2  -9  -9    2.26    3.45
  -2  -9  -9    1.77    2.77
  -2  -9  -9    2.47    3.57
  -2  -9  -9    2.54    4.04
   2   9   9    6.89    3.78
   2   9   9    2.76    3.09
   2 -10  -9   77.72   10.49
   2 -10  -9   33.38   24.18
  -2  10   9   52.51    8.85
  -2  10   9   60.96    8.87
  -2  10   9   57.21    8.07
  -2  10   9   53.05    8.40
  -2  10   9   71.36    8.31
   1 -10  -9   88.38   12.93
   1 -10  -9  106.65    8.92
   1 -10  -9  132.00   14.26
   1 -10  -9  114.57    8.33
  -1  10   9  109.77    9.45
  -1  10   9  119.61   11.08
  -1  10   9   96.28   10.66
  -1  10   9  106.95    9.47
  -1  10   9  113.05   11.54
   0 -10  -9    1.57    2.46
   0 -10  -9    1.37    3.49
   0 -10  -9    1.74    2.39
   0 -10  -9    0.57    4.29
   0 -10  -9    4.75   13.10
   0  10   9    2.21    2.72
   0  10   9   -0.71    2.27
   0  10   9    3.11    2.66
   0  10   9    1.57    2.90
  -1 -10  -9   20.50    5.36
  -1 -10  -9   15.61    5.89
  -1 -10  -9   16.42    4.56
  -1 -10  -9    6.54    3.87
  -1 -10  -9    5.65   13.68
  -1 -10  -9   13.86    4.65
  -1 -10  -9    9.68    7.20
   1  10   9   12.93    4.90
   1  10   9    8.42    4.00
   1  10   9   23.63    5.36
   2 -11  -9   21.62   21.51
   2 -11  -9   41.48    8.22
  -2  11   9   34.28    7.05
  -2  11   9   33.15    6.17
  -2  11   9   35.32    7.37
  -2  11   9   31.20    6.40
  -2  11   9   33.49    7.34
   1 -11  -9    0.38    3.32
   1 -11  -9    4.34    3.07
   1 -11  -9   19.49   19.43
  -1  11   9    3.00    3.05
  -1  11   9   -0.08    2.34
  -1  11   9   -0.22    2.53
  -1  11   9    2.09    3.10
  -1  11   9   -0.53    2.13
   0 -11  -9   31.03    8.09
   0 -11  -9   29.72    5.64
   0 -11  -9   26.40    9.83
   0 -11  -9   15.84   18.97
   0 -11  -9   21.91    5.31
   0  11   9   32.18    5.74
   0  11   9   25.75    6.18
   0  11   9   34.19    6.69
   0  11   9   19.72    5.59
  -1 -11  -9   32.31    6.60
  -1 -11  -9   25.48    7.88
  -1 -11  -9   39.43   12.73
  -1 -11  -9   29.86    6.23
  -1 -11  -9    4.46   14.30
   1  11   9   41.98    7.20
   1  11   9   34.47    7.22
   1  11   9   30.48    6.80
   1 -12  -9   -3.08    2.11
   1 -12  -9    1.38   11.02
   1 -12  -9    1.92    4.01
  -1  12   9    3.52    5.31
  -1  12   9   -2.48    2.22
  -1  12   9    3.28    3.33
  -1  12   9    2.70    3.58
  -1  12   9    2.17    2.91
   0 -12  -9   26.45    6.04
   0 -12  -9   19.36   10.28
   0  12   9   16.68    5.36
   0  12   9   30.67    7.04
   0  12   9   24.24    6.62
   1  14 -10   62.60    9.03
  -1 -14  10   85.04   10.26
  -1 -14  10   61.73    8.53
  -1 -14  10   46.43   26.89
  -1 -14  10   80.65    9.29
  -1 -14  10   66.26    9.55
   0  14 -10   46.61    7.44
   0  14 -10   35.72    6.48
   0  14 -10   50.61    8.43
   0 -14  10   48.45    7.56
   0 -14  10   50.21    7.89
   0 -14  10   50.11    8.81
   0 -14  10   41.12   25.88
  -1  14 -10   43.97    8.59
  -1  14 -10   42.58    7.18
  -1  14 -10   47.31    7.73
   1 -14  10   48.92    7.45
   1 -14  10   32.91   23.58
   1 -14  10   41.60    6.77
   1 -14  10   47.95    8.95
   1 -14  10   57.60    8.16
   2  13 -10   14.03    4.89
  -2 -13  10   17.18    5.35
  -2 -13  10    1.00   12.49
  -2 -13  10    7.48    3.71
  -2 -13  10   17.79    4.54
  -2 -13  10   15.78    4.96
  -2 -13  10   15.96    5.08
  -2 -13  10   20.80    5.89
   1  13 -10   19.28    4.47
   1  13 -10   13.73    4.86
  -1 -13  10   16.15    4.53
  -1 -13  10   14.91   18.14
  -1 -13  10   19.00    5.10
  -1 -13  10   16.51    4.76
  -1 -13  10   13.14    4.67
   0  13 -10    9.49    3.33
   0  13 -10    6.74    3.85
   0  13 -10    6.44    3.29
   0 -13  10    5.80    3.43
   0 -13  10    8.40    3.82
   0 -13  10    6.53    3.77
   0 -13  10    6.72   13.38
   0 -13  10    5.32    3.82
  -1  13 -10   57.43    8.97
  -1  13 -10   50.92    7.96
  -1  13 -10   54.60    8.71
  -1  13 -10   55.19    7.90
   1 -13  10   45.94   24.81
   1 -13  10   45.93    7.87
   1 -13  10   58.97    8.01
   1 -13  10   47.58    6.53
   1 -13  10   57.76    7.63
   2 -13  10   40.50    8.37
   2 -13  10   26.05   21.23
   2  12 -10    8.60    7.55
   2  12 -10   12.84    3.96
  -2 -12  10   11.98    4.37
  -2 -12  10   12.15    3.82
  -2 -12  10   10.21    4.62
  -2 -12  10    5.73    3.33
  -2 -12  10   10.91    4.14
   1  12 -10   33.31    4.97
   1  12 -10   21.16    8.87
   1  12 -10   21.41    5.34
   1  12 -10   38.61    5.43
  -1 -12  10   32.39    6.45
  -1 -12  10   41.29    6.67
  -1 -12  10   46.07    7.09
  -1 -12  10   34.25    5.94
   0  12 -10  165.96   11.03
   0  12 -10  175.54   11.39
   0  12 -10  175.98   12.92
   0 -12  10  162.42   12.71
   0 -12  10  166.58   11.79
   0 -12  10  183.93   11.73
   0 -12  10  172.60   10.37
   0 -12  10  133.65   41.05
   0 -12  10  159.82   10.08
  -1  12 -10    0.14    2.45
  -1  12 -10    0.62    2.48
  -1  12 -10    3.26    3.22
  -1  12 -10   -0.12    2.26
   1 -12  10   -0.76    9.76
   1 -12  10   -0.52    2.20
   1 -12  10    1.25    3.05
   1 -12  10   -0.26    2.32
   1 -12  10    0.48    2.13
  -2  12 -10  203.86   15.02
  -2  12 -10  185.35   13.80
  -2  12 -10  191.44   14.24
   2 -12  10  118.32   38.55
   2 -12  10  192.59   14.53
   2 -12  10  209.46   14.01
   2  11 -10   30.87   10.84
   2  11 -10   50.22    7.35
  -2 -11  10   61.03    7.85
  -2 -11  10   68.16    9.25
  -2 -11  10   60.59    7.14
  -2 -11  10   48.19    7.51
  -2 -11  10   48.35    7.39
   1  11 -10   91.34   10.03
   1  11 -10   75.80   14.52
   1  11 -10   95.03    7.27
   1  11 -10   85.59    6.69
  -1 -11  10   94.46    9.90
  -1 -11  10  106.03   11.00
  -1 -11  10  102.27   10.06
  -1 -11  10   90.58    8.11
   0  11 -10  259.69   13.59
   0  11 -10  261.31   15.43
   0  11 -10  199.60   17.75
   0  11 -10  261.14   13.72
   0 -11  10  248.58   14.33
   0 -11  10  228.48   13.31
   0 -11  10  253.39   12.70
   0 -11  10  245.28   12.58
   0 -11  10  192.24   39.88
   0 -11  10  277.66   16.16
  -1  11 -10    6.16    3.70
  -1  11 -10   14.86    4.20
  -1  11 -10   11.67    4.23
  -1  11 -10   10.18    3.63
   1 -11  10   16.74    5.06
   1 -11  10    8.74    3.31
   1 -11  10   14.24    3.85
   1 -11  10    3.42    8.93
   1 -11  10   10.99    3.16
  -2  11 -10   -0.35    2.95
  -2  11 -10    4.07    3.56
  -2  11 -10   -0.62    2.77
  -2  11 -10    0.60    2.81
   2 -11  10    0.89    8.33
   2 -11  10   -0.21    3.00
   2 -11  10    1.28    2.26
   3  10 -10    6.11    7.68
  -3 -10  10   28.43    6.10
  -3 -10  10   13.70    4.97
  -3 -10  10   27.35    6.37
   2  10 -10  200.41   12.32
   2  10 -10  137.49   19.74
  -2 -10  10  203.65   13.46
  -2 -10  10  198.39   13.21
  -2 -10  10  193.86   12.97
  -2 -10  10  204.51   12.40
  -2 -10  10  207.81   11.14
   1  10 -10   65.17    5.64
   1  10 -10   63.52    8.27
   1  10 -10   59.81    5.85
   1  10 -10   78.24   14.12
  -1 -10  10   70.73    8.32
  -1 -10  10   69.78    8.35
  -1 -10  10   66.40    7.60
  -1 -10  10   58.91    7.61
   0  10 -10  223.36   13.81
   0  10 -10  214.23   12.02
   0  10 -10  208.48   11.77
   0  10 -10  191.92   17.03
   0  10 -10  204.95   13.75
   0 -10  10  212.45   12.87
   0 -10  10  223.62   14.17
   0 -10  10  212.12   11.34
   0 -10  10  224.42   12.21
   0 -10  10  234.65   11.85
  -1  10 -10  188.65   12.88
  -1  10 -10  172.09   11.44
  -1  10 -10  165.33   11.11
  -1  10 -10  145.77   11.68
   1 -10  10  167.22   11.06
   1 -10  10  165.44    9.43
   1 -10  10  168.04   12.40
   1 -10  10  127.55   29.08
   1 -10  10  164.42   10.82
  -2  10 -10   96.87   10.36
  -2  10 -10  107.58   11.64
  -2  10 -10  100.71   11.22
  -2  10 -10  111.02    9.80
   2 -10  10   92.44   10.25
   2 -10  10  126.40   12.80
   2 -10  10   68.43   26.17
  -3  10 -10   46.75    8.08
  -3  10 -10   44.74    8.09
  -3  10 -10   50.83    8.44
  -3  10 -10   49.12    8.79
   3 -10  10   43.68    8.28
   3 -10  10   49.30    8.24
   3   9 -10   18.61   10.26
  -3  -9  10   32.26    6.41
  -3  -9  10   35.38    7.18
  -3  -9  10   34.80    6.80
   2   9 -10  212.71   22.83
  -2  -9  10  169.12    9.78
  -2  -9  10  186.15   12.40
  -2  -9  10  178.91   11.96
  -2  -9  10  184.33   11.55
  -2  -9  10  184.06   12.46
   1   9 -10  225.97   10.62
   1   9 -10  229.30   13.26
   1   9 -10  189.25   19.02
   1   9 -10  216.74   10.69
  -1  -9  10  214.13   12.78
  -1  -9  10  215.30    9.63
  -1  -9  10  243.73   13.22
  -1  -9  10  232.84   13.68
  -1  -9  10  224.43   12.88
   0   9 -10 1047.73   40.61
   0   9 -10  989.34   46.76
   0   9 -10 1068.97   37.70
   0   9 -10 1084.93   37.92
   0   9 -10 1045.15   40.14
   0  -9  10 1048.55   37.34
   0  -9  10 1023.28   40.64
   0  -9  10 1041.48   37.72
   0  -9  10 1075.33   37.23
   0  -9  10  963.49   38.50
  -1   9 -10   57.25    7.97
  -1   9 -10   33.92    7.72
  -1   9 -10   47.40    7.48
  -1   9 -10   41.43    6.14
  -1   9 -10   44.01    6.30
   1  -9  10   43.07    4.93
   1  -9  10   43.52    6.14
   1  -9  10   34.72    6.28
   1  -9  10   46.85    3.96
   1  -9  10   49.25    6.61
   1  -9  10   23.45   15.69
  -2   9 -10    3.38    2.87
  -2   9 -10   -0.17    2.06
  -2   9 -10    5.50    3.16
  -2   9 -10    2.60    2.99
   2  -9  10   -2.70    5.45
   2  -9  10    3.07    2.62
   2  -9  10    1.90    3.10
  -3   9 -10   19.71    5.28
  -3   9 -10   30.62    6.85
  -3   9 -10   11.81    4.15
  -3   9 -10   28.72    6.51
   3  -9  10   19.25    5.59
   3  -9  10   15.80    5.15
   3   8 -10    2.54    6.44
  -3  -8  10    2.28    2.80
  -3  -8  10    2.41    2.71
  -3  -8  10    2.20    3.20
   2   8 -10  155.48   19.31
  -2  -8  10  209.62   12.89
  -2  -8  10  203.06   13.05
  -2  -8  10  209.93   12.54
  -2  -8  10  202.91   11.91
  -2  -8  10  210.50   10.21
   1   8 -10  140.28    7.51
   1   8 -10  121.99   15.06
   1   8 -10  155.06   10.25
   1   8 -10  143.67    7.67
  -1  -8  10  140.73    7.05
  -1  -8  10  147.79    9.76
  -1  -8  10  145.33    9.80
  -1  -8  10  141.78    9.70
  -1  -8  10  144.18   10.16
   0   8 -10  678.85   28.53
   0   8 -10  666.05   25.62
   0   8 -10  691.24   25.74
   0   8 -10  660.53   34.95
   0   8 -10  655.39   27.92
   0  -8  10  641.71   25.47
   0  -8  10  650.17   26.79
   0  -8  10  664.65   28.33
   0  -8  10  667.83   25.31
   0  -8  10  675.77   25.65
  -1   8 -10 1076.23   48.21
  -1   8 -10 1156.25   42.32
  -1   8 -10 1166.13   44.01
  -1   8 -10 1192.44   44.44
  -1   8 -10 1177.06   42.53
   1  -8  10 1247.77   43.17
   1  -8  10 1154.17   39.10
   1  -8  10 1151.28   42.21
   1  -8  10 1149.97   39.35
   1  -8  10 1167.16   44.47
  -2   8 -10   39.75    6.40
  -2   8 -10   48.10    7.16
  -2   8 -10   44.29    5.38
  -2   8 -10   44.36    8.71
  -2   8 -10   49.48    7.68
  -2   8 -10   39.42    6.79
   2  -8  10   39.72    6.67
   2  -8  10   32.97    5.77
   2  -8  10   40.25   17.80
  -3   8 -10    3.11    3.43
  -3   8 -10    0.88    2.73
  -3   8 -10    1.81    3.05
  -3   8 -10    0.14    2.38
   3  -8  10   -0.95    2.49
   3  -8  10    0.56    2.46
   3   7 -10   50.40   14.78
  -3  -7  10   46.09    7.14
  -3  -7  10   58.20    8.31
  -3  -7  10   58.86    8.09
   2   7 -10   13.08    6.86
  -2  -7  10   16.63    3.88
  -2  -7  10   17.82    2.91
  -2  -7  10   18.63    4.41
  -2  -7  10   16.37    3.80
  -2  -7  10   16.89    4.41
   1   7 -10  268.81   22.06
   1   7 -10  286.16   11.64
   1   7 -10  312.36   12.13
   1   7 -10  289.13   15.02
   1   7 -10  305.26   12.17
  -1  -7  10  292.75   11.79
  -1  -7  10  274.08   14.52
  -1  -7  10  283.80   14.53
  -1  -7  10  292.30   14.47
  -1  -7  10  297.26   15.33
   0   7 -10  485.54   22.24
   0   7 -10  458.44   27.89
   0   7 -10  516.47   19.86
   0   7 -10  455.72   21.75
   0   7 -10  494.73   21.84
   0   7 -10  510.13   19.80
   0  -7  10  483.69   19.46
   0  -7  10  498.47   20.97
   0  -7  10  473.28   19.74
   0  -7  10  485.05   19.55
   0  -7  10  479.42   22.01
  -1   7 -10  354.36   17.65
  -1   7 -10  339.72   17.08
  -1   7 -10  364.10   18.08
  -1   7 -10  376.57   16.84
  -1   7 -10  341.78   16.48
  -1   7 -10  325.92   21.84
   1  -7  10  355.48   13.91
   1  -7  10  314.68   17.56
   1  -7  10  357.55   16.61
   1  -7  10  338.61   16.67
   1  -7  10  342.51   14.25
  -2   7 -10   49.52    7.15
  -2   7 -10   58.17    6.14
  -2   7 -10   54.51    8.05
  -2   7 -10   60.02    7.82
  -2   7 -10   55.35    9.99
  -2   7 -10   42.59    6.27
   2  -7  10   39.08   16.57
   2  -7  10   63.21    7.85
   2  -7  10   60.22    7.88
  -3   7 -10    5.64    3.72
  -3   7 -10    1.86    2.98
  -3   7 -10    5.05    3.62
  -3   7 -10    6.99    3.83
   3  -7  10    0.26    2.63
   3  -7  10    1.63    2.90
   4   6 -10    5.13    7.51
  -4  -6  10    7.29    4.33
  -4  -6  10    7.25    3.98
  -4  -6  10   10.26    3.81
   3   6 -10    5.35    7.00
  -3  -6  10    5.81    2.88
  -3  -6  10   11.29    3.87
  -3  -6  10   11.31    3.83
   2   6 -10  232.38   22.61
  -2  -6  10  239.36   14.00
  -2  -6  10  225.94   10.05
  -2  -6  10  254.83   12.95
  -2  -6  10  251.11   13.72
  -2  -6  10  244.58   13.07
   1   6 -10    6.96    1.62
   1   6 -10    1.92    1.62
   1   6 -10    5.08    1.72
   1   6 -10    8.06    2.96
   1   6 -10   12.92    6.11
   1   6 -10    6.51    1.75
  -1  -6  10    8.15    2.56
  -1  -6  10    8.85    2.84
  -1  -6  10    4.96    2.21
  -1  -6  10    9.15    1.91
  -1  -6  10   10.47    3.29
   0   6 -10   28.00    4.01
   0   6 -10   23.24    6.86
   0   6 -10   23.17    3.57
   0   6 -10   28.50    5.06
   0   6 -10   25.75    4.69
   0  -6  10   32.85    4.48
   0  -6  10   33.50    4.23
   0  -6  10   23.88    4.73
   0  -6  10   25.21    4.32
   0  -6  10   32.13    4.23
  -1   6 -10   -1.81    1.31
  -1   6 -10    0.13    1.88
  -1   6 -10    0.42    1.82
  -1   6 -10   -1.01    1.49
  -1   6 -10   -1.10    2.66
  -1   6 -10   -0.13    1.69
  -1   6 -10    1.89    1.80
   1  -6  10    1.54    1.81
   1  -6  10   -1.25    1.00
   1  -6  10   -0.42    1.91
   1  -6  10   -0.27    0.66
   1  -6  10    0.65    1.68
  -2   6 -10  141.64   10.20
  -2   6 -10  135.31    8.66
  -2   6 -10  136.10    9.98
  -2   6 -10  134.84    9.04
  -2   6 -10  144.92   10.63
  -2   6 -10  139.31   14.17
   2  -6  10   92.29   18.69
   2  -6  10  137.81    7.12
   2  -6  10  135.38   10.48
   2  -6  10  130.05    9.78
  -3   6 -10    0.41    2.27
  -3   6 -10    1.34    2.69
  -3   6 -10   -2.60    2.19
  -3   6 -10    1.17    3.75
  -3   6 -10   -0.39    2.28
  -3   6 -10   -1.11    1.91
   3  -6  10    0.53    2.34
   3  -6  10    0.32    2.69
   4   5 -10    0.33    6.33
  -4  -5  10   -1.63    2.05
  -4  -5  10    1.37    2.76
  -4  -5  10    2.56    3.24
   3   5 -10   90.00   18.42
  -3  -5  10  110.68   11.48
  -3  -5  10   98.55    8.30
  -3  -5  10  109.22    9.37
   2   5 -10   17.76    4.47
   2   5 -10   20.51    3.80
   2   5 -10   11.94    6.65
  -2  -5  10   20.34    3.91
  -2  -5  10   17.45    1.71
  -2  -5  10   17.99    2.32
  -2  -5  10   14.76    3.67
  -2  -5  10   15.06    3.30
  -2  -5  10   10.94    3.26
   1   5 -10  183.15    7.43
   1   5 -10  171.89   16.86
   1   5 -10  180.45   11.01
   1   5 -10  184.64    8.24
   1   5 -10  182.36   10.71
   1   5 -10  183.60    7.76
  -1  -5  10  191.10   11.04
  -1  -5  10  187.88   10.34
  -1  -5  10  191.57   10.89
  -1  -5  10  184.76   10.18
  -1  -5  10  174.36    8.30
   0   5 -10   63.26    5.15
   0   5 -10   50.21    6.16
   0   5 -10   67.01    7.62
   0   5 -10   60.74   10.88
   0   5 -10   72.10    6.80
   0   5 -10   69.91    5.12
   0  -5  10   57.27    6.11
   0  -5  10   72.12    5.18
   0  -5  10   60.65    5.34
   0  -5  10   63.20    7.37
   0  -5  10   66.13    5.12
  -1   5 -10    5.21    2.50
  -1   5 -10    2.85    1.94
  -1   5 -10    0.36    1.34
  -1   5 -10    9.14    2.99
  -1   5 -10    5.00    2.62
  -1   5 -10    4.95    4.21
   1  -5  10    9.03    2.25
   1  -5  10    5.93    2.40
   1  -5  10    6.25    2.88
   1  -5  10    6.76    1.63
   1  -5  10   10.01    3.03
  -2   5 -10   16.81    3.69
  -2   5 -10   18.71    3.80
  -2   5 -10   23.38    7.19
  -2   5 -10   22.45    4.81
  -2   5 -10   23.26    5.29
  -2   5 -10   19.87    4.37
   2  -5  10   16.53    4.11
   2  -5  10   14.86    3.82
   2  -5  10   23.48    3.35
  -3   5 -10   73.24   13.64
  -3   5 -10   71.13    8.87
  -3   5 -10   71.47    8.51
  -3   5 -10   69.52    7.74
  -3   5 -10   68.21    9.51
  -3   5 -10   75.58    9.67
   3  -5  10   83.36    9.93
   3  -5  10   78.85    9.10
   4   4 -10   -0.22    6.48
  -4  -4  10    2.03    2.82
  -4  -4  10    3.76    3.67
  -4  -4  10    3.29    3.14
  -4  -4  10   -0.47    2.89
   3   4 -10    1.11    4.57
  -3  -4  10    1.54    1.80
  -3  -4  10    2.87    2.15
  -3  -4  10    0.37    2.09
  -3  -4  10    1.62    2.30
   2   4 -10  292.20   15.51
   2   4 -10  242.56   11.30
   2   4 -10  237.36   22.05
  -2  -4  10  279.51    9.72
  -2  -4  10  257.15   10.01
  -2  -4  10  267.86   13.18
  -2  -4  10  250.66   11.51
  -2  -4  10  282.63   14.19
  -2  -4  10  262.90   14.36
   1   4 -10   39.67    2.81
   1   4 -10   37.60    3.23
   1   4 -10   41.01    5.44
   1   4 -10   36.61    9.04
   1   4 -10   38.87    2.14
  -1  -4  10   37.20    5.07
  -1  -4  10   41.31    3.98
  -1  -4  10   41.74    5.15
  -1  -4  10   40.96    4.12
  -1  -4  10   45.66    5.30
  -1  -4  10   34.86    4.65
   0   4 -10    2.80    1.98
   0   4 -10    2.10    1.27
   0   4 -10    4.66    3.58
   0   4 -10    2.41    2.03
   0   4 -10    3.31    1.69
   0   4 -10    3.66    2.19
   0  -4  10    2.44    1.52
   0  -4  10    4.22    2.00
   0  -4  10    2.90    1.85
   0  -4  10    1.63    1.47
  -1   4 -10  149.14    9.55
  -1   4 -10  137.05   13.94
  -1   4 -10  161.49    9.56
  -1   4 -10  142.64    9.52
  -1   4 -10  143.42    8.97
   1  -4  10  146.36    6.59
   1  -4  10  153.92   10.24
   1  -4  10  154.43    9.30
   1  -4  10  152.52    8.40
  -2   4 -10   28.81    5.26
  -2   4 -10   37.09    9.16
  -2   4 -10   39.23    5.87
  -2   4 -10   35.86    6.01
  -2   4 -10   31.69    5.33
  -2   4 -10   42.01    5.52
  -2   4 -10   38.66    5.24
   2  -4  10   36.61    4.44
   2  -4  10   35.22    5.68
   2  -4  10   36.12    5.86
  -3   4 -10    1.02    2.66
  -3   4 -10    1.20    4.35
  -3   4 -10   -0.86    2.53
  -3   4 -10   -1.36    1.91
  -3   4 -10   -1.16    2.13
  -3   4 -10    2.42    2.68
   3  -4  10    2.01    2.41
   3  -4  10   -0.43    2.49
   4   3 -10    2.19    6.55
  -4  -3  10    3.19    2.94
  -4  -3  10    0.06    2.61
  -4  -3  10    0.48    2.75
  -4  -3  10    3.24    2.66
   3   3 -10    4.10    2.69
   3   3 -10    4.34    5.56
  -3  -3  10    7.83    2.84
  -3  -3  10    6.94    3.66
  -3  -3  10    2.71    2.70
  -3  -3  10    7.82    2.42
  -3  -3  10    8.04    3.08
   2   3 -10    4.05    4.64
   2   3 -10    3.24    1.66
   2   3 -10    4.40    2.69
  -2  -3  10    4.59    2.17
  -2  -3  10    3.81    2.30
  -2  -3  10    3.11    1.84
  -2  -3  10    3.74    1.39
  -2  -3  10    1.50    1.76
   1   3 -10   39.95    3.23
   1   3 -10   39.23    5.72
   1   3 -10   35.09    2.70
   1   3 -10   36.46    8.84
   1   3 -10   41.96    5.23
  -1  -3  10   38.43    3.93
  -1  -3  10   36.27    4.39
  -1  -3  10   40.79    5.07
  -1  -3  10   37.71    4.91
  -1  -3  10   35.24    5.07
   0   3 -10   49.37    6.36
   0   3 -10   39.34    4.94
   0   3 -10   35.14    4.24
   0   3 -10   44.77    5.49
   0   3 -10   47.79    9.88
   0   3 -10   51.38    5.93
   0   3 -10   44.08    3.23
   0  -3  10   37.90    4.79
   0  -3  10   48.20    5.93
   0  -3  10   44.24    4.79
   0  -3  10   38.56    4.67
   0  -3  10   47.75    3.98
  -1   3 -10    8.65    2.53
  -1   3 -10    9.89    2.88
  -1   3 -10    6.18    4.03
  -1   3 -10    7.14    2.95
  -1   3 -10    8.26    2.81
  -1   3 -10    8.19    2.93
  -1   3 -10    4.87    2.38
   1  -3  10    4.51    7.28
   1  -3  10   16.68    3.57
   1  -3  10   10.82    1.79
   1  -3  10    7.75    2.32
  -2   3 -10   84.15    9.37
  -2   3 -10   71.56    6.38
  -2   3 -10   63.51    7.19
  -2   3 -10   63.81    7.57
  -2   3 -10   67.70    7.06
  -2   3 -10   46.33   10.26
  -2   3 -10   54.78    6.76
   2  -3  10   73.54    8.33
   2  -3  10   73.21    5.87
   2  -3  10   60.47    7.48
  -3   3 -10    9.12    3.91
  -3   3 -10   11.99    4.49
  -3   3 -10   17.13    7.76
  -3   3 -10   13.26    3.60
  -3   3 -10   13.36    3.97
  -3   3 -10   22.62    5.59
   3  -3  10    9.60    3.77
   3  -3  10   17.68    4.58
   4   2 -10   35.79   13.08
  -4  -2  10   57.65    7.04
  -4  -2  10   55.46    8.16
  -4  -2  10   57.29    8.07
  -4  -2  10   51.28    8.30
   3   2 -10   54.32   14.44
   3   2 -10   37.24    6.09
  -3  -2  10   34.51    6.01
  -3  -2  10   37.37    5.04
  -3  -2  10   33.26    4.34
  -3  -2  10   30.79    5.71
  -3  -2  10   37.05    6.03
   2   2 -10    7.92    3.00
   2   2 -10    7.47    4.93
  -2  -2  10    8.61    2.37
  -2  -2  10    5.99    2.22
  -2  -2  10    6.69    1.23
  -2  -2  10    6.33    2.59
  -2  -2  10    8.39    2.77
  -2  -2  10    3.84    2.67
   1   2 -10  165.49    7.83
   1   2 -10  158.47   15.75
   1   2 -10  164.51    7.07
   1   2 -10  164.42   10.56
   1   2 -10  155.48    9.18
  -1  -2  10  179.56    8.59
  -1  -2  10  178.51    9.02
  -1  -2  10  171.52    9.64
  -1  -2  10  163.44    9.27
  -1  -2  10  158.80    9.78
   0   2 -10  304.96   14.23
   0   2 -10  307.55   11.30
   0   2 -10  304.47   13.26
   0   2 -10  265.43   14.47
   0   2 -10  302.09   21.41
   0   2 -10  295.31   14.15
   0   2 -10  316.71   14.52
   0  -2  10  289.94   13.93
   0  -2  10  319.12   13.65
   0  -2  10  300.53   14.76
   0  -2  10  289.83   13.37
   0  -2  10  305.96   12.76
  -1   2 -10   34.15    4.98
  -1   2 -10   30.09    4.79
  -1   2 -10   30.16    8.06
  -1   2 -10   27.56    4.37
  -1   2 -10   33.31    5.27
  -1   2 -10   33.12    4.85
  -1   2 -10   30.02    4.18
   1  -2  10   33.47    4.65
   1  -2  10   26.68    4.13
   1  -2  10   27.65    2.80
   1  -2  10   24.62   11.75
  -2   2 -10   12.61    3.23
  -2   2 -10   13.56    3.75
  -2   2 -10   15.37    3.72
  -2   2 -10    8.82    5.44
  -2   2 -10   11.08    3.30
  -2   2 -10    9.88    3.46
  -2   2 -10   11.76    3.61
   2  -2  10   12.90    3.57
   2  -2  10   13.31    3.23
  -3   2 -10  129.23   11.35
  -3   2 -10  141.20   11.26
  -3   2 -10  152.35   11.27
  -3   2 -10  141.04   10.92
  -3   2 -10  123.92   16.85
  -3   2 -10  139.70    9.35
   3  -2  10  162.91   11.61
   3  -2  10  153.59   10.55
   4   1 -10    8.69    8.08
  -4  -1  10   13.08    3.63
  -4  -1  10   15.90    4.95
  -4  -1  10    8.31    4.33
  -4  -1  10   11.64    4.36
   3   1 -10    9.07    3.43
   3   1 -10   11.53    7.49
  -3  -1  10   12.97    4.24
  -3  -1  10    8.90    2.68
  -3  -1  10   10.10    3.57
  -3  -1  10    8.80    2.55
  -3  -1  10    9.14    3.42
   2   1 -10  132.15   15.77
   2   1 -10  144.31    9.96
  -2  -1  10  147.35    9.50
  -2  -1  10  141.30   10.12
  -2  -1  10  163.36    9.02
  -2  -1  10  129.72    6.11
  -2  -1  10  129.39    9.32
  -2  -1  10  130.86    7.61
   1   1 -10   13.53    2.32
   1   1 -10   12.82    2.06
   1   1 -10   16.24    3.88
   1   1 -10   14.28    3.02
  -1  -1  10   15.64    2.88
  -1  -1  10   15.01    3.36
  -1  -1  10   15.10    3.30
  -1  -1  10   11.92    2.50
   0   1 -10  239.61   11.61
   0   1 -10  253.44    9.84
   0   1 -10  259.46   12.49
   0   1 -10  250.66   13.51
   0   1 -10  267.64   13.11
   0   1 -10  241.13   19.32
   0  -1  10  270.85   13.63
   0  -1  10  250.10   11.89
   0  -1  10  267.53   12.89
   0  -1  10  247.83   12.00
  -1   1 -10   10.05    2.89
  -1   1 -10    5.61    2.53
  -1   1 -10    6.55    4.47
  -1   1 -10    6.05    2.52
  -1   1 -10   10.64    2.75
  -1   1 -10   11.53    3.27
  -1   1 -10   11.58    2.72
   1  -1  10   12.20    3.06
   1  -1  10    8.06    1.83
   1  -1  10    7.91    2.49
   1  -1  10    9.61    7.75
  -2   1 -10  378.17   17.62
  -2   1 -10  329.28   17.28
  -2   1 -10  350.15   17.21
  -2   1 -10  376.34   16.36
  -2   1 -10  366.06   26.38
  -2   1 -10  371.80   17.97
  -2   1 -10  376.38   18.78
   2  -1  10  373.22   17.11
   2  -1  10  373.38   17.98
  -3   1 -10    3.57    3.13
  -3   1 -10    2.18    2.63
  -3   1 -10   -0.39    2.48
  -3   1 -10    2.58    2.87
   3  -1  10    4.07    3.04
   3  -1  10    5.43    2.88
   4   0 -10   -2.19    6.49
  -4   0  10    4.69    3.28
  -4   0  10    5.08    3.74
  -4   0  10    3.53    3.00
   3   0 -10  354.90   17.24
   3   0 -10  265.21   25.90
  -3   0  10  377.00   18.05
  -3   0  10  311.19   17.11
  -3   0  10  328.45   18.27
  -3   0  10  343.81   15.69
  -3   0  10  332.99   14.41
   2   0 -10   18.56    7.17
   2   0 -10   27.55    1.95
   2   0 -10   14.20    3.94
  -2   0  10   25.94    4.28
  -2   0  10   20.26    4.08
  -2   0  10   27.81    3.53
  -2   0  10   29.85    5.53
   1   0 -10  579.70   20.93
   1   0 -10  417.83   51.55
   1   0 -10  558.49   20.08
   1   0 -10  480.49   30.39
   1   0 -10  560.52   19.27
   1   0 -10  517.59   22.91
  -1   0  10  547.34   22.84
  -1   0  10  553.40   20.02
  -1   0  10  540.56   22.39
  -1   0  10  568.24   22.49
   0   0 -10   87.89    4.77
   0   0 -10   88.64    6.13
   0   0 -10   90.85    7.62
   0   0 -10   93.59    6.47
   0   0  10   85.31    6.73
   0   0  10   79.79    6.90
   0   0  10   76.17    6.11
  -1   0 -10   35.82    8.94
  -1   0 -10   34.33    5.14
  -1   0 -10   30.34    5.10
  -1   0 -10   34.09    4.41
  -1   0 -10   36.18    5.31
  -1   0 -10   41.32    5.36
   1   0  10   38.98    5.24
   1   0  10   37.27    5.83
   1   0  10   38.27    3.75
   1   0  10   22.61   11.04
  -2   0 -10   42.51    6.16
  -2   0 -10   45.99   11.23
  -2   0 -10   44.96    6.26
  -2   0 -10   51.23    5.52
  -2   0 -10   47.55    6.35
  -2   0 -10   47.07    6.73
  -2   0 -10   51.14    6.85
   2   0  10   45.53    6.46
   2   0  10   50.52    6.42
  -3   0 -10   10.69    4.32
  -3   0 -10    5.15    3.53
  -3   0 -10   14.76    4.47
  -3   0 -10   14.58    4.51
   3   0  10    8.52    3.64
   4  -1 -10  255.04   28.56
  -4   1  10  310.23   18.00
  -4   1  10  352.41   20.30
  -4   1  10  365.09   19.26
   3  -1 -10   20.47    4.58
   3  -1 -10   19.45    8.40
  -3   1  10   18.72    4.79
  -3   1  10   15.64    4.55
  -3   1  10   18.30    3.82
  -3   1  10   17.04    3.11
  -3   1  10   19.05    4.47
   2  -1 -10   29.88    2.62
   2  -1 -10   13.26   12.75
   2  -1 -10   29.53    5.08
   2  -1 -10   16.70    6.66
  -2   1  10   27.29    4.80
  -2   1  10   27.68    2.16
  -2   1  10   32.99    3.55
  -2   1  10   29.71    2.18
  -2   1  10   30.02    2.94
  -2   1  10   29.57    3.63
  -2   1  10   34.99    5.69
  -2   1  10   23.90    4.44
   1  -1 -10  180.27    8.86
   1  -1 -10  174.04    8.28
   1  -1 -10  167.64   31.69
   1  -1 -10  169.34   16.48
   1  -1 -10  167.41   10.88
   1  -1 -10  179.27    9.00
  -1   1  10  174.42    8.59
  -1   1  10  173.33    6.35
  -1   1  10  179.89   10.63
  -1   1  10  181.99    8.37
  -1   1  10  171.83   10.95
  -1   1  10  188.52   10.93
   0  -1 -10   80.53    7.52
   0  -1 -10   99.15    6.60
   0  -1 -10   92.34    5.15
   0  -1 -10  105.99    6.87
   0  -1 -10   92.19   21.79
   0   1  10   75.21    6.54
   0   1  10   86.96    7.35
   0   1  10   90.81    5.20
   0   1  10   95.45    6.90
  -1  -1 -10 1735.52   71.49
  -1  -1 -10 1460.01   90.71
  -1  -1 -10 1756.23   58.83
  -1  -1 -10 1726.22   58.62
  -1  -1 -10 1748.60   60.17
  -1  -1 -10 1753.24   58.28
  -1  -1 -10 1724.37   56.71
   1   1  10 1694.79   55.39
   1   1  10 1719.52   60.01
   1   1  10 1628.60   94.89
   1   1  10 1781.88   59.00
  -2  -1 -10  171.47   10.95
  -2  -1 -10  157.11   17.57
  -2  -1 -10  160.14   10.60
  -2  -1 -10  173.60   11.75
  -2  -1 -10  156.27   11.15
  -2  -1 -10  166.77   11.38
   2   1  10  153.66   10.54
   2   1  10  161.04   11.65
   2   1  10  174.02   11.03
  -3  -1 -10  185.95   12.95
  -3  -1 -10  164.78   11.81
  -3  -1 -10  150.46   12.50
  -3  -1 -10  138.86   11.60
  -3  -1 -10  180.11   12.14
   3   1  10  157.91   11.78
   4  -2 -10   64.43   16.94
  -4   2  10  110.94   11.54
  -4   2  10  126.80   11.86
  -4   2  10  116.41   10.09
   3  -2 -10   39.58   11.35
   3  -2 -10   68.52    8.03
  -3   2  10   65.00    8.03
  -3   2  10   69.33    7.92
  -3   2  10   65.17    8.82
   2  -2 -10   26.02    3.32
   2  -2 -10   33.81    4.00
   2  -2 -10   14.90   14.52
   2  -2 -10   31.52    9.09
   2  -2 -10   25.89    5.00
  -2   2  10   25.99    4.97
  -2   2  10   28.54    4.95
  -2   2  10   24.35    4.69
  -2   2  10   33.62    2.88
  -2   2  10   29.22    3.50
   1  -2 -10   65.29   24.36
   1  -2 -10   75.67   11.02
   1  -2 -10   74.70    5.76
   1  -2 -10   75.75    7.28
  -1   2  10   84.22    7.39
  -1   2  10   91.97    7.24
  -1   2  10   89.17    7.35
  -1   2  10   81.36    5.07
  -1   2  10   79.33    4.18
   0  -2 -10  187.89   17.61
   0  -2 -10  186.88   31.37
   0  -2 -10  215.68   11.69
   0  -2 -10  201.09   10.20
   0  -2 -10  216.91    9.36
   0  -2 -10  199.77   10.73
   0   2  10  210.47   11.27
   0   2  10  205.53   11.63
  -1  -2 -10  658.49   26.34
  -1  -2 -10  675.99   26.84
  -1  -2 -10  643.92   27.82
  -1  -2 -10  644.56   24.83
  -1  -2 -10  661.94   26.21
  -1  -2 -10  609.42   36.35
   1   2  10  620.82   25.92
   1   2  10  665.58   27.70
   1   2  10  686.58   27.06
  -2  -2 -10   85.19   15.65
  -2  -2 -10  106.78    9.23
  -2  -2 -10  104.72    8.44
  -2  -2 -10  114.63    8.89
  -2  -2 -10  100.30    8.96
  -2  -2 -10   91.09    9.57
   2   2  10  112.61    8.97
   2   2  10   81.29    8.69
   2   2  10  100.63    9.06
  -3  -2 -10   22.85    5.46
  -3  -2 -10   13.33    4.28
  -3  -2 -10   12.38    5.21
  -3  -2 -10   24.33    5.64
  -3  -2 -10   14.14    4.96
   3   2  10   18.06    4.86
   4  -3 -10   36.89   13.03
  -4   3  10   77.13    9.12
  -4   3  10   69.84    9.82
  -4   3  10   62.17    9.09
  -4   3  10   73.21    8.97
  -4   3  10   58.61    8.46
  -4   3  10   70.60   10.15
   3  -3 -10   82.74   33.84
   3  -3 -10   84.33   16.25
   3  -3 -10  108.37    8.79
  -3   3  10   83.48    8.89
  -3   3  10   98.34   11.04
  -3   3  10   83.14    9.14
   2  -3 -10  332.22   16.90
   2  -3 -10  260.59   22.74
  -2   3  10  329.19   13.72
  -2   3  10  348.63   17.79
  -2   3  10  321.82   11.49
  -2   3  10  299.96   15.93
  -2   3  10  321.04   16.38
   1  -3 -10  308.14   11.70
   1  -3 -10  309.07   22.92
   1  -3 -10  304.83   12.15
   1  -3 -10  307.10   13.93
   1  -3 -10  305.50   16.37
   1  -3 -10  318.96   11.98
   1  -3 -10  244.23   40.03
  -1   3  10  306.35   11.85
  -1   3  10  317.78   15.54
  -1   3  10  327.55   14.02
  -1   3  10  295.30   15.51
  -1   3  10  299.88   12.00
  -1   3  10  290.53   15.54
   0  -3 -10   74.41    5.59
   0  -3 -10   70.54    5.06
   0  -3 -10   65.25   12.63
   0  -3 -10   56.32    6.53
   0  -3 -10   78.79    6.40
   0   3  10   77.02    6.48
   0   3  10   73.81    7.97
  -1  -3 -10  664.14   38.40
  -1  -3 -10  687.51   29.11
  -1  -3 -10  676.18   26.79
  -1  -3 -10  656.75   26.59
  -1  -3 -10  667.74   27.35
  -1  -3 -10  672.49   25.87
  -1  -3 -10  616.97   55.73
   1   3  10  646.36   27.42
   1   3  10  687.01   28.39
   1   3  10  637.36   26.60
  -2  -3 -10   -2.21    3.76
  -2  -3 -10    0.42    2.62
  -2  -3 -10    3.41    2.86
  -2  -3 -10    4.79    3.21
  -2  -3 -10    5.19    2.85
  -2  -3 -10   -0.90    1.66
   2   3  10    2.59    2.62
   2   3  10    0.74    2.36
   2   3  10    1.96    2.52
  -3  -3 -10    7.10    4.04
  -3  -3 -10    4.29    3.19
  -3  -3 -10    3.95    3.58
  -3  -3 -10    5.60    3.74
  -3  -3 -10    6.78    3.64
   3   3  10    9.09    3.90
   4  -4 -10   31.70   12.15
   4  -4 -10    5.54   17.27
  -4   4  10   29.59    6.01
  -4   4  10   30.69    7.03
  -4   4  10   40.01    6.96
  -4   4  10   30.67    7.08
   3  -4 -10  108.24   15.61
   3  -4 -10   66.07   30.31
   3  -4 -10  137.84    9.91
  -3   4  10  121.93   10.66
  -3   4  10  113.48    9.54
  -3   4  10  115.72    9.32
   2  -4 -10   24.64    8.00
   2  -4 -10   19.92   15.98
   2  -4 -10   34.36    5.97
  -2   4  10   28.96    5.40
  -2   4  10   28.75    4.13
  -2   4  10   35.69    6.07
  -2   4  10   28.84    5.49
   1  -4 -10   88.81    5.53
   1  -4 -10   90.57    4.58
   1  -4 -10   87.43    9.79
   1  -4 -10   90.50    7.23
   1  -4 -10   63.28   25.34
   1  -4 -10   84.64   12.10
   1  -4 -10   84.09    4.76
  -1   4  10   92.10    4.93
  -1   4  10   94.30    7.99
  -1   4  10   85.81    6.61
  -1   4  10   82.27    7.59
  -1   4  10  100.03    7.96
   0  -4 -10   16.34    6.79
   0  -4 -10    6.94    2.56
   0  -4 -10   10.95    2.64
   0  -4 -10    7.07    3.24
   0  -4 -10    7.51    2.68
   0  -4 -10   13.36    2.80
   0  -4 -10   19.36   14.63
   0   4  10    9.93    3.10
   0   4  10   11.52    3.85
   0   4  10   10.37    2.13
  -1  -4 -10  404.97   21.00
  -1  -4 -10  391.32   18.36
  -1  -4 -10  416.67   18.93
  -1  -4 -10  386.49   17.77
  -1  -4 -10  423.56   19.62
  -1  -4 -10  400.43   28.89
   1   4  10  411.36   19.76
   1   4  10  391.64   18.71
   1   4  10  412.87   20.13
  -2  -4 -10  105.47    8.81
  -2  -4 -10  108.15    9.40
  -2  -4 -10   85.97    9.31
  -2  -4 -10  105.74    9.38
  -2  -4 -10   70.84   14.99
  -2  -4 -10  108.98   10.25
   2   4  10  109.53    9.57
   2   4  10  105.96    8.86
   2   4  10   94.17    9.98
  -3  -4 -10   39.53    7.56
  -3  -4 -10   48.15    7.84
  -3  -4 -10   56.35    7.94
  -3  -4 -10   33.78    7.19
  -3  -4 -10   33.50    6.68
   3   4  10   40.66    6.70
   4  -5 -10    7.81   16.76
   4  -5 -10   10.08    8.31
  -4   5  10   11.31    4.08
  -4   5  10   18.62    5.51
  -4   5  10   26.45    5.91
  -4   5  10   15.15    5.37
   3  -5 -10   14.45   17.43
   3  -5 -10   37.84   10.89
   3  -5 -10   50.53    7.23
  -3   5  10   45.90    7.67
  -3   5  10   46.11    6.70
  -3   5  10   54.26    7.93
   2  -5 -10    6.76    5.24
   2  -5 -10   10.63   13.18
   2  -5 -10    4.77    2.80
  -2   5  10    7.86    3.28
  -2   5  10    0.10    2.22
  -2   5  10    7.61    3.53
  -2   5  10    8.21    2.69
   1  -5 -10    5.64    3.19
   1  -5 -10    5.87    2.68
   1  -5 -10    3.31   10.00
   1  -5 -10    3.29    1.73
   1  -5 -10    3.45    4.37
   1  -5 -10    4.86    1.26
  -1   5  10    3.97    2.29
  -1   5  10    3.37    2.42
  -1   5  10    1.97    2.23
  -1   5  10    5.33    2.75
   0  -5 -10   -1.78    1.65
   0  -5 -10    0.02    1.68
   0  -5 -10   -0.54    3.34
   0  -5 -10   -0.24    1.99
   0  -5 -10   -2.06    7.21
   0  -5 -10    1.83    1.50
   0  -5 -10   -0.31    1.37
   0   5  10    1.36    2.40
   0   5  10   -1.10    1.43
   0   5  10    0.50    1.89
  -1  -5 -10   25.28    4.80
  -1  -5 -10   21.44    5.22
  -1  -5 -10   29.96    4.94
  -1  -5 -10   21.37    4.47
  -1  -5 -10   20.53    8.25
  -1  -5 -10   14.17   12.90
  -1  -5 -10   26.76    5.21
   1   5  10   19.33    4.67
   1   5  10   24.57    5.29
   1   5  10   27.31    5.09
  -2  -5 -10  144.56   10.70
  -2  -5 -10  135.73   11.92
  -2  -5 -10  162.34   11.35
  -2  -5 -10  134.27   18.53
  -2  -5 -10  148.31   11.41
  -2  -5 -10  146.38   11.16
   2   5  10  121.47   10.63
   2   5  10  151.41   10.76
   2   5  10  125.54   10.91
  -3  -5 -10    2.02    3.67
  -3  -5 -10    2.89    3.86
  -3  -5 -10    6.44    4.08
  -3  -5 -10    6.49    3.77
  -3  -5 -10    1.82    2.90
   3   5  10    8.39    3.86
   3  -6 -10    0.10    4.63
   3  -6 -10    5.57    3.60
   3  -6 -10    5.06   13.21
  -3   6  10    9.14    3.88
  -3   6  10    6.18    3.73
  -3   6  10    0.21    2.38
  -3   6  10    2.16    2.93
   2  -6 -10    7.65    3.57
   2  -6 -10    4.17    4.59
   2  -6 -10    0.79    9.09
  -2   6  10   10.74    3.17
  -2   6  10    9.89    3.91
  -2   6  10    8.92    3.49
  -2   6  10    7.03    3.83
   1  -6 -10   58.22   27.45
   1  -6 -10   97.56    6.64
   1  -6 -10  102.51    9.52
   1  -6 -10   86.71    7.28
   1  -6 -10   75.80   13.62
  -1   6  10   95.19    8.64
  -1   6  10   95.03    7.71
  -1   6  10   86.99    9.37
  -1   6  10  101.50    8.40
   0  -6 -10   17.76    7.54
   0  -6 -10   21.79    3.56
   0  -6 -10   19.15    5.46
   0  -6 -10   10.15   12.74
   0  -6 -10   20.86    4.61
   0  -6 -10   16.92    3.66
   0  -6 -10   15.10    3.83
   0   6  10   21.91    4.18
   0   6  10   14.19    3.76
   0   6  10   18.27    4.27
   0   6  10   18.70    4.67
  -1  -6 -10  188.27   13.63
  -1  -6 -10  158.22   10.34
  -1  -6 -10  142.89   10.56
  -1  -6 -10  152.38   10.46
  -1  -6 -10  175.12   11.67
  -1  -6 -10  129.51   29.67
  -1  -6 -10  153.35   18.34
   1   6  10  162.99   11.20
   1   6  10  188.92   12.45
   1   6  10  164.28   11.98
  -2  -6 -10  107.18   12.44
  -2  -6 -10  105.84    9.69
  -2  -6 -10   94.75   18.55
  -2  -6 -10  121.58   12.31
  -2  -6 -10   91.39    9.95
  -2  -6 -10  107.45   10.92
   2   6  10   93.04    9.77
   2   6  10  114.37   10.25
   3  -7 -10   42.66    7.13
   3  -7 -10   30.58    9.67
   3  -7 -10    9.13   15.94
  -3   7  10   27.49    6.22
  -3   7  10   37.28    6.41
  -3   7  10   32.74    5.99
  -3   7  10   46.63    8.34
  -3   7  10   22.71    5.78
   2  -7 -10   75.15   14.00
   2  -7 -10   31.40   21.40
   2  -7 -10   76.95    9.79
  -2   7  10   75.92    8.68
  -2   7  10   69.83    7.71
  -2   7  10   81.84    9.98
  -2   7  10   63.67    8.73
   1  -7 -10   25.50    4.20
   1  -7 -10   10.92   15.50
   1  -7 -10   26.00    5.98
   1  -7 -10   24.55    4.55
   1  -7 -10   23.20    8.09
  -1   7  10   26.95    5.18
  -1   7  10   19.15    4.54
  -1   7  10   20.01    4.94
  -1   7  10   14.95    4.02
   0  -7 -10  172.25    9.17
   0  -7 -10  191.21   11.52
   0  -7 -10  169.01    8.96
   0  -7 -10  174.36   10.35
   0  -7 -10  170.45   13.21
   0  -7 -10  108.66   33.71
   0  -7 -10  165.63   18.39
   0   7  10  179.93   11.94
   0   7  10  179.59   10.94
   0   7  10  174.35   12.43
   0   7  10  175.38   12.08
  -1  -7 -10   36.70    6.34
  -1  -7 -10   42.64   11.76
  -1  -7 -10   20.26   15.33
  -1  -7 -10   47.54    6.40
  -1  -7 -10   42.47    6.42
  -1  -7 -10   38.64    6.21
  -1  -7 -10   40.54    7.62
   1   7  10   44.40    6.79
   1   7  10   52.81    7.61
   1   7  10   50.66    7.87
  -2  -7 -10    9.59    4.01
  -2  -7 -10   11.42    7.80
  -2  -7 -10   12.45    4.39
  -2  -7 -10   10.33    4.14
  -2  -7 -10    6.06    3.36
  -2  -7 -10    7.45    4.59
   2   7  10   10.77    4.26
   2   7  10    1.97    2.75
   3  -8 -10   -4.02    9.96
   3  -8 -10    0.86    2.91
  -3   8  10   -0.39    2.53
  -3   8  10   -0.84    3.13
  -3   8  10   -0.36    2.81
  -3   8  10    2.76    2.83
  -3   8  10    1.34    2.71
   2  -8 -10   52.36   11.80
   2  -8 -10   29.48   22.43
   2  -8 -10   52.48    8.58
  -2   8  10   42.76    7.37
  -2   8  10   66.96    8.07
  -2   8  10   53.42    8.63
  -2   8  10   58.72    7.61
  -2   8  10   58.98    8.54
   1  -8 -10    0.36    2.02
   1  -8 -10    2.00    2.24
   1  -8 -10    0.31    3.74
   1  -8 -10   -0.18    2.53
   1  -8 -10    2.64   11.14
  -1   8  10    0.28    2.22
  -1   8  10    2.53    2.75
  -1   8  10   -0.02    2.15
  -1   8  10   -0.05    2.65
  -1   8  10    1.29    2.35
   0  -8 -10    3.30    4.97
   0  -8 -10    0.46    1.95
   0  -8 -10   -0.36    9.28
   0  -8 -10    1.70    2.36
   0  -8 -10   -0.74    2.50
   0   8  10   -0.55    2.32
   0   8  10   -2.44    1.78
   0   8  10   -0.98    1.95
   0   8  10    0.20    1.89
   0   8  10   -1.52    1.84
  -1  -8 -10  100.58   10.69
  -1  -8 -10   81.61    9.46
  -1  -8 -10   95.42    9.81
  -1  -8 -10  101.92    8.03
  -1  -8 -10   73.03   15.25
  -1  -8 -10   86.41   11.34
  -1  -8 -10   91.84    7.83
  -1  -8 -10   46.61   23.74
   1   8  10   95.97   11.09
   1   8  10  101.53   10.75
   1   8  10   90.04   10.32
  -2  -8 -10    9.37    7.41
  -2  -8 -10    1.15    3.24
  -2  -8 -10    6.31    3.69
  -2  -8 -10    9.94    3.89
  -2  -8 -10    3.37    3.61
  -2  -8 -10    2.25    4.14
  -2  -8 -10    1.26    2.76
   2   8  10    8.18    3.55
   2   8  10    6.16    3.72
   2  -9 -10   -0.24    4.27
   2  -9 -10    8.60   15.45
   2  -9 -10    4.91    4.04
  -2   9  10   -0.74    2.37
  -2   9  10    2.38    2.52
  -2   9  10   -2.18    1.88
  -2   9  10    2.18    3.00
  -2   9  10   -2.00    2.37
   1  -9 -10   46.13   11.28
   1  -9 -10   46.86    6.45
   1  -9 -10   33.18   23.11
   1  -9 -10   52.73    8.98
   1  -9 -10   72.54    7.81
  -1   9  10   46.75    7.37
  -1   9  10   57.40    7.94
  -1   9  10   46.62    7.37
  -1   9  10   49.71    8.02
  -1   9  10   58.25    8.01
   0  -9 -10   -2.52    1.85
   0  -9 -10    1.78    5.07
   0  -9 -10    0.27    1.99
   0  -9 -10    3.66   11.08
   0  -9 -10    3.23    3.45
   0   9  10    1.40    2.26
   0   9  10   -0.97    2.50
   0   9  10   -0.06    2.19
   0   9  10    0.93    2.58
   0   9  10   -2.23    1.78
  -1  -9 -10   -0.24    2.35
  -1  -9 -10    0.63    4.62
  -1  -9 -10    1.84    3.27
  -1  -9 -10    0.09    9.87
  -1  -9 -10    2.21    2.39
  -1  -9 -10   -2.99    1.86
  -1  -9 -10   -1.42    2.11
   1   9  10   -2.24    2.41
   1   9  10    0.13    2.60
   1   9  10   -0.17    2.58
   2 -10 -10    0.37    3.16
   2 -10 -10   -2.41   11.84
  -2  10  10   -1.01    2.90
  -2  10  10   -0.11    2.50
  -2  10  10   -1.19    2.22
  -2  10  10   -0.81    2.72
  -2  10  10    0.59    2.63
   1 -10 -10   15.89    4.44
   1 -10 -10    8.71   16.82
   1 -10 -10   20.91    4.64
   1 -10 -10   14.21    7.12
   1 -10 -10   20.95    5.83
  -1  10  10   14.53    4.83
  -1  10  10   20.06    5.38
  -1  10  10   12.41    4.35
  -1  10  10   20.61    4.99
  -1  10  10   17.71    4.94
   0 -10 -10   74.53   32.38
   0 -10 -10  131.10   10.03
   0 -10 -10   87.67   11.81
   0 -10 -10  122.08    9.70
   0 -10 -10  119.13   19.65
   0  10  10  122.35   10.92
   0  10  10  115.96    9.35
   0  10  10  112.03   12.62
   0  10  10  109.71   12.10
  -1 -10 -10   31.68    6.23
  -1 -10 -10   11.35   15.47
  -1 -10 -10   32.32    8.20
  -1 -10 -10   24.70    9.97
  -1 -10 -10   37.33    6.72
   1  10  10   34.83    7.13
   1  10  10   26.19    6.31
   1  10  10   22.44    5.66
   1 -11 -10   -3.58    9.93
   1 -11 -10   -0.35    3.55
   1 -11 -10   -0.65    2.32
  -1  11  10   -2.21    2.70
  -1  11  10   -0.83    2.49
  -1  11  10   -0.80    2.24
  -1  11  10    3.92    3.00
  -1  11  10   -1.74    2.96
   0 -11 -10    2.96    5.70
   0 -11 -10   -0.44    2.91
   0 -11 -10   -1.75    2.64
   0 -11 -10    6.38   14.29
   0 -11 -10    4.00    3.99
   0  11  10    4.84    3.74
   0  11  10    5.46    4.02
   0  11  10   -0.42    2.61
  -1 -14  11   16.24   18.54
   0  14 -11  116.62   10.01
   0  14 -11   90.10   11.37
   0  14 -11  100.69   10.29
   0 -14  11  102.00   12.46
   0 -14  11   85.69   34.65
   0 -14  11  103.73   10.87
   0 -14  11  116.91   12.09
   1  13 -11   13.27    4.92
  -1 -13  11    9.95    4.25
  -1 -13  11    8.51    3.79
  -1 -13  11    8.85   14.35
  -1 -13  11    5.13    3.70
  -1 -13  11    7.10    3.83
   0  13 -11   -0.73    2.79
   0  13 -11    1.59    2.72
   0  13 -11    1.00    2.39
   0 -13  11   -1.55    7.74
   0 -13  11    2.79    2.87
   0 -13  11   -2.34    2.49
   0 -13  11   -1.52    2.48
  -1  13 -11    1.70    2.94
  -1  13 -11    2.81    3.50
  -1  13 -11    0.43    3.01
  -1  13 -11    3.00    3.05
   1 -13  11    4.72    3.80
   1 -13  11    2.90    3.02
   1 -13  11    2.25    2.84
   1 -13  11    1.18   13.36
   2  12 -11    9.78    3.77
   2  12 -11    3.39    5.89
  -2 -12  11    8.29    3.77
  -2 -12  11    9.94    3.97
  -2 -12  11    9.59    4.29
  -2 -12  11    4.59    3.88
   1  12 -11  122.17    8.80
   1  12 -11   75.83   15.52
   1  12 -11  108.19   11.70
  -1 -12  11  117.78   10.08
  -1 -12  11  118.32   10.48
  -1 -12  11  126.65    9.97
  -1 -12  11  108.13   11.09
   0  12 -11   51.54    6.58
   0  12 -11   52.15    7.00
   0  12 -11   61.71    9.00
   0 -12  11   37.06    6.30
   0 -12  11   51.43    7.65
   0 -12  11   46.01    7.90
   0 -12  11   32.88   22.06
   0 -12  11   47.05    6.74
   0 -12  11   47.47    6.11
  -1  12 -11   24.09    5.51
  -1  12 -11   14.12    4.94
  -1  12 -11   28.38    6.13
  -1  12 -11   24.38    6.43
   1 -12  11   23.29    5.12
   1 -12  11   25.67    6.17
   1 -12  11   19.72    4.24
   1 -12  11   24.49    5.35
   1 -12  11   22.00   18.54
  -2  12 -11    5.13    3.81
  -2  12 -11    4.25    3.62
  -2  12 -11    5.00    4.00
  -2  12 -11    0.59    3.34
   2 -12  11   11.58    4.43
   2 -12  11    3.20    3.75
   2 -12  11    2.34   10.55
   2  11 -11   89.20    9.83
  -2 -11  11   94.71   10.91
  -2 -11  11   85.75    9.56
  -2 -11  11   73.15    9.11
  -2 -11  11   74.49    9.61
   1  11 -11  239.63   14.84
   1  11 -11  242.40   12.15
   1  11 -11  208.20   21.60
   1  11 -11  254.90   12.67
  -1 -11  11  251.08   14.75
  -1 -11  11  229.93   13.95
  -1 -11  11  238.61   15.09
  -1 -11  11  244.75   14.49
   0  11 -11   -0.16    2.17
   0  11 -11    2.38    2.37
   0  11 -11    1.51    2.92
   0  11 -11    0.85    2.37
   0  11 -11    0.11    3.48
   0 -11  11    2.13    2.71
   0 -11  11    0.42    2.18
   0 -11  11    2.53    2.06
   0 -11  11    3.27    2.74
   0 -11  11    2.70    2.03
  -1  11 -11   36.48    6.34
  -1  11 -11   17.11    5.22
  -1  11 -11   26.47    5.49
  -1  11 -11   19.07    5.46
   1 -11  11   26.53    6.16
   1 -11  11   18.36   15.38
   1 -11  11   33.13    4.97
   1 -11  11   35.46    6.18
   1 -11  11   22.61    5.05
  -2  11 -11    0.51    3.27
  -2  11 -11    0.91    2.77
  -2  11 -11   -3.13    2.36
  -2  11 -11    3.88    3.50
   2 -11  11   -1.46    2.83
   2 -11  11   -0.22    9.23
   2 -11  11    3.44    3.19
   3  10 -11   15.07    9.68
  -3 -10  11   34.41    6.92
  -3 -10  11   33.06    6.51
  -3 -10  11   18.76    5.63
   2  10 -11   63.15   15.20
  -2 -10  11   94.49   10.31
  -2 -10  11   73.09    8.68
  -2 -10  11   82.31    9.53
  -2 -10  11   88.78   10.22
   1  10 -11  132.08    8.16
   1  10 -11  129.54    7.99
   1  10 -11  108.01   15.25
   1  10 -11  139.77   10.58
  -1 -10  11  126.12    9.58
  -1 -10  11  122.09    9.70
  -1 -10  11  114.96    9.92
  -1 -10  11  140.40   10.28
   0  10 -11    2.58    2.80
   0  10 -11    7.85    3.05
   0  10 -11    6.75    2.73
   0  10 -11    0.91    2.57
   0  10 -11    5.44    4.63
   0 -10  11    3.30    2.64
   0 -10  11    2.40    2.34
   0 -10  11    3.93    2.25
   0 -10  11    7.62    3.76
   0 -10  11    1.67    2.00
  -1  10 -11    2.80    3.04
  -1  10 -11    3.22    2.72
  -1  10 -11    2.73    3.00
  -1  10 -11    2.65    2.59
   1 -10  11    0.38    2.01
   1 -10  11    2.91    2.03
   1 -10  11    2.15    9.19
   1 -10  11    0.95    2.67
   1 -10  11    0.78    2.27
  -2  10 -11   61.70    8.21
  -2  10 -11   53.41    8.55
  -2  10 -11   72.04    9.17
  -2  10 -11   47.38    8.15
   2 -10  11   50.68    8.04
   2 -10  11   40.80    6.97
   2 -10  11   37.26   20.07
   3   9 -11   -1.59    6.67
  -3  -9  11    3.82    3.56
  -3  -9  11   -0.97    2.93
  -3  -9  11    4.22    2.86
   2   9 -11   41.91   12.65
  -2  -9  11   54.51    7.77
  -2  -9  11   44.82    7.24
  -2  -9  11   53.73    6.98
  -2  -9  11   45.82    6.67
  -2  -9  11   46.89    6.88
   1   9 -11  157.47    8.58
   1   9 -11  140.49   10.68
   1   9 -11  128.64   16.41
   1   9 -11  153.34    8.37
  -1  -9  11  165.27    8.60
  -1  -9  11  168.50   10.95
  -1  -9  11  154.21   11.28
  -1  -9  11  143.28   10.21
  -1  -9  11  162.73   10.66
   0   9 -11  180.54   12.48
   0   9 -11  133.32   14.99
   0   9 -11  184.01   10.38
   0   9 -11  173.10   10.16
   0   9 -11  176.88   12.19
   0  -9  11  166.60    9.81
   0  -9  11  162.65   11.00
   0  -9  11  175.84   10.09
   0  -9  11  168.95   10.07
   0  -9  11  167.86   12.04
  -1   9 -11  137.19    9.69
  -1   9 -11  136.88   10.76
  -1   9 -11  121.65    9.36
  -1   9 -11  105.31   10.04
  -1   9 -11  122.83   13.10
   1  -9  11  120.09   28.95
   1  -9  11  125.98    9.70
   1  -9  11  129.56    7.32
   1  -9  11  124.61    9.34
   1  -9  11  137.95   11.13
   1  -9  11  120.58    7.52
  -2   9 -11    6.05    3.86
  -2   9 -11    7.79    4.16
  -2   9 -11    4.68    3.24
  -2   9 -11    6.41    3.50
   2  -9  11    5.10    3.14
   2  -9  11    4.13    9.16
   2  -9  11    9.14    3.91
  -3   9 -11   43.31    7.81
  -3   9 -11   59.69    8.96
  -3   9 -11   46.51    8.17
  -3   9 -11   49.97    8.22
   3  -9  11   66.67    9.37
   3  -9  11   43.66    7.84
   3   8 -11   61.64   16.72
  -3  -8  11   68.92    8.95
  -3  -8  11   62.62    9.07
  -3  -8  11   68.78    8.57
   2   8 -11   39.69   12.02
  -2  -8  11   43.06    6.85
  -2  -8  11   39.68    6.47
  -2  -8  11   43.21    4.99
  -2  -8  11   36.45    5.85
  -2  -8  11   31.07    5.83
   1   8 -11 1410.65   46.04
   1   8 -11 1392.79   46.03
   1   8 -11 1444.80   50.60
   1   8 -11 1317.78   62.52
  -1  -8  11 1398.51   45.59
  -1  -8  11 1333.35   49.03
  -1  -8  11 1401.13   50.70
  -1  -8  11 1376.44   49.50
  -1  -8  11 1336.40   49.25
   0   8 -11  331.43   23.86
   0   8 -11  346.69   15.77
   0   8 -11  357.33   15.87
   0   8 -11  360.35   18.61
   0   8 -11  345.97   17.86
   0  -8  11  364.66   16.09
   0  -8  11  348.36   15.78
   0  -8  11  332.48   15.42
   0  -8  11  341.74   16.92
   0  -8  11  320.89   18.04
  -1   8 -11  158.38   11.83
  -1   8 -11  170.16   10.92
  -1   8 -11  163.83   15.12
  -1   8 -11  173.21   10.98
  -1   8 -11  163.81   11.80
   1  -8  11  172.33   11.26
   1  -8  11  180.43   11.17
   1  -8  11  167.53    8.72
   1  -8  11  185.23   12.73
   1  -8  11  169.19    8.92
  -2   8 -11  405.83   20.15
  -2   8 -11  433.64   17.82
  -2   8 -11  433.56   21.16
  -2   8 -11  341.50   25.26
  -2   8 -11  409.51   20.00
  -2   8 -11  411.68   20.94
   2  -8  11  395.15   20.75
   2  -8  11  300.93   39.55
   2  -8  11  387.92   19.71
  -3   8 -11   31.56    6.60
  -3   8 -11   31.29    6.44
  -3   8 -11   23.99    6.29
  -3   8 -11   37.08    7.15
   3  -8  11   26.87    6.47
   3  -8  11   28.34    6.19
   3   7 -11    8.83    8.34
  -3  -7  11    6.71    3.33
  -3  -7  11    6.39    2.96
  -3  -7  11    4.05    3.54
   2   7 -11   17.70    8.33
  -2  -7  11   19.77    3.20
  -2  -7  11   20.03    4.66
  -2  -7  11   20.96    4.71
  -2  -7  11   16.44    4.04
  -2  -7  11   19.05    4.30
   1   7 -11  106.68    8.53
   1   7 -11   93.80   13.68
   1   7 -11  102.65    9.24
   1   7 -11  104.37    5.97
   1   7 -11  104.92    6.12
  -1  -7  11  105.34    8.58
  -1  -7  11  108.78    8.32
  -1  -7  11  103.84    6.04
  -1  -7  11   97.62    7.75
  -1  -7  11   90.50    7.74
   0   7 -11  164.36   10.96
   0   7 -11  137.45   15.10
   0   7 -11  165.58   11.34
   0   7 -11  164.91    9.38
   0   7 -11  159.83   11.30
   0   7 -11  156.53    9.14
   0  -7  11  160.64   10.21
   0  -7  11  161.46   11.28
   0  -7  11  155.93    9.06
   0  -7  11  162.37    9.21
   0  -7  11  157.93    9.43
  -1   7 -11   34.55    6.15
  -1   7 -11   37.66    6.09
  -1   7 -11   32.31    8.32
  -1   7 -11   29.48    5.22
  -1   7 -11   32.16    5.37
  -1   7 -11   29.11    5.51
   1  -7  11   41.30    5.99
   1  -7  11   33.09    4.15
   1  -7  11   38.22    5.85
   1  -7  11   35.05    6.41
   1  -7  11   34.07    3.82
  -2   7 -11   98.25   12.21
  -2   7 -11  100.70    8.23
  -2   7 -11   90.62    9.57
  -2   7 -11  105.36    7.83
  -2   7 -11  104.03    9.65
  -2   7 -11  112.52    9.32
  -2   7 -11  100.63   10.66
   2  -7  11   98.52   10.79
   2  -7  11   86.31    9.25
   2  -7  11   87.88   20.21
  -3   7 -11    5.79    3.81
  -3   7 -11    4.58    3.32
  -3   7 -11    7.58    4.19
  -3   7 -11    4.38    3.61
  -3   7 -11    2.50    3.51
   3  -7  11    5.10    3.66
   3  -7  11    5.16    3.62
   3   6 -11   11.85    8.51
  -3  -6  11   30.84    6.12
  -3  -6  11   20.55    4.49
  -3  -6  11   25.51    5.97
   2   6 -11  100.43   17.51
  -2  -6  11   97.58    8.26
  -2  -6  11   92.45    8.28
  -2  -6  11   87.34    7.52
  -2  -6  11   93.24    5.68
  -2  -6  11   96.32    7.82
   1   6 -11    6.58    2.75
   1   6 -11   13.49    4.10
   1   6 -11   12.04    2.02
   1   6 -11   10.78    2.24
   1   6 -11    9.81    5.70
  -1  -6  11   11.27    2.36
  -1  -6  11   18.24    3.85
  -1  -6  11    4.52    2.39
  -1  -6  11    8.04    2.70
  -1  -6  11    6.30    2.54
   0   6 -11   31.22    5.31
   0   6 -11   32.27    8.37
   0   6 -11   38.19    5.98
   0   6 -11   36.64    4.59
   0   6 -11   39.01    4.79
   0   6 -11   30.67    5.64
   0  -6  11   42.07    5.00
   0  -6  11   42.76    5.80
   0  -6  11   37.92    6.16
   0  -6  11   34.33    4.84
   0  -6  11   38.44    4.64
  -1   6 -11   73.98    7.73
  -1   6 -11   71.65    7.16
  -1   6 -11   68.35    8.06
  -1   6 -11   71.34    8.06
  -1   6 -11   66.03    7.93
  -1   6 -11   63.12   11.34
   1  -6  11   72.46    7.85
   1  -6  11   64.16    5.33
   1  -6  11   74.54    7.63
   1  -6  11   54.81    7.28
  -2   6 -11   51.20    7.18
  -2   6 -11   71.93    8.17
  -2   6 -11   51.66    6.41
  -2   6 -11   62.51    8.21
  -2   6 -11   67.79   12.19
  -2   6 -11   62.52    7.43
   2  -6  11   52.01    4.56
   2  -6  11   71.83    8.86
   2  -6  11   45.77    6.67
  -3   6 -11   34.01    6.37
  -3   6 -11   21.59    8.02
  -3   6 -11   22.86    4.85
  -3   6 -11   25.01    5.78
  -3   6 -11   28.30    6.36
  -3   6 -11   33.88    6.84
   3  -6  11   28.38    5.87
   3  -6  11   23.92    5.66
   4   5 -11   31.79   14.04
  -4  -5  11   48.33    7.46
  -4  -5  11   57.66    9.29
  -4  -5  11   65.58    9.61
   3   5 -11   -1.87    5.08
  -3  -5  11    2.41    2.15
  -3  -5  11    1.59    2.54
  -3  -5  11    2.94    2.84
   2   5 -11   15.94    7.95
   2   5 -11   11.85    4.12
  -2  -5  11    7.56    2.81
  -2  -5  11   11.82    1.92
  -2  -5  11   15.82    4.05
  -2  -5  11   15.17    4.14
  -2  -5  11   13.74    3.60
   1   5 -11    0.94    1.79
   1   5 -11    2.26    1.21
   1   5 -11    2.91    1.05
   1   5 -11    1.42    1.27
   1   5 -11    1.21    1.83
   1   5 -11    1.98    3.54
  -1  -5  11    2.43    1.96
  -1  -5  11    2.32    2.13
  -1  -5  11    4.31    2.42
  -1  -5  11    6.19    2.37
  -1  -5  11    1.05    1.43
   0   5 -11    1.35    1.60
   0   5 -11    5.87    2.80
   0   5 -11    2.66    2.15
   0   5 -11    2.66    3.40
   0   5 -11    3.58    2.45
   0  -5  11    2.22    1.65
   0  -5  11    2.24    1.68
   0  -5  11    5.32    2.19
   0  -5  11    4.52    2.32
   0  -5  11    2.65    2.22
  -1   5 -11    5.84    2.45
  -1   5 -11    3.90    2.50
  -1   5 -11    3.68    4.05
  -1   5 -11    5.18    2.71
  -1   5 -11    2.51    2.31
  -1   5 -11    6.26    2.60
   1  -5  11    3.93    1.90
   1  -5  11    0.78    1.63
   1  -5  11    4.76    2.61
   1  -5  11    4.53    1.40
  -2   5 -11   35.48    6.55
  -2   5 -11   36.28    5.98
  -2   5 -11   44.03    6.04
  -2   5 -11   43.67    6.16
  -2   5 -11   39.21    9.79
  -2   5 -11   32.22    5.71
  -2   5 -11   34.03    5.40
   2  -5  11   38.55    6.58
   2  -5  11   32.63    5.50
   2  -5  11   48.71   15.29
   2  -5  11   40.46    4.64
  -3   5 -11   -0.61    2.25
  -3   5 -11    1.23    2.85
  -3   5 -11    3.29    3.53
  -3   5 -11   -1.11    2.43
  -3   5 -11    1.50    4.40
  -3   5 -11    0.09    2.34
   3  -5  11   -1.46    2.54
   3  -5  11   -2.63    1.98
   4   4 -11  143.04   27.33
  -4  -4  11  221.38   15.49
  -4  -4  11  202.54   13.06
  -4  -4  11  220.82   14.95
   3   4 -11    0.07    4.60
  -3  -4  11    3.70    2.89
  -3  -4  11    5.76    2.76
  -3  -4  11    3.05    1.99
  -3  -4  11    0.92    2.60
   2   4 -11    2.42    4.48
   2   4 -11   -0.21    1.85
  -2  -4  11   -0.58    1.51
  -2  -4  11   -2.08    1.33
  -2  -4  11    0.37    1.65
  -2  -4  11   -0.45    1.62
  -2  -4  11   -0.57    0.94
   1   4 -11  166.19    7.77
   1   4 -11  159.36   10.13
   1   4 -11  145.85   16.02
   1   4 -11  166.18    7.02
  -1  -4  11  154.12    9.27
  -1  -4  11  134.96    9.48
  -1  -4  11  159.28    9.44
  -1  -4  11  165.20    9.53
  -1  -4  11  151.91    7.98
   0   4 -11    7.80    3.00
   0   4 -11    9.43    1.91
   0   4 -11    9.99    5.12
   0   4 -11   10.76    3.31
   0   4 -11    7.67    2.39
   0   4 -11   11.79    3.35
   0  -4  11   10.77    2.68
   0  -4  11    9.67    2.62
   0  -4  11    9.88    2.29
   0  -4  11    5.88    2.25
  -1   4 -11    0.56    1.80
  -1   4 -11    1.48    3.56
  -1   4 -11    0.83    1.68
  -1   4 -11    2.59    1.93
  -1   4 -11    2.79    2.04
  -1   4 -11    3.72    2.35
  -1   4 -11    2.39    2.28
   1  -4  11    1.97    1.22
   1  -4  11    2.37    1.60
   1  -4  11    2.04    2.15
  -2   4 -11  150.67   10.17
  -2   4 -11  141.51   11.02
  -2   4 -11  164.54   10.47
  -2   4 -11  153.19   10.60
  -2   4 -11  157.22   10.52
  -2   4 -11  140.13   15.70
  -2   4 -11  164.50   11.21
   2  -4  11  159.42   10.91
   2  -4  11  182.28    9.60
   2  -4  11  167.25   11.51
  -3   4 -11   -0.92    2.55
  -3   4 -11    0.41    2.51
  -3   4 -11    0.14    2.68
  -3   4 -11    1.83    4.42
  -3   4 -11    1.31    2.52
  -3   4 -11   -0.71    2.36
   3  -4  11   -3.26    2.14
   3  -4  11    3.07    2.74
   4   3 -11   -5.51    5.64
  -4  -3  11   -0.64    2.55
  -4  -3  11    1.55    3.15
  -4  -3  11    2.16    3.02
  -4  -3  11   -1.35    2.14
   3   3 -11    2.00    5.47
   3   3 -11    3.06    2.90
  -3  -3  11    3.33    2.66
  -3  -3  11    0.30    2.64
  -3  -3  11    2.52    2.49
  -3  -3  11    4.44    2.30
   2   3 -11    0.62    1.97
   2   3 -11    1.01    3.32
  -2  -3  11   -0.26    1.47
  -2  -3  11   -0.45    1.69
  -2  -3  11   -1.82    1.35
  -2  -3  11    2.25    1.38
  -2  -3  11    0.30    1.51
   1   3 -11    6.43    2.86
   1   3 -11   14.53    3.46
   1   3 -11   15.42    2.18
   1   3 -11   16.59    2.54
   1   3 -11    9.13    5.06
  -1  -3  11   16.11    3.69
  -1  -3  11   11.09    3.06
  -1  -3  11   14.99    3.27
  -1  -3  11   20.84    3.53
  -1  -3  11   17.77    2.90
   0   3 -11   16.09    6.24
   0   3 -11   12.38    3.78
   0   3 -11   16.21    2.25
   0   3 -11   10.34    2.66
   0   3 -11   19.93    4.04
   0   3 -11   10.66    3.02
   0  -3  11   16.15    3.28
   0  -3  11    8.68    2.83
   0  -3  11   16.17    2.83
   0  -3  11   17.47    3.60
   0  -3  11    9.23    2.58
  -1   3 -11   74.19    6.67
  -1   3 -11   59.09   11.47
  -1   3 -11   74.56    7.53
  -1   3 -11   79.68    6.03
  -1   3 -11   89.69    7.20
  -1   3 -11   84.18    7.37
  -1   3 -11   78.27    7.13
   1  -3  11   79.03    6.30
   1  -3  11   82.28    4.62
   1  -3  11   78.05    6.73
  -2   3 -11   62.54    7.39
  -2   3 -11   63.88    7.38
  -2   3 -11   63.31    7.15
  -2   3 -11   69.81   13.26
  -2   3 -11   55.38    7.22
  -2   3 -11   66.15    8.57
  -2   3 -11   66.23    7.57
   2  -3  11   56.33    7.53
   2  -3  11   71.41    6.07
   2  -3  11   48.02    6.86
  -3   3 -11   46.25    6.50
  -3   3 -11   43.67    7.22
  -3   3 -11   41.73    6.69
  -3   3 -11   54.69    7.91
  -3   3 -11   39.32    7.30
  -3   3 -11   43.92   11.74
   3  -3  11   40.22    6.68
   3  -3  11   37.25    6.37
   4   2 -11    6.04    9.06
  -4  -2  11    4.13    3.31
  -4  -2  11    7.44    4.06
  -4  -2  11    7.40    3.10
  -4  -2  11   13.40    4.82
   3   2 -11    2.13    2.61
   3   2 -11   -1.16    3.66
  -3  -2  11    0.01    1.85
  -3  -2  11   -1.28    2.08
  -3  -2  11   -0.48    2.09
  -3  -2  11    2.86    1.94
  -3  -2  11   -0.36    2.25
   2   2 -11    8.42    3.40
   2   2 -11    1.41    4.11
  -2  -2  11    4.35    2.03
  -2  -2  11    8.43    2.75
  -2  -2  11    7.82    2.76
  -2  -2  11   12.57    2.55
  -2  -2  11   11.03    3.39
   1   2 -11   -0.43    1.67
   1   2 -11    0.22    0.89
   1   2 -11   -0.70    1.25
   1   2 -11   -0.36    2.52
   1   2 -11    1.77    1.27
  -1  -2  11    2.08    1.50
  -1  -2  11   -0.23    1.34
  -1  -2  11   -0.13    1.51
  -1  -2  11   -0.19    1.22
  -1  -2  11   -0.89    1.48
   0   2 -11   15.65    6.11
   0   2 -11   14.39    3.50
   0   2 -11   15.24    3.66
   0   2 -11   17.90    2.28
   0   2 -11   15.18    3.11
   0   2 -11   17.49    4.10
   0  -2  11   18.62    3.10
   0  -2  11   13.75    3.60
   0  -2  11   12.07    2.86
   0  -2  11   19.54    3.91
   0  -2  11   15.44    3.10
  -1   2 -11   13.17    3.51
  -1   2 -11   14.40    3.64
  -1   2 -11   16.04    3.92
  -1   2 -11   16.38    3.79
  -1   2 -11   13.95    3.40
  -1   2 -11   13.88    2.94
  -1   2 -11    6.86    4.81
   1  -2  11    9.41    2.85
   1  -2  11    7.87    2.67
   1  -2  11    7.38    2.91
   1  -2  11   10.59    1.88
  -2   2 -11   27.14    5.01
  -2   2 -11   22.66    4.77
  -2   2 -11   27.33    5.45
  -2   2 -11   25.68    5.29
  -2   2 -11   27.65    8.94
  -2   2 -11   27.39    5.00
  -2   2 -11   30.39    4.79
   2  -2  11   24.23    4.29
   2  -2  11   27.01    4.98
  -3   2 -11   -1.94    2.38
  -3   2 -11    0.41    2.62
  -3   2 -11   -1.57    4.00
  -3   2 -11    1.35    2.78
  -3   2 -11   -0.40    2.31
   3  -2  11   -0.54    2.63
   3  -2  11    0.00    2.46
   4   1 -11    7.73    8.79
  -4  -1  11    8.20    3.84
  -4  -1  11    6.27    3.83
  -4  -1  11   10.70    4.23
   3   1 -11    4.85    6.13
   3   1 -11    2.27    2.67
  -3  -1  11    2.88    2.79
  -3  -1  11   -0.50    1.93
  -3  -1  11    1.49    1.82
  -3  -1  11    0.16    2.34
  -3  -1  11    0.32    1.75
   2   1 -11   78.07   14.91
   2   1 -11  103.54    8.62
  -2  -1  11   88.76    7.12
  -2  -1  11   83.63    7.65
  -2  -1  11   94.46    6.23
  -2  -1  11   95.39    7.76
  -2  -1  11   89.20    8.50
   1   1 -11   18.65    3.58
   1   1 -11   24.65    2.96
   1   1 -11   23.73    3.26
   1   1 -11   21.65    4.52
  -1  -1  11   20.02    3.27
  -1  -1  11   17.32    3.77
  -1  -1  11   22.56    4.38
  -1  -1  11   25.87    3.80
   0   1 -11   75.56    6.67
   0   1 -11   67.10    5.90
   0   1 -11   72.70    8.18
   0   1 -11   63.28   11.97
   0   1 -11   65.81    5.54
   0   1 -11   71.23    4.08
   0  -1  11   53.89    6.21
   0  -1  11   83.70    7.26
   0  -1  11   78.23    6.19
  -1   1 -11   49.63    5.27
  -1   1 -11   35.96    5.63
  -1   1 -11   30.37    4.85
  -1   1 -11   60.93    6.71
  -1   1 -11   44.25   10.20
  -1   1 -11   36.13    5.04
  -1   1 -11   34.64    5.20
   1  -1  11   31.69    5.08
   1  -1  11   38.81    5.20
   1  -1  11   40.28    3.46
   1  -1  11   41.49    6.43
  -2   1 -11   91.17    9.05
  -2   1 -11   70.26    7.98
  -2   1 -11   83.39    8.43
  -2   1 -11   73.10    8.32
  -2   1 -11   73.78    6.35
  -2   1 -11   70.75   13.72
  -2   1 -11   63.77    8.26
   2  -1  11   80.15    7.02
   2  -1  11   82.43    8.81
  -3   1 -11  105.49   11.10
  -3   1 -11   81.06   10.47
  -3   1 -11   95.45   10.56
  -3   1 -11   90.75   10.25
  -3   1 -11   64.59   14.95
   3  -1  11  107.42    9.23
   3  -1  11   85.00    9.89
   4   0 -11   -0.51    6.25
  -4   0  11   -1.85    2.79
  -4   0  11    1.37    3.01
  -4   0  11    2.17    2.77
   3   0 -11  116.37    9.49
   3   0 -11   83.18   16.82
  -3   0  11  116.70    7.29
  -3   0  11  121.06    9.70
  -3   0  11  114.18   10.38
  -3   0  11   99.92    9.06
  -3   0  11  109.76    8.25
   2   0 -11  360.23   27.84
   2   0 -11  378.33   19.17
  -2   0  11  387.57   18.74
  -2   0  11  401.03   19.94
  -2   0  11  406.00   15.88
  -2   0  11  401.75   18.17
   1   0 -11    7.52    3.10
   1   0 -11    6.17    4.47
   1   0 -11    8.96    2.40
   1   0 -11    8.92    2.26
   1   0 -11    9.90    2.08
  -1   0  11    8.08    2.45
  -1   0  11   12.24    3.28
  -1   0  11    2.44    2.16
  -1   0  11    6.58    2.04
   0   0 -11   16.18    2.31
   0   0 -11   17.86    4.26
   0   0 -11   18.79    3.72
   0   0 -11   14.01    3.10
   0   0  11    6.92    2.52
   0   0  11   13.92    3.62
   0   0  11   11.29    3.34
  -1   0 -11  115.12    8.14
  -1   0 -11  102.26   13.67
  -1   0 -11   86.32    7.47
  -1   0 -11   86.00    8.07
  -1   0 -11   98.84    6.71
  -1   0 -11   85.75    7.59
   1   0  11  101.47    5.87
   1   0  11   90.38    8.40
   1   0  11   94.75    7.57
   1   0  11   96.53    7.75
  -2   0 -11   11.16    3.66
  -2   0 -11    4.30    2.86
  -2   0 -11    1.51    2.47
  -2   0 -11    2.58    2.24
  -2   0 -11    4.43    5.00
  -2   0 -11    4.49    2.45
   2   0  11    4.14    2.78
   2   0  11    1.46    2.22
  -3   0 -11   44.91   12.70
  -3   0 -11   49.88    8.10
  -3   0 -11   59.27    8.20
  -3   0 -11   50.66    7.43
  -3   0 -11   50.04    8.25
   3   0  11   52.72    7.65
   4  -1 -11   -1.26    5.69
  -4   1  11    2.27    3.12
  -4   1  11    7.14    3.71
  -4   1  11    1.53    3.31
   3  -1 -11   98.03    8.87
   3  -1 -11  110.54   19.15
  -3   1  11  100.84    9.63
  -3   1  11   93.58    7.95
  -3   1  11   93.30    9.93
  -3   1  11  114.46    9.59
   2  -1 -11  180.70   18.84
   2  -1 -11  188.48   11.99
   2  -1 -11  107.66   34.68
  -2   1  11  171.54   10.92
  -2   1  11  180.09    8.39
  -2   1  11  160.19   10.86
  -2   1  11  190.24   12.47
   1  -1 -11  275.60   12.60
   1  -1 -11  275.44   22.68
   1  -1 -11  293.21   12.98
   1  -1 -11  283.99   12.18
   1  -1 -11  295.17   15.81
  -1   1  11  283.84   14.90
  -1   1  11  278.46   12.08
  -1   1  11  297.12   15.41
  -1   1  11  276.76   14.65
   0  -1 -11    1.50    1.82
   0  -1 -11    8.88    3.37
   0  -1 -11    7.94    9.81
   0  -1 -11    0.11    2.09
   0  -1 -11    3.45    1.44
   0  -1 -11    4.80    2.25
   0  -1 -11    2.64    1.75
   0   1  11    6.45    2.61
   0   1  11    6.98    2.73
   0   1  11    2.37    2.08
  -1  -1 -11  245.96   21.22
  -1  -1 -11  227.31   12.63
  -1  -1 -11  220.69   12.38
  -1  -1 -11  204.88   10.84
  -1  -1 -11  202.74   13.23
  -1  -1 -11  197.46   12.22
   1   1  11  205.42   12.09
   1   1  11  244.01   14.08
   1   1  11  217.79   12.62
  -2  -1 -11   85.44    9.42
  -2  -1 -11   84.41    8.63
  -2  -1 -11   76.01   15.07
  -2  -1 -11   82.91    9.31
  -2  -1 -11   80.86    9.50
  -2  -1 -11   77.98    8.56
   2   1  11   69.50    9.23
   2   1  11   76.41    8.45
   2   1  11   57.94    7.48
  -3  -1 -11   13.23    4.35
  -3  -1 -11    8.53    7.00
  -3  -1 -11   15.96    4.79
  -3  -1 -11    6.75    3.84
  -3  -1 -11    6.28    3.71
   3   1  11   13.16    4.46
   4  -2 -11    3.70    6.22
  -4   2  11    3.32    3.80
  -4   2  11    2.40    3.17
  -4   2  11    7.29    3.79
   3  -2 -11  130.28   10.29
   3  -2 -11  113.63   19.36
  -3   2  11  124.68    9.62
  -3   2  11  137.62   11.51
  -3   2  11  136.23   10.40
   2  -2 -11  304.86   25.16
   2  -2 -11  366.23   18.06
  -2   2  11  337.76   16.84
  -2   2  11  336.93   18.03
  -2   2  11  313.31   12.63
  -2   2  11  328.70   16.93
  -2   2  11  322.90   13.40
   1  -2 -11   37.13    9.64
   1  -2 -11   42.96    6.70
   1  -2 -11   29.34   17.76
   1  -2 -11   35.06    4.60
   1  -2 -11   36.60    4.18
  -1   2  11   34.69    2.71
  -1   2  11   40.46    3.69
  -1   2  11   36.46    5.79
  -1   2  11   43.60    6.24
  -1   2  11   35.01    5.84
   0  -2 -11 1469.41   66.20
   0  -2 -11 1532.92   49.76
   0  -2 -11 1588.23   52.53
   0  -2 -11 1544.53   55.50
   0  -2 -11 1552.51   51.71
   0  -2 -11 1537.56   53.54
   0   2  11 1445.06   54.09
   0   2  11 1439.81   52.64
   0   2  11 1552.50   53.89
  -1  -2 -11  614.14   25.87
  -1  -2 -11  621.58   26.02
  -1  -2 -11  597.67   26.20
  -1  -2 -11  648.08   37.98
  -1  -2 -11  691.27   58.40
  -1  -2 -11  628.03   27.90
  -1  -2 -11  643.37   24.60
   1   2  11  623.40   26.55
   1   2  11  636.17   26.05
   1   2  11  593.96   27.21
  -2  -2 -11  118.65    9.87
  -2  -2 -11   88.02   16.36
  -2  -2 -11   94.77   10.00
  -2  -2 -11   94.42    9.81
  -2  -2 -11  103.45    9.49
  -2  -2 -11   92.95    8.18
   2   2  11   87.09   10.03
   2   2  11  109.98   10.67
   2   2  11   96.65    8.72
  -3  -2 -11    1.69    3.08
  -3  -2 -11   -0.93    2.72
  -3  -2 -11   -1.23    3.19
  -3  -2 -11   -2.01    2.60
  -3  -2 -11    2.01    3.67
   3   2  11    0.77    2.80
   4  -3 -11   28.52   11.83
  -4   3  11   76.09    9.69
  -4   3  11   64.69    8.73
  -4   3  11   61.29    9.87
   3  -3 -11  240.39   24.09
   3  -3 -11  259.78   15.20
  -3   3  11  269.75   15.32
  -3   3  11  232.66   16.05
  -3   3  11  245.01   14.67
   2  -3 -11   38.73   21.88
   2  -3 -11   23.67    5.32
   2  -3 -11   23.15    8.40
  -2   3  11   24.68    5.55
  -2   3  11   21.68    3.42
  -2   3  11   26.07    5.19
  -2   3  11   18.08    4.21
   1  -3 -11  181.00   10.26
   1  -3 -11  184.34   12.63
   1  -3 -11  174.95   17.95
  -1   3  11  193.48   11.87
  -1   3  11  206.87   12.48
  -1   3  11  170.02    9.85
  -1   3  11  195.49   12.28
   0  -3 -11   58.50    8.15
   0  -3 -11   57.09    4.69
   0  -3 -11   51.18    6.38
   0  -3 -11   51.47    6.68
   0  -3 -11   27.97   17.65
   0  -3 -11   51.15   11.98
   0  -3 -11   60.40    5.26
   0   3  11   59.59    7.43
   0   3  11   47.98    6.16
   0   3  11   46.15    6.95
  -1  -3 -11  647.12   25.36
  -1  -3 -11  630.80   26.52
  -1  -3 -11  621.37   38.23
  -1  -3 -11  652.57   29.15
  -1  -3 -11  678.74   27.50
  -1  -3 -11  670.30   26.72
  -1  -3 -11  581.42   56.48
   1   3  11  674.30   27.78
   1   3  11  642.76   26.72
   1   3  11  619.97   28.04
  -2  -3 -11   21.32    4.58
  -2  -3 -11   19.60    5.69
  -2  -3 -11   30.65    6.10
  -2  -3 -11   13.66    4.02
  -2  -3 -11   19.50    5.27
  -2  -3 -11   18.79    8.89
   2   3  11   11.83    3.84
   2   3  11   14.89    4.67
   2   3  11   16.30    4.59
  -3  -3 -11    3.47    3.70
  -3  -3 -11    3.33    3.14
  -3  -3 -11    2.00    3.74
  -3  -3 -11    1.04    3.23
  -3  -3 -11    0.99    2.73
   3   3  11   -0.33    2.63
   4  -4 -11   14.69   19.73
   3  -4 -11   30.04   10.34
   3  -4 -11    9.86   15.56
   3  -4 -11   27.47    5.72
  -3   4  11   23.84    6.07
  -3   4  11   31.72    6.16
  -3   4  11   23.21    5.05
   2  -4 -11    2.03    4.49
   2  -4 -11    3.00    2.73
   2  -4 -11    8.63   13.43
  -2   4  11   -0.08    2.17
  -2   4  11    2.63    2.52
  -2   4  11    5.67    2.16
  -2   4  11    3.44    2.92
   1  -4 -11    0.42    1.88
   1  -4 -11    0.06    1.00
   1  -4 -11   -2.05    1.02
   1  -4 -11   -0.32    8.11
   1  -4 -11   -0.15    3.41
   1  -4 -11    3.04    2.66
  -1   4  11   -0.25    2.30
  -1   4  11    1.20    1.93
  -1   4  11   -1.06    1.82
  -1   4  11   -0.24    1.56
   0  -4 -11  110.36    7.04
   0  -4 -11  114.21    8.40
   0  -4 -11   77.08   27.03
   0  -4 -11  116.16    8.86
   0  -4 -11  106.28    7.12
   0  -4 -11  102.41   14.38
   0  -4 -11  109.77    9.86
   0   4  11  101.54    8.79
   0   4  11  118.74    9.73
   0   4  11  120.32    8.76
  -1  -4 -11   99.34    8.59
  -1  -4 -11  101.59    9.91
  -1  -4 -11  111.32   15.47
  -1  -4 -11  112.09    8.91
  -1  -4 -11  106.89    8.37
  -1  -4 -11  112.97    8.17
   1   4  11  106.09    9.23
   1   4  11  114.88    9.00
   1   4  11   99.03    9.24
  -2  -4 -11    1.74    4.52
  -2  -4 -11    3.27    3.01
  -2  -4 -11   -2.15    2.18
  -2  -4 -11   -0.21    2.76
  -2  -4 -11   -3.94    2.14
  -2  -4 -11    2.30    2.94
   2   4  11   -0.67    2.25
   2   4  11    0.80    2.48
   2   4  11    0.86    2.13
  -3  -4 -11  127.01   11.96
  -3  -4 -11  107.44   12.06
  -3  -4 -11  149.99   14.75
  -3  -4 -11  132.87   11.13
  -3  -4 -11  119.51   13.62
   3   4  11  108.32   11.38
   3  -5 -11   42.76    7.15
   3  -5 -11   37.91   11.09
   3  -5 -11   22.96   21.25
  -3   5  11   45.77    7.72
  -3   5  11   38.64    6.58
  -3   5  11   29.67    6.53
   2  -5 -11    0.11    2.39
   2  -5 -11    3.78    9.68
   2  -5 -11   -0.16    3.96
  -2   5  11    2.03    2.96
  -2   5  11    0.63    2.19
  -2   5  11    4.80    2.87
  -2   5  11    0.37    1.88
   1  -5 -11    4.48   10.50
   1  -5 -11    1.54    2.60
   1  -5 -11   -0.71    1.29
   1  -5 -11    0.28    1.21
   1  -5 -11   -1.84    1.67
   1  -5 -11    3.63    4.57
  -1   5  11    0.37    1.98
  -1   5  11    0.36    1.66
  -1   5  11   -0.27    1.82
  -1   5  11    2.37    2.31
   0  -5 -11  124.70    7.73
   0  -5 -11  124.90   16.12
   0  -5 -11  101.49   31.29
   0  -5 -11  128.19   10.84
   0  -5 -11  117.52    7.82
   0  -5 -11  130.10    9.22
   0  -5 -11  107.22    8.89
   0   5  11  123.45   10.13
   0   5  11  131.29   10.00
  -1  -5 -11   53.68    8.48
  -1  -5 -11   56.30    7.38
  -1  -5 -11   53.07    6.74
  -1  -5 -11   51.87   12.76
  -1  -5 -11   52.29    6.78
  -1  -5 -11   43.56   20.15
  -1  -5 -11   51.34    7.06
   1   5  11   48.64    6.55
   1   5  11   63.60    8.74
   1   5  11   43.46    6.78
  -2  -5 -11    5.21    3.35
  -2  -5 -11    1.80    2.81
  -2  -5 -11    0.30    2.98
  -2  -5 -11    9.65    4.60
  -2  -5 -11    3.24    5.70
  -2  -5 -11    0.64    2.60
   2   5  11    5.60    3.15
   2   5  11    3.25    3.11
   2   5  11    0.97    2.78
   3  -6 -11    8.73    4.08
   3  -6 -11   -0.93   11.03
   3  -6 -11    4.40    6.00
  -3   6  11   11.35    4.27
  -3   6  11    9.14    4.40
  -3   6  11   13.60    5.02
   2  -6 -11    0.81    4.54
   2  -6 -11   -0.18    8.72
   2  -6 -11    1.43    2.85
  -2   6  11    3.49    2.31
  -2   6  11    1.64    2.75
  -2   6  11    2.16    2.67
  -2   6  11    6.15    3.14
   1  -6 -11   28.55   20.27
   1  -6 -11   53.70    7.09
   1  -6 -11   41.56    7.28
   1  -6 -11   38.14    4.75
   1  -6 -11   30.05    9.32
  -1   6  11   41.71    6.75
  -1   6  11   44.02    6.72
  -1   6  11   32.18    5.25
  -1   6  11   52.22    7.11
   0  -6 -11    6.22    3.31
   0  -6 -11    8.59    6.47
   0  -6 -11    7.11    2.42
   0  -6 -11    9.43    4.02
   0  -6 -11    7.14    3.02
   0  -6 -11   10.44    2.98
   0  -6 -11    0.17    8.96
   0   6  11   13.50    4.33
   0   6  11   10.88    4.08
   0   6  11    8.23    3.40
  -1  -6 -11    6.17   11.50
  -1  -6 -11   19.89    5.69
  -1  -6 -11   17.14    7.76
  -1  -6 -11   19.33    4.30
  -1  -6 -11   22.93    4.96
  -1  -6 -11   26.28    5.48
  -1  -6 -11   21.76    4.64
   1   6  11   17.04    5.13
   1   6  11   25.28    5.77
   1   6  11   11.94    4.00
  -2  -6 -11   16.24    4.95
  -2  -6 -11   13.36    8.53
  -2  -6 -11   21.45    5.41
  -2  -6 -11   19.11    6.02
  -2  -6 -11   23.96    5.48
  -2  -6 -11   20.43    5.14
   2   6  11   14.91    4.22
   2   6  11   17.20    5.38
   2   6  11   15.62    5.11
   3  -7 -11    0.14    3.05
   3  -7 -11   -1.14   12.65
   3  -7 -11   -0.05    4.88
  -3   7  11   -0.72    2.69
  -3   7  11    1.07    3.17
  -3   7  11   -0.47    3.19
  -3   7  11    0.23    2.41
   2  -7 -11    3.31    4.66
   2  -7 -11    1.30   10.46
   2  -7 -11   -0.70    2.96
  -2   7  11    1.01    2.23
  -2   7  11   -3.86    2.21
  -2   7  11    0.85    2.83
  -2   7  11   -0.46    1.98
   1  -7 -11  111.19    8.69
   1  -7 -11   86.56   15.46
   1  -7 -11  102.62    7.55
   1  -7 -11  113.16   10.76
  -1   7  11  102.16    9.25
  -1   7  11  112.61    9.59
  -1   7  11   89.37   10.35
  -1   7  11   71.78    8.53
   0  -7 -11   -2.59    2.08
   0  -7 -11    2.10    2.24
   0  -7 -11    0.00    2.73
   0  -7 -11    1.82    1.85
   0  -7 -11    2.93    2.59
   0  -7 -11    5.12   12.52
   0  -7 -11    3.93    5.22
   0   7  11    3.05    2.67
   0   7  11    1.03    2.15
   0   7  11   -0.76    2.09
  -1  -7 -11   63.55    8.31
  -1  -7 -11   51.02    7.15
  -1  -7 -11   38.71   22.28
  -1  -7 -11   60.49    8.06
  -1  -7 -11   51.08   13.20
  -1  -7 -11   49.17    8.98
  -1  -7 -11   54.79    7.31
   1   7  11   61.65    8.43
   1   7  11   66.58    9.36
   1   7  11   68.82    8.65
  -2  -7 -11   17.26    9.53
  -2  -7 -11   17.17    5.09
  -2  -7 -11   12.83    4.51
  -2  -7 -11   22.65    6.06
  -2  -7 -11   20.08    6.30
  -2  -7 -11   18.12    4.87
   2   7  11   13.89    4.30
   2   7  11   10.26    4.45
   3  -8 -11   -0.03    3.18
   3  -8 -11   -4.00   12.19
  -3   8  11   -0.13    2.50
  -3   8  11   -1.17    2.85
  -3   8  11    2.76    3.62
  -3   8  11    0.37    3.09
   2  -8 -11    6.86   15.38
   2  -8 -11    5.28    3.79
   2  -8 -11    8.38    6.04
  -2   8  11    8.66    3.41
  -2   8  11    8.00    4.54
  -2   8  11    4.33    3.42
  -2   8  11    1.57    3.40
  -2   8  11    7.68    3.36
   1  -8 -11  237.48   13.65
   1  -8 -11  165.27   41.06
   1  -8 -11  208.27   21.12
   1  -8 -11  253.56   13.11
   1  -8 -11  264.01   17.32
  -1   8  11  211.66   14.18
  -1   8  11  230.27   14.69
  -1   8  11  236.90   15.78
  -1   8  11  259.31   14.96
   0  -8 -11   17.50    4.10
   0  -8 -11    6.10    6.56
   0  -8 -11    4.54    3.27
   0  -8 -11   12.87    5.52
   0  -8 -11   14.90   16.97
   0   8  11    9.55    4.08
   0   8  11   10.58    4.18
   0   8  11   11.94    4.57
  -1  -8 -11   18.89    4.77
  -1  -8 -11   17.14    4.40
  -1  -8 -11   14.04    4.46
  -1  -8 -11   16.32    5.06
  -1  -8 -11    7.49    4.65
  -1  -8 -11   10.15   14.99
  -1  -8 -11    8.28    7.02
  -1  -8 -11   19.77    4.36
   1   8  11   23.87    5.50
   1   8  11   21.59    5.65
   1   8  11   16.05    5.16
   2  -9 -11    1.20    4.84
   2  -9 -11   -3.55   11.66
   2  -9 -11    5.19    3.99
  -2   9  11    3.83    3.04
  -2   9  11    7.30    4.17
  -2   9  11    5.66    3.93
  -2   9  11    5.85    3.69
  -2   9  11    3.39    3.27
   1  -9 -11   13.55    3.99
   1  -9 -11    8.54    6.04
   1  -9 -11    2.22   11.12
   1  -9 -11    9.75    4.85
   1  -9 -11    9.01    3.30
  -1   9  11   12.71    4.80
  -1   9  11    5.23    3.63
  -1   9  11    7.23    3.69
  -1   9  11    2.27    2.82
  -1   9  11    7.49    3.70
   0  -9 -11   29.60   10.50
   0  -9 -11   14.63   16.82
   0  -9 -11   38.16    5.94
   0  -9 -11   39.91    6.70
   0  -9 -11   32.94    7.41
   0   9  11   37.79    6.23
   0   9  11   31.77    6.32
   0   9  11   43.73    7.72
   0   9  11   34.28    7.22
  -1  -9 -11   65.13    8.46
  -1  -9 -11   55.72   14.65
  -1  -9 -11   54.42   10.02
  -1  -9 -11   50.87    7.97
   1   9  11   62.18    8.87
   1   9  11   45.48    8.22
   1   9  11   38.74    7.45
   2 -10 -11    1.20   12.45
  -2  10  11   -3.62    2.52
  -2  10  11    0.51    2.64
  -2  10  11    0.26    3.35
   1 -10 -11    3.71    3.01
   1 -10 -11    6.61    3.41
   1 -10 -11   -0.62   11.40
   1 -10 -11    1.46    4.82
   1 -10 -11    6.73    4.69
  -1  10  11   10.62    4.88
  -1  10  11    6.46    3.85
  -1  10  11   10.65    4.14
  -1  10  11    9.38    3.95
  -1  10  11    5.72    3.48
   0 -10 -11    2.02   12.04
   0 -10 -11    8.90    7.26
   0 -10 -11    4.04    3.40
   0 -10 -11   15.14    5.98
   0 -10 -11    9.55    3.78
   0  10  11   11.07    4.98
   0  10  11    1.32    3.08
   0  10  11    2.95    3.32
   0  10  11    8.92    3.69
   1  13 -12  180.78   13.63
  -1 -13  12  196.55   13.97
  -1 -13  12  172.39   13.82
  -1 -13  12  188.92   12.84
  -1 -13  12  183.32   13.28
   0  13 -12  131.00   10.10
   0  13 -12  118.95   12.77
   0  13 -12  112.46    9.45
   0 -13  12   80.73   34.69
   0 -13  12  125.68    9.98
   0 -13  12  118.72   11.88
   0 -13  12  116.61   13.05
  -1  13 -12    0.81    3.60
  -1  13 -12    3.70    4.27
  -1  13 -12    7.51    3.77
  -1  13 -12   13.24    4.70
   1 -13  12    8.83    4.63
   1 -13  12   10.34    4.12
   1 -13  12   15.58   17.19
   1 -13  12    6.23    3.96
   2  12 -12    5.35    7.12
  -2 -12  12    2.16    2.80
  -2 -12  12    1.22    3.17
  -2 -12  12    3.41    2.98
  -2 -12  12    2.21    3.24
   1  12 -12   67.48   15.16
   1  12 -12  124.73   10.77
  -1 -12  12  109.29   11.51
  -1 -12  12  103.78    9.37
  -1 -12  12  122.22   10.26
  -1 -12  12  110.57   11.27
   0  12 -12   10.91    3.70
   0  12 -12   11.57    4.53
   0  12 -12    9.61    3.68
   0 -12  12    5.97    3.36
   0 -12  12    5.81   14.82
   0 -12  12    8.68    3.50
   0 -12  12   10.23    4.00
   0 -12  12   12.11    4.30
  -1  12 -12   48.07    7.24
  -1  12 -12   50.15    7.48
  -1  12 -12   69.67   10.24
   1 -12  12   52.29    7.97
   1 -12  12   39.94    7.78
   1 -12  12   52.86    7.47
   1 -12  12   36.95   22.49
   2  11 -12  109.46   20.61
  -2 -11  12  134.79   11.20
  -2 -11  12  133.88   11.51
  -2 -11  12  149.78   12.05
  -2 -11  12  146.01   11.19
   1  11 -12  282.22   26.06
   1  11 -12  416.22   20.58
  -1 -11  12  389.10   19.29
  -1 -11  12  358.10   19.78
  -1 -11  12  371.63   18.78
  -1 -11  12  375.36   19.50
   0  11 -12   76.71    8.11
   0  11 -12   51.46   11.12
   0  11 -12   67.87    9.31
   0  11 -12   54.18    8.86
   0  11 -12   70.31    7.80
   0 -11  12   69.62    8.56
   0 -11  12   64.91    7.28
   0 -11  12   61.78    7.58
   0 -11  12   81.07    7.97
   0 -11  12   67.45    9.42
  -1  11 -12   23.58    5.36
  -1  11 -12   24.95    6.25
  -1  11 -12   27.02    5.66
  -1  11 -12   34.13    7.13
   1 -11  12   20.43    5.47
   1 -11  12   12.00   13.48
   1 -11  12   24.76    5.28
   1 -11  12   31.38    6.20
  -2  11 -12    8.03    4.17
  -2  11 -12    9.13    4.43
  -2  11 -12    6.21    4.14
  -2  11 -12   10.43    4.77
   2 -11  12    7.57   13.01
   2 -11  12   15.08    5.22
   2 -11  12    8.16    4.00
   2  10 -12    7.11    7.31
  -2 -10  12    2.93    3.04
  -2 -10  12   -0.59    2.16
  -2 -10  12    5.60    3.18
  -2 -10  12    4.28    3.14
   1  10 -12   12.09    3.01
   1  10 -12   16.59    4.90
   1  10 -12   11.07    6.72
   1  10 -12   10.09    2.87
  -1 -10  12   15.64    4.36
  -1 -10  12   18.02    4.80
  -1 -10  12    8.86    3.38
  -1 -10  12   11.33    3.74
   0  10 -12   28.52    4.86
   0  10 -12   29.95    8.82
   0  10 -12   28.15    6.04
   0  10 -12   21.61    5.54
   0  10 -12   23.57    4.59
   0 -10  12   27.59    5.13
   0 -10  12   23.73    4.32
   0 -10  12   31.83    5.05
   0 -10  12   24.59    5.47
   0 -10  12   19.36    5.46
  -1  10 -12  155.11   11.04
  -1  10 -12  177.74   13.03
  -1  10 -12  184.02   11.98
  -1  10 -12  186.53   13.60
   1 -10  12  155.02   11.46
   1 -10  12  175.62   11.99
   1 -10  12  129.33   31.71
   1 -10  12  172.59   11.54
   1 -10  12  144.40   12.52
  -2  10 -12   37.36    7.29
  -2  10 -12   46.60    7.58
  -2  10 -12   34.77    7.27
  -2  10 -12   49.62    7.85
   2 -10  12   30.03   18.63
   2 -10  12   42.40    7.94
   2 -10  12   54.86    8.39
   3   9 -12   18.05   10.74
  -3  -9  12   24.05    5.50
  -3  -9  12   34.92    7.70
  -3  -9  12   31.19    6.69
   2   9 -12    1.93    5.68
  -2  -9  12    1.70    3.11
  -2  -9  12    5.60    3.00
  -2  -9  12    0.13    2.21
  -2  -9  12    0.14    2.50
   1   9 -12   66.16    8.39
   1   9 -12   95.83   16.89
   1   9 -12   72.47    5.68
   1   9 -12   75.49    5.66
  -1  -9  12   86.01    9.23
  -1  -9  12   77.70    8.59
  -1  -9  12   72.66    8.81
  -1  -9  12   63.65    7.68
   0   9 -12   33.35    9.10
   0   9 -12   44.02    5.74
   0   9 -12   28.13    5.80
   0   9 -12   42.54    7.05
   0   9 -12   35.42    5.19
   0  -9  12   36.97    5.82
   0  -9  12   42.62    5.73
   0  -9  12   32.01    4.87
   0  -9  12   33.50    5.16
   0  -9  12   34.41    6.81
  -1   9 -12  197.11   13.91
  -1   9 -12  192.21   13.43
  -1   9 -12  193.76   12.23
  -1   9 -12  165.11   16.22
  -1   9 -12  200.72   12.33
   1  -9  12  197.75   12.58
   1  -9  12  184.15   11.89
   1  -9  12  190.09    9.81
   1  -9  12  186.44   13.60
  -2   9 -12   12.73    4.90
  -2   9 -12   13.06    4.26
  -2   9 -12   18.46    4.91
  -2   9 -12   17.97    5.14
   2  -9  12   -0.72    8.34
   2  -9  12   15.48    5.39
   2  -9  12   18.59    5.12
   3   8 -12   29.34   12.31
  -3  -8  12   31.27    6.35
  -3  -8  12   32.64    7.25
  -3  -8  12   38.23    6.57
   2   8 -12   -1.35    4.48
  -2  -8  12    0.31    2.17
  -2  -8  12    0.67    2.36
  -2  -8  12   -0.64    2.05
  -2  -8  12    1.49    2.39
   1   8 -12  354.41   18.68
   1   8 -12  335.77   27.28
   1   8 -12  381.83   15.09
   1   8 -12  389.47   15.33
  -1  -8  12  334.65   17.78
  -1  -8  12  348.97   18.84
  -1  -8  12  381.64   15.04
  -1  -8  12  370.82   17.78
  -1  -8  12  376.45   18.25
   0   8 -12 1288.56   44.61
   0   8 -12 1283.96   44.71
   0   8 -12 1164.25   56.49
   0   8 -12 1287.71   47.82
   0   8 -12 1325.55   48.78
   0   8 -12 1268.23   48.33
   0  -8  12 1263.37   48.23
   0  -8  12 1260.51   44.90
   0  -8  12 1234.07   44.35
   0  -8  12 1250.81   46.28
   0  -8  12 1295.31   44.54
  -1   8 -12   38.79    6.88
  -1   8 -12   28.04    8.19
  -1   8 -12   20.57    5.01
  -1   8 -12   25.33    5.38
  -1   8 -12   27.79    5.01
  -1   8 -12   30.99    5.55
   1  -8  12   25.02    4.90
   1  -8  12   27.18    3.94
   1  -8  12   22.74    4.63
   1  -8  12   27.76    3.79
   1  -8  12   23.05    5.33
  -2   8 -12   24.50    5.47
  -2   8 -12   22.65   11.39
  -2   8 -12   32.14    6.15
  -2   8 -12   42.13    7.35
  -2   8 -12   36.82    5.36
  -2   8 -12   30.63    6.05
   2  -8  12   20.27   14.03
   2  -8  12   27.84    6.05
   2  -8  12   29.14    5.73
  -3   8 -12    9.11    4.16
  -3   8 -12    0.66    3.45
  -3   8 -12    6.23    4.05
  -3   8 -12    8.10    4.91
  -3   8 -12   11.89    4.80
   3  -8  12   10.49    4.21
   3  -8  12    1.51    3.17
   3   7 -12   44.06   14.25
  -3  -7  12   76.60    9.76
  -3  -7  12   81.09    9.07
  -3  -7  12   83.02   10.39
  -2  -7  12  167.90   11.35
  -2  -7  12  182.40   12.50
  -2  -7  12  189.19   12.03
  -2  -7  12  193.79   12.44
   1   7 -12  264.28   23.88
   1   7 -12  317.23   12.57
   1   7 -12  303.26   12.87
   1   7 -12  309.46   16.31
   1   7 -12  307.59   17.59
  -1  -7  12  280.85   15.42
  -1  -7  12  297.44   15.47
  -1  -7  12  304.89   12.89
  -1  -7  12  289.32   14.96
  -1  -7  12  296.20   16.30
   0   7 -12   79.58    8.89
   0   7 -12   69.78   12.89
   0   7 -12   83.19    6.58
   0   7 -12   75.62    6.15
   0   7 -12   67.10    8.19
   0   7 -12   76.91    9.16
   0  -7  12   74.17    6.45
   0  -7  12   80.32    6.25
   0  -7  12   77.39    6.34
   0  -7  12   77.01    9.05
   0  -7  12   75.60    8.08
  -1   7 -12   51.16    6.77
  -1   7 -12   48.99    6.41
  -1   7 -12   43.70   10.22
  -1   7 -12   36.59    6.18
  -1   7 -12   47.16    7.44
  -1   7 -12   40.08    6.68
   1  -7  12   35.97    6.60
   1  -7  12   44.89    6.28
   1  -7  12   41.92    6.14
   1  -7  12   39.08    4.19
   1  -7  12   42.29    5.00
  -2   7 -12   44.76    7.25
  -2   7 -12   46.42    6.90
  -2   7 -12   57.28    8.02
  -2   7 -12   49.73    6.43
  -2   7 -12   42.57    6.57
  -2   7 -12   43.97    7.27
  -2   7 -12   44.75   10.33
   2  -7  12   42.35    6.47
   2  -7  12   29.57   14.76
   2  -7  12   47.64    7.77
  -3   7 -12   10.90    4.39
  -3   7 -12    2.80    3.41
  -3   7 -12    5.45    3.87
  -3   7 -12    7.79    4.15
  -3   7 -12    7.24    4.65
   3  -7  12    7.24    4.02
   3  -7  12    3.78    3.60
   3   6 -12    7.40    7.50
  -3  -6  12    3.97    2.59
  -3  -6  12    4.46    3.40
  -3  -6  12    7.85    3.93
   2   6 -12   76.65    9.86
   2   6 -12   47.70   12.69
  -2  -6  12   50.92    7.15
  -2  -6  12   55.02    6.66
  -2  -6  12   62.03    7.73
  -2  -6  12   55.59    7.11
   1   6 -12  122.92    9.67
   1   6 -12  119.82    6.82
   1   6 -12  112.05   15.16
   1   6 -12  108.91    9.01
   1   6 -12  125.85   10.29
  -1  -6  12  119.81    7.00
  -1  -6  12  130.33    9.70
  -1  -6  12  114.76    8.81
  -1  -6  12  119.64    8.70
  -1  -6  12  120.99    8.66
   0   6 -12    8.92    3.20
   0   6 -12    5.20    2.28
   0   6 -12    8.97    3.82
   0   6 -12    1.81    3.58
   0   6 -12    3.69    2.19
   0   6 -12    3.46    2.89
   0  -6  12    6.45    2.36
   0  -6  12    3.00    2.52
   0  -6  12    6.87    2.41
   0  -6  12    4.44    2.39
   0  -6  12    3.89    2.15
  -1   6 -12   20.00    4.40
  -1   6 -12   21.07    7.16
  -1   6 -12   18.49    4.08
  -1   6 -12   29.28    5.57
  -1   6 -12   17.28    4.56
  -1   6 -12   16.08    4.22
   1  -6  12   17.08    2.63
   1  -6  12   17.69    3.97
   1  -6  12   17.20    3.36
   1  -6  12   13.41    3.83
   1  -6  12   22.68    4.93
  -2   6 -12   16.15    4.17
  -2   6 -12   12.07    6.27
  -2   6 -12   20.18    4.42
  -2   6 -12   16.70    4.86
  -2   6 -12   28.55    5.79
  -2   6 -12   11.27    3.94
  -2   6 -12   13.04    3.99
   2  -6  12   16.59    4.44
   2  -6  12   15.42   12.09
   2  -6  12   17.27    4.99
  -3   6 -12   92.57    9.61
  -3   6 -12  120.78   12.65
  -3   6 -12  106.30   11.89
  -3   6 -12   95.87   11.12
  -3   6 -12  116.68   10.37
  -3   6 -12   73.11   18.69
   3  -6  12   91.77   10.77
   3  -6  12  108.97   12.02
   3   5 -12   54.11   14.47
  -3  -5  12   61.28    7.54
  -3  -5  12   74.07    9.87
  -3  -5  12   72.60    8.99
   2   5 -12   28.01    9.64
   2   5 -12   42.35    7.26
  -2  -5  12   47.78    6.46
  -2  -5  12   42.23    5.85
  -2  -5  12   40.39    6.24
  -2  -5  12   38.90    6.46
   1   5 -12   29.13    5.12
   1   5 -12   30.33    3.68
   1   5 -12   23.29    4.87
   1   5 -12   35.56   10.05
  -1  -5  12   22.19    3.38
  -1  -5  12   37.13    5.60
  -1  -5  12   34.56    5.19
  -1  -5  12   28.08    4.69
   0   5 -12   18.29    3.52
   0   5 -12    6.37    2.96
   0   5 -12   17.16    4.39
   0   5 -12   18.08    4.20
   0   5 -12   16.23    6.62
   0  -5  12   13.82    3.29
   0  -5  12   10.74    2.83
   0  -5  12   13.64    3.64
   0  -5  12   15.48    3.49
   0  -5  12   15.42    3.04
  -1   5 -12   17.52    7.00
  -1   5 -12   15.00    3.98
  -1   5 -12   19.87    4.55
  -1   5 -12   13.98    3.97
  -1   5 -12   13.75    3.84
  -1   5 -12   18.57    3.74
  -1   5 -12   12.04    3.57
   1  -5  12   15.95    3.31
   1  -5  12   18.52    4.11
   1  -5  12   14.24    4.40
  -2   5 -12   78.09   14.45
  -2   5 -12   91.46    7.88
  -2   5 -12   76.34    8.98
  -2   5 -12   74.95    9.61
  -2   5 -12   68.92    8.08
  -2   5 -12   74.98    8.08
  -2   5 -12   81.06    9.33
   2  -5  12   75.94    6.18
   2  -5  12   76.14    9.00
   2  -5  12   71.60    8.97
  -3   5 -12   19.34    5.77
  -3   5 -12   11.40    3.98
  -3   5 -12    6.83    4.00
  -3   5 -12   10.21    6.74
  -3   5 -12    9.55    4.05
  -3   5 -12   13.74    4.73
   3  -5  12   13.78    5.04
   3  -5  12   12.78    4.49
   4   4 -12    0.46    7.28
  -4  -4  12    3.89    2.89
  -4  -4  12    3.56    3.23
  -4  -4  12    3.24    3.95
   3   4 -12   54.70   14.55
   3   4 -12   53.85    8.03
  -3  -4  12   76.32    8.93
  -3  -4  12   56.57    8.01
  -3  -4  12   42.41    8.20
  -3  -4  12   77.99    8.11
   2   4 -12   19.78    5.28
   2   4 -12   12.33    7.42
  -2  -4  12   14.56    2.48
  -2  -4  12   14.44    3.83
  -2  -4  12   11.69    3.20
  -2  -4  12   14.18    3.13
  -2  -4  12   14.81    4.06
   1   4 -12    4.38    1.40
   1   4 -12    4.48    4.45
   1   4 -12    5.38    1.66
   1   4 -12    5.67    3.06
   1   4 -12    5.66    2.69
   1   4 -12   11.32    2.39
  -1  -4  12    7.82    2.64
  -1  -4  12    2.99    2.03
  -1  -4  12    3.94    2.30
  -1  -4  12    0.78    1.42
  -1  -4  12    6.30    2.75
   0   4 -12  131.71    8.42
   0   4 -12  159.15   10.47
   0   4 -12  151.84   10.78
   0   4 -12  146.68    9.99
   0   4 -12  138.10   15.84
   0   4 -12  145.94    7.07
   0  -4  12  152.36    8.36
   0  -4  12  147.45    8.96
   0  -4  12  147.25    9.35
   0  -4  12  153.47    9.58
  -1   4 -12    4.53    2.73
  -1   4 -12    1.08    1.99
  -1   4 -12    5.35    2.52
  -1   4 -12    6.21    4.56
  -1   4 -12    4.87    2.86
  -1   4 -12    6.05    2.87
  -1   4 -12    3.97    2.08
   1  -4  12    1.46    1.74
   1  -4  12    0.72    0.73
   1  -4  12    3.30    2.53
  -2   4 -12   16.50    4.00
  -2   4 -12   18.14    4.85
  -2   4 -12   20.54    8.01
  -2   4 -12   21.59    4.89
  -2   4 -12   25.54    4.95
  -2   4 -12   14.12    3.98
  -2   4 -12   20.98    5.41
   2  -4  12   20.26    3.80
   2  -4  12   17.86    4.12
   2  -4  12   25.51    5.59
  -3   4 -12   68.72    9.82
  -3   4 -12   71.53    8.82
  -3   4 -12   83.71    9.31
  -3   4 -12   64.29    9.19
  -3   4 -12   71.38   15.37
  -3   4 -12   73.62    9.17
   3  -4  12   71.52    9.09
   3  -4  12   70.38    9.23
   4   3 -12   -1.75    7.11
  -4  -3  12    1.53    3.47
  -4  -3  12    5.11    2.85
  -4  -3  12    7.61    4.34
  -4  -3  12   -1.13    2.46
   3   3 -12   10.78    7.75
   3   3 -12   13.53    4.52
  -3  -3  12    8.37    3.31
  -3  -3  12   11.72    3.40
  -3  -3  12   10.26    3.85
   2   3 -12    1.22    2.40
   2   3 -12   -0.06    4.00
  -2  -3  12    0.25    1.55
  -2  -3  12    0.80    1.98
  -2  -3  12    3.13    2.09
  -2  -3  12    0.79    1.97
  -2  -3  12    0.75    1.36
   1   3 -12   41.48   10.18
   1   3 -12   47.25    3.63
   1   3 -12   51.15    7.36
   1   3 -12   53.11    4.30
   1   3 -12   46.65    6.14
  -1  -3  12   46.25    6.12
  -1  -3  12   55.65    6.31
  -1  -3  12   66.61    5.61
  -1  -3  12   45.80    4.90
  -1  -3  12   40.19    5.69
   0   3 -12    3.05    1.34
   0   3 -12    1.83    3.49
   0   3 -12    0.39    1.88
   0   3 -12   -0.40    1.47
   0   3 -12    3.94    2.40
   0   3 -12    1.20    1.94
   0  -3  12    3.62    2.24
   0  -3  12    0.42    1.44
   0  -3  12    2.26    1.88
   0  -3  12    2.21    1.60
   0  -3  12    1.57    1.86
  -1   3 -12   43.73    6.49
  -1   3 -12   23.44    7.92
  -1   3 -12   33.00    5.20
  -1   3 -12   36.12    5.67
  -1   3 -12   23.65    4.81
  -1   3 -12   29.09    5.06
  -1   3 -12   33.56    4.59
   1  -3  12   31.04    5.20
   1  -3  12   29.76    4.74
  -2   3 -12   53.36    7.10
  -2   3 -12   50.06    7.04
  -2   3 -12   65.35    8.92
  -2   3 -12   44.54   10.87
  -2   3 -12   49.99    7.16
  -2   3 -12   54.56    7.22
  -2   3 -12   47.58    6.47
   2  -3  12   48.14    6.80
   2  -3  12   48.75    6.08
  -3   3 -12    7.36    4.01
  -3   3 -12    4.33    5.64
  -3   3 -12    3.18    3.23
  -3   3 -12   10.12    4.05
  -3   3 -12    1.01    3.06
   3  -3  12   11.21    4.24
   3  -3  12    1.56    2.76
   4   2 -12   24.60   12.70
  -4  -2  12   18.36    5.28
  -4  -2  12   13.45    4.84
  -4  -2  12   12.63    5.00
   3   2 -12    3.51    5.67
   3   2 -12   -1.16    2.41
  -3  -2  12   -2.97    2.23
  -3  -2  12   -2.71    1.93
  -3  -2  12    1.46    2.39
  -3  -2  12    1.28    1.64
   2   2 -12   74.45    9.18
   2   2 -12   65.85   14.07
  -2  -2  12   60.03    6.85
  -2  -2  12   57.78    6.86
  -2  -2  12   70.72    5.48
  -2  -2  12   75.49    8.31
  -2  -2  12   65.24    5.58
   1   2 -12    2.17    1.45
   1   2 -12    1.26    1.19
   1   2 -12    5.04    2.40
   1   2 -12    2.13    2.31
   1   2 -12    4.14    4.37
  -1  -2  12    3.67    1.98
  -1  -2  12    1.06    1.57
  -1  -2  12    0.52    1.97
  -1  -2  12    1.09    1.82
  -1  -2  12    2.17    1.60
   0   2 -12   44.35    6.34
   0   2 -12   39.52    5.65
   0   2 -12   41.63    4.99
   0   2 -12   49.69   10.99
   0   2 -12   33.05    5.24
   0   2 -12   45.77    3.29
   0  -2  12   37.47    4.55
   0  -2  12   37.13    5.39
   0  -2  12   33.33    4.67
   0  -2  12   44.50    6.59
   0  -2  12   34.35    4.93
  -1   2 -12    5.31    2.78
  -1   2 -12    8.22    2.43
  -1   2 -12    3.87    4.21
  -1   2 -12    6.46    2.70
  -1   2 -12    5.55    2.92
  -1   2 -12    4.66    2.46
  -1   2 -12    3.91    2.61
   1  -2  12    4.26    1.55
   1  -2  12    3.40    2.28
   1  -2  12    2.93    2.18
   1  -2  12    1.26    2.26
  -2   2 -12  205.80   13.39
  -2   2 -12  180.09   11.77
  -2   2 -12  170.69   10.97
  -2   2 -12  185.30   11.59
  -2   2 -12  192.36   12.05
  -2   2 -12  155.71   17.91
  -2   2 -12  178.58   12.18
   2  -2  12  180.66   11.08
   2  -2  12  165.67   11.64
  -3   2 -12    0.82    4.88
  -3   2 -12    2.76    2.94
  -3   2 -12    1.84    2.94
  -3   2 -12    3.35    3.84
  -3   2 -12    8.92    4.01
   3  -2  12    2.61    3.11
   3  -2  12    1.83    3.13
   4   1 -12   -2.37    6.27
  -4  -1  12   -0.20    2.15
  -4  -1  12   -1.29    2.44
  -4  -1  12    2.45    3.63
   3   1 -12    5.70    6.24
   3   1 -12    2.73    2.88
  -3  -1  12    2.08    2.65
  -3  -1  12    5.35    3.34
  -3  -1  12    3.48    2.98
  -3  -1  12    3.73    2.08
  -3  -1  12    3.36    2.43
   2   1 -12   49.95   12.96
   2   1 -12   37.38    6.17
  -2  -1  12   47.80    6.44
  -2  -1  12   35.20    5.75
  -2  -1  12   37.28    5.60
  -2  -1  12   37.23    4.62
  -2  -1  12   28.77    5.80
   1   1 -12  266.08   12.22
   1   1 -12  266.40   22.71
   1   1 -12  282.14   13.71
   1   1 -12  280.01   15.73
   1   1 -12  278.16   11.56
  -1  -1  12  272.68   13.06
  -1  -1  12  265.22   12.62
  -1  -1  12  287.67   14.94
  -1  -1  12  289.37   14.79
   0   1 -12  396.89   14.30
   0   1 -12  406.58   17.92
   0   1 -12  345.09   26.38
   0   1 -12  392.39   18.51
   0   1 -12  400.49   17.10
   0   1 -12  410.14   19.59
   0  -1  12  379.56   18.02
   0  -1  12  393.81   17.46
   0  -1  12  365.77   18.73
  -1   1 -12   67.94   13.65
  -1   1 -12   82.96    7.91
  -1   1 -12   80.91    6.14
  -1   1 -12   95.39    7.93
  -1   1 -12   80.70    8.25
  -1   1 -12   86.56    7.68
   1  -1  12   76.97    7.00
   1  -1  12   75.33    8.97
   1  -1  12   82.64    8.39
  -2   1 -12   28.53    4.70
  -2   1 -12   24.95    5.34
  -2   1 -12   20.96    5.03
  -2   1 -12   40.28    6.29
  -2   1 -12   24.40    8.81
  -2   1 -12   23.78    5.18
  -2   1 -12   34.63    5.56
   2  -1  12   29.44    5.26
   2  -1  12   32.06    5.81
  -3   1 -12   36.99    6.77
  -3   1 -12   35.10    6.75
  -3   1 -12   28.70    6.50
  -3   1 -12   35.23   10.94
  -3   1 -12   33.25    6.51
   3  -1  12   41.26    7.35
   3  -1  12   44.43    7.27
   4   0 -12   18.57   10.10
  -4   0  12   33.10    6.96
  -4   0  12   20.16    5.75
  -4   0  12   20.94    6.03
   3   0 -12    5.61    6.41
   3   0 -12    4.84    3.00
  -3   0  12    1.81    2.20
  -3   0  12    3.37    3.11
  -3   0  12   10.57    3.76
  -3   0  12    7.08    3.28
  -3   0  12    2.78    1.92
   2   0 -12  382.72   19.22
   2   0 -12  309.04   26.79
  -2   0  12  344.59   14.67
  -2   0  12  374.40   19.42
  -2   0  12  357.47   17.37
  -2   0  12  350.24   18.00
   1   0 -12  885.39   31.39
   1   0 -12  917.77   36.45
   1   0 -12  896.00   47.46
   1   0 -12  880.28   32.99
   1   0 -12  960.64   32.65
  -1   0  12  929.26   35.40
  -1   0  12  889.14   33.45
  -1   0  12  908.08   35.32
  -1   0  12  935.79   32.34
   0   0 -12    5.10    2.37
   0   0 -12    6.42    3.13
   0   0 -12    1.52    3.70
   0   0 -12    5.51    2.47
   0   0 -12    1.46    1.30
   0   0 -12    1.11    1.88
   0   0  12    2.34    2.42
   0   0  12    2.44    2.27
   0   0  12    3.20    2.14
  -1   0 -12   83.68    9.51
  -1   0 -12   71.85    7.77
  -1   0 -12   76.57    6.04
  -1   0 -12   71.47   13.88
  -1   0 -12   62.10    7.43
  -1   0 -12   66.78    7.82
   1   0  12   90.26    7.53
   1   0  12   76.87    9.27
   1   0  12   65.39    7.58
  -2   0 -12   36.05    5.95
  -2   0 -12   37.18    6.70
  -2   0 -12   35.96    6.03
  -2   0 -12   27.97    9.34
  -2   0 -12   38.32    6.27
  -2   0 -12   40.04    6.59
   2   0  12   36.37    5.91
   2   0  12   26.61    5.45
  -3   0 -12   -3.31    2.75
  -3   0 -12    1.76    3.56
  -3   0 -12    0.87    2.81
  -3   0 -12    1.64    2.91
  -3   0 -12    2.37    6.28
   3   0  12    0.66    2.67
   4  -1 -12    3.17    6.87
  -4   1  12    2.86    3.50
  -4   1  12    0.02    2.91
  -4   1  12    4.44    4.03
   3  -1 -12    6.88    6.63
   3  -1 -12   12.25    4.14
  -3   1  12    9.02    3.57
  -3   1  12   14.39    4.35
  -3   1  12   11.95    3.92
  -3   1  12   13.05    4.36
   2  -1 -12  101.01    9.19
   2  -1 -12   90.23   33.65
   2  -1 -12  111.32   15.76
  -2   1  12  106.29    8.84
  -2   1  12  110.67    9.08
  -2   1  12   98.21    9.36
  -2   1  12  106.76    6.34
   1  -1 -12  206.97   39.54
   1  -1 -12  251.29   22.13
   1  -1 -12  238.11   11.63
   1  -1 -12  233.46   11.43
   1  -1 -12  219.75   13.99
  -1   1  12  224.62   13.36
  -1   1  12  224.96   12.09
  -1   1  12  234.38   13.58
   0  -1 -12 2062.37   69.40
   0  -1 -12 1811.66  119.41
   0  -1 -12 2060.84   71.40
   0  -1 -12 2041.92   64.62
   0  -1 -12 2083.92   67.80
   0  -1 -12 2004.42   83.51
   0  -1 -12 2097.14   67.89
   0   1  12 1997.20   70.14
   0   1  12 2063.42   69.38
   0   1  12 1941.16   68.00
  -1  -1 -12  133.17    8.30
  -1  -1 -12  132.63    9.36
  -1  -1 -12  142.27   16.98
  -1  -1 -12  142.45    9.87
  -1  -1 -12  122.01   10.33
  -1  -1 -12  145.32   10.24
   1   1  12  114.02    9.95
   1   1  12  127.04    9.70
   1   1  12  118.64    9.07
  -2  -1 -12   37.98   11.15
  -2  -1 -12   39.54    6.63
  -2  -1 -12   47.63    6.71
  -2  -1 -12   56.20    8.18
  -2  -1 -12   64.49    8.74
  -2  -1 -12   38.81    6.32
   2   1  12   42.18    6.66
   2   1  12   49.11    7.05
   2   1  12   36.12    6.73
  -3  -1 -12    5.37    3.24
  -3  -1 -12    6.03    3.65
  -3  -1 -12    3.79    3.59
  -3  -1 -12   -0.07    6.28
  -3  -1 -12    3.97    3.55
   3   1  12    9.98    4.20
   4  -2 -12    8.30    8.49
  -4   2  12    7.38    4.50
  -4   2  12   20.88    6.27
  -4   2  12   12.71    4.56
   3  -2 -12    9.67    3.85
   3  -2 -12   -4.00   11.07
   3  -2 -12    8.26    7.08
  -3   2  12   10.64    4.48
  -3   2  12    6.48    3.27
  -3   2  12    6.30    3.06
   2  -2 -12  133.65   17.02
   2  -2 -12  150.62   11.48
  -2   2  12  152.66   11.76
  -2   2  12  156.64   11.10
  -2   2  12  155.55   11.00
  -2   2  12  161.39    7.57
   1  -2 -12  347.35   15.56
   1  -2 -12  351.36   14.68
   1  -2 -12  320.03   18.23
   1  -2 -12  355.05   26.89
  -1   2  12  322.11   17.24
  -1   2  12  332.43   17.55
  -1   2  12  347.29   17.80
   0  -2 -12  734.56   27.58
   0  -2 -12  733.55   30.71
   0  -2 -12  652.57   39.37
   0  -2 -12  694.04   26.66
   0  -2 -12  575.07   61.88
   0  -2 -12  696.15   28.56
   0  -2 -12  731.82   24.75
   0   2  12  690.02   29.53
   0   2  12  705.56   27.87
   0   2  12  630.21   28.07
  -1  -2 -12  667.25   27.78
  -1  -2 -12  619.16   39.22
  -1  -2 -12  663.18   27.77
  -1  -2 -12  699.72   30.31
  -1  -2 -12  712.53   26.61
  -1  -2 -12  669.35   28.41
   1   2  12  677.53   29.71
   1   2  12  667.63   28.49
   1   2  12  671.43   27.99
  -2  -2 -12   68.05    9.06
  -2  -2 -12   65.97    8.41
  -2  -2 -12   65.79    7.65
  -2  -2 -12   68.41    9.01
  -2  -2 -12   63.76   14.93
  -2  -2 -12   73.85    9.55
   2   2  12   83.33    9.35
   2   2  12   68.45    9.28
   2   2  12   75.70    9.22
  -3  -2 -12    1.69    3.08
  -3  -2 -12   -1.86    3.10
  -3  -2 -12    0.46    5.27
  -3  -2 -12    0.32    2.97
  -3  -2 -12    0.16    3.01
   3   2  12    4.16    3.37
   3  -3 -12   10.14   15.88
   3  -3 -12   37.97    6.83
   3  -3 -12   13.62    8.08
  -3   3  12   45.65    7.96
  -3   3  12   53.69    7.91
  -3   3  12   34.57    6.28
   2  -3 -12   73.41    9.07
   2  -3 -12   65.91   13.86
   2  -3 -12   30.45   20.32
  -2   3  12   65.81    8.13
  -2   3  12   57.26    7.43
  -2   3  12   84.28    5.90
  -2   3  12   79.42    9.59
   1  -3 -12   81.72    9.96
   1  -3 -12   73.02    7.38
   1  -3 -12   84.45   15.67
   1  -3 -12   78.13    5.41
   1  -3 -12   81.18   30.03
  -1   3  12   53.36    7.43
  -1   3  12   79.25    9.43
  -1   3  12   50.52    7.18
   0  -3 -12  124.99   30.35
   0  -3 -12  104.28   11.42
   0  -3 -12  101.62   17.04
   0  -3 -12   92.88    7.04
   0  -3 -12  105.48    8.15
   0  -3 -12   92.27    6.30
   0  -3 -12   89.90    9.29
   0   3  12   97.06    9.50
   0   3  12   96.70    9.90
   0   3  12   96.25    8.83
  -1  -3 -12   12.17   11.98
  -1  -3 -12   19.39    4.86
  -1  -3 -12   11.35    4.64
  -1  -3 -12   22.53    4.74
  -1  -3 -12   18.14    3.92
  -1  -3 -12   20.49    8.71
  -1  -3 -12   14.98    3.97
   1   3  12   22.10    4.78
   1   3  12   28.00    5.50
   1   3  12   13.71    4.44
  -2  -3 -12    1.27    2.28
  -2  -3 -12    0.19    2.12
  -2  -3 -12   -0.52    2.87
  -2  -3 -12    0.48    2.73
  -2  -3 -12    2.42    4.88
  -2  -3 -12   -0.49    2.49
   2   3  12   -0.40    2.46
   2   3  12   -2.53    1.89
   2   3  12    0.67    2.44
  -3  -3 -12    6.87    6.97
   3  -4 -12   49.37   13.81
   3  -4 -12   84.75    9.99
  -3   4  12   70.07    9.91
  -3   4  12   75.67    9.21
  -3   4  12   72.45    8.98
   2  -4 -12  134.39   17.61
   2  -4 -12  207.47   13.75
  -2   4  12  192.21   13.59
  -2   4  12  183.88   12.46
  -2   4  12  191.24   10.31
  -2   4  12  191.30   12.97
   1  -4 -12   -2.41    8.26
   1  -4 -12   -0.04    1.19
   1  -4 -12   -0.79    2.08
   1  -4 -12    1.70    1.35
   1  -4 -12    0.52    3.48
  -1   4  12    3.96    2.35
  -1   4  12    2.27    2.49
  -1   4  12   -0.44    2.19
  -1   4  12    1.90    2.15
   0  -4 -12  299.08   46.66
   0  -4 -12  427.12   18.92
   0  -4 -12  373.00   29.08
   0  -4 -12  384.48   19.00
   0  -4 -12  401.23   16.92
   0  -4 -12  405.89   16.45
   0  -4 -12  396.11   21.18
   0   4  12  379.13   18.63
   0   4  12  376.60   19.46
   0   4  12  380.29   20.07
  -1  -4 -12   32.10    5.09
  -1  -4 -12   28.85    5.68
  -1  -4 -12   31.20    5.71
  -1  -4 -12   30.51    5.39
  -1  -4 -12   33.16    7.01
  -1  -4 -12   24.96    9.09
   1   4  12   37.28    6.36
   1   4  12   28.26    6.04
   1   4  12   35.06    6.37
  -2  -4 -12  152.22   13.37
  -2  -4 -12  158.77   12.13
  -2  -4 -12  131.91   18.97
  -2  -4 -12  145.06   11.17
  -2  -4 -12  138.73   10.99
  -2  -4 -12  159.78   12.43
   2   4  12  140.22   11.71
   2   4  12  151.65   12.38
   2   4  12  155.83   11.61
   3  -5 -12   -1.34   12.72
   3  -5 -12    1.89    5.20
   3  -5 -12    2.98    3.27
  -3   5  12   -0.37    2.80
  -3   5  12    1.00    2.59
  -3   5  12    6.73    3.59
   2  -5 -12    7.81   14.63
   2  -5 -12   36.03    6.92
   2  -5 -12   23.52    9.17
  -2   5  12   23.11    4.30
  -2   5  12   25.92    5.30
  -2   5  12   27.01    6.06
  -2   5  12   12.02    4.15
   1  -5 -12    2.73   10.31
   1  -5 -12    8.14    3.77
   1  -5 -12    3.01    1.93
   1  -5 -12    4.56    5.18
   1  -5 -12    3.66    2.51
  -1   5  12    1.42    2.66
  -1   5  12    4.23    3.13
  -1   5  12    5.30    2.87
  -1   5  12    4.27    2.48
   0  -5 -12   11.08    6.76
   0  -5 -12   17.43    3.57
   0  -5 -12   15.58    4.85
   0  -5 -12   21.24    3.81
   0  -5 -12    4.24   10.81
   0  -5 -12    9.26    3.32
   0  -5 -12    8.21    3.46
   0   5  12   12.66    3.81
   0   5  12   10.42    3.82
   0   5  12   11.14    4.08
  -1  -5 -12    1.75    2.60
  -1  -5 -12   -2.82    1.72
  -1  -5 -12   -0.41    7.78
  -1  -5 -12    1.16    2.27
  -1  -5 -12    0.46    4.21
  -1  -5 -12    2.62    2.34
  -1  -5 -12    3.68    3.39
   1   5  12   -0.92    2.33
   1   5  12   -0.21    2.61
   1   5  12    0.23    2.71
  -2  -5 -12   64.92    8.61
  -2  -5 -12   58.88    8.12
  -2  -5 -12   62.39    8.95
  -2  -5 -12   73.85   10.82
  -2  -5 -12   51.28   13.72
  -2  -5 -12   70.65    9.24
   2   5  12   74.77    9.30
   2   5  12   54.62    8.53
   2   5  12   53.69    8.41
   3  -6 -12    4.22    3.48
   3  -6 -12    0.40    5.13
   3  -6 -12    2.37   14.45
  -3   6  12   -0.36    3.01
  -3   6  12   -1.07    2.70
  -3   6  12    0.28    2.59
   2  -6 -12   60.08   13.82
   2  -6 -12   68.89    9.79
  -2   6  12   92.19   10.99
  -2   6  12   92.95    7.72
  -2   6  12   93.42   10.89
  -2   6  12   89.36    9.86
   1  -6 -12   30.86    6.77
   1  -6 -12   23.97    3.98
   1  -6 -12   21.27    4.80
   1  -6 -12   20.91    8.62
   1  -6 -12   14.34   15.49
  -1   6  12   27.73    5.78
  -1   6  12   26.19    5.04
  -1   6  12   29.27    5.90
  -1   6  12   18.43    5.18
   0  -6 -12   12.10    3.18
   0  -6 -12   10.52   13.68
   0  -6 -12   13.36    4.66
   0  -6 -12    6.96    3.41
   0  -6 -12    9.93    6.68
   0  -6 -12    7.00    3.40
   0  -6 -12   16.43    3.39
   0   6  12    6.01    3.39
   0   6  12    9.20    3.88
  -1  -6 -12    2.33   10.09
  -1  -6 -12    2.96    2.62
  -1  -6 -12    1.53    2.41
  -1  -6 -12    2.04    4.89
  -1  -6 -12    5.51    4.24
  -1  -6 -12    2.53    2.61
  -1  -6 -12    3.98    3.19
   1   6  12    0.33    2.38
   1   6  12    4.49    3.18
   1   6  12    2.36    2.85
  -2  -6 -12    3.03    3.70
  -2  -6 -12   -0.82    2.59
  -2  -6 -12    3.51    3.40
  -2  -6 -12    1.44    3.51
  -2  -6 -12    3.18    4.14
  -2  -6 -12   14.08    8.60
   2   6  12    5.03    3.74
   2   6  12    0.55    2.81
   2   6  12    7.41    4.43
   3  -7 -12   17.84    8.73
   3  -7 -12   16.85    5.59
   3  -7 -12    8.41   17.93
  -3   7  12   19.58    5.98
  -3   7  12   18.23    4.92
  -3   7  12   10.42    4.96
  -3   7  12   18.97    5.87
   2  -7 -12   14.01    7.88
   2  -7 -12   29.71    6.95
   2  -7 -12    4.80   15.12
  -2   7  12   28.60    6.43
  -2   7  12   25.39    5.55
  -2   7  12   24.85    6.11
  -2   7  12   19.21    4.61
   1  -7 -12   10.67    3.21
   1  -7 -12   19.46    4.58
   1  -7 -12   24.77    6.50
   1  -7 -12   13.77   16.39
   1  -7 -12    9.09    6.42
  -1   7  12   14.00    4.30
  -1   7  12   11.16    4.45
  -1   7  12   13.00    4.44
  -1   7  12   15.96    4.40
   0  -7 -12  101.38    8.02
   0  -7 -12  101.05   12.35
   0  -7 -12  102.16   10.49
   0  -7 -12   87.79   16.84
   0  -7 -12   93.68   10.03
   0   7  12   88.16   10.97
   0   7  12  110.24   11.62
  -1  -7 -12   10.72    3.59
  -1  -7 -12    7.02    7.24
  -1  -7 -12    8.89    4.67
  -1  -7 -12    8.65    3.35
  -1  -7 -12    2.59   10.19
  -1  -7 -12    3.67    3.01
  -1  -7 -12   12.34    4.66
   1   7  12   12.81    4.38
   1   7  12    7.23    3.66
   1   7  12    6.99    4.07
   2  -8 -12    9.09    4.64
   2  -8 -12    5.23    6.32
   2  -8 -12   -2.83   10.44
  -2   8  12    3.91    3.81
  -2   8  12    4.50    3.71
  -2   8  12    4.67    3.26
  -2   8  12   13.70    4.41
  -2   8  12   12.33    4.85
   1  -8 -12    4.28    5.21
   1  -8 -12   11.64    4.06
   1  -8 -12    8.41    4.26
   1  -8 -12    1.08   12.55
   1  -8 -12    8.24    3.12
  -1   8  12    4.20    3.39
  -1   8  12    6.08    3.28
  -1   8  12   13.71    4.37
  -1   8  12    8.71    3.97
   0  -8 -12  103.47   10.63
   0  -8 -12   91.43    8.12
   0  -8 -12  117.79   20.34
   0  -8 -12  103.44   12.73
   0  -8 -12   56.76   29.26
   0   8  12   99.63   12.06
   0   8  12   90.11   10.66
   0   8  12  117.35   12.26
  -1  -8 -12    1.29    2.56
  -1  -8 -12    5.81    7.01
  -1  -8 -12    5.10   12.83
  -1  -8 -12    2.89    3.50
  -1  -8 -12    3.97    4.30
  -1  -8 -12    7.01    3.93
   1   8  12    1.68    2.85
   1   8  12   -0.67    2.78
   1   8  12    1.30    2.91
   2  -9 -12    4.95    7.97
   2  -9 -12   10.23    5.31
   2  -9 -12    3.77   15.01
  -2   9  12   12.08    4.80
  -2   9  12   12.44    4.39
  -2   9  12    8.24    4.30
  -2   9  12    4.57    3.91
  -2   9  12    4.42    3.64
   1  -9 -12   58.51    7.26
   1  -9 -12   46.59   12.87
   1  -9 -12   67.82    8.51
   1  -9 -12   25.88   22.47
   1  -9 -12   58.66    9.95
  -1   9  12   54.59    8.29
  -1   9  12   60.07    8.51
  -1   9  12   57.67    8.63
  -1   9  12   45.26    7.59
  -1   9  12   53.42    8.94
   0  -9 -12    1.66    5.67
   0  -9 -12   -1.81    1.91
   0  -9 -12   -3.54    9.60
   0  -9 -12   -2.20    3.29
   0  -9 -12   -1.58    2.52
   0   9  12    0.33    2.47
   0   9  12    0.57    3.04
   0   9  12    1.88    3.46
   0   9  12   -1.43    2.46
   1 -10 -12   -1.63    2.68
  -1  10  12    0.81    3.12
  -1  10  12    2.47    3.16
  -1  10  12    0.21    2.77
   0  13 -13   83.33   11.38
   0  13 -13   77.41    8.80
   0  13 -13   76.06    8.90
   0 -13  13   77.18   10.74
   0 -13  13   76.25    9.60
   0 -13  13   82.85    9.43
   0 -13  13   44.21   25.66
   1  12 -13    2.17    5.68
   1  12 -13    3.26    3.45
  -1 -12  13   -1.10    2.86
  -1 -12  13    1.75    2.81
  -1 -12  13    0.16    2.47
  -1 -12  13   -2.92    2.42
   0  12 -13   19.78    4.69
   0  12 -13   20.15    5.55
   0  12 -13   33.28    5.70
   0 -12  13   19.60    5.27
   0 -12  13   19.59    4.71
   0 -12  13   19.98    5.69
  -1  12 -13    1.19    2.83
  -1  12 -13   -2.21    2.93
  -1  12 -13    3.18    3.01
  -1  12 -13    3.88    3.80
   1 -12  13    0.80    2.81
   1 -12  13    2.26   11.48
   1 -12  13    1.36    3.65
   1 -12  13   -1.38    2.14
   2  11 -13   31.81   12.66
  -2 -11  13   67.77    8.94
  -2 -11  13   90.06   10.89
  -2 -11  13   69.74    9.10
  -2 -11  13   59.20    8.63
   1  11 -13   41.45    7.55
   1  11 -13   34.19   11.11
  -1 -11  13   22.69    5.40
  -1 -11  13   40.66    7.37
  -1 -11  13   42.71    6.93
  -1 -11  13   23.26    5.29
   0  11 -13   38.50    7.43
   0  11 -13   44.12    6.30
   0  11 -13   30.94    6.75
   0  11 -13   32.17    5.61
   0  11 -13   36.64   11.24
   0 -11  13   50.44    6.51
   0 -11  13   57.77    9.07
   0 -11  13   42.60    6.08
   0 -11  13   36.56    6.41
   0 -11  13   48.44    6.40
  -1  11 -13    7.18    4.23
  -1  11 -13   14.55    4.39
  -1  11 -13    8.97    3.77
  -1  11 -13    7.35    3.86
   1 -11  13   15.56    5.09
   1 -11  13   10.66    4.01
   1 -11  13   14.70   15.03
   1 -11  13    7.14    3.46
   2 -11  13   40.17    8.20
   2  10 -13   19.63    9.37
  -2 -10  13   19.20    5.33
  -2 -10  13   27.05    5.98
  -2 -10  13   23.13    5.39
  -2 -10  13   24.27    5.46
   1  10 -13   -1.59    2.26
   1  10 -13   -1.38    3.95
  -1 -10  13    1.24    2.87
  -1 -10  13    2.15    2.45
  -1 -10  13   -1.25    2.40
  -1 -10  13    0.17    2.52
   0  10 -13   16.34    4.99
   0  10 -13   11.16    4.30
   0  10 -13    4.27    5.29
   0  10 -13   17.91    4.10
   0  10 -13   17.00    4.17
   0 -10  13    8.45    3.53
   0 -10  13   18.50    5.33
   0 -10  13   16.29    3.98
   0 -10  13   13.19    3.62
   0 -10  13   16.07    4.13
  -1  10 -13   44.18    6.92
  -1  10 -13   29.57    6.40
  -1  10 -13   38.23    7.50
  -1  10 -13   38.80    6.36
   1 -10  13   24.42    6.20
   1 -10  13   33.11    6.22
   1 -10  13   33.14   20.47
   1 -10  13   43.95    6.66
  -2  10 -13    5.61    4.05
  -2  10 -13    5.31    3.99
  -2  10 -13    9.08    4.35
  -2  10 -13    9.01    4.34
   2 -10  13   12.09    4.90
   2 -10  13    3.26    3.63
   3   9 -13   15.48   10.02
  -3  -9  13   28.77    6.11
  -3  -9  13   40.47    7.66
  -3  -9  13   41.15    8.11
   2   9 -13  137.37   19.53
  -2  -9  13  138.21   11.07
  -2  -9  13  143.09   11.08
  -2  -9  13  137.75   11.30
  -2  -9  13  120.13   10.20
   1   9 -13    0.39    1.66
   1   9 -13   -0.05    2.07
   1   9 -13    1.70    4.42
  -1  -9  13    3.74    2.70
  -1  -9  13    1.29    2.30
  -1  -9  13    1.43    2.49
  -1  -9  13    0.26    2.35
   0   9 -13    7.50    2.92
   0   9 -13    2.35    4.37
   0   9 -13    9.30    4.11
   0   9 -13    7.52    2.88
   0   9 -13    6.95    3.95
   0  -9  13    6.76    3.07
   0  -9  13   12.38    3.39
   0  -9  13    2.15    2.65
   0  -9  13   12.78    3.78
   0  -9  13   12.28    3.27
  -1   9 -13   51.77    7.18
  -1   9 -13   51.29   11.14
  -1   9 -13   61.60    9.31
  -1   9 -13   46.46    7.77
  -1   9 -13   51.75    7.18
   1  -9  13   59.32    7.68
   1  -9  13   58.59    8.08
   1  -9  13   53.39    8.34
  -2   9 -13  318.66   18.36
  -2   9 -13  337.00   18.64
  -2   9 -13  311.08   18.95
  -2   9 -13  364.88   20.46
   2  -9  13  281.43   18.63
   2  -9  13  317.77   18.32
   3   8 -13   45.50   15.18
  -3  -8  13   58.75    9.63
  -3  -8  13   65.88    9.01
  -3  -8  13   80.84    9.56
   2   8 -13   49.91   14.40
  -2  -8  13   60.21    7.98
  -2  -8  13   45.13    7.17
  -2  -8  13   44.70    6.62
  -2  -8  13   53.32    7.73
   1   8 -13    5.13    5.82
   1   8 -13    2.47    2.59
   1   8 -13    1.39    1.65
   1   8 -13    4.25    2.07
  -1  -8  13    1.65    2.50
  -1  -8  13    3.20    2.73
  -1  -8  13    2.86    2.82
  -1  -8  13    1.41    2.29
  -1  -8  13    1.22    1.71
   0   8 -13  155.06   12.21
   0   8 -13  161.10   11.92
   0   8 -13  178.32   10.46
   0   8 -13  160.04    9.89
   0   8 -13  160.43   17.59
   0   8 -13  176.06   12.82
   0  -8  13  166.23   10.02
   0  -8  13  175.00   10.30
   0  -8  13  179.37   11.71
   0  -8  13  160.57   10.35
   0  -8  13  178.79   12.66
  -1   8 -13  249.76   13.96
  -1   8 -13  199.77   14.50
  -1   8 -13  250.20   15.30
  -1   8 -13  222.06   14.52
  -1   8 -13  242.52   13.77
  -1   8 -13  210.71   19.56
   1  -8  13  218.03   13.28
   1  -8  13  237.31   15.55
   1  -8  13  205.61   13.59
   1  -8  13  230.42   11.73
  -2   8 -13  120.90   12.04
  -2   8 -13   98.46   11.56
  -2   8 -13  125.48   10.95
  -2   8 -13  103.04   11.29
   2  -8  13  107.45   11.89
   2  -8  13   92.15   10.20
   3   7 -13    7.32    7.21
  -3  -7  13   14.30    4.93
  -3  -7  13   20.75    5.17
  -3  -7  13   13.35    4.66
   2   7 -13   -1.48    3.93
  -2  -7  13   -0.48    2.33
  -2  -7  13    0.90    2.18
  -2  -7  13    4.54    2.73
  -2  -7  13    1.35    2.59
   1   7 -13  301.62   13.04
   1   7 -13  293.94   16.41
   1   7 -13  305.93   26.27
   1   7 -13  306.51   18.09
   1   7 -13  285.87   12.35
  -1  -7  13  288.29   15.64
  -1  -7  13  288.54   16.47
  -1  -7  13  284.88   13.02
  -1  -7  13  281.58   15.60
  -1  -7  13  308.77   15.56
   0   7 -13   75.22    9.30
   0   7 -13   77.36    9.72
   0   7 -13   79.74    6.76
   0   7 -13   74.43    6.45
   0   7 -13   74.22    8.84
   0   7 -13   61.58   12.56
   0  -7  13   81.99    6.40
   0  -7  13   65.06    8.62
   0  -7  13   68.21    7.28
   0  -7  13   72.14    7.91
   0  -7  13   71.02    7.28
  -1   7 -13   22.04    5.23
  -1   7 -13   30.67    5.32
  -1   7 -13   27.17    5.76
  -1   7 -13   35.94    5.83
  -1   7 -13   22.41    8.08
  -1   7 -13   30.16    5.85
   1  -7  13   23.98    4.04
   1  -7  13   37.03    6.21
   1  -7  13   25.88    5.02
   1  -7  13   26.16    5.94
  -2   7 -13   -2.20    2.74
  -2   7 -13    4.56    3.37
  -2   7 -13    4.04    3.07
  -2   7 -13    2.86    3.04
  -2   7 -13    3.16    2.91
  -2   7 -13    4.03    3.29
  -2   7 -13    4.01    2.86
  -2   7 -13   -1.04    3.80
   2  -7  13    1.09    3.07
   2  -7  13    1.36    2.68
   3   6 -13   42.22   14.30
  -3  -6  13   25.34    5.23
  -3  -6  13   23.94    5.52
  -3  -6  13   24.09    5.73
   2   6 -13  170.69   12.99
   2   6 -13  138.00   19.11
  -2  -6  13  172.75   11.15
  -2  -6  13  162.58   11.47
  -2  -6  13  156.19   11.00
  -2  -6  13  163.49   11.80
   1   6 -13   84.72   10.15
   1   6 -13   71.36   14.15
   1   6 -13   93.38    8.79
   1   6 -13   99.66    5.75
   1   6 -13  109.98    6.58
  -1  -6  13  125.58    9.84
  -1  -6  13  108.28    8.17
  -1  -6  13   96.91    6.51
  -1  -6  13   88.93    7.79
  -1  -6  13   98.49    8.36
   0   6 -13    8.02    2.87
   0   6 -13    3.75    2.78
   0   6 -13   15.92    3.38
   0   6 -13   10.24    3.79
   0   6 -13   11.20    3.64
   0   6 -13    8.11    5.63
   0  -6  13   12.11    3.08
   0  -6  13    9.06    2.97
   0  -6  13    7.79    2.78
   0  -6  13    9.52    3.39
   0  -6  13   12.64    4.32
  -1   6 -13  246.27   15.28
  -1   6 -13  254.64   15.32
  -1   6 -13  264.85   14.53
  -1   6 -13  271.13   22.42
  -1   6 -13  246.57   15.50
   1  -6  13  279.10   14.76
   1  -6  13  252.60   12.99
   1  -6  13  286.04   16.42
   1  -6  13  254.59   11.27
  -2   6 -13    1.07    2.60
  -2   6 -13    2.25    2.73
  -2   6 -13    2.17    2.68
  -2   6 -13    0.14    2.73
  -2   6 -13    1.41    4.26
  -2   6 -13    0.56    2.84
  -2   6 -13    0.42    2.59
   2  -6  13    3.72    3.13
   2  -6  13   -2.97    1.82
  -3   6 -13    0.05    3.12
  -3   6 -13    2.46    3.35
  -3   6 -13   -0.08    3.72
  -3   6 -13    3.93    3.45
  -3   6 -13   -1.29    2.63
   3  -6  13    2.69    3.42
   3  -6  13    6.23    4.01
   3   5 -13   20.57   10.44
  -3  -5  13    9.77    4.17
  -3  -5  13    8.43    3.35
  -3  -5  13    8.49    3.94
   2   5 -13   67.49   15.73
   2   5 -13   78.35   10.16
  -2  -5  13   60.54    7.92
  -2  -5  13   63.41    7.79
  -2  -5  13   62.63    7.25
  -2  -5  13   61.35    8.25
   1   5 -13   51.15    7.53
   1   5 -13   27.77    9.03
   1   5 -13   37.34    6.89
   1   5 -13   42.36    4.51
  -1  -5  13   32.98    5.20
  -1  -5  13   37.32    5.58
  -1  -5  13   33.82    4.29
  -1  -5  13   31.37    5.14
   0   5 -13   -1.99    1.76
   0   5 -13    1.08    1.43
   0   5 -13    0.24    1.80
   0   5 -13   -1.16    3.07
   0   5 -13   -1.31    1.84
   0   5 -13    3.37    2.59
   0  -5  13    2.58    1.98
   0  -5  13    0.09    1.49
   0  -5  13    0.43    1.67
   0  -5  13    1.12    1.69
  -1   5 -13  111.00    9.63
  -1   5 -13  108.34   14.46
  -1   5 -13  117.35    8.11
  -1   5 -13  108.77    8.88
  -1   5 -13  113.81    9.39
  -1   5 -13  122.68    9.94
  -1   5 -13  135.48    9.63
   1  -5  13  124.34    9.28
   1  -5  13  122.90    8.39
   1  -5  13  117.40    6.42
   1  -5  13  119.10   10.05
  -2   5 -13   11.63    3.98
  -2   5 -13    9.32    4.05
  -2   5 -13   16.69    4.76
  -2   5 -13   10.78    3.66
  -2   5 -13   17.16    5.08
  -2   5 -13   11.17    3.82
  -2   5 -13   13.20    6.73
   2  -5  13    6.52    3.48
   2  -5  13    7.51    3.58
   2  -5  13   12.62    3.24
  -3   5 -13    1.53    2.88
  -3   5 -13    9.50    3.88
  -3   5 -13    1.07    5.10
  -3   5 -13    1.88    3.39
  -3   5 -13   -0.09    3.54
  -3   5 -13   -4.66    2.70
   3  -5  13   -2.31    2.43
   3  -5  13    3.88    3.22
   3   4 -13   52.00    8.41
   3   4 -13   28.53   12.09
  -3  -4  13   51.59    6.79
  -3  -4  13   49.97    8.17
  -3  -4  13   41.12    7.00
   2   4 -13   23.08    9.60
   2   4 -13   21.54    5.48
  -2  -4  13   26.55    4.75
  -2  -4  13   26.77    4.61
  -2  -4  13   26.48    5.05
  -2  -4  13   30.70    3.76
  -2  -4  13   26.82    5.46
   1   4 -13   20.25    4.91
   1   4 -13   35.60   10.50
   1   4 -13   23.24    4.86
   1   4 -13   23.81    3.41
  -1  -4  13   30.77    4.83
  -1  -4  13   24.78    4.64
  -1  -4  13   19.38    3.41
  -1  -4  13   22.45    4.19
  -1  -4  13   23.74    4.65
   0   4 -13   28.93    9.45
   0   4 -13   28.76    5.23
   0   4 -13   35.33    3.53
   0   4 -13   27.37    5.42
   0   4 -13   19.39    3.87
   0   4 -13   33.28    6.13
   0  -4  13   39.06    5.69
   0  -4  13   34.10    5.14
   0  -4  13   31.86    4.39
   0  -4  13   33.53    5.00
  -1   4 -13  360.77   18.73
  -1   4 -13  362.72   27.08
  -1   4 -13  345.56   15.96
  -1   4 -13  363.40   17.73
  -1   4 -13  373.38   19.05
  -1   4 -13  351.71   18.01
  -1   4 -13  347.46   17.75
   1  -4  13  347.47   16.73
   1  -4  13  396.19   18.26
   1  -4  13  362.13   14.04
  -2   4 -13   -1.93    3.21
  -2   4 -13    3.82    2.76
  -2   4 -13    5.84    3.16
  -2   4 -13    3.56    3.09
  -2   4 -13   -0.61    2.55
  -2   4 -13    0.71    2.53
  -2   4 -13   -0.71    2.20
   2  -4  13    1.76    2.73
   2  -4  13   -3.00    1.85
   2  -4  13    0.30    1.94
  -3   4 -13   17.65    4.95
  -3   4 -13   15.60    7.87
  -3   4 -13   22.00    5.59
  -3   4 -13   15.60    4.86
  -3   4 -13   18.84    5.47
  -3   4 -13   11.58    4.90
   3  -4  13   16.78    5.30
   3  -4  13   23.07    5.68
   3   3 -13    8.40    7.79
   3   3 -13   17.78    5.31
  -3  -3  13   18.33    4.65
  -3  -3  13   16.38    4.93
  -3  -3  13   15.52    3.78
   2   3 -13   88.52   17.56
   2   3 -13   85.40    9.86
  -2  -3  13  101.89    8.57
  -2  -3  13   90.72    7.13
  -2  -3  13  101.00    7.80
  -2  -3  13   94.83    6.22
  -2  -3  13   82.52    9.18
   1   3 -13   62.67    8.40
   1   3 -13   64.64    7.47
   1   3 -13   62.98   13.63
   1   3 -13   64.20    5.14
  -1  -3  13   63.50    7.49
  -1  -3  13   64.09    7.60
  -1  -3  13   70.26    6.02
  -1  -3  13   65.83    5.58
  -1  -3  13   69.11    7.45
   0   3 -13    0.98    1.99
   0   3 -13   -1.00    1.52
   0   3 -13   -0.96    1.76
   0   3 -13   -0.84    3.41
   0   3 -13   -0.52    1.06
   0  -3  13   -0.81    1.18
   0  -3  13    3.31    2.05
   0  -3  13   -0.51    1.47
   0  -3  13    0.88    1.83
   0  -3  13    0.72    1.71
  -1   3 -13  192.35   12.54
  -1   3 -13  207.97   12.38
  -1   3 -13  197.03   12.82
  -1   3 -13  187.11   19.18
  -1   3 -13  169.41    9.94
  -1   3 -13  178.81   11.42
  -1   3 -13  189.81   11.80
   1  -3  13  179.88   11.10
   1  -3  13  182.69   11.45
   1  -3  13  189.51    8.66
  -2   3 -13    5.05    5.18
  -2   3 -13    2.71    2.85
  -2   3 -13    0.52    2.69
  -2   3 -13    3.69    2.86
  -2   3 -13    2.95    2.58
  -2   3 -13    6.44    2.98
  -2   3 -13    3.43    2.72
   2  -3  13    2.91    2.48
   2  -3  13    5.97    3.19
  -3   3 -13   27.96    6.53
  -3   3 -13   24.52    5.71
  -3   3 -13   13.52    7.81
  -3   3 -13   17.01    5.27
  -3   3 -13    8.41    4.27
   3  -3  13   11.53    4.69
   3  -3  13   26.92    6.10
   3   2 -13    2.08    3.02
   3   2 -13    2.37    6.46
  -3  -2  13    3.70    2.12
  -3  -2  13    0.26    2.04
  -3  -2  13    4.78    3.25
  -3  -2  13    0.40    2.93
   2   2 -13   41.12    7.13
   2   2 -13   44.62   12.46
  -2  -2  13   30.01    5.24
  -2  -2  13   35.01    4.93
  -2  -2  13   34.91    5.41
  -2  -2  13   42.25    4.98
  -2  -2  13   36.69    6.08
   1   2 -13   -1.17    3.42
   1   2 -13    4.42    1.90
   1   2 -13    1.98    2.01
   1   2 -13    0.37    2.34
  -1  -2  13    0.29    1.85
  -1  -2  13    0.04    1.84
  -1  -2  13    2.17    2.14
  -1  -2  13    4.53    2.18
  -1  -2  13    0.74    1.60
   0   2 -13   47.48    3.43
   0   2 -13   41.99    6.48
   0   2 -13   66.67   13.84
   0   2 -13   50.61    5.95
   0   2 -13   51.47    6.72
   0   2 -13   44.34    6.30
   0  -2  13   56.06    6.43
   0  -2  13   51.08    5.58
   0  -2  13   43.57    6.54
   0  -2  13   39.06    5.73
  -1   2 -13    2.19    1.92
  -1   2 -13   -1.45    1.78
  -1   2 -13    1.26    2.23
  -1   2 -13   -0.58    2.16
  -1   2 -13   -2.14    1.80
  -1   2 -13   -2.69    2.68
   1  -2  13   -2.29    1.70
   1  -2  13   -0.92    1.11
   1  -2  13    1.02    1.90
   1  -2  13   -0.43    1.76
  -2   2 -13   -1.05    2.16
  -2   2 -13    1.27    2.25
  -2   2 -13   -1.76    2.16
  -2   2 -13    3.21    2.33
  -2   2 -13   -1.81    3.54
  -2   2 -13   -1.11    2.33
  -2   2 -13   -0.88    2.26
   2  -2  13    1.79    2.23
   2  -2  13    0.96    2.36
  -3   2 -13    7.26    4.18
  -3   2 -13    4.47    3.40
  -3   2 -13   12.51    5.03
  -3   2 -13    5.41    3.97
  -3   2 -13    3.97    6.09
   3  -2  13    3.94    3.62
   3  -2  13    8.53    3.81
   3   1 -13   93.91   19.56
   3   1 -13  104.41   11.48
  -3  -1  13  120.74   10.15
  -3  -1  13  104.61    7.35
  -3  -1  13  110.44    8.55
  -3  -1  13   87.99   10.93
  -3  -1  13   92.79   10.38
   2   1 -13   10.63    7.13
   2   1 -13   31.32    6.27
  -2  -1  13   20.21    3.52
  -2  -1  13   26.41    4.29
  -2  -1  13   24.75    4.89
  -2  -1  13   26.10    5.55
  -2  -1  13   27.65    5.08
   1   1 -13  465.35   22.41
   1   1 -13  431.38   31.17
   1   1 -13  429.09   19.45
   1   1 -13  437.69   18.20
  -1  -1  13  440.81   18.64
  -1  -1  13  463.07   21.16
  -1  -1  13  428.13   18.99
  -1  -1  13  506.68   21.77
   0   1 -13   23.00    4.21
   0   1 -13   28.08    5.71
   0   1 -13   15.35    6.67
   0   1 -13   21.91    4.27
   0   1 -13   20.15    4.30
   0   1 -13   23.74    2.78
   0  -1  13   20.72    4.45
   0  -1  13   29.96    4.79
   0  -1  13   21.04    4.98
  -1   1 -13    5.26    2.72
  -1   1 -13   10.38    5.93
  -1   1 -13   11.79    4.06
  -1   1 -13   12.61    3.96
  -1   1 -13   12.03    3.03
  -1   1 -13    8.74    3.61
   1  -1  13    9.80    3.38
   1  -1  13   17.05    4.80
   1  -1  13   17.10    4.15
  -2   1 -13   27.92    5.76
  -2   1 -13   42.44    6.35
  -2   1 -13   29.82   10.26
  -2   1 -13   29.47    6.11
  -2   1 -13   30.49    5.93
  -2   1 -13   34.07    6.14
   2  -1  13   30.54    6.01
   2  -1  13   25.46    5.00
  -3   1 -13   22.41    5.61
  -3   1 -13   19.15    5.91
  -3   1 -13   24.96    5.54
  -3   1 -13   23.49   10.46
  -3   1 -13   30.85    6.62
   3  -1  13   24.81    5.83
   3  -1  13   27.16    5.97
   3   0 -13   26.49   11.15
   3   0 -13   36.61    6.81
  -3   0  13   41.15    7.85
  -3   0  13   51.74    7.69
  -3   0  13   43.99    6.51
  -3   0  13   36.68    6.75
   2   0 -13   51.17    7.65
   2   0 -13   44.97   12.24
  -2   0  13   53.00    7.18
  -2   0  13   63.86    8.69
  -2   0  13   61.78    5.05
  -2   0  13   63.48    8.36
   1   0 -13   55.65    5.84
   1   0 -13   59.07    6.51
   1   0 -13   51.57   12.32
   1   0 -13   53.02    7.81
  -1   0  13   50.79    6.99
  -1   0  13   61.50    6.88
  -1   0  13   59.24    5.94
  -1   0  13   47.97    7.01
   0   0 -13  162.14   11.30
   0   0 -13  187.61   10.88
   0   0 -13  159.17   10.22
   0   0 -13  183.65    8.10
   0   0 -13  172.31   12.40
   0   0 -13  153.73   18.00
   0   0  13  186.35   11.04
   0   0  13  180.44   12.25
   0   0  13  168.72   11.30
  -1   0 -13   -0.18    1.97
  -1   0 -13    3.18    2.26
  -1   0 -13    2.43    4.08
  -1   0 -13    1.76    1.83
  -1   0 -13    4.22    3.19
  -1   0 -13    1.93    2.37
   1   0  13    5.07    2.76
   1   0  13   -0.46    2.00
   1   0  13   -0.74    2.07
  -2   0 -13   45.42   12.39
  -2   0 -13   35.29    6.55
  -2   0 -13   59.53    7.42
  -2   0 -13   51.21    7.50
  -2   0 -13   61.64    8.38
  -2   0 -13   49.74    7.18
   2   0  13   44.85    6.81
   2   0  13   53.98    7.26
  -3   0 -13   21.92    5.88
  -3   0 -13   18.89    5.31
  -3   0 -13   24.10   10.62
  -3   0 -13   22.11    6.63
  -3   0 -13   21.28    5.41
   3   0  13   20.69    5.62
   3  -1 -13   14.49    4.75
   3  -1 -13   16.89    9.17
  -3   1  13   21.26    5.83
  -3   1  13   13.75    4.18
  -3   1  13   13.65    4.39
  -3   1  13   17.60    5.01
   2  -1 -13   19.54    4.94
   2  -1 -13    3.50    5.13
  -2   1  13   14.54    2.80
  -2   1  13   18.24    5.23
  -2   1  13   16.79    4.55
  -2   1  13   19.56    4.81
   1  -1 -13   34.71   10.61
   1  -1 -13   31.48    4.61
   1  -1 -13   30.78    4.60
   1  -1 -13   30.80   20.33
   1  -1 -13   40.71    7.26
  -1   1  13   29.98    5.74
  -1   1  13   25.95    4.72
  -1   1  13   24.18    5.15
   0  -1 -13  321.96   13.43
   0  -1 -13  339.14   16.30
   0  -1 -13  342.63   16.34
   0  -1 -13  329.77   17.42
   0  -1 -13  345.96   18.97
   0  -1 -13  328.64   26.70
   0   1  13  319.63   16.48
   0   1  13  382.39   19.02
   0   1  13  367.51   18.00
  -1  -1 -13  122.16   16.73
  -1  -1 -13  111.28    9.06
  -1  -1 -13  126.62    9.81
  -1  -1 -13  112.25   10.37
  -1  -1 -13  109.31    7.72
  -1  -1 -13  124.43    9.46
   1   1  13  111.04    9.09
   1   1  13  104.18    9.17
   1   1  13  104.37    9.78
  -2  -1 -13   65.11    9.29
  -2  -1 -13   52.48    7.68
  -2  -1 -13   36.22   11.43
  -2  -1 -13   46.54    7.79
  -2  -1 -13   52.29    7.04
  -2  -1 -13   44.88    7.22
   2   1  13   58.27    8.90
   2   1  13   61.22    8.12
   2   1  13   36.67    6.63
   3  -2 -13  140.95   11.64
   3  -2 -13  123.90   22.03
  -3   2  13  131.37   10.66
  -3   2  13  134.82   12.28
  -3   2  13  127.44   10.96
   2  -2 -13    1.97   11.16
   2  -2 -13    4.75    3.43
   2  -2 -13    3.06    5.20
  -2   2  13    0.17    2.64
  -2   2  13    3.57    2.91
  -2   2  13   -1.42    2.09
   1  -2 -13 2089.64   72.65
   1  -2 -13 2034.28   68.10
   1  -2 -13 1861.41   85.37
   1  -2 -13 2121.23   67.13
  -1   2  13 1987.46   71.21
  -1   2  13 2075.53   71.00
   0  -2 -13  648.30   29.37
   0  -2 -13  600.92   38.74
   0  -2 -13  651.30   25.66
   0  -2 -13  633.14   26.15
   0  -2 -13  689.88   27.97
   0  -2 -13  662.96   23.28
   0  -2 -13  566.54   63.56
   0   2  13  659.72   28.70
   0   2  13  602.28   27.28
   0   2  13  634.96   26.64
  -1  -2 -13   67.50    8.12
  -1  -2 -13   80.71   15.97
  -1  -2 -13   76.68    7.64
  -1  -2 -13   81.09   10.25
  -1  -2 -13   89.74    9.35
  -1  -2 -13   83.70    9.57
   1   2  13   75.42    8.60
   1   2  13   64.88    8.58
   1   2  13   64.11    9.14
  -2  -2 -13  225.36   13.63
  -2  -2 -13  232.03   15.12
  -2  -2 -13  215.47   23.81
  -2  -2 -13  243.78   15.51
  -2  -2 -13  218.80   14.54
  -2  -2 -13  241.12   16.11
   2   2  13  227.02   14.63
   2   2  13  215.65   14.63
   2   2  13  258.12   16.46
   3  -3 -13   30.95    6.47
   3  -3 -13    3.43   12.60
   3  -3 -13   14.71    8.74
  -3   3  13   34.66    7.55
  -3   3  13   33.90    6.50
  -3   3  13   21.08    5.39
   2  -3 -13    1.86    9.77
   2  -3 -13   13.07    4.59
   2  -3 -13    6.68    5.96
  -2   3  13   12.67    4.37
  -2   3  13   11.28    3.78
  -2   3  13    8.86    3.72
   1  -3 -13   21.54    5.72
   1  -3 -13   26.53    3.85
   1  -3 -13   22.51    8.60
   1  -3 -13   13.67   16.48
   1  -3 -13   22.96    4.57
  -1   3  13   18.92    4.40
  -1   3  13   28.68    6.10
   0  -3 -13    0.34    9.94
   0  -3 -13   -2.65    1.76
   0  -3 -13    0.55    1.67
   0  -3 -13    0.83    1.60
   0  -3 -13   -0.10    2.20
   0  -3 -13   -0.11    3.76
   0  -3 -13    2.11    3.12
   0   3  13   -1.21    2.04
   0   3  13    3.15    2.41
   0   3  13   -0.90    2.39
  -1  -3 -13   13.38    7.26
  -1  -3 -13   12.64    4.07
  -1  -3 -13   20.91    4.64
  -1  -3 -13   16.09    3.88
  -1  -3 -13   23.34    4.87
  -1  -3 -13    0.86    7.88
  -1  -3 -13   14.24    5.06
   1   3  13   22.43    4.98
   1   3  13   14.03    4.57
   1   3  13   16.97    4.38
  -2  -3 -13   31.07    6.53
  -2  -3 -13   23.88    5.27
  -2  -3 -13   36.00    7.61
  -2  -3 -13   35.38   11.83
  -2  -3 -13   29.10    5.98
  -2  -3 -13   36.04    6.06
   2   3  13   27.83    6.52
   2   3  13   32.24    6.46
   2   3  13   36.87    6.77
   3  -4 -13    4.13   13.51
   3  -4 -13    2.52    5.45
   3  -4 -13    0.73    2.89
  -3   4  13    1.91    3.03
  -3   4  13    2.16    3.30
  -3   4  13   -0.54    2.73
   2  -4 -13   18.99   18.75
   2  -4 -13   48.11   12.80
   2  -4 -13   50.28    7.99
  -2   4  13   53.05    8.15
  -2   4  13   62.25    9.02
  -2   4  13   50.76    5.95
  -2   4  13   54.37    7.77
   1  -4 -13    1.64    4.90
   1  -4 -13    0.66    3.23
   1  -4 -13   -0.61   11.06
  -1   4  13   -1.10    2.14
  -1   4  13   -2.19    2.02
  -1   4  13   -0.98    2.17
   0  -4 -13   -0.66    2.19
   0  -4 -13    2.34    2.42
   0  -4 -13    3.13    2.21
   0  -4 -13    1.62    9.75
   0  -4 -13    2.36    5.11
   0  -4 -13    2.54    2.86
   0  -4 -13    1.97    1.82
   0   4  13    2.42    2.45
   0   4  13   -0.33    2.10
   0   4  13    5.80    3.35
  -1  -4 -13    7.23    3.08
  -1  -4 -13    7.06    6.72
  -1  -4 -13   10.47    3.67
  -1  -4 -13    5.90    3.10
  -1  -4 -13   12.20    5.15
  -1  -4 -13    6.31   11.06
  -1  -4 -13   15.93    5.00
   1   4  13   13.59    4.70
   1   4  13   11.08    3.93
   1   4  13    5.84    3.61
  -2  -4 -13    2.47    2.72
  -2  -4 -13    0.25    5.05
  -2  -4 -13   -0.70    2.65
  -2  -4 -13    1.99    3.06
  -2  -4 -13    0.38    2.77
  -2  -4 -13    0.09    3.38
   2   4  13   -1.98    2.44
   2   4  13    0.84    2.78
   2   4  13   -1.79    2.25
   3  -5 -13    0.24    2.91
   3  -5 -13    1.07    5.59
   3  -5 -13    0.80   12.40
  -3   5  13   -1.30    2.54
  -3   5  13   -1.68    2.47
  -3   5  13   -0.11    2.86
   2  -5 -13    0.45   11.86
   2  -5 -13   13.19    4.89
   2  -5 -13    9.80    7.05
  -2   5  13   15.54    3.67
  -2   5  13   10.36    3.93
  -2   5  13   13.13    4.83
  -2   5  13   11.07    4.09
   1  -5 -13   10.54    3.67
   1  -5 -13   11.51    4.76
   1  -5 -13    8.24    6.57
   1  -5 -13   17.69   17.19
  -1   5  13   11.32    4.24
  -1   5  13    5.82    3.46
  -1   5  13    7.81    3.79
   0  -5 -13    3.13    2.91
   0  -5 -13    4.52    3.70
   0  -5 -13    4.54    2.20
   0  -5 -13    4.64    2.56
   0  -5 -13    4.70    2.95
   0  -5 -13    4.81    5.42
   0  -5 -13   -0.22    8.69
   0   5  13    2.20    2.43
   0   5  13    5.94    3.36
   0   5  13    3.66    3.45
  -1  -5 -13    4.84    3.62
  -1  -5 -13    2.37    2.78
  -1  -5 -13    9.04    3.41
  -1  -5 -13    3.60    2.83
  -1  -5 -13    9.47   12.55
  -1  -5 -13    4.60    5.85
  -1  -5 -13   10.07    5.10
   1   5  13    2.12    2.98
   1   5  13    0.68    2.65
   1   5  13   -0.55    2.40
  -2  -5 -13   54.35    9.62
  -2  -5 -13   41.13    7.72
  -2  -5 -13   38.10   13.08
  -2  -5 -13   41.52    7.50
  -2  -5 -13   27.43    6.14
  -2  -5 -13   41.40    7.10
   2   5  13   33.01    6.84
   2   5  13   31.71    6.78
   2   5  13   50.00    8.61
   3  -6 -13   16.47    5.55
   3  -6 -13   13.30    8.21
   3  -6 -13    4.26   14.58
  -3   6  13   10.20    4.81
  -3   6  13   11.47    4.95
  -3   6  13   10.75    4.45
   2  -6 -13   -0.27    4.81
   2  -6 -13   -4.24    7.92
   2  -6 -13    4.77    2.94
  -2   6  13   -0.17    2.31
  -2   6  13    0.20    2.57
  -2   6  13   -1.49    2.76
  -2   6  13   -0.21    2.13
   1  -6 -13   39.87    7.98
   1  -6 -13   14.58   16.91
   1  -6 -13   28.61   10.11
   1  -6 -13   35.58    6.29
  -1   6  13   36.29    6.73
  -1   6  13   24.25    5.72
  -1   6  13   21.75    5.77
  -1   6  13   34.49    5.82
   0  -6 -13   -0.07    2.12
   0  -6 -13   -3.38    1.89
   0  -6 -13    1.27    3.29
   0  -6 -13   -1.67    8.31
   0  -6 -13    0.25    1.73
   0  -6 -13    1.28    4.73
   0   6  13   -0.72    2.52
   0   6  13   -1.86    1.75
   0   6  13   -0.58    2.50
  -1  -6 -13    4.43   11.40
  -1  -6 -13    6.60    3.31
  -1  -6 -13    2.78    3.56
  -1  -6 -13    7.59    3.66
  -1  -6 -13    2.40    2.60
  -1  -6 -13    0.89    2.42
  -1  -6 -13    7.05    7.16
   1   6  13    0.17    2.46
   1   6  13    1.52    3.61
   1   6  13    0.04    2.85
   2  -7 -13    4.21    5.64
   2  -7 -13    4.74   14.55
   2  -7 -13    5.31    4.34
  -2   7  13    9.04    4.04
  -2   7  13   14.13    4.00
  -2   7  13   15.33    5.12
  -2   7  13   16.15    4.80
   1  -7 -13    8.27    3.32
   1  -7 -13   -4.43    9.32
   1  -7 -13    2.36    3.28
   1  -7 -13   -0.14    4.24
  -1   7  13    4.41    3.10
  -1   7  13    1.55    3.19
  -1   7  13    6.01    3.59
  -1   7  13    2.58    3.68
   0  -7 -13   -3.24    4.14
   0  -7 -13    2.07    2.74
   0  -7 -13    0.93    2.42
   0  -7 -13    0.88   10.34
   0  -7 -13    6.97    4.13
   0  -7 -13   -1.18    1.90
   0   7  13    0.23    2.49
   0   7  13    1.06    2.65
   0   7  13   -4.19    2.46
  -1  -7 -13   85.09   12.22
  -1  -7 -13   71.69    9.54
  -1  -7 -13   91.77    9.61
  -1  -7 -13   73.62    9.96
  -1  -7 -13   77.43   17.24
  -1  -7 -13   72.52    8.88
   1   7  13   62.86    8.75
   1   7  13   86.63   11.44
   1   7  13   76.79   10.69
   2  -8 -13   41.77   12.53
   2  -8 -13   39.06    8.26
   2  -8 -13   14.69   18.69
  -2   8  13   38.78    7.02
  -2   8  13   50.23    8.50
  -2   8  13   32.13    7.11
  -2   8  13   22.92    6.33
  -2   8  13   34.14    6.37
   1  -8 -13    9.49   16.93
   1  -8 -13   18.82    5.04
   1  -8 -13   19.03    6.57
   1  -8 -13   18.30    9.11
  -1   8  13   17.31    4.94
  -1   8  13   20.04    5.81
  -1   8  13   11.59    4.69
  -1   8  13   11.20    4.70
   0  -8 -13    1.94   11.52
   0  -8 -13    6.86    4.63
   0  -8 -13   17.96    9.17
   0  -8 -13    9.05    4.32
   0  -8 -13   13.00    3.87
   0   8  13   10.67    5.18
   0   8  13   11.28    4.83
  -1  -8 -13   10.14    7.82
  -1  -8 -13   11.18    4.72
  -1  -8 -13   17.85    4.99
   1   8  13   12.94    4.93
   1   8  13   14.31    5.40
   1  -9 -13    2.37    3.10
   1  -9 -13    6.14   14.63
   1  -9 -13    4.77    4.66
   1  -9 -13    1.01    5.34
  -1   9  13    1.26    3.25
  -1   9  13    5.47    3.41
  -1   9  13    0.92    2.77
  -1   9  13    2.45    3.21
  -1   9  13    3.15    3.58
   0  -9 -13    3.32    4.63
   0  -9 -13    5.24    3.76
   0  -9 -13    0.84    5.72
   0  -9 -13    1.66   12.39
   0  -9 -13    5.26    3.28
   0   9  13    0.11    3.40
   0   9  13    3.67    3.54
   0   9  13    3.98    3.59
   1  12 -14   -0.57    5.16
   1  12 -14    0.03    2.87
  -1 -12  14    2.70    3.88
  -1 -12  14   -2.50    2.59
  -1 -12  14    2.98    3.49
  -1 -12  14    4.49    3.17
   0  12 -14   29.28    5.62
   0  12 -14   35.59    7.52
   0  12 -14   19.82    4.80
   0 -12  14   30.82    5.70
   0 -12  14   21.77    6.45
   0 -12  14   27.09    6.31
   1 -12  14    1.19   10.92
   1 -12  14    4.35    3.82
   2  11 -14   21.57   10.96
  -2 -11  14   21.91    5.83
  -2 -11  14   19.30    5.21
   1  11 -14   10.98    4.26
   1  11 -14    1.26    5.43
  -1 -11  14    6.83    4.15
  -1 -11  14   10.04    4.15
  -1 -11  14    6.08    3.35
  -1 -11  14    0.29    2.80
   0  11 -14    1.01    3.06
   0  11 -14   -0.15    2.79
   0  11 -14    3.17    2.77
   0  11 -14    0.98    2.57
   0 -11  14   -0.44    2.74
   0 -11  14    2.20    3.65
   0 -11  14   -1.18    2.01
   0 -11  14    1.97    2.87
  -1  11 -14    9.72    4.21
  -1  11 -14    8.87    3.96
  -1  11 -14    5.99    4.14
  -1  11 -14    8.51    4.50
   1 -11  14    3.38    2.93
   1 -11  14    5.67    3.73
   1 -11  14   12.51   15.71
   1 -11  14    4.19    3.65
   2  10 -14   -0.79    5.92
  -2 -10  14   -0.55    2.52
  -2 -10  14    4.20    3.22
  -2 -10  14   -1.66    2.10
  -2 -10  14    0.15    2.55
   1  10 -14   32.89   11.31
   1  10 -14   49.58    7.88
  -1 -10  14   36.33    6.39
  -1 -10  14   39.99    6.80
  -1 -10  14   42.68    7.32
  -1 -10  14   50.54    7.38
   0  10 -14    4.48    2.76
   0  10 -14    0.64    2.79
   0  10 -14    0.54    2.51
   0  10 -14    4.00    5.26
   0  10 -14    0.32    2.31
   0 -10  14    3.29    3.26
   0 -10  14    3.22    2.43
   0 -10  14    3.49    2.52
   0 -10  14    1.89    2.62
   0 -10  14    3.64    2.72
  -1  10 -14    5.40    3.44
  -1  10 -14    8.42    4.45
  -1  10 -14   10.18    4.63
  -1  10 -14    5.33    3.66
   1 -10  14    1.02    2.69
   1 -10  14   12.50    4.20
   1 -10  14    2.54    3.32
   2 -10  14  212.96   16.40
   2   9 -14    2.69    5.55
  -2  -9  14    0.99    2.75
  -2  -9  14   -1.80    2.31
  -2  -9  14    0.85    2.54
  -2  -9  14    1.82    2.99
   1   9 -14   79.24   16.51
   1   9 -14   87.56   10.25
  -1  -9  14   88.36   10.82
  -1  -9  14   76.53    9.08
  -1  -9  14   68.44    8.30
  -1  -9  14   76.59    8.93
   0   9 -14   27.71    4.91
   0   9 -14   30.64    6.40
   0   9 -14   27.10    6.19
   0   9 -14   23.09    4.52
   0   9 -14   15.22    7.40
   0  -9  14   35.84    5.50
   0  -9  14   23.43    5.85
   0  -9  14   32.70    6.00
   0  -9  14   28.87    5.07
   0  -9  14   25.74    4.87
  -1   9 -14   43.92    7.95
  -1   9 -14   34.35    7.22
  -1   9 -14   29.91    5.54
  -1   9 -14   37.05    6.11
  -1   9 -14   29.99    9.38
   1  -9  14   42.27    6.56
   1  -9  14   37.33    7.65
   1  -9  14   24.90    5.48
  -2   9 -14  222.46   15.86
  -2   9 -14  204.02   14.37
  -2   9 -14  198.48   14.13
  -2   9 -14  197.32   15.42
   2  -9  14  223.34   16.05
   2  -9  14  208.18   14.47
   3   8 -14   54.85   16.40
  -3  -8  14   68.72    9.09
  -3  -8  14   56.39    9.23
  -3  -8  14   76.34   10.22
   2   8 -14  302.35   30.43
  -2  -8  14  434.57   21.16
  -2  -8  14  421.26   21.57
  -2  -8  14  409.19   20.68
  -2  -8  14  408.05   20.09
   1   8 -14   34.85    4.83
   1   8 -14   45.59   12.81
   1   8 -14   43.73    7.24
   1   8 -14   33.30    7.15
  -1  -8  14   21.16    5.10
  -1  -8  14   36.26    5.83
  -1  -8  14   38.23    6.55
  -1  -8  14   38.59    6.35
   0   8 -14    2.17    3.21
   0   8 -14    1.18    2.33
   0   8 -14    2.50    2.26
   0   8 -14    0.13    4.08
   0   8 -14    0.46    2.76
   0   8 -14   -0.36    2.34
   0  -8  14   -0.02    2.54
   0  -8  14    3.24    2.68
   0  -8  14    0.02    1.95
   0  -8  14   -1.57    1.64
   0  -8  14    0.29    1.76
  -1   8 -14   21.48    5.53
  -1   8 -14   29.43    5.65
  -1   8 -14   25.02    5.95
  -1   8 -14   24.70    6.05
  -1   8 -14   21.00    8.07
  -1   8 -14   25.76    5.35
   1  -8  14   26.26    4.51
   1  -8  14   17.42    4.41
   1  -8  14   20.57    4.88
   1  -8  14   30.46    6.74
  -2   8 -14    1.97    3.23
  -2   8 -14    3.05    3.34
  -2   8 -14   -1.99    3.15
  -2   8 -14   -2.07    2.81
   2  -8  14    1.05    3.62
   2  -8  14   -0.39    2.43
   3   7 -14   31.07   13.58
  -3  -7  14   34.94    6.44
  -3  -7  14   29.70    6.72
  -3  -7  14   33.39    6.75
   2   7 -14  138.01   23.19
  -2  -7  14  134.81   10.86
  -2  -7  14  154.06   11.34
  -2  -7  14  136.06   11.32
  -2  -7  14  161.40   11.00
   1   7 -14    8.90    6.65
   1   7 -14   12.06    2.85
   1   7 -14   12.19    4.62
  -1  -7  14    9.59    3.96
  -1  -7  14   11.22    3.62
  -1  -7  14    6.83    2.51
  -1  -7  14   13.52    3.93
  -1  -7  14    6.29    2.97
   0   7 -14   10.44    4.07
   0   7 -14    6.14    3.40
   0   7 -14    4.12    5.26
   0   7 -14    4.04    3.08
   0   7 -14    8.42    2.80
   0   7 -14    6.72    2.72
   0  -7  14    6.36    2.99
   0  -7  14    2.81    2.37
   0  -7  14    2.76    2.00
   0  -7  14    3.28    3.12
   0  -7  14   10.50    3.37
  -1   7 -14   -1.78    2.09
  -1   7 -14    2.50    2.60
  -1   7 -14   -0.42    4.15
  -1   7 -14    0.61    2.50
  -1   7 -14    1.49    2.43
  -1   7 -14    0.67    2.41
   1  -7  14    1.77    3.13
   1  -7  14    0.72    1.61
   1  -7  14    1.23    2.49
  -2   7 -14   38.71    6.69
  -2   7 -14   58.38    8.29
  -2   7 -14   36.88    7.21
  -2   7 -14   39.32    6.83
  -2   7 -14   31.51    6.44
  -2   7 -14   37.08    6.12
  -2   7 -14   31.59    6.60
  -2   7 -14   27.85    9.26
   2  -7  14   37.46    7.65
   2  -7  14   31.95    6.59
   3   6 -14    2.48    6.03
  -3  -6  14   -1.04    2.26
  -3  -6  14   11.54    4.39
  -3  -6  14    7.22    4.02
   2   6 -14   73.50   16.37
   2   6 -14   91.32   11.36
  -2  -6  14   94.47    9.91
  -2  -6  14  100.25    8.43
  -2  -6  14  103.19   11.21
  -2  -6  14  110.34   10.83
   1   6 -14   97.49    6.53
   1   6 -14   81.19    9.99
   1   6 -14   86.76   10.01
   1   6 -14   85.11   16.07
  -1  -6  14   91.01    9.70
  -1  -6  14   99.74    8.05
  -1  -6  14   90.52   10.24
  -1  -6  14   88.27    8.86
  -1  -6  14   98.39    6.72
   0   6 -14   52.75    7.69
   0   6 -14   44.53   11.55
   0   6 -14   68.95    9.35
   0   6 -14   46.72    6.08
   0   6 -14   59.54    6.36
   0   6 -14   70.58    8.81
   0  -6  14   42.73    7.44
   0  -6  14   65.99    7.84
   0  -6  14   65.24    7.52
   0  -6  14   42.00    5.79
   0  -6  14   66.34    6.73
  -1   6 -14   -3.26    1.95
  -1   6 -14    1.77    2.54
  -1   6 -14    2.29    4.48
  -1   6 -14   -0.76    1.79
  -1   6 -14    0.44    2.39
  -1   6 -14   -1.79    2.09
   1  -6  14   -0.33    1.87
   1  -6  14   -0.18    2.06
   1  -6  14    1.62    2.33
  -2   6 -14   58.42    7.83
  -2   6 -14   71.53    8.48
  -2   6 -14   53.22   12.44
  -2   6 -14   62.87    9.14
  -2   6 -14   71.95    9.08
  -2   6 -14   44.61    7.87
  -2   6 -14   80.30    9.73
   2  -6  14   67.00    9.42
   2  -6  14   66.98    8.94
   3   5 -14   94.09   20.87
  -3  -5  14  113.24    9.11
  -3  -5  14  120.99   12.47
  -3  -5  14  133.43   11.71
   2   5 -14   18.15    9.35
   2   5 -14   10.30    4.25
  -2  -5  14    7.85    3.46
  -2  -5  14    9.96    3.80
  -2  -5  14    7.35    3.01
  -2  -5  14   10.00    4.06
   1   5 -14  117.64    6.38
   1   5 -14  110.89    9.46
   1   5 -14   87.04   16.69
   1   5 -14  115.64    7.05
   1   5 -14  104.00    9.96
  -1  -5  14   98.02    8.79
  -1  -5  14  104.60    8.48
  -1  -5  14  108.06    8.41
  -1  -5  14  115.80    7.45
   0   5 -14  112.86    6.26
   0   5 -14  102.06    9.37
   0   5 -14  117.48    9.47
   0   5 -14   81.94   15.25
   0   5 -14  104.68    7.87
   0   5 -14  110.91   10.02
   0  -5  14  118.62    8.41
   0  -5  14   92.59    8.11
   0  -5  14  112.03    8.66
   0  -5  14   99.29    7.22
  -1   5 -14   35.83   10.74
  -1   5 -14   40.62    6.89
  -1   5 -14   19.48    4.91
  -1   5 -14   20.32    5.03
  -1   5 -14   29.96    5.57
  -1   5 -14   26.02    5.38
  -1   5 -14   38.07    5.12
   1  -5  14   28.92    5.43
   1  -5  14   34.01    5.17
   1  -5  14   28.18    6.01
  -2   5 -14   23.76    5.86
  -2   5 -14   28.23    5.91
  -2   5 -14   20.92    5.86
  -2   5 -14   33.53    5.99
  -2   5 -14   28.24    9.77
  -2   5 -14   30.08    6.04
  -2   5 -14   25.23    5.50
   2  -5  14   29.86    6.60
   2  -5  14   25.03    5.88
   2  -5  14   35.34    6.71
   3   4 -14    6.84    7.73
   3   4 -14   12.95    5.12
  -3  -4  14   15.30    4.02
  -3  -4  14   20.28    5.81
  -3  -4  14    5.48    3.16
   2   4 -14    7.28    3.89
   2   4 -14    1.71    5.32
  -2  -4  14   10.76    4.07
  -2  -4  14    9.41    3.70
  -2  -4  14   12.08    3.54
  -2  -4  14   12.14    3.37
   1   4 -14   36.49    4.51
   1   4 -14   32.42    5.68
   1   4 -14   31.93    6.17
   1   4 -14   41.36   11.76
   1   4 -14   37.20    3.86
  -1  -4  14   44.82    6.74
  -1  -4  14   32.53    5.11
  -1  -4  14   34.82    5.29
  -1  -4  14   30.94    5.40
  -1  -4  14   33.07    4.63
   0   4 -14   55.35    4.01
   0   4 -14   67.65   14.47
   0   4 -14   43.72    5.77
   0   4 -14   50.52    7.26
   0   4 -14   37.83    6.64
   0  -4  14   56.67    6.69
   0  -4  14   54.40    6.98
   0  -4  14   60.03    7.24
   0  -4  14   53.71    5.88
  -1   4 -14    1.56    2.41
  -1   4 -14   -0.34    4.05
  -1   4 -14    4.31    2.57
  -1   4 -14   -2.40    1.67
  -1   4 -14   -0.32    1.92
  -1   4 -14    1.14    2.54
  -1   4 -14   -0.59    2.22
   1  -4  14    3.69    2.36
   1  -4  14    0.72    2.03
  -2   4 -14   54.05    7.88
  -2   4 -14   61.24    7.70
  -2   4 -14   46.97    7.29
  -2   4 -14   44.11    7.07
  -2   4 -14   58.08   14.03
  -2   4 -14   43.28    8.11
  -2   4 -14   44.15    7.10
   2  -4  14   40.01    7.13
   2  -4  14   41.09    7.14
   2  -4  14   44.08    6.03
   3   3 -14    6.34    7.83
   3   3 -14    9.37    4.69
  -3  -3  14   13.12    4.40
  -3  -3  14   12.31    3.60
  -3  -3  14    5.48    3.46
   2   3 -14  213.82   24.07
   2   3 -14  267.84   16.49
  -2  -3  14  243.82   14.44
  -2  -3  14  218.66   11.41
  -2  -3  14  272.33   15.69
  -2  -3  14  244.12   13.03
  -2  -3  14  252.36   13.78
   1   3 -14  149.48   10.37
   1   3 -14  151.35   11.68
   1   3 -14  152.52    8.64
  -1  -3  14  146.72   10.58
  -1  -3  14  135.08    8.82
  -1  -3  14  145.32    9.51
  -1  -3  14  139.80   10.44
  -1  -3  14  152.55    9.96
   0   3 -14  133.86    6.44
   0   3 -14  136.91    8.98
   0   3 -14  129.48   16.64
   0   3 -14  127.54    9.85
   0   3 -14  129.99   10.87
   0  -3  14  134.39    9.42
   0  -3  14  137.26    9.89
   0  -3  14  133.72    9.21
   0  -3  14  122.70   10.05
   0  -3  14  126.27    8.15
  -1   3 -14    9.66    6.51
  -1   3 -14    5.15    2.86
  -1   3 -14   12.69    3.09
  -1   3 -14   11.99    3.97
  -1   3 -14   13.55    4.31
  -1   3 -14    5.84    3.23
  -1   3 -14   10.42    3.69
   1  -3  14    7.30    3.18
   1  -3  14   16.99    3.48
   1  -3  14   10.33    3.36
  -2   3 -14    1.97    2.87
  -2   3 -14    3.33    5.14
  -2   3 -14    2.10    3.17
  -2   3 -14    1.64    3.01
  -2   3 -14   -1.53    2.50
  -2   3 -14    1.51    2.54
  -2   3 -14    2.13    2.69
   2  -3  14    4.21    2.72
   2  -3  14    1.25    2.60
   3   2 -14   -1.47    5.53
   3   2 -14    1.15    3.04
  -3  -2  14    1.68    2.71
  -3  -2  14   -1.53    1.51
  -3  -2  14    0.45    2.30
   2   2 -14  192.03   22.45
   2   2 -14  227.09   15.14
  -2  -2  14  204.93   11.23
  -2  -2  14  218.22   11.13
  -2  -2  14  199.11   12.46
  -2  -2  14  198.24   13.49
  -2  -2  14  205.05   13.01
   1   2 -14    0.59    2.78
   1   2 -14    2.63    1.64
   1   2 -14    3.21    4.89
   1   2 -14    0.43    2.14
  -1  -2  14    3.01    2.57
  -1  -2  14    3.72    2.11
  -1  -2  14    3.97    2.52
  -1  -2  14    2.00    2.31
  -1  -2  14    3.14    2.02
   0   2 -14   15.41    4.18
   0   2 -14   11.40    4.30
   0   2 -14    8.89    2.89
   0   2 -14    3.21    4.76
   0   2 -14   10.37    3.47
   0   2 -14   10.18    1.83
   0  -2  14    5.29    2.78
   0  -2  14   12.35    2.96
   0  -2  14    6.78    3.43
   0  -2  14   11.57    3.41
  -1   2 -14   17.73    3.56
  -1   2 -14   16.07    4.25
  -1   2 -14    8.74    3.54
  -1   2 -14   20.22    5.15
  -1   2 -14   14.57    4.37
  -1   2 -14   10.21    6.43
   1  -2  14   27.14    4.95
   1  -2  14   16.90    4.47
   1  -2  14   18.06    3.04
   1  -2  14   17.35    4.98
  -2   2 -14    5.28    5.73
  -2   2 -14    4.60    3.16
  -2   2 -14    9.20    3.86
  -2   2 -14    3.20    2.64
  -2   2 -14    7.39    3.56
  -2   2 -14    0.50    2.48
  -2   2 -14   10.15    4.11
   2  -2  14    0.05    2.23
   2  -2  14    5.11    3.02
   3   1 -14   30.78    6.83
   3   1 -14   11.11    7.83
  -3  -1  14   20.36    5.81
  -3  -1  14   28.77    5.92
  -3  -1  14   20.90    5.25
   2   1 -14  150.71   19.90
   2   1 -14  176.88   13.34
  -2  -1  14  190.41   10.58
  -2  -1  14  154.21   11.69
  -2  -1  14  147.97   11.08
  -2  -1  14  172.05    9.65
  -2  -1  14  181.37   11.70
   1   1 -14  582.39   26.85
   1   1 -14  548.22   22.14
   1   1 -14  552.05   37.20
   1   1 -14  564.08   23.67
  -1  -1  14  545.90   25.06
  -1  -1  14  576.98   23.35
  -1  -1  14  571.80   25.43
  -1  -1  14  524.59   22.23
   0   1 -14    2.72    1.92
   0   1 -14    0.44    2.43
   0   1 -14    4.08    5.16
   0   1 -14    0.90    1.33
   0   1 -14    6.18    2.75
   0   1 -14   -0.28    2.27
   0  -1  14   -0.83    1.87
   0  -1  14    7.34    3.06
   0  -1  14    4.09    2.88
  -1   1 -14  114.83   19.15
  -1   1 -14  121.28    9.40
  -1   1 -14  108.26   10.03
  -1   1 -14  100.87    9.21
  -1   1 -14  113.81    7.80
  -1   1 -14  122.64    9.95
   1  -1  14  117.62    9.55
   1  -1  14  140.17   10.12
   1  -1  14  125.97   10.86
  -2   1 -14   -1.37    2.45
  -2   1 -14   -0.50    4.63
  -2   1 -14    2.79    2.86
  -2   1 -14   -1.38    2.52
  -2   1 -14   -0.32    2.52
  -2   1 -14   -3.74    2.17
   2  -1  14   -1.80    2.28
   2  -1  14    1.43    2.22
   3   0 -14   85.44   10.61
   3   0 -14   45.86   14.40
  -3   0  14   53.07    8.95
  -3   0  14   79.30    8.93
  -3   0  14   69.74    9.02
  -3   0  14   74.56    9.39
   2   0 -14  403.08   33.04
   2   0 -14  450.51   23.09
  -2   0  14  427.28   17.88
  -2   0  14  441.30   19.29
  -2   0  14  420.01   21.56
  -2   0  14  456.21   21.47
   1   0 -14  130.69    8.74
   1   0 -14  113.86   10.50
   1   0 -14  135.04    8.35
   1   0 -14  109.91   19.18
  -1   0  14  115.75    8.68
  -1   0  14   88.87    9.79
  -1   0  14  101.56    9.30
   0   0 -14    9.68    6.16
   0   0 -14    7.33    3.83
   0   0 -14    9.86    3.03
   0   0 -14    8.93    3.07
   0   0 -14    3.38    2.80
   0   0 -14    9.94    2.09
   0   0  14   10.27    3.23
   0   0  14    7.39    3.29
   0   0  14    6.57    3.48
  -1   0 -14  278.57   15.71
  -1   0 -14  233.48   14.17
  -1   0 -14  244.16   12.36
  -1   0 -14  249.07   14.70
  -1   0 -14  224.93   23.51
  -1   0 -14  249.88   15.96
   1   0  14  285.47   15.40
   1   0  14  242.76   15.97
   1   0  14  229.20   14.38
  -2   0 -14    5.85    5.74
  -2   0 -14    2.31    2.76
  -2   0 -14    2.44    3.23
  -2   0 -14    1.39    2.63
  -2   0 -14    0.20    2.61
  -2   0 -14    1.82    3.22
   2   0  14    1.77    2.73
   2   0  14    2.65    2.96
   3  -1 -14   -0.68    2.73
   3  -1 -14   -2.63    5.34
  -3   1  14   -0.82    2.37
  -3   1  14   -1.37    2.46
  -3   1  14    0.99    2.58
  -3   1  14    0.46    3.16
   2  -1 -14   13.99    7.73
   2  -1 -14   13.67    4.47
  -2   1  14   21.65    5.13
  -2   1  14   19.88    5.20
  -2   1  14   10.99    3.91
   1  -1 -14  230.93   12.18
   1  -1 -14  219.00   22.91
   1  -1 -14  227.94   15.30
   1  -1 -14  223.54   12.20
  -1   1  14  226.93   13.10
  -1   1  14  238.35   14.60
  -1   1  14  224.48   14.31
   0  -1 -14  138.65   10.91
   0  -1 -14  159.53   10.22
   0  -1 -14  132.25    9.60
   0  -1 -14  161.79   12.32
   0  -1 -14  159.87    7.78
   0  -1 -14  161.81   19.39
   0   1  14  147.08   10.47
   0   1  14  150.36   11.11
   0   1  14  142.64   11.61
  -1  -1 -14   18.04    4.97
  -1  -1 -14   23.67    4.27
  -1  -1 -14   14.47    4.24
  -1  -1 -14   16.42    4.49
  -1  -1 -14   13.52    8.20
  -1  -1 -14   19.03    5.42
   1   1  14   17.56    4.61
   1   1  14   20.21    5.28
   1   1  14   14.64    4.07
  -2  -1 -14    3.87    2.89
  -2  -1 -14    2.79    5.97
  -2  -1 -14    6.65    3.99
  -2  -1 -14    4.63    3.33
  -2  -1 -14    3.57    3.27
  -2  -1 -14    6.84    3.92
   2   1  14    3.64    3.65
   2   1  14   11.07    4.18
   2   1  14    3.00    3.09
   3  -2 -14   26.23    6.39
   3  -2 -14   20.17   10.27
  -3   2  14   24.92    6.08
  -3   2  14   20.95    5.51
  -3   2  14   22.19    5.90
   2  -2 -14  200.03   14.42
   2  -2 -14  169.34   20.69
  -2   2  14  190.91   13.24
  -2   2  14  205.07   13.74
  -2   2  14  198.59   14.53
   1  -2 -14  143.52    8.85
   1  -2 -14  141.98   18.83
   1  -2 -14  148.61   12.19
   1  -2 -14  165.79   39.20
   1  -2 -14  134.58    9.25
  -1   2  14  130.67   11.13
  -1   2  14  147.05   10.27
  -1   2  14  137.49   10.88
   0  -2 -14 1170.00   43.08
   0  -2 -14 1244.13   45.84
   0  -2 -14 1075.40   59.09
   0  -2 -14 1198.18   40.21
   0  -2 -14 1163.01   43.77
   0  -2 -14 1200.00   47.78
   0   2  14 1187.48   44.43
   0   2  14 1260.46   47.18
   0   2  14 1183.65   45.56
  -1  -2 -14  258.97   15.18
  -1  -2 -14  248.25   15.64
  -1  -2 -14  232.49   24.59
  -1  -2 -14  273.28   13.74
  -1  -2 -14  273.58   17.54
  -1  -2 -14  271.59   15.37
   1   2  14  271.48   15.62
   1   2  14  270.55   16.10
   1   2  14  275.76   17.32
  -2  -2 -14    5.26    6.42
  -2  -2 -14   11.14    4.20
  -2  -2 -14   11.55    4.66
  -2  -2 -14    9.14    3.82
  -2  -2 -14   11.28    4.82
  -2  -2 -14    7.57    4.39
   2   2  14    4.43    3.73
   2   2  14   10.92    4.57
   2   2  14    8.28    3.98
   3  -3 -14    2.31    6.36
   3  -3 -14    7.74    4.17
   3  -3 -14   -2.20   11.57
  -3   3  14    4.99    3.66
  -3   3  14    6.05    3.59
  -3   3  14    1.84    3.54
   2  -3 -14   13.74    5.08
   2  -3 -14   13.17   17.02
   2  -3 -14   28.24   10.75
  -2   3  14   11.88    4.36
  -2   3  14   15.83    4.76
  -2   3  14    8.94    3.69
   1  -3 -14  170.62   10.99
   1  -3 -14  166.83   20.35
   1  -3 -14  177.44    9.67
   1  -3 -14  179.64   13.76
  -1   3  14  167.43   11.39
  -1   3  14  166.85   12.56
  -1   3  14  159.85   11.89
   0  -3 -14   18.48    3.29
   0  -3 -14    9.72   13.44
   0  -3 -14   20.86    4.30
   0  -3 -14   19.06    4.58
   0  -3 -14   12.96    4.04
   0  -3 -14   17.95    8.52
   0  -3 -14   15.91    5.30
   0   3  14   16.35    4.40
   0   3  14   14.68    4.50
   0   3  14   26.29    5.80
  -1  -3 -14   31.65   19.36
  -1  -3 -14   52.58    7.55
  -1  -3 -14   61.47    7.08
  -1  -3 -14   63.27    9.60
  -1  -3 -14   67.96   15.29
  -1  -3 -14   70.85    9.02
  -1  -3 -14   57.83    7.92
   1   3  14   49.39    7.30
   1   3  14   56.79    8.65
   1   3  14   59.51    8.32
  -2  -3 -14   19.46    5.82
  -2  -3 -14   28.45   11.19
  -2  -3 -14   31.74    6.66
  -2  -3 -14   28.56    6.33
  -2  -3 -14   40.98    8.32
  -2  -3 -14   28.55    6.05
   2   3  14   27.43    6.71
   2   3  14   40.61    7.18
   2   3  14   33.83    6.72
   3  -4 -14    1.56    6.40
   3  -4 -14    2.57   14.07
   3  -4 -14    5.95    3.95
  -3   4  14    0.75    2.64
  -3   4  14    1.61    3.17
  -3   4  14    0.72    3.37
   2  -4 -14   71.87   15.88
   2  -4 -14   80.94   10.62
   2  -4 -14   57.89   31.66
  -2   4  14   72.87   10.05
  -2   4  14   67.56    9.20
  -2   4  14   77.89    9.91
   1  -4 -14   14.77    5.28
   1  -4 -14    5.43   13.90
   1  -4 -14   24.50    4.94
   1  -4 -14   17.91    8.97
  -1   4  14   17.10    4.91
  -1   4  14   30.10    6.34
   0  -4 -14   25.59    6.31
   0  -4 -14   27.83    4.32
   0  -4 -14   28.81    5.54
   0  -4 -14   18.65   19.12
   0  -4 -14   17.99    4.74
   0  -4 -14   21.63    9.37
   0  -4 -14   26.22    4.63
   0   4  14   23.38    5.17
   0   4  14   30.55    6.45
   0   4  14   21.39    5.51
  -1  -4 -14   65.30   16.03
  -1  -4 -14   69.04    8.45
  -1  -4 -14   79.82    8.22
  -1  -4 -14   58.85    8.41
  -1  -4 -14   79.97   10.99
  -1  -4 -14   49.57    7.48
  -1  -4 -14   36.52   20.62
   1   4  14   68.29    8.66
   1   4  14   73.95    9.90
   1   4  14   84.15   11.01
  -2  -4 -14   39.01    7.32
  -2  -4 -14   35.65    7.24
  -2  -4 -14   31.20   12.12
  -2  -4 -14   37.35    6.82
  -2  -4 -14   32.98    8.19
  -2  -4 -14   35.06    6.76
   2   4  14   30.85    6.47
   2   4  14   35.17    7.37
   2   4  14   25.27    6.52
   3  -5 -14   45.59   31.11
   2  -5 -14    1.37   12.93
   2  -5 -14   11.38    7.88
   2  -5 -14    7.83    4.46
  -2   5  14    6.54    3.64
  -2   5  14    5.03    4.22
  -2   5  14    7.77    4.00
   1  -5 -14   46.55    8.49
   1  -5 -14   46.51   12.93
   1  -5 -14   13.29   17.43
  -1   5  14   45.78    8.02
  -1   5  14   45.62    7.66
   0  -5 -14   16.38    8.25
   0  -5 -14   34.18    6.77
   0  -5 -14   28.14    4.82
   0  -5 -14   24.86    5.17
   0  -5 -14    5.86   12.42
   0  -5 -14   29.56    6.92
   0   5  14   30.03    6.10
   0   5  14   29.85    6.60
   0   5  14   34.98    6.66
  -1  -5 -14   15.20   16.30
  -1  -5 -14   10.79    4.22
  -1  -5 -14   13.86    3.71
  -1  -5 -14    8.91    4.11
  -1  -5 -14   10.50    4.03
  -1  -5 -14    2.09    6.09
  -1  -5 -14   13.70    5.42
   1   5  14    8.06    3.81
   1   5  14    5.79    4.19
   1   5  14   14.35    4.97
   2  -6 -14    4.93    4.03
   2  -6 -14   -0.87   11.27
   2  -6 -14    0.01    5.40
  -2   6  14    1.67    2.81
  -2   6  14   -2.08    2.52
  -2   6  14    0.97    3.15
   1  -6 -14    1.46   12.93
   1  -6 -14   12.40    7.68
   1  -6 -14   18.87    6.21
  -1   6  14   25.25    6.40
  -1   6  14   18.66    5.28
  -1   6  14   20.69    5.54
   0  -6 -14   22.10    6.29
   0  -6 -14    7.59   14.69
   0  -6 -14   11.76    4.55
   0  -6 -14   15.61    5.84
   0  -6 -14   17.62    4.89
   0  -6 -14   10.46    7.68
   0   6  14    9.29    4.12
   0   6  14   15.64    5.39
   0   6  14   31.55    6.85
  -1  -6 -14   12.74    8.96
  -1  -6 -14   21.11    5.04
  -1  -6 -14   14.54    4.63
  -1  -6 -14   16.36    5.35
  -1  -6 -14   21.76    5.20
  -1  -6 -14   16.60    6.46
   1   6  14   18.94    5.87
   1   6  14   10.70    4.48
   1   6  14   19.26    5.28
   2  -7 -14    9.68    4.87
   2  -7 -14    3.32    6.24
   2  -7 -14    6.72   16.75
  -2   7  14   10.50    4.30
  -2   7  14    8.15    4.63
  -2   7  14   13.33    5.37
   1  -7 -14    6.36    6.62
   1  -7 -14    5.19   14.06
   1  -7 -14    2.82    3.74
  -1   7  14    4.18    3.29
  -1   7  14    4.57    3.61
  -1   7  14    4.72    3.40
  -1   7  14    4.01    3.74
   0  -7 -14   11.99    5.84
   0  -7 -14    2.77   11.88
   0  -7 -14   12.26    8.00
   0  -7 -14   15.20    4.73
   0  -7 -14   11.31    4.57
   0   7  14   19.49    6.34
   0   7  14    9.32    4.11
   0   7  14   12.40    4.54
   1  -8 -14   35.78    8.36
   1  -8 -14    8.33   16.78
   1  -8 -14   34.29   12.11
  -1   8  14   36.01    7.51
  -1   8  14   19.48    5.26
  -1   8  14   36.23    7.92
  -1   8  14   47.33    8.33
   0  -8 -14    7.01    7.81
   0  -8 -14    8.77   15.46
   0  -8 -14    7.58    4.18
   0  -8 -14   18.75    6.91
   0   8  14   10.97    5.07
   0   8  14    7.45    4.30
   0   8  14   10.81    4.50
   1  11 -15    8.45    7.47
   1  11 -15   15.01    5.24
  -1 -11  15   12.57    4.72
  -1 -11  15   11.41    4.32
  -1 -11  15    5.08    4.10
  -1 -11  15   13.27    4.72
   0  11 -15   -1.15    2.72
   0  11 -15    1.04    2.56
   0  11 -15    2.23    3.68
   0  11 -15    2.16    2.84
   0 -11  15   -1.53    2.40
   0 -11  15   -0.60    3.35
   0 -11  15   -3.79    2.14
  -1  11 -15    3.90    4.01
  -1  11 -15    1.84    3.40
  -1  11 -15    3.94    3.71
   1 -11  15    2.11    3.30
   1 -11  15    2.47    4.50
   1 -11  15    2.40   11.67
   1 -11  15    5.77    3.69
   2  10 -15   31.43   12.32
  -2 -10  15   69.83    9.66
  -2 -10  15   68.77    9.58
  -2 -10  15   84.64   10.73
  -2 -10  15   70.16    9.15
   1  10 -15    6.12    3.93
   1  10 -15   -2.93    4.52
  -1 -10  15    4.21    3.11
  -1 -10  15    3.47    3.60
  -1 -10  15    1.33    3.01
  -1 -10  15    3.95    2.88
   0  10 -15   -0.07    4.94
   0  10 -15    1.33    2.97
   0  10 -15    3.25    2.64
   0  10 -15    2.20    3.12
   0  10 -15    4.23    2.77
   0 -10  15    3.42    3.46
   0 -10  15   -1.82    2.00
   0 -10  15    2.87    2.60
   0 -10  15   -0.65    2.29
   0 -10  15    0.77    2.32
  -1  10 -15  149.44   11.43
  -1  10 -15  126.91   14.36
  -1  10 -15  143.36   12.67
  -1  10 -15  136.60   11.10
   1 -10  15  135.11   11.01
   1 -10  15  141.05   11.88
   1 -10  15  134.63   14.81
   2   9 -15   63.99   17.22
  -2  -9  15   59.15    8.75
  -2  -9  15   81.82   10.54
  -2  -9  15   71.77    9.41
  -2  -9  15   88.14   10.56
   1   9 -15    3.90    5.73
   1   9 -15    1.09    2.47
  -1  -9  15   -1.59    2.26
  -1  -9  15    0.99    2.32
  -1  -9  15    0.95    3.15
  -1  -9  15    5.11    2.85
   0   9 -15    1.87    5.02
   0   9 -15    2.63    2.57
   0   9 -15    2.66    3.56
   0   9 -15    0.06    2.46
   0   9 -15    7.99    3.88
   0  -9  15    0.83    2.96
   0  -9  15    1.51    2.77
   0  -9  15    0.30    2.00
   0  -9  15    1.58    2.51
   0  -9  15    4.20    2.71
  -1   9 -15  244.51   16.28
  -1   9 -15  254.66   14.95
  -1   9 -15  239.29   16.81
  -1   9 -15  211.20   14.09
  -1   9 -15  190.77   20.67
   1  -9  15  246.63   14.70
   1  -9  15  247.80   15.69
   1  -9  15  228.02   16.36
   2   8 -15   70.78   17.51
  -2  -8  15   93.80   11.02
  -2  -8  15  113.87   11.75
  -2  -8  15  100.08   10.58
  -2  -8  15   95.64   10.94
   1   8 -15  261.71   16.30
   1   8 -15  297.47   18.59
   1   8 -15  242.76   25.44
  -1  -8  15  263.64   16.70
  -1  -8  15  256.85   15.50
  -1  -8  15  261.75   15.41
  -1  -8  15  252.13   14.71
   0   8 -15   41.17   11.63
   0   8 -15   51.26    6.66
   0   8 -15   52.90    8.24
   0   8 -15   43.64    7.94
   0   8 -15   47.17    8.20
   0   8 -15   63.94    7.08
   0  -8  15   49.39    8.44
   0  -8  15   44.56    6.44
   0  -8  15   44.31    7.05
   0  -8  15   46.73    6.39
   0  -8  15   62.07    6.91
  -1   8 -15   14.83    4.44
  -1   8 -15   13.66    7.31
  -1   8 -15   20.24    5.73
  -1   8 -15   21.20    5.62
  -1   8 -15   16.26    5.23
  -1   8 -15   15.52    4.65
   1  -8  15   19.04    4.79
   1  -8  15   12.65    5.08
  -2   8 -15   25.86    6.63
  -2   8 -15   28.48    6.30
  -2   8 -15   23.70    6.18
  -2   8 -15   33.80    7.33
  -2   8 -15   30.52    6.34
   2  -8  15   24.77    5.99
   2  -8  15   23.73    6.80
   2   7 -15  110.28   13.17
   2   7 -15   79.68   17.56
  -2  -7  15   78.43    9.92
  -2  -7  15  107.56   10.70
  -2  -7  15   92.92   10.24
  -2  -7  15  111.57   11.53
   1   7 -15  171.16   12.75
   1   7 -15  172.57   13.00
   1   7 -15  168.38   21.06
   1   7 -15  193.10   14.54
  -1  -7  15  152.68    9.94
  -1  -7  15  171.90   12.10
  -1  -7  15  171.84   11.76
  -1  -7  15  174.86   13.01
  -1  -7  15  186.81   11.89
   0   7 -15    2.77    3.22
   0   7 -15    0.75    2.75
   0   7 -15    0.67    2.18
   0   7 -15    3.65    3.01
   0   7 -15   -0.54    4.48
   0   7 -15    3.96    2.40
   0  -7  15   -0.09    1.94
   0  -7  15   -0.72    1.79
   0  -7  15    4.83    2.28
   0  -7  15    1.15    2.20
   0  -7  15   -0.20    2.09
  -1   7 -15    7.29    3.16
  -1   7 -15    7.19    3.82
  -1   7 -15    5.86    3.39
  -1   7 -15    5.91    2.90
  -1   7 -15    8.28    4.00
  -1   7 -15   15.31    4.80
  -1   7 -15    8.68    6.56
   1  -7  15   11.80    3.87
   1  -7  15    8.99    3.09
   1  -7  15    9.23    4.12
  -2   7 -15   50.53    8.18
  -2   7 -15   48.33    8.40
  -2   7 -15   40.19   11.57
  -2   7 -15   48.11    8.48
  -2   7 -15   54.37    8.25
  -2   7 -15   42.27    7.31
  -2   7 -15   35.00    6.54
  -2   7 -15   47.25    7.32
   2  -7  15   46.86    7.77
   2  -7  15   39.89    8.10
   3   6 -15   71.89   18.54
  -3  -6  15   95.82   11.51
  -3  -6  15   95.38   10.13
  -3  -6  15   95.87   12.38
   2   6 -15   13.12    9.02
   2   6 -15   15.44    5.40
  -2  -6  15   17.61    5.01
  -2  -6  15   13.51    4.49
  -2  -6  15   21.39    5.31
  -2  -6  15   15.86    4.21
   1   6 -15    3.55    2.98
   1   6 -15    5.09    3.58
   1   6 -15    5.36    2.20
   1   6 -15    3.21    5.48
  -1  -6  15    8.88    3.56
  -1  -6  15    5.36    2.39
  -1  -6  15   10.94    3.64
  -1  -6  15   10.04    4.06
  -1  -6  15   11.77    3.61
   0   6 -15   34.87    5.09
   0   6 -15   39.88    7.34
   0   6 -15   35.10   10.83
   0   6 -15   38.94    6.61
   0   6 -15   39.78    7.09
   0   6 -15   34.96    5.41
   0  -6  15   48.20    7.03
   0  -6  15   27.99    4.58
   0  -6  15   42.89    6.30
   0  -6  15   37.07    5.68
   0  -6  15   43.86    7.51
  -1   6 -15   16.55    5.03
  -1   6 -15   12.51    4.18
  -1   6 -15   17.14    4.80
  -1   6 -15   13.29    4.67
  -1   6 -15   11.50    3.40
  -1   6 -15   11.83    6.83
   1  -6  15   13.55    4.17
   1  -6  15    8.89    3.92
   1  -6  15   16.86    3.95
  -2   6 -15    5.82    6.28
  -2   6 -15   10.47    4.53
  -2   6 -15   10.57    4.32
  -2   6 -15   14.34    4.64
  -2   6 -15   12.26    4.98
  -2   6 -15   19.46    5.53
  -2   6 -15   14.53    4.92
   2  -6  15   11.11    4.92
   2  -6  15   10.20    4.09
   3   5 -15    4.33    7.46
   3   5 -15   13.73    5.58
  -3  -5  15   13.67    4.63
  -3  -5  15   21.02    4.74
  -3  -5  15   11.22    4.15
   2   5 -15  224.48   25.56
   2   5 -15  238.63   16.85
  -2  -5  15  255.09   14.13
  -2  -5  15  225.94   14.73
  -2  -5  15  226.94   14.51
  -2  -5  15  228.78   15.17
   1   5 -15   -0.14    1.55
   1   5 -15   -2.56    3.74
   1   5 -15    1.38    2.74
   1   5 -15    1.02    2.79
  -1  -5  15    0.64    1.73
  -1  -5  15    0.27    1.88
  -1  -5  15    3.09    2.55
  -1  -5  15    2.58    2.45
   0   5 -15  296.19   16.95
   0   5 -15  296.78   15.05
   0   5 -15  313.29   18.30
   0   5 -15  263.00   25.27
   0   5 -15  321.99   17.87
   0  -5  15  288.54   15.97
   0  -5  15  285.81   14.15
   0  -5  15  299.05   15.34
   0  -5  15  312.60   16.29
  -1   5 -15   15.09    4.58
  -1   5 -15   22.24    5.40
  -1   5 -15   16.36    7.71
  -1   5 -15   27.83    5.33
  -1   5 -15   12.99    3.54
  -1   5 -15   23.24    5.54
  -1   5 -15   19.67    5.09
   1  -5  15   20.94    4.87
   1  -5  15   31.86    6.69
   1  -5  15   18.15    4.33
  -2   5 -15    1.36    2.93
  -2   5 -15   -1.88    3.87
  -2   5 -15   -3.61    2.00
  -2   5 -15   -2.22    2.78
  -2   5 -15   -3.32    2.41
  -2   5 -15    3.23    3.07
  -2   5 -15   -0.71    2.73
   2  -5  15   -4.25    2.21
   2  -5  15    3.12    3.20
   3   4 -15   29.10   12.43
   3   4 -15   63.32    9.76
  -3  -4  15   28.07    6.27
  -3  -4  15   39.67    6.00
  -3  -4  15   47.53    7.98
   2   4 -15    1.67    3.45
   2   4 -15   10.59    7.42
  -2  -4  15    4.90    2.92
  -2  -4  15    2.67    2.83
  -2  -4  15    4.23    2.69
  -2  -4  15    7.89    3.17
   1   4 -15  106.92   12.26
   1   4 -15   91.42   17.71
   1   4 -15   95.61    6.87
   1   4 -15  101.08    8.93
  -1  -4  15   99.74    7.48
  -1  -4  15   99.84    9.06
  -1  -4  15   97.25    8.07
  -1  -4  15  112.67    9.30
  -1  -4  15   88.92    7.88
   0   4 -15  263.31   25.20
   0   4 -15  260.64   14.15
   0   4 -15  295.43   16.80
   0   4 -15  277.27   17.17
   0  -4  15  283.03   15.27
   0  -4  15  293.61   13.82
   0  -4  15  277.61   15.50
   0  -4  15  274.05   14.69
  -1   4 -15   40.57    6.33
  -1   4 -15   35.01    5.00
  -1   4 -15   30.44    6.07
  -1   4 -15   42.34   11.62
  -1   4 -15   47.27    7.26
  -1   4 -15   45.54    7.13
  -1   4 -15   39.66    7.14
   1  -4  15   44.17    6.29
   1  -4  15   41.02    6.49
  -2   4 -15   39.72    7.22
  -2   4 -15   45.31    8.04
  -2   4 -15   69.75    8.88
  -2   4 -15   68.09    8.83
  -2   4 -15   47.94    7.85
  -2   4 -15   57.53    7.63
  -2   4 -15   51.03   13.34
   2  -4  15   53.30    7.97
   2  -4  15   53.50    8.83
   2  -4  15   54.75    7.08
   3   3 -15   77.69   19.33
   3   3 -15  105.63   12.55
  -3  -3  15   88.38    7.80
  -3  -3  15  102.74   11.53
  -3  -3  15  112.87   12.62
   2   3 -15  127.61   22.39
   2   3 -15  120.74   11.46
  -2  -3  15  120.82   10.44
  -2  -3  15  108.11    7.62
  -2  -3  15  112.08    8.38
  -2  -3  15  135.96    9.98
  -2  -3  15  130.95   10.35
   1   3 -15   39.44    7.12
   1   3 -15   52.97    7.33
   1   3 -15   59.51    6.00
   1   3 -15   63.10   14.88
  -1  -3  15   53.66    6.28
  -1  -3  15   58.54    6.84
  -1  -3  15   50.29    7.15
  -1  -3  15   53.46    7.40
  -1  -3  15   58.01    7.16
   0   3 -15   66.46    7.41
   0   3 -15   71.98   15.42
   0   3 -15   66.05    9.40
   0   3 -15   79.16    9.47
   0  -3  15   71.88    7.06
   0  -3  15   54.36    7.79
   0  -3  15   65.88    7.66
   0  -3  15   58.69    7.58
  -1   3 -15   44.65    5.42
  -1   3 -15   38.43    6.27
  -1   3 -15   33.52    6.35
  -1   3 -15   33.17   10.89
  -1   3 -15   45.50    7.45
  -1   3 -15   27.10    5.61
   1  -3  15   31.72    5.78
   1  -3  15   34.99    6.05
  -2   3 -15    0.90    3.14
  -2   3 -15    2.28    2.62
  -2   3 -15    3.89    2.79
  -2   3 -15    1.00    4.30
  -2   3 -15    2.12    3.44
  -2   3 -15    1.08    3.34
  -2   3 -15   -0.19    2.94
   2  -3  15    3.05    2.86
   2  -3  15   -0.22    2.28
   3   2 -15   86.30   20.27
   3   2 -15  105.69   12.61
  -3  -2  15  121.11   12.70
  -3  -2  15  108.55   12.20
   2   2 -15  119.03   11.38
  -2  -2  15  129.27   10.10
  -2  -2  15  123.95   10.14
  -2  -2  15  103.28    7.91
  -2  -2  15  122.33    8.35
  -2  -2  15  130.41   10.87
   1   2 -15   13.64    3.90
   1   2 -15   17.22    4.93
   1   2 -15   11.66    7.33
   1   2 -15   14.25    3.34
  -1  -2  15   20.80    4.11
  -1  -2  15   19.79    5.10
  -1  -2  15   15.57    4.02
  -1  -2  15   18.90    4.82
  -1  -2  15   14.34    3.60
   0   2 -15    3.78    3.06
   0   2 -15   -0.28    2.10
   0   2 -15    1.48    2.81
   0   2 -15   -1.48    1.58
   0   2 -15    0.51    3.83
   0  -2  15   -0.06    1.87
   0  -2  15    1.27    2.68
   0  -2  15   -0.94    1.71
   0  -2  15   -0.14    1.62
  -1   2 -15    2.57    2.74
  -1   2 -15    9.81    4.09
  -1   2 -15    5.27    3.16
  -1   2 -15   -0.19    2.47
  -1   2 -15    3.47    5.43
  -1   2 -15    6.79    2.57
   1  -2  15    5.85    2.97
   1  -2  15   -0.87    2.25
   1  -2  15   -0.14    2.24
  -2   2 -15   11.69    7.93
  -2   2 -15   15.60    5.20
  -2   2 -15   28.22    5.39
  -2   2 -15   15.44    5.26
  -2   2 -15   11.30    4.68
  -2   2 -15   18.37    5.07
   2  -2  15   16.23    4.73
   2  -2  15   21.68    4.89
   3   1 -15   58.32    9.31
   3   1 -15   55.34   16.07
  -3  -1  15   52.79    8.34
  -3  -1  15   61.68    9.13
   2   1 -15   31.53    6.96
   2   1 -15   30.73   11.90
  -2  -1  15   14.56    4.41
  -2  -1  15   16.63    3.81
  -2  -1  15   23.71    4.46
  -2  -1  15   22.28    5.09
  -2  -1  15   14.17    4.42
   1   1 -15   12.15    7.05
   1   1 -15   11.51    4.37
   1   1 -15   14.07    3.51
   1   1 -15   21.96    4.65
  -1  -1  15   15.37    4.66
  -1  -1  15   15.75    3.51
  -1  -1  15   11.60    3.54
  -1  -1  15   13.77    3.87
  -1  -1  15   14.91    4.49
   0   1 -15    2.73    2.57
   0   1 -15    1.92    2.38
   0   1 -15    2.92    2.95
   0   1 -15    2.63    2.26
   0   1 -15    5.33    5.43
   0  -1  15    4.16    2.92
   0  -1  15    5.04    3.11
   0  -1  15    0.42    2.12
  -1   1 -15    0.30    1.88
  -1   1 -15   -0.08    2.47
  -1   1 -15    1.97    2.36
  -1   1 -15   -0.04    2.44
  -1   1 -15   -0.83    3.66
  -1   1 -15   -1.42    1.86
   1  -1  15   -0.36    2.20
   1  -1  15    0.78    2.06
   1  -1  15    0.31    2.55
  -2   1 -15    3.16    3.25
  -2   1 -15    2.79    2.89
  -2   1 -15    2.43    5.97
  -2   1 -15    1.55    3.25
  -2   1 -15    2.00    2.85
  -2   1 -15   -0.08    2.81
   2  -1  15   -0.67    2.39
   2  -1  15    2.37    2.57
   3   0 -15   93.63   11.88
   3   0 -15   59.52   16.75
  -3   0  15   77.02    9.75
  -3   0  15   79.64   10.33
  -3   0  15   72.99    9.11
  -3   0  15   75.63   10.62
   2   0 -15  176.28   13.74
   2   0 -15  165.16   21.44
  -2   0  15  162.29   10.56
  -2   0  15  157.51   11.84
  -2   0  15  145.49   11.77
  -2   0  15  148.50    9.80
   1   0 -15   94.11    7.78
   1   0 -15   93.65   11.34
   1   0 -15   91.51    7.21
   1   0 -15  109.89   20.00
  -1   0  15   91.78    7.88
  -1   0  15   86.46   10.03
  -1   0  15   81.57    9.68
   0   0 -15   -0.80    1.98
   0   0 -15    2.96    4.68
   0   0 -15   -1.15    2.53
   0   0 -15    3.08    2.54
   0   0 -15    1.78    1.87
   0   0  15    1.20    2.89
   0   0  15   -1.12    1.92
   0   0  15    3.62    2.78
  -1   0 -15  107.17   12.15
  -1   0 -15  105.89    9.57
  -1   0 -15  109.14   10.96
  -1   0 -15  118.08    8.08
  -1   0 -15  105.38   11.36
  -1   0 -15  102.09   18.96
   1   0  15  108.70    9.74
   1   0  15  108.55   10.92
   1   0  15  129.77   11.40
  -2   0 -15   79.46   17.50
  -2   0 -15   74.65    9.66
  -2   0 -15   77.52   10.15
  -2   0 -15   95.82    9.72
  -2   0 -15   81.57   10.15
  -2   0 -15   78.83   10.46
   2   0  15   84.66   10.21
   2   0  15   91.45   10.10
   3  -1 -15   18.18    5.61
   3  -1 -15    5.41    7.82
  -3   1  15   10.91    4.93
  -3   1  15   15.43    5.23
  -3   1  15   18.79    5.34
  -3   1  15   11.57    4.60
   2  -1 -15    2.15    5.46
   2  -1 -15    0.93    3.47
  -2   1  15   -1.13    2.33
  -2   1  15   -1.28    2.10
  -2   1  15    1.56    2.23
   1  -1 -15    7.89    2.93
   1  -1 -15    6.43    6.10
   1  -1 -15    8.79    4.27
   1  -1 -15    4.57    2.67
  -1   1  15    7.67    3.84
  -1   1  15    8.06    3.40
  -1   1  15   10.73    4.17
   0  -1 -15    5.12    2.79
   0  -1 -15    6.80    4.07
   0  -1 -15    0.61    4.98
   0  -1 -15    7.26    3.19
   0  -1 -15    7.78    3.51
   0   1  15    4.05    2.92
   0   1  15   12.00    3.78
   0   1  15    4.01    3.13
  -1  -1 -15   29.18    5.92
  -1  -1 -15   49.09    6.17
  -1  -1 -15   34.24    6.48
  -1  -1 -15   38.43    6.56
  -1  -1 -15   55.15   14.32
  -1  -1 -15   51.58    8.50
   1   1  15   49.86    8.47
   1   1  15   37.32    6.66
   1   1  15   39.36    6.70
  -2  -1 -15  300.53   16.52
  -2  -1 -15  341.30   19.56
  -2  -1 -15  307.34   18.58
  -2  -1 -15  318.75   19.50
  -2  -1 -15  317.36   18.52
  -2  -1 -15  274.38   28.35
   2   1  15  274.89   17.55
   2   1  15  298.77   18.00
   3  -2 -15   51.41   15.39
   3  -2 -15   66.08    9.88
  -3   2  15   50.54    8.34
  -3   2  15   52.01    8.25
  -3   2  15   49.94    9.66
   2  -2 -15  242.77   26.43
   2  -2 -15  323.89   19.27
  -2   2  15  326.48   18.39
  -2   2  15  303.06   18.75
  -2   2  15  279.91   17.36
   1  -2 -15  449.16   24.13
   1  -2 -15  415.95   18.96
   1  -2 -15  461.05   20.42
   1  -2 -15  408.09   33.89
  -1   2  15  482.50   21.84
  -1   2  15  443.46   23.06
  -1   2  15  466.57   22.92
   0  -2 -15    0.83    2.18
   0  -2 -15    1.69    2.44
   0  -2 -15    5.92   13.48
   0  -2 -15    2.88    3.14
   0  -2 -15    3.02    2.53
   0  -2 -15    0.83    5.08
   0   2  15    0.21    2.34
   0   2  15    3.83    3.25
   0   2  15    1.76    2.83
  -1  -2 -15  306.87   19.30
  -1  -2 -15  297.37   14.58
  -1  -2 -15  264.76   16.05
  -1  -2 -15  288.46   16.34
  -1  -2 -15  288.85   17.38
  -1  -2 -15  247.13   26.33
   1   2  15  279.98   17.00
   1   2  15  280.74   18.18
   1   2  15  281.17   16.63
  -2  -2 -15  101.56   11.71
  -2  -2 -15  129.98   14.32
  -2  -2 -15   98.13   20.27
  -2  -2 -15  126.88   11.52
  -2  -2 -15  120.19   10.18
  -2  -2 -15  102.81   12.10
   2   2  15  108.70   11.75
   2   2  15  115.23   12.67
   2   2  15  129.20   14.38
   3  -3 -15   29.85   12.28
   3  -3 -15   31.92    7.18
  -3   3  15   37.07    7.86
  -3   3  15   29.97    6.73
  -3   3  15   39.17    7.71
   2  -3 -15   52.93   30.46
   2  -3 -15  126.44   11.88
   2  -3 -15   86.94   18.25
  -2   3  15  101.49   12.07
  -2   3  15   99.88   11.17
  -2   3  15  112.49   12.13
   1  -3 -15   -2.64   10.28
   1  -3 -15   -1.56    4.85
   1  -3 -15    0.02    3.35
   1  -3 -15   -0.60    1.95
  -1   3  15    2.66    2.79
  -1   3  15   -0.18    2.15
  -1   3  15    0.17    2.77
   0  -3 -15   29.10    7.21
   0  -3 -15   18.53   18.03
   0  -3 -15   29.12    5.14
   0  -3 -15   21.05    4.70
   0  -3 -15   23.91    5.69
   0  -3 -15   16.54    9.07
   0   3  15   33.95    6.06
   0   3  15   18.49    5.51
   0   3  15   28.21    6.21
  -1  -3 -15   36.98   12.45
  -1  -3 -15   45.74    8.76
  -1  -3 -15   51.04    7.63
  -1  -3 -15   54.78    8.51
  -1  -3 -15   51.27    7.55
  -1  -3 -15   56.59    6.90
   1   3  15   55.00    8.32
   1   3  15   47.18    7.64
   1   3  15   44.55    8.14
   2  -4 -15   70.97   16.90
   2  -4 -15   34.63   26.59
   2  -4 -15   80.12   11.11
  -2   4  15   60.89    9.50
  -2   4  15   51.37    8.66
  -2   4  15   79.10   10.13
   1  -4 -15   45.82   27.10
   1  -4 -15   69.44   16.68
   1  -4 -15   77.37   10.76
  -1   4  15   70.39    9.79
  -1   4  15   74.34    9.83
  -1   4  15   67.75    8.68
   0  -4 -15    1.33    3.12
   0  -4 -15   -1.13    2.31
   0  -4 -15    0.41   11.76
   0  -4 -15    1.27    3.08
   0  -4 -15    2.78    2.35
   0  -4 -15   -0.81    3.74
   0   4  15    2.97    3.17
   0   4  15   -0.33    2.46
   0   4  15    1.34    2.65
  -1  -4 -15   56.03    7.92
  -1  -4 -15   58.29   15.79
  -1  -4 -15   70.51    7.91
  -1  -4 -15   64.78   10.74
  -1  -4 -15   59.15    8.51
  -1  -4 -15   47.36    7.85
   1   4  15   53.11    8.51
   1   4  15   50.21    7.69
   1   4  15   62.92    9.96
   2  -5 -15   15.26    8.86
   2  -5 -15    1.16   13.74
   2  -5 -15   16.55    5.89
  -2   5  15   31.10    7.19
  -2   5  15   26.04    6.23
  -2   5  15   23.27    6.75
   1  -5 -15   -2.80    3.31
   1  -5 -15   -0.52   11.25
   1  -5 -15   -1.63    4.18
  -1   5  15   -0.03    2.64
  -1   5  15    1.48    3.23
   0  -5 -15    6.18    4.20
   0  -5 -15   12.57    3.91
   0  -5 -15    5.20   14.65
   0  -5 -15    8.08    7.24
   0  -5 -15    6.05    3.75
   0   5  15   10.02    4.54
   0   5  15   15.18    5.16
   0   5  15   10.89    4.09
  -1  -5 -15  222.54   14.80
  -1  -5 -15  219.43   15.34
  -1  -5 -15  203.74   17.00
  -1  -5 -15  221.58   17.08
  -1  -5 -15  222.75   14.20
  -1  -5 -15  214.14   25.98
   1   5  15  217.36   16.30
   1   5  15  198.93   14.63
   1   5  15  228.84   16.05
   2  -6 -15    5.09   15.40
   2  -6 -15   28.34    7.54
   2  -6 -15   22.79   10.76
  -2   6  15   12.67    4.55
  -2   6  15   25.01    6.54
  -2   6  15   20.83    6.40
   1  -6 -15    9.51   16.24
   1  -6 -15   19.69    9.77
   1  -6 -15   16.65    6.02
  -1   6  15    5.48    3.51
  -1   6  15   14.70    5.63
   0  -6 -15   12.35    5.59
   0  -6 -15    1.63   12.69
   0  -6 -15    8.25    3.82
   0  -6 -15    8.72    4.06
   0  -6 -15    4.77    6.69
   0   6  15   10.47    4.84
   0   6  15   11.57    4.85
   0   6  15    5.49    3.73
   1  -7 -15    6.17    6.76
   1  -7 -15    5.54    4.55
   1  -7 -15   13.35   18.16
  -1   7  15    6.37    4.36
  -1   7  15    7.98    4.34
   1  10 -16  139.33   12.18
   1  10 -16   98.04   19.49
  -1 -10  16  133.27   11.20
  -1 -10  16  150.02   11.88
  -1 -10  16  160.92   11.59
  -1 -10  16  145.36   14.79
   0  10 -16   12.07    5.30
   0  10 -16    4.42    6.22
   0  10 -16    9.73    4.25
   0  10 -16    8.97    3.57
   0 -10  16    0.63    2.86
   0 -10  16    9.13    4.98
   0 -10  16    3.55    3.81
   0 -10  16    8.10    3.91
   2   9 -16   71.36   17.50
  -2  -9  16   82.30   10.63
  -2  -9  16   90.27   10.94
  -2  -9  16   92.15   10.49
  -2  -9  16   89.37   10.85
   1   9 -16    0.12    5.10
  -1  -9  16   -0.49    2.98
  -1  -9  16   -2.55    1.94
  -1  -9  16   -1.68    2.27
  -1  -9  16   -2.63    2.15
   0   9 -16    5.84    4.09
   0   9 -16   12.62    4.20
   0   9 -16    5.80    3.95
   0   9 -16    9.89    3.52
   0   9 -16   10.79    4.94
   0   9 -16    3.62    6.01
   0  -9  16    5.78    3.95
   0  -9  16   12.55    3.97
   0  -9  16    8.72    3.26
   0  -9  16   13.53    4.44
   0  -9  16   12.04    3.82
  -1   9 -16   50.87    8.56
  -1   9 -16   33.59   15.59
  -1   9 -16   24.48    6.65
  -1   9 -16   49.35    7.85
  -1   9 -16   29.01    6.66
  -1   9 -16   40.36    6.79
   1  -9  16   35.08    6.52
   1  -9  16   20.71    6.51
   2   8 -16    1.29    6.40
  -2  -8  16    2.99    3.47
  -2  -8  16   -2.82    2.40
  -2  -8  16   -2.14    2.63
  -2  -8  16    1.86    3.11
   1   8 -16   20.21    9.86
   1   8 -16   30.63    7.16
  -1  -8  16   31.19    6.43
  -1  -8  16   32.57    6.12
  -1  -8  16   34.33    5.93
  -1  -8  16   35.67    6.56
   0   8 -16   11.75    3.34
   0   8 -16   13.82    4.17
   0   8 -16    1.89    5.13
   0   8 -16    5.40    3.95
   0   8 -16    4.81    3.53
   0   8 -16    4.92    3.99
   0  -8  16    5.43    2.71
   0  -8  16    4.51    3.56
   0  -8  16    4.53    2.83
   0  -8  16    3.21    2.83
   0  -8  16    5.82    3.15
  -1   8 -16   38.02    6.41
  -1   8 -16   32.80    6.38
  -1   8 -16   33.79    7.15
  -1   8 -16   29.01   10.33
  -1   8 -16   30.06    7.10
  -1   8 -16   36.55    7.54
   1  -8  16   25.07    5.56
   1  -8  16   23.09    6.11
   2   7 -16   97.22   20.65
   2   7 -16  123.39   14.61
  -2  -7  16  111.68   11.68
  -2  -7  16  114.22   12.24
  -2  -7  16  116.03    9.96
  -2  -7  16  101.59   11.48
   1   7 -16   48.81    8.12
   1   7 -16   38.01    7.63
   1   7 -16   40.83   12.93
  -1  -7  16   39.58    7.38
  -1  -7  16   52.67    7.40
  -1  -7  16   42.41    6.64
  -1  -7  16   46.96    7.47
   0   7 -16   12.75    4.80
   0   7 -16   20.39    5.86
   0   7 -16   19.16    5.21
   0   7 -16   18.55    9.15
   0   7 -16   27.90    4.72
   0   7 -16   20.76    4.51
   0  -7  16   25.66    5.11
   0  -7  16   24.39    4.97
   0  -7  16   26.96    6.07
   0  -7  16   17.30    4.69
   0  -7  16   29.81    4.96
  -1   7 -16    0.85    2.79
  -1   7 -16    4.58    5.32
  -1   7 -16   -0.33    2.76
  -1   7 -16    5.26    3.45
  -1   7 -16    2.57    3.38
  -1   7 -16   -1.28    2.67
   1  -7  16   -1.93    2.69
   1  -7  16    2.05    2.64
   1  -7  16    3.64    2.59
   2   6 -16  137.82   24.66
   2   6 -16  143.76   13.38
  -2  -6  16  126.92   10.18
  -2  -6  16  128.53   10.87
  -2  -6  16  128.40   11.36
  -2  -6  16  134.56   11.56
   1   6 -16   39.87   12.82
   1   6 -16   53.95    8.13
   1   6 -16   46.61    8.51
  -1  -6  16   65.30    7.94
  -1  -6  16   44.51    7.95
  -1  -6  16   52.50    6.12
  -1  -6  16   60.12    7.60
  -1  -6  16   47.24    7.17
   0   6 -16    7.19    3.08
   0   6 -16    7.99    2.97
   0   6 -16   13.93    4.62
   0   6 -16    8.01    3.77
   0   6 -16    8.38    4.40
   0   6 -16    5.80    6.08
   0  -6  16    8.24    3.56
   0  -6  16   18.88    3.91
   0  -6  16   12.04    4.07
   0  -6  16   10.73    4.18
   0  -6  16    6.27    3.15
  -1   6 -16   15.65    5.03
  -1   6 -16   24.09    6.00
  -1   6 -16   21.84    5.05
  -1   6 -16   28.16    9.82
  -1   6 -16   37.95    7.19
   1  -6  16   29.43    5.11
   1  -6  16   36.70    6.38
   1  -6  16   17.90    5.88
  -2   6 -16   18.26    5.17
  -2   6 -16   16.30    8.91
  -2   6 -16   17.80    5.34
  -2   6 -16   14.51    5.52
  -2   6 -16   22.99    6.34
  -2   6 -16   12.41    5.27
  -2   6 -16   33.71    6.55
   2  -6  16   20.20    6.22
   2  -6  16   26.07    6.12
   2   5 -16    2.20    5.90
   2   5 -16   -0.09    3.01
  -2  -5  16    1.31    2.48
  -2  -5  16    5.66    3.57
  -2  -5  16   -0.20    2.71
  -2  -5  16    4.04    3.23
   1   5 -16   74.49    6.25
   1   5 -16   84.38   10.27
   1   5 -16   75.24   17.24
   1   5 -16   85.72   11.04
  -1  -5  16   89.22    9.35
  -1  -5  16   71.14    8.92
  -1  -5  16   86.58    9.32
  -1  -5  16   77.82    7.57
   0   5 -16   23.23    4.74
   0   5 -16   14.93    8.27
   0   5 -16   16.93    4.93
   0   5 -16   13.81    4.92
   0  -5  16   19.32    4.66
   0  -5  16   19.87    3.91
   0  -5  16   16.65    4.67
   0  -5  16   17.22    4.30
  -1   5 -16   32.67    6.55
  -1   5 -16   23.13    5.88
  -1   5 -16   37.11    7.48
  -1   5 -16   26.75   10.06
  -1   5 -16   28.76    5.70
  -1   5 -16   27.96    5.94
   1  -5  16   36.35    5.88
   1  -5  16   26.08    5.72
   1  -5  16   18.37    5.51
  -2   5 -16   24.74    6.02
  -2   5 -16   19.75    5.63
  -2   5 -16   19.26    5.31
  -2   5 -16   21.05    6.05
  -2   5 -16   16.50    8.77
  -2   5 -16   20.14    5.15
  -2   5 -16   20.07    5.58
   2  -5  16   16.55    5.41
   2  -5  16   14.28    4.82
   3   4 -16  106.61   22.95
   3   4 -16  131.11   15.10
  -3  -4  16   97.54   11.91
  -3  -4  16  108.92    9.12
  -3  -4  16  112.96   12.50
   2   4 -16   40.21    8.20
   2   4 -16   24.53   11.00
  -2  -4  16   31.66    6.75
  -2  -4  16   44.63    6.61
  -2  -4  16   32.21    6.40
  -2  -4  16   41.12    6.45
   1   4 -16   83.01   11.15
   1   4 -16   80.19   17.81
   1   4 -16   78.48    9.42
   1   4 -16   76.24    6.35
  -1  -4  16   61.45    8.24
  -1  -4  16   65.20    7.12
  -1  -4  16   78.64    8.62
  -1  -4  16   76.53    9.36
  -1  -4  16   77.63    8.61
   0   4 -16   29.73    5.28
   0   4 -16   12.76    7.61
   0   4 -16   26.93    6.23
   0   4 -16   18.61    5.71
   0  -4  16   19.93    4.56
   0  -4  16   11.69    3.99
   0  -4  16   28.72    4.75
  -1   4 -16   30.29   10.53
  -1   4 -16   28.65    5.85
  -1   4 -16   28.97    6.56
  -1   4 -16   29.16    5.91
  -1   4 -16   18.29    5.27
   1  -4  16   27.34    5.30
  -2   4 -16   12.31    4.99
  -2   4 -16    5.86    3.86
  -2   4 -16   10.35    3.85
  -2   4 -16    3.33    6.55
  -2   4 -16    8.44    4.30
  -2   4 -16   12.74    4.25
  -2   4 -16    7.11    4.09
   2  -4  16    7.25    3.98
   2  -4  16    6.29    4.13
   3   3 -16   50.44   16.07
   3   3 -16   69.05   10.52
  -3  -3  16   68.46    9.69
  -3  -3  16   72.93   10.72
   2   3 -16  154.49   25.73
   2   3 -16  196.73   14.94
  -2  -3  16  168.52   10.76
  -2  -3  16  171.85   12.40
  -2  -3  16  155.64   12.48
  -2  -3  16  174.63   12.13
   1   3 -16  108.97    7.62
   1   3 -16  100.34   12.18
   1   3 -16  110.99    9.43
   1   3 -16   70.08   15.93
  -1  -3  16  102.47    8.27
  -1  -3  16  106.71    9.81
  -1  -3  16  101.91    8.72
  -1  -3  16   97.89    7.92
  -1  -3  16  113.73   11.67
   0   3 -16    2.04    3.21
   0   3 -16    4.95    3.16
   0   3 -16    1.56    2.18
   0   3 -16    3.35    4.74
   0  -3  16    0.89    2.23
   0  -3  16    2.33    2.11
   0  -3  16    0.61    2.65
   0  -3  16   -1.26    1.78
  -1   3 -16   28.97    6.18
  -1   3 -16   30.70    6.79
  -1   3 -16   21.47    5.09
  -1   3 -16   12.67    7.41
  -1   3 -16   20.37    5.35
   1  -3  16   20.33    4.91
   1  -3  16   11.10    3.94
  -2   3 -16    9.55    4.24
  -2   3 -16    1.25    5.58
  -2   3 -16    3.89    3.32
  -2   3 -16    3.30    3.56
  -2   3 -16    9.49    4.72
  -2   3 -16    5.95    4.20
   2  -3  16   10.65    4.30
   2  -3  16   10.33    3.85
   3   2 -16  170.81   24.98
   3   2 -16  228.37   16.79
  -3  -2  16  210.46   15.32
  -3  -2  16  218.80   15.15
   2   2 -16   50.03    8.80
   2   2 -16   31.50   11.47
  -2  -2  16   44.73    7.40
  -2  -2  16   53.21    6.32
  -2  -2  16   46.98    7.35
  -2  -2  16   45.84    7.30
  -2  -2  16   52.21    6.54
   1   2 -16    2.12    4.67
   1   2 -16    4.44    2.77
   1   2 -16    0.77    1.84
   1   2 -16   -0.10    2.38
  -1  -2  16   -0.55    2.39
  -1  -2  16   -3.03    1.83
  -1  -2  16    0.40    2.04
  -1  -2  16    0.94    1.79
   0   2 -16   24.88    5.47
   0   2 -16   24.28    6.30
   0   2 -16   12.04    7.07
   0   2 -16   29.38    5.29
   0  -2  16   22.89    5.43
   0  -2  16   16.95    4.69
   0  -2  16   25.07    5.04
   0  -2  16   21.52    4.33
  -1   2 -16    3.11    3.38
  -1   2 -16    3.33    3.14
  -1   2 -16    6.65    3.48
  -1   2 -16    4.32    5.89
  -1   2 -16    6.28    4.15
   1  -2  16    2.59    2.93
   1  -2  16    1.02    2.59
  -2   2 -16   29.08    6.58
  -2   2 -16   22.57   10.23
  -2   2 -16   38.31    7.63
  -2   2 -16   27.91    6.22
  -2   2 -16   35.17    6.18
  -2   2 -16   40.66    7.55
   2  -2  16   38.45    6.68
   2  -2  16   32.53    6.66
   3   1 -16   30.89   13.19
   3   1 -16   18.70    5.99
  -3  -1  16   30.44    6.69
  -3  -1  16   18.94    5.71
   2   1 -16    9.83    4.53
   2   1 -16    0.70    5.53
  -2  -1  16    7.67    3.86
  -2  -1  16    6.98    3.64
  -2  -1  16    5.07    2.66
  -2  -1  16    5.64    3.48
  -2  -1  16    5.46    2.53
   1   1 -16   19.69    4.63
   1   1 -16   15.13    8.65
   1   1 -16   15.87    3.73
   1   1 -16   11.88    4.77
  -1  -1  16   19.39    5.33
  -1  -1  16    8.23    3.27
  -1  -1  16   16.67    4.34
  -1  -1  16   18.07    4.69
   0   1 -16   33.44    6.55
   0   1 -16   32.40    5.43
   0   1 -16   25.99    5.61
   0   1 -16   25.11   10.46
   0   1 -16   25.40    6.14
   0  -1  16   20.16    4.73
   0  -1  16   26.28    4.72
   0  -1  16   36.52    7.36
   0  -1  16   35.67    6.57
  -1   1 -16   29.54    5.95
  -1   1 -16   35.78    7.13
  -1   1 -16   36.18    6.72
  -1   1 -16   45.10    7.67
  -1   1 -16   26.28   10.47
   1  -1  16   52.24    7.70
   1  -1  16   52.89    8.97
   1  -1  16   50.47    7.75
  -2   1 -16   -0.11    2.75
  -2   1 -16    0.03    3.58
  -2   1 -16   -0.40    3.32
  -2   1 -16   -0.54    5.83
  -2   1 -16    0.93    3.03
  -2   1 -16    0.07    3.03
   2  -1  16    3.37    3.35
   2  -1  16   -1.72    2.62
   3   0 -16    3.43    8.02
   3   0 -16    3.91    4.40
  -3   0  16    6.15    4.06
  -3   0  16    6.81    3.89
   2   0 -16   66.94   17.06
   2   0 -16   69.80   10.57
  -2   0  16   83.87   10.18
  -2   0  16   63.25    9.02
  -2   0  16   73.69    9.84
  -2   0  16   66.90    7.72
   1   0 -16   18.36   10.02
   1   0 -16   17.87    4.37
   1   0 -16   17.35    3.94
   1   0 -16   11.20    4.51
  -1   0  16   11.95    4.70
  -1   0  16   21.26    4.67
  -1   0  16   17.83    5.21
   0   0 -16   48.28    6.85
   0   0 -16   39.61    7.16
   0   0 -16   42.16   12.34
   0   0 -16   54.25    7.46
   0   0 -16   44.08    8.11
   0   0  16   39.22    6.34
   0   0  16   56.85    8.30
   0   0  16   56.60    8.81
  -1   0 -16    6.87    3.68
  -1   0 -16    2.20    5.59
  -1   0 -16    3.79    3.31
  -1   0 -16    5.21    4.13
  -1   0 -16    0.32    2.61
   1   0  16    4.55    3.55
   1   0  16    3.34    3.11
   1   0  16    0.22    2.55
  -2   0 -16  414.08   22.68
  -2   0 -16  460.81   23.14
  -2   0 -16  337.97   33.43
  -2   0 -16  416.72   22.91
  -2   0 -16  403.57   20.63
   2   0  16  423.52   22.00
   2  -1 -16   80.85   18.38
   2  -1 -16   87.45   11.59
  -2   1  16   84.04   10.29
  -2   1  16   82.00    8.87
  -2   1  16   86.31   10.84
   1  -1 -16    0.92    2.15
   1  -1 -16    0.64    3.09
   1  -1 -16   -2.79    1.78
   1  -1 -16    3.05    5.94
  -1   1  16   -0.64    2.16
  -1   1  16   -0.78    2.33
  -1   1  16   -1.24    2.15
   0  -1 -16    2.30    2.54
   0  -1 -16    1.07    5.10
   0  -1 -16    3.72    3.39
   0  -1 -16    1.30    2.66
   0  -1 -16    1.30    2.41
   0   1  16   -0.12    2.70
   0   1  16   -0.41    2.24
   0   1  16    1.90    3.07
  -1  -1 -16   40.49    7.04
  -1  -1 -16   41.41    7.72
  -1  -1 -16   24.72   10.74
  -1  -1 -16   46.37    7.10
  -1  -1 -16   40.17    7.99
   1   1  16   31.82    6.65
   1   1  16   36.58    7.59
   1   1  16   31.95    6.50
   2  -2 -16   52.78    9.16
   2  -2 -16   35.16   12.77
  -2   2  16   41.24    7.81
  -2   2  16   50.55    7.03
  -2   2  16   42.17    7.95
   1  -2 -16  195.14   15.15
   1  -2 -16  173.64   22.43
   1  -2 -16  179.68   11.64
  -1   2  16  166.47   12.21
  -1   2  16  186.50   13.60
  -1   2  16  200.03   14.58
   0  -2 -16  123.50   13.83
   0  -2 -16  119.33    9.88
   0  -2 -16  107.02   20.26
   0  -2 -16  126.51    9.60
   0  -2 -16  137.48   13.71
   0   2  16  125.77   11.15
   0   2  16  129.76   11.74
   0   2  16  114.53   11.36
  -1  -2 -16    2.81    3.05
  -1  -2 -16    6.89    4.54
  -1  -2 -16    1.00    2.53
  -1  -2 -16    7.38    7.74
  -1  -2 -16    5.39    3.55
   1   2  16   10.56    4.55
   1   2  16    8.29    3.95
   1   2  16   10.43    4.12
   2  -3 -16  233.35   27.53
   2  -3 -16  342.94   20.82
  -2   3  16  319.63   19.04
  -2   3  16  352.86   20.13
   1  -3 -16   41.32   13.91
   1  -3 -16   50.02    9.00
   1  -3 -16   33.83    5.73
   1  -3 -16   21.38   20.07
  -1   3  16   27.97    5.92
  -1   3  16   45.54    8.35
  -1   3  16   36.19    6.71
   0  -3 -16    3.07    2.66
   0  -3 -16    1.18   12.01
   0  -3 -16   -2.54    2.54
   0  -3 -16    2.82    5.78
   0  -3 -16    4.41    2.79
   0  -3 -16    6.83    4.40
   0   3  16    2.51    3.50
   0   3  16    1.26    3.11
   0   3  16   -1.34    2.53
  -1  -3 -16    0.04    4.99
  -1  -3 -16   -2.03    2.84
  -1  -3 -16    1.93    2.84
  -1  -3 -16   -0.63    2.76
  -1  -3 -16    1.45    4.15
   1   3  16   -1.95    2.60
   1   3  16   -2.32    2.18
   1   3  16   -0.57    2.63
   2  -4 -16    6.89    7.55
   2  -4 -16   21.22    6.74
   2  -4 -16    5.87   14.28
  -2   4  16   14.38    5.35
  -2   4  16   18.96    5.59
  -2   4  16   17.27    5.94
   1  -4 -16   13.88   17.84
   1  -4 -16   49.24    9.14
   1  -4 -16   38.76   13.20
  -1   4  16   33.92    7.23
  -1   4  16   29.82    6.47
  -1   4  16   31.47    6.26
   0  -4 -16    9.96    4.62
   0  -4 -16    1.58    6.75
   0  -4 -16    8.75    5.29
   0  -4 -16    7.97   14.34
   0  -4 -16    8.83    4.07
   0   4  16    7.31    4.43
   0   4  16    9.20    4.15
   0   4  16    3.97    3.61
  -1  -4 -16    7.44    8.05
  -1  -4 -16   11.37    4.65
  -1  -4 -16   13.85    5.69
  -1  -4 -16   18.85    5.41
  -1  -4 -16    5.50    3.79
   1   4  16   11.99    4.90
   1   4  16    8.65    4.26
   1   4  16    7.30    4.32
   1  -5 -16  110.62   13.96
   1  -5 -16   91.69   19.73
  -1   5  16  111.40   11.48
  -1   5  16  114.68   13.68
  -1   5  16   94.01   11.39
   0  -5 -16    3.45    3.82
   0  -5 -16    4.83    4.28
   0  -5 -16   -0.03    5.85
   0  -5 -16    3.30    3.17
   0  -5 -16   -0.05   12.50
   0   5  16   -0.09    3.16
   0   5  16   -0.06    3.24
   0   5  16   -1.53    2.76
   1   9 -17   -3.58    5.12
  -1  -9  17   -2.35    2.29
  -1  -9  17    1.97    2.76
  -1  -9  17   -2.07    2.34
  -1  -9  17    0.72    3.19
   0   9 -17   24.45    5.43
   0   9 -17   20.38    9.76
   0   9 -17   23.84    6.78
   0   9 -17   31.75    7.10
   0   9 -17   24.95    6.79
   0  -9  17   29.70    5.85
   0  -9  17   22.24    5.07
   0  -9  17   24.05    6.51
   0  -9  17   23.23    5.69
   1   8 -17   67.50   17.30
   1   8 -17   78.03   11.79
  -1  -8  17   81.88    9.43
  -1  -8  17   74.46    9.37
  -1  -8  17   77.81   10.61
  -1  -8  17   75.12    9.29
   0   8 -17   25.77   10.53
   0   8 -17   26.04    6.71
   0   8 -17   43.47    8.11
   0   8 -17   22.03    6.35
   0   8 -17   35.63    5.93
   0  -8  17   12.37    4.95
   0  -8  17   22.81    5.48
   0  -8  17   30.05    5.95
   0  -8  17   27.47    5.43
  -1   8 -17    3.23    3.66
  -1   8 -17   12.93    4.98
  -1   8 -17   11.05    4.55
  -1   8 -17    6.34    6.28
  -1   8 -17    4.80    3.99
  -1   8 -17   13.22    4.53
   1  -8  17    3.52    3.47
   1  -8  17    7.94    3.87
   2   7 -17   38.74   14.48
   2   7 -17   60.11   10.28
  -2  -7  17   70.65    9.78
  -2  -7  17   87.42   10.02
  -2  -7  17   47.45    7.71
  -2  -7  17   39.51    7.53
   1   7 -17   26.20    6.78
   1   7 -17   44.29    8.16
   1   7 -17   25.89   10.91
  -1  -7  17   24.45    5.60
  -1  -7  17   35.11    6.49
  -1  -7  17   28.30    6.57
  -1  -7  17   40.45    6.58
   0   7 -17   25.68    6.60
   0   7 -17   26.56    6.83
   0   7 -17   18.74    4.68
   0   7 -17   16.76    5.25
   0   7 -17   19.15    9.34
   0  -7  17   25.55    6.16
   0  -7  17   26.55    6.05
   0  -7  17   34.22    6.42
   0  -7  17   29.86    5.60
   0  -7  17   33.04    6.28
  -1   7 -17    9.67    4.13
  -1   7 -17   11.32    4.95
  -1   7 -17    9.98    7.34
  -1   7 -17   11.11    4.40
  -1   7 -17    9.26    4.42
  -1   7 -17    6.57    4.12
   1  -7  17   10.06    3.89
   1  -7  17    2.24    3.11
   2   6 -17    0.96    3.65
   2   6 -17   -5.63    4.32
  -2  -6  17    2.14    2.88
  -2  -6  17    0.23    3.06
  -2  -6  17    2.42    3.02
  -2  -6  17    1.43    2.72
   1   6 -17    1.17    3.08
   1   6 -17   -0.87    3.14
   1   6 -17    1.08    5.61
  -1  -6  17    1.20    2.61
  -1  -6  17   -0.19    2.46
  -1  -6  17   -0.77    1.86
  -1  -6  17    2.75    2.73
   0   6 -17   24.28    6.44
   0   6 -17   29.20   11.09
   0   6 -17   36.59    7.74
   0   6 -17   43.13    6.65
   0   6 -17   39.61    5.72
   0  -6  17   37.98    6.45
   0  -6  17   30.90    5.11
   0  -6  17   39.20    7.75
   0  -6  17   32.99    5.80
   0  -6  17   34.22    6.33
  -1   6 -17   15.52    5.37
  -1   6 -17   15.09    4.85
  -1   6 -17    9.52    4.52
  -1   6 -17   13.83    8.16
  -1   6 -17   10.80    4.37
   1  -6  17   12.15    4.37
   1  -6  17    5.19    4.34
   1  -6  17   14.55    4.10
   2   5 -17    0.61    6.58
   2   5 -17   -0.13    3.50
  -2  -5  17   -0.21    2.15
  -2  -5  17    2.05    3.05
  -2  -5  17    0.48    2.83
   1   5 -17   33.18    7.28
   1   5 -17   47.18   14.69
   1   5 -17   39.51    7.29
  -1  -5  17   30.89    5.14
  -1  -5  17   55.58    7.44
  -1  -5  17   52.70    7.26
  -1  -5  17   36.35    6.72
   0   5 -17    2.34    5.67
   0   5 -17    2.74    2.56
   0   5 -17    0.88    3.08
   0   5 -17    0.06    2.68
   0  -5  17    2.90    3.24
   0  -5  17    3.41    2.34
   0  -5  17    0.31    2.32
   0  -5  17    5.00    2.83
  -1   5 -17    6.39    3.85
  -1   5 -17    2.37    3.05
  -1   5 -17    4.79    3.39
  -1   5 -17    5.03    3.90
  -1   5 -17    8.85    7.21
   1  -5  17    3.89    3.59
   1  -5  17    5.01    3.21
   1  -5  17    6.16    3.41
   2   4 -17    9.77    8.78
   2   4 -17    7.71    4.98
  -2  -4  17    9.94    3.51
  -2  -4  17   12.20    4.54
  -2  -4  17   11.10    4.08
  -2  -4  17    8.87    4.02
   1   4 -17  142.70   20.76
   1   4 -17  148.36   10.02
   1   4 -17  146.62   11.68
   1   4 -17  147.90   13.31
  -1  -4  17  131.90   11.28
  -1  -4  17  145.47   10.67
  -1  -4  17  160.26   10.38
  -1  -4  17  139.09   11.65
  -1  -4  17  153.87   10.84
   0   4 -17   62.33   15.25
   0   4 -17   72.30   10.56
   0   4 -17   65.43    9.35
   0   4 -17   68.71    7.93
   0  -4  17   63.76    8.70
   0  -4  17   78.26    8.92
   0  -4  17   68.03    7.22
  -1   4 -17   32.60    7.04
  -1   4 -17   45.96    8.06
  -1   4 -17   29.32    5.94
  -1   4 -17   31.45    7.08
  -1   4 -17   52.73   14.36
   1  -4  17   33.38    6.30
   1  -4  17   39.25    7.07
   2   3 -17   14.59    5.83
   2   3 -17   16.50    9.47
  -2  -3  17   24.72    5.61
  -2  -3  17   24.14    4.98
  -2  -3  17   22.25    5.42
  -2  -3  17   31.64    6.34
   1   3 -17    4.02    2.19
   1   3 -17    2.04    3.35
   1   3 -17    0.20    2.28
   1   3 -17    1.21    5.55
  -1  -3  17   -0.24    2.36
  -1  -3  17    1.94    2.94
  -1  -3  17    1.63    2.22
  -1  -3  17   -0.25    2.40
  -1  -3  17    1.53    2.53
   0   3 -17   27.56    5.23
   0   3 -17   19.10    9.74
   0   3 -17   34.17    6.89
   0   3 -17   24.17    6.27
   0  -3  17   30.31    6.38
   0  -3  17   24.46    5.12
   0  -3  17   19.27    5.65
   0  -3  17   16.46    3.93
  -1   3 -17    5.88    6.49
  -1   3 -17    8.18    4.51
  -1   3 -17    6.15    3.50
  -1   3 -17    1.39    3.07
  -1   3 -17    5.11    3.60
   1  -3  17    1.72    2.66
   1  -3  17    5.12    3.47
   2   2 -17   33.67    7.58
   2   2 -17   27.37   12.29
  -2  -2  17   36.60    6.85
  -2  -2  17   34.08    5.45
  -2  -2  17   27.59    5.98
  -2  -2  17   30.73    6.79
   1   2 -17    0.32    1.94
   1   2 -17   -2.32    3.91
   1   2 -17    0.20    3.04
   1   2 -17    0.54    2.51
  -1  -2  17    1.85    2.20
  -1  -2  17   -0.78    2.46
  -1  -2  17    0.45    2.61
  -1  -2  17   -0.36    2.03
  -1  -2  17    0.29    2.14
   0   2 -17   20.68    6.39
   0   2 -17   17.05    4.27
   0   2 -17   23.80    5.65
   0   2 -17   16.18    8.58
   0  -2  17   10.11    4.30
   0  -2  17   19.92    4.79
   0  -2  17   15.92    3.89
   0  -2  17   30.40    6.23
  -1   2 -17   12.98    4.83
  -1   2 -17   27.83    6.84
  -1   2 -17   28.55    6.37
  -1   2 -17   21.87    5.37
  -1   2 -17   23.43   10.25
   1  -2  17   18.81    5.11
   1  -2  17   19.52    4.89
   2   1 -17    6.26    4.38
   2   1 -17   20.16   10.84
  -2  -1  17   11.76    3.78
  -2  -1  17   11.21    4.17
  -2  -1  17   11.15    4.61
  -2  -1  17    9.00    4.30
   1   1 -17   29.93    7.30
   1   1 -17   30.92    5.93
   1   1 -17   36.27   12.53
   1   1 -17   36.19    5.53
  -1  -1  17   40.46    7.45
  -1  -1  17   35.72    5.93
  -1  -1  17   27.26    5.31
  -1  -1  17   47.78    8.04
   0   1 -17   -0.71    2.30
   0   1 -17   -0.77    4.85
   0   1 -17    0.42    1.91
   0   1 -17   -0.96    2.87
   0  -1  17    1.83    2.64
   0  -1  17   -0.79    2.48
   0  -1  17   -0.05    2.96
   0  -1  17    0.37    2.12
  -1   1 -17   25.58    6.30
  -1   1 -17   34.73    7.46
  -1   1 -17   27.12   11.23
  -1   1 -17   36.03    6.97
  -1   1 -17   38.56    7.17
   1  -1  17   33.61    6.64
   1  -1  17   34.14    6.64
   1  -1  17   30.32    7.10
   2   0 -17   68.74   17.72
   2   0 -17   81.61   11.32
  -2   0  17   77.77    9.74
  -2   0  17   79.55   10.23
  -2   0  17   65.05    9.26
  -2   0  17   91.05    9.42
   1   0 -17    3.69    5.85
   1   0 -17    6.31    3.90
   1   0 -17    7.61    3.00
   1   0 -17    7.41    3.46
  -1   0  17    5.86    3.34
  -1   0  17    0.08    3.23
  -1   0  17    7.45    3.62
   0   0 -17    9.64    7.45
   0   0 -17   21.03    5.63
   0   0 -17   15.62    4.31
   0   0 -17   16.56    4.62
   0   0 -17   14.64    5.22
   0   0  17   17.19    5.25
   0   0  17    3.77    2.91
   0   0  17    9.76    4.53
  -1   0 -17    0.18    3.00
  -1   0 -17    2.12    2.81
  -1   0 -17   -0.39    2.83
  -1   0 -17    0.94    3.45
  -1   0 -17    5.21    6.59
   1   0  17    8.62    4.33
   1   0  17    4.87    3.73
   1   0  17    8.43    4.64
   2  -1 -17   84.65   12.00
   2  -1 -17   96.87   21.18
  -2   1  17   67.91    8.68
  -2   1  17  102.47   11.97
  -2   1  17   82.56   11.00
   1  -1 -17   16.96    5.85
   1  -1 -17   11.99    8.54
   1  -1 -17   13.31    3.97
  -1   1  17    5.86    3.57
  -1   1  17    8.70    4.60
  -1   1  17    4.99    3.46
   0  -1 -17    8.52    3.69
   0  -1 -17    6.84    3.53
   0  -1 -17   10.98    5.31
   0  -1 -17   10.20    7.32
   0  -1 -17   24.91    6.20
   0   1  17   15.66    5.27
   0   1  17   14.88    4.47
   0   1  17   17.67    5.16
  -1  -1 -17  295.99   30.81
  -1  -1 -17  365.22   19.91
  -1  -1 -17  340.46   20.53
  -1  -1 -17  366.16   22.31
  -1  -1 -17  365.48   19.98
   1   1  17  343.45   19.98
   1   1  17  363.53   22.13
   1   1  17  403.85   21.40
   2  -2 -17    5.69    4.55
   2  -2 -17   10.09    8.27
  -2   2  17    3.39    3.82
  -2   2  17    6.95    4.61
  -2   2  17    3.99    3.66
   1  -2 -17   70.44    8.41
   1  -2 -17   64.04   10.13
   1  -2 -17   72.22   17.91
  -1   2  17   88.56   11.17
  -1   2  17   73.31    9.39
  -1   2  17   67.81    9.90
   0  -2 -17    7.96    7.62
   0  -2 -17    9.32    4.02
   0  -2 -17   16.06    4.39
   0  -2 -17   16.06    5.78
   0  -2 -17    7.40    4.10
   0   2  17   15.87    4.98
   0   2  17   12.36    5.35
   0   2  17    8.30    3.84
  -1  -2 -17    2.94    3.23
  -1  -2 -17    2.16    3.26
  -1  -2 -17    2.84    4.09
  -1  -2 -17    0.80    5.33
  -1  -2 -17    1.06    3.53
   1   2  17   -1.68    2.68
   1   2  17    3.00    3.92
   1   2  17    0.44    3.17
   1  -3 -17  173.45   12.15
   1  -3 -17  192.44   15.90
   1  -3 -17  172.40   23.60
  -1   3  17  179.92   13.21
  -1   3  17  189.51   14.35
  -1   3  17  179.50   14.75
   0  -3 -17    5.74    3.78
   0  -3 -17    0.98    2.68
   0  -3 -17    3.28    6.68
   0  -3 -17    3.89    4.10
   0   3  17    8.47    4.20
   0   3  17    0.64    3.12
   0   3  17    0.74    3.33
   1  -4 -17   13.74   18.97
   1  -4 -17   47.37   15.18
   1  -4 -17   42.02    8.73
  -1   4  17   32.62    7.40
  -1   4  17   42.27    7.98
  -1   4  17   31.78    6.66
   0  -4 -17   -1.99    2.56
   0  -4 -17    0.39    6.40
   0  -4 -17   -2.83   11.88
   0  -4 -17    1.81    3.64
   0   4  17   -3.23    2.94
   0   4  17   -2.75    2.88
   0  -8  18    9.68    4.63
   1   7 -18   12.40    5.87
   1   7 -18    6.03    7.84
  -1  -7  18    4.83    3.82
  -1  -7  18    7.71    4.08
  -1  -7  18    5.61    3.78
  -1  -7  18   10.22    3.83
   0   7 -18    8.58    3.94
   0   7 -18    7.98    4.63
   0   7 -18    3.45    6.02
   0   7 -18    4.31    4.08
   0  -7  18   16.56    4.80
   0  -7  18    5.51    3.36
   0  -7  18   17.47    5.04
   0  -7  18   14.54    5.02
   1   6 -18   28.72    6.61
   1   6 -18   11.83    8.77
   1   6 -18    9.28    5.41
  -1  -6  18   16.91    5.17
  -1  -6  18   17.45    4.68
  -1  -6  18   12.48    4.72
  -1  -6  18   19.03    4.83
   0   6 -18   55.25    9.82
   0   6 -18   28.25    6.75
   0   6 -18   37.67    6.09
   0   6 -18   43.23   13.80
   0  -6  18   35.64    7.58
   0  -6  18   43.87    7.65
   0  -6  18   38.83    6.52
   0  -6  18   37.80    6.96
  -2  -5  18  143.24   12.68
   1   5 -18    7.85    7.80
   1   5 -18   13.99    5.49
   1   5 -18   15.55    5.06
  -1  -5  18   10.78    4.32
  -1  -5  18    7.69    4.00
  -1  -5  18   11.11    3.70
  -1  -5  18   16.45    4.74
   0   5 -18    7.02    3.22
   0   5 -18   -0.33    5.31
   0   5 -18    1.55    3.08
   0   5 -18    1.08    3.28
   0  -5  18    1.04    2.81
   0  -5  18    5.55    3.23
  -1   5 -18   30.10    6.38
  -1   5 -18   21.76   10.00
  -1   5 -18   37.51    7.90
   1  -5  18   33.56    7.99
   1  -5  18   37.80    6.57
   2   4 -18    0.42    3.91
   2   4 -18    1.10    6.39
  -2  -4  18   -1.98    2.55
  -2  -4  18    1.34    2.65
  -2  -4  18    1.38    3.29
   1   4 -18   22.67    6.53
   1   4 -18   20.13    5.42
   1   4 -18   22.15   10.73
  -1  -4  18   24.73    6.40
  -1  -4  18   24.79    5.77
  -1  -4  18   23.03    4.80
  -1  -4  18   31.94    5.80
  -1  -4  18   26.82    5.43
   0   4 -18    3.21    3.01
   0   4 -18    9.37    5.00
   0   4 -18    6.88    7.67
   0   4 -18    2.34    3.43
   0  -4  18    2.42    3.06
   0  -4  18    2.23    3.12
  -1   4 -18    4.83    4.09
  -1   4 -18    6.66    4.20
  -1   4 -18    5.89    3.81
  -1   4 -18    5.38    6.73
  -1   4 -18    8.77    4.56
   1  -4  18    5.89    3.61
   1  -4  18    9.28    4.08
   2   3 -18   89.38   21.22
   2   3 -18   96.56   13.04
  -2  -3  18   96.75    9.69
  -2  -3  18  108.73   11.85
  -2  -3  18   84.81   11.46
  -2  -3  18   91.56   10.90
   1   3 -18   17.70    6.15
   1   3 -18   12.78    8.88
   1   3 -18   16.43    5.00
  -1  -3  18   18.28    4.47
  -1  -3  18   21.03    5.63
  -1  -3  18   19.23    4.84
  -1  -3  18    9.94    4.15
  -1  -3  18   19.61    4.65
   0   3 -18   74.59   18.02
   0   3 -18   68.78    8.49
   0   3 -18   95.64   11.17
   0   3 -18  106.04   13.25
   0  -3  18   80.72    9.61
   0  -3  18   99.10   10.56
   0  -3  18   95.50   10.79
   0  -3  18   81.32   11.28
  -1   3 -18   21.15    5.63
  -1   3 -18   21.38    6.53
  -1   3 -18    7.81    7.16
  -1   3 -18   22.38    6.24
  -1   3 -18   13.60    4.93
   1  -3  18   25.75    6.11
   1  -3  18   16.29    5.06
   2   2 -18    2.22    3.99
   2   2 -18    5.48    7.87
  -2  -2  18    1.70    3.12
  -2  -2  18    5.75    4.17
  -2  -2  18    6.89    3.96
   1   2 -18    6.63    4.65
   1   2 -18   16.51    8.86
   1   2 -18   15.68    4.09
   1   2 -18   17.80    4.94
  -1  -2  18   13.79    5.05
  -1  -2  18   12.54    4.89
  -1  -2  18   19.87    5.08
  -1  -2  18    8.14    3.61
   0   2 -18   23.93    5.78
   0   2 -18   23.71    5.29
   0   2 -18   15.88    5.90
   0   2 -18   12.42    8.31
   0  -2  18   21.88    5.32
   0  -2  18   10.64    5.24
   0  -2  18   28.80    6.49
   0  -2  18   26.10    4.97
  -1   2 -18   70.25   17.70
  -1   2 -18   59.93   10.29
  -1   2 -18   56.65    8.80
  -1   2 -18   51.88    8.47
  -1   2 -18   67.61    9.34
   1  -2  18   64.30    9.24
   1  -2  18   44.90    7.92
   2   1 -18    0.68    3.79
   2   1 -18    3.56    6.78
  -2  -1  18   -0.75    2.98
  -2  -1  18    3.69    3.62
  -2  -1  18    0.35    2.71
  -2  -1  18    1.79    2.86
   1   1 -18   13.42    5.97
   1   1 -18   26.30    5.74
   1   1 -18   22.39   10.37
   1   1 -18   16.79    4.36
  -1  -1  18   16.08    5.46
  -1  -1  18   25.81    5.44
  -1  -1  18   21.69    5.11
  -1  -1  18   21.13    5.59
   0   1 -18   22.02    6.60
   0   1 -18   18.67    5.04
   0   1 -18   12.90    4.16
   0   1 -18   12.38    8.32
   0  -1  18   18.38    5.48
   0  -1  18   14.50    3.90
   0  -1  18   16.24    5.74
   0  -1  18   20.52    5.45
   1   0 -18   60.80   17.02
   1   0 -18   51.16    7.04
   1   0 -18   48.01    9.22
  -1   0  18   47.26    7.29
  -1   0  18   47.95    8.87
  -1   0  18   60.19    9.13
   0   0 -18   46.90    9.02
   0   0 -18   51.09    8.78
   0   0 -18   55.61    8.23
   0   0 -18   47.58    7.18
   0   0 -18   43.01   13.81
   0   0  18   42.41    8.55
   0   0  18   55.94    9.00
   0   0  18   49.67    7.83
   1  -1 -18   -1.03    3.10
   1  -1 -18    8.15    7.68
   1  -1 -18    4.24    2.82
  -1   1  18    5.04    4.40
  -1   1  18    2.57    3.08
  -1   1  18    2.79    2.98
   0  -1 -18    1.04    5.43
   0  -1 -18    0.57    2.60
   0  -1 -18    0.77    2.84
   0  -1 -18    3.33    3.70
   0  -1 -18   -0.62    3.49
   0   1  18   -2.50    3.00
   0   1  18   -0.97    2.59
   0   1  18   -2.60    2.36
   1  -2 -18   21.75    5.42
   1  -2 -18   18.40    6.33
   1  -2 -18   19.00   10.96
  -1   2  18   19.60    5.45
  -1   2  18   21.72    6.43
  -1   2  18   22.88    6.02
   0  -2 -18    4.71    3.53
  -1  -4  19    1.71    3.00
  -1  -4  19    6.36    3.94
  -1  -4  19    5.45    3.38
   1   3 -19   -1.66    6.14
   1   3 -19    1.06    3.85
   1   3 -19    2.33    3.24
  -1  -3  19    4.77    3.40
  -1  -3  19   -0.02    2.54
  -1  -3  19    3.35    3.01
  -1  -3  19    4.47    3.93
   0   3 -19   17.88    5.62
   0   3 -19   19.55    5.23
   0  -3  19   18.13    5.83
   0  -3  19   15.03    5.05
   1   2 -19    1.00    3.23
  -1  -2  19    0.43    3.26
  -1  -2  19    0.70    2.80
  -1  -2  19    0.30    3.83


 _exptl_absorpt_process_details 'SADABS 2014/4'
 _exptl_absorpt_correction_type   multiscan
 _exptl_absorpt_correction_T_max  0.9485
 _exptl_absorpt_correction_T_min  0.8530
 _exptl_special_details
)
 The following wavelength and cell were deduced by SADABS from the
 direction cosines etc. They are given here for emergency use only:
 CELL 0.71063    3.916   12.522   15.307  101.108   96.557   92.729
)

_computing_structure_solution     'SHELXT 2014/4 (Sheldrick, 2014)'
;
_shelx_hkl_checksum              43881
loop_
_space_group_symop_operation_xyz
'x, y, z'
'-x, -y, -z'
loop_
_atom_site_label
_atom_site_type_symbol
_atom_site_fract_x
_atom_site_fract_y
_atom_site_fract_z
_atom_site_U_iso_or_equiv
_atom_site_adp_type
_atom_site_occupancy
_atom_site_site_symmetry_order
_atom_site_calc_flag
_atom_site_refinement_flags_posn
_atom_site_refinement_flags_adp
C20 C 0.7466(4) 0.45112(11) 0.24368(9) 0.0171(3) Uani 1 1 d . .
H20 H 0.7915 0.3929 0.1975 0.021 Uiso 1 1 calc R U
N2 N 0.5872(3) 0.51288(11) 0.39073(9) 0.0241(3) Uani 1 1 d . .
N1 N 0.6665(4) -0.09095(11) 0.39874(10) 0.0345(4) Uani 1 1 d . .
C1 C 0.7078(4) 0.64169(12) 0.29913(10) 0.0221(3) Uani 1 1 d . .
H1 H 0.7287 0.7151 0.2912 0.027 Uiso 1 1 calc R U
C2 C 0.7728(4) 0.55657(13) 0.23266(11) 0.0262(4) Uani 1 1 d . .
H13 H 0.8373 0.5718 0.1780 0.031 Uiso 1 1 calc R U
C3 C 0.6541(4) 0.43114(12) 0.32268(9) 0.0168(3) Uani 1 1 d . .
C4 C 0.6430(4) 0.31721(12) 0.33730(9) 0.0167(3) Uani 1 1 d . .
C5 C 0.4939(4) 0.22806(12) 0.27086(9) 0.0165(3) Uani 1 1 d . .
C6 C 0.3194(4) 0.24351(12) 0.18429(10) 0.0197(3) Uani 1 1 d . .
H6 H 0.2192 0.3110 0.1831 0.024 Uiso 1 1 calc R U
C7 C 0.2910(4) 0.17132(12) 0.10820(10) 0.0203(3) Uani 1 1 d . .
H11 H 0.3819 0.1027 0.1107 0.024 Uiso 1 1 calc R U
C8 C 0.1333(4) 0.18611(12) 0.02010(9) 0.0184(3) Uani 1 1 d . .
C9 C 0.1648(4) 0.10700(14) -0.05528(10) 0.0251(4) Uani 1 1 d . .
H10 H 0.2757 0.0427 -0.0482 0.030 Uiso 1 1 calc R U
C10 C 0.0375(4) 0.12000(14) -0.14053(10) 0.0267(4) Uani 1 1 d . .
H7 H 0.0668 0.0658 -0.1913 0.032 Uiso 1 1 calc R U
C11 C -0.1306(4) 0.21116(15) -0.15163(11) 0.0281(4) Uani 1 1 d . .
H2 H -0.2198 0.2199 -0.2099 0.034 Uiso 1 1 calc R U
C12 C 0.6115(4) 0.61727(12) 0.37752(10) 0.0206(3) Uani 1 1 d . .
H3 H 0.5608 0.6749 0.4234 0.025 Uiso 1 1 calc R U
C13 C 0.7965(4) 0.29864(12) 0.41947(10) 0.0194(3) Uani 1 1 d . .
H4 H 0.8954 0.3591 0.4640 0.023 Uiso 1 1 calc R U
C14 C 0.8085(4) 0.19509(12) 0.43773(10) 0.0208(3) Uani 1 1 d . .
H5 H 0.9145 0.1840 0.4939 0.025 Uiso 1 1 calc R U
C15 C 0.6615(4) 0.10684(12) 0.37190(10) 0.0194(3) Uani 1 1 d . .
C16 C 0.6656(4) -0.00287(13) 0.38795(10) 0.0244(4) Uani 1 1 d . .
C17 C 0.5060(4) 0.12369(12) 0.28981(10) 0.0185(3) Uani 1 1 d . .
H12 H 0.4062 0.0628 0.2458 0.022 Uiso 1 1 calc R U
C18 C -0.1693(4) 0.29014(14) -0.07743(11) 0.0292(4) Uani 1 1 d . .
H9 H -0.2870 0.3531 -0.0849 0.035 Uiso 1 1 calc R U
C19 C -0.0379(4) 0.27830(13) 0.00777(10) 0.0230(3) Uani 1 1 d . .
H8 H -0.0647 0.3334 0.0582 0.028 Uiso 1 1 calc R U
loop_
_atom_site_aniso_label
_atom_site_aniso_U_11
_atom_site_aniso_U_22
_atom_site_aniso_U_33
_atom_site_aniso_U_23
_atom_site_aniso_U_13
_atom_site_aniso_U_12
C20 0.0194(7) 0.0163(7) 0.0145(7) 0.0001(5) 0.0045(5) -0.0029(5)
N2 0.0252(7) 0.0233(7) 0.0226(7) 0.0026(5) 0.0015(5) 0.0019(5)
N1 0.0513(10) 0.0231(7) 0.0299(8) 0.0097(6) -0.0005(7) 0.0067(7)
C1 0.0210(8) 0.0179(7) 0.0275(8) 0.0072(6) -0.0013(6) -0.0001(6)
C2 0.0254(8) 0.0314(9) 0.0219(8) 0.0055(6) 0.0054(6) -0.0059(7)
C3 0.0140(7) 0.0181(7) 0.0168(7) 0.0018(5) -0.0008(5) -0.0002(5)
C4 0.0147(7) 0.0193(7) 0.0170(7) 0.0051(5) 0.0031(5) 0.0012(5)
C5 0.0147(7) 0.0190(7) 0.0161(7) 0.0038(5) 0.0019(5) 0.0013(5)
C6 0.0205(7) 0.0175(7) 0.0206(7) 0.0062(6) -0.0028(6) -0.0005(6)
C7 0.0210(7) 0.0224(7) 0.0190(7) 0.0067(6) 0.0023(6) 0.0065(6)
C8 0.0149(7) 0.0235(8) 0.0171(7) 0.0062(6) 0.0014(5) -0.0024(6)
C9 0.0246(8) 0.0304(9) 0.0203(8) 0.0047(6) 0.0021(6) 0.0044(7)
C10 0.0222(8) 0.0385(9) 0.0175(7) 0.0034(6) 0.0017(6) -0.0068(7)
C11 0.0206(8) 0.0444(10) 0.0209(8) 0.0167(7) -0.0036(6) -0.0095(7)
C12 0.0208(7) 0.0169(7) 0.0217(7) -0.0010(6) 0.0004(6) 0.0022(6)
C13 0.0193(7) 0.0214(7) 0.0162(7) 0.0018(5) 0.0006(5) 0.0004(6)
C14 0.0212(8) 0.0258(8) 0.0161(7) 0.0062(6) 0.0004(6) 0.0040(6)
C15 0.0209(7) 0.0190(7) 0.0199(7) 0.0062(6) 0.0038(6) 0.0042(6)
C16 0.0295(8) 0.0249(8) 0.0188(7) 0.0048(6) 0.0002(6) 0.0047(6)
C17 0.0177(7) 0.0194(7) 0.0176(7) 0.0023(5) 0.0019(5) 0.0010(6)
C18 0.0273(9) 0.0318(9) 0.0310(9) 0.0174(7) -0.0033(7) -0.0009(7)
C19 0.0232(8) 0.0230(8) 0.0231(8) 0.0079(6) -0.0004(6) -0.0014(6)
loop_
_atom_type_symbol
_atom_type_description
_atom_type_scat_dispersion_real
_atom_type_scat_dispersion_imag
_atom_type_scat_source
C C 0.0033 0.0016 'International Tables Vol C Tables 4.2.6.8 and 6.1.1.4'
H H 0.0000 0.0000 'International Tables Vol C Tables 4.2.6.8 and 6.1.1.4'
N N 0.0061 0.0033 'International Tables Vol C Tables 4.2.6.8 and 6.1.1.4'
loop_
_geom_angle_atom_site_label_1
_geom_angle_atom_site_label_2
_geom_angle_atom_site_label_3
_geom_angle
C2 C20 C3 118.36(13)
C2 C20 H20 120.8
C3 C20 H20 120.8
C12 N2 C3 117.95(13)
C2 C1 C12 118.13(14)
C2 C1 H1 120.9
C12 C1 H1 120.9
C20 C2 C1 121.37(14)
C20 C2 H13 119.3
C1 C2 H13 119.3
C20 C3 N2 122.45(13)
C20 C3 C4 118.78(12)
N2 C3 C4 118.69(13)
C13 C4 C5 119.52(13)
C13 C4 C3 117.93(12)
C5 C4 C3 122.52(12)
C17 C5 C4 118.32(13)
C17 C5 C6 119.99(13)
C4 C5 C6 121.66(13)
C7 C6 C5 125.36(14)
C7 C6 H6 117.3
C5 C6 H6 117.3
C6 C7 C8 126.68(14)
C6 C7 H11 116.7
C8 C7 H11 116.7
C9 C8 C19 117.97(14)
C9 C8 C7 119.04(13)
C19 C8 C7 122.95(14)
C10 C9 C8 121.30(15)
C10 C9 H10 119.4
C8 C9 H10 119.4
C11 C10 C9 120.06(15)
C11 C10 H7 120.0
C9 C10 H7 120.0
C10 C11 C18 119.59(14)
C10 C11 H2 120.2
C18 C11 H2 120.2
N2 C12 C1 121.72(13)
N2 C12 H3 119.1
C1 C12 H3 119.1
C14 C13 C4 121.88(13)
C14 C13 H4 119.1
C4 C13 H4 119.1
C13 C14 C15 118.59(13)
C13 C14 H5 120.7
C15 C14 H5 120.7
C17 C15 C14 120.39(13)
C17 C15 C16 118.92(13)
C14 C15 C16 120.69(13)
N1 C16 C15 178.49(16)
C15 C17 C5 121.29(13)
C15 C17 H12 119.4
C5 C17 H12 119.4
C11 C18 C19 120.55(15)
C11 C18 H9 119.7
C19 C18 H9 119.7
C18 C19 C8 120.51(15)
C18 C19 H8 119.7
C8 C19 H8 119.7
loop_
_geom_bond_atom_site_label_1
_geom_bond_atom_site_label_2
_geom_bond_distance
C20 C2 1.363(2)
C20 C3 1.364(2)
C20 H20 0.9500
N2 C12 1.3602(19)
N2 C3 1.3696(19)
N1 C16 1.146(2)
C1 C2 1.379(2)
C1 C12 1.381(2)
C1 H1 0.9500
C2 H13 0.9500
C3 C4 1.484(2)
C4 C13 1.3977(19)
C4 C5 1.411(2)
C5 C17 1.393(2)
C5 C6 1.4726(19)
C6 C7 1.320(2)
C6 H6 0.9500
C7 C8 1.4679(19)
C7 H11 0.9500
C8 C9 1.389(2)
C8 C19 1.394(2)
C9 C10 1.386(2)
C9 H10 0.9500
C10 C11 1.372(3)
C10 H7 0.9500
C11 C18 1.382(3)
C11 H2 0.9500
C12 H3 0.9500
C13 C14 1.379(2)
C13 H4 0.9500
C14 C15 1.396(2)
C14 H5 0.9500
C15 C17 1.392(2)
C15 C16 1.441(2)
C17 H12 0.9500
C18 C19 1.385(2)
C18 H9 0.9500
C19 H8 0.9500
