#------------------------------------------------------------------------------
#$Date: 2019-11-24 13:56:51 +0200 (Sun, 24 Nov 2019) $
#$Revision: 238072 $
#$URL: file:///home/coder/svn-repositories/cod/cif/1/55/47/1554718.cif $
#------------------------------------------------------------------------------
#
# This file is available in the Crystallography Open Database (COD),
# http://www.crystallography.net/
#
# All data on this site have been placed in the public domain by the
# contributors.
#
data_1554718
loop_
_publ_author_name
'Bar\/l\'og, Maciej'
'Kulai, Ihor'
'Ji, Xiaozhou'
'Bhuvanesh, Nattamai'
'Dey, Somnath'
'Sliwinski, Eric Pierre'
'Bazzi, Hassan S.'
'Fang, Lei'
'Al-Hashimi, Mohammed'
_publ_section_title
;
 Synthesis, characterization and crystal structures of novel fluorinated
 di(thiazolyl)benzene derivatives
;
_journal_issue                   6
_journal_name_full               'Organic Chemistry Frontiers'
_journal_page_first              780
_journal_paper_doi               10.1039/C9QO00044E
_journal_volume                  6
_journal_year                    2019
_chemical_formula_moiety         'C12 H5 F N2 S2'
_chemical_formula_sum            'C12 H5 F N2 S2'
_chemical_formula_weight         260.30
_space_group_crystal_system      monoclinic
_space_group_IT_number           14
_space_group_name_Hall           '-P 2ybc'
_space_group_name_H-M_alt        'P 1 21/c 1'
_atom_sites_solution_hydrogens   geom
_atom_sites_solution_primary     dual
_audit_creation_date             2018-04-18
_audit_creation_method
;
Olex2 1.2-beta
(compiled 2018.04.03 svn.r3497 for OlexSys, GUI svn.r5486)
;
_audit_update_record
;
2018-07-19 deposited with the CCDC.
2019-01-30 downloaded from the CCDC.
;
_cell_angle_alpha                90
_cell_angle_beta                 94.338(4)
_cell_angle_gamma                90
_cell_formula_units_Z            2
_cell_length_a                   3.8093(3)
_cell_length_b                   6.6644(4)
_cell_length_c                   21.5126(15)
_cell_measurement_reflns_used    5991
_cell_measurement_temperature    100.0
_cell_measurement_theta_max      70.103
_cell_measurement_theta_min      4.122
_cell_volume                     544.57(7)
_computing_cell_refinement       'SAINT V8.38A (?, 2016)'
_computing_data_reduction        'SAINT V8.38A (?, 2016)'
_computing_molecular_graphics    'Olex2 (Dolomanov et al., 2009)'
_computing_publication_material  'Olex2 (Dolomanov et al., 2009)'
_computing_structure_refinement  'ShelXL (Sheldrick, 2015)'
_computing_structure_solution    'ShelXT (Sheldrick, 2015)'
_diffrn_ambient_temperature      100.0
_diffrn_measured_fraction_theta_full 0.994
_diffrn_measured_fraction_theta_max 0.992
_diffrn_measurement_device_type  'Bruker APEX-II CCD'
_diffrn_measurement_method       '\f and \w scans'
_diffrn_radiation_type           CuK\a
_diffrn_radiation_wavelength     1.54178
_diffrn_reflns_av_R_equivalents  0.0605
_diffrn_reflns_av_unetI/netI     0.0441
_diffrn_reflns_Laue_measured_fraction_full 0.994
_diffrn_reflns_Laue_measured_fraction_max 0.992
_diffrn_reflns_limit_h_max       4
_diffrn_reflns_limit_h_min       -4
_diffrn_reflns_limit_k_max       8
_diffrn_reflns_limit_k_min       -7
_diffrn_reflns_limit_l_max       26
_diffrn_reflns_limit_l_min       -26
_diffrn_reflns_number            8852
_diffrn_reflns_point_group_measured_fraction_full 0.994
_diffrn_reflns_point_group_measured_fraction_max 0.992
_diffrn_reflns_theta_full        67.679
_diffrn_reflns_theta_max         70.212
_diffrn_reflns_theta_min         4.122
_diffrn_standards_number         0
_exptl_absorpt_coefficient_mu    4.358
_exptl_absorpt_correction_T_max  0.5856
_exptl_absorpt_correction_T_min  0.4198
_exptl_absorpt_correction_type   multi-scan
_exptl_absorpt_process_details
'SADABS-2016/2 (Bruker,2016/2) was used for absorption correction. wR2(int) was 0.1319 before and 0.0823 after correction. The Ratio of minimum to maximum transmission is 0.7169. The \l/2 correction factor is Not present.'
_exptl_crystal_colour            colourless
_exptl_crystal_colour_primary    colourless
_exptl_crystal_density_diffrn    1.587
_exptl_crystal_description       block
_exptl_crystal_F_000             264
_exptl_crystal_size_max          0.049
_exptl_crystal_size_mid          0.042
_exptl_crystal_size_min          0.035
_refine_diff_density_max         0.429
_refine_diff_density_min         -0.567
_refine_diff_density_rms         0.107
_refine_ls_extinction_method     none
_refine_ls_goodness_of_fit_ref   1.314
_refine_ls_hydrogen_treatment    constr
_refine_ls_matrix_type           full
_refine_ls_number_parameters     86
_refine_ls_number_reflns         1034
_refine_ls_number_restraints     1
_refine_ls_restrained_S_all      1.313
_refine_ls_R_factor_all          0.0979
_refine_ls_R_factor_gt           0.0846
_refine_ls_shift/su_max          0.000
_refine_ls_shift/su_mean         0.000
_refine_ls_structure_factor_coef Fsqd
_refine_ls_weighting_details
'w=1/[\s^2^(Fo^2^)+3.4260P] where P=(Fo^2^+2Fc^2^)/3'
_refine_ls_weighting_scheme      calc
_refine_ls_wR_factor_gt          0.1564
_refine_ls_wR_factor_ref         0.1609
_reflns_Friedel_coverage         0.000
_reflns_number_gt                885
_reflns_number_total             1034
_reflns_threshold_expression     'I > 2\s(I)'
_cod_data_source_file            c9qo00044e2.cif
_cod_data_source_block           f1s
_cod_database_code               1554718
_shelx_shelxl_version_number     2018/3
_shelx_space_group_comment
;
The symmetry employed for this shelxl refinement is uniquely defined
by the following loop, which should always be used as a source of
symmetry information in preference to the above space-group names.
They are only intended as comments.
;
_shelx_estimated_absorpt_t_max   0.862
_shelx_estimated_absorpt_t_min   0.815
_olex2_refinement_description
;
1. Fixed Uiso
 At 1.2 times of:
  All C(H) groups
2. Restrained distances
 F1A-C2 \\sim F1-C1
 with sigma of 0.005
3. Uiso/Uaniso restraints and constraints
Uanis(F1) = Uanis(F1A)
4. Others
 Sof(F1A)=Sof(H1)=0.5*(1-FVAR(2))
 Sof(F1)=Sof(H2)=0.5*FVAR(2)
5.a Aromatic/amide H refined with riding coordinates:
 C1(H1), C2(H2), C5(H5), C6(H6)
;
_shelx_res_file
;
TITL f1s_a.res in P2(1)/c
    f1s.res
    created by SHELXL-2018/3 at 11:22:35 on 18-Apr-2018
REM Old TITL F1S in P2(1)/c
REM SHELXT solution in P2(1)/c: R1 0.148, Rweak 0.027, Alpha 0.065
REM <I/s> 1.254 for 95 systematic absences, Orientation as input
REM Formula found by SHELXT: C6 N2 S
CELL 1.54178 3.8093 6.6644 21.5126 90 94.338 90
ZERR 2 0.0003 0.0004 0.0015 0 0.004 0
LATT 1
SYMM -X,0.5+Y,0.5-Z
SFAC C H F N S
UNIT 24 10 2 4 4
SADI 0.005 F1A C2 F1 C1
EADP F1 F1A

L.S. 10
PLAN  20
SIZE 0.035 0.042 0.049
TEMP -173.15
BOND $H
more -1
wpdb -1
htab
conf
fmap 2 53
acta
REM <olex2.extras>
REM <HklSrc "%.\\F1S.hkl">
REM </olex2.extras>

WGHT    0.000000    3.426000
FVAR       0.89572   0.55026
S1    5    0.829832    0.439746    0.385760    11.00000    0.02500    0.01893 =
         0.02848    0.00192    0.00520   -0.00216
PART 1
F1    3    0.697746    0.167865    0.609798    20.50000    0.03459    0.01383 =
         0.01863   -0.00132    0.00135   -0.01092
PART 0
PART 2
F1A   3    0.765831    0.369693    0.506097   -20.50000    0.03459    0.01383 =
         0.01863   -0.00132    0.00135   -0.01092
PART 0
N1    4    0.738433    0.256853    0.281133    11.00000    0.02782    0.02976 =
         0.02652    0.00363    0.00755    0.00527
C1    1    0.578937    0.090802    0.556949    11.00000    0.02377    0.02320 =
         0.01999   -0.00180    0.00106    0.00359
PART 2
AFIX  43
H1    2    0.633055    0.156003    0.595764   -20.50000   -1.20000
AFIX   0
PART 0
C2    1    0.655259    0.185719    0.502302    11.00000    0.01713    0.02103 =
         0.02779   -0.00285    0.00024    0.00441
PART 1
AFIX  43
H2    2    0.764911    0.313795    0.504790    20.50000   -1.20000
AFIX   0
PART 0
C3    1    0.577289    0.100428    0.444058    11.00000    0.01557    0.01793 =
         0.02419    0.00085    0.00134    0.00434
C4    1    0.662675    0.197579    0.386011    11.00000    0.00954    0.02076 =
         0.02461    0.00043    0.00284    0.00226
C5    1    0.636627    0.129675    0.326667    11.00000    0.02354    0.02364 =
         0.02885    0.00049    0.00518   -0.00402
AFIX  43
H5    2    0.551010   -0.001269    0.316799    11.00000   -1.20000
AFIX   0
C6    1    0.847818    0.426234    0.306568    11.00000    0.01962    0.02946 =
         0.03298    0.00504    0.00864    0.00205
AFIX  43
H6    2    0.931226    0.533977    0.282802    11.00000   -1.20000
AFIX   0
HKLF 4




REM  f1s_a.res in P2(1)/c
REM wR2 = 0.1609, GooF = S = 1.314, Restrained GooF = 1.313 for all data
REM R1 = 0.0846 for 885 Fo > 4sig(Fo) and 0.0979 for all 1034 data
REM 86 parameters refined using 1 restraints

END

WGHT      0.0000      3.4259

REM Instructions for potential hydrogen bonds
EQIV $1 -x+1, -y, -z+1
HTAB C5 F1_$1
EQIV $2 -x+2, y+1/2, -z+1/2
HTAB C6 N1_$2

REM Highest difference peak  0.429,  deepest hole -0.567,  1-sigma level  0.107
Q1    1   0.6208  0.4084  0.5003  11.00000  0.05    0.43
Q2    1   0.8257  0.4556  0.3415  11.00000  0.05    0.40
Q3    1   0.6864  0.2264  0.2396  11.00000  0.05    0.39
Q4    1   0.7668  0.5083  0.2600  11.00000  0.05    0.39
Q5    1   0.5265  0.3312  0.5004  11.00000  0.05    0.37
Q6    1   0.6394  0.3655  0.2984  11.00000  0.05    0.35
Q7    1   0.9677 -0.0254  0.6167  11.00000  0.05    0.35
Q8    1   0.8958  0.4695  0.5000  11.00000  0.05    0.33
Q9    1   0.8210  0.3123  0.2206  11.00000  0.05    0.32
Q10   1   0.8171  0.3256  0.4804  11.00000  0.05    0.32
Q11   1   0.6839  0.0353  0.4450  11.00000  0.05    0.31
Q12   1   1.0131  0.2726  0.5966  11.00000  0.05    0.31
Q13   1   0.7581  0.7568  0.3085  11.00000  0.05    0.30
Q14   1   0.7232  0.6283  0.4568  11.00000  0.05    0.30
Q15   1   0.7829  0.2021  0.3141  11.00000  0.05    0.30
Q16   1   0.7598  0.3851  0.6178  11.00000  0.05    0.30
Q17   1   0.6108  0.1613  0.4173  11.00000  0.05    0.29
Q18   1   0.9877  0.5767  0.3996  11.00000  0.05    0.29
Q19   1   0.2660  0.2714  0.5629  11.00000  0.05    0.29
Q20   1   0.4024  0.1883  0.2376  11.00000  0.05    0.29
;
_shelx_res_checksum              5785
_shelx_hkl_file
;
  -1   0   0  842.52   46.10
   1   0   0  979.60   44.60
   1   0   0  928.91   44.80
   1   0   0 1004.60   44.60
   1   0   0  968.00   44.50
   1   0   0  942.11   46.00
  -1   0   0  921.21   44.60
  -1   0   0  879.91   45.60
  -1   0   0  959.90   44.70
  -1   0   0  845.52   44.90
  -1   0   0  868.31   44.20
  -1   0   0  899.91   44.20
   2   0   0 1347.97   66.29
   2   0   0 1278.57   74.59
   2   0   0 1386.26   72.59
  -2   0   0 1311.17   62.99
  -2   0   0 1200.98   68.59
   3   0   0   91.09   27.10
  -3   0   0   68.49    9.70
   3   0   0   76.79   25.40
   3   0   0   83.59   20.80
   4   0   0  242.48   21.40
   4   0   0  195.28   26.80
   4   0   0  151.28   37.50
   0  -1   0    1.30    1.10
   0  -1   0    3.10    1.10
   0  -1   0    4.90    2.00
   0  -1   0    8.10    2.80
   0  -1   0    2.20    1.80
   0  -1   0    3.30    1.40
   0  -1   0    5.50    3.10
   0  -1   0    4.30    2.00
   0   1   0    4.30    1.70
   0   1   0    6.40    2.90
   0   1   0    4.00    2.00
   0   1   0    8.00    2.60
   0   1   0    6.70    3.00
   0   1   0    2.10    1.00
   0   1   0    7.40    3.30
   0   1   0    6.30    3.10
   0   1   0    5.30    2.80
   0   1   0    2.90    1.50
  -1  -1   0 7858.11  375.66
  -1  -1   0 7936.41  375.16
  -1  -1   0 8470.95  375.36
  -1  -1   0 8295.17  375.26
   1  -1   0 8119.89  375.16
   1  -1   0 7754.82  375.06
   1  -1   0 8223.88  375.36
  -1  -1   0 7723.43  378.26
   1  -1   0 8434.46  376.06
   1  -1   0 8214.98  376.86
   1  -1   0 8508.55  376.56
  -1  -1   0 8335.27  375.16
   1  -1   0 8174.58  375.26
   1  -1   0 8442.96  377.96
  -1  -1   0 8010.40  376.96
  -1  -1   0 8085.69  375.56
  -1  -1   0 8505.95  375.26
  -1  -1   0 8402.56  377.36
  -1  -1   0 8626.64  377.16
   1   1   0 8521.15  376.46
   1   1   0 8353.96  376.66
   1   1   0 8793.32  377.36
   1   1   0 8183.88  375.16
   1   1   0 8266.77  375.36
  -1   1   0 8184.28  375.26
  -1   1   0 8306.27  375.16
  -1   1   0 8064.99  375.36
  -1   1   0 8312.37  375.76
  -1   1   0 7455.75  376.36
  -1   1   0 7463.25  375.26
  -1   1   0 7498.75  375.96
  -1   1   0 7927.01  375.16
  -1   1   0 8197.28  376.36
   1   1   0 7964.40  378.06
  -1   1   0 8011.20  376.66
   1   1   0 8196.38  375.56
   1   1   0 8147.78  375.26
  -1   1   0 7981.40  376.56
   2  -1   0  456.55   42.40
   2  -1   0  455.65   30.20
  -2  -1   0  391.96   22.30
   2  -1   0  522.05   37.70
  -2  -1   0  466.15   31.90
  -2   1   0  507.95   29.10
   2   1   0  514.95   31.40
  -2   1   0  466.45   23.50
  -2   1   0  378.06   36.70
   2   1   0  546.45   32.50
   2   1   0  444.96   34.40
   3  -1   0   72.89   23.90
  -3  -1   0   39.90   13.30
   3   1   0   97.49   32.70
   4  -1   0  104.29   38.70
   4   1   0   83.89   16.50
   4   1   0   49.90   36.20
   4   1   0   76.19   19.90
   0  -2   0   76.99   10.70
   0  -2   0   84.89    7.10
   0  -2   0   85.49    7.00
   0  -2   0   78.49    7.50
   0  -2   0   85.19    8.70
   0  -2   0   77.19    6.40
   0  -2   0   82.19    8.20
   0  -2   0   87.69    8.30
   0  -2   0   81.29    6.90
   0  -2   0   76.99    7.10
   0  -2   0   82.99    7.40
   0   2   0   83.19    9.40
   0   2   0   90.29    9.50
   0   2   0   83.49    8.20
   0   2   0   92.79    9.50
   0   2   0   91.29    7.90
   0   2   0   79.49    7.90
   0   2   0   77.09    7.80
   0   2   0   77.19    7.60
   0   2   0   77.89    7.80
   0   2   0   82.49   10.10
  -1  -2   0  505.65   26.20
  -1  -2   0  509.85   25.00
   1  -2   0  511.95   26.00
  -1  -2   0  518.95   25.80
   1  -2   0  521.25   26.40
  -1  -2   0  512.15   25.70
   1  -2   0  504.75   28.50
   1  -2   0  495.45   27.20
   1  -2   0  491.75   28.50
   1  -2   0  549.05   31.90
  -1  -2   0  536.95   27.40
  -1  -2   0  508.95   26.00
  -1  -2   0  498.65   23.90
   1  -2   0  484.25   28.00
  -1  -2   0  507.75   25.50
   1  -2   0  498.75   25.80
   1   2   0  501.55   25.60
  -1   2   0  525.95   26.10
  -1   2   0  524.05   27.80
  -1   2   0  495.75   26.10
  -1   2   0  507.15   26.50
   1   2   0  485.45   26.10
   1   2   0  538.15   28.20
   1   2   0  521.65   28.60
  -1   2   0  487.35   25.20
  -1   2   0  514.35   26.40
   1   2   0  525.75   27.30
   1   2   0  469.05   25.70
   1   2   0  485.25   26.00
  -1   2   0  495.65   24.20
  -1   2   0  478.65   26.40
  -2  -2   0   98.09   13.40
  -2  -2   0  121.79   22.40
  -2  -2   0  113.99    6.50
   2  -2   0   76.19   35.20
  -2  -2   0   93.19   14.00
  -2  -2   0  104.99    7.30
  -2  -2   0   94.69    9.30
   2   2   0  103.09   34.10
   2   2   0   89.59   27.70
   2   2   0  114.69   23.30
  -2   2   0   86.09    8.80
  -2   2   0   83.89   23.40
  -2   2   0   78.79    6.80
  -2   2   0   91.99   16.60
  -2   2   0   89.39   10.80
   3  -2   0  663.93   48.90
  -3  -2   0  705.63   44.60
  -3  -2   0  814.42   36.70
   3  -2   0  704.53   44.40
  -3  -2   0  772.72   40.50
  -3   2   0  737.73   41.90
   3   2   0  762.12   40.40
  -3   2   0  862.51   37.20
   3   2   0  821.72   44.20
   4  -2   0   46.70   32.80
   4  -2   0   65.89   19.70
   4  -2   0   58.49   23.80
   0  -3   0   -0.80    4.70
   0  -3   0    5.80    4.30
   0  -3   0    4.00    4.90
   0  -3   0   -7.00    7.00
   0  -3   0   11.70    7.00
   0   3   0    2.50    6.20
   0   3   0    2.90    4.60
   0   3   0   -5.70    8.70
   0   3   0   23.50   12.10
   0   3   0    8.70    5.50
   0   3   0   16.00    6.10
  -1  -3   0  972.60   45.30
  -1  -3   0  956.40   44.50
  -1  -3   0  891.11   45.50
  -1  -3   0  882.61   42.60
   1  -3   0  868.51   46.30
   1  -3   0  883.71   48.10
  -1  -3   0  988.40   47.80
   1  -3   0  852.51   46.20
   1  -3   0  906.11   56.59
  -1  -3   0  891.61   45.80
   1  -3   0  910.41   49.10
  -1  -3   0  947.31   45.80
  -1  -3   0  921.91   42.70
   1   3   0  867.71   46.80
  -1   3   0  913.31   44.70
  -1   3   0  931.81   46.70
  -1   3   0  918.41   43.20
   1   3   0  889.71   46.30
  -1   3   0  914.91   46.80
  -1   3   0  927.61   43.10
   1   3   0  906.91   49.50
   1   3   0  896.71   49.10
  -1   3   0  909.01   46.90
  -1   3   0  872.11   48.10
  -2  -3   0  274.47   14.30
   2  -3   0  211.98   30.50
   2  -3   0  283.07   33.90
  -2  -3   0  273.17   14.10
  -2  -3   0  294.27   18.20
  -2  -3   0  289.47   20.50
  -2  -3   0  277.37   21.30
   2  -3   0  267.07   26.20
  -2   3   0  284.97   15.00
   2   3   0  306.17   57.29
  -2   3   0  289.37   20.00
  -2   3   0  272.87   16.80
   2   3   0  245.08   28.50
   2   3   0  249.08   19.50
  -3  -3   0  135.49   22.30
   3  -3   0  154.08   20.50
   3  -3   0  167.08   25.70
  -3  -3   0  167.78   10.90
   3  -3   0  196.58   36.80
  -3  -3   0  125.89   27.40
  -3  -3   0  181.18   12.00
   3   3   0  156.08   17.30
  -3   3   0  175.88   13.50
  -3   3   0  174.18   12.50
   3   3   0  156.98   20.10
  -3   3   0  169.08   26.40
   4  -3   0  492.65   29.80
   4  -3   0  397.46   30.30
   4   3   0  419.66   23.60
   0  -4   0  227.28   19.10
   0  -4   0  223.08   18.80
   0  -4   0  268.57   25.60
   0  -4   0  227.68   12.80
   0  -4   0  205.18   22.90
   0  -4   0  210.88   26.80
   0  -4   0  219.58   22.90
   0  -4   0  251.67   23.30
   0   4   0  145.59   27.00
   0   4   0  197.98   15.00
   0   4   0  258.57   26.60
   0   4   0  186.28   26.80
   0   4   0  199.08   15.20
   0   4   0  210.08   23.60
   0   4   0  206.68   21.00
  -1  -4   0  186.68   20.40
   1  -4   0  279.47   65.69
  -1  -4   0  143.89   14.90
  -1  -4   0  169.18   11.00
   1  -4   0  134.49   22.30
  -1  -4   0  196.38   10.50
  -1  -4   0  191.78   17.40
   1   4   0  154.98   21.00
  -1   4   0  170.68   19.10
  -1   4   0  188.28   11.30
   1   4   0  184.48   33.00
  -2  -4   0   30.60   16.50
  -2  -4   0   76.49   19.00
  -2  -4   0   47.30    6.00
  -2  -4   0   65.69    6.80
   2  -4   0   34.00   16.90
   2   4   0   90.79   20.90
  -2   4   0   39.60    8.40
  -2   4   0   53.99    9.10
  -2   4   0   91.79   20.70
   2   4   0   71.49   22.90
   2   4   0  107.49   50.79
  -3  -4   0   19.30    8.70
  -3  -4   0   24.20    7.10
   3  -4   0   67.09   38.10
   3   4   0   60.99   19.50
  -3   4   0   33.90    8.30
  -3   4   0   46.60   11.80
   4  -4   0   98.29   19.40
   4  -4   0   57.59   13.20
   4   4   0   76.49    9.30
   4   4   0   70.19   16.10
   0  -5   0  -13.40   12.50
   0  -5   0    2.50   13.10
   1  -5   0  290.07   38.90
  -1  -5   0  310.07   19.10
  -1  -5   0  332.37   29.80
  -1  -5   0  334.37   32.30
  -1  -5   0  322.57   17.30
  -1   5   0  320.97   20.40
  -1   5   0  348.77   18.60
  -1   5   0  352.46   37.40
  -2  -5   0  475.85   26.90
   2  -5   0  532.25   34.10
  -2  -5   0  605.74   42.30
  -2  -5   0  526.15   37.40
  -2  -5   0  466.05   29.60
  -2  -5   0  529.05   26.50
  -2   5   0  523.55   47.00
  -2   5   0  556.94   27.60
   2   5   0  511.55   54.49
  -2   5   0  539.65   28.10
   2   5   0  547.85   32.80
  -3  -5   0   16.70    6.80
   3  -5   0   -5.00   11.40
  -3  -5   0    6.80    7.80
  -3  -5   0   34.70    8.90
  -3   5   0    9.20    4.90
  -3   5   0   17.30   10.10
   3   5   0    1.20    8.60
   0  -6   0  431.76   34.70
   0  -6   0  408.26   49.40
   0  -6   0  394.96   28.90
   0   6   0  409.86   31.50
   1  -6   0   23.80   13.10
  -1  -6   0   70.99   40.60
  -1  -6   0   38.40   12.70
  -1  -6   0   90.39   45.80
   1  -6   0  125.99   62.79
  -1  -6   0   35.20   15.10
   1   6   0   59.99   16.00
  -1   6   0   58.89   17.10
  -1   6   0   39.20   13.50
  -2  -6   0   42.30   12.70
   2  -6   0   11.50   17.50
   2  -6   0   17.00   12.50
  -2  -6   0   11.70    6.90
   2  -6   0   36.10   16.80
   2   6   0   19.50   19.20
   2   6   0   28.70   10.70
  -2   6   0   32.00   11.20
  -2   6   0   15.70    8.90
  -2   6   0   44.30   17.60
  -3  -6   0  209.38   15.60
   3  -6   0  212.78   17.40
   3   6   0  223.38   13.40
  -3   6   0  187.38   17.00
   0  -7   0   21.20   14.30
   0  -7   0   10.20   13.40
   0   7   0    5.40    9.30
  -1  -7   0   54.19   16.20
   1   7   0   71.09   17.30
  -1   7   0   39.50   19.60
   2  -7   0   83.59   17.00
  -2   7   0   86.69   17.90
   2   7   0  104.79   34.80
   0   8   0  205.08   19.90
   4   0  -1   52.29   12.50
   4   0  -1   88.99   21.60
   3   0  -1   19.20   13.40
   3   0  -1    3.80   10.50
   3   0  -1   48.20   26.90
  -2   0   1    4.30    5.90
   2   0  -1   17.00   13.60
  -1   0   1   -2.10    4.90
  -1   0   1   -0.40    5.70
  -1   0   1   -2.20    2.70
  -1   0   1   -0.30    4.40
  -1   0   1    1.70    4.50
   1   0  -1   -4.00    5.80
   1   0  -1    2.10    2.90
   1   0  -1    0.80    2.40
   1   0  -1   -1.80    4.40
   1   0  -1    1.10    3.20
   1   0  -1    2.90    3.90
  -1   0   1    1.60    3.10
  -1   0   1   -0.60    3.90
  -1   0   1    2.10    2.70
  -1   0  -1    1.00    7.00
  -1   0  -1   -0.60    2.50
  -1   0  -1    2.00    1.60
   1   0   1    3.40    3.80
   1   0   1    0.00    1.20
  -1   0  -1    1.90    3.20
   1   0   1    1.00    3.30
   1   0   1    1.10    4.50
  -1   0  -1    1.70    2.10
  -1   0  -1    4.80    5.10
   1   0   1    4.20    2.20
   1   0   1    1.80    2.30
  -1   0  -1    0.50    3.90
  -1   0  -1   -2.60    2.20
   1   0   1    0.00    1.80
  -1   0  -1    7.30    5.40
  -1   0  -1    1.00    2.40
   1   0   1    3.30    3.70
  -1   0  -1    2.20    1.30
  -1   0  -1   -0.20    1.70
  -1   0  -1   -2.80    3.70
   2   0   1   -3.70   10.20
   2   0   1    4.90   11.20
   2   0   1    5.30   15.20
  -2   0  -1   -2.30   13.70
  -2   0  -1    2.80    3.60
   3   0   1   53.29   25.50
   4   0   1   19.20    9.00
   4   0   1   26.80   16.80
   4   0   1   50.79   23.60
   4  -1  -1   83.79   40.00
   4  -1  -1   99.79   19.50
   4   1  -1   97.99   18.10
   4   1  -1  115.49   20.30
  -3  -1   1  517.95   27.30
  -3  -1   1  476.05   35.20
   3  -1  -1  542.35   37.70
   3   1  -1  453.95   44.40
   2  -1  -1  159.88   28.40
   2  -1  -1  168.28   32.60
  -2  -1   1  122.79   19.90
  -2  -1   1  129.79    9.00
  -2   1   1  114.39   34.50
  -2   1   1  137.29   18.00
   2   1  -1  133.09   20.50
   2   1  -1  150.48   19.70
   2   1  -1   88.89   25.80
  -1  -1   1 6134.79  274.47
   1  -1  -1 6233.08  274.57
  -1  -1   1 6447.25  274.67
  -1  -1   1 5905.01  277.87
   1  -1  -1 6119.29  277.07
  -1  -1   1 5823.72  276.47
  -1  -1   1 6009.70  274.57
   1  -1  -1 6015.00  276.27
   1  -1  -1 6104.89  274.47
   1  -1  -1 5869.11  274.47
   1  -1  -1 6197.48  275.97
  -1  -1   1 6064.69  276.87
  -1  -1   1 5375.96  275.07
  -1  -1   1 6099.39  276.07
  -1  -1   1 5044.40  274.97
   1  -1  -1 6011.50  275.17
  -1  -1   1 5736.83  274.67
  -1  -1   1 5805.72  275.97
   1  -1  -1 5305.27  275.87
   1  -1  -1 5684.63  274.47
  -1  -1   1 6078.29  274.47
  -1   1   1 5504.55  276.77
   1   1  -1 6272.47  276.17
   1   1  -1 5929.91  277.17
  -1   1   1 5820.82  275.37
  -1   1   1 6243.18  275.17
  -1   1   1 6150.78  275.87
  -1   1   1 6099.99  276.47
   1   1  -1 6125.19  274.87
  -1   1   1 5730.53  275.77
  -1   1   1 6245.48  274.57
   1   1  -1 5984.30  274.57
   1   1  -1 6100.39  274.57
  -1   1   1 5774.62  274.27
   1   1  -1 5927.61  274.57
  -1   1   1 5834.32  274.57
  -1   1   1 6112.39  274.47
   1   1  -1 6406.36  276.17
  -1   1   1 5636.24  275.77
  -1   1   1 6139.69  274.47
   1   1  -1 6150.88  276.67
  -1   1   1 6236.48  274.57
   0  -1   1   20.60    3.20
   0  -1  -1   13.80    2.80
   0  -1  -1   13.80    3.10
   0  -1  -1   15.80    2.70
   0  -1  -1   18.20    3.40
   0  -1  -1   13.00    2.90
   0  -1   1   13.50    2.90
   0  -1   1   14.40    3.00
   0  -1   1   15.90    3.00
   0  -1  -1   18.90    3.70
   0  -1   1   17.60    2.90
   0  -1   1   14.10    3.60
   0  -1   1   14.80    3.20
   0  -1   1   19.50    3.60
   0  -1  -1   11.70    5.20
   0  -1  -1   13.90    2.40
   0  -1  -1   18.60    2.40
   0   1   1   11.60    3.20
   0   1  -1   16.90    3.60
   0   1   1   10.30    3.50
   0   1  -1   16.60    3.40
   0   1   1   17.30    3.60
   0   1   1   14.70    2.30
   0   1   1   19.90    3.60
   0   1  -1   15.80    2.50
   0   1  -1   15.80    3.50
   0   1  -1   16.60    3.50
   0   1  -1   14.60    3.30
   0   1  -1   13.90    3.00
   0   1  -1   18.20    3.00
   0   1   1   17.80    3.00
   0   1  -1   17.40    3.30
   0   1   1   10.40    3.00
   0   1  -1   15.60    3.10
   0   1   1   12.50    3.00
   1  -1   1  467.95   23.60
   1  -1   1  502.05   27.20
  -1  -1  -1  447.86   22.30
  -1  -1  -1  473.95   22.50
  -1  -1  -1  470.55   22.50
   1  -1   1  450.75   22.30
  -1  -1  -1  451.55   23.30
   1  -1   1  452.15   24.90
   1  -1   1  458.15   22.40
  -1  -1  -1  438.26   26.30
   1  -1   1  450.75   22.90
  -1  -1  -1  473.45   22.40
  -1  -1  -1  425.56   28.50
   1  -1   1  447.16   25.10
  -1  -1  -1  486.75   25.30
  -1  -1  -1  461.55   22.50
   1  -1   1  466.45   23.10
  -1   1  -1  442.36   22.50
   1   1   1  438.26   23.30
  -1   1  -1  436.56   23.20
   1   1   1  490.75   24.00
  -1   1  -1  478.65   22.60
   1   1   1  439.56   28.00
  -1   1  -1  487.75   22.70
   1   1   1  479.35   23.60
  -1   1  -1  456.35   22.20
   1   1   1  479.05   22.50
   1   1   1  471.35   22.50
  -1   1  -1  437.66   24.80
  -1   1  -1  475.45   22.70
   1   1   1  471.05   24.30
  -1   1  -1  492.65   24.00
  -1   1  -1  389.66   24.40
  -1   1  -1  408.56   25.00
   1   1   1  473.05   24.90
   2  -1   1 2455.65  120.79
  -2  -1  -1 2396.06  109.29
   2  -1   1 2414.46  112.99
  -2  -1  -1 2233.28  114.49
   2  -1   1 2367.96  116.09
   2   1   1 2217.08  113.09
   2   1   1 2445.36  114.39
  -2   1  -1 2154.48  107.69
  -2   1  -1 2395.76  111.69
  -2   1  -1 2249.07  108.49
   2   1   1 2332.27  113.49
  -3  -1  -1  352.16   21.90
   3  -1   1  346.57   28.00
  -3  -1  -1  334.97   31.40
   3  -1   1  269.37   34.80
  -3   1  -1  339.07   17.70
  -3   1  -1  343.87   26.00
   3   1   1  279.77   28.20
   4  -1   1  122.39   20.40
   4  -1   1  119.69   34.00
   4   1   1  137.49   17.40
   4   1   1  140.69   21.90
   4  -2  -1   57.69   19.00
   4  -2  -1   40.60   15.30
   4  -2  -1   38.50   23.50
   4   2  -1   49.90   13.60
   4   2  -1   25.20    9.10
  -3  -2   1   87.29   16.60
   3  -2  -1  146.69   20.20
  -3  -2   1  125.39    9.10
  -3  -2   1   78.29   29.70
  -3   2   1   97.19    9.70
  -3   2   1  125.89   18.70
  -2  -2   1 2406.16  119.29
  -2  -2   1 2326.77  121.69
  -2  -2   1 2470.05  117.59
  -2  -2   1 2504.65  117.19
  -2  -2   1 2514.05  116.19
   2  -2  -1 2588.94  127.29
   2  -2  -1 2645.54  132.39
  -2  -2   1 2238.28  116.09
  -2   2   1 2683.43  117.89
  -2   2   1 2555.74  123.09
   2   2  -1 2461.25  125.69
   2   2  -1 2580.14  125.39
  -2   2   1 2547.65  116.39
  -2   2   1 2701.23  118.09
  -1  -2   1  746.83   35.70
   1  -2  -1  759.12   40.70
   1  -2  -1  712.43   35.70
  -1  -2   1  708.53   36.00
  -1  -2   1  721.13   36.10
  -1  -2   1  735.13   34.10
  -1  -2   1  773.32   36.00
  -1  -2   1  728.83   37.20
  -1  -2   1  769.82   37.10
   1  -2  -1  810.42   36.30
   1  -2  -1  722.63   37.20
  -1  -2   1  733.83   35.00
   1  -2  -1  724.63   38.20
  -1  -2   1  741.03   35.50
   1  -2  -1  708.43   38.20
  -1   2   1  708.73   36.10
  -1   2   1  756.02   37.70
   1   2  -1  691.43   35.80
   1   2  -1  697.03   35.60
   1   2  -1  736.53   37.90
  -1   2   1  722.23   34.30
  -1   2   1  694.13   36.10
   1   2  -1  703.33   35.30
   1   2  -1  754.52   38.80
  -1   2   1  725.63   35.90
  -1   2   1  754.62   35.80
  -1   2   1  720.73   35.30
  -1   2   1  682.63   35.70
  -1   2   1  721.13   36.20
   0  -2  -1  309.47   16.00
   0  -2   1  310.27   16.70
   0  -2   1  282.57   15.60
   0  -2   1  303.17   16.60
   0  -2  -1  289.97   18.40
   0  -2  -1  303.77   16.20
   0  -2  -1  288.07   16.90
   0  -2   1  298.37   17.10
   0  -2  -1  288.37   16.70
   0  -2   1  315.47   17.20
   0  -2  -1  310.57   17.00
   0  -2   1  307.97   17.20
   0  -2  -1  303.67   16.20
   0  -2   1  312.17   16.10
   0  -2   1  323.97   16.40
   0  -2  -1  304.27   16.00
   0  -2   1  299.87   16.10
   0  -2  -1  291.07   15.50
   0  -2  -1  304.67   16.40
   0   2  -1  305.97   16.60
   0   2   1  301.07   17.50
   0   2   1  307.67   17.30
   0   2   1  283.57   16.50
   0   2  -1  286.57   17.20
   0   2   1  307.47   16.70
   0   2   1  295.17   18.20
   0   2   1  299.17   17.20
   0   2   1  293.27   16.20
   0   2  -1  294.87   16.40
   0   2  -1  292.47   16.60
   0   2  -1  324.57   17.70
   0   2   1  308.87   16.30
   0   2  -1  321.57   15.20
   0   2  -1  294.37   18.10
   0   2  -1  301.07   16.40
   0   2  -1  290.77   16.30
   0   2  -1  282.17   16.70
   0   2  -1  307.77   17.50
   0   2   1  296.77   16.40
  -1  -2  -1  271.87   14.70
   1  -2   1  269.87   16.00
  -1  -2  -1  270.77   13.40
  -1  -2  -1  277.07   15.50
   1  -2   1  277.77   18.00
   1  -2   1  277.07   23.60
  -1  -2  -1  279.97   15.50
  -1  -2  -1  269.37   16.60
   1  -2   1  273.27   16.70
  -1  -2  -1  262.97   17.60
   1  -2   1  294.17   15.90
  -1  -2  -1  265.17   16.00
  -1  -2  -1  229.68   16.30
   1  -2   1  262.97   18.80
   1  -2   1  263.27   16.00
   1  -2   1  284.17   18.90
  -1  -2  -1  281.17   15.90
   1   2   1  277.07   17.50
  -1   2  -1  282.77   16.60
  -1   2  -1  287.87   16.60
   1   2   1  254.17   16.80
   1   2   1  265.27   16.30
  -1   2  -1  274.97   15.00
   1   2   1  273.97   15.80
   1   2   1  278.27   16.10
  -1   2  -1  286.37   15.90
  -1   2  -1  277.77   17.10
   1   2   1  279.07   18.30
  -1   2  -1  258.97   13.60
  -1   2  -1  267.07   18.00
   1   2   1  258.97   18.70
  -2  -2  -1  964.30   47.00
  -2  -2  -1 1007.60   49.20
  -2  -2  -1 1022.10   48.50
  -2  -2  -1  945.61   49.80
   2  -2   1  894.71   61.19
  -2  -2  -1  916.31   54.99
  -2  -2  -1  936.61   45.50
  -2  -2  -1 1075.19   47.80
   2  -2   1 1079.29   71.89
   2   2   1  831.72   58.09
  -2   2  -1 1040.10   54.39
   2   2   1  981.10   54.89
  -2   2  -1  943.21   45.60
   2   2   1  961.30   57.59
  -2   2  -1  940.51   45.90
  -2   2  -1  978.50   47.50
  -3  -2  -1  851.01   37.70
  -3  -2  -1  834.52   47.10
  -3  -2  -1  841.92   41.50
  -3  -2  -1  788.12   37.20
   3  -2   1  650.83   44.70
   3  -2   1  825.62   43.40
   3  -2   1  738.13   50.19
  -3   2  -1  808.42   37.80
  -3   2  -1  771.92   37.70
   3   2   1  649.04   44.40
   3   2   1  729.23   41.00
  -3   2  -1  831.02   43.50
   4  -2   1  183.88   21.00
   4   2   1  129.49   19.40
   4   2   1  156.08   16.00
   4  -3  -1  215.18   21.40
   4  -3  -1  225.48   22.30
   4   3  -1  199.28   17.70
   4   3  -1  230.88   15.50
  -3  -3   1   57.29    7.40
   3  -3  -1   78.89   17.90
  -3  -3   1   87.29   19.10
   3  -3  -1   43.20   14.90
  -3  -3   1   72.39    9.70
   3  -3  -1   42.10   24.00
  -3   3   1   56.19   23.90
   3   3  -1   58.49   16.70
   3   3  -1   81.79   13.90
  -3   3   1   56.49    9.50
  -2  -3   1   60.29   11.00
  -2  -3   1   56.09    5.40
  -2  -3   1   57.29    5.80
  -2  -3   1   64.79   14.60
  -2  -3   1   75.59   18.40
   2  -3  -1   71.29   23.00
   2  -3  -1   64.49   30.10
   2   3  -1  136.59   49.00
   2   3  -1   65.39   14.10
  -2   3   1   30.10   13.50
  -2   3   1   46.30    6.60
  -1  -3   1   33.60   11.60
  -1  -3   1   19.80    3.90
  -1  -3   1   12.60    8.50
  -1  -3   1   39.80    8.80
  -1  -3   1   34.50   11.60
   1  -3  -1   40.20   14.00
   1  -3  -1   33.50   15.20
   1  -3  -1    7.00    9.50
  -1  -3   1   40.50   13.20
  -1  -3   1   32.10    4.60
   1  -3  -1   55.49   14.10
  -1  -3   1   27.10    7.50
   1  -3  -1   52.99   17.90
   1  -3  -1   77.99   29.40
  -1   3   1   22.10    6.60
  -1   3   1   34.40   13.60
   1   3  -1   -1.60   11.40
  -1   3   1   26.20    6.60
   1   3  -1   65.49   19.80
  -1   3   1   20.90    4.80
  -1   3   1   26.60    8.40
   1   3  -1    5.40   10.10
  -1   3   1   37.20   16.80
   1   3  -1   38.70   13.80
   0  -3   1 1564.94   71.39
   0  -3  -1 1543.35   71.59
   0  -3   1 1510.75   71.69
   0  -3  -1 1560.94   71.59
   0  -3   1 1521.15   71.69
   0  -3  -1 1372.66   70.29
   0  -3  -1 1420.76   70.39
   0  -3   1 1511.55   76.49
   0  -3   1 1460.45   71.29
   0  -3   1 1482.15   69.29
   0  -3  -1 1532.95   71.79
   0  -3  -1 1390.06   70.79
   0  -3   1 1384.26   71.59
   0  -3  -1 1454.35   69.19
   0  -3  -1 1523.45   71.79
   0  -3   1 1518.05   71.99
   0   3  -1 1505.05   71.69
   0   3   1 1520.45   71.19
   0   3  -1 1443.56   69.59
   0   3   1 1435.36   69.49
   0   3  -1 1404.36   74.09
   0   3  -1 1512.85   71.99
   0   3   1 1507.75   71.99
   0   3  -1 1479.15   71.79
   0   3   1 1554.14   71.89
   0   3   1 1602.94   72.09
   0   3  -1 1456.35   71.29
   0   3   1 1510.25   71.69
  -1  -3  -1  635.34   32.60
  -1  -3  -1  609.74   33.00
  -1  -3  -1  597.64   29.00
  -1  -3  -1  638.14   34.60
   1  -3   1  614.04   33.70
  -1  -3  -1  612.94   29.10
  -1  -3  -1  632.44   32.00
  -1  -3  -1  598.34   32.70
   1  -3   1  588.84   34.00
   1  -3   1  605.44   35.50
  -1  -3  -1  621.04   31.00
   1  -3   1  588.34   36.80
  -1   3  -1  607.44   34.40
  -1   3  -1  621.14   35.20
  -1   3  -1  626.64   31.70
  -1   3  -1  590.64   33.90
   1   3   1  616.14   36.90
   1   3   1  611.84   33.80
   1   3   1  583.74   34.50
  -1   3  -1  630.84   34.30
   1   3   1  607.84   36.20
  -1   3  -1  632.64   29.50
  -1   3  -1  610.84   29.70
   2  -3   1   93.29   36.60
  -2  -3  -1   71.59   14.70
  -2  -3  -1   77.79    6.40
  -2  -3  -1   76.49    6.10
  -2  -3  -1   97.89   15.70
   2  -3   1   55.79   24.60
   2   3   1   61.89   24.10
  -2   3  -1   54.69   14.10
  -2   3  -1   72.99    7.40
   2   3   1   95.79   13.90
   2   3   1   56.09   24.40
  -2   3  -1   68.99    7.50
   3  -3   1   94.29   32.20
   3  -3   1   85.89   24.10
  -3  -3  -1   76.69   21.70
   3   3   1   87.59   22.90
   4  -3   1  114.99   20.90
   4  -3   1  128.39   29.20
   4   3   1   87.49   16.80
   4   3   1  109.39   12.20
   4  -4  -1   49.10   13.80
   4  -4  -1   43.20   27.00
   4   4  -1   75.89    8.70
   4   4  -1   69.69   14.50
  -3  -4   1   77.49    8.20
   3  -4  -1   78.59   18.40
  -3  -4   1   59.69    9.10
   3  -4  -1  118.09   30.30
   3   4  -1   70.19   18.90
   3   4  -1   77.29   13.30
  -3   4   1   45.40   11.90
  -3   4   1   59.39    9.30
  -2  -4   1  397.06   19.90
  -2  -4   1  367.46   19.40
   2  -4  -1  415.16   41.60
  -2  -4   1  396.46   25.80
  -2  -4   1  360.06   24.30
  -2  -4   1  398.26   28.50
   2   4  -1  405.16   28.40
  -2   4   1  366.96   20.30
  -2   4   1  398.96   21.30
   2   4  -1  333.37   50.09
  -2   4   1  383.76   28.60
  -1  -4   1  348.17   18.00
  -1  -4   1  333.67   24.30
   1  -4  -1  343.47   31.60
   1  -4  -1  330.77   27.80
  -1  -4   1  373.56   23.40
   1  -4  -1  409.96   59.89
   1   4  -1  370.96   36.90
  -1   4   1  355.96   18.70
   1   4  -1  354.56   19.40
  -1   4   1  355.46   24.80
   1   4  -1  358.76   25.60
   0  -4  -1  687.93   41.90
   0  -4  -1  683.33   44.80
   0  -4   1  761.22   38.90
   0  -4   1  721.23   41.20
   0  -4  -1  726.23   43.40
   0  -4  -1  777.02   41.90
   0  -4   1  691.13   34.70
   0  -4   1  694.83   41.00
   0  -4  -1  731.23   41.50
   0  -4   1  738.73   42.90
   0  -4  -1  758.22   39.50
   0  -4   1  640.04   44.50
   0  -4   1  701.43   39.40
   0  -4   1  685.03   41.80
   0  -4   1  735.13   35.00
   0   4  -1  789.02   35.80
   0   4  -1  718.33   39.90
   0   4   1  687.83   40.30
   0   4  -1  766.42   45.00
   0   4   1  735.83   35.60
   0   4   1  727.43   43.40
   0   4  -1  732.13   44.60
   0   4   1  715.53   44.30
   0   4  -1  746.13   44.50
   0   4   1  715.13   44.40
   0   4  -1  719.13   42.20
   0   4  -1  675.43   35.90
   0   4   1  743.53   41.50
  -1  -4  -1 1351.16   64.89
  -1  -4  -1 1297.67   66.39
  -1  -4  -1 1399.26   68.39
   1  -4   1 1357.36   78.79
  -1  -4  -1 1437.46   70.09
  -1  -4  -1 1416.16   64.49
   1  -4   1 1267.97   72.09
  -1   4  -1 1396.36   64.99
   1   4   1 1493.15   65.59
   1   4   1 1277.07   83.39
   1   4   1 1403.06   68.49
  -1   4  -1 1402.26   68.59
   1   4   1 1312.87   78.99
  -2  -4  -1    3.10    2.40
  -2  -4  -1    9.00    3.70
  -2  -4  -1    5.10    8.60
  -2  -4  -1   12.80   11.10
   2   4   1   19.20   12.20
   2   4   1   20.50   24.10
  -2   4  -1    6.00    4.70
  -2   4  -1   -5.90   10.80
  -2   4  -1    2.80    3.20
  -3  -4  -1  304.97   15.80
   3  -4   1  287.87   23.60
  -3  -4  -1  267.07   16.50
   3   4   1  293.57   22.20
  -3   4  -1  273.47   16.80
  -3   4  -1  264.47   17.70
   4  -4   1   76.39   26.30
   4  -4   1   65.29   12.20
   4   4   1   67.89    9.00
   4   4   1   83.69   16.60
   3  -5  -1    6.60   13.40
  -3  -5   1   12.00    9.00
   3  -5  -1   52.79   19.00
   3  -5  -1   -4.60   12.00
  -3   5   1   18.50    8.20
   3   5  -1   21.30    8.30
  -2  -5   1   62.59    8.60
  -2  -5   1  124.09   31.10
   2  -5  -1   35.60   16.70
   2  -5  -1   67.69   20.40
  -2  -5   1   50.69   13.90
  -2  -5   1   81.29    8.30
  -2  -5   1   67.79   24.70
  -2   5   1   48.90   19.40
   2   5  -1   68.59   22.50
  -2   5   1   70.09   10.10
  -2   5   1   64.19   10.80
   2   5  -1  108.59   44.90
  -1  -5   1  210.48   28.00
  -1  -5   1  184.88   26.00
  -1  -5   1  167.98   14.50
   1  -5  -1  156.78   40.60
  -1  -5   1  189.58   11.60
   1  -5  -1  187.88   36.90
  -1   5   1  204.58   15.40
  -1   5   1  171.38   12.90
  -1   5   1  208.28   32.40
   0  -5   1   55.99   23.20
   0  -5  -1   86.79   30.70
   0  -5  -1   65.19   23.30
  -1  -5  -1    8.10    6.80
  -1  -5  -1   24.50    7.50
   1  -5   1    5.00   17.80
  -1  -5  -1   60.39   29.40
  -1  -5  -1   -7.10   12.50
  -1   5  -1  -20.50   17.00
  -1   5  -1    5.00    6.80
  -2  -5  -1  361.86   30.20
  -2  -5  -1  258.47   34.00
  -2  -5  -1  337.97   17.60
   2  -5   1  316.37   26.10
  -2  -5  -1  339.97   18.30
  -2  -5  -1  286.67   21.70
   2   5   1  277.07   26.50
  -2   5  -1  388.26   44.60
  -2   5  -1  346.97   18.80
  -2   5  -1  325.37   19.60
   3  -5   1   14.50   14.70
   3  -5   1   12.50   11.20
  -3  -5  -1   24.00    7.70
   3   5   1   45.80   16.70
   3  -6  -1  137.49   16.10
  -3  -6   1  105.59   13.60
  -3   6   1  100.89   14.30
   3   6  -1  123.19    9.60
  -2  -6   1  239.88   14.50
   2  -6  -1  156.18   43.00
   2  -6  -1  171.78   25.40
  -2  -6   1  215.08   16.60
  -2  -6   1  180.78   18.00
  -2   6   1  207.68   17.90
  -2   6   1  241.68   15.40
   2   6  -1  199.88   25.90
   2   6  -1  227.68   15.50
   1  -6  -1   27.00   36.70
   1  -6  -1   10.30   12.50
  -1  -6   1   15.30    7.60
  -1  -6   1  -22.80   22.00
  -1   6   1    9.30    6.00
   1   6  -1   14.90    8.10
   0  -6  -1  265.87   44.60
   0  -6   1  182.38   34.00
   0  -6   1  159.78   22.90
   0  -6  -1  220.58   29.30
   0  -6  -1  163.48   25.30
   0   6  -1  181.98   27.00
   0   6  -1  171.28   24.70
   0   6   1  223.68   26.30
   1  -6   1  129.19   61.89
  -1  -6  -1  187.98   42.60
  -1  -6  -1  138.19   17.70
  -1  -6  -1  118.09   16.10
  -1  -6  -1  110.19   26.00
  -1   6  -1  135.49   22.30
   1   6   1  106.69   18.60
  -1   6  -1  152.28   15.10
  -1   6  -1  141.09   19.50
   2  -6   1   30.40   15.10
   2  -6   1   11.10   11.60
  -2  -6  -1   37.00   13.30
  -2  -6  -1   19.70    9.50
   2   6   1   80.69   47.10
  -2   6  -1   23.80   11.70
   2   6   1   43.00   23.40
   2   6   1   23.40   10.60
  -2   6  -1   41.60   15.90
  -2   6  -1   28.60   16.60
  -3  -6  -1   12.40    6.10
   3  -6   1   27.40   12.00
  -3   6  -1   24.80    5.70
  -2  -7   1   12.60    6.90
  -2   7   1   25.00   14.30
   2   7  -1   61.09   31.60
  -1  -7   1  438.76   26.30
   1   7  -1  380.36   26.20
  -1   7   1  367.06   28.90
   0  -7  -1   27.00   14.30
   0   7  -1   80.89   26.60
   0   7   1   55.69   19.20
  -1  -7  -1  -13.20   22.40
  -1  -7  -1   22.20    8.90
  -1   7  -1   32.50   16.90
   1   7   1   10.50    7.40
  -2  -7  -1  163.98   15.60
   2  -7   1  157.98   17.90
  -2   7  -1  187.48   15.00
   2   7   1   93.39   43.40
   0   8  -1   34.10   19.70
   0   8   1   20.30    9.30
   4   0  -2  277.07   22.80
   4   0  -2  285.37   23.60
   4   0  -2  254.27   44.80
   3   0  -2    3.30   13.60
   3   0  -2   13.90   16.00
   3   0  -2    5.50   10.40
  -2   0   2  752.42   38.70
   2   0  -2  767.82   41.90
   2   0  -2  778.22   41.10
  -2   0   2  696.03   42.70
  -1   0   2 1746.23   84.79
   1   0  -2 1934.71   85.59
   1   0  -2 1937.91   84.99
  -1   0   2 1778.92   85.69
  -1   0   2 1625.04   85.49
   1   0  -2 1784.32   85.19
  -1   0   2 1906.81   85.49
   1   0  -2 1856.21   84.99
  -1   0   2 1834.82   85.69
  -1   0   2 1626.94   88.79
  -1   0   2 1838.42   85.39
  -1   0   2 1807.32   84.59
   1   0  -2 1814.32   85.79
   1   0  -2 1845.52   85.99
   0   0  -2  333.97   16.50
   0   0   2  364.16   16.50
   0   0   2  353.56   16.70
   0   0  -2  343.87   16.50
   0   0   2  365.56   16.60
   0   0  -2  323.17   16.50
   0   0  -2  356.06   16.60
   0   0   2  345.87   16.50
   0   0   2  364.46   16.90
   0   0   2  356.36   16.50
   0   0   2  360.26   16.60
   0   0  -2  354.36   16.90
   0   0  -2  353.96   16.60
   0   0  -2  316.87   16.60
   0   0  -2  343.17   16.70
   0   0  -2  328.47   16.60
   1   0   2 9686.43  418.36
  -1   0  -2 9447.55  417.26
  -1   0  -2 8929.91  417.06
  -1   0  -2 8779.52  417.26
   1   0   2 9223.88  419.46
   1   0   2 9456.35  418.06
  -1   0  -2 8066.89  416.76
  -1   0  -2 9243.38  416.96
  -1   0  -2 8595.54  419.36
  -1   0  -2 8530.45  418.46
   1   0   2 9999.00  417.16
   1   0   2 9201.38  416.96
  -1   0  -2 8864.51  416.86
   1   0   2 8888.21  417.56
  -1   0  -2 9098.89  416.66
  -1   0  -2 8710.33  417.06
  -1   0  -2 9258.27  416.96
  -1   0  -2 9228.98  418.06
   1   0   2 9721.73  417.16
  -1   0  -2 8280.97  419.06
   1   0   2 9131.89  416.86
  -2   0  -2   94.69    9.30
  -2   0  -2   70.99   17.40
  -2   0  -2   71.29   11.50
  -2   0  -2   64.29   12.80
   2   0   2  106.59   19.40
   2   0   2   76.99   17.40
  -3   0  -2   -2.60    6.00
   4   0   2   51.79   24.90
   4   0   2   55.59   17.20
   4   0   2   74.79   32.70
   4  -1  -2  160.18   41.60
   4  -1  -2   89.59   18.50
   4   1  -2   49.40   17.30
   3  -1  -2  236.08   35.00
   3  -1  -2  263.07   28.30
   3   1  -2  287.87   35.30
   2  -1  -2    9.70   15.90
   2  -1  -2   -0.20    8.90
   2  -1  -2   13.60   11.90
  -2  -1   2   11.70    9.00
  -2   1   2    1.50    8.80
   2   1  -2    4.60   10.00
  -2   1   2   15.50   15.20
   2   1  -2   -0.10   11.30
   1  -1  -2   19.60    8.60
   1  -1  -2   10.80    4.50
  -1  -1   2    9.70    7.10
  -1  -1   2   11.20    3.70
  -1  -1   2   12.80    3.70
  -1  -1   2   11.80    6.20
  -1  -1   2   24.00    9.60
   1  -1  -2   28.20   10.90
   1  -1  -2   13.90    6.20
  -1  -1   2   12.40    4.60
  -1  -1   2    9.40    4.10
  -1  -1   2   18.60    6.30
  -1  -1   2   18.00    5.10
  -1  -1   2    5.80    6.50
  -1   1   2   15.90    3.40
  -1   1   2   20.60    4.50
  -1   1   2   14.10    4.90
   1   1  -2   15.60    4.60
  -1   1   2   15.00    4.10
   1   1  -2    8.20    7.00
   1   1  -2   16.30    8.40
  -1   1   2   22.00    5.60
   1   1  -2   12.40    5.70
  -1   1   2   11.90    4.00
   1   1  -2   11.50    4.70
   1   1  -2   10.30    4.00
   1   1  -2   14.50    6.10
   0  -1   2 2593.94  131.69
   0  -1  -2 2878.11  131.49
   0  -1  -2 3076.39  131.29
   0  -1  -2 2810.92  131.49
   0  -1  -2 2727.13  131.69
   0  -1  -2 2758.32  131.49
   0  -1  -2 3165.78  132.29
   0  -1   2 2970.40  131.69
   0  -1   2 2897.21  131.49
   0  -1   2 2781.02  131.39
   0  -1   2 2880.71  131.59
   0  -1   2 2924.51  131.19
   0  -1   2 2897.41  131.59
   0  -1   2 2902.51  131.69
   0  -1   2 2912.61  131.49
   0  -1  -2 2769.62  131.49
   0  -1   2 2606.54  131.79
   0  -1  -2 2829.82  131.49
   0  -1  -2 2648.44  131.69
   0   1   2 2931.51  131.59
   0   1  -2 2951.20  131.79
   0   1   2 2847.32  131.39
   0   1   2 2902.11  131.89
   0   1  -2 2743.93  131.39
   0   1  -2 2870.21  131.89
   0   1   2 2774.22  131.59
   0   1   2 2698.63  131.09
   0   1   2 2947.71  131.69
   0   1   2 2737.73  131.69
   0   1  -2 2803.32  131.59
   0   1  -2 2944.61  131.59
   0   1  -2 2807.22  131.39
   0   1   2 2875.41  131.49
   0   1  -2 2826.32  131.49
   0   1  -2 2872.41  131.49
  -1  -1  -2    1.60    2.20
  -1  -1  -2    1.50    4.00
   1  -1   2    2.40    2.50
   1  -1   2    5.20    6.30
   1  -1   2    3.40    2.00
   1  -1   2    7.40    3.40
   1  -1   2    1.00    4.90
   1  -1   2   15.20    5.20
   1  -1   2    5.20    5.70
   1  -1   2   13.80    6.80
  -1  -1  -2    9.90    3.50
  -1  -1  -2    4.30    5.30
  -1  -1  -2    3.90    2.10
   1  -1   2    0.80    2.70
  -1  -1  -2    2.70    5.70
  -1  -1  -2    5.90    8.00
  -1  -1  -2    5.40    2.50
   1  -1   2    4.20    5.90
  -1  -1  -2    1.90    4.10
  -1   1  -2    2.10    2.20
   1   1   2    9.80    6.70
   1   1   2    5.90    5.00
  -1   1  -2   16.60    7.20
  -1   1  -2    2.90    2.30
   1   1   2    6.30    2.80
   1   1   2    3.10    2.80
  -1   1  -2    4.50    2.70
  -1   1  -2    6.00    2.50
   1   1   2   19.40    6.70
  -1   1  -2    3.60    4.10
   1   1   2    3.20   10.90
  -1   1  -2    3.30    3.10
   1   1   2    0.80    4.40
  -1   1  -2   -2.70   15.20
  -1   1  -2    4.50    3.40
  -1   1  -2    5.80    4.10
   1   1   2    8.10    3.60
   1   1   2    5.90    2.90
  -2  -1  -2  480.95   36.20
  -2  -1  -2  491.95   26.60
  -2  -1  -2  520.15   26.00
  -2  -1  -2  438.66   24.30
   2  -1   2  513.55   34.00
   2   1   2  515.95   34.10
  -2   1  -2  489.75   26.90
  -2   1  -2  483.25   41.30
  -2   1  -2  513.75   26.30
   2   1   2  547.15   34.80
   2   1   2  473.95   33.70
  -2   1  -2  518.45   30.00
  -2   1  -2  499.45   25.40
  -3  -1  -2   72.39   27.60
  -3  -1  -2   34.10    7.70
  -3  -1  -2   49.70    8.40
  -3   1  -2   44.10    7.90
  -3   1  -2   62.19   22.00
   4  -1   2  140.09   19.90
   4  -1   2  183.28   34.00
   4   1   2  128.69   16.50
   4   1   2  168.98   21.10
   4   1   2   99.49   34.10
   4  -2  -2  100.79   38.70
   4  -2  -2   53.29   23.10
   4   2  -2   95.29   14.10
   4   2  -2   98.79   16.80
  -3  -2   2   26.10   14.60
  -3  -2   2   18.50    6.60
   3  -2  -2   46.00   21.00
   3  -2  -2    6.40   12.50
   3   2  -2   23.70   10.40
  -3   2   2   18.70    7.60
  -3   2   2   36.30   16.70
  -2  -2   2  562.04   32.60
  -2  -2   2  538.55   25.40
  -2  -2   2  460.45   26.50
  -2  -2   2  456.15   31.80
   2  -2  -2  451.05   45.60
   2  -2  -2  447.56   49.50
  -2  -2   2  568.54   24.00
   2   2  -2  507.05   39.10
  -2   2   2  483.85   24.30
  -2   2   2  504.05   36.50
  -2   2   2  485.15   26.20
   2   2  -2  470.05   42.50
  -1  -2   2  195.18   13.60
  -1  -2   2  214.38   12.90
  -1  -2   2  215.18   12.70
   1  -2  -2  211.08   19.90
   1  -2  -2  209.48   17.10
   1  -2  -2  223.48   16.90
   1  -2  -2  185.48   14.00
  -1  -2   2  197.68   14.00
  -1  -2   2  211.88   12.80
   1  -2  -2  210.78   13.20
   1  -2  -2  212.88   13.60
  -1  -2   2  200.18   13.60
  -1  -2   2  222.18   14.40
  -1  -2   2  211.28   10.50
  -1  -2   2  221.18   11.90
   1  -2  -2  214.18   15.60
  -1   2   2  209.78   13.90
  -1   2   2  221.98   12.30
  -1   2   2  210.58   14.00
  -1   2   2  193.38   15.30
   1   2  -2  210.08   13.20
  -1   2   2  221.28   16.60
  -1   2   2  211.68   10.90
  -1   2   2  214.58   13.10
   1   2  -2  219.58   12.60
   1   2  -2  218.28   17.10
  -1   2   2  217.78   13.10
   1   2  -2  197.08   13.30
  -1   2   2  185.58   14.20
   1   2  -2  225.08   16.60
   0  -2  -2   42.20    6.30
   0  -2  -2   38.90   10.30
   0  -2   2   48.00    6.30
   0  -2   2   46.80    6.20
   0  -2   2   28.40    9.50
   0  -2   2   56.39    7.70
   0  -2   2   36.20    6.10
   0  -2  -2   46.70    6.40
   0  -2   2   43.30    5.70
   0  -2   2   32.90    8.20
   0  -2  -2   42.00    6.70
   0  -2   2   42.00    5.80
   0  -2   2   45.50    8.50
   0  -2  -2   36.50    5.50
   0  -2   2   32.30    7.40
   0  -2  -2   40.60    7.80
   0  -2  -2   35.50    8.60
   0  -2  -2   37.10    6.80
   0  -2  -2   38.30    4.60
   0  -2   2   40.60    7.30
   0  -2  -2   43.30    5.70
   0  -2  -2   38.40    7.10
   0   2  -2   24.00    9.50
   0   2  -2   45.20    8.20
   0   2  -2   38.10    7.00
   0   2   2   35.30    6.60
   0   2  -2   45.50    9.50
   0   2   2   38.40    9.10
   0   2   2   45.20    6.40
   0   2   2   39.20    6.40
   0   2   2   49.80   10.00
   0   2   2   42.00    9.10
   0   2  -2   35.70    6.20
   0   2   2   46.10    7.40
   0   2  -2   28.70    6.50
   0   2  -2   37.50    7.40
   0   2  -2   34.40    5.50
   0   2  -2   36.60    9.60
   0   2  -2   55.09    7.20
   0   2   2   32.30    8.10
  -1  -2  -2  417.56   22.80
  -1  -2  -2  426.46   22.50
  -1  -2  -2  438.26   21.90
  -1  -2  -2  357.96   23.00
   1  -2   2  419.86   24.10
   1  -2   2  424.06   24.90
   1  -2   2  397.86   22.10
  -1  -2  -2  431.56   24.40
  -1  -2  -2  399.76   21.60
   1  -2   2  435.66   23.20
  -1  -2  -2  421.26   22.00
  -1  -2  -2  423.86   21.10
   1  -2   2  427.66   22.50
   1  -2   2  359.56   24.40
   1  -2   2  395.16   22.00
  -1  -2  -2  414.56   19.80
   1   2   2  432.66   23.60
   1   2   2  409.56   21.90
  -1   2  -2  411.66   23.10
  -1   2  -2  409.76   19.90
   1   2   2  430.26   25.10
  -1   2  -2  385.36   22.90
   1   2   2  423.36   22.30
  -1   2  -2  412.56   22.50
   1   2   2  432.76   23.50
  -1   2  -2  373.16   23.40
   1   2   2  409.36   23.00
  -1   2  -2  420.96   23.70
  -1   2  -2  403.66   21.30
   1   2   2  386.06   22.00
  -1   2  -2  416.26   22.40
   2  -2   2  720.43   55.39
   2  -2   2  855.71   69.79
   2  -2   2  865.81   56.59
  -2  -2  -2  886.01   41.50
  -2  -2  -2  824.42   42.90
  -2  -2  -2  817.32   43.70
  -2  -2  -2  770.32   50.59
  -2  -2  -2  843.02   39.60
  -2  -2  -2  840.72   42.70
  -2   2  -2  841.32   47.80
   2   2   2  828.32   51.99
  -2   2  -2  802.52   39.00
  -2   2  -2  812.42   38.90
  -2   2  -2  859.91   41.90
  -2   2  -2  699.03   49.20
   2   2   2  821.82   48.90
   3  -2   2   53.89   21.70
   3  -2   2   73.49   24.80
  -3  -2  -2   19.40    7.30
  -3  -2  -2   34.50    7.40
  -3   2  -2    8.30   11.70
  -3   2  -2   42.00    8.70
  -3   2  -2   30.30    8.30
   4  -2   2  266.77   25.90
   4  -2   2  243.78   22.70
  -4  -2  -2  255.07   15.00
   4   2   2  273.37   21.90
   4   2   2  266.67   19.10
   4  -3  -2   63.89   30.20
   4  -3  -2   44.00   19.60
   4   3  -2   56.59   13.70
   4   3  -2   76.19   11.10
   3  -3  -2  310.77   29.00
  -3  -3   2  390.56   27.20
   3  -3  -2  363.16   41.70
  -3  -3   2  436.76   21.20
  -3  -3   2  401.16   19.80
  -3   3   2  390.26   30.50
   3   3  -2  364.96   24.20
  -3   3   2  418.36   21.10
   3   3  -2  357.96   25.40
  -2  -3   2   20.90    9.90
   2  -3  -2   10.10    6.90
  -2  -3   2   11.10    8.50
  -2  -3   2   21.70    5.00
   2  -3  -2   61.29   42.30
   2  -3  -2   22.80   15.70
   2  -3  -2   18.20   14.40
   2   3  -2    6.40    7.30
   2   3  -2    9.00   12.10
   2   3  -2   59.79   40.30
  -2   3   2   15.90    7.30
  -2   3   2   22.10    6.10
   1  -3  -2   27.80   14.60
  -1  -3   2   19.90    7.10
  -1  -3   2   28.00    6.90
  -1  -3   2   22.40    4.00
  -1  -3   2   14.90    8.80
  -1  -3   2   30.30   13.30
  -1  -3   2   23.00    4.50
   1  -3  -2   10.10    8.80
  -1  -3   2   27.50   11.50
   1  -3  -2   38.20   13.20
  -1  -3   2   18.40    9.00
   1  -3  -2   26.90   13.50
   1   3  -2   10.50   10.20
  -1   3   2   20.50    8.10
  -1   3   2   16.20    9.80
   1   3  -2    8.40    7.90
   1   3  -2   19.30   11.70
  -1   3   2   14.90    6.50
  -1   3   2   17.20    7.60
  -1   3   2   42.00   13.00
   1   3  -2   48.20   14.10
  -1   3   2   20.40    4.80
  -1   3   2   30.20   13.70
   0  -3  -2 1046.40   51.09
   0  -3   2 1057.09   52.09
   0  -3  -2 1084.99   49.50
   0  -3   2 1051.59   49.40
   0  -3   2 1086.69   51.59
   0  -3   2 1052.49   51.99
   0  -3   2  963.60   52.59
   0  -3  -2  988.40   54.39
   0  -3   2 1082.99   51.79
   0  -3  -2 1096.29   52.39
   0  -3   2 1026.90   50.89
   0  -3  -2 1110.59   51.79
   0  -3  -2 1102.69   52.19
   0  -3  -2  997.50   50.69
   0   3  -2 1008.00   49.80
   0   3   2 1074.69   51.89
   0   3  -2 1087.39   52.69
   0   3   2 1053.59   49.70
   0   3   2 1038.00   52.49
   0   3   2 1111.69   51.49
   0   3  -2  990.10   51.49
   0   3  -2 1063.19   52.49
   0   3  -2 1012.60   51.49
   0   3   2 1114.89   52.99
   0   3   2 1064.29   52.19
   1  -3   2  828.12   53.59
  -1  -3  -2  805.72   41.60
   1  -3   2  837.92   45.50
   1  -3   2  763.82   43.90
   1  -3   2  786.22   43.30
  -1  -3  -2  821.32   41.60
  -1  -3  -2  774.52   38.20
   1  -3   2  807.02   42.60
  -1  -3  -2  808.12   38.30
  -1  -3  -2  883.61   41.40
  -1  -3  -2  832.12   43.80
  -1  -3  -2  849.52   40.20
  -1  -3  -2  814.12   42.30
  -1   3  -2  775.12   43.60
  -1   3  -2  772.92   43.70
  -1   3  -2  830.92   43.00
  -1   3  -2  821.92   40.60
  -1   3  -2  798.02   38.60
   1   3   2  826.92   44.80
  -1   3  -2  804.02   42.70
  -1   3  -2  823.52   38.70
   1   3   2  820.42   42.60
   1   3   2  818.82   45.70
   1   3   2  808.02   43.10
  -2  -3  -2  224.98   19.90
  -2  -3  -2  213.58   11.90
   2  -3   2  209.68   32.30
   2  -3   2  198.18   23.70
  -2  -3  -2  232.18   16.50
   2   3   2  199.68   17.00
  -2   3  -2  224.28   18.20
  -2   3  -2  208.18   12.60
   2   3   2  205.78   26.40
  -2   3  -2  221.08   12.50
   3  -3   2  388.86   25.70
  -3  -3  -2  438.26   34.00
   3  -3   2  346.17   31.50
  -3  -3  -2  391.06   30.30
  -3  -3  -2  406.16   20.30
  -3  -3  -2  428.16   20.50
  -3   3  -2  409.26   21.50
   3   3   2  336.17   26.50
  -3   3  -2  348.07   34.40
  -3   3  -2  409.46   21.00
   3   3   2  369.36   24.80
   4  -3   2  196.88   25.50
   4  -3   2  150.38   16.40
   4   3   2  167.58   19.50
   4   3   2  142.09   14.00
   4  -4  -2   49.40   13.80
   4  -4  -2   24.60   11.30
   4   4  -2   30.70   14.30
   4   4  -2   46.40    7.40
  -3  -4   2   26.10    7.10
   3  -4  -2   50.89   16.00
  -3  -4   2   32.80    8.30
   3   4  -2   72.49   23.90
  -3   4   2   19.10    9.50
  -3   4   2   20.00    8.70
  -2  -4   2   53.89    6.60
   2  -4  -2   94.19   30.70
  -2  -4   2   58.69   20.00
  -2  -4   2   32.60   15.80
  -2  -4   2   54.69    6.60
  -2   4   2   47.00    8.80
  -2   4   2   33.40    7.70
   2   4  -2   37.10   12.20
  -2   4   2   44.30   19.60
   2   4  -2   80.09   26.10
  -1  -4   2  115.29   15.10
  -1  -4   2  116.39    7.70
   1  -4  -2   68.09   19.30
   1  -4  -2  184.38   57.99
  -1  -4   2  104.19   16.30
   1  -4  -2  123.89   25.80
  -1  -4   2   95.39   14.60
   1   4  -2  161.38   32.90
   1   4  -2  124.49   10.10
   1   4  -2  102.09   18.60
  -1   4   2   82.39   15.60
  -1   4   2   89.99    8.40
   0  -4   2  286.77   25.10
   0  -4  -2  282.47   26.80
   0  -4   2  325.27   26.30
   0  -4   2  278.97   26.60
   0  -4  -2  339.47   26.50
   0  -4   2  308.47   15.90
   0  -4  -2  274.17   27.00
   0  -4   2  322.47   22.40
   0  -4   2  313.97   22.00
   0  -4  -2  315.37   22.30
   0  -4  -2  258.67   25.20
   0  -4  -2  269.17   30.80
   0  -4   2  240.28   16.00
   0  -4   2  296.77   27.20
   0   4   2  288.87   16.90
   0   4   2  297.67   28.80
   0   4   2  257.67   33.70
   0   4  -2  249.28   30.50
   0   4  -2  250.97   17.70
   0   4  -2  309.77   27.10
   0   4   2  298.37   29.20
   0   4  -2  232.58   23.00
   0   4  -2  285.87   28.60
   0   4   2  272.07   24.00
   0   4  -2  283.17   31.00
   0   4   2  287.47   16.70
   0   4  -2  318.07   17.40
   0   4   2  255.87   24.80
   0   4   2  254.27   29.50
   1  -4   2   34.30   22.10
  -1  -4  -2   42.20   15.20
  -1  -4  -2   25.50   11.80
  -1  -4  -2   34.10   13.40
  -1   4  -2   27.50    7.10
   1   4   2   13.00   25.30
  -1   4  -2    7.50    9.30
   1   4   2  -42.90   27.20
   1   4   2   33.70   17.80
  -2  -4  -2    6.90    9.20
  -2  -4  -2   25.00    5.60
  -2  -4  -2   25.20    6.40
  -2  -4  -2    9.00   11.20
  -2   4  -2   -0.90   11.40
  -2   4  -2   27.70    7.10
   2   4   2   -4.70   25.80
  -3  -4  -2   47.80    9.00
   3  -4   2   47.60   18.30
  -3  -4  -2   52.89    7.70
  -3  -4  -2   56.79   18.60
  -3   4  -2   76.09   11.50
  -3   4  -2   67.39   10.90
  -3  -5   2  424.66   23.80
   3  -5  -2  423.06   27.50
  -3  -5   2  417.16   24.30
   3   5  -2  440.46   25.80
  -3   5   2  434.86   26.40
  -3   5   2  421.16   25.10
  -2  -5   2  173.88   12.70
  -2  -5   2  193.08   12.30
  -2  -5   2  211.88   18.10
  -2  -5   2  158.08   25.00
  -2  -5   2  191.78   37.30
   2  -5  -2  190.78   26.20
  -2   5   2  193.08   14.60
   2   5  -2  154.18   25.40
   2   5  -2  205.78   14.80
   2   5  -2  142.09   26.20
  -2   5   2  196.38   13.50
  -2   5   2  191.68   38.10
   2   5  -2  255.47   42.10
  -1  -5   2  388.06   22.00
   1  -5  -2  477.75   44.70
  -1  -5   2  467.45   34.60
  -1  -5   2  405.16   35.40
  -1  -5   2  398.66   23.60
   1  -5  -2  418.96   43.10
  -1   5   2  475.45   24.70
  -1   5   2  441.16   38.80
  -1   5   2  463.45   22.90
   0  -5   2  652.23   41.40
   0  -5  -2  568.54   44.10
   0  -5  -2  595.74   40.10
   0   5  -2  573.94   39.20
   1  -5   2   38.60   19.90
  -1  -5  -2   23.90   14.60
  -1  -5  -2   48.40   10.90
  -1  -5  -2   44.50    8.00
  -1  -5  -2   33.80   22.40
  -1   5  -2   44.60   18.00
  -1   5  -2   46.70    9.30
  -1   5  -2   67.99   12.30
  -2  -5  -2  213.48   17.50
  -2  -5  -2  245.78   30.50
  -2  -5  -2  238.68   31.80
  -2  -5  -2  204.78   14.20
   2  -5   2  179.98   22.20
  -2  -5  -2  196.68   13.40
   2  -5   2  172.48   43.60
   2   5   2  262.77   58.29
  -2   5  -2  206.38   14.60
   2   5   2  242.88   16.60
  -2   5  -2  136.59   43.10
  -2   5  -2  207.58   15.60
   2   5   2  217.68   22.50
   3  -5   2  110.09   32.50
  -3  -5  -2  155.88   16.70
   3  -5   2  163.48   17.30
  -3  -5  -2  162.68   11.30
  -3   5  -2  166.28   21.30
   3   5   2  160.28   13.40
   3   5   2  166.08   18.60
  -3   5  -2  150.28   12.60
   3  -6  -2   45.70   28.20
   3  -6  -2   26.50   14.70
  -3   6   2   44.70   13.80
  -2  -6   2  386.26   21.10
  -2  -6   2  336.87   23.40
   2  -6  -2  363.86   29.70
  -2  -6   2  425.66   24.30
   2  -6  -2  411.96   46.90
  -2   6   2  393.66   22.50
   2   6  -2  431.26   22.80
   2   6  -2  486.55   48.10
  -2   6   2  367.86   24.50
   2   6  -2  399.06   36.40
  -1  -6   2  102.79   14.30
   1  -6  -2  200.48   59.69
   1  -6  -2  108.99   26.00
  -1  -6   2  110.59   16.30
  -1   6   2  109.79   14.40
   1   6  -2  130.39   16.90
  -1   6   2   91.79   17.30
   0  -6  -2   20.20   11.40
   0  -6  -2   19.00   25.30
   0  -6   2   21.00   14.80
   0  -6   2   12.30   10.20
   0  -6  -2   54.09   29.30
   0   6   2   53.29   28.90
   0   6  -2   29.90   10.70
   1  -6   2  401.46   61.29
  -1  -6  -2  339.27   46.30
  -1  -6  -2  343.57   53.79
  -1  -6  -2  317.87   23.70
  -1   6  -2  350.86   21.70
  -1   6  -2  295.97   25.90
   1   6   2  296.67   24.70
  -2  -6  -2   20.20    9.70
  -2  -6  -2   16.20    8.90
  -2  -6  -2   41.50   13.20
   2  -6   2    7.80    5.00
   2  -6   2   13.70   10.80
   2   6   2    2.40   21.00
  -2   6  -2   41.20   14.70
  -2   6  -2   28.20   11.90
  -2   6  -2    9.90    9.70
   2   6   2    6.70   10.00
   3  -6   2   19.40   12.70
  -3   6  -2   26.60   12.40
   3   6   2   21.20    8.40
  -2  -7   2   22.10   11.10
   2   7  -2   21.80   15.10
  -2   7   2   26.10   12.60
   1  -7  -2   66.39   21.70
  -1  -7   2   90.59   16.80
   1   7  -2   59.99   32.00
  -1   7   2   64.19   20.90
   0  -7  -2   41.60   14.00
   0  -7   2   51.89   14.80
   0   7   2   52.39   20.90
   0   7  -2   83.19   21.30
  -1  -7  -2   91.09   17.30
  -1  -7  -2  132.39   27.00
   1   7   2   77.99   15.20
  -1   7  -2   97.49   18.40
   2  -7   2   -6.00    8.70
   2   7   2  -18.90   21.60
  -2   7  -2   22.80   10.60
   0   8   2   27.80   16.00
   0   8  -2   50.69   16.90
   4   0  -3  103.79   18.60
   4   0  -3  135.79   48.70
   3   0  -3   15.70   15.80
   3   0  -3    0.10   11.20
   3   0  -3   13.60   14.60
  -2   0   3    9.00   10.00
  -1   0   3   -0.60    4.10
   1   0  -3    3.90    6.50
  -1   0   3    4.40    4.90
   1   0  -3    2.20    2.60
  -1   0   3   -1.80    4.70
  -1   0   3   -1.50    4.30
  -1   0   3   -1.00    2.30
   1   0  -3    3.80    3.50
  -1   0   3    1.30    3.70
  -1   0   3    4.10    5.90
   0   0  -3    7.00    3.30
   0   0   3    0.90    1.50
   0   0   3    1.00    1.40
   0   0   3    1.30    0.90
   0   0  -3    2.10    2.00
   0   0   3    0.60    1.30
   0   0   3    0.30    1.70
   0   0  -3    1.80    2.80
   0   0   3    0.30    1.40
   0   0   3    1.40    1.90
   0   0  -3    0.50    1.20
   0   0   3    1.20    3.10
   0   0  -3    0.60    1.10
   0   0  -3    1.70    1.70
   0   0   3    1.40    1.50
   0   0  -3    2.00    1.40
   0   0  -3    1.90    2.00
   0   0  -3    2.30    2.20
   1   0   3    2.90    3.80
  -1   0  -3    2.20    2.10
   1   0   3   -1.40    4.90
  -1   0  -3   20.30   13.80
  -1   0  -3    6.10    4.40
  -1   0  -3    8.20    4.40
  -1   0  -3    1.60    2.50
  -1   0  -3    1.40    3.90
  -1   0  -3    6.80    6.00
   1   0   3   -0.80    3.80
   1   0   3    2.80    3.30
   1   0   3    2.90    2.50
   1   0   3    1.00    1.80
   1   0   3   -0.90    3.90
   1   0   3   -1.80    3.50
  -1   0  -3    3.20    2.50
   1   0   3   -0.20    2.30
  -1   0  -3   -1.50    3.60
  -1   0  -3    1.80    3.70
  -1   0  -3    4.00    2.20
  -2   0  -3    0.20    3.90
  -2   0  -3   -6.00    4.60
   2   0   3   -9.60   12.70
  -2   0  -3    0.30    5.80
  -2   0  -3    4.20    6.30
   2   0   3   14.60   17.90
  -2   0  -3   10.30   16.90
   2   0   3    0.90   12.90
  -3   0  -3   28.20    9.10
   3   0   3   48.70   16.10
   4   0   3   27.40   15.00
   4   0   3   43.70   30.20
   4  -1  -3  101.49   40.80
   4  -1  -3   34.60   19.50
   4   1  -3   35.60   19.60
   4   1  -3   40.50   15.40
   3  -1  -3  224.08   34.60
   3  -1  -3  306.57   32.20
  -2  -1   3  310.07   20.10
  -2  -1   3  308.77   24.10
   2  -1  -3  366.46   36.50
   2  -1  -3  376.66   35.70
  -2   1   3  339.67   25.20
  -2   1   3  303.77   31.70
   2   1  -3  354.46   27.70
   2   1  -3  381.16   34.60
   1  -1  -3   96.89   11.70
  -1  -1   3   88.29    7.80
  -1  -1   3   84.59    7.30
   1  -1  -3   93.99   12.20
   1  -1  -3  103.19   10.60
  -1  -1   3   92.49    7.60
  -1  -1   3  106.29   13.40
   1  -1  -3  105.19    7.90
  -1  -1   3   92.59    6.30
   1  -1  -3   93.89    9.70
   1  -1  -3   88.49    6.70
   1  -1  -3   79.89    6.60
  -1  -1   3   86.09    6.40
  -1  -1   3  100.99    6.50
  -1  -1   3   95.39    6.30
  -1  -1   3   91.09    6.00
   1  -1  -3   84.39    6.20
  -1  -1   3   92.39    6.30
  -1  -1   3   92.99   16.00
  -1  -1   3   87.89    9.70
  -1  -1   3   83.89    5.60
  -1   1   3   82.79    8.00
  -1   1   3   86.59    6.30
  -1   1   3   91.39    9.80
  -1   1   3   87.19   10.90
  -1   1   3   89.99    6.30
   1   1  -3  103.59   11.10
  -1   1   3   85.79   15.20
  -1   1   3   83.49    8.70
   1   1  -3   94.99    8.10
   1   1  -3   94.59    8.70
   1   1  -3   78.99    6.90
  -1   1   3   86.79    6.60
   1   1  -3   93.49   10.50
  -1   1   3   85.69    6.10
  -1   1   3   89.89    6.20
   1   1  -3   91.09    7.70
  -1   1   3   88.69    9.80
   1   1  -3   97.19    6.90
   0  -1   3 1310.57   66.59
   0  -1  -3 1327.97   66.99
   0  -1  -3 1391.16   66.49
   0  -1   3 1452.75   66.69
   0  -1  -3 1425.56   66.89
   0  -1  -3 1447.66   66.49
   0  -1  -3 1444.86   66.29
   0  -1   3 1350.16   66.09
   0  -1   3 1464.95   67.19
   0  -1  -3 1431.06   68.19
   0  -1   3 1493.15   66.49
   0  -1   3 1390.36   65.99
   0  -1   3 1471.65   66.69
   0  -1   3 1371.66   66.79
   0  -1   3 1525.65   66.69
   0  -1   3 1446.76   66.69
   0  -1  -3 1341.07   67.29
   0  -1  -3 1487.85   66.49
   0   1  -3 1372.66   66.39
   0   1   3 1441.76   67.09
   0   1   3 1398.06   66.09
   0   1  -3 1480.05   66.79
   0   1   3 1332.27   66.29
   0   1  -3 1404.26   66.49
   0   1   3 1414.16   66.39
   0   1   3 1410.26   66.59
   0   1   3 1486.35   66.49
   0   1  -3 1398.76   66.49
   0   1   3 1434.06   66.69
   0   1  -3 1482.05   66.89
   0   1  -3 1486.15   66.99
   0   1  -3 1447.26   66.39
  -1  -1  -3 1402.36   64.69
   1  -1   3 1234.98   68.19
  -1  -1  -3 1360.96   64.69
  -1  -1  -3 1357.76   65.79
  -1  -1  -3 1356.46   65.09
  -1  -1  -3 1376.76   64.59
   1  -1   3 1426.36   64.89
   1  -1   3 1395.66   66.29
  -1  -1  -3 1375.66   67.39
  -1  -1  -3 1265.57   63.69
   1  -1   3 1425.06   65.69
  -1   1  -3 1382.26   64.89
   1   1   3 1422.46   65.99
   1   1   3 1308.47   64.49
   1   1   3 1422.56   65.09
   1   1   3 1414.96   66.39
  -1   1  -3 1510.95   66.19
   1   1   3 1401.36   64.89
  -1   1  -3 1313.47   63.59
  -1   1  -3 1405.96   64.69
  -1   1  -3 1460.15   65.49
  -1   1  -3 1312.67   65.39
   1   1   3 1330.87   64.19
   1   1   3 1301.07   64.59
   2  -1   3  133.99   24.60
  -2  -1  -3  120.99    8.20
  -2  -1  -3  114.59    9.40
  -2  -1  -3  114.59   17.10
  -2  -1  -3  126.59   13.40
  -2  -1  -3  139.79   27.70
   2  -1   3  165.98   43.10
  -2  -1  -3  131.79   13.40
  -2   1  -3  111.89   10.20
  -2   1  -3  151.88   33.00
  -2   1  -3  116.79    7.50
   2   1   3  175.18   24.20
  -2   1  -3  117.39   11.30
  -2   1  -3  145.69   14.60
   2   1   3  124.39   24.40
  -2   1  -3  109.99   14.80
   3  -1   3  280.97   25.00
  -3  -1  -3  365.76   24.00
  -3  -1  -3  317.27   17.50
  -3  -1  -3  309.57   16.60
  -3  -1  -3  321.87   34.80
   3  -1   3  307.47   30.30
  -3   1  -3  321.67   16.70
  -3   1  -3  311.07   29.80
   3   1   3  280.97   22.40
  -3   1  -3  316.27   17.30
   3   1   3  256.87   30.20
   4  -1   3  154.38   21.50
   4   1   3  143.89   32.00
   4   1   3  157.48   17.40
   4  -2  -3  129.99   42.30
   4  -2  -3  153.68   23.10
   4  -2  -3  117.49   20.70
   4   2  -3  134.09   15.70
   4   2  -3  167.98   19.10
  -3  -2   3   23.30    6.50
   3  -2  -3   21.60   14.00
   3  -2  -3   51.99   19.50
  -3  -2   3   35.30   13.80
   3   2  -3   35.90   19.60
   3   2  -3   42.70   17.00
  -3   2   3   24.50    8.10
   2  -2  -3  103.19   42.70
  -2  -2   3   54.99   11.90
  -2  -2   3   59.29    5.00
   2  -2  -3   86.19   37.80
   2   2  -3   73.89   27.60
  -2   2   3   57.19    9.90
  -2   2   3   52.69   25.20
  -2   2   3   45.30    8.20
  -1  -2   3  413.86   23.30
   1  -2  -3  430.46   23.20
  -1  -2   3  447.26   22.60
   1  -2  -3  436.06   23.10
  -1  -2   3  447.16   21.80
   1  -2  -3  423.76   23.40
   1  -2  -3  447.06   26.40
  -1  -2   3  447.46   22.80
  -1  -2   3  437.46   23.60
   1  -2  -3  421.66   28.10
  -1  -2   3  467.15   23.60
  -1  -2   3  421.86   23.00
   1  -2  -3  385.46   26.40
  -1  -2   3  451.65   22.60
   1  -2  -3  451.05   25.20
  -1  -2   3  452.45   20.80
   1   2  -3  420.66   26.00
  -1   2   3  460.95   22.80
   1   2  -3  500.55   24.20
   1   2  -3  399.86   23.00
  -1   2   3  411.26   23.60
  -1   2   3  442.86   23.30
   1   2  -3  435.76   25.90
  -1   2   3  428.16   22.10
  -1   2   3  432.66   25.90
  -1   2   3  416.96   20.90
  -1   2   3  453.95   22.70
   1   2  -3  439.16   22.10
   0  -2  -3  379.26   19.30
   0  -2  -3  346.27   17.90
   0  -2   3  347.07   19.70
   0  -2   3  341.57   19.00
   0  -2   3  334.47   18.30
   0  -2  -3  347.47   20.40
   0  -2  -3  351.46   18.50
   0  -2  -3  318.17   19.10
   0  -2   3  340.37   18.90
   0  -2   3  358.56   18.30
   0  -2  -3  348.37   18.00
   0  -2   3  355.66   18.60
   0  -2   3  356.66   17.90
   0  -2  -3  338.27   18.60
   0  -2  -3  361.36   18.20
   0  -2   3  352.76   18.50
   0  -2   3  316.97   19.40
   0  -2   3  344.77   18.00
   0  -2  -3  352.16   18.20
   0   2   3  353.96   19.00
   0   2  -3  347.57   18.30
   0   2  -3  318.37   17.60
   0   2   3  359.66   18.40
   0   2  -3  348.57   20.50
   0   2  -3  324.37   19.00
   0   2  -3  330.67   19.80
   0   2  -3  342.87   20.00
   0   2  -3  327.67   18.40
   0   2   3  340.37   18.30
   0   2  -3  351.06   18.50
   0   2   3  322.17   21.00
   0   2  -3  313.47   18.50
   0   2   3  373.16   19.70
   0   2  -3  345.37   19.10
   0   2   3  326.77   19.90
  -1  -2  -3    7.50    5.90
   1  -2   3   17.90    8.40
   1  -2   3    0.80    3.30
   1  -2   3    6.70    6.20
  -1  -2  -3    6.70    3.40
  -1  -2  -3    2.40    3.10
   1  -2   3    0.70    5.70
  -1  -2  -3   -3.00    3.80
  -1  -2  -3    5.70    9.40
  -1  -2  -3    0.30    3.10
  -1  -2  -3    6.50    4.30
  -1  -2  -3    3.70    4.00
   1  -2   3    2.60    9.50
   1  -2   3    8.30    5.90
  -1  -2  -3    7.20    6.90
  -1   2  -3    7.10    4.60
   1   2   3   11.80    6.90
  -1   2  -3   16.20    9.60
   1   2   3    1.60    3.90
  -1   2  -3    3.40    4.40
   1   2   3    7.30    5.90
   1   2   3   21.30    8.90
  -1   2  -3    5.20    4.30
  -1   2  -3    5.10    2.10
  -1   2  -3   12.60    8.50
  -1   2  -3    4.60    5.00
  -1   2  -3    2.40    3.40
   1   2   3    8.10    6.30
   1   2   3    6.80    5.10
  -2  -2  -3  378.66   26.50
  -2  -2  -3  387.76   25.60
  -2  -2  -3  405.76   23.50
   2  -2   3  412.86   46.10
   2  -2   3  339.47   34.90
  -2  -2  -3  339.87   37.30
  -2   2  -3  376.46   18.70
  -2   2  -3  388.16   27.50
  -2   2  -3  347.87   24.50
   2   2   3  306.17   38.50
   2   2   3  414.66   35.60
  -2   2  -3  331.97   30.70
  -2   2  -3  388.06   30.30
   3  -2   3  280.27   34.70
  -3  -2  -3  239.58   14.50
   3  -2   3  195.78   24.50
   3  -2   3  281.87   21.70
   3   2   3  286.67   25.30
   3   2   3  256.37   20.10
  -3   2  -3  215.38   14.70
  -3   2  -3  239.58   14.70
   3   2   3  222.98   29.40
  -4  -2  -3   52.59    8.10
   4  -2   3   54.49   17.10
   4  -2   3   60.49   25.80
   4   2   3   53.99   17.20
   4   2   3   69.99   13.90
   4  -3  -3   40.50   30.00
   4  -3  -3   66.69   20.20
   4   3  -3   49.80   11.80
   4   3  -3   35.00   13.10
  -3  -3   3   72.99    8.50
   3  -3  -3   40.70   26.80
  -3  -3   3   75.79    8.10
   3  -3  -3   82.59   21.00
  -3   3   3   69.39   23.70
  -2  -3   3  157.78   13.20
   2  -3  -3  148.29   23.60
  -2  -3   3  121.29   21.20
   2  -3  -3  145.29   32.40
  -2  -3   3  138.19    8.60
  -2  -3   3  145.19    8.40
  -2  -3   3  141.29   17.70
   2  -3  -3  152.08   31.30
   2   3  -3  127.89   16.00
  -2   3   3  145.19   14.90
  -2   3   3  138.09    9.70
   2   3  -3  100.89   39.60
   2   3  -3  118.99   25.00
  -1  -3   3   47.10    4.70
  -1  -3   3   38.20    5.10
   1  -3  -3   31.10   13.80
   1  -3  -3   61.79   30.50
  -1  -3   3   24.70   13.90
  -1  -3   3   43.80   12.70
  -1  -3   3   49.50    7.50
  -1  -3   3   50.99    9.90
   1  -3  -3   65.49   16.00
  -1  -3   3   27.30   11.40
   1  -3  -3   24.90   16.50
  -1  -3   3   65.99   12.70
   1  -3  -3   54.99   13.60
   1   3  -3   74.19   18.50
  -1   3   3   74.79   14.10
  -1   3   3   40.30    6.80
   1   3  -3   56.09   15.80
   1   3  -3   44.20   14.70
  -1   3   3   50.69   18.50
  -1   3   3   49.80   13.40
  -1   3   3   48.00    8.90
  -1   3   3   42.40    5.30
   0  -3   3  250.47   17.80
   0  -3  -3  255.47   16.10
   0  -3   3  245.38   15.40
   0  -3  -3  268.97   18.20
   0  -3  -3  232.98   16.20
   0  -3  -3  243.48   13.60
   0  -3   3  250.87   17.70
   0  -3   3  268.57   17.50
   0  -3  -3  273.47   16.70
   0  -3  -3  296.17   20.90
   0  -3   3  242.98   13.50
   0  -3  -3  239.38   18.20
   0  -3  -3  212.98   19.20
   0  -3   3  239.28   16.70
   0   3  -3  247.78   19.30
   0   3   3  307.07   22.80
   0   3  -3  255.57   17.30
   0   3  -3  255.67   19.50
   0   3  -3  249.38   16.60
   0   3   3  263.17   17.90
   0   3  -3  243.88   14.60
   0   3   3  251.57   16.90
   0   3  -3  276.17   18.70
   0   3   3  245.18   18.90
   0   3   3  260.77   18.80
   0   3   3  259.37   18.80
   0   3   3  250.27   13.80
   1  -3   3  314.97   25.80
  -1  -3  -3  285.37   17.40
  -1  -3  -3  281.77   14.90
  -1  -3  -3  309.57   23.60
  -1  -3  -3  306.47   18.90
  -1  -3  -3  286.07   21.60
   1  -3   3  336.27   37.10
  -1  -3  -3  298.27   14.90
   1  -3   3  290.67   21.80
   1  -3   3  280.37   20.80
  -1  -3  -3  302.97   20.10
   1  -3   3  336.37   24.40
   1  -3   3  268.87   22.80
  -1  -3  -3  290.57   20.60
  -1   3  -3  297.67   15.80
   1   3   3  277.37   25.50
   1   3   3  288.67   21.80
  -1   3  -3  289.07   21.50
  -1   3  -3  306.37   25.00
  -1   3  -3  291.87   15.40
  -1   3  -3  280.57   18.30
  -1   3  -3  268.37   22.60
  -1   3  -3  301.57   23.80
   1   3   3  362.66   24.70
   2  -3   3   84.19   38.20
   2  -3   3   37.60   17.00
  -2  -3  -3   24.60    5.30
  -2  -3  -3    8.50    6.70
   2  -3   3   30.50   19.90
  -2  -3  -3   26.00   15.60
  -2   3  -3   10.70    6.00
  -2   3  -3   15.60    6.40
   2   3   3    9.10   10.40
  -2   3  -3   40.50   14.30
  -3  -3  -3    3.20   12.10
   3  -3   3   24.70   16.40
  -3  -3  -3   16.10    7.00
   3  -3   3   11.10   12.10
  -3  -3  -3   18.00    6.90
   3  -3   3    9.50   11.80
   3   3   3   33.60   14.80
  -3   3  -3   -8.10   15.30
  -3   3  -3   30.90    9.00
  -3   3  -3   18.80    9.40
   3   3   3    9.90   10.50
   4  -3   3   85.99   13.50
   4  -3   3  102.19   24.00
   4  -4  -3  156.28   32.50
   4  -4  -3  212.68   19.10
   4   4  -3  241.48   13.70
  -3  -4   3   81.69    8.10
   3  -4  -3   57.29   19.50
  -3  -4   3   68.99    7.90
  -3   4   3   88.39    9.80
   3   4  -3   79.79   14.40
   3   4  -3   89.09   15.50
  -3   4   3   76.29   10.90
   2  -4  -3   -9.20   16.10
  -2  -4   3    7.80    3.50
  -2  -4   3   14.90    5.30
   2  -4  -3   54.39   34.50
  -2  -4   3   18.90   13.00
  -2  -4   3   17.70    8.30
   2   4  -3   15.60   12.70
  -2   4   3    2.70   10.40
  -2   4   3    7.10    4.70
   1  -4  -3  605.14   45.80
   1  -4  -3  713.83   45.90
  -1  -4   3  709.73   37.30
   1  -4  -3  695.03   39.70
   1  -4  -3  704.03   55.09
  -1  -4   3  716.33   34.20
  -1  -4   3  710.63   33.60
  -1  -4   3  739.13   37.40
  -1  -4   3  709.23   39.30
   1  -4  -3  603.84   39.90
  -1   4   3  708.33   34.20
   1   4  -3  735.63   34.90
  -1   4   3  691.23   34.80
  -1   4   3  715.33   38.10
   1   4  -3  722.93   51.09
   1   4  -3  683.53   39.90
   0  -4   3  642.04   36.00
   0  -4   3  546.95   39.30
   0  -4  -3  625.64   42.50
   0  -4  -3  562.04   37.70
   0  -4  -3  623.84   39.20
   0  -4   3  526.15   38.40
   0  -4   3  642.64   37.90
   0  -4   3  641.74   36.30
   0  -4  -3  699.83   37.40
   0  -4  -3  584.74   39.00
   0  -4   3  623.84   39.60
   0  -4   3  597.34   30.30
   0   4   3  653.43   30.90
   0   4  -3  588.54   36.20
   0   4   3  595.34   39.10
   0   4   3  620.04   40.50
   0   4  -3  609.34   32.30
   0   4   3  631.24   39.90
   0   4  -3  621.84   41.10
   0   4   3  630.44   30.90
   0   4  -3  638.94   42.30
   0   4  -3  601.34   42.80
   0   4   3  615.24   39.30
   0   4   3  649.83   35.70
   0   4   3  606.24   37.80
  -1  -4  -3  142.49    9.40
  -1  -4  -3  139.89   14.30
  -1  -4  -3  156.18   18.40
   1  -4   3  141.49   24.00
  -1  -4  -3  150.68    9.90
   1  -4   3   80.19   34.10
  -1  -4  -3  146.99   16.80
   1   4   3  124.09   21.60
   1   4   3  151.88   36.40
  -1   4  -3  147.49   21.40
   1   4   3  154.28   14.30
  -1   4  -3  145.19   10.30
   1   4   3   80.69   26.70
  -1   4  -3  151.98   10.20
  -2  -4  -3  483.75   24.00
  -2  -4  -3  480.55   32.90
   2  -4   3  460.05   29.10
  -2  -4  -3  435.56   29.20
   2  -4   3  422.36   32.60
  -2  -4  -3  513.85   32.10
  -2  -4  -3  490.95   23.40
  -2   4  -3  480.25   34.60
   2   4   3  443.96   26.30
  -2   4  -3  471.75   24.00
  -2   4  -3  458.95   24.60
  -3  -4  -3  143.79   11.20
  -3  -4  -3  146.69   10.50
  -3  -4  -3  175.58   18.60
  -3   4  -3  159.68   23.70
   3   4   3  145.09   24.70
  -3   4  -3  128.29   12.00
  -3   4  -3  131.39   13.00
  -3  -5   3   98.19   14.40
   3  -5  -3  108.09   28.80
  -3  -5   3  115.89    8.80
  -3  -5   3   93.69   14.00
  -3   5   3  100.39   16.40
  -3   5   3   94.29   10.40
   3   5  -3   89.19   12.40
   3   5  -3  110.09   44.10
  -2  -5   3   23.80    7.90
  -2  -5   3   57.69   24.20
  -2  -5   3   12.70    7.70
   2  -5  -3   20.40   10.90
   2  -5  -3   16.80   14.70
   2  -5  -3   -1.40   15.40
   2   5  -3    8.70    8.80
  -2   5   3    3.80    4.10
  -2   5   3    9.70    6.10
   2   5  -3   15.00   11.40
   2   5  -3    7.90   16.00
  -2   5   3  -20.90   16.70
  -1  -5   3   34.10   12.50
  -1  -5   3   49.70   10.50
  -1  -5   3   25.80   15.70
  -1  -5   3   37.40    7.10
   1  -5  -3   66.99   40.10
   1   5  -3   30.80   13.90
  -1   5   3   90.69   28.40
  -1   5   3   54.49   11.00
  -1   5   3   40.80    8.10
   0  -5  -3   85.49   24.60
   0  -5   3   63.79   25.90
   0  -5   3   39.40   14.20
   0  -5  -3   83.29   23.50
   0   5  -3   56.39   24.00
   1  -5   3  130.09   36.50
  -1  -5  -3   89.49   33.60
  -1  -5  -3  118.89   31.60
  -1  -5  -3   77.19    9.20
  -1  -5  -3  114.39   23.50
  -1  -5  -3   84.29   14.30
  -1  -5  -3   74.09   11.40
  -1   5  -3   78.49   13.20
  -1   5  -3   78.29   10.10
  -1   5  -3   99.49   36.30
  -2  -5  -3    3.30   15.80
   2  -5   3   38.90   18.10
  -2  -5  -3   23.80   10.20
  -2  -5  -3    0.70   18.40
   2  -5   3   72.99   40.30
  -2  -5  -3   37.90    8.50
  -2   5  -3   38.60   11.60
   2   5   3   -5.20   23.40
  -2   5  -3   20.90    9.50
  -3  -5  -3   53.59    8.40
  -3  -5  -3   56.19   13.10
   3  -5   3   76.29   17.40
  -3   5  -3   61.09   10.30
   3   5   3   64.39   11.60
  -3   5  -3   89.89   16.50
   3  -6  -3  133.59   29.70
   3  -6  -3  134.59   17.10
  -3   6   3  162.98   16.50
  -2  -6   3   37.80    9.80
  -2  -6   3   60.09   13.20
  -2   6   3   54.99   13.70
   2   6  -3   69.99   11.00
  -2   6   3   54.99   10.30
   1  -6  -3  366.16   32.20
   1  -6  -3  325.87   66.79
  -1  -6   3  402.46   47.00
  -1  -6   3  327.57   21.70
   1  -6  -3  400.16   55.99
  -1  -6   3  344.37   23.70
  -1   6   3  331.27   21.80
  -1   6   3  341.67   24.60
   1   6  -3  342.67   25.40
   0  -6   3  122.69   44.00
   0  -6   3  117.99   29.80
   0  -6  -3  151.98   46.10
   0  -6   3  112.89   21.60
   0  -6  -3   90.09   27.00
   0  -6  -3   86.39   22.50
   0   6  -3   87.89   20.60
   0   6  -3   63.79   13.00
   0   6   3   81.19   24.30
  -1  -6  -3   40.20   14.20
  -1  -6  -3   80.29   43.00
  -1  -6  -3  152.68   40.50
   1  -6   3   22.10   34.20
   1   6   3   74.69   18.50
  -1   6  -3   67.19   17.70
  -1   6  -3   75.29   15.10
  -2  -6  -3   56.09   11.40
   2  -6   3   57.99   19.70
  -2  -6  -3   55.89   16.20
  -2  -6  -3   54.39   15.50
   2  -6   3   53.49   16.70
   2   6   3   73.59   23.20
   2   6   3   67.59   11.20
  -2   6  -3   71.09   17.40
   2   6   3   57.79   11.60
  -2   6  -3   44.30   15.40
  -2   6  -3   52.19   12.20
   3  -6   3   83.19   17.70
   3  -6   3   63.39   11.70
  -2  -7   3  184.88   15.40
  -2   7   3  207.78   19.00
   2   7  -3  231.18   31.20
  -1  -7   3   24.60   14.50
  -1   7   3   53.49   21.10
   1   7  -3   22.00    7.70
   1   7  -3   26.00   15.00
   0  -7   3  236.08   29.50
   0   7   3  289.27   26.70
   0   7  -3  274.87   24.10
  -1  -7  -3  127.69   18.00
  -1  -7  -3  110.59   34.70
  -1   7  -3   84.49   17.60
   1   7   3  106.69   15.90
  -2  -7  -3   32.40   12.10
  -2   7  -3   37.70   11.90
   0   8  -3   40.90   26.30
   0   8  -3   43.70   16.70
   4   0  -4   29.10   17.80
   3   0  -4  244.88   28.80
   3   0  -4  247.08   25.60
  -2   0   4  247.88   21.80
  -2   0   4  283.47   20.20
  -1   0   4 1924.71   86.19
  -1   0   4 1736.83   86.39
  -1   0   4 1860.51   86.59
   1   0  -4 1898.01   87.09
  -1   0   4 1682.23   88.29
  -1   0   4 1677.33   87.69
  -1   0   4 1893.91   85.59
  -1   0   4 1855.51   87.39
   1   0  -4 1926.01   85.69
   1   0  -4 1997.30   86.99
  -1   0   4 1700.93   88.09
   1   0  -4 2039.00   88.59
   0   0  -4  848.42   40.50
   0   0  -4  833.12   40.50
   0   0   4  810.82   40.20
   0   0   4  915.11   41.20
   0   0  -4  778.92   40.20
   0   0   4  817.92   40.10
   0   0   4  887.91   41.10
   0   0   4  919.51   40.40
   0   0  -4  807.62   40.30
   0   0   4  863.71   40.30
   0   0  -4  764.82   40.50
   0   0  -4  862.91   40.60
   0   0   4  891.41   40.80
   0   0  -4  846.72   40.70
   0   0   4  948.81   40.80
   0   0  -4  872.21   40.40
   0   0  -4  855.91   41.00
   0   0   4  868.11   40.50
   0   0   4  855.61   40.30
   1   0   4  104.99   10.70
   1   0   4  117.09    8.80
  -1   0  -4  116.99    9.10
  -1   0  -4  114.89    8.20
  -1   0  -4  107.89    7.90
   1   0   4  125.59   10.80
  -1   0  -4   99.79   11.60
  -1   0  -4  105.99    6.70
  -1   0  -4  102.99   20.30
   1   0   4  120.39   14.90
   1   0   4  113.79    8.80
   1   0   4  111.19    8.30
  -1   0  -4  112.59    9.40
  -1   0  -4  106.79    8.60
   1   0   4  119.59    9.80
  -1   0  -4  109.29   14.10
  -2   0  -4   26.00   11.90
  -2   0  -4    9.70    7.50
  -2   0  -4   20.30    6.30
  -2   0  -4    7.10    6.30
  -2   0  -4   13.70    4.60
   2   0   4   14.20   14.20
  -2   0  -4    6.40   17.80
   2   0   4   25.00   19.80
  -2   0  -4   12.50    5.00
   2   0   4   48.90   27.90
  -2   0  -4    8.80    5.50
   3   0   4  165.08   19.40
  -3   0  -4  190.68   12.30
   3   0   4  171.58   28.10
  -3   0  -4  228.58   13.50
   3   0   4  189.18   25.40
   4   0   4  107.29   17.10
   4   0   4   90.29   29.70
  -4   0  -4   73.59    9.70
   4  -1  -4   28.60   23.10
   4   1  -4   24.10   15.60
   4   1  -4   15.10    8.90
   3  -1  -4   61.09   29.00
   3   1  -4    6.80   16.00
   3   1  -4   -5.90   18.10
  -2  -1   4  238.58   19.50
   2  -1  -4  269.17   36.40
  -2  -1   4  197.58   15.80
   2  -1  -4  218.28   33.10
   2   1  -4  223.28   33.80
   2   1  -4  248.78   24.80
  -2   1   4  201.38   22.40
  -2   1   4  197.58   26.10
  -1  -1   4   56.09    6.10
   1  -1  -4   57.59    8.60
   1  -1  -4   51.29   10.20
  -1  -1   4   48.30    6.40
  -1  -1   4   41.60   16.40
   1  -1  -4   49.90    6.50
  -1  -1   4   43.30    9.50
  -1  -1   4   54.89    5.40
  -1  -1   4   46.70    5.40
  -1  -1   4   44.60    4.30
   1  -1  -4   49.20   11.80
  -1  -1   4   34.50    7.70
  -1  -1   4   58.69    5.90
  -1  -1   4   48.90    6.50
  -1  -1   4   47.00    5.00
  -1  -1   4   50.79    5.40
   1  -1  -4   52.99    5.40
   1   1  -4   40.60    7.20
  -1   1   4   46.30    4.50
  -1   1   4   47.70    5.00
   1   1  -4   58.79    9.70
  -1   1   4   49.50    5.30
  -1   1   4   43.30    5.30
  -1   1   4   48.10    8.70
   1   1  -4   54.89    6.30
  -1   1   4   49.80    6.90
  -1   1   4   46.30    6.20
  -1   1   4   51.99    7.10
   1   1  -4   43.00    7.10
  -1   1   4   54.29   11.90
   1   1  -4   49.70    7.60
   1   1  -4   53.39   10.90
   0  -1  -4  794.02   37.90
   0  -1   4  729.93   37.10
   0  -1  -4  745.43   38.30
   0  -1   4  814.92   38.10
   0  -1   4  852.41   38.40
   0  -1  -4  770.62   37.80
   0  -1   4  831.72   38.10
   0  -1  -4  763.42   37.80
   0  -1   4  827.32   38.10
   0  -1  -4  773.62   37.80
   0  -1   4  801.72   38.00
   0  -1  -4  810.22   38.10
   0  -1   4  803.42   37.70
   0  -1  -4  831.52   38.20
   0  -1   4  843.52   38.10
   0  -1  -4  802.02   37.80
   0  -1   4  840.22   37.80
   0  -1   4  763.92   37.40
   0  -1  -4  824.82   37.60
   0  -1   4  685.73   38.00
   0   1   4  808.12   37.70
   0   1   4  788.62   38.70
   0   1  -4  744.63   38.50
   0   1  -4  792.92   38.00
   0   1  -4  784.42   38.00
   0   1  -4  776.42   38.00
   0   1  -4  761.12   37.80
   0   1  -4  764.22   38.20
   0   1  -4  797.12   37.70
   0   1   4  781.62   37.70
   0   1   4  753.62   37.50
   0   1   4  840.62   38.00
   0   1   4  801.32   38.80
   0   1   4  863.51   37.80
   0   1  -4  761.02   37.70
   0   1  -4  798.22   38.20
   0   1  -4  758.82   37.90
   0   1   4  797.42   38.00
  -1  -1  -4    8.60    4.40
   1  -1   4    3.70    2.50
   1  -1   4    8.10    4.70
  -1  -1  -4    3.90    6.70
  -1  -1  -4   15.00    6.80
   1  -1   4    6.90    4.60
   1  -1   4    5.50    4.70
  -1  -1  -4    0.40    2.70
  -1  -1  -4    4.90    6.50
   1  -1   4    7.50    7.20
  -1  -1  -4   10.60    5.40
  -1  -1  -4    3.70    3.40
   1  -1   4    2.70    4.80
   1  -1   4    0.90    3.00
  -1   1  -4   -3.00    6.80
   1   1   4   -1.50    4.40
  -1   1  -4   22.40    8.50
   1   1   4   13.80    6.90
   1   1   4    3.60    4.60
   1   1   4    9.90    4.70
  -1   1  -4    4.10    3.30
  -1   1  -4    1.70    6.90
  -1   1  -4    8.70    3.90
   1   1   4   10.60    5.40
   1   1   4    4.00    3.90
   1   1   4    3.10    4.40
  -1   1  -4    3.70    2.60
  -1   1  -4    1.10    2.90
  -1   1  -4    3.00    3.80
   1   1   4    1.00    2.30
  -1   1  -4    2.50    2.80
  -2  -1  -4    6.80    3.60
  -2  -1  -4    3.40    9.10
  -2  -1  -4   47.90   30.70
  -2  -1  -4   15.40    7.30
   2  -1   4   16.80   23.00
  -2  -1  -4   12.20    5.70
   2  -1   4  -13.90   15.50
  -2   1  -4   10.20    7.60
  -2   1  -4   -0.80    5.90
  -2   1  -4    2.90    4.90
  -2   1  -4   -7.90   11.90
  -2   1  -4    8.80    4.50
  -2   1  -4   20.90   21.20
  -2   1  -4   -0.60    8.70
   2   1   4   18.10   14.90
  -2   1  -4    8.50    2.80
   2   1   4    9.40   16.40
  -3  -1  -4   24.60    7.50
  -3  -1  -4   21.60   18.80
  -3  -1  -4   23.30   10.10
   3  -1   4   61.59   23.00
  -3  -1  -4   39.50    8.80
   3  -1   4   34.30   17.60
   3  -1   4   28.40   19.60
   3   1   4   44.60   23.90
   3   1   4   35.00   13.90
  -3   1  -4   34.90    7.30
  -3   1  -4   30.10    8.70
   4  -1   4   12.30    8.60
   4  -1   4   -6.70   11.50
   4   1   4    7.30   12.30
  -4   1  -4    7.40    4.00
   4   1   4   31.00   15.20
   4   1   4   -6.00   13.30
   4  -2  -4   53.29   21.30
   4   2  -4   55.69   13.70
   4   2  -4   37.60   17.00
  -3  -2   4   61.59   14.70
  -3  -2   4   96.89    8.00
   3  -2  -4   87.59   17.00
   3  -2  -4  104.39   28.60
   3  -2  -4  100.99   21.20
  -3   2   4   85.79    9.20
   3   2  -4  101.89   18.70
   3   2  -4  102.99   17.80
   3   2  -4   93.99   39.20
  -2  -2   4  240.38   18.10
   2  -2  -4  302.87   43.60
  -2  -2   4  260.67   13.30
   2  -2  -4  213.18   47.60
  -2  -2   4  261.37   15.50
   2  -2  -4  292.57   34.20
  -2  -2   4  278.17   17.20
   2   2  -4  282.07   41.00
  -2   2   4  272.97   31.80
   2   2  -4  234.38   33.20
  -2   2   4  280.87   16.40
  -1  -2   4   20.00    6.20
  -1  -2   4   16.90    7.30
   1  -2  -4   30.00   16.70
   1  -2  -4   13.00   11.40
  -1  -2   4    8.60    3.20
   1  -2  -4    5.20    3.80
  -1  -2   4   10.90    7.50
  -1  -2   4   14.90    7.40
  -1  -2   4    6.20    3.50
  -1  -2   4   22.00    8.10
  -1  -2   4   12.60    4.90
   1  -2  -4   33.40   14.20
  -1  -2   4   29.60    7.50
  -1  -2   4   14.60    5.00
   1  -2  -4   17.00    8.20
  -1   2   4   15.00    5.90
   1   2  -4   13.90    7.10
   1   2  -4   27.10   11.30
  -1   2   4   10.80    3.40
   1   2  -4   26.70   13.60
  -1   2   4   13.70    7.30
  -1   2   4    5.60    7.80
  -1   2   4    4.90    3.60
   1   2  -4    3.80    6.70
  -1   2   4   15.90    3.40
   1   2  -4    9.00    3.80
  -1   2   4   11.20    6.20
  -1   2   4    7.40    4.80
   0  -2   4 1093.79   54.09
   0  -2  -4 1218.08   53.69
   0  -2   4 1174.28   53.79
   0  -2  -4 1128.69   53.49
   0  -2  -4 1035.60   54.19
   0  -2   4 1203.58   53.89
   0  -2   4 1060.29   54.09
   0  -2   4 1129.89   54.99
   0  -2   4 1105.29   53.19
   0  -2  -4 1234.88   54.59
   0  -2  -4 1021.40   53.19
   0  -2   4 1102.99   54.79
   0  -2  -4 1114.39   53.39
   0  -2  -4 1123.09   53.89
   0  -2   4 1098.19   52.89
   0  -2  -4 1086.49   53.89
   0  -2   4 1170.98   54.09
   0   2  -4 1107.79   53.99
   0   2   4 1178.48   54.49
   0   2  -4 1038.20   53.69
   0   2  -4 1052.69   53.09
   0   2  -4 1137.49   54.09
   0   2   4 1144.79   53.79
   0   2   4 1174.18   53.69
   0   2   4 1107.19   52.69
   0   2  -4 1144.89   54.39
   0   2   4 1140.89   54.19
   0   2   4 1003.60   54.49
   0   2  -4 1136.39   55.39
   0   2  -4 1177.08   53.89
   0   2   4 1093.69   53.39
   0   2  -4 1114.79   54.69
   0   2  -4 1109.49   53.59
   0   2   4 1200.68   52.69
  -1  -2  -4  477.45   29.30
   1  -2   4  396.36   26.60
  -1  -2  -4  390.76   26.30
  -1  -2  -4  460.35   24.70
   1  -2   4  461.95   25.60
  -1  -2  -4  465.75   24.40
   1  -2   4  437.16   24.30
  -1  -2  -4  464.45   24.10
  -1  -2  -4  466.15   23.30
   1  -2   4  449.06   27.30
  -1  -2  -4  446.06   24.60
   1  -2   4  483.65   47.20
  -1  -2  -4  448.86   25.70
   1  -2   4  480.15   24.60
   1  -2   4  438.06   26.30
  -1   2  -4  461.35   22.10
  -1   2  -4  478.65   26.30
  -1   2  -4  468.45   25.80
  -1   2  -4  430.26   24.60
   1   2   4  467.05   25.90
  -1   2  -4  450.75   26.00
  -1   2  -4  443.46   23.30
  -1   2  -4  399.66   25.50
   1   2   4  444.76   24.30
   1   2   4  438.96   30.30
   1   2   4  449.86   24.60
  -1   2  -4  370.66   26.40
  -2  -2  -4  194.88   15.40
  -2  -2  -4  179.18   19.80
  -2  -2  -4  177.78   21.30
   2  -2   4  145.39   23.30
  -2  -2  -4  176.58   10.60
   2  -2   4  218.48   26.80
   2  -2   4  172.08   34.10
  -2  -2  -4  187.48   19.70
  -2   2  -4  191.48   10.70
  -2   2  -4  188.18   11.00
  -2   2  -4  193.18   15.90
  -2   2  -4  159.48   28.50
  -2   2  -4  184.28   24.50
   3  -2   4  357.86   37.80
  -3  -2  -4  387.26   36.50
   3  -2   4  374.26   27.70
  -3  -2  -4  410.66   19.60
  -3  -2  -4  386.06   27.50
  -3  -2  -4  379.46   19.00
   3  -2   4  294.07   28.70
   3   2   4  312.27   29.80
  -3   2  -4  351.26   20.10
  -3   2  -4  372.56   19.90
  -3   2  -4  366.76   31.30
   3   2   4  354.16   32.50
   3   2   4  310.07   23.50
   4  -2   4    9.60    8.50
   4  -2   4   46.70   23.60
  -4  -2  -4   19.90    7.50
  -4   2  -4    8.80    4.30
   4   2   4   39.30   17.90
   4   2   4   32.40   12.50
   4  -3  -4   32.40   15.70
   4  -3  -4   76.69   22.50
   4   3  -4   38.40   13.90
  -3  -3   4   36.20    7.80
   3  -3  -4   72.39   32.80
   3  -3  -4   66.39   21.20
  -3  -3   4   43.10    7.50
  -3  -3   4   45.70   18.00
  -3   3   4   44.60    9.00
   3   3  -4   59.59   14.40
  -3   3   4   68.09   22.90
   3   3  -4   24.10   18.30
  -3   3   4   53.69   10.00
   3   3  -4   59.89   15.20
  -2  -3   4  219.98   11.60
   2  -3  -4  197.28   35.40
  -2  -3   4  216.68   11.70
  -2  -3   4  203.98   15.20
   2  -3  -4  211.98   34.80
   2  -3  -4  215.08   25.40
   2   3  -4  204.58   38.10
   2   3  -4  205.58   18.20
   2   3  -4  249.48   26.90
  -2   3   4  209.48   17.30
  -2   3   4  204.58   12.50
  -1  -3   4  835.82   44.80
   1  -3  -4  781.22   52.69
  -1  -3   4  897.51   41.10
  -1  -3   4  926.81   41.20
   1  -3  -4  882.61   44.70
  -1  -3   4  894.31   44.40
   1  -3  -4  920.61   47.80
   1  -3  -4  837.12   45.50
  -1  -3   4  861.11   44.80
   1  -3  -4  919.41   50.49
  -1  -3   4  875.01   46.10
   1  -3  -4  914.81   47.30
  -1  -3   4  895.61   42.60
  -1  -3   4  855.51   44.00
  -1   3   4  876.21   43.20
  -1   3   4  884.11   45.30
   1   3  -4  852.61   49.60
  -1   3   4  859.91   41.60
  -1   3   4  882.51   45.90
  -1   3   4  909.51   45.10
   1   3  -4  867.51   48.60
  -1   3   4  888.31   41.50
  -1   3   4  922.91   49.50
   1   3  -4  853.71   44.60
   1   3  -4  782.52   46.20
   0  -3  -4   -0.30    5.50
   0  -3   4    2.90    4.60
   0  -3  -4    5.70    5.20
   0  -3   4    2.10    2.90
   0  -3  -4   12.10   10.20
   0  -3   4    3.10    3.30
   0  -3  -4   -2.70    5.30
   0  -3   4    3.70    6.60
   0  -3   4    3.20    4.60
   0  -3   4    3.90    6.20
   0  -3  -4    4.60   13.70
   0  -3   4   28.20   11.40
   0  -3  -4    5.40    5.60
   0  -3  -4    3.60    3.20
   0  -3  -4    7.40    8.20
   0   3   4    1.40    4.90
   0   3   4   -2.10    2.90
   0   3   4   13.30    7.90
   0   3   4    7.20    8.70
   0   3   4    0.20    6.70
   0   3   4    4.00    4.80
   0   3  -4    3.00    5.50
   0   3  -4    0.80    6.90
   0   3  -4    6.30    4.50
   0   3  -4    6.30    6.20
  -1  -3  -4  518.95   27.30
  -1  -3  -4  521.55   30.40
  -1  -3  -4  529.45   29.90
  -1  -3  -4  553.84   34.10
   1  -3   4  495.55   33.70
   1  -3   4  534.45   31.30
  -1  -3  -4  557.64   28.90
   1  -3   4  566.74   46.10
   1  -3   4  463.45   31.90
   1  -3   4  543.25   34.70
  -1  -3  -4  492.05   31.30
  -1  -3  -4  512.15   24.90
  -1  -3  -4  514.65   25.00
  -1   3  -4  520.75   25.30
  -1   3  -4  536.45   34.80
   1   3   4  413.06   37.80
  -1   3  -4  499.65   30.90
  -1   3  -4  570.44   34.00
   1   3   4  548.25   32.20
   1   3   4  481.65   30.60
  -1   3  -4  482.05   27.70
  -1   3  -4  519.55   25.40
   1   3   4  540.75   35.00
  -1   3  -4  514.45   31.80
  -2  -3  -4  489.55   27.30
  -2  -3  -4  538.15   31.20
   2  -3   4  459.05   31.30
  -2  -3  -4  489.85   23.20
   2  -3   4  425.46   28.20
   2  -3   4  395.76   38.60
   2   3   4  418.06   32.20
  -2   3  -4  475.65   23.30
   2   3   4  453.65   38.90
   2   3   4  533.95   31.10
  -2   3  -4  474.15   23.60
  -2   3  -4  460.15   28.60
   2   3   4  400.36   26.10
  -3  -3  -4   22.30    7.60
  -3  -3  -4    4.10    9.00
  -3  -3  -4   18.70   14.50
  -3   3  -4    5.80   16.80
   3   3   4   32.80   20.60
   4  -3   4  163.88   16.80
   4  -3   4  135.59   16.00
   4  -4  -4   61.49   30.40
   4  -4  -4   75.09   21.60
   4   4  -4   50.99   14.50
   4   4  -4   64.39    9.50
  -3  -4   4   29.00    7.20
  -3   4   4   18.40    9.90
  -3   4   4   38.80    9.60
   3   4  -4   46.30   17.30
  -2  -4   4   27.40    6.10
  -2  -4   4   51.29   26.50
  -2  -4   4   37.70    5.50
  -2   4   4   23.50    7.80
   1  -4  -4   -8.60   31.60
  -1  -4   4   32.60   17.10
  -1  -4   4   14.30    5.00
  -1  -4   4    2.30    6.70
  -1  -4   4   12.50    5.30
   1  -4  -4    2.10    9.50
   1  -4  -4    8.90    7.00
  -1  -4   4   31.10   13.90
   1  -4  -4    8.10   16.40
   1  -4  -4   -0.20   15.40
  -1   4   4   12.40    6.20
   1   4  -4  -12.50   23.90
  -1   4   4    5.30    7.20
   1   4  -4    6.70    8.70
  -1   4   4   18.20    6.20
   0  -4   4   -8.70   11.20
   0  -4  -4   -6.00   11.80
   0  -4  -4    8.10   18.80
   0  -4   4    3.50   13.50
   0  -4   4   19.10   17.40
   0  -4   4   -0.30    3.60
   0  -4  -4   15.60   17.00
   0  -4   4  -13.80   10.50
   0  -4   4   15.60    8.50
   0   4  -4   -4.70   10.70
   0   4   4   61.19   25.90
   0   4   4   20.60    8.60
   0   4   4    4.70   14.60
   0   4  -4   77.99   30.30
   0   4   4    6.90   13.90
   0   4   4   10.10    8.20
   0   4   4    3.50    9.20
   0   4  -4  -18.40   23.00
   0   4   4    1.80    4.30
   0   4  -4  -24.50   13.90
   0   4   4   15.40   18.80
  -1  -4  -4    7.90    8.60
   1  -4   4   18.30   13.70
  -1  -4  -4   -0.50    8.30
   1  -4   4   -2.60    5.50
  -1  -4  -4    4.00    6.30
  -1   4  -4   -2.50    9.80
  -1   4  -4    3.90    4.20
   1   4   4   11.00    8.80
  -1   4  -4    2.50    3.20
   2  -4   4   -1.40    4.80
  -2  -4  -4   -2.20    2.60
  -2  -4  -4   -0.40    4.10
  -2  -4  -4  -11.60   10.70
  -2  -4  -4   -3.40   12.70
  -2  -4  -4   -3.00    6.10
   2   4   4    5.30    9.40
  -2   4  -4   -4.00    5.10
   2   4   4   21.00   12.20
  -2   4  -4   -3.50   13.00
   2   4   4  -13.90   14.70
  -2   4  -4    2.40    3.40
  -3  -4  -4   24.70    9.40
  -3  -4  -4   17.10    7.10
  -3  -4  -4    8.40    8.70
   3  -4   4   17.10   13.00
   3  -4   4   -1.80   12.40
  -3   4  -4   16.50    8.90
  -3   4  -4    3.70    6.20
   3   4   4   52.49   19.50
  -3   4  -4   -2.40   10.90
   3  -5  -4   45.50   20.70
   3  -5  -4   41.80   29.50
   3   5  -4   14.20   18.90
   3   5  -4   30.70    9.50
   3   5  -4   21.50   10.60
  -2  -5   4  230.88   20.50
  -2  -5   4  245.98   27.30
   2  -5  -4  233.28   27.40
  -2  -5   4  234.88   15.20
  -2  -5   4  258.97   14.30
   2   5  -4  238.88   29.30
  -2   5   4  246.68   16.60
   2   5  -4  265.87   16.40
   2   5  -4  214.78   20.60
  -2   5   4  252.07   15.40
  -2   5   4  254.77   37.50
  -1  -5   4  179.08   17.60
  -1  -5   4  176.68   25.50
  -1  -5   4  172.28   11.50
   1  -5  -4  211.68   44.90
  -1  -5   4  162.28   28.20
  -1  -5   4  159.48   14.20
  -1   5   4  167.28   14.50
   1   5  -4  220.98   20.60
  -1   5   4  192.98   12.40
   1   5  -4  154.98   13.20
  -1   5   4  170.98   29.50
   0  -5  -4   -3.10   10.40
   0  -5  -4    0.50   14.40
   0  -5   4   48.60   27.80
   0  -5   4   10.90    8.70
   0  -5   4   11.90   15.40
   0   5  -4    4.30    9.70
   0   5  -4   22.10   12.40
  -1  -5  -4  209.78   16.50
  -1  -5  -4  183.88   28.00
  -1  -5  -4  210.18   13.40
  -1  -5  -4  255.97   36.50
  -1  -5  -4  189.78   15.10
   1  -5   4  145.69   39.30
  -1   5  -4  210.98   39.80
   1   5   4  240.98   22.50
  -1   5  -4  188.28   16.80
  -1   5  -4  191.98   22.30
  -1   5  -4  194.98   13.90
  -2  -5  -4  300.77   36.90
   2  -5   4  264.87   20.70
  -2  -5  -4  276.37   18.90
  -2  -5  -4  265.67   37.70
  -2  -5  -4  225.88   17.10
  -2  -5  -4  258.27   15.80
   2   5   4  259.47   22.20
  -2   5  -4  250.07   16.70
  -2   5  -4  244.28   22.60
   2   5   4  280.17   18.10
  -2   5  -4  288.67   48.40
  -2   5  -4  264.57   17.80
  -3  -5  -4    3.90    7.10
   3  -5   4   30.20   15.50
   3  -5   4   -6.50    9.50
  -3  -5  -4   -0.80    3.20
  -3   5  -4    5.50    4.20
   3   5   4   22.40    9.90
  -3   5  -4    1.00    7.30
   3  -6  -4  113.89   27.90
  -3   6   4  138.39   17.90
  -2  -6   4   23.60    9.20
  -2  -6   4   10.40    7.60
   2  -6  -4    6.10   16.70
   2   6  -4    3.60   14.40
  -2   6   4    6.00    4.30
  -2   6   4   28.20   14.00
  -1  -6   4  126.69   14.50
  -1  -6   4  107.89   15.10
  -1  -6   4   91.19   46.20
   1  -6  -4   95.89   20.70
  -1   6   4   89.59   17.80
  -1   6   4   97.89   13.30
   1   6  -4   77.89   16.60
   0  -6   4   29.50   26.50
   0  -6   4   49.99   20.70
   0  -6  -4   46.40   14.60
   0  -6  -4   70.09   25.20
   0  -6  -4   37.30   26.20
   0   6  -4   37.30   20.90
   0   6  -4   73.69   24.30
   0   6   4   42.20   12.40
   1  -6   4  158.98   60.09
  -1  -6  -4   32.60   26.90
  -1   6  -4   50.29   18.10
   2  -6   4   21.90   14.60
  -2  -6  -4    5.80    5.40
   2  -6   4   13.60   10.50
  -2  -6  -4    8.40    6.80
   2   6   4   28.80   11.80
  -2   6  -4    9.00    6.30
  -2   6  -4    9.20    7.80
   2   6   4   10.80   10.00
  -2   6  -4   -1.00   11.30
  -2   7   4   59.29   15.40
   2   7  -4   52.29   26.30
  -1  -7   4  106.09   17.80
  -1   7   4  140.29   23.70
   1   7  -4  116.69   17.40
   1   7  -4   62.09   30.10
   0  -7  -4   46.60   24.10
   0  -7   4   24.40   16.00
   0   7  -4   43.70    9.30
   0   7   4   81.39   20.70
  -1  -7  -4   92.69   33.00
  -1   7  -4   79.69   16.50
   1   7   4   80.79   17.30
  -1   7  -4   88.09   26.70
   2  -7   4   36.20   14.30
  -2  -7  -4   52.19   12.80
   0   8   4  227.98   20.40
   0   8  -4  214.58   19.60
   4   0  -5    2.90    9.00
   3   0  -5   68.59   22.80
   3   0  -5   79.19   32.40
   3   0  -5   87.79   23.50
   3   0  -5   77.19   36.80
   2   0  -5  -22.40   22.90
  -2   0   5   -3.70    8.60
   1   0  -5    2.60    4.00
  -1   0   5    0.70    1.90
   1   0  -5    0.60    4.20
   1   0  -5   -0.10    1.90
   1   0  -5    3.50    2.90
  -1   0   5    1.80    5.80
  -1   0   5   -0.50    1.60
   1   0  -5    1.00    2.10
   1   0  -5    3.50    7.50
  -1   0   5   -1.00    2.40
  -1   0   5    2.70    5.10
  -1   0   5   -0.50    1.50
  -1   0   5    6.60    2.70
  -1   0   5    2.80    2.00
   0   0   5   -0.60    2.40
   0   0  -5    2.20    2.00
   0   0  -5   -2.40    2.30
   0   0  -5    0.90    5.10
   0   0  -5    2.30    3.60
   0   0   5    1.40    2.50
   0   0   5    1.40    1.70
   0   0  -5   11.70    5.40
   0   0   5   11.70    6.40
   0   0  -5   -0.40    2.40
   0   0   5   -1.30    3.20
   0   0   5   -0.50    2.60
   0   0   5   -0.10    2.10
   0   0  -5   -0.30    3.30
   0   0   5    0.60    2.90
   0   0  -5    2.30    4.00
   0   0   5    0.80    2.30
   0   0  -5    1.80    2.90
  -1   0  -5    0.60    2.20
  -1   0  -5    5.40    6.30
  -1   0  -5   -2.20    2.80
  -1   0  -5    3.40    6.30
   1   0   5    3.60    3.10
  -1   0  -5    2.60    3.10
   1   0   5    6.70    7.10
  -1   0  -5    4.70    3.80
   1   0   5    3.00    4.70
   1   0   5   26.60   10.40
  -1   0  -5    3.70    7.70
   1   0   5   -7.80    5.00
   1   0   5   -4.20    4.90
  -1   0  -5    2.00    2.80
   1   0   5    3.20    4.00
  -1   0  -5    3.90    3.20
   1   0   5    4.20    4.70
  -2   0  -5   16.60   11.40
   2   0   5   12.10   21.50
   2   0   5    9.50   14.80
  -2   0  -5   -3.30    8.10
  -2   0  -5    7.20   20.80
   2   0   5   18.50   16.60
   3   0   5    3.40    8.90
   3   0   5    3.40   15.50
  -3   0  -5    0.10    3.30
  -3   0  -5   -0.70    4.90
   4   0   5   77.39   29.50
   4   0   5   56.99   22.30
   4   0   5   52.29   15.00
   4  -1  -5   94.99   45.80
   4   1  -5   93.79   18.40
   4   1  -5  111.89   16.20
   3  -1  -5  158.38   37.60
   3   1  -5  161.38   23.70
  -2  -1   5   57.49    6.60
   2  -1  -5   73.79   25.80
   2   1  -5  110.29   32.70
  -2   1   5   68.19   21.20
  -1  -1   5  263.77   13.30
   1  -1  -5  217.68   13.90
   1  -1  -5  258.87   13.50
  -1  -1   5  253.37   13.20
  -1  -1   5  233.08   13.70
  -1  -1   5  273.27   13.70
  -1  -1   5  248.28   13.50
   1  -1  -5  279.57   17.40
  -1  -1   5  224.48   14.00
  -1  -1   5  251.77   13.50
   1  -1  -5  253.57   16.00
  -1  -1   5  220.98   22.20
   1  -1  -5  240.78   18.80
  -1   1   5  225.48   13.40
   1   1  -5  258.57   14.50
   1   1  -5  276.97   17.10
  -1   1   5  249.78   14.80
   1   1  -5  273.67   18.40
   1   1  -5  228.18   17.00
   1   1  -5  239.68   14.20
  -1   1   5  236.98   14.90
  -1   1   5  265.97   13.30
   1   1  -5  227.78   14.60
  -1   1   5  256.47   13.00
  -1   1   5  213.88   14.40
  -1   1   5  238.78   14.00
   0  -1  -5  291.67   17.00
   0  -1  -5  353.86   17.10
   0  -1   5  336.37   17.10
   0  -1   5  345.67   18.20
   0  -1   5  319.47   16.70
   0  -1  -5  337.77   17.80
   0  -1  -5  337.67   17.40
   0  -1   5  359.26   17.90
   0  -1  -5  336.87   17.80
   0  -1   5  341.97   18.20
   0  -1   5  344.87   18.10
   0  -1  -5  317.97   17.80
   0  -1   5  279.67   18.10
   0  -1  -5  352.06   18.00
   0  -1   5  340.27   17.10
   0  -1  -5  324.47   18.70
   0  -1  -5  322.77   17.70
   0  -1  -5  319.67   17.40
   0  -1   5  339.17   18.70
   0   1   5  325.97   17.00
   0   1  -5  330.07   18.00
   0   1  -5  334.57   17.90
   0   1   5  335.87   18.50
   0   1  -5  322.67   17.90
   0   1  -5  342.67   17.20
   0   1   5  371.06   17.80
   0   1   5  324.97   19.00
   0   1  -5  308.27   17.80
   0   1   5  326.17   18.10
   0   1  -5  321.47   18.10
   0   1  -5  311.37   17.80
   0   1   5  356.56   17.30
   0   1   5  345.57   17.20
   0   1   5  336.37   17.70
   0   1  -5  334.67   17.20
   0   1   5  340.27   17.70
  -1  -1  -5   11.50    3.30
   1  -1   5    5.30    6.20
   1  -1   5   21.50   10.00
   1  -1   5   18.20    6.60
  -1  -1  -5   17.90    4.70
  -1  -1  -5   12.80    8.00
  -1  -1  -5   19.10    7.60
   1  -1   5   23.00   16.30
   1  -1   5   20.00   10.90
   1  -1   5   24.10    9.70
  -1  -1  -5   14.90    6.40
   1  -1   5   17.70    7.70
  -1  -1  -5   25.40    9.60
   1  -1   5    4.90    3.40
  -1   1  -5    9.40    4.10
  -1   1  -5   13.40    4.00
   1   1   5   25.60    9.70
  -1   1  -5   10.70    3.90
   1   1   5   15.70    7.20
   1   1   5   19.70    8.90
   1   1   5    9.30    5.10
   1   1   5    7.20    6.00
  -1   1  -5   15.30    8.60
  -1   1  -5    2.80    7.20
   1   1   5    4.50    2.70
   1   1   5    4.60    5.60
  -1   1  -5   13.50    6.80
  -1   1  -5   21.20    9.80
  -1   1  -5    6.10    3.90
  -2  -1  -5  492.05   29.90
  -2  -1  -5  469.15   44.40
  -2  -1  -5  483.55   29.70
   2  -1   5  571.44   40.40
  -2  -1  -5  529.25   24.40
  -2  -1  -5  472.75   24.10
   2  -1   5  426.06   57.39
  -2  -1  -5  498.05   28.30
  -2   1  -5  456.65   30.40
  -2   1  -5  558.54   31.80
  -2   1  -5  492.75   31.40
  -2   1  -5  390.96   47.80
  -2   1  -5  534.95   26.80
   2   1   5  468.75   38.90
   2   1   5  519.85   38.10
  -2   1  -5  505.45   24.30
  -2   1  -5  498.05   24.10
  -2   1  -5  453.45   30.00
  -3  -1  -5   69.49   26.90
   3  -1   5   58.49   18.40
   3  -1   5   63.59   33.70
  -3  -1  -5   80.99   10.00
  -3  -1  -5   79.79   31.40
  -3  -1  -5   79.49    9.40
   3  -1   5   59.59   20.10
   3  -1   5  105.49   24.30
   3   1   5   61.39   14.80
  -3   1  -5   85.69   33.70
  -3   1  -5   99.89    9.80
   3   1   5   50.39   24.10
   3   1   5   98.59   22.30
   4  -1   5   40.30   22.90
   4  -1   5   25.00   16.20
   4   1   5   12.50   13.40
   4   1   5    7.10   11.40
   4  -2  -5   42.90   21.40
   3  -2  -5  183.58   32.70
  -3  -2   5  173.18   10.80
   3  -2  -5  157.68   25.00
   3  -2  -5  161.18   36.00
  -3  -2   5  173.18   16.70
   3   2  -5  214.28   37.60
   3   2  -5  146.99   18.90
  -3   2   5  198.68   11.70
   3   2  -5  141.49   19.30
  -2  -2   5  118.39    7.10
  -2   2   5  126.19   12.80
  -2   2   5  102.29    9.90
  -2   2   5   68.69   30.10
   2   2  -5  114.79   40.60
  -1  -2   5   56.39    8.90
  -1  -2   5   51.99    8.30
   1  -2  -5   49.40   10.80
  -1  -2   5   46.50    6.00
   1  -2  -5   31.60   18.30
  -1  -2   5   56.19    8.80
   1  -2  -5   69.19    9.50
  -1  -2   5   37.00   11.90
  -1  -2   5   57.69    9.20
   1  -2  -5   57.59   12.30
  -1  -2   5   54.79    9.80
   1  -2  -5   70.19   16.50
  -1  -2   5   46.50   14.00
  -1  -2   5   47.90   10.30
  -1   2   5   44.40   10.30
   1   2  -5   35.20    8.00
  -1   2   5   57.19    8.50
   1   2  -5   31.10   13.20
   1   2  -5   37.20   20.60
  -1   2   5   48.40   14.70
   1   2  -5   23.80   13.90
  -1   2   5   46.30    6.80
  -1   2   5   47.50   11.10
  -1   2   5   50.49   14.70
   1   2  -5   33.30   11.00
  -1   2   5   36.00   12.40
   1   2  -5   51.99   10.30
   0  -2  -5   20.10    9.00
   0  -2  -5   12.10    6.50
   0  -2  -5   24.70    8.20
   0  -2  -5   37.50    7.00
   0  -2   5   21.40    7.30
   0  -2   5   32.80    6.80
   0  -2  -5   30.20    9.30
   0  -2  -5   19.50    7.00
   0  -2   5   17.20    9.00
   0  -2   5   28.80    4.80
   0  -2   5   21.40    8.90
   0  -2  -5   12.30    6.00
   0  -2   5   19.70    6.50
   0  -2   5   24.10    8.50
   0  -2   5   28.80    8.60
   0   2   5   17.60    7.50
   0   2   5   11.50    5.10
   0   2  -5   22.90   10.30
   0   2  -5   24.40    8.20
   0   2   5   18.90    7.00
   0   2  -5   22.60   10.30
   0   2  -5   22.90   10.10
   0   2  -5    5.60    8.50
   0   2   5   19.80    5.00
   0   2   5   19.70    5.20
   0   2  -5   16.80    6.90
  -1  -2  -5  279.57   18.90
   1  -2   5  318.17   19.20
   1  -2   5  288.87   21.70
   1  -2   5  324.57   22.10
   1  -2   5  259.97   20.80
  -1  -2  -5  309.67   23.80
  -1  -2  -5  309.77   17.70
   1  -2   5  291.27   22.40
   1  -2   5  340.27   29.00
  -1  -2  -5  306.77   18.90
   1   2   5  311.37   18.90
  -1   2  -5  309.87   19.90
  -1   2  -5  301.47   17.50
   1   2   5  319.37   22.30
   1   2   5  309.07   19.50
  -1   2  -5  276.97   28.70
  -1   2  -5  315.97   15.40
   1   2   5  286.87   20.70
   2  -2   5    9.50   12.30
  -2  -2  -5   26.80   12.80
  -2  -2  -5   29.00   17.50
  -2  -2  -5    5.30   15.30
   2  -2   5   31.40   15.90
  -2  -2  -5   25.40    8.50
  -2  -2  -5   17.10   11.70
   2  -2   5   11.30   22.90
   2  -2   5   12.80   12.00
   2   2   5   31.70   14.60
   2   2   5   40.60   19.60
  -2   2  -5    9.90   12.90
  -2   2  -5   98.39   30.50
  -2   2  -5   17.80    5.30
   2   2   5   -0.80    7.90
  -2   2  -5   14.60    7.50
   3  -2   5   68.69   17.30
   3  -2   5   42.90   25.10
  -3  -2  -5   66.79    9.10
  -3  -2  -5   66.99   31.10
   3  -2   5   80.59   21.50
  -3  -2  -5   45.70   12.60
  -3   2  -5   58.69   28.40
   3   2   5   56.59   14.30
   3   2   5   56.79   23.00
   3   2   5   80.59   24.30
   4  -2   5   41.30   15.70
   4  -2   5   47.40   22.40
   4   2   5   50.99   18.10
  -4   2  -5   19.00    9.00
   4   2   5   29.70   12.30
   4  -3  -5    9.20    6.40
   4   3  -5   36.20   15.60
   4   3  -5    6.30    5.50
  -3  -3   5   65.99   18.70
  -3  -3   5   68.29    8.00
  -3  -3   5   68.19    7.60
   3  -3  -5   69.09   20.90
  -3   3   5   49.80    9.10
  -3   3   5  111.19   24.40
  -3   3   5   48.30   10.60
   3   3  -5   46.30   16.90
   3   3  -5   92.79   15.90
  -2  -3   5  131.39   12.50
   2  -3  -5  151.08   23.00
   2  -3  -5  131.69   32.00
   2  -3  -5  116.89   30.80
  -2  -3   5  119.49    7.90
  -2  -3   5  121.39    8.30
  -2   3   5  106.19    9.30
   2   3  -5  102.49   35.20
  -2   3   5  112.29   15.30
   2   3  -5  150.18   16.60
   2   3  -5  133.89   33.50
   1  -3  -5  177.98   31.60
  -1  -3   5  233.58   18.80
  -1  -3   5  212.18   18.10
  -1  -3   5  226.08   11.50
  -1  -3   5  213.38   13.90
  -1  -3   5  221.58   20.20
  -1  -3   5  228.98   18.20
   1  -3  -5  246.68   23.00
  -1  -3   5  209.78   11.50
   1  -3  -5  224.58   23.00
   1  -3  -5  282.47   29.50
  -1  -3   5  204.68   19.90
  -1   3   5  211.08   12.40
   1   3  -5  218.98   23.40
  -1   3   5  226.68   18.70
   1   3  -5  195.38   19.10
  -1   3   5  166.88   26.70
  -1   3   5  224.38   12.00
  -1   3   5  224.28   14.90
   1   3  -5  243.78   26.70
  -1   3   5  234.88   19.10
   1   3  -5  195.58   22.00
   0  -3   5  258.97   19.40
   0  -3  -5  292.87   18.40
   0  -3   5  270.97   18.60
   0  -3   5  281.27   17.60
   0  -3   5  286.47   20.80
   0  -3  -5  266.07   18.10
   0  -3  -5  280.47   18.90
   0  -3   5  254.17   15.80
   0  -3  -5  298.17   20.20
   0  -3  -5  307.87   22.60
   0  -3   5  307.47   20.70
   0  -3  -5  269.57   21.30
   0  -3   5  270.67   19.20
   0  -3  -5  256.67   18.40
   0   3  -5  256.07   22.10
   0   3  -5  254.77   18.40
   0   3   5  268.67   18.00
   0   3  -5  290.17   20.50
   0   3   5  306.07   21.70
   0   3   5  281.97   18.80
   0   3   5  299.57   19.50
   0   3   5  285.17   15.00
   0   3  -5  294.27   33.00
   0   3  -5  316.27   23.50
   0   3  -5  270.07   16.30
   0   3  -5  270.27   23.10
  -1  -3  -5   12.40   12.90
   1  -3   5   19.30   12.60
  -1  -3  -5   11.40    8.80
  -1  -3  -5   14.70    4.70
  -1  -3  -5   46.20   20.80
   1  -3   5   15.80    9.80
   1  -3   5   34.40   15.10
  -1  -3  -5   10.20    7.40
   1  -3   5   58.19   37.90
  -1  -3  -5    4.30    5.20
   1  -3   5    4.80    7.30
  -1   3  -5   47.80   17.70
  -1   3  -5   10.80    2.90
   1   3   5   46.70   17.40
  -1   3  -5   48.60   23.40
  -1   3  -5   16.10    6.20
   1   3   5   18.90   11.10
  -1   3  -5   16.70    9.70
  -1   3  -5    6.10   18.80
   1   3   5    4.20   13.80
  -1   3  -5   12.50    5.50
   1   3   5   28.20   13.50
  -2  -3  -5   81.19    7.60
  -2  -3  -5   91.59   15.90
  -2  -3  -5   98.39   19.30
  -2   3  -5   79.69    7.70
   2   3   5   95.99   16.20
   2   3   5   96.59   21.10
   2   3   5   69.49   19.30
  -2   3  -5   72.29    8.30
  -2   3  -5  123.99   19.00
   2   3   5  120.59   28.50
  -3  -3  -5   76.89   31.80
  -3  -3  -5   68.29   31.20
   3  -3   5   99.59   32.90
   3  -3   5   36.80   20.10
  -3  -3  -5   92.69   17.20
   3  -3   5   74.99   16.40
  -3  -3  -5   65.99    7.80
  -3  -3  -5   62.89    8.80
  -3   3  -5   72.49   10.40
   3   3   5   69.99   14.30
   3   3   5   74.09   22.00
  -3   3  -5   48.50    9.20
  -3   3  -5   61.89   19.20
   3   3   5   45.80   21.80
   4  -3   5    0.40    7.70
   4  -3   5    2.10    9.50
   4  -3   5    0.40    3.60
   4   3   5    1.80    8.40
   4  -4  -5    3.20   14.70
  -3  -4   5   17.20    8.10
  -3  -4   5   14.20    6.40
   3  -4  -5    7.90    9.80
   3   4  -5   10.30   20.60
  -3   4   5    4.80    5.70
  -3   4   5    3.80    4.00
  -2  -4   5  391.76   20.70
   2  -4  -5  343.57   32.60
  -2  -4   5  409.26   20.20
   2  -4  -5  404.66   40.40
  -2  -4   5  413.76   26.40
   2  -4  -5  329.27   39.00
  -2   4   5  394.76   21.70
   2   4  -5  454.95   23.20
  -2   4   5  415.66   29.20
   2   4  -5  451.05   37.70
  -2   4   5  392.66   21.40
   2   4  -5  415.96   29.10
   1  -4  -5  192.68   38.50
  -1  -4   5  191.08   21.70
   1  -4  -5  170.58   22.70
  -1  -4   5  185.68   17.80
   1  -4  -5  149.79   21.10
   1  -4  -5  146.09   32.80
  -1  -4   5  168.58   18.80
  -1  -4   5  179.78   10.90
  -1  -4   5  175.18   10.40
  -1   4   5  178.38   11.40
   1   4  -5  168.18   20.20
  -1   4   5  215.48   18.40
  -1   4   5  193.28   11.60
   1   4  -5  189.28   13.90
   0  -4  -5  226.28   28.00
   0  -4  -5  291.77   23.20
   0  -4   5  240.78   14.90
   0  -4  -5  230.18   29.70
   0  -4   5  261.57   31.30
   0  -4   5  256.67   23.50
   0  -4   5  247.28   15.20
   0   4  -5  233.18   35.20
   0   4   5  259.57   48.40
   0   4   5  269.17   21.50
   0   4   5  209.08   27.80
   0   4  -5  197.18   24.60
   0   4  -5  255.97   38.00
   0   4   5  253.27   15.20
   0   4   5  224.18   31.10
   1  -4   5  519.95   38.80
  -1  -4  -5  517.35   34.20
  -1  -4  -5  540.35   26.90
  -1  -4  -5  536.85   27.40
  -1  -4  -5  569.04   33.60
   1   4   5  605.04   29.80
   1   4   5  510.85   33.10
  -1   4  -5  561.34   27.50
  -1   4  -5  601.44   35.50
  -1   4  -5  537.35   27.80
  -2  -4  -5   42.20    7.00
   2  -4   5   82.39   20.40
   2  -4   5   45.90   15.30
  -2  -4  -5   44.70   11.50
  -2  -4  -5   55.39    8.50
   2  -4   5   68.89   33.30
  -2  -4  -5   33.90   13.00
  -2  -4  -5   47.00   24.20
   2   4   5   31.50   13.50
  -2   4  -5   42.30   18.20
   2   4   5   81.39   18.40
  -2   4  -5   52.89    9.70
  -2   4  -5   78.59   27.30
   2   4   5   55.99   14.30
  -2   4  -5   49.60    8.50
  -3  -4  -5  139.49   12.90
  -3  -4  -5  125.89   16.30
   3  -4   5   86.59   24.50
   3  -4   5  104.79   17.90
   3  -4   5  115.29   33.80
  -3  -4  -5  126.89    9.60
  -3   4  -5  118.89   13.50
   3   4   5  130.29   24.10
  -3   4  -5  117.99   11.00
   3   4   5  156.78   15.00
   3  -5  -5   12.50   13.10
   3   5  -5   55.79   38.10
   3   5  -5   22.10   12.10
   3   5  -5    5.90    4.90
  -2  -5   5   14.60    7.10
  -2  -5   5   21.50    8.10
  -2  -5   5    2.50   13.30
   2  -5  -5    7.10    8.40
   2  -5  -5   38.80   24.70
   2   5  -5    9.30   14.70
   2   5  -5   31.20   11.20
   2   5  -5   -4.40   14.30
  -2   5   5   89.59   35.20
  -2   5   5   18.60   10.20
  -1  -5   5   53.29   28.40
  -1  -5   5   37.60   11.00
  -1  -5   5   38.30    7.70
  -1  -5   5   51.79   13.90
   1  -5  -5   27.30   26.90
   1  -5  -5   78.99   38.60
  -1  -5   5   63.79   24.30
   1  -5  -5   37.30   19.00
   1   5  -5   32.30    9.20
  -1   5   5   49.00   27.30
  -1   5   5   37.50   11.00
  -1   5   5   54.79    8.60
   0  -5  -5    4.10   15.00
   0  -5   5    3.20   18.70
   0  -5   5   29.40   14.80
   0  -5  -5   12.10   11.30
   0  -5  -5   15.20   10.80
   0  -5   5   14.10    8.80
   0   5  -5    9.80    8.70
   0   5  -5   16.60   10.60
  -1  -5  -5    8.70    7.10
   1  -5   5   12.30   21.10
  -1  -5  -5    3.60   15.60
  -1  -5  -5    8.20    6.50
  -1  -5  -5   20.60   16.00
  -1   5  -5   33.80   15.50
   1   5   5   37.70   16.90
  -1   5  -5   44.90   13.50
   2  -5   5   64.19   19.80
  -2  -5  -5   68.19   10.10
  -2  -5  -5   53.09   11.50
  -2  -5  -5   39.20   13.00
   2  -5   5   29.40   14.80
  -2  -5  -5   33.10   19.30
  -2  -5  -5  105.79   36.00
   2   5   5   79.99   13.40
  -2   5  -5   77.09   15.60
  -2   5  -5   37.90   12.50
   2   5   5   37.30   16.60
  -2   5  -5   41.00   11.20
   3  -5   5   -2.10    8.70
   3  -5   5   20.10   11.10
  -3  -5  -5   -0.40    6.80
  -3  -5  -5   -0.40    3.40
  -3   5  -5    2.80    4.30
   3   5   5   22.10   10.30
   3  -6  -5    3.90   12.80
  -3   6   5   42.90   18.00
  -2  -6   5  172.78   12.40
  -2  -6   5  156.48   16.30
  -2  -6   5  177.28   15.50
   2  -6  -5  112.99   35.70
  -2   6   5  180.78   17.40
  -2   6   5  173.88   13.10
   2   6  -5  139.39   33.60
  -1  -6   5   50.09   16.20
   1  -6  -5   25.60   11.70
   1  -6  -5  140.59   65.39
  -1  -6   5    0.40   31.00
  -1   6   5   51.89   23.80
  -1   6   5   28.60   12.30
   1   6  -5   55.39   15.60
   0  -6   5  100.99   47.50
   0  -6  -5   76.99   24.80
   0  -6  -5   73.79   43.60
   0  -6   5   40.60   22.20
   0   6  -5   64.39   19.70
   0   6  -5   58.09   21.20
  -1  -6  -5  136.29   17.20
  -1  -6  -5  173.18   42.10
   1  -6   5  182.88   59.89
  -1   6  -5  136.59   18.40
  -1   6  -5  119.39   41.90
   1   6   5  104.79   17.80
  -2  -6  -5   72.99   12.80
   2  -6   5   64.79   18.30
   2  -6   5   44.40   14.30
  -2  -6  -5   40.80   12.40
  -2   6  -5   62.89   13.00
   2   6   5   75.39   11.90
   2   6   5   86.99   19.30
   2   7  -5   14.10   12.50
  -2   7   5    5.40    8.40
  -1  -7   5  147.89   18.90
   1   7  -5  180.58   19.20
   1   7  -5  184.08   30.80
  -1   7   5  127.79   24.60
   0  -7  -5   99.49   23.50
   0   7  -5   80.89   19.00
   1  -7   5    4.80    8.40
   1   7   5    0.30    7.30
  -1   7  -5    7.80    7.10
   2  -7   5   66.09   13.20
  -2  -7  -5   97.39   14.30
  -2   7  -5   78.39   13.50
   3   0  -6   43.70   12.10
   2   0  -6  189.38   27.30
   1   0  -6  195.58   12.70
   1   0  -6  225.68   17.50
  -1   0   6  191.98   12.40
   1   0  -6  206.38   15.00
   1   0  -6  222.28   13.30
  -1   0   6  228.58   12.20
  -1   0   6  226.48   11.20
  -1   0   6  202.58   11.40
  -1   0   6  190.98   12.30
  -1   0   6  204.68   12.80
   1   0  -6  171.38   12.70
   1   0  -6  206.28   13.90
   0   0   6   36.20    7.20
   0   0  -6   40.00    8.50
   0   0  -6   36.30    7.00
   0   0  -6   41.30    6.20
   0   0  -6   39.90    7.40
   0   0  -6   35.80    7.40
   0   0   6   44.00    5.80
   0   0  -6   37.80    9.20
   0   0  -6   43.00    7.10
   0   0   6   45.30    8.00
   0   0  -6   44.00    7.80
   0   0   6   39.10    7.00
   0   0   6   43.50    5.90
   0   0  -6   49.40    8.80
   0   0   6   57.39    8.10
   0   0   6   29.60    6.90
   0   0   6   48.10    6.60
   0   0   6   40.40    5.70
  -1   0  -6   64.99    5.90
   1   0   6   66.39   11.60
   1   0   6   66.59    9.20
  -1   0  -6   89.89   11.10
   1   0   6   68.39    8.90
  -1   0  -6   76.29    8.30
   1   0   6  103.29   15.10
  -1   0  -6   78.79   10.10
   1   0   6   71.29   17.10
   1   0   6   73.29   10.70
  -1   0  -6   74.39   10.40
  -1   0  -6   67.09    8.80
  -1   0  -6   83.89    9.40
  -1   0  -6   58.29   10.00
  -2   0  -6  217.58   20.40
  -2   0  -6  162.28   20.80
  -2   0  -6  141.69   40.10
   2   0   6   92.49   32.00
  -2   0  -6  157.88    9.80
  -2   0  -6  158.38   23.50
  -2   0  -6  191.58   20.60
   2   0   6  207.28   32.30
  -2   0  -6  154.78   10.00
   3   0   6   79.69   24.00
  -3   0  -6  128.99   10.90
   3   0   6  110.39   27.50
  -3   0  -6  113.79    9.70
   3   0   6  121.49   17.80
  -4   0  -6  102.69   10.00
   4   0   6  150.08   31.00
   4   0   6   99.09   16.20
   4   0   6   94.99   23.10
   4  -1  -6   96.39   47.00
   4  -1  -6   68.89   33.10
   3  -1  -6  -22.00   15.50
   3  -1  -6   44.40   24.30
   3  -1  -6    4.20   20.70
   3   1  -6    4.50    9.60
   3   1  -6   -4.40   15.70
   3   1  -6   52.09   32.20
   2  -1  -6   13.70   30.30
  -2   1   6   22.10   13.30
   2   1  -6   -2.90   13.80
  -1  -1   6   26.70    9.90
   1  -1  -6   23.30    9.60
   1  -1  -6   22.90    7.60
  -1  -1   6   25.30    6.20
  -1  -1   6   13.70    4.10
  -1  -1   6   19.30    5.60
  -1  -1   6    7.40    5.20
  -1  -1   6   20.50    3.20
  -1  -1   6   22.00    7.30
  -1  -1   6   16.70    7.40
   1  -1  -6    4.10    8.20
   1  -1  -6   16.30    6.60
  -1  -1   6   14.20    7.30
   1   1  -6   14.00    5.80
  -1   1   6   20.10    4.90
  -1   1   6   19.20    6.20
  -1   1   6   18.50    6.20
   1   1  -6   26.80    8.40
  -1   1   6   19.10    9.80
  -1   1   6   21.80    5.70
  -1   1   6   11.00    4.30
  -1   1   6   37.30   10.10
  -1   1   6   17.60    3.90
   0  -1   6   11.90    5.40
   0  -1   6   19.10    7.60
   0  -1  -6    3.60    4.50
   0  -1  -6    0.40    4.20
   0  -1  -6    7.00    5.70
   0  -1  -6   -2.40    6.20
   0  -1  -6    4.80    3.00
   0  -1  -6    2.80    2.80
   0  -1   6    0.50    4.20
   0  -1  -6    0.30    3.10
   0  -1   6    1.80    4.70
   0  -1   6    1.90    4.50
   0  -1   6   -0.50    4.90
   0  -1   6    1.90    2.50
   0  -1  -6   10.40    6.60
   0  -1  -6   21.80   11.20
   0  -1   6    2.90    3.60
   0  -1   6   10.50    4.90
   0   1  -6   11.00    7.80
   0   1  -6    4.30    6.50
   0   1  -6    4.80    3.20
   0   1   6    9.40    4.30
   0   1  -6    0.20    3.50
   0   1  -6    1.50    3.20
   0   1  -6   -1.50    4.80
   0   1   6    4.00    3.50
   0   1   6    2.90    2.30
   0   1   6   14.00    8.10
   0   1   6    4.10    7.60
   0   1   6    1.80    3.90
   0   1   6    4.10    5.80
   0   1   6   14.30    6.00
   0   1  -6    5.60    4.20
   0   1  -6    0.50    3.00
   0   1  -6    5.50    3.40
   0   1   6   -3.20    4.90
   1  -1   6   10.80    9.10
  -1  -1  -6    3.90    4.40
  -1  -1  -6   10.70    4.60
   1  -1   6   -0.60    4.60
   1  -1   6    5.80    6.80
   1  -1   6    3.50    3.30
  -1  -1  -6   -1.00    3.70
  -1  -1  -6    0.20    4.20
  -1  -1  -6    4.70    8.80
   1  -1   6   10.20    6.30
   1  -1   6   14.10    6.80
  -1  -1  -6   17.30    7.80
  -1  -1  -6   -0.20    9.60
   1   1   6    3.90    5.50
   1   1   6   18.70    8.80
  -1   1  -6   -6.40    9.00
  -1   1  -6    5.10    9.70
  -1   1  -6    3.10    4.40
  -1   1  -6   -4.30    4.20
  -1   1  -6    3.00    2.30
   1   1   6   10.90    6.70
   1   1   6    5.90    6.30
  -1   1  -6    5.00    4.50
   1   1   6    3.30    6.90
   1   1   6    1.00    2.80
  -1   1  -6    4.70    3.80
   2  -1   6   78.09   34.40
  -2  -1  -6   57.69   17.90
  -2  -1  -6   21.60   10.30
  -2  -1  -6   49.10    6.10
  -2  -1  -6   46.10    6.20
   2   1   6   14.90   23.40
  -2   1  -6    1.90   17.80
  -2   1  -6   39.10   13.90
   2   1   6   39.70   21.30
  -2   1  -6   48.60    5.60
  -2   1  -6   45.10    6.30
  -2   1  -6   23.20   11.10
   3  -1   6    6.00    6.70
  -3  -1  -6   20.30    7.40
   3  -1   6   18.80   18.10
   3  -1   6    1.50    9.60
  -3  -1  -6   24.20    8.80
   3  -1   6   41.80   23.70
  -3  -1  -6   68.39   41.10
   3   1   6   10.10    9.30
  -3   1  -6    7.20    3.40
  -3   1  -6    2.60   17.40
  -3   1  -6   16.00    5.50
   3   1   6    6.80   12.50
   3   1   6   14.20    8.30
   4  -1   6  127.79   24.20
   4  -1   6   81.99   16.00
   4   1   6   88.09   14.30
   4   1   6   68.39   23.90
   4   1   6   89.19   20.70
  -4   1  -6   81.49    9.10
   4  -2  -6  127.39   44.40
   4  -2  -6  154.18   24.00
   4   2  -6  108.49   17.80
   4   2  -6  135.09   15.40
  -3  -2   6  155.18    9.90
   3  -2  -6  153.38   23.50
   3  -2  -6  148.39   31.10
   3  -2  -6  147.69   38.30
  -3   2   6  144.09   11.10
   3   2  -6  176.98   34.80
   3   2  -6  124.29   19.60
   3   2  -6  154.68   18.10
  -2  -2   6  223.48   11.30
  -2  -2   6  211.68   11.60
   2  -2  -6  211.28   26.80
   2  -2  -6  231.98   60.29
  -2  -2   6  187.68   15.40
   2   2  -6  165.28   33.50
  -2   2   6  219.08   11.80
   2   2  -6  243.88   24.40
  -1  -2   6  513.75   22.60
  -1  -2   6  481.15   23.70
  -1  -2   6  454.65   26.40
   1  -2  -6  512.25   30.40
   1  -2  -6  541.95   36.30
  -1  -2   6  507.55   25.60
  -1  -2   6  411.66   24.80
  -1  -2   6  500.05   25.90
  -1  -2   6  431.66   25.30
   1  -2  -6  517.25   27.90
   1  -2  -6  457.45   25.70
  -1   2   6  480.75   26.80
   1   2  -6  442.36   30.10
   1   2  -6  412.46   33.60
  -1   2   6  469.85   24.10
  -1   2   6  498.45   25.10
   1   2  -6  504.45   30.60
  -1   2   6  449.56   22.70
  -1   2   6  473.95   24.90
   1   2  -6  459.75   27.30
   1   2  -6  445.86   24.40
   0  -2  -6   69.79   10.40
   0  -2  -6   82.99    8.80
   0  -2   6   72.09    6.20
   0  -2  -6   72.79   10.50
   0  -2   6   72.79    9.90
   0  -2  -6   68.99    9.10
   0  -2   6   56.29   15.10
   0  -2   6   78.19   11.80
   0  -2  -6   84.69   10.20
   0  -2  -6   77.79   11.70
   0  -2   6   78.79   10.20
   0  -2   6   76.49   11.70
   0  -2   6   73.89   11.10
   0  -2  -6   87.09   11.40
   0   2   6   74.39    9.00
   0   2   6   68.69    6.30
   0   2  -6   80.09    8.80
   0   2   6   81.69    9.90
   0   2  -6   74.59   12.60
   0   2  -6   61.89   10.10
   0   2  -6   74.89   12.80
   0   2   6   64.69   14.00
   0   2   6   75.79   11.10
   0   2   6   77.69    8.80
   0   2  -6   89.59   12.80
   0   2  -6   53.69   12.90
   0   2   6   73.69    9.50
   1  -2   6  505.05   28.60
   1  -2   6  498.85   28.00
  -1  -2  -6  503.85   26.80
  -1  -2  -6  520.95   28.10
  -1  -2  -6  520.15   27.80
  -1  -2  -6  462.45   27.50
   1  -2   6  491.05   30.30
  -1  -2  -6  502.85   28.80
   1  -2   6  548.45   37.70
  -1  -2  -6  464.15   24.30
   1  -2   6  512.45   31.10
  -1  -2  -6  481.55   32.60
   1   2   6  458.85   28.30
   1   2   6  483.65   27.80
   1   2   6  498.85   31.20
   1   2   6  507.85   30.00
  -1   2  -6  523.65   30.30
  -1   2  -6  500.15   26.70
  -1   2  -6  538.05   28.40
  -1   2  -6  498.35   24.50
  -1   2  -6  521.75   28.50
  -1   2  -6  471.75   26.70
  -1   2  -6  505.95   24.30
   2  -2   6  123.79   17.20
   2  -2   6  170.88   26.00
  -2  -2  -6  115.89   20.30
  -2  -2  -6  154.88    9.00
   2  -2   6  112.29   21.20
  -2  -2  -6  154.58   16.70
  -2   2  -6  132.79    9.40
   2   2   6  174.78   21.90
   2   2   6  105.39   20.60
   2   2   6  102.69   17.40
  -2   2  -6  137.59    9.10
   2   2   6  146.39   30.70
  -2   2  -6  164.88   17.10
  -3  -2  -6  -13.10   19.30
  -3  -2  -6   -3.70   13.00
  -3  -2  -6   22.10    8.10
   3  -2   6   10.20   11.10
  -3  -2  -6   14.70    8.30
  -3   2  -6   13.10    5.60
   3   2   6    1.60   12.20
   3   2   6    4.00    7.60
  -3   2  -6    9.20   16.80
   4  -2   6   59.99   23.30
   4  -2   6   43.10   15.10
   4   2   6   65.49   18.90
   4   2   6   40.00   11.30
   4   2   6   23.10   11.80
  -4   2  -6   21.40    8.20
   4  -3  -6   66.69   24.90
   4   3  -6   51.09   10.70
  -3  -3   6  364.66   18.30
  -3  -3   6  351.06   17.90
   3  -3  -6  351.56   27.60
  -3  -3   6  331.27   25.60
   3  -3  -6  271.97   37.90
   3  -3  -6  307.07   36.00
   3   3  -6  313.47   21.30
  -3   3   6  362.36   19.10
  -3   3   6  346.17   19.60
   3   3  -6  383.26   40.20
   3   3  -6  351.66   23.60
  -3   3   6  343.67   30.70
   2  -3  -6  269.07   34.20
   2  -3  -6  273.27   37.70
   2  -3  -6  266.27   27.10
  -2  -3   6  273.17   18.40
  -2  -3   6  267.57   14.60
  -2  -3   6  280.77   14.50
  -2   3   6  291.77   17.30
   2   3  -6  290.17   21.10
  -2   3   6  273.17   15.50
   2   3  -6  314.47   24.70
   2   3  -6  248.28   32.80
  -2   3   6  302.57   20.70
  -1  -3   6  126.39   15.20
   1  -3  -6   86.19   24.30
  -1  -3   6  131.59    8.00
  -1  -3   6  141.29   17.90
   1  -3  -6  125.79   23.20
  -1  -3   6  123.79   10.60
  -1  -3   6  159.28   19.00
  -1  -3   6  133.49    7.90
  -1  -3   6  140.09   16.90
  -1   3   6  131.59    8.40
  -1   3   6  136.69    9.20
  -1   3   6  134.59   14.40
  -1   3   6  143.79   18.10
  -1   3   6  120.19   17.40
  -1   3   6  144.49   27.80
   1   3  -6  108.09   28.90
   1   3  -6  131.59   22.50
   0  -3  -6  575.94   34.10
   0  -3  -6  591.14   33.40
   0  -3   6  534.75   31.00
   0  -3  -6  620.34   31.50
   0  -3   6  583.64   32.20
   0  -3  -6  577.34   32.00
   0  -3  -6  505.55   35.90
   0  -3  -6  573.94   32.10
   0  -3   6  580.04   28.20
   0  -3   6  606.34   28.30
   0  -3   6  587.24   34.60
   0  -3  -6  604.74   35.20
   0  -3   6  575.24   30.80
   0  -3   6  532.15   32.60
   0   3  -6  579.44   35.70
   0   3  -6  583.14   34.60
   0   3   6  594.34   32.30
   0   3   6  613.44   28.50
   0   3  -6  607.44   30.00
   0   3   6  605.14   28.80
   0   3  -6  541.05   31.50
   0   3   6  602.14   32.30
   0   3  -6  547.85   34.40
   0   3   6  577.94   30.90
   0   3  -6  614.24   33.40
   0   3  -6  577.34   36.40
   1  -3   6  130.09   21.70
  -1  -3  -6  107.79   20.10
  -1  -3  -6  158.58   25.80
  -1  -3  -6  131.89   14.70
   1  -3   6  106.69   25.10
  -1  -3  -6  100.19   13.60
  -1  -3  -6  100.29    8.00
   1  -3   6   70.39   28.40
  -1  -3  -6   79.69   19.50
  -1  -3  -6  131.79   22.40
   1  -3   6  113.19   19.40
  -1  -3  -6  104.69   10.30
   1  -3   6  134.59   42.20
  -1   3  -6  107.99   27.70
  -1   3  -6  177.38   28.30
   1   3   6  131.29   20.40
   1   3   6  124.19   21.40
  -1   3  -6  111.59    8.50
   1   3   6   83.69   24.30
  -1   3  -6  131.09   20.50
  -1   3  -6  129.99   15.10
  -1   3  -6  111.59   21.50
   1   3   6  126.69   27.10
  -2  -3  -6   83.89   18.70
   2  -3   6  130.39   19.60
  -2  -3  -6  123.49   21.00
   2  -3   6  112.79   16.90
  -2   3  -6  137.49   20.80
  -2   3  -6  108.59    9.20
  -3  -3  -6   50.59    7.70
  -3  -3  -6   88.09   16.30
   3  -3   6   63.29   14.90
   3  -3   6   68.79   21.00
   3  -3   6   44.70   14.90
  -3  -3  -6   63.19   34.30
  -3  -3  -6   95.49   34.40
   3   3   6   58.99   20.70
   3   3   6   70.79   24.70
   3   3   6   42.40   14.50
  -3   3  -6   65.29   10.40
  -3   3  -6   55.79    9.00
  -3   3  -6   66.79   22.00
   4  -3   6   39.60   12.80
   4  -3   6   57.19   20.90
   4   3   6   77.29   19.90
   4   3   6   37.30    7.70
   3  -4  -6   43.30   28.10
  -3  -4   6   46.00    8.10
   3  -4  -6   34.10   13.00
  -3  -4   6   45.90    6.90
   3   4  -6   77.19   38.80
  -3   4   6   29.00   10.30
   3   4  -6   47.40   12.80
   3   4  -6   70.19   16.40
   2  -4  -6  122.19   31.20
   2  -4  -6  115.29   25.40
  -2  -4   6   95.39    7.20
  -2  -4   6   87.89    8.00
  -2  -4   6   62.39   16.60
  -2   4   6   84.09    9.20
   2   4  -6   58.99   30.70
  -2   4   6   91.99   20.30
   2   4  -6   98.39   15.60
  -2   4   6   78.79    9.30
  -1  -4   6   13.60    7.40
  -1  -4   6   -1.00   12.50
   1  -4  -6    3.70    6.90
  -1  -4   6    2.80    3.30
   1  -4  -6  -14.60   18.70
  -1  -4   6    4.40    2.40
   1  -4  -6   -1.20    9.90
  -1  -4   6    3.90    6.90
   1  -4  -6    9.50   16.10
  -1   4   6    1.80    2.90
   1   4  -6    1.60    5.80
   1   4  -6   -8.90    9.10
  -1   4   6    4.40    8.20
  -1   4   6    2.20    3.50
   0  -4  -6   50.89   20.90
   0  -4   6   85.89   11.20
   0  -4   6   90.69   31.10
   0  -4  -6   92.19   20.70
   0  -4   6   76.59   21.40
   0  -4   6  124.99   20.20
   0  -4  -6   82.69   19.30
   0   4   6   93.59   10.60
   0   4  -6  101.09   20.60
   0   4   6  124.39   33.20
   0   4  -6   42.60   22.30
   0   4  -6  129.49   20.20
   0   4   6   82.39   18.70
   0   4   6   90.39   27.00
   0   4   6  100.39   10.10
  -1  -4  -6   34.80   17.90
  -1  -4  -6   29.60   16.90
  -1  -4  -6    0.70   10.70
  -1  -4  -6   14.40    7.60
  -1  -4  -6    1.50    6.20
   1  -4   6   49.00   24.90
  -1   4  -6   56.89   23.30
  -1   4  -6    3.70    3.60
  -1   4  -6    5.90    5.00
   1   4   6   13.10    8.40
  -1   4  -6    0.80    7.60
   1   4   6    8.00    7.30
   2  -4   6   23.70   14.70
  -2  -4  -6   34.20   17.80
   2  -4   6   38.50   18.70
  -2  -4  -6   35.80    7.30
  -2  -4  -6   33.60    8.90
   2  -4   6   26.30   14.70
  -2  -4  -6   42.40   11.80
  -2   4  -6   43.40    9.30
   2   4   6   51.89   13.30
   2   4   6   54.09   17.90
   2   4   6   46.80   25.60
  -2   4  -6   35.00    8.80
  -2   4  -6   26.30    9.10
   3  -4   6   27.00   14.90
  -3  -4  -6   36.60   11.50
   3   4   6   32.00   20.00
  -3   4  -6   33.90   13.40
   3  -5  -6   71.69   18.90
   3  -5  -6   54.89   27.70
  -3  -5   6  116.99    8.60
  -3   5   6  102.39   10.80
   3   5  -6  146.19   33.30
   3   5  -6   86.29   11.90
   3   5  -6   90.99   10.70
  -2  -5   6   22.90   14.90
  -2  -5   6   20.30    8.40
   2  -5  -6   17.70   14.40
  -2  -5   6   14.40    3.60
  -2  -5   6   33.10   14.60
   2  -5  -6    9.50    8.20
   2  -5  -6    8.80    9.40
  -2   5   6   18.90   17.90
   2   5  -6   19.50    7.40
  -2   5   6   28.70    8.90
  -2   5   6   17.30    6.30
   2   5  -6   21.00   12.20
   2   5  -6    9.70   12.50
   2   5  -6   21.10   11.00
   1  -5  -6   43.00   29.30
  -1  -5   6   65.49   11.80
  -1  -5   6   68.59   32.20
  -1  -5   6   50.19   13.20
  -1  -5   6   49.30   26.50
   1  -5  -6   72.69   29.50
   1  -5  -6   42.00   20.00
  -1  -5   6   43.40    8.20
   1  -5  -6   52.89   18.00
  -1   5   6   44.90   15.40
  -1   5   6   49.20   11.30
   1   5  -6   51.09   18.00
  -1   5   6   55.79    9.90
   0  -5  -6  255.77   24.60
   0  -5  -6  256.47   33.20
   0  -5   6  256.67   35.10
   0   5  -6  218.58   29.20
  -1  -5  -6  364.56   35.90
  -1  -5  -6  350.86   22.30
   1  -5   6  268.27   22.30
  -1  -5  -6  300.17   19.10
   1  -5   6  408.36   42.90
  -1  -5  -6  268.57   36.10
   1   5   6  307.17   20.90
  -1   5  -6  353.56   22.90
  -1   5  -6  358.86   20.10
  -1   5  -6  339.97   46.70
   1   5   6  356.76   25.30
  -1   5  -6  321.47   21.90
   2  -5   6   43.10   16.90
  -2  -5  -6   30.60   21.20
  -2  -5  -6   88.39   39.00
  -2  -5  -6    6.10   10.90
   2  -5   6   55.09   19.90
  -2  -5  -6   49.99   10.10
  -2  -5  -6   29.30   12.30
  -2   5  -6   37.90   14.20
   2   5   6   28.70   16.50
  -2   5  -6   30.40   12.30
  -2   5  -6   43.70   27.90
  -2   5  -6   29.70   11.00
   3  -5   6  101.59   17.00
   3  -5   6   85.59   12.80
  -3  -5  -6   88.49   10.10
  -3   5  -6   73.89   18.70
  -3   5  -6  102.09   12.70
   3   5   6  103.29   13.10
   3  -6  -6    7.90   13.70
  -2  -6   6   44.30   14.70
  -2  -6   6   55.69   12.50
   2  -6  -6   45.60   33.20
  -2  -6   6   47.90   12.70
  -2   6   6   56.69   14.70
   2   6  -6   41.40   28.70
  -1  -6   6   40.00   14.10
   0  -6  -6   86.29   52.49
   0  -6  -6  150.88   25.10
   0  -6   6  139.99   49.70
   0   6   6   96.49   27.60
   0   6  -6  104.09   20.40
  -1  -6  -6   67.19   32.40
  -1  -6  -6   73.09   16.40
   1  -6   6   27.90   36.80
  -1   6  -6  102.69   15.30
   1   6   6   79.69   17.60
   2  -6   6   52.59   17.80
  -2  -6  -6   62.09   12.90
  -2  -6  -6   40.80   11.90
  -2   6  -6   48.10   12.40
  -2  -7   6  100.29   13.50
  -2   7   6  119.29   16.80
   2   7  -6   75.99   26.00
  -1  -7   6   39.70   15.00
   1   7  -6    8.50    7.20
   1   7  -6    1.40   12.50
   0  -7  -6  227.28   27.30
   0  -7   6  139.69   29.50
   0   7   6  159.98   24.60
   0   7  -6  188.28   26.70
   0   7  -6  190.58   33.00
   1  -7   6    4.30    7.80
  -1  -7  -6   -5.30   17.80
  -1  -7  -6    0.20    9.50
   1   7   6   14.80    8.00
   2  -7   6    0.60    7.50
  -2  -7  -6    4.60    7.00
  -2   7  -6   24.40   12.90
   3   0  -7    9.00   13.60
   3   0  -7   80.29   39.90
   2   0  -7    9.80   29.50
  -1   0   7    1.40    3.20
  -1   0   7   -1.00    1.70
  -1   0   7    2.70    2.10
  -1   0   7   -2.50    6.30
   1   0  -7   -5.80    3.40
  -1   0   7   -1.90    4.30
   1   0  -7    5.50   10.00
   1   0  -7    2.10    6.90
  -1   0   7    3.80    4.40
  -1   0   7   -1.80    2.50
   1   0  -7    2.60    3.70
   1   0  -7    4.40    6.10
  -1   0   7   -5.90    4.70
   0   0  -7    2.10    4.80
   0   0  -7   -3.00    7.00
   0   0  -7    2.30    3.50
   0   0   7    0.70    4.20
   0   0  -7    2.50    6.20
   0   0   7   10.30    5.60
   0   0   7    1.30    3.80
   0   0  -7    4.10    5.60
   0   0   7    0.50    3.90
   0   0   7    6.00    4.40
   0   0   7    3.70    2.30
   0   0  -7   -0.30    2.90
   1   0   7    0.30    6.70
  -1   0  -7    7.10    4.60
  -1   0  -7    0.10    4.50
  -1   0  -7    0.70    4.50
  -1   0  -7    8.50    5.00
  -1   0  -7    3.60    4.40
   1   0   7   -4.20    4.10
  -1   0  -7  -10.70    9.50
   1   0   7    1.60    7.30
  -1   0  -7   -1.80    9.20
  -1   0  -7   10.60   10.40
  -1   0  -7   -2.30    2.50
   1   0   7    5.60    6.30
  -2   0  -7   33.50   17.40
  -2   0  -7   -4.40    7.80
  -2   0  -7   47.90   21.80
   2   0   7  -15.60   27.30
   3   0   7    0.50    8.90
  -4   0  -7   -3.90    3.90
   4   0   7   36.60   18.20
   4   0   7    2.00   10.60
   4   0   7   -6.70    7.60
   4  -1  -7  116.89   29.50
   4   1  -7   84.59   17.10
   3  -1  -7   73.99   23.80
   3  -1  -7   14.70   17.30
   3   1  -7   44.00   15.70
   3   1  -7   64.29   32.60
   2  -1  -7   69.49   40.40
   2  -1  -7   62.39   32.10
  -2  -1   7   74.49    7.80
  -2  -1   7   79.79    5.40
   2   1  -7   39.90   16.00
  -2   1   7  101.99   27.10
  -2   1   7   72.49    8.50
   1  -1  -7 1545.75   69.89
   1  -1  -7 1302.87   68.19
  -1  -1   7 1318.97   68.19
  -1  -1   7 1437.76   67.19
  -1  -1   7 1519.35   66.59
  -1  -1   7 1450.05   67.89
  -1  -1   7 1530.05   67.99
   1  -1  -7 1402.26   68.39
  -1  -1   7 1428.66   68.29
  -1  -1   7 1485.05   68.69
   1  -1  -7 1465.45   70.29
   1   1  -7 1571.94   68.69
  -1   1   7 1488.45   68.99
   1   1  -7 1426.96   71.59
  -1   1   7 1499.25   67.99
  -1   1   7 1438.56   66.69
  -1   1   7 1281.67   69.19
  -1   1   7 1336.07   69.09
  -1   1   7 1490.55   67.69
  -1   1   7 1360.16   67.39
   0  -1   7  238.58   12.30
   0  -1   7  196.68   16.80
   0  -1   7  287.17   19.40
   0  -1   7  250.77   14.10
   0  -1  -7  243.78   14.00
   0  -1  -7  239.48   15.60
   0  -1  -7  218.08   15.00
   0  -1  -7  203.18   13.80
   0  -1   7  226.08   18.10
   0  -1   7  249.38   14.20
   0  -1   7  254.87   15.60
   0  -1  -7  227.98   16.00
   0  -1  -7  253.17   15.90
   0  -1   7  225.38   13.30
   0  -1  -7  216.38   16.10
   0   1  -7  239.88   14.50
   0   1   7  240.08   19.00
   0   1  -7  255.97   17.30
   0   1   7  245.08   15.40
   0   1   7  245.28   12.30
   0   1  -7  252.47   14.30
   0   1   7  203.98   17.60
   0   1   7  245.38   13.60
   0   1  -7  194.38   15.60
   0   1  -7  219.38   15.80
   0   1   7  252.47   14.00
   0   1  -7  203.48   15.80
   0   1   7  214.48   18.50
   0   1  -7  221.68   16.30
   0   1   7  258.27   14.40
   0   1  -7  221.38   15.40
  -1  -1  -7  336.77   22.20
  -1  -1  -7  280.27   20.90
   1  -1   7  286.97   19.30
  -1  -1  -7  307.77   25.70
  -1  -1  -7  324.27   20.80
  -1  -1  -7  305.57   15.90
   1  -1   7  299.67   19.60
   1  -1   7  324.67   28.50
   1  -1   7  352.26   22.10
   1   1   7  308.07   19.70
  -1   1  -7  321.07   18.40
   1   1   7  328.47   20.70
   1   1   7  304.27   19.30
  -1   1  -7  315.37   19.70
  -1   1  -7  290.97   28.20
   1   1   7  313.57   21.70
  -1   1  -7  314.87   19.50
  -1   1  -7  314.57   15.70
  -1   1  -7  272.57   22.50
  -2  -1  -7  152.98    9.70
  -2  -1  -7  132.79   24.10
  -2  -1  -7  147.29   23.50
   2  -1   7  122.99   23.40
  -2  -1  -7  153.18    9.90
   2  -1   7  129.69   20.30
  -2   1  -7  155.48    9.70
  -2   1  -7  131.39   16.50
  -2   1  -7  154.78   26.00
   2   1   7  183.88   33.20
  -2   1  -7  156.48    9.60
   2   1   7  148.99   36.60
  -2   1  -7  166.88   24.60
  -2   1  -7  100.59   28.60
  -3  -1  -7   95.59   34.20
  -3  -1  -7   96.69   24.40
  -3  -1  -7   65.59   11.90
   3  -1   7   65.79   18.80
  -3  -1  -7   59.49    9.40
   3  -1   7   58.69   18.00
   3  -1   7   65.69   32.90
   3   1   7   40.60   24.00
   3   1   7   47.20   19.60
   3   1   7   32.70   15.20
  -3   1  -7   53.39   17.30
  -3   1  -7   49.30   11.10
  -3   1  -7   62.79   10.30
   4  -1   7   89.59   21.10
   4  -1   7   94.99   15.70
   4   1   7   84.39   14.70
   4   1   7   80.79   15.00
  -4   1  -7   83.99    9.00
   4  -2  -7  188.68   25.80
   4   2  -7  183.98   15.70
   3  -2  -7   18.30   10.90
   3  -2  -7   53.79   21.90
  -3  -2   7   21.70    9.70
   3  -2  -7    8.70   15.30
   3   2  -7   20.80   12.90
  -3   2   7   31.70    8.80
   3   2  -7   15.20   13.40
   2  -2  -7   95.59   26.20
  -2  -2   7   76.69    9.30
   2  -2  -7   85.99   32.50
  -2  -2   7   66.79    5.50
   2  -2  -7   59.49   25.00
   2   2  -7   82.39   22.60
  -2   2   7   55.69    6.80
  -2   2   7   65.69   11.60
  -1  -2   7   43.30   10.40
   1  -2  -7   67.09   23.00
  -1  -2   7   41.10    6.50
  -1  -2   7   26.00   12.70
   1  -2  -7   36.00   14.80
  -1  -2   7   48.40    4.70
   1  -2  -7   34.70   11.10
   1  -2  -7   44.50   11.90
  -1  -2   7   39.50   11.20
   1   2  -7   42.60   20.20
  -1   2   7   28.20   13.40
  -1   2   7   56.99   10.20
  -1   2   7   34.50   11.00
  -1   2   7   36.40    7.30
   1   2  -7   51.99   14.90
  -1   2   7   36.80    4.60
   0  -2  -7  760.02   37.40
   0  -2  -7  752.12   38.60
   0  -2   7  741.23   37.40
   0  -2   7  790.02   37.60
   0  -2   7  712.43   36.30
   0  -2   7  801.12   35.20
   0  -2  -7  670.03   37.40
   0  -2   7  735.93   41.50
   0  -2   7  733.93   38.70
   0  -2  -7  700.83   36.70
   0  -2  -7  773.62   38.20
   0  -2  -7  721.93   38.30
   0  -2   7  626.84   39.10
   0  -2  -7  755.92   37.40
   0  -2  -7  669.33   38.30
   0   2   7  785.52   37.70
   0   2   7  752.92   37.40
   0   2   7  734.03   35.30
   0   2  -7  725.33   37.20
   0   2  -7  788.02   37.90
   0   2   7  771.82   36.90
   0   2  -7  712.53   39.30
   0   2  -7  781.32   39.00
   0   2  -7  773.92   39.60
   0   2   7  761.32   38.60
   0   2   7  692.73   40.30
   0   2   7  745.83   36.90
  -1  -2  -7   -7.40   12.40
  -1  -2  -7    4.10    6.00
   1  -2   7   11.40   13.50
  -1  -2  -7    4.40    5.70
  -1  -2  -7    0.10    5.30
   1  -2   7   43.40   17.30
  -1  -2  -7    5.50   11.10
   1  -2   7   -1.90   11.10
   1  -2   7   -8.10   10.90
  -1  -2  -7   -9.30    6.80
  -1   2  -7    6.80    8.40
   1   2   7   -7.10    9.20
  -1   2  -7    9.40    5.70
  -1   2  -7   -0.10    2.90
  -1   2  -7   -4.20    7.30
   1   2   7   13.20   10.70
   1   2   7   -3.10    9.90
  -1   2  -7   53.79   21.20
  -1   2  -7   -1.50    7.30
  -1   2  -7    6.60    3.00
   1   2   7   -1.30    8.90
   1   2   7    3.90    5.80
  -2  -2  -7   88.59   20.00
  -2  -2  -7   88.19    7.40
   2  -2   7   76.29   15.10
  -2  -2  -7  108.49   17.30
   2  -2   7   70.19   19.10
  -2   2  -7  116.39   17.70
  -2   2  -7   86.49    8.00
   2   2   7   58.49   31.20
  -2   2  -7   92.29    7.90
   2   2   7   96.89   19.80
   2   2   7   92.19   20.60
  -3  -2  -7  126.39   11.60
   3  -2   7  128.19   21.80
  -3  -2  -7  122.99   28.80
   3  -2   7  158.78   30.30
  -3  -2  -7  101.39   35.30
   3  -2   7  137.29   17.90
  -3  -2  -7  165.98   10.80
  -3   2  -7  150.98   12.60
   3   2   7  143.99   16.60
  -3   2  -7  141.99   37.70
  -3   2  -7  140.19   10.90
   3   2   7  158.38   21.50
   3   2   7  117.09   23.60
   4  -2   7   40.50   23.60
   4   2   7   40.80   15.10
   4   2   7   50.49   18.20
   4  -3  -7   56.39   37.50
   4   3  -7   59.49   17.70
  -3  -3   7   76.89   19.10
  -3  -3   7   49.40    7.80
  -3  -3   7   69.79    7.70
   3  -3  -7   86.39   36.70
   3  -3  -7  103.99   28.80
  -3   3   7   55.29    9.50
   3   3  -7   54.59   13.20
   3   3  -7   51.49   32.60
  -3   3   7   99.19   28.60
  -3   3   7   68.39   10.50
  -2  -3   7  188.68   10.50
  -2  -3   7  182.88   15.10
  -2  -3   7  171.28   10.50
  -2  -3   7  160.28   22.90
  -2   3   7  188.38   17.50
  -2   3   7  181.68   12.20
   2   3  -7  194.48   19.60
  -2   3   7  180.18   11.70
   1  -3  -7  112.19   24.90
  -1  -3   7   90.19   10.10
  -1  -3   7   91.59   19.60
   1  -3  -7   52.59   26.90
  -1  -3   7   77.89   19.60
  -1  -3   7  102.49    6.70
  -1  -3   7   85.19   18.20
  -1  -3   7   68.89   15.70
   1  -3  -7  108.69   31.70
  -1   3   7   89.79   29.80
   1   3  -7  140.49   32.90
  -1   3   7  134.79   19.40
  -1   3   7   94.69   12.10
  -1   3   7  101.49    7.20
  -1   3   7  108.09   18.20
   0  -3  -7  105.69   13.90
   0  -3   7  108.69   17.20
   0  -3  -7  110.59   20.50
   0  -3  -7  115.99   15.60
   0  -3   7  108.89    9.50
   0  -3   7  121.69   20.40
   0  -3   7   88.69   17.20
   0  -3  -7  130.39   16.40
   0  -3   7   95.79   17.40
   0  -3   7  108.39    8.60
   0  -3  -7  107.69   21.50
   0  -3  -7  103.39   19.30
   0  -3   7   88.69   13.60
   0   3  -7   78.19   23.70
   0   3  -7  107.19   23.50
   0   3  -7  117.09   24.40
   0   3   7   94.29   16.20
   0   3   7  119.59   19.30
   0   3  -7  130.99   18.90
   0   3   7   95.19   13.20
   0   3  -7  127.19   14.60
   0   3   7   94.69   16.20
   0   3   7  112.79    9.70
  -1  -3  -7    2.70   16.70
   1  -3   7   36.10   18.90
   1  -3   7   -5.10   12.00
   1  -3   7    1.50    9.50
  -1  -3  -7    6.60   12.20
  -1  -3  -7   -0.70   17.50
   1  -3   7   13.80   22.90
  -1  -3  -7   -1.20    2.30
  -1  -3  -7   11.60   15.20
   1  -3   7  -30.90   16.50
  -1  -3  -7    3.90   10.30
  -1  -3  -7   28.50   14.40
  -1  -3  -7   -0.30    3.30
   1   3   7    4.30   18.90
  -1   3  -7    1.40   12.40
  -1   3  -7    3.60    2.90
  -1   3  -7   -7.90   11.40
   1   3   7   25.90   17.90
   1   3   7    1.30   15.10
  -1   3  -7    2.40    3.40
  -1   3  -7   -1.10    7.90
  -1   3  -7   11.80   11.70
  -2  -3  -7   37.30   19.80
  -2  -3  -7   42.50   21.40
   2  -3   7   74.89   30.40
  -2   3  -7    7.70    9.60
  -2   3  -7   30.50    7.10
  -2   3  -7   19.00    8.20
  -2   3  -7    6.80   11.50
   2   3   7   10.10    9.00
   2   3   7   69.69   25.10
   3  -3   7   15.10   11.00
  -3  -3  -7   -2.00   12.30
  -3  -3  -7   23.00   23.00
  -3  -3  -7   74.79   37.60
   3   3   7    7.20   11.70
   3   3   7    7.50   11.60
  -3   3  -7   31.30   26.30
   3   3   7   22.70   14.10
   4  -3   7   31.30   13.60
   4   3   7   45.30    9.80
   4   3   7   71.59   18.40
  -3  -4   7   43.00    7.00
   3  -4  -7   53.79   13.40
   3  -4  -7   48.90   35.40
  -3  -4   7   41.30    9.00
   3   4  -7   64.39   33.50
   3   4  -7   34.50   11.30
   3   4  -7   42.60   12.50
  -3   4   7   46.90   10.50
  -3   4   7   38.70   10.20
  -2  -4   7  309.27   16.40
   2  -4  -7  292.47   35.90
   2  -4  -7  284.47   31.30
   2  -4  -7  281.27   31.00
  -2  -4   7  293.17   15.90
  -2  -4   7  285.87   23.10
  -2  -4   7  323.07   22.00
   2   4  -7  327.47   19.60
  -2   4   7  307.97   17.20
   2   4  -7  281.87   21.60
  -2   4   7  264.17   26.50
  -2   4   7  296.87   17.40
   2   4  -7  356.06   30.70
   2   4  -7  300.87   33.10
   1  -4  -7  497.95   44.30
  -1  -4   7  461.45   26.40
   1  -4  -7  528.85   41.50
   1  -4  -7  513.45   30.60
  -1  -4   7  441.36   23.30
  -1  -4   7  443.66   34.00
  -1  -4   7  477.55   28.70
   1  -4  -7  440.76   29.80
  -1  -4   7  443.56   23.10
   1   4  -7  490.35   27.40
  -1   4   7  482.95   24.10
  -1   4   7  496.25   29.90
   1   4  -7  454.35   25.30
  -1   4   7  454.05   23.80
   1   4  -7  403.56   28.80
   0  -4   7  445.46   29.90
   0  -4   7  400.56   22.60
   0  -4  -7  357.56   30.80
   0  -4  -7  365.96   29.10
   0  -4  -7  410.66   29.50
   0  -4   7  397.66   32.10
   0  -4  -7  455.65   29.30
   0  -4   7  448.86   27.30
   0  -4   7  351.06   22.10
   0   4  -7  416.96   27.40
   0   4  -7  385.06   28.20
   0   4   7  455.05   23.00
   0   4   7  421.96   30.00
   0   4   7  418.66   33.10
   0   4   7  446.26   22.20
  -1  -4  -7   63.59    9.30
   1  -4   7   63.89   27.60
  -1  -4  -7   67.99    7.70
  -1  -4  -7   50.89   18.30
   1  -4   7   68.39   14.20
  -1   4  -7   68.89    9.30
  -1   4  -7   66.99   27.00
  -1   4  -7   62.49    9.80
  -2  -4  -7   24.80   16.80
   2  -4   7   33.60   19.20
  -2  -4  -7   13.10   16.10
  -2  -4  -7    9.30    5.70
   2  -4   7   25.80   13.60
  -2  -4  -7   24.50   11.60
  -2   4  -7   -0.20   18.50
  -2   4  -7    5.20    8.00
   2   4   7    8.10    8.50
   2   4   7    3.40    8.50
   2   4   7   -8.60   14.20
  -2   4  -7   -0.30    6.00
   3  -4   7  199.98   21.50
  -3  -4  -7  167.58   16.30
  -3  -4  -7  145.19   11.00
   3  -4   7  170.48   35.10
  -3  -4  -7  164.58   15.10
   3  -4   7  170.68   16.50
  -3   4  -7  145.09   17.40
   3   4   7  149.79   15.20
  -3   4  -7  169.48   12.40
   3   4   7  173.48   23.10
  -3  -5   7   14.90    7.20
   3   5  -7   63.19   31.90
  -3   5   7   20.70    9.80
  -2  -5   7   21.10   16.10
  -2  -5   7   22.20    7.40
   2  -5  -7   -6.60    8.60
   2  -5  -7   22.40   14.20
   2  -5  -7    2.70    9.40
  -2  -5   7   23.30    8.70
  -2  -5   7    4.80    7.70
   2   5  -7   11.60   12.40
  -2   5   7   -8.60   18.30
   2   5  -7    9.90    6.80
  -2   5   7   22.30   10.50
   2   5  -7   18.00   10.90
  -2   5   7    9.10    4.00
   2   5  -7   24.40   14.00
   1  -5  -7  362.76   25.70
  -1  -5   7  304.57   21.80
   1  -5  -7  360.66   26.20
  -1  -5   7  311.57   20.20
   1  -5  -7  273.27   57.09
  -1  -5   7  331.97   18.10
  -1  -5   7  262.37   31.90
   1  -5  -7  334.87   39.20
  -1   5   7  340.27   18.90
  -1   5   7  333.37   20.50
   1   5  -7  326.87   23.60
  -1   5   7  307.77   35.60
   1   5  -7  293.47   36.10
   0  -5  -7  293.37   26.40
   0  -5  -7  270.27   37.00
   0  -5   7  260.97   25.00
   0  -5   7  220.58   37.30
   0   5  -7  282.37   23.50
   0   5  -7  302.27   26.10
  -1  -5  -7   -2.40    7.30
  -1  -5  -7    5.10   25.80
  -1  -5  -7    5.50   14.50
   1  -5   7    1.80   35.50
   1  -5   7    2.40    4.30
  -1   5  -7   -6.30    8.90
  -1   5  -7    0.70    5.60
   1   5   7    4.00    8.50
  -1   5  -7    1.60    6.60
  -1   5  -7   -3.30   13.00
  -2  -5  -7   79.89   40.60
   2  -5   7   27.70   12.70
  -2  -5  -7    7.70    7.70
  -2  -5  -7   33.20   12.90
   2  -5   7   17.60   10.60
  -2  -5  -7   11.00    4.50
  -2   5  -7    1.20    9.00
   2   5   7   21.40   11.00
   2   5   7    0.30    8.30
  -2   5  -7   37.00   13.60
   3  -5   7   34.10   11.60
   3  -5   7   26.30   15.50
   3   5   7   35.70    8.10
  -3   5  -7   62.59   11.50
   2  -6  -7   14.10   14.50
  -2  -6   7    0.00    6.50
  -2  -6   7    9.60    6.80
  -2   6   7   -3.90    9.30
   2   6  -7   41.50   28.10
  -1  -6   7   56.99   15.20
   1  -6  -7   27.60   17.20
   1  -6  -7   38.30   21.40
  -1  -6   7   29.60    7.20
   1   6  -7   57.79   30.40
   1   6  -7   36.50   17.60
  -1   6   7   39.20   13.10
  -1   6   7   52.99   19.40
   0  -6   7   12.20   10.70
   0  -6  -7   22.40   18.70
   0  -6  -7   28.10   34.50
   0   6  -7   -0.90   10.20
  -1   6  -7  181.58   19.50
   1   6   7  179.98   23.30
  -2  -6  -7  135.39   14.60
   2  -6   7  129.69   18.50
  -2   6  -7   99.89   15.40
  -2   6  -7  112.79   17.10
   2   6   7  151.68   18.90
  -2  -7   7  103.29   14.30
  -2   7   7   83.39   19.00
   2   7  -7  107.39   21.80
  -1  -7   7   17.30    8.30
   1  -7  -7   48.00   26.20
   1   7  -7   44.10   26.80
   1   7  -7   24.30    8.10
   0  -7   7   23.60   15.60
   0  -7  -7   61.19   26.00
   0   7   7   64.29   20.70
   0   7  -7    7.60    9.10
   0   7  -7   -4.00   16.90
   1  -7   7   31.90   13.70
   1   7   7   39.70   15.50
   3   0  -8   68.09   31.00
   3   0  -8   43.20   29.80
   2   0  -8 2131.49  102.79
  -2   0   8 1942.31   99.09
  -2   0   8 1955.10   93.39
  -1   0   8  108.49    9.60
  -1   0   8   85.79    9.20
   1   0  -8   97.39   18.70
  -1   0   8  104.19   11.70
   1   0  -8  104.39   13.10
  -1   0   8   74.39   11.50
  -1   0   8   88.69   12.00
   1   0  -8  109.09   13.20
  -1   0   8   83.39    7.40
  -1   0   8   95.39    5.90
   1   0  -8   98.59   12.80
   0   0   8  443.26   24.30
   0   0   8  387.26   22.40
   0   0   8  453.45   22.90
   0   0  -8  410.56   24.10
   0   0   8  435.46   25.80
   0   0   8  454.15   22.90
   0   0  -8  451.85   25.50
   0   0   8  445.16   21.10
   0   0  -8  457.05   23.10
   0   0   8  397.66   24.90
   0   0  -8  418.26   24.20
  -1   0  -8 2508.15  113.89
   1   0   8 2333.47  113.39
  -1   0  -8 2496.45  114.59
  -1   0  -8 2280.77  111.29
  -1   0  -8 2533.85  115.69
   1   0   8 2300.37  114.19
   1   0   8 2409.16  115.39
  -1   0  -8 2394.96  113.09
  -1   0  -8 2281.87  117.49
   1   0   8 2495.85  113.49
   1   0   8 2524.05  117.19
  -1   0  -8 2268.37  113.59
  -2   0  -8  162.58   31.80
   2   0   8  142.59   24.80
   2   0   8  198.98   20.40
   2   0   8  140.49   26.00
  -2   0  -8  186.58   19.50
  -2   0  -8  170.68   11.00
   3   0   8   59.79   16.60
   3   0   8   53.19   26.00
   3   0   8   64.69   22.00
   4   0   8   34.80   18.90
  -4   0  -8   49.40    8.90
   4  -1  -8   88.79   30.30
   3  -1  -8   99.49   29.10
   3  -1  -8  108.39   42.80
   3  -1  -8  124.59   24.90
   3   1  -8  154.98   32.50
   3   1  -8  140.09   16.80
  -2  -1   8  115.29   10.40
  -2  -1   8  109.29    7.00
   2  -1  -8  186.68   38.00
   2  -1  -8  118.19   45.60
  -2   1   8  111.89    7.60
  -2   1   8   88.79   31.60
  -2   1   8  115.99   10.90
  -1  -1   8  555.54   28.70
   1  -1  -8  627.04   31.40
  -1  -1   8  582.14   28.50
  -1  -1   8  539.05   26.60
  -1  -1   8  580.54   27.40
   1  -1  -8  556.94   32.70
  -1  -1   8  517.65   29.70
  -1  -1   8  553.44   30.10
   1  -1  -8  464.65   34.50
  -1   1   8  490.05   32.80
   1   1  -8  626.64   32.10
  -1   1   8  580.04   27.70
   1   1  -8  506.45   32.10
  -1   1   8  575.44   28.90
  -1   1   8  521.75   30.40
   1   1  -8  603.94   30.10
  -1   1   8  595.14   28.30
   0  -1   8  450.25   26.40
   0  -1  -8  468.95   26.30
   0  -1  -8  439.86   26.20
   0  -1  -8  439.36   24.00
   0  -1  -8  514.05   25.70
   0  -1  -8  498.05   26.50
   0  -1   8  492.05   25.00
   0  -1   8  483.35   28.20
   0  -1   8  485.55   22.60
   0  -1   8  485.85   25.00
   0  -1   8  462.05   23.90
   0  -1  -8  430.96   24.50
   0   1   8  476.65   24.70
   0   1   8  387.06   28.00
   0   1   8  449.66   26.90
   0   1  -8  496.05   28.30
   0   1   8  472.95   30.20
   0   1  -8  431.76   26.30
   0   1  -8  487.85   25.00
   0   1   8  483.85   24.90
   0   1  -8  469.15   25.50
   0   1  -8  464.15   26.00
   0   1   8  482.75   26.10
   0   1   8  455.05   24.00
   0   1   8  449.46   22.70
   0   1  -8  437.26   26.10
  -1  -1  -8  226.18   16.40
  -1  -1  -8  183.78   24.70
  -1  -1  -8  224.98   19.20
   1  -1   8  223.08   20.80
   1  -1   8  194.18   17.00
  -1  -1  -8  183.18   13.80
  -1  -1  -8  214.98   11.40
   1  -1   8  200.88   16.50
  -1  -1  -8  184.78   19.00
  -1   1  -8  182.88   18.10
   1   1   8  215.78   19.20
  -1   1  -8  200.28   16.60
  -1   1  -8  196.68   11.80
  -1   1  -8  221.28   21.70
  -1   1  -8  218.48   16.40
   1   1   8  211.38   19.80
   1   1   8  182.28   16.90
  -1   1  -8  200.98   15.10
  -1   1  -8  207.38   11.50
   1   1   8  193.38   17.00
  -2  -1  -8  171.78   10.40
   2  -1   8  116.39   20.50
  -2  -1  -8  173.78    9.80
   2  -1   8  150.18   24.10
   2  -1   8  148.49   24.50
   2  -1   8  136.99   17.90
  -2   1  -8  180.78   19.20
   2   1   8  163.48   21.90
  -2   1  -8  159.28    9.90
  -2   1  -8  156.38   10.50
   2   1   8  185.58   34.30
   2   1   8  128.79   20.70
  -3  -1  -8   33.30    9.10
  -3  -1  -8   50.39   22.60
   3  -1   8   81.09   21.10
  -3  -1  -8   57.99   28.00
   3  -1   8  105.49   30.20
   3  -1   8   55.89   17.10
   3   1   8   68.79   15.50
  -3   1  -8   16.80   18.10
  -3   1  -8   30.90    8.20
  -3   1  -8   29.60    9.80
   4  -1   8   15.10    7.80
   4   1   8   10.80   16.10
  -4   1  -8   26.00    7.40
   4  -2  -8  143.49   25.20
   4   2  -8  175.98   15.40
   3  -2  -8  335.27   41.20
  -3  -2   8  412.66   19.90
   3  -2  -8  397.86   31.30
   3  -2  -8  406.16   32.50
  -3  -2   8  373.66   25.50
   3   2  -8  348.37   23.80
   3   2  -8  378.36   26.50
  -3   2   8  385.56   20.70
   3   2  -8  432.46   36.30
   2  -2  -8  317.07   31.90
  -2  -2   8  344.87   16.10
  -2  -2   8  328.17   18.70
   2  -2  -8  314.37   29.40
   2  -2  -8  296.77   41.60
  -2  -2   8  320.07   16.10
  -2   2   8  310.77   17.20
  -2   2   8  326.77   16.80
   2   2  -8  279.77   24.40
   2   2  -8  316.17   32.50
  -2   2   8  347.07   20.30
  -1  -2   8  490.95   30.00
  -1  -2   8  519.35   24.40
  -1  -2   8  478.05   24.50
   1  -2  -8  504.25   36.00
   1  -2  -8  505.75   32.00
  -1  -2   8  515.55   25.70
  -1  -2   8  525.75   28.00
  -1  -2   8  544.35   28.80
  -1   2   8  526.75   28.50
  -1   2   8  499.95   26.40
  -1   2   8  503.15   24.80
   1   2  -8  542.65   36.40
  -1   2   8  520.75   30.30
  -1   2   8  487.35   25.30
  -1   2   8  516.45   27.70
   0  -2   8  150.28   14.90
   0  -2   8  156.88   13.90
   0  -2   8  131.89   10.00
   0  -2   8  140.89   16.70
   0  -2  -8  152.58   18.90
   0  -2  -8  138.29   15.90
   0  -2   8  140.79   11.40
   0  -2  -8  126.29   12.20
   0  -2  -8  141.29   15.90
   0  -2  -8  145.29   17.00
   0  -2   8  141.49   23.50
   0  -2   8  113.19   16.20
   0   2   8  116.49   13.60
   0   2  -8  133.59   17.60
   0   2   8  141.49   13.40
   0   2   8  115.19   15.90
   0   2  -8  130.59   18.90
   0   2   8  149.29   13.20
   0   2   8  132.59   12.40
   0   2  -8  124.29   17.20
   1  -2   8  332.07   28.00
  -1  -2  -8  320.87   26.30
  -1  -2  -8  304.67   16.20
  -1  -2  -8  306.77   21.10
  -1  -2  -8  325.77   25.30
  -1  -2  -8  308.37   30.30
   1  -2   8  354.86   37.20
  -1  -2  -8  303.97   23.40
   1  -2   8  300.57   24.90
  -1  -2  -8  272.77   20.40
  -1  -2  -8  306.27   16.20
   1   2   8  328.67   26.40
  -1   2  -8  332.87   23.50
  -1   2  -8  312.97   20.40
  -1   2  -8  313.87   16.50
  -1   2  -8  260.77   31.40
  -1   2  -8  290.67   28.20
   1   2   8  328.17   24.10
  -1   2  -8  307.97   23.50
  -1   2  -8  309.97   16.30
   1   2   8  308.17   25.90
  -2  -2  -8   32.40   18.20
   2  -2   8   58.19   18.30
   2  -2   8   29.70   12.90
  -2  -2  -8   51.89   20.90
  -2  -2  -8   38.90    6.40
  -2   2  -8   17.00    6.50
  -2   2  -8   29.40    7.20
   2   2   8   55.19   18.70
   2   2   8   56.49   15.00
   2   2   8   26.10   19.10
  -2   2  -8   25.10   10.20
   2   2   8   41.90   15.40
  -3  -2  -8   77.69   32.70
  -3  -2  -8  103.79   11.20
   3  -2   8  125.59   20.30
  -3  -2  -8  128.29    9.80
  -3  -2  -8   66.19   37.20
   3  -2   8  147.09   17.60
   3   2   8  124.19   16.20
  -3   2  -8   91.49   12.30
  -3   2  -8  112.89   10.30
   3   2   8  123.09   23.80
   3   2   8  165.28   25.50
  -3   2  -8  169.68   43.00
   4  -2   8   42.70   13.00
   4   2   8   40.00   17.50
   4   2   8   28.60    9.60
   4  -3  -8   65.09   18.30
   4   3  -8   91.19   11.70
   3  -3  -8  652.73   41.80
   3  -3  -8  568.14   39.00
  -3  -3   8  686.83   31.00
  -3  -3   8  634.74   30.40
  -3  -3   8  626.64   38.20
   3   3  -8  587.24   34.20
   3   3  -8  661.33   44.00
   3   3  -8  603.94   33.00
  -3   3   8  642.34   31.40
  -3   3   8  604.64   43.60
  -3   3   8  625.04   31.70
   2  -3  -8  743.43   43.00
  -2  -3   8  701.13   33.90
  -2  -3   8  742.93   36.90
   2  -3  -8  673.03   48.60
   2  -3  -8  657.63   43.70
  -2  -3   8  755.52   39.30
  -2   3   8  707.03   34.90
  -2   3   8  746.13   38.70
   2   3  -8  679.23   37.60
   2   3  -8  716.13   45.60
  -1  -3   8  124.99   24.00
  -1  -3   8  144.49   20.60
  -1  -3   8  120.49    8.20
  -1  -3   8  136.69   22.20
   1  -3  -8  173.68   37.40
  -1  -3   8  139.59    8.40
   1  -3  -8   73.89   29.80
   1  -3  -8  128.39   28.70
  -1   3   8  132.89    9.50
  -1   3   8  111.89   20.70
  -1   3   8  180.88   33.70
  -1   3   8  147.99   23.60
  -1   3   8  178.08   25.70
  -1   3   8  135.89    9.10
   0  -3  -8   13.70    9.70
   0  -3   8   -2.10   11.70
   0  -3   8    5.60    3.90
   0  -3   8   -5.70    8.50
   0  -3  -8    6.80   16.60
   0  -3   8   -1.40    6.60
   0  -3   8   -2.40    3.60
   0  -3   8   13.60   13.40
   0  -3  -8    4.60   14.00
   0  -3  -8   13.90   16.30
   0   3  -8   18.00   19.40
   0   3   8   -6.70   11.50
   0   3   8    0.20    3.60
   0   3   8   -2.30    3.20
   0   3   8    9.70    8.00
   0   3  -8    1.40   11.40
   0   3  -8    5.90   10.60
   0   3   8   -6.70    6.30
   0   3   8   -1.90   13.80
  -1  -3  -8  119.09   32.80
  -1  -3  -8   93.29    7.50
  -1  -3  -8   89.89    8.50
  -1  -3  -8   93.79   17.90
   1  -3   8  107.29   36.90
   1  -3   8   76.09   13.20
   1  -3   8   53.49   24.00
  -1   3  -8   79.39   30.20
  -1   3  -8  182.28   36.20
   1   3   8   81.99   18.40
   1   3   8  116.59   29.10
  -1   3  -8   83.59    8.50
  -1   3  -8   94.29    8.80
   1   3   8   81.59   20.00
  -1   3  -8   90.59   19.10
  -2  -3  -8  552.14   37.00
   2  -3   8  510.55   42.60
  -2  -3  -8  523.85   28.20
  -2  -3  -8  639.04   39.10
  -2   3  -8  568.14   37.90
  -2   3  -8  552.04   28.50
  -2   3  -8  580.24   27.70
   2   3   8  507.15   32.90
  -2   3  -8  560.44   33.90
   3  -3   8    6.30   15.10
  -3  -3  -8   -1.90    3.10
  -3  -3  -8    0.10    5.70
   3   3   8  -16.10   12.00
  -3   3  -8   -5.10    7.10
  -3   3  -8    0.00    3.80
   3  -4  -8   13.20   11.90
  -3  -4   8   24.00    9.10
  -3  -4   8   17.70    7.10
  -3   4   8   22.30   10.60
  -3   4   8   28.80   10.00
   3   4  -8   67.59   31.90
   3   4  -8   30.20   11.80
   3   4  -8   28.90   12.00
   2  -4  -8   77.49   23.80
   2  -4  -8   60.79   26.10
  -2  -4   8   96.39   19.20
  -2  -4   8   66.19    8.10
   2  -4  -8   59.69   30.80
  -2  -4   8   71.89    6.90
   2   4  -8   60.59   14.20
   2   4  -8  102.39   29.90
  -2   4   8   69.59    9.30
  -2   4   8   78.29    9.80
  -1  -4   8  401.46   20.80
  -1  -4   8  426.36   20.60
   1  -4  -8  343.67   46.50
  -1  -4   8  407.36   27.20
  -1   4   8  417.46   21.20
  -1   4   8  393.26   28.20
  -1   4   8  413.36   21.50
   1   4  -8  388.06   24.50
   1   4  -8  386.76   23.50
   0  -4  -8  142.19   22.30
   0  -4  -8  149.09   19.60
   0  -4  -8  106.29   23.20
   0  -4   8  147.09   18.90
   0  -4   8  112.59   25.70
   0  -4  -8  142.69   25.60
   0   4  -8  166.58   18.50
   0   4   8  125.79   12.60
   0   4   8  152.28   26.90
   0   4   8  156.48   13.30
   0   4   8  105.09   29.20
   0   4  -8  111.09   19.20
  -1  -4  -8   -1.00   12.20
  -1  -4  -8   26.00   14.80
  -1  -4  -8   21.40   10.60
  -1  -4  -8   17.80    7.80
  -1  -4  -8   57.69   29.70
  -1  -4  -8   26.90    9.60
  -1   4  -8   13.40   13.50
  -1   4  -8   34.60   16.10
   2  -4   8   -0.20    9.50
  -2  -4  -8   10.80   17.10
  -2  -4  -8    1.10    6.20
  -2  -4  -8  -23.80   17.40
  -2  -4  -8   -2.80    6.20
  -2   4  -8   -6.30   19.30
  -2   4  -8   -2.70    6.50
   2   4   8   28.80   14.40
  -2   4  -8    9.50    7.90
   2   4   8   -8.20   15.00
   2   4   8   11.20    8.40
   3  -4   8  -19.10   15.20
  -3  -4  -8    5.30    7.00
  -3  -4  -8   -3.70    7.20
   3  -4   8   24.10   15.30
  -3   4  -8   -0.20    9.60
   3   4   8  -10.80   10.30
   3   4   8   22.70   12.90
   3  -5  -8   51.89   29.50
  -3  -5   8   47.20    8.20
   3   5  -8   29.20    8.80
   3   5  -8   37.70   11.00
  -2  -5   8   -2.00    8.00
   2  -5  -8   -7.80   13.60
  -2  -5   8    4.20    3.50
   2  -5  -8   12.60    8.80
   2  -5  -8    5.60    8.10
  -2  -5   8   12.20   17.70
   2   5  -8    2.10    5.90
   2   5  -8   -3.20   11.40
  -2   5   8  -18.40   18.70
   2   5  -8    6.40    6.50
  -2   5   8   14.40    8.60
  -2   5   8    0.80    4.10
  -1  -5   8  115.29   13.80
  -1  -5   8  131.89   11.10
   1  -5  -8  146.59   21.30
  -1  -5   8  152.48   17.00
   1  -5  -8  138.59   37.40
   1  -5  -8  127.99   21.70
  -1   5   8  138.09   14.30
  -1   5   8  114.49   11.80
  -1   5   8   79.79   28.90
   1   5  -8  107.49   17.20
   1   5  -8   96.89   31.50
   0  -5  -8  413.36   31.50
   0  -5   8  378.76   26.50
   0  -5  -8  327.57   28.50
   0  -5  -8  341.57   42.30
   0   5   8  337.87   33.40
   0   5  -8  378.46   26.60
   0   5  -8  370.36   26.60
  -1  -5  -8   23.20   20.30
  -1  -5  -8   23.00    8.20
   1  -5   8   41.50   13.70
  -1  -5  -8   17.20   14.60
   1   5   8   43.90   18.20
  -1   5  -8   67.99   27.80
  -1   5  -8   35.20   14.00
  -1   5  -8   55.89   12.70
  -2  -5  -8  303.37   21.80
  -2  -5  -8  338.57   19.30
  -2   5  -8  310.67   19.90
  -2   5  -8  299.37   23.90
   2   5   8  360.86   21.30
   3  -5   8   25.80   13.70
   3   5   8   39.80    9.10
  -2  -6   8   98.09   18.00
  -2  -6   8   93.09   11.30
   2   6  -8  122.69   25.00
  -2   6   8   79.79   12.70
  -1  -6   8   32.80   15.90
  -1   6   8   36.70   19.90
   1   6  -8    9.30   11.50
  -1   6   8    0.20    5.90
   0  -6   8   27.50   11.90
   0  -6   8   51.49   38.00
   0  -6  -8   23.00   11.60
   0  -6  -8   43.30   37.60
   0   6  -8   96.29   37.70
   0   6  -8   36.90   19.10
   0   6  -8   29.90   11.10
  -1  -6  -8  377.56   42.50
  -1  -6  -8  405.36   29.80
  -1   6  -8  448.86   34.70
  -2  -6  -8    2.50    6.90
   2  -6   8   24.40   15.40
  -2   6  -8   -0.80    5.60
   2   6   8   -3.80    9.30
   2   7  -8    4.30    9.00
   1  -7  -8  190.08   26.90
  -1  -7   8  181.18   18.60
   1   7  -8  159.98   18.20
   1   7  -8  187.38   28.40
   0  -7   8   -2.60   16.60
   0  -7  -8    8.00   12.10
   0   7  -8    4.30   18.60
   0   7   8   19.50   10.60
   1  -7   8  110.99   15.60
  -1  -7  -8  106.19   35.40
  -1   7  -8  141.79   27.20
   3   0  -9   -6.90    9.70
   3   0  -9    5.80    9.60
   3   0  -9   -1.50   11.80
   2   0  -9   15.60   13.50
   2   0  -9   87.49   39.80
  -1   0   9    1.80    7.10
  -1   0   9    1.00    2.90
  -1   0   9   -0.20    2.00
   1   0  -9  -19.10   14.10
   1   0  -9   30.50   13.90
  -1   0   9    0.90    6.50
  -1   0   9   -1.80    3.90
   0   0  -9   24.60   11.60
   0   0  -9   -3.80    7.20
   0   0   9    0.30    3.20
   0   0   9    1.00    5.70
   0   0   9    0.50    6.30
   0   0   9   -6.20    5.90
   0   0   9    2.30   10.50
   0   0   9    1.60    2.60
   0   0  -9   -0.90    5.00
   0   0  -9    8.50   10.90
   0   0   9    3.60    3.70
   0   0   9   -1.00    6.60
  -1   0  -9   27.90   11.40
  -1   0  -9   -3.50    6.40
  -1   0  -9  -11.80   13.00
  -1   0  -9    5.50   14.40
   1   0   9   -4.50   10.50
   1   0   9   -3.50   10.50
  -1   0  -9    3.80    3.00
   1   0   9  -11.20    9.90
  -1   0  -9    7.10    6.90
   1   0   9    0.50    6.20
   1   0   9   15.80   11.00
  -1   0  -9    8.10    7.10
   2   0   9   27.70   19.40
   2   0   9   11.90    9.90
  -2   0  -9   40.50   18.10
  -3   0  -9    2.50    3.20
   3   0   9    3.60    9.30
   3   0   9  -17.00   15.30
  -3   0  -9    0.90    5.30
   3   0   9   -8.40    9.30
   4   0   9  -11.10    9.60
   4   0   9    2.80   15.60
   4  -1  -9  109.79   40.40
   4   1  -9  103.39   20.00
   3  -1  -9  426.06   34.90
   3  -1  -9  374.56   33.10
   3   1  -9  406.36   25.50
   3   1  -9  433.96   37.10
  -2  -1   9   70.99    9.20
  -2  -1   9   95.49   10.20
   2  -1  -9   90.99   29.30
   2  -1  -9   73.59   27.20
   2  -1  -9   87.39   27.10
  -2   1   9  103.19   54.49
  -2   1   9   92.89    7.40
  -2   1   9   77.39   11.40
   2   1  -9   76.89   26.90
  -1  -1   9   13.10    7.50
  -1  -1   9    0.20    3.20
  -1  -1   9   -4.50    8.00
   1  -1  -9    2.70   11.10
   1  -1  -9    0.40    6.30
   1  -1  -9  -11.50   15.60
  -1  -1   9    6.60    4.40
  -1   1   9   14.10    6.90
  -1   1   9    2.70    2.20
   1   1  -9    6.30    9.20
  -1   1   9    0.60   12.40
  -1   1   9    1.70    4.40
   1   1  -9   15.80   15.00
  -1   1   9   -8.80    7.30
   0  -1  -9 2707.33  126.89
   0  -1   9 2698.73  125.79
   0  -1   9 2756.52  127.29
   0  -1   9 2730.23  125.79
   0  -1   9 2820.72  126.99
   0  -1  -9 2593.64  125.39
   0  -1  -9 2939.61  125.89
   0  -1  -9 2488.75  126.39
   0  -1   9 2835.12  123.79
   0  -1  -9 2673.53  125.79
   0  -1   9 2731.13  124.79
   0   1   9 2653.03  126.79
   0   1  -9 2451.15  125.99
   0   1  -9 2715.23  126.39
   0   1   9 2633.94  124.99
   0   1  -9 2655.13  125.69
   0   1  -9 2674.93  127.79
   0   1  -9 2464.35  125.99
   0   1   9 2564.24  125.59
   0   1   9 2653.23  125.69
   0   1   9 2753.32  123.89
   1  -1   9   14.40   10.70
   1  -1   9   -6.30   13.10
  -1  -1  -9   -0.20   13.70
  -1  -1  -9    3.00    2.50
  -1  -1  -9   28.70   13.90
  -1  -1  -9   -0.30    3.20
  -1  -1  -9    3.40    7.30
  -1   1  -9    3.90    7.50
  -1   1  -9    1.80    2.80
  -1   1  -9   23.30   12.30
  -1   1  -9    5.10   16.20
   1   1   9    5.10    9.80
   1   1   9    2.40   14.30
  -1   1  -9    3.50    3.80
   1   1   9   -2.20    6.60
   1   1   9    1.40   10.60
  -1   1  -9  -15.80   16.80
  -1   1  -9   -0.10    7.90
  -1   1  -9    5.50    6.20
  -2  -1  -9    3.60    3.50
   2  -1   9   -3.20   10.40
  -2  -1  -9    5.00    2.60
   2  -1   9    7.50   10.40
   2  -1   9    1.30    4.90
   2   1   9    4.30    8.20
  -2   1  -9    8.30    4.10
   2   1   9    2.60    8.70
   2   1   9   -2.40    9.50
  -2   1  -9   -2.90    9.80
  -2   1  -9    0.70    2.70
   2   1   9    1.00   16.80
   3  -1   9  330.07   34.90
  -3  -1  -9  331.77   36.60
  -3  -1  -9  248.08   40.60
  -3  -1  -9  304.17   15.60
   3  -1   9  237.18   33.40
   3  -1   9  273.87   23.50
   3   1   9  289.37   30.50
  -3   1  -9  278.57   15.90
   3   1   9  242.08   28.50
   3   1   9  283.77   22.10
  -3   1  -9  289.97   17.60
   4  -1   9   31.60   13.10
   4   1   9   54.29   15.60
   4   1   9   32.30   11.40
   4  -2  -9  285.37   39.50
   4   2  -9  369.46   23.90
   3  -2  -9  111.19   41.00
  -3  -2   9   34.70    7.60
   3  -2  -9   69.79   22.10
  -3   2   9   26.80    9.40
   3   2  -9   59.69   12.90
  -2  -2   9   34.30    7.20
  -2  -2   9   50.49    5.70
  -2  -2   9   58.79   10.90
   2  -2  -9   55.29   25.10
   2  -2  -9   50.49   21.80
  -2   2   9   55.89    7.10
   2   2  -9   48.20   16.00
   2   2  -9   49.40   25.10
  -2   2   9   59.09   13.20
   1  -2  -9  669.23   40.80
  -1  -2   9  738.83   37.60
  -1  -2   9  656.23   38.60
   1  -2  -9  707.43   45.40
  -1  -2   9  682.03   33.90
  -1  -2   9  699.13   32.50
  -1  -2   9  705.33   32.40
  -1  -2   9  685.53   36.70
  -1   2   9  673.23   35.90
  -1   2   9  707.23   39.00
   1   2  -9  696.73   45.10
  -1   2   9  669.43   32.80
  -1   2   9  598.94   32.90
  -1   2   9  672.53   34.40
  -1   2   9  691.23   37.10
   0  -2  -9   30.20   13.80
   0  -2   9    0.40    8.90
   0  -2   9    4.00   10.30
   0  -2  -9   36.00   15.90
   0  -2   9    4.80    8.80
   0  -2   9   11.70    6.30
   0  -2  -9   17.10    8.00
   0  -2  -9   23.40   12.90
   0  -2  -9   10.40   14.70
   0  -2   9    3.20    3.60
   0  -2  -9    3.60    5.70
   0   2   9   14.60    7.60
   0   2  -9    0.00    7.40
   0   2   9   11.20    5.90
   0   2  -9   10.40    7.00
   0   2   9   -0.10    5.30
   0   2  -9   13.30    7.70
   0   2   9    6.50    3.40
   0   2   9   22.00   10.70
   0   2   9   29.60   12.70
   0   2   9   -3.40    8.10
   0   2  -9   11.60    7.90
   1  -2   9  276.97   27.60
  -1  -2  -9  247.48   30.00
  -1  -2  -9  310.77   33.60
  -1  -2  -9  253.77   25.60
   1  -2   9  303.37   32.30
   1  -2   9  329.47   41.60
  -1  -2  -9  304.97   16.20
  -1  -2  -9  315.67   22.00
  -1  -2  -9  309.17   15.90
  -1  -2  -9  289.37   28.90
  -1  -2  -9  312.67   21.70
  -1   2  -9  309.37   21.60
  -1   2  -9  300.57   16.40
  -1   2  -9  306.27   16.00
   1   2   9  327.17   26.90
  -1   2  -9  293.17   36.90
  -1   2  -9  312.47   25.80
  -1   2  -9  322.07   26.10
   1   2   9  272.97   30.10
   1   2   9  289.27   30.60
  -2  -2  -9   73.29   20.80
   2  -2   9   70.49   14.80
  -2  -2  -9   68.49    7.40
   2  -2   9   53.69   24.40
  -2  -2  -9   42.00   21.90
   2   2   9   98.59   34.60
  -2   2  -9   62.19   21.50
  -2   2  -9   67.69    7.50
   2   2   9   69.29   17.90
  -3  -2  -9  109.29   39.70
   3  -2   9  135.29   20.20
   3  -2   9   64.39   19.80
  -3  -2  -9   81.99   36.60
  -3  -2  -9  105.19    9.20
  -3  -2  -9  110.19   11.60
   3   2   9  106.89   23.30
   3   2   9   98.09   16.50
  -3   2  -9  102.29   12.80
  -3   2  -9   53.39   25.10
  -3   2  -9   92.29    9.80
   4  -2   9  220.08   15.50
   4  -2   9  220.88   22.20
   4   2   9  243.98   20.40
   4   2   9  186.28   14.40
   4   2   9  211.68   23.20
   4  -3  -9   25.40   17.90
   4  -3  -9   84.29   43.00
   4   3  -9   20.20   11.50
   3  -3  -9   52.49   34.60
   3   3  -9   80.69   26.50
   3   3  -9   37.10   12.30
   2  -3  -9   23.60   16.90
  -2  -3   9   62.49   13.30
  -2  -3   9   40.00   12.60
  -2  -3   9   49.90    6.60
  -2  -3   9   47.10    6.30
  -2   3   9   37.60   16.50
   2   3  -9   59.69   29.20
  -2   3   9   39.40    8.80
  -2   3   9   59.39    8.40
   2   3  -9   80.19   17.10
   1  -3  -9   51.89   22.70
  -1  -3   9   23.20   11.30
  -1  -3   9   16.10    8.80
  -1  -3   9   20.10    4.90
   1  -3  -9    0.10    9.10
   1   3  -9    0.80    9.30
  -1   3   9    9.90    6.60
  -1   3   9   21.10    6.00
   1   3  -9  -12.70   12.70
  -1   3   9    6.80    9.00
   1   3  -9   13.40    8.70
   0  -3  -9  248.28   25.30
   0  -3  -9  320.97   30.80
   0  -3   9  266.77   25.40
   0  -3   9  271.47   28.50
   0  -3   9  267.47   25.90
   0  -3   9  297.57   21.40
   0  -3   9  304.17   16.30
   0  -3   9  257.07   32.10
   0  -3  -9  282.97   22.60
   0  -3   9  283.37   16.80
   0  -3  -9  266.77   32.60
   0  -3  -9  307.07   26.90
   0   3  -9  295.37   34.00
   0   3   9  316.67   31.20
   0   3   9  222.28   27.00
   0   3   9  293.87   21.40
   0   3  -9  247.38   34.80
   0   3  -9  276.17   26.40
   0   3   9  320.97   16.90
   0   3  -9  315.47   30.10
   0   3   9  296.27   16.40
   0   3   9  287.27   26.10
  -1  -3  -9    2.50    4.40
   1  -3   9    2.70    4.20
  -1  -3  -9   35.50   18.30
  -1  -3  -9    3.50   13.40
   1  -3   9  -26.50   37.90
  -1   3  -9    2.90    7.60
  -1   3  -9   -1.30   11.60
  -1   3  -9   18.70    8.10
  -1   3  -9    4.90    4.00
   1   3   9    2.00    8.70
   1   3   9    8.90    8.20
  -2  -3  -9   99.59   10.70
   2  -3   9   73.19   19.00
  -2  -3  -9  155.58   25.60
   2  -3   9  127.19   14.00
   2   3   9  120.39   18.70
   2   3   9  131.69   35.20
  -2   3  -9  103.79    9.20
   2   3   9  143.99   21.50
  -2   3  -9  106.89   29.40
  -2   3  -9   78.89   17.30
   2   3   9   78.19   24.80
  -2   3  -9  111.19   11.20
  -3  -3  -9    3.70    6.30
   3  -3   9   41.80   18.50
  -3  -3  -9   17.90    7.10
  -3   3  -9   33.10   13.50
   3   3   9    5.50    7.80
  -3   3  -9   17.40    9.30
  -3  -4   9   16.00    8.90
   3  -4  -9   -7.50   15.10
  -3  -4   9   25.70    7.30
  -3   4   9   15.00    6.40
   3   4  -9   29.60   15.80
   3   4  -9   26.80   13.80
   3   4  -9   20.00   13.10
  -3   4   9   12.10    4.40
  -2  -4   9   20.30    6.30
  -2  -4   9    4.10    4.30
  -2  -4   9    1.70   10.50
   2  -4  -9    0.00    8.00
   2  -4  -9    7.70   14.60
   2  -4  -9   33.80   23.00
  -2   4   9   17.70   12.10
   2   4  -9  -11.30   11.20
  -2   4   9   -1.80    4.00
  -2   4   9   -2.20    5.10
   2   4  -9    7.50    6.60
   1  -4  -9 1118.69   57.49
  -1  -4   9 1088.99   53.39
   1  -4  -9 1116.39   57.89
  -1  -4   9 1066.39   56.49
  -1  -4   9 1302.37   57.09
  -1  -4   9 1148.29   57.89
   1   4  -9 1110.69   60.79
   1   4  -9 1095.79   57.19
   1   4  -9 1086.59   62.29
  -1   4   9 1151.58   59.29
  -1   4   9 1141.49   54.09
   0  -4  -9    9.70   15.50
   0  -4   9    3.60    8.60
   0  -4  -9    8.80    8.80
   0  -4  -9  -11.40   11.10
   0  -4   9   48.80   26.90
   0  -4   9    3.60    5.30
   0  -4  -9   -6.50    8.60
   0   4  -9    4.10    7.90
   0   4   9  -11.60   12.60
   0   4  -9   37.10   15.50
   0   4   9    6.80    4.30
   0   4   9   12.20   11.70
   0   4   9   26.20   11.50
   1  -4   9  845.72   47.10
  -1  -4  -9 1072.49   53.99
  -1  -4  -9  796.22   45.80
  -1  -4  -9  930.81   45.40
  -1  -4  -9  938.11   53.29
  -1  -4  -9  894.11   49.10
  -1   4  -9  938.81   57.89
   1   4   9  928.31   52.49
  -1   4  -9 1047.50   48.90
  -1   4  -9  957.20   45.50
  -1   4  -9  968.90   58.49
  -1   4  -9 1018.90   48.00
  -2  -4  -9   -7.80    6.50
   2  -4   9   -3.40   10.10
  -2  -4  -9   23.60   11.50
  -2  -4  -9   -8.00   19.00
  -2  -4  -9    2.20    3.80
  -2  -4  -9  -23.80   20.00
   2  -4   9   20.90   12.70
  -2   4  -9    3.60    4.30
  -2   4  -9    5.20    7.60
   2   4   9    4.20    8.30
  -2   4  -9    8.10    7.50
   2   4   9   29.70   16.50
  -2   4  -9   18.90   23.00
  -3  -4  -9   30.50   11.80
   3  -4   9   33.10   17.60
  -3  -4  -9   26.20    7.60
   3  -4   9   46.10   13.10
  -3   4  -9   37.90    9.80
  -3  -5   9   19.90    8.60
   3  -5  -9   50.49   22.50
   3  -5  -9    2.50   14.00
   3   5  -9   43.00   27.10
   3   5  -9   22.60   11.30
  -3   5   9   22.50   10.60
  -2  -5   9   18.60    6.20
  -2  -5   9   33.00   15.70
   2  -5  -9   38.80   23.30
  -2  -5   9   24.20    8.10
   2  -5  -9   49.40   31.10
   2   5  -9    6.30   11.20
  -2   5   9   19.20    9.90
  -2   5   9   42.20   12.80
   1  -5  -9  177.08   22.70
  -1  -5   9  160.88   17.50
  -1  -5   9  169.38   17.70
  -1  -5   9  137.79   15.70
   1  -5  -9  136.69   22.70
   1  -5  -9  183.18   35.80
  -1  -5   9  125.39   33.10
  -1   5   9  173.28   18.30
  -1   5   9  151.38   34.70
   1   5  -9  131.39   33.10
  -1   5   9  172.28   15.90
   1   5  -9  170.38   18.60
   0  -5   9  834.42   43.80
   0  -5  -9  707.13   63.39
   0  -5  -9  817.02   45.50
   0  -5   9  742.83   58.59
   0   5  -9  808.92   43.90
   0   5   9  817.82   47.60
   0   5  -9  832.72   42.90
  -1  -5  -9   88.29   29.10
   1  -5   9  137.19   16.30
  -1  -5  -9  151.88   17.30
  -1  -5  -9  153.08   38.30
  -1   5  -9  161.58   30.50
  -1   5  -9  165.78   17.20
   1   5   9  103.89   20.20
  -2  -5  -9   -1.00    7.40
   2  -5   9   33.40   19.30
  -2  -5  -9   -0.90    4.70
   2  -5   9   30.90   15.80
  -2  -5  -9  -11.60    8.50
  -2   5  -9    4.60    5.40
  -2   5  -9    3.00   11.30
  -2   5  -9   36.70   14.70
   2   5   9   -8.10    8.50
  -3  -5  -9    6.30    5.90
   3  -5   9   10.70    7.40
  -2  -6   9  368.66   24.30
  -2  -6   9  400.46   22.10
   2  -6  -9  356.76   36.30
   2   6  -9  392.66   33.10
  -2   6   9  399.66   22.20
  -1  -6   9   14.20    7.90
   1  -6  -9    3.90   16.30
  -1  -6   9   44.80   21.40
   1  -6  -9  -14.90   14.10
  -1   6   9    9.80   13.00
   1   6  -9    5.70    9.10
   1   6  -9   23.50   16.10
   0  -6  -9   -1.20   10.80
   0   6  -9    1.20   10.80
  -1  -6  -9    6.70   10.20
  -1  -6  -9   -8.50   16.80
   1   6   9   12.40    8.10
  -1   6  -9   11.70    7.80
  -2  -6  -9  305.37   18.80
   2  -6   9  225.08   20.30
  -2   6  -9  258.47   19.80
   0  -7  -9  105.19   24.70
   0   7  -9  142.79   19.60
   0   7   9  150.58   23.30
  -1  -7  -9   91.69   21.70
  -1  -7  -9   47.10   15.20
  -1   7  -9   45.50   12.20
  -1   7  -9   37.00   14.60
   3   0 -10  225.88   30.00
   3   0 -10  193.78   31.60
   3   0 -10  184.68   19.90
   2   0 -10  270.27   48.20
   2   0 -10  140.09   27.20
   2   0 -10  167.18   29.70
  -2   0  10  136.69   13.00
   1   0 -10 2050.79   96.19
  -1   0  10 2098.59   93.89
  -1   0  10 1999.70   93.59
  -1   0  10 1919.41   95.59
  -1   0  10 1914.51   92.69
  -1   0  10 1907.51   93.29
   0   0  10 1951.50   91.09
   0   0  10 2034.90   92.19
   0   0  10 1818.32   94.59
   0   0 -10 2011.40   91.99
   0   0 -10 1882.51   92.19
   0   0  10 2009.40   92.09
   0   0 -10 1834.82   92.79
   0   0  10 1801.62   90.39
   0   0 -10 2017.70   94.19
   0   0  10 1989.80   93.49
  -1   0 -10   18.20    6.20
  -1   0 -10   28.90   17.30
  -1   0 -10   58.69   22.00
  -1   0 -10   -1.80    8.60
   1   0  10   15.10   11.70
  -1   0 -10    2.40    6.70
   1   0  10   12.40   13.40
   1   0  10   14.70   12.70
   1   0  10    2.50   12.80
  -1   0 -10    2.00    9.00
  -1   0 -10    1.80    7.40
  -2   0 -10 1619.14   71.29
   2   0  10 1360.96   76.09
  -2   0 -10 1613.84   70.59
   2   0  10 1561.74   73.89
   2   0  10 1366.16   73.79
  -3   0 -10    5.00    3.30
   3   0  10   -0.50    9.70
   3   0  10   -5.90    9.40
  -3   0 -10   -1.00   16.70
  -3   0 -10   -5.50    5.30
   4   0  10   45.70   27.80
   4   0  10   48.70   10.80
   4   0  10   23.20   15.50
   4  -1 -10   59.59   38.00
   4   1 -10   91.89   24.50
   3   1 -10   47.60   27.10
  -2  -1  10  147.09   13.20
   2  -1 -10  150.68   25.50
   2  -1 -10  140.29   27.40
   2  -1 -10  151.18   29.20
  -2  -1  10  162.78    9.50
   2   1 -10  189.18   36.30
  -2   1  10  160.58    9.90
   2   1 -10  167.68   28.30
   2   1 -10  152.58   18.50
  -2   1  10  147.19   14.40
   1  -1 -10  507.05   32.20
  -1  -1  10  512.55   28.00
  -1  -1  10  510.65   23.90
  -1  -1  10  467.75   25.30
  -1  -1  10  499.05   24.30
   1  -1 -10  493.05   33.10
  -1  -1  10  513.85   27.40
  -1  -1  10  459.65   31.70
  -1   1  10  491.05   24.00
   1   1 -10  538.85   31.50
  -1   1  10  512.85   28.30
  -1   1  10  453.75   31.50
   1   1 -10  518.85   38.00
  -1   1  10  483.05   27.20
  -1   1  10  481.15   24.40
  -1   1  10  508.25   25.80
   0  -1 -10  186.48   17.00
   0  -1 -10  157.48   14.20
   0  -1  10  204.68   10.80
   0  -1  10  170.18   20.00
   0  -1  10  173.98   13.40
   0  -1  10  184.38   16.10
   0  -1  10  190.68   19.10
   0  -1  10  179.78   15.50
   0  -1 -10  146.99   20.70
   0  -1 -10  199.88   20.70
   0   1  10  182.28   15.60
   0   1 -10  197.98   19.70
   0   1  10  183.28   13.90
   0   1 -10  207.58   25.30
   0   1  10  178.48   16.20
   0   1 -10  140.99   18.30
   0   1  10  189.78   10.90
   0   1 -10  140.69   21.30
   0   1 -10  222.68   18.20
   0   1 -10  161.88   19.20
   0   1  10  179.88   18.80
  -1  -1 -10  818.32   51.69
  -1  -1 -10  797.62   38.70
  -1  -1 -10  827.72   46.80
  -1  -1 -10  806.42   39.10
  -1  -1 -10  813.62   47.40
  -1  -1 -10  824.42   44.10
   1  -1  10  854.61   53.59
   1  -1  10  833.32   48.30
  -1  -1 -10  749.62   42.40
   1  -1  10  857.01   44.50
   1   1  10  859.21   45.20
  -1   1 -10  815.82   45.60
   1   1  10  859.41   47.90
  -1   1 -10  805.62   44.80
  -1   1 -10  738.83   54.69
  -1   1 -10  829.72   44.80
   1   1  10  764.42   47.60
  -1   1 -10  825.22   39.30
  -1   1 -10  857.51   49.60
  -1   1 -10  814.72   39.00
  -1   1 -10  796.52   43.00
  -2  -1 -10   29.00    6.70
  -2  -1 -10   43.50    7.60
  -2  -1 -10   59.29   18.10
   2  -1  10   40.60   16.70
  -2  -1 -10   55.49   20.90
   2  -1  10   63.79   30.00
  -2   1 -10   62.59   22.30
  -2   1 -10   42.00    8.60
   2   1  10   37.10   16.60
  -2   1 -10   41.40    7.30
  -3  -1 -10  121.69   39.30
  -3  -1 -10  105.89    9.00
   3  -1  10  104.59   19.40
  -3  -1 -10  144.39   37.80
   3  -1  10   88.49   28.70
   3  -1  10   71.99   18.80
  -3   1 -10   93.99   10.00
   3   1  10   82.89   26.70
   3   1  10   88.49   18.60
  -3   1 -10   88.79   40.90
   3   1  10  140.29   23.00
  -3   1 -10  112.29   11.80
   4  -1  10   41.00   12.10
   4  -1  10   68.39   16.60
   4   1  10   38.90   14.90
   4  -2 -10  205.08   28.90
   4   2 -10  211.88   20.10
   3  -2 -10  230.58   26.30
   3  -2 -10  185.48   24.60
   3  -2 -10  132.79   45.50
  -3  -2  10  168.18   12.10
  -3  -2  10  139.29   25.40
   3   2 -10  182.58   29.70
  -3   2  10  145.69   34.60
  -3   2  10  185.68   13.90
  -2  -2  10  121.19    8.10
   2  -2 -10   85.09   38.00
  -2  -2  10  131.59    9.20
   2  -2 -10   80.69   38.80
  -2  -2  10  115.39   13.20
  -2   2  10  112.09   16.00
  -2   2  10   95.69   10.10
  -2   2  10  109.79    9.30
  -1  -2  10  401.36   32.80
   1  -2 -10  453.95   34.60
  -1  -2  10  458.15   22.50
  -1  -2  10  406.66   28.60
  -1  -2  10  468.45   24.00
   1  -2 -10  475.15   41.70
  -1  -2  10  463.55   21.70
  -1  -2  10  466.05   29.60
  -1   2  10  439.76   24.60
  -1   2  10  461.35   29.10
   1   2 -10  458.45   42.30
  -1   2  10  417.86   27.20
  -1   2  10  417.26   22.10
  -1   2  10  457.35   32.80
  -1   2  10  404.76   22.80
   0  -2 -10   37.20   16.20
   0  -2  10   35.20   16.80
   0  -2  10   32.20   12.60
   0  -2  10   24.90    8.30
   0  -2 -10   56.99   19.00
   0  -2 -10   28.30   13.20
   0  -2  10   39.00   17.10
   0  -2 -10    9.20    8.90
   0  -2 -10   29.40   17.20
   0  -2 -10   10.50    9.30
   0  -2  10   18.20   11.40
   0   2  10    7.70    9.30
   0   2  10   18.00    7.50
   0   2  10   12.80   10.50
   0   2  10   31.50    6.80
   0   2 -10   14.90    9.60
   0   2 -10   11.70    8.10
   0   2  10   40.20   12.20
   0   2  10   19.80    8.40
   0   2 -10    8.60   10.00
   0   2 -10    5.10    9.40
   0   2 -10   33.80   24.50
  -1  -2 -10  236.68   20.80
  -1  -2 -10  286.27   42.10
  -1  -2 -10  185.28   34.60
  -1  -2 -10  236.08   14.20
  -1  -2 -10  244.78   13.80
   1  -2  10  223.98   47.70
   1  -2  10  266.77   30.90
  -1  -2 -10  236.68   36.30
  -1  -2 -10  254.07   22.20
   1  -2  10  186.88   36.10
   1   2  10  233.38   32.80
   1   2  10  237.98   35.10
  -1   2 -10  295.87   35.80
  -1   2 -10  263.37   22.20
  -1   2 -10  241.78   14.60
  -1   2 -10  261.87   49.99
  -1   2 -10  327.57   40.30
   1   2  10  236.68   30.20
  -1   2 -10  259.47   14.20
  -2  -2 -10  169.28   10.70
   2  -2  10  191.38   17.10
  -2  -2 -10  164.88   26.80
  -2  -2 -10  131.69   25.10
   2  -2  10  130.19   21.40
   2  -2  10  159.88   29.20
  -2   2 -10  157.18   10.90
   2   2  10  131.99   20.00
  -2   2 -10  171.48   13.30
  -2   2 -10  148.89   27.40
  -3  -2 -10  227.98   17.20
   3  -2  10  243.48   28.50
  -3  -2 -10  339.17   59.29
  -3  -2 -10  253.27   14.60
  -3   2 -10  255.77   18.10
  -3   2 -10  256.77   15.30
   3   2  10  290.57   25.50
   3   2  10  262.47   26.90
   4  -3 -10   -2.60    4.50
   4   3 -10    5.60    5.40
  -3  -3  10   87.59    9.30
  -3  -3  10   67.79    9.30
   3  -3 -10   75.89   21.80
   3   3 -10   86.09   30.90
   3   3 -10   81.89   13.50
  -3   3  10   70.79   10.90
  -3   3  10   96.29   11.30
  -2  -3  10  709.43   34.40
  -2  -3  10  708.23   38.20
  -2  -3  10  786.42   40.20
   2  -3 -10  759.12   46.70
  -2  -3  10  710.23   34.70
   2  -3 -10  703.73   43.10
   2   3 -10  770.22   38.40
  -2   3  10  717.73   35.30
   2   3 -10  600.84   44.50
  -2   3  10  702.63   35.30
  -2   3  10  701.63   40.30
   1  -3 -10   52.79   19.70
  -1  -3  10   23.50    7.50
  -1  -3  10   38.00    6.30
   1  -3 -10   76.69   36.40
  -1  -3  10   42.40    5.80
  -1  -3  10   64.99   16.30
   1  -3 -10   54.79   17.70
   1   3 -10   35.70   13.90
  -1   3  10   45.00   15.00
   1   3 -10   59.09   14.00
  -1   3  10   28.80    7.40
   1   3 -10   25.60    9.30
  -1   3  10   51.49   14.40
  -1   3  10   43.60    7.00
   1   3 -10  101.79   28.40
   0  -3  10    1.10    4.00
   0  -3  10    0.80    4.80
   0  -3  10   -6.60    8.80
   0  -3 -10   33.10   25.90
   0  -3 -10   -6.60   14.20
   0  -3 -10   -4.00   20.10
   0  -3 -10   -3.90   10.30
   0  -3 -10   33.50   26.80
   0  -3  10   18.70   12.40
   0  -3  10  -10.80   12.90
   0  -3  10   -3.10    9.30
   0  -3 -10    0.40    9.00
   0   3  10    0.50    4.40
   0   3  10    4.90    3.60
   0   3 -10   10.60   15.80
   0   3 -10    4.90    8.00
   0   3  10    4.40    8.50
   0   3  10   -3.40    8.30
   0   3  10   -0.20   11.10
   0   3 -10   -9.80   15.20
   0   3 -10  -11.90   14.70
  -1  -3 -10  260.17   27.00
  -1  -3 -10  235.88   24.30
  -1  -3 -10  228.58   15.20
  -1  -3 -10  225.08   13.40
  -1  -3 -10  238.38   27.90
   1  -3  10  210.68   17.40
  -1   3 -10  195.18   28.70
  -1   3 -10  228.98   15.50
  -1   3 -10  189.48   29.50
  -1   3 -10  242.78   26.00
  -1   3 -10  249.78   14.10
   1   3  10  244.18   21.70
   2  -3  10  553.44   30.20
  -2  -3 -10  516.45   28.60
  -2  -3 -10  537.15   54.09
  -2   3 -10  541.75   27.80
   2   3  10  554.54   35.20
  -2   3 -10  559.04   29.40
  -2   3 -10  515.95   32.70
   2   3  10  594.94   32.70
  -2   3 -10  615.34   49.80
   3  -3  10  319.67   27.20
  -3  -3 -10  356.26   21.90
  -3  -3 -10  386.16   19.30
   3   3  10  427.16   26.40
  -3   3 -10  387.56   20.40
  -3   3 -10  369.36   24.50
   3   3  10  314.57   23.70
   3   3  10  400.46   29.80
   3  -4 -10   36.40   21.10
  -3  -4  10   -2.30    4.70
   3  -4 -10    2.30   15.60
   3   4 -10    2.40    5.60
  -3   4  10   -0.50    6.70
   3   4 -10   -5.00   11.20
  -2  -4  10   -5.10   11.70
   2  -4 -10    1.20   14.90
  -2  -4  10    3.00    4.50
  -2  -4  10   19.20    7.40
   2  -4 -10   -4.20    8.70
   2  -4 -10   11.80    9.20
   2   4 -10   29.20   13.30
   2   4 -10    5.50   11.20
  -2   4  10   -1.00    5.40
   2   4 -10    0.50    6.20
  -2   4  10    2.80    5.60
  -1  -4  10   40.10    9.90
  -1  -4  10   37.20    7.40
   1  -4 -10   30.30   12.20
  -1  -4  10   80.79   20.10
   1   4 -10   92.69   30.20
  -1   4  10   38.10   10.00
  -1   4  10   47.30    8.00
  -1   4  10   67.09   21.30
   0  -4  10   93.89   12.60
   0  -4  10   37.90   11.20
   0  -4 -10   73.49   18.50
   0  -4  10   52.79   29.20
   0   4 -10   67.79   18.60
   0   4  10  114.89   36.40
   0   4  10  113.39   27.40
   0   4  10   69.19   11.50
   0   4  10   62.69   13.50
   0   4 -10   49.20   17.90
  -1  -4 -10  373.56   23.50
  -1  -4 -10  455.35   35.00
  -1  -4 -10  390.26   21.90
  -1   4 -10  386.56   21.70
  -1   4 -10  282.97   54.09
  -1   4 -10  381.56   24.90
   1   4  10  375.56   27.20
  -1   4 -10  411.26   24.30
  -2  -4 -10   83.89   13.30
   2  -4  10   43.40   19.70
  -2  -4 -10   77.59   10.20
  -2  -4 -10   64.09   35.90
  -2  -4 -10   53.49   13.10
   2   4  10   79.49   16.40
  -2   4 -10   22.10   25.60
  -2   4 -10   74.19   15.10
  -2   4 -10   96.89   10.60
  -2   4 -10   81.29   17.70
  -3  -4 -10   10.60    6.20
   3  -4  10   16.80    8.80
   3  -5 -10   19.60    7.30
  -3  -5  10   31.50    9.70
   3   5 -10   29.00    9.20
  -3   5  10   11.40    4.70
  -2  -5  10  628.84   28.70
  -2  -5  10  579.34   29.20
   2  -5 -10  481.75   44.40
  -2   5  10  574.94   30.10
   2   5 -10  511.75   30.50
  -2   5  10  569.24   29.20
  -1  -5  10   34.50   13.60
   1  -5 -10   38.50   17.00
  -1  -5  10   38.60   12.00
   1  -5 -10   21.90    8.30
  -1  -5  10   36.40   19.90
  -1  -5  10   44.90   13.80
  -1   5  10   54.49   11.50
   1   5 -10   39.40   16.00
   1   5 -10   22.90   13.90
  -1   5  10   68.39   37.90
  -1   5  10   62.09   14.10
   0  -5 -10  599.14   35.70
   0  -5  10  567.84   33.70
   0  -5 -10  464.75   57.09
   0   5  10  553.14   37.10
   0   5 -10  510.15   33.10
   0   5 -10  597.74   49.50
   0   5 -10  505.45   31.80
  -1  -5 -10   94.19   17.70
  -1  -5 -10  106.49   30.70
  -1   5 -10   88.69   28.50
  -1   5 -10  115.99   16.00
   1   5  10   99.39   18.20
  -2  -5 -10    5.10    7.20
   2  -5  10    2.70   10.00
  -2  -5 -10    2.20    7.80
   2  -5  10   -0.50    3.90
  -2   5 -10  -11.30    6.10
   2   5  10    2.30    8.20
  -2   5 -10    0.10   13.10
   3  -5  10   32.80    9.50
  -3  -5 -10   18.90   10.70
  -2  -6  10   12.20    7.40
   2  -6 -10  -10.10   12.50
   2   6 -10   38.90   24.00
  -1  -6  10  526.55   31.40
   1  -6 -10  574.74   44.30
   1  -6 -10  525.15   38.50
   1   6 -10  514.85   42.50
   1   6 -10  547.45   32.80
  -1   6  10  578.64   30.30
   0  -6  10   61.69   27.40
   0   6 -10   56.29   21.40
  -1  -6 -10    1.20   14.60
  -1  -6 -10   -2.00   10.00
   1  -6  10    4.60    9.10
  -1   6 -10    1.20    7.50
  -1   6 -10   -2.90   12.90
   1   6  10    7.60    7.50
  -2  -6 -10  111.59   17.60
  -2   6 -10  115.79   21.30
  -1  -7  10   68.19   19.50
   1   7 -10   56.59   16.30
   1   7 -10   87.09   25.60
   0  -7  10   21.00   15.00
   0  -7 -10   -8.90   11.10
   0  -7 -10    9.30   14.40
   0   7 -10   17.50    8.00
   0   7  10   53.69   25.00
   0   7 -10   10.30   10.50
  -1  -7 -10   63.69   15.20
   1  -7  10  107.89   15.10
  -1   7 -10   83.29   14.80
   1   7  10   99.29   16.50
  -1   7 -10   76.49   25.60
   4   0 -11   -1.40   13.60
   3   0 -11   -6.40   10.10
   2   0 -11   -8.70    9.90
   2   0 -11   -3.20    9.10
  -2   0  11    6.50    5.80
   2   0 -11   -3.50    9.80
   2   0 -11    8.50   14.70
  -2   0  11    1.60    3.30
  -1   0  11    1.80    2.40
   1   0 -11   49.70   21.60
  -1   0  11    1.70    4.00
  -1   0  11   -2.40    9.60
  -1   0  11   -3.10    6.10
  -1   0  11    0.20   10.30
  -1   0  11    1.40    2.70
   0   0  11    1.40    3.10
   0   0  11    5.00    9.60
   0   0  11   -3.60    4.60
   0   0 -11    3.60    9.70
   0   0 -11   50.19   18.70
   0   0  11    6.90    8.60
   0   0  11    0.50    5.00
   0   0  11    4.00    3.20
   0   0 -11    8.50    7.70
  -1   0 -11   -4.80    9.10
   1   0  11    6.00   16.20
  -1   0 -11   14.80   20.70
  -1   0 -11    4.10    3.70
   1   0  11   -5.40   14.40
  -1   0 -11   37.40   20.70
   1   0  11   11.90   16.50
   1   0  11   -9.20   15.30
  -1   0 -11    0.00    2.70
  -1   0 -11   -5.20    7.50
  -1   0 -11  -11.10   10.70
  -1   0 -11    6.10   21.10
   2   0  11    7.70   11.10
  -2   0 -11   -1.40    2.90
  -2   0 -11   11.70   11.10
   2   0  11    2.70   10.20
  -2   0 -11   -5.50    6.10
   2   0  11   -3.70    9.30
  -3   0 -11    0.90    8.40
   3   0  11   58.69   25.00
  -3   0 -11  -24.20   18.80
  -3   0 -11   61.89   41.20
   3   0  11   -2.50   16.20
   4   0  11   70.29   30.50
   4   0  11   46.60   11.40
   4  -1 -11  178.68   32.60
   4  -1 -11  227.78   24.50
   4   1 -11  171.98   31.60
   3  -1 -11   14.30    7.90
  -3  -1  11   21.40    8.70
   3  -1 -11   40.50   23.30
   3   1 -11   45.20   25.00
   2  -1 -11  590.34   38.10
  -2  -1  11  557.84   29.90
  -2  -1  11  563.34   26.80
   2  -1 -11  543.35   36.10
   2  -1 -11  508.35   38.60
  -2   1  11  572.34   30.20
   2   1 -11  561.74   31.80
  -2   1  11  558.34   27.00
   2   1 -11  527.95   45.20
   2   1 -11  495.95   37.00
   2   1 -11  562.94   46.00
  -1  -1  11  826.52   38.90
   1  -1 -11  805.52   47.90
  -1  -1  11  758.22   46.70
  -1  -1  11  838.72   43.10
  -1  -1  11  851.31   42.40
  -1  -1  11  841.22   38.90
  -1  -1  11  806.52   40.50
  -1   1  11  833.12   46.70
  -1   1  11  862.31   38.90
  -1   1  11  815.62   38.90
   1   1 -11  886.61   53.09
  -1   1  11  765.82   43.40
  -1   1  11  782.32   42.50
   1   1 -11  749.73   46.10
  -1   1  11  838.72   40.70
   0  -1 -11   29.30   15.00
   0  -1 -11   63.29   22.90
   0  -1  11   53.39   15.90
   0  -1  11   45.30    7.00
   0  -1  11   63.99    8.60
   0  -1  11   85.49   20.00
   0  -1  11   37.10   14.60
   0  -1 -11   60.59   16.00
   0  -1  11   61.39   11.50
   0   1  11   42.40   11.50
   0   1 -11   39.80   15.80
   0   1  11   60.89    8.60
   0   1 -11   75.69   28.10
   0   1  11   57.99   14.70
   0   1  11   37.60   15.50
   0   1 -11   50.89   18.80
   0   1 -11   73.49   21.20
   0   1  11   47.70    7.90
   0   1  11   50.59   19.30
   1  -1  11  730.03   47.90
  -1  -1 -11  761.02   51.79
   1  -1  11  782.02   50.19
  -1  -1 -11  740.53   47.90
  -1  -1 -11  685.93   40.20
  -1  -1 -11  736.53   47.50
   1  -1  11  790.72   54.89
  -1  -1 -11  787.12   40.20
  -1  -1 -11  681.83   36.00
  -1   1 -11  734.73   36.50
   1   1  11  728.73   44.40
  -1   1 -11  722.43   49.50
  -1   1 -11  694.63   45.70
  -1   1 -11  810.32   42.00
  -1   1 -11  815.42   58.09
  -1   1 -11  768.22   43.70
   1   1  11  724.13   48.70
   2  -1  11  196.38   26.10
   2  -1  11  227.28   21.30
  -2  -1 -11  237.78   28.30
   2  -1  11  244.58   22.70
   2  -1  11  187.78   27.60
  -2  -1 -11  230.58   14.90
  -2  -1 -11  228.48   13.00
  -2  -1 -11  204.68   24.80
   2   1  11  263.47   33.10
  -2   1 -11  203.48   16.00
   2   1  11  190.78   21.10
  -2   1 -11  216.68   13.30
  -2   1 -11  253.37   28.40
   3  -1  11   60.19   31.30
   3  -1  11   -7.10   20.90
  -3  -1 -11   39.20   21.80
  -3  -1 -11   28.60   26.80
   3  -1  11   21.00   10.10
  -3  -1 -11   32.60    7.90
   3   1  11   30.40   15.20
  -3   1 -11   42.70   18.60
   3   1  11   42.90   23.50
   3   1  11   36.00   21.30
  -3   1 -11   33.00    8.60
   4  -1  11   62.89   11.60
   4   1  11   77.39   21.40
   4  -2 -11   38.70   23.10
   4   2 -11   35.70   13.70
  -3  -2  11  290.47   16.70
   3  -2 -11  281.87   50.59
   3  -2 -11  329.27   27.60
  -3  -2  11  277.37   16.50
   3  -2 -11  272.77   27.80
  -3  -2  11  275.17   29.40
   3   2 -11  324.07   31.80
  -3   2  11  230.18   39.90
  -3   2  11  269.57   17.00
  -2  -2  11  222.38   12.80
  -2  -2  11  226.08   17.80
   2  -2 -11  241.98   25.50
   2  -2 -11  236.38   23.30
   2  -2 -11  197.48   27.70
   2   2 -11  242.78   17.10
  -2   2  11  194.88   14.60
  -2   2  11  215.78   20.00
  -2   2  11  176.98   15.90
   2   2 -11  243.38   28.10
  -1  -2  11   79.29   15.00
  -1  -2  11  106.99   30.00
   1  -2 -11   66.39   39.70
  -1  -2  11   65.39    7.10
  -1  -2  11   58.19    6.40
  -1  -2  11   51.39   21.80
   1   2 -11   25.80   17.00
  -1   2  11   70.89    8.10
  -1   2  11   71.79   13.50
  -1   2  11  113.69   28.60
  -1   2  11   69.19    7.30
  -1   2  11   80.69   19.90
   0  -2 -11  797.62   46.20
   0  -2 -11  634.54   40.70
   0  -2  11  762.82   34.30
   0  -2  11  715.93   41.50
   0  -2  11  725.73   47.00
   0  -2 -11  689.33   41.10
   0  -2  11  687.53   45.50
   0  -2  11  738.63   37.70
   0  -2  11  735.53   34.30
   0  -2 -11  709.83   37.80
   0   2  11  655.73   44.20
   0   2  11  638.24   40.70
   0   2  11  668.43   34.30
   0   2  11  720.73   34.70
   0   2 -11  673.33   42.50
   0   2 -11  723.93   54.89
   0   2  11  691.33   40.50
   0   2 -11  686.03   42.00
   0   2  11  712.03   38.00
  -1  -2 -11   71.59    7.50
  -1  -2 -11   34.70   37.40
  -1  -2 -11   64.89   22.00
   1  -2  11   62.09   14.20
  -1  -2 -11   66.49    8.90
   1  -2  11   71.29   32.50
   1  -2  11  192.78   69.09
   1  -2  11   39.60   33.50
  -1   2 -11   67.39    8.90
   1   2  11  135.89   36.30
   1   2  11   33.40   28.60
  -1   2 -11   71.19   10.00
  -1   2 -11   74.89   28.60
   1   2  11   53.29   19.90
  -1   2 -11  100.09   21.30
  -2  -2 -11   12.10   14.10
  -2  -2 -11   40.40    9.60
   2  -2  11   38.90   14.00
   2  -2  11   15.50   14.00
  -2  -2 -11   29.90   17.00
  -2  -2 -11   35.40    7.20
   2   2  11   45.50   27.30
  -2   2 -11   63.89   30.50
   2   2  11   58.49   18.50
  -2   2 -11   25.10    7.80
  -2   2 -11   42.00   10.80
  -3  -2 -11   71.29    8.30
   3  -2  11   51.69   19.00
  -3  -2 -11   85.69   12.30
   3  -2  11   80.59   32.50
  -3   2 -11   70.69    9.40
   3   2  11   66.89   23.30
  -3   2 -11   67.09   13.30
   3   2  11   39.80   17.60
   3  -3 -11   69.69   49.70
  -3   3  11   31.50   11.00
  -3   3  11   42.90   10.90
   2  -3 -11   38.70   20.50
   2  -3 -11   59.19   25.90
  -2  -3  11   46.90    7.40
  -2  -3  11   72.69   19.30
  -2  -3  11   38.60   16.40
  -2  -3  11   38.80    7.20
  -2   3  11   42.70    8.80
   2   3 -11   44.70   12.30
  -2   3  11   49.10    9.50
  -2   3  11   44.10   20.50
   1  -3 -11   13.40    8.90
  -1  -3  11    9.40    7.60
  -1  -3  11    9.00    3.90
  -1  -3  11    7.80    8.60
   1  -3 -11   38.50   21.10
  -1  -3  11   14.60    6.50
   1   3 -11   17.70   13.30
  -1   3  11   14.40    7.50
  -1   3  11   16.90    8.30
   1   3 -11   11.90    8.10
  -1   3  11   35.30   16.30
  -1   3  11   24.20    7.10
   1   3 -11    9.90    7.10
   0  -3 -11   65.09   17.30
   0  -3  11   49.50    9.30
   0  -3  11   54.29   10.50
   0  -3  11   43.90   17.30
   0   3  11   62.99   10.20
   0   3 -11   43.70   20.10
   0   3  11   59.49   14.70
   1  -3  11   63.99   24.90
  -1  -3 -11  104.49   12.10
  -1  -3 -11  107.89   29.60
  -1  -3 -11  147.59   23.60
  -1  -3 -11  110.49    9.70
  -1  -3 -11  131.19   24.30
  -1   3 -11   93.59   13.70
  -1   3 -11  141.59   30.60
   1   3  11  121.89   24.10
  -1   3 -11  121.59   27.10
  -1   3 -11  115.59   10.80
  -2  -3 -11   92.89   35.90
  -2  -3 -11  154.98   32.30
  -2  -3 -11  111.59   12.80
   2  -3  11   94.09   20.60
   2  -3  11  136.39   15.00
  -2   3 -11   95.29   21.40
  -2   3 -11  189.38   40.00
  -2   3 -11  103.99   14.50
   2   3  11  121.19   17.20
  -2   3 -11  110.89   11.00
   3  -3  11   32.70   19.90
  -3  -3 -11   70.59   12.70
   3  -3  11   56.39   25.70
  -3  -3 -11   48.00    7.90
   3   3  11   82.29   21.40
   3   3  11   41.00   16.70
  -3   3 -11   51.39    9.60
  -3   3 -11   28.40   10.20
   3  -4 -11  403.46   29.90
  -3  -4  11  393.16   20.50
  -3  -4  11  397.36   23.30
   3  -4 -11  431.76   29.30
  -3   4  11  354.06   21.50
   3   4 -11  355.76   32.70
   3   4 -11  389.46   22.00
   2  -4 -11   41.40   22.70
  -2  -4  11   31.10   13.60
  -2  -4  11   44.80    8.00
   2   4 -11   42.90   13.10
  -2   4  11   78.39   30.00
  -1  -4  11    9.50    5.80
   1  -4 -11    0.40    7.90
  -1  -4  11   13.90    8.10
  -1  -4  11    8.40   11.80
  -1  -4  11   19.20    8.00
   1  -4 -11   -6.30    9.60
  -1   4  11    4.20    3.40
  -1   4  11   10.00   12.00
   1   4 -11    7.10   13.00
   1   4 -11    1.10    7.70
   1   4 -11   10.30    7.30
  -1   4  11    8.90    5.90
   0  -4 -11  594.74   47.80
   0  -4  11  664.73   38.90
   0  -4 -11  602.74   35.70
   0  -4  11  576.64   31.40
   0   4 -11  642.84   35.70
   0   4 -11  592.84   35.60
   0   4  11  571.64   31.60
   0   4  11  567.84   38.60
   0   4  11  627.54   33.50
  -1  -4 -11  358.66   23.40
   1  -4  11  335.47   23.10
  -1  -4 -11  418.56   36.60
  -1  -4 -11  374.26   28.70
  -1   4 -11  346.57   30.60
  -1   4 -11  378.76   24.10
   1   4  11  405.16   27.20
  -1   4 -11  388.26   21.90
  -2  -4 -11  212.28   40.30
   2  -4  11  272.37   18.70
  -2  -4 -11  269.67   48.80
   2  -4  11  231.08   24.40
  -2  -4 -11  268.37   18.30
  -2  -4 -11  260.37   16.40
   2   4  11  281.57   21.30
  -2   4 -11  371.26   57.99
  -2   4 -11  246.68   22.70
  -2   4 -11  262.57   17.30
  -2   4 -11  254.87   32.70
   3  -4  11   32.00   15.30
  -3  -4 -11   43.00    8.30
  -3   4 -11   51.19   11.70
   3   4  11   46.00   18.70
   3  -5 -11   31.20   18.60
   3  -5 -11   32.40   15.70
   3   5 -11   30.80   20.30
   2  -5 -11   -4.80   10.00
  -2  -5  11    3.80    4.20
  -2  -5  11   33.90   16.40
   2  -5 -11   33.60   19.80
   2  -5 -11    2.20   15.70
  -2  -5  11    8.40    6.70
   2   5 -11    9.50    5.20
  -2   5  11    9.30    7.50
  -2   5  11    9.00    4.60
   2   5 -11    2.70   11.20
  -1  -5  11   16.10    8.40
  -1  -5  11   30.30   12.90
  -1  -5  11   21.70   12.80
  -1  -5  11  -11.60   20.90
   1  -5 -11   26.30   11.50
   1  -5 -11   43.40   18.80
   1  -5 -11    3.80   16.70
  -1   5  11    4.60    5.20
   1   5 -11    8.30   13.60
   1   5 -11    3.10    6.30
  -1   5  11   33.50   21.30
   1   5 -11    9.40    7.50
  -1   5  11    8.70    8.30
   0  -5 -11  246.48   52.29
   0  -5 -11  159.38   22.10
   0  -5  11  169.18   21.70
   0   5 -11  129.59   19.40
   0   5 -11  167.08   20.70
   0   5  11  154.78   26.20
  -1  -5 -11  223.98   43.70
  -1  -5 -11  185.48   19.40
   1   5  11  167.68   21.10
  -1   5 -11  207.58   18.70
  -1   5 -11  200.08   30.40
  -2  -5 -11    9.40    7.20
   2   5  11    5.20    8.30
  -2   5 -11   -5.10    6.70
  -2   5 -11    2.20    7.40
  -2  -6  11   87.29   14.00
  -2  -6  11   57.89   13.00
   2  -6 -11   60.79   26.90
   2   6 -11   54.89   20.30
  -2   6  11   45.40   12.30
   1  -6 -11  118.29   28.30
   1  -6 -11  140.09   32.70
  -1  -6  11  143.59   21.10
   1   6 -11  161.28   19.00
   1   6 -11  131.29   34.40
   0  -6 -11  101.69   24.00
   0  -6  11   61.49   24.40
   0  -6 -11   95.89   33.70
   0   6  11   49.00   28.00
   0   6 -11  103.99   16.00
   0   6 -11   77.89   23.40
   1  -6  11   24.60   10.10
  -1  -6 -11   65.79   20.70
   1   6  11   37.50   17.30
  -1   6 -11   26.70   16.10
  -1   6 -11   48.30   15.70
   2  -6  11   31.80   13.40
  -2  -6 -11    0.60    6.90
   2   6  11    0.20    8.50
  -2   6 -11   31.80   12.20
  -1  -7  11   53.89   15.20
   1   7 -11   33.70   19.20
   0  -7 -11   12.40   13.70
   0   7 -11   12.10   10.50
   0   7  11    6.30   10.30
  -1  -7 -11  114.59   28.30
   1  -7  11   88.09   12.90
   1   7  11  109.79   19.10
  -1   7 -11  104.99   15.70
   4   0 -12   61.79   23.30
   3   0 -12  526.95   35.80
   3   0 -12  523.15   40.80
  -2   0  12  588.14   28.60
  -2   0  12  609.54   31.30
   2   0 -12  476.35   41.60
  -2   0  12  633.44   28.50
   2   0 -12  582.64   42.40
   2   0 -12  566.14   33.00
  -1   0  12   54.39    6.20
  -1   0  12   58.39   16.70
  -1   0  12   64.39    7.30
   1   0 -12   63.99   27.20
  -1   0  12   69.79   10.10
   0   0  12  782.42   36.40
   0   0  12  801.02   41.30
   0   0 -12  748.73   47.00
   0   0  12  731.33   38.50
   0   0  12  791.42   41.70
   0   0  12  785.62   36.40
   0   0 -12  611.44   46.20
   0   0 -12  720.83   40.70
   0   0  12  790.72   44.70
  -1   0 -12  664.93   45.60
  -1   0 -12  606.94   31.40
  -1   0 -12  645.84   37.40
   1   0  12  584.44   42.60
   1   0  12  709.73   47.20
  -1   0 -12  621.04   30.80
  -1   0 -12  641.24   53.79
  -2   0 -12   22.70    9.30
  -2   0 -12   24.00    6.90
  -3   0 -12   79.99    9.20
  -3   0 -12   80.49   11.70
   4  -1 -12  171.08   24.30
   4   1 -12  208.98   27.10
  -3  -1  12   40.30    9.30
   3  -1 -12   25.50   10.10
   3  -1 -12   24.00    8.30
   3   1 -12   49.10   24.00
  -3   1  12   45.20   10.60
   3   1 -12   36.60   16.20
  -2  -1  12   68.49    8.20
   2  -1 -12   40.50   24.00
   2  -1 -12  116.19   27.40
  -2  -1  12   84.19   14.50
  -2  -1  12   81.29    8.60
  -2   1  12   59.39    8.70
  -2   1  12   78.39   14.80
   2   1 -12   64.39   32.30
   2   1 -12  126.59   35.30
  -2   1  12   64.89    8.00
  -1  -1  12  196.38   22.10
   1  -1 -12  144.19   30.80
  -1  -1  12  175.88   10.30
  -1  -1  12  148.99   28.80
  -1  -1  12  157.08   11.30
  -1  -1  12  183.88   20.50
  -1   1  12  202.58   28.30
  -1   1  12  182.38   10.40
   1   1 -12  201.18   42.10
  -1   1  12  171.88   10.80
  -1   1  12  152.68   21.50
  -1   1  12  167.68   22.90
   1   1 -12  128.69   29.60
   0  -1 -12   34.00   21.60
   0  -1  12   35.00    7.50
   0  -1  12    9.20   13.60
   0  -1  12   52.49   17.50
   0  -1  12   75.59   18.20
   0  -1  12   18.60    8.00
   0  -1 -12   37.10   18.60
   0   1 -12   71.49   20.00
   0   1  12   41.80   19.90
   0   1  12   35.20   14.80
   0   1  12   27.70   12.80
   0   1  12   35.30    8.10
   0   1  12   16.30   12.70
   0   1 -12   38.50   26.80
   0   1  12   43.10    7.40
   1  -1  12    7.80   20.90
  -1  -1 -12   68.29   20.50
   1  -1  12   55.09   26.60
  -1  -1 -12   48.00   25.50
  -1  -1 -12   35.30   18.30
  -1  -1 -12   37.20    7.00
  -1  -1 -12   12.50   13.70
  -1  -1 -12   44.60    7.80
  -1   1 -12   31.20    8.00
  -1   1 -12   47.80    9.60
   1   1  12   67.19   28.30
  -1   1 -12   94.59   52.09
   1   1  12   79.89   37.10
  -1   1 -12   49.80   22.30
   1   1  12   58.79   19.20
  -2  -1 -12   19.00   13.60
   2  -1  12   56.89   25.00
  -2  -1 -12   40.90    6.80
  -2  -1 -12   31.00   17.40
   2   1  12   43.90   17.80
  -2   1 -12   36.60    7.60
   2   1  12   42.50   18.70
  -2   1 -12   35.00   11.00
   3  -1  12   45.20   20.90
   4  -2 -12   31.50   22.60
   4   2 -12   26.20   14.70
  -3  -2  12   47.90    9.80
  -3  -2  12   54.99   15.60
  -3  -2  12   76.29   30.80
   3  -2 -12   32.50   22.80
   3   2 -12   40.30   24.30
  -3   2  12   48.00   15.00
  -2  -2  12  174.38   17.70
  -2  -2  12  158.08   10.70
  -2  -2  12  156.68   10.90
   2  -2 -12  154.48   38.00
  -2   2  12  161.78   12.00
  -2   2  12  151.88   20.40
  -2   2  12  151.58   12.40
   1  -2 -12  209.18   21.30
  -1  -2  12  197.78   12.20
  -1  -2  12  192.58   21.40
  -1  -2  12  235.38   17.40
  -1  -2  12  217.28   12.80
   1  -2 -12  169.78   27.20
   1  -2 -12  207.38   26.90
   1  -2 -12  194.48   32.30
  -1   2  12  212.48   12.80
  -1   2  12  235.48   14.50
   1   2 -12  219.28   17.40
   1   2 -12  202.68   20.90
  -1   2  12  181.18   20.00
  -1   2  12  211.98   18.20
   1   2 -12  225.38   26.80
   0  -2 -12  215.78   40.70
   0  -2 -12  182.48   27.10
   0  -2  12  157.08   29.60
   0  -2  12  151.08   11.50
   0  -2  12  149.49   11.20
   0  -2 -12  187.38   36.50
   0  -2  12  141.09   19.20
   0   2  12  151.58   26.90
   0   2  12  141.99   11.30
   0   2 -12  110.19   29.90
   0   2  12  157.98   11.90
   0   2  12  143.29   19.20
   0   2 -12  161.68   29.20
   0   2 -12   80.69   40.80
  -1  -2 -12  483.05   35.10
  -1  -2 -12  498.65   35.90
  -1  -2 -12  520.05   33.70
  -1  -2 -12  478.25   25.90
   1  -2  12  516.75   35.20
  -1   2 -12  486.35   32.90
  -1   2 -12  532.15   27.10
  -1   2 -12  494.05   25.50
  -1   2 -12  532.45   39.00
   1   2  12  446.06   31.60
   1   2  12  505.45   34.50
  -1   2 -12  465.35   35.80
   2  -2  12  120.09   20.80
  -2  -2 -12  106.19    9.10
  -2  -2 -12  109.39   11.90
   2  -2  12   82.69   15.30
  -2  -2 -12   67.79   30.50
  -2  -2 -12  138.89   31.50
   2  -2  12  120.39   27.10
  -2   2 -12   99.49   14.40
  -2   2 -12  101.69   35.60
   2   2  12  107.29   28.40
   2   2  12   70.89   18.20
  -2   2 -12  107.39    9.80
   2   2  12  121.79   17.80
   3  -2  12  111.79   32.00
  -3  -2 -12  107.09   13.70
   3  -2  12  115.49   29.60
   3  -2  12  159.08   20.70
  -3   2 -12  114.99   11.30
  -3   2 -12  117.69   15.40
   3   2  12  119.19   22.60
   3   2  12  152.78   19.40
  -3  -3  12   62.19    9.70
  -3  -3  12   65.69   11.70
   3  -3 -12   80.89   22.40
   3  -3 -12   88.79   44.90
   3   3 -12   89.69   13.80
  -3   3  12   58.19   11.70
  -3   3  12   71.59   11.70
   3   3 -12   97.49   25.50
   2  -3 -12   12.40   15.60
   2  -3 -12    2.80    8.90
  -2  -3  12    2.00   10.60
  -2  -3  12    5.30    4.50
   2  -3 -12    2.20    8.30
  -2  -3  12    4.40    3.30
  -2   3  12   18.80    9.60
  -2   3  12    7.30    5.20
   2   3 -12    1.70   10.00
   2   3 -12   -1.50    5.90
  -1  -3  12  307.87   16.40
  -1  -3  12  283.47   22.90
  -1  -3  12  293.37   16.40
   1   3 -12  309.77   39.80
  -1   3  12  285.37   24.70
   1   3 -12  329.17   33.00
  -1   3  12  278.17   17.20
  -1   3  12  300.17   17.00
   0  -3  12  539.75   39.70
   0  -3  12  572.54   30.10
   0  -3  12  612.84   29.30
   0  -3  12  525.55   33.30
   0  -3 -12  595.34   33.00
   0   3  12  586.64   29.50
   0   3 -12  587.24   32.90
   0   3  12  574.34   32.10
   0   3 -12  558.74   31.00
   0   3  12  619.24   38.90
   0   3  12  543.85   30.30
   0   3  12  586.34   39.60
   0   3 -12  582.14   34.00
  -1  -3 -12   -1.40   14.80
  -1  -3 -12  -18.10   14.80
  -1  -3 -12    5.80    4.20
  -1   3 -12   -3.70    4.70
  -1   3 -12    7.50   19.00
  -1   3 -12   -3.80    7.90
   1   3  12   -2.20    8.50
  -1   3 -12   26.90   15.10
  -2  -3 -12  360.96   22.80
  -2  -3 -12  425.96   42.10
   2  -3  12  399.56   23.70
   2  -3  12  324.37   29.20
  -2  -3 -12  330.37   48.00
  -2  -3 -12  393.96   20.90
  -2   3 -12  407.76   49.30
  -2   3 -12  394.06   24.50
   2   3  12  301.57   47.50
  -2   3 -12  404.26   21.60
   2   3  12  446.56   27.50
  -2   3 -12  371.46   29.20
   2   3  12  385.76   25.90
  -3  -3 -12  229.48   13.00
   3  -3  12  180.98   20.70
  -3  -3 -12  192.88   17.00
  -3   3 -12  256.37   14.60
   3  -4 -12   31.10   20.60
   3  -4 -12   55.19   36.80
  -3  -4  12   17.30    8.60
  -3   4  12    3.20    4.40
   3   4 -12   10.60    9.90
   2  -4 -12   24.30    9.60
   2  -4 -12   30.80   15.80
  -2  -4  12   32.80   15.40
  -2  -4  12   31.30    8.70
  -2  -4  12   48.20   21.20
   2   4 -12   39.90   11.80
  -2   4  12   27.70    9.60
  -2   4  12  103.49   33.70
  -2   4  12   45.90   10.70
   2   4 -12   56.39   28.00
   1  -4 -12   28.20   19.30
   1  -4 -12    6.20    9.60
  -1  -4  12    3.40    6.50
  -1  -4  12    2.10   13.20
  -1  -4  12   -1.10    4.10
  -1  -4  12   -2.30    7.60
   1   4 -12    1.60    7.70
   1   4 -12   -4.20   13.00
  -1   4  12   -4.40   13.70
  -1   4  12    3.00    6.70
   1   4 -12    9.90    6.30
   1   4 -12   17.20   12.70
   0  -4 -12   82.09   16.60
   0  -4  12   45.50   17.60
   0   4  12   42.80   13.70
   0   4 -12   57.29   15.30
   0   4 -12   48.60   18.50
  -1  -4 -12   52.49   22.50
  -1  -4 -12   12.10    7.80
  -1   4 -12   -9.10   11.90
   1   4  12   13.70    8.90
  -1   4 -12   31.70   15.80
  -2  -4 -12   34.40   12.20
  -2  -4 -12   55.99   14.70
  -2  -4 -12   39.00   10.40
   2  -4  12   40.20   14.60
   2   4  12   13.50   12.50
   3  -4  12   -1.20    8.10
  -3  -4 -12   19.80   10.90
   3   4  12   -1.30   10.20
   3  -5 -12  179.18   17.50
   3  -5 -12  121.59   31.20
   3   5 -12  172.88   22.30
   3   5 -12  174.68   11.00
  -2  -5  12   -8.10    8.90
  -2  -5  12    4.90    7.70
   2  -5 -12   -4.80   14.90
   2  -5 -12   -6.20   10.30
   2  -5 -12    6.30    8.10
  -2  -5  12    1.70    4.50
   2   5 -12  -13.80   10.40
   2   5 -12   -3.10    4.90
  -2   5  12    1.50    8.10
  -2   5  12    1.00    4.50
   1  -5 -12  679.03   49.70
   1  -5 -12  610.64   42.80
  -1  -5  12  571.94   53.69
  -1  -5  12  601.34   33.70
  -1  -5  12  531.35   35.20
   1  -5 -12  657.83   35.40
  -1  -5  12  615.04   32.60
   1   5 -12  527.05   31.10
   1   5 -12  533.75   45.50
   1   5 -12  650.63   43.70
  -1   5  12  603.34   34.30
  -1   5  12  611.74   32.00
   1   5 -12  611.44   33.10
  -1   5  12  624.54   57.19
   0  -5 -12  196.68   22.70
   0  -5  12  158.58   22.20
   0   5 -12  204.98   21.90
   0   5 -12  207.58   19.80
   0   5  12  186.78   27.60
  -1  -5 -12   49.10   46.00
  -1  -5 -12  113.99   17.90
   1  -5  12  117.99   21.90
   1   5  12   94.39   17.90
  -1   5 -12   88.49   17.80
  -1   5 -12   76.89   29.90
  -2  -5 -12   90.89   13.30
  -2   5 -12   97.69   16.70
   2   5  12   96.39   16.10
  -2  -6  12  163.98   18.10
  -2   6  12  112.69   17.60
   1  -6 -12   36.10   13.90
   1  -6 -12   27.70   13.80
  -1  -6  12   55.29   15.40
   1   6 -12   86.19   31.00
   1   6 -12   48.60   17.60
   0  -6 -12  252.27   36.70
   0  -6 -12  221.08   24.00
   0  -6  12  210.08   24.20
   0   6 -12  208.48   22.00
   0   6  12  202.68   27.90
   0   6 -12  249.88   24.00
  -1  -6 -12   66.69   20.30
  -1  -6 -12   96.19   27.40
   1  -6  12   71.09   19.30
  -1   6 -12   59.69   15.80
   1   6  12   54.69   15.80
  -1   6 -12   40.10   22.50
  -2  -6 -12    4.80    6.90
  -2   6 -12    9.80    6.20
   2   6  12   11.30   10.50
  -1  -7  12   33.90   14.90
   1  -7 -12   70.29   26.40
   0  -7 -12   49.60   22.30
   0  -7 -12  101.39   26.40
   0  -7  12   77.79   14.00
   0   7  12   47.80   20.30
   0   7 -12   64.29   17.40
   4   0 -13   -4.10   10.40
   3   0 -13   -0.40    9.00
  -3   0  13    3.40    5.90
   3   0 -13   -8.60    9.10
   2   0 -13   13.20   13.00
  -2   0  13  -14.50    9.20
   2   0 -13   10.30    9.80
  -2   0  13    7.20    3.50
   2   0 -13    1.00    8.70
  -1   0  13    2.00    2.80
   1   0 -13   30.80   35.40
   1   0 -13    6.60   12.50
  -1   0  13   24.50   15.40
  -1   0  13    6.30    5.70
   1   0 -13    9.20   10.90
  -1   0  13  -11.20   16.20
   0   0  13   -0.40    3.50
   0   0  13    1.30   15.50
   0   0  13   -0.70    8.10
   0   0  13   -4.40    6.90
   0   0 -13   10.00   27.00
   0   0  13   62.19   28.00
   0   0  13    1.20    3.70
   0   0 -13    1.40   11.30
   1   0  13   -6.40   10.10
  -1   0 -13   -3.50    3.20
  -1   0 -13   -1.80    4.70
  -2   0 -13    7.20    5.80
  -2   0 -13   -1.20    3.10
   2   0  13   37.40   17.00
   2   0  13    5.00    8.90
  -3   0 -13   -0.70    6.80
   3   0  13    7.10    9.60
   3   0  13    8.00   10.20
   4  -1 -13   50.69   31.60
   4   1 -13   52.79   22.90
  -3  -1  13  293.67   49.00
   3  -1 -13  357.96   29.70
   3  -1 -13  327.37   31.40
   3   1 -13  394.96   43.90
   3   1 -13  383.86   23.80
   3   1 -13  376.56   31.90
   2  -1 -13  234.88   28.20
   2  -1 -13  266.87   28.70
   2  -1 -13  232.28   24.80
  -2  -1  13  248.38   19.70
  -2  -1  13  226.38   14.40
  -2   1  13  257.07   16.70
   2   1 -13  208.28   27.00
   2   1 -13  253.47   35.40
  -2   1  13  242.48   14.70
   2   1 -13  201.48   34.10
   2   1 -13  216.28   18.10
  -2   1  13  237.18   20.90
  -1  -1  13  295.47   35.40
   1  -1 -13  312.37   35.10
   1  -1 -13  356.96   30.20
  -1  -1  13  378.86   22.70
  -1  -1  13  373.46   18.80
  -1  -1  13  387.56   48.00
  -1   1  13  386.56   23.10
  -1   1  13  402.86   47.60
   1   1 -13  375.86   29.90
   1   1 -13  323.27   30.00
   1   1 -13  384.86   22.40
   1   1 -13  395.06   54.29
  -1   1  13  370.46   18.90
   0  -1 -13  517.05   39.10
   0  -1  13  556.04   27.80
   0  -1  13  603.24   32.20
   0  -1  13  499.55   43.10
   0  -1 -13  629.24   45.10
   0  -1  13  586.44   29.10
   0  -1  13  472.05   36.40
   0  -1  13  504.45   36.60
   0  -1 -13  545.55   36.70
   0   1  13  567.84   27.80
   0   1  13  591.94   43.00
   0   1  13  509.85   37.20
   0   1  13  579.74   32.10
   0   1 -13  509.85   38.00
   0   1  13  584.14   28.90
   0   1 -13  563.64   51.19
   0   1  13  554.94   37.30
   1  -1  13  135.89   24.80
  -1  -1 -13  115.99   23.00
  -1  -1 -13  157.08   23.90
  -1   1 -13  134.39   33.60
   1   1  13  112.09   24.60
   1   1  13  146.09   19.10
  -1   1 -13  107.79   23.30
  -1   1 -13  142.49   16.20
  -1   1 -13  150.48   13.00
   1   1  13  145.79   20.70
  -2  -1 -13   28.80    7.20
   2  -1  13   17.00   11.20
   2  -1  13   10.90   12.90
   2  -1  13   65.39   18.10
  -2  -1 -13   34.20   16.90
  -2  -1 -13   27.10   19.30
   2   1  13   39.00   17.70
   2   1  13   32.40   16.30
  -2   1 -13   44.90   11.90
  -2   1 -13   30.30    8.30
  -2   1 -13   24.10   16.50
   2   1  13   53.79   19.00
   3  -1  13  320.67   33.90
   3  -1  13  222.88   27.90
  -3  -1 -13  269.27   18.70
  -3  -1 -13  278.17   16.20
   3   1  13  309.87   22.70
  -3   1 -13  296.67   16.50
   3   1  13  303.07   29.60
  -3   1 -13  288.87   19.30
   4  -2 -13   79.19   24.60
   3  -2 -13    6.80    9.70
  -3  -2  13    5.40    5.00
  -3  -2  13   -4.50    6.00
  -3   2  13    5.50    6.80
  -3   2  13    0.10    4.80
   3   2 -13   -6.50   16.50
  -2  -2  13  350.66   19.10
  -2  -2  13  350.66   19.10
   2  -2 -13  345.77   28.80
  -2  -2  13  343.77   26.30
   2  -2 -13  332.67   29.40
   2  -2 -13  354.06   32.20
   2   2 -13  386.16   31.70
  -2   2  13  364.86   27.90
   2   2 -13  360.66   21.70
  -2   2  13  377.16   20.00
  -2   2  13  354.56   20.00
  -1  -2  13  232.28   14.30
  -1  -2  13  242.48   22.30
   1  -2 -13  199.58   26.70
   1  -2 -13  219.48   26.00
  -1  -2  13  231.78   14.50
  -1  -2  13  246.18   20.80
   1  -2 -13  225.98   22.20
   1  -2 -13  240.48   31.90
  -1   2  13  275.67   21.20
   1   2 -13  246.88   21.00
  -1   2  13  265.47   14.70
  -1   2  13  284.37   14.80
   1   2 -13  261.47   17.40
   1   2 -13  198.88   26.70
   1   2 -13  269.17   36.10
  -1   2  13  256.37   20.60
   0  -2  13   19.30   12.10
   0  -2  13   48.50   17.30
   0  -2  13   34.10   10.00
   0  -2 -13   44.10   17.70
   0  -2  13   29.80    9.70
   0   2  13   43.40    9.20
   0   2 -13   54.29   20.10
   0   2 -13   47.80   13.40
   0   2  13   43.30   14.40
  -1  -2 -13   39.70   11.60
   1  -2  13   63.99   24.60
  -1  -2 -13  109.09   28.20
  -1  -2 -13   67.79   25.30
  -1  -2 -13   64.39   23.60
  -1   2 -13   64.09   14.50
   1   2  13  104.09   23.10
  -1   2 -13   74.09   10.40
  -1   2 -13   88.99   33.90
  -1   2 -13   46.00   20.90
  -1   2 -13   93.49   22.10
  -2  -2 -13  163.08   36.30
   2  -2  13  158.48   22.50
  -2  -2 -13  171.08   14.80
  -2  -2 -13  208.58   36.30
   2  -2  13  187.38   21.30
  -2  -2 -13  197.98   12.50
  -2   2 -13  157.68   41.20
  -2   2 -13  179.08   15.30
   2   2  13  147.49   28.90
   2   2  13  160.68   20.30
  -2   2 -13  179.48   17.20
   3  -2  13   19.20   17.50
   3  -2  13    8.00   10.20
   3  -2  13    3.00   11.80
  -3  -2 -13   11.60    7.80
  -3   2 -13   15.70    9.30
   3   2  13   37.50   21.60
  -3   2 -13   29.50   11.40
  -3  -3  13   45.20   11.90
   3  -3 -13   42.20   20.00
  -3  -3  13   36.50   11.00
   3  -3 -13   14.60   20.60
  -3   3  13   44.90   12.00
   3   3 -13   24.00   10.40
   3   3 -13   46.50   12.90
  -2  -3  13   90.99   21.50
   2  -3 -13   48.00   27.00
  -2  -3  13   43.80   20.10
  -2  -3  13   58.19    9.00
   2  -3 -13   52.39   20.70
  -2   3  13   62.49   10.40
   2   3 -13   73.59   12.60
   1  -3 -13    6.00    8.60
   1  -3 -13    5.30    8.70
  -1  -3  13    6.10    8.40
   1  -3 -13    4.00   10.50
  -1  -3  13   -2.20   10.10
  -1  -3  13   -1.00    5.40
  -1  -3  13    1.00    3.70
  -1   3  13    5.00    7.90
  -1   3  13    5.40    3.70
  -1   3  13   -3.20    5.30
   1   3 -13    5.20    8.10
  -1   3  13   11.20   11.20
   1   3 -13  -14.60   10.10
   1   3 -13   19.20   11.60
   0  -3  13  235.18   31.70
   0  -3  13  245.08   25.50
   0  -3  13  207.38   16.70
   0  -3 -13  212.98   25.70
   0  -3  13  197.28   15.00
   0   3  13  174.38   30.60
   0   3 -13  180.58   21.10
   0   3  13  216.48   15.10
   0   3  13  194.08   18.30
   0   3  13  205.88   17.10
   0   3  13  225.28   30.00
   0   3 -13  239.48   27.70
  -1  -3 -13   92.29   12.40
  -1  -3 -13  111.69   29.40
   1  -3  13   66.69   28.70
   1   3  13   52.09   18.60
   1   3  13   58.49   21.40
  -1   3 -13   78.89   12.90
  -1   3 -13   77.29   20.00
  -2  -3 -13   62.19   10.20
  -2  -3 -13   57.59   24.50
  -2  -3 -13   37.60   13.80
   2  -3  13   89.39   30.10
   2   3  13   37.10   19.10
  -2   3 -13   59.59   17.90
  -2   3 -13   66.29   11.40
  -2   3 -13   19.90   28.80
  -2   3 -13   49.50   23.00
   2   3  13   28.00   16.30
  -3  -3 -13   42.30    8.10
   3  -3  13   74.89   15.20
  -3  -3 -13   26.00    9.70
  -3   3 -13   50.09   10.00
   3   3  13   54.59   18.20
   3  -4 -13   92.89   35.60
   3  -4 -13   48.80   21.00
   3   4 -13   14.60    9.80
   3   4 -13   31.60    9.00
  -2  -4  13  266.37   22.80
   2  -4 -13  216.78   39.00
  -2  -4  13  307.67   32.90
   2  -4 -13  287.07   34.10
   2  -4 -13  285.47   27.40
  -2  -4  13  283.37   16.20
  -2   4  13  225.78   24.00
   2   4 -13  252.57   31.60
  -2   4  13  241.58   16.60
  -2   4  13  303.97   39.20
   2   4 -13  276.97   17.50
   1  -4 -13  579.04   35.00
  -1  -4  13  574.24   33.10
   1  -4 -13  630.64   35.70
  -1  -4  13  571.44   31.20
  -1  -4  13  569.04   30.10
  -1  -4  13  627.14   41.60
   1   4 -13  618.14   40.40
  -1   4  13  602.34   31.90
  -1   4  13  508.25   44.00
   1   4 -13  587.14   30.60
   1   4 -13  540.65   32.90
  -1   4  13  600.84   30.10
   0  -4 -13    5.90    8.70
   0  -4 -13    8.00    8.60
   0  -4  13   13.10    9.50
   0   4  13    9.70   12.20
   0   4 -13    5.50    8.00
   0   4 -13   26.00   13.00
   0   4 -13    9.20    8.20
  -1  -4 -13  351.26   42.80
  -1  -4 -13  365.26   23.10
  -1   4 -13  325.67   24.30
   1   4  13  278.57   25.60
  -1   4 -13  386.56   29.00
   2  -4  13  242.98   24.90
  -2  -4 -13  280.77   18.30
  -2  -4 -13  240.18   16.50
  -2   4 -13  261.67   23.50
  -2   4 -13  239.18   18.40
   2   4  13  271.17   21.40
  -2   4 -13  256.47   24.50
   3  -5 -13   42.30   13.80
   3  -5 -13   17.90   15.20
   3   5 -13   26.70    7.80
   3   5 -13   13.00    9.40
   2  -5 -13   46.80   17.10
  -2  -5  13   27.80    9.60
  -2  -5  13   26.00    8.80
  -2  -5  13   57.79   14.80
   2  -5 -13   18.40   14.80
   2   5 -13   50.39    9.20
   2   5 -13   39.40   11.60
  -2   5  13   47.70   15.10
  -2   5  13   40.80   17.60
  -1  -5  13   38.50   16.60
   1  -5 -13   68.69   18.50
  -1  -5  13   38.50   14.20
   1  -5 -13   86.39   22.60
   1   5 -13   56.29   16.90
  -1   5  13   53.09   18.50
   0  -5  13   42.20   19.50
   0  -5 -13   34.50   19.70
   0   5 -13   72.39   15.30
   0   5 -13   76.09   25.30
   0   5  13   77.39   27.50
  -1  -5 -13   11.50   14.10
  -1  -5 -13   12.30   14.20
   1  -5  13   11.00   12.00
  -1   5 -13  -11.10   12.50
  -2  -5 -13    1.90    6.60
   2  -5  13   -5.30    9.00
   2   5  13   -8.60    7.70
  -2   5 -13   29.50   15.20
  -2  -6  13   87.99   12.20
   2  -6 -13   83.39   25.70
   2   6 -13   87.79   20.40
   1  -6 -13   80.19   28.60
   1  -6 -13  144.49   25.80
  -1  -6  13   98.79   16.10
   1   6 -13   82.89   19.50
   0  -6 -13   -6.40   14.80
   0  -6  13   25.70   13.20
   0  -6 -13   11.40   10.80
   0   6 -13   14.60    7.90
   0   6  13   -6.90   10.70
   1  -6  13   74.49   16.60
  -1   6 -13   66.39   23.30
  -1   6 -13  105.39   17.00
   1   6  13  113.29   16.50
   0  -7 -13  180.68   27.50
   0   7 -13  214.58   20.30
   4   0 -14  390.56   26.60
   3   0 -14   59.79   31.90
   3   0 -14   89.09   26.00
  -3   0  14   92.29   11.50
  -2   0  14   35.80    9.50
   2   0 -14   48.00   15.20
  -2   0  14   41.00    9.10
  -2   0  14   52.49    8.60
   1   0 -14  627.24   36.30
  -1   0  14  633.94   36.30
   1   0 -14  717.13   44.60
  -1   0  14  653.83   31.70
  -1   0  14  647.74   34.80
  -1   0  14  672.73   31.80
   1   0 -14  624.74   34.60
   1   0 -14  633.34   39.40
   0   0  14  277.77   15.90
   0   0  14  286.87   16.10
   0   0  14  228.98   32.60
   0   0  14  280.07   20.80
   0   0 -14  195.18   42.00
   0   0 -14  273.27   22.40
   0   0 -14  239.58   30.30
   0   0 -14  275.77   48.60
   0   0  14  281.87   22.80
   1   0  14   59.49   21.30
  -1   0 -14   64.39   12.20
  -1   0 -14   54.89    9.20
   1   0  14   83.39   18.70
   1   0  14   64.69   22.60
  -1   0 -14   57.09   22.00
  -2   0 -14  319.67   17.50
  -2   0 -14  288.47   19.90
   2   0  14  343.57   29.20
   2   0  14  304.17   24.40
  -3   0 -14   93.39    9.70
   3   0  14   95.99   26.10
   3   0  14  120.69   20.60
   4   1 -14   34.00   21.70
   3  -1 -14   51.39   30.90
  -3  -1  14   47.30   10.30
   3  -1 -14   71.79   23.30
  -3  -1  14   41.50   10.20
   3   1 -14   66.19   22.90
   3   1 -14   23.10   16.30
  -3   1  14   23.90   11.60
   2  -1 -14    8.80    8.10
  -2  -1  14   31.70    8.40
   2  -1 -14   18.70    9.60
  -2  -1  14   14.30    4.30
  -2  -1  14   22.60    9.70
   2   1 -14   46.80   13.40
   2   1 -14   20.60   14.00
   2   1 -14   55.59   24.20
  -2   1  14   28.60    9.00
  -2   1  14   41.10    8.70
   1  -1 -14    8.80   16.60
   1  -1 -14    3.20   10.00
  -1  -1  14    1.80    3.10
  -1  -1  14    9.30    9.70
  -1  -1  14    5.60    4.00
   1  -1 -14   -0.90    8.70
   1  -1 -14    1.70    9.10
  -1  -1  14    3.30    7.40
  -1   1  14    1.70    3.00
  -1   1  14  -14.20    9.30
  -1   1  14    0.80    7.30
   1   1 -14   20.50   12.80
   1   1 -14   -5.70    9.70
  -1   1  14    5.00    4.10
   1   1 -14    4.40    8.20
   0  -1 -14  151.98   43.60
   0  -1  14   67.29   10.00
   0  -1 -14   73.59   17.80
   0  -1 -14  160.38   46.00
   0  -1  14   64.19   24.70
   0  -1  14   78.39    9.50
   0  -1  14  108.59   50.89
   0   1  14   94.39   25.50
   0   1 -14  102.59   21.90
   0   1 -14   31.10   42.40
   0   1  14   84.99    9.50
   0   1  14   87.39   16.50
   0   1 -14   71.49   16.70
   0   1 -14  100.49   15.00
   0   1  14   93.99   11.90
  -1  -1 -14   26.00    9.00
  -1  -1 -14    1.50   10.70
  -1  -1 -14    2.90   15.70
  -1  -1 -14   25.40   15.40
   1  -1  14   43.50   22.20
  -1   1 -14   18.00   12.80
  -1   1 -14   35.10   12.90
   1   1  14   23.90   16.20
  -1   1 -14   37.00   17.30
  -1   1 -14   32.30    8.60
   1   1  14   40.60   12.80
   1   1  14   18.10   10.20
  -2  -1 -14    7.50   20.10
   2  -1  14   10.60    9.40
  -2  -1 -14   23.30   21.60
  -2  -1 -14    2.50    3.70
  -2   1 -14   -2.50    7.50
  -2   1 -14   19.20   19.40
   2   1  14    2.30    8.10
   2   1  14    4.80    9.20
   2   1  14  -15.10   15.60
   3  -1  14    3.20    9.30
  -3  -1 -14   -6.40    7.80
  -3  -1 -14    7.00    5.40
   3  -1  14    1.60    9.30
  -3   1 -14    5.80    8.30
   3   1  14    4.20    7.90
   3   1  14    8.60   13.00
  -3   1 -14   -4.40    4.20
   3  -2 -14  159.78   23.30
   3  -2 -14  154.98   26.00
  -3  -2  14  139.69   12.90
   3   2 -14  161.08   24.20
  -3   2  14  141.69   14.40
  -3   2  14  137.99   13.30
   3   2 -14  149.69   15.90
   2  -2 -14  -12.00   19.00
   2  -2 -14   -4.50    7.70
  -2  -2  14    1.00   10.90
  -2  -2  14    2.70    5.20
   2  -2 -14   -1.90    8.90
   2  -2 -14   -2.40   10.50
  -2  -2  14    4.50    4.10
  -2   2  14   -1.30    4.10
   2   2 -14    2.20   10.90
  -2   2  14   -1.20    5.30
   2   2 -14  -13.20   16.90
   2   2 -14   11.80    6.20
   1  -2 -14  260.97   27.90
  -1  -2  14  319.97   17.80
  -1  -2  14  304.87   17.70
   1  -2 -14  289.77   35.70
  -1  -2  14  357.46   24.50
  -1   2  14  332.67   28.90
   1   2 -14  284.97   35.50
  -1   2  14  336.27   18.20
  -1   2  14  348.87   25.30
  -1   2  14  339.47   18.00
   0  -2  14  356.66   19.50
   0  -2 -14  292.97   32.10
   0  -2  14  365.46   31.40
   0  -2  14  350.16   20.70
   0  -2  14  335.67   23.80
   0  -2 -14  329.37   23.90
   0   2  14  354.56   19.80
   0   2  14  358.76   35.30
   0   2  14  342.47   20.50
   0   2 -14  317.37   26.00
   0   2  14  414.96   31.70
   0   2 -14  351.96   21.40
   0   2 -14  361.36   23.90
   0   2  14  331.07   22.90
  -1  -2 -14   15.80   11.30
  -1  -2 -14  -23.30   16.40
  -1   2 -14    7.50   12.80
  -1   2 -14    2.50   10.10
   1   2  14   -2.20    9.40
  -1   2 -14   23.10   11.30
   2  -2  14  326.47   30.10
  -2  -2 -14  413.56   44.80
  -2  -2 -14  347.27   22.40
   2  -2  14  356.06   26.90
  -2  -2 -14  351.56   43.10
  -2  -2 -14  355.46   19.40
   2   2  14  379.56   25.20
  -2   2 -14  363.96   23.50
  -2   2 -14  332.07   20.50
   2   2  14  345.07   32.70
   3  -2  14   61.79   18.50
   3  -2  14   93.19   29.70
   3  -2  14   40.50   20.50
  -3   2 -14   55.79    9.70
   3   2  14   73.89   15.10
   3   2  14   43.50   19.80
  -3  -3  14  102.59   10.60
   3  -3 -14  122.29   18.70
   3  -3 -14  145.89   38.60
  -3  -3  14   93.89   15.20
   3   3 -14   96.29   12.70
   3   3 -14  112.99   23.30
  -3   3  14  112.99   12.20
  -2  -3  14  374.36   26.90
   2  -3 -14  362.66   28.90
  -2  -3  14  358.76   19.90
  -2  -3  14  318.97   20.30
   2  -3 -14  286.77   40.40
   2  -3 -14  320.67   33.80
  -2  -3  14  340.77   33.00
  -2   3  14  363.26   20.90
   2   3 -14  372.96   21.70
   2   3 -14  418.76   32.60
  -2   3  14  435.66   34.90
  -2   3  14  377.36   20.60
  -1  -3  14   89.99   16.50
   1  -3 -14   86.89   22.70
   1  -3 -14   96.99   18.20
  -1  -3  14   77.49    9.90
   1  -3 -14   96.89   23.40
  -1  -3  14   73.39   11.20
  -1  -3  14   93.29   23.80
  -1   3  14  110.09   25.60
   1   3 -14   66.19   18.20
  -1   3  14   64.29   15.90
  -1   3  14   84.29   10.00
  -1   3  14  103.29   11.40
   1   3 -14   61.49   25.60
   1   3 -14   75.59   12.30
   0  -3  14  227.28   17.10
   0  -3  14  299.67   27.10
   0   3  14  181.08   33.50
   0   3 -14  233.78   19.40
   0   3  14  246.58   19.90
   0   3  14  226.28   16.70
   0   3  14  250.27   25.00
   0   3  14  257.47   29.80
   0   3 -14  251.47   28.50
   1  -3  14  677.93   42.00
  -1  -3 -14  672.83   48.60
  -1   3 -14  637.44   37.30
   1   3  14  645.74   38.40
   1   3  14  679.53   39.10
  -1   3 -14  614.04   39.20
  -2  -3 -14   58.49   28.40
  -2  -3 -14    9.40    8.80
   2  -3  14   20.70   13.20
  -2  -3 -14   33.60   10.60
   2   3  14   16.20   18.00
  -2   3 -14    7.50    5.40
  -2   3 -14   -0.40   12.20
  -2   3 -14   -6.80   15.00
   2   3  14    9.00    8.20
   3  -3  14  147.89   17.80
  -3  -3 -14  202.78   16.20
   3   3  14  179.68   25.70
  -3   3 -14  183.98   13.30
   3  -4 -14   12.60    9.80
   3  -4 -14   16.90   23.20
   3   4 -14   10.80    9.40
   2  -4 -14   91.59   42.00
  -2  -4  14    2.90    7.00
  -2  -4  14   16.10   14.30
  -2   4  14    7.40    7.20
   2   4 -14   -9.90   17.30
  -1  -4  14   11.10    8.60
   1  -4 -14  -11.00   15.10
   1  -4 -14   37.20   19.30
  -1  -4  14    4.60    5.60
  -1  -4  14    3.80   17.60
  -1   4  14    1.50    7.90
  -1   4  14    7.80    4.70
   1   4 -14   47.70   30.30
  -1   4  14   -8.00   17.00
   1   4 -14   20.10   11.50
   1   4 -14   -6.70   11.80
   1   4 -14   -6.50    8.30
   0  -4 -14   10.60    8.80
   0   4  14   63.59   21.00
   0   4  14   30.40   13.30
  -1  -4 -14   -0.20    8.10
  -1  -4 -14    7.60   10.80
   1  -4  14   -1.70   12.10
  -1   4 -14   -2.10    7.40
   1   4  14    1.90    9.00
  -1   4 -14   15.80   12.20
  -2  -4 -14   34.00   11.40
   2   4  14   16.10    8.50
  -2   4 -14   39.10   17.60
  -2   4 -14   37.80   19.70
  -2  -5  14  263.17   19.90
   2  -5 -14  303.97   22.30
  -2  -5  14  298.57   18.10
   2  -5 -14  285.47   34.60
   2   5 -14  295.27   32.30
   2   5 -14  292.37   16.90
  -2   5  14  285.97   18.50
  -1  -5  14   -4.10   10.80
  -1  -5  14   -0.30    6.30
   1  -5 -14   -8.90    8.30
  -1  -5  14    6.80   12.70
   1   5 -14    4.30    6.50
  -1   5  14    1.10   10.50
   1   5 -14    8.50   13.80
  -1   5  14    0.30    6.00
   1   5 -14   65.59   34.10
   0  -5  14  106.09   22.40
   0  -5 -14   84.09   21.60
   0   5 -14   86.09   16.50
   0   5 -14   79.49   20.40
  -1  -5 -14  172.58   21.70
   1  -5  14   99.39   23.60
  -1  -5 -14  148.89   27.20
   1   5  14  136.99   19.20
  -1   5 -14  142.89   23.80
  -1   5 -14  161.28   18.90
  -2  -5 -14   38.30   12.20
   2   5  14   63.79   18.80
  -2  -6  14   47.90   11.70
   2  -6 -14   55.39   27.30
   2   6 -14   60.59   18.90
  -1  -6  14  108.09   15.50
   1  -6 -14  133.89   25.20
   1  -6 -14   92.09   26.50
   1   6 -14  124.99   17.70
   0  -6  14   22.10   12.00
   0  -6 -14   15.60   11.30
   0  -6 -14   11.40   12.90
   0   6  14  -11.20   10.80
   0   6 -14   13.60    8.00
   0   6 -14   34.70   18.80
  -1  -6 -14   -1.50   11.90
   1  -6  14   10.10    9.00
  -1   6 -14   17.60   12.80
  -1   6 -14   41.70   14.60
   1   6  14   -3.10    8.30
  -3   0  15   -7.80    4.70
  -3   0  15   26.30   11.20
   3   0 -15  -10.80   10.50
  -2   0  15    3.20    3.90
  -2   0  15   -4.30    5.00
  -2   0  15   -5.60   10.30
   2   0 -15   -0.70    8.20
   2   0 -15    1.10   11.70
   2   0 -15    7.00    8.40
   2   0 -15   -1.00    9.40
  -1   0  15    4.00    4.20
  -1   0  15    2.50    7.50
   1   0 -15    4.10   12.60
   1   0 -15   12.70    8.40
   1   0 -15   -0.60    9.50
   0   0  15   27.40   14.80
   0   0  15    3.30   16.40
   0   0  15   -3.20    5.20
   0   0 -15    3.80    7.80
   0   0  15    3.70    4.00
   0   0 -15   -4.70   11.30
   0   0  15    1.40   10.70
  -1   0 -15   -3.10    4.10
   1   0  15    0.60   15.20
   1   0  15   -3.60   11.50
   1   0  15  -10.20   10.00
  -2   0 -15    7.90   24.90
  -2   0 -15   22.50   21.70
  -2   0 -15   -6.30    7.40
   2   0  15   14.40    9.30
   2   0  15   -3.50    9.90
   3   0  15    9.00   13.20
  -3   0 -15   -4.50    3.90
   3   0  15  -12.40   10.20
   3  -1 -15    1.70    9.10
   3  -1 -15   13.10   10.00
  -3  -1  15   -3.10    6.40
  -3  -1  15    3.10    4.70
  -3   1  15   28.50   11.10
  -3   1  15   21.20    7.10
   3   1 -15    9.70   10.30
   3   1 -15    9.60    8.10
   3   1 -15    5.80   12.10
  -2  -1  15  549.54   37.40
   2  -1 -15  546.55   36.50
  -2  -1  15  600.84   28.60
  -2  -1  15  574.24   28.80
   2  -1 -15  527.15   39.30
   2  -1 -15  574.84   37.70
  -2   1  15  576.04   28.90
  -2   1  15  557.74   28.70
   2   1 -15  556.54   38.70
   2   1 -15  645.84   41.40
  -2   1  15  578.54   38.20
   2   1 -15  548.65   29.90
   2   1 -15  552.54   41.80
  -1  -1  15  220.28   20.20
  -1  -1  15  219.98   13.50
  -1  -1  15  206.78   22.60
  -1  -1  15  220.08   13.40
   1  -1 -15  202.68   22.70
   1  -1 -15  190.58   27.20
   1   1 -15  142.99   33.30
  -1   1  15  215.68   13.60
  -1   1  15  219.28   20.10
  -1   1  15  206.68   13.20
  -1   1  15  207.08   22.80
   1   1 -15  204.78   21.60
   0  -1 -15   42.70   15.70
   0  -1 -15   -3.40   17.80
   0  -1  15   77.89   24.60
   0   1  15   31.50    9.50
   0   1  15   28.00   14.30
   0   1 -15    7.70   16.30
   0   1  15   24.20   15.10
  -1  -1 -15  356.06   29.70
  -1  -1 -15  332.77   19.80
   1  -1  15  422.56   35.80
  -1   1 -15  355.96   20.60
  -1   1 -15  386.16   27.30
   1   1  15  399.96   43.70
   1   1  15  341.47   27.10
  -2  -1 -15  198.08   14.50
   2  -1  15  218.28   22.30
   2  -1  15  187.98   24.00
  -2  -1 -15  209.08   42.80
  -2  -1 -15  200.18   48.40
   2   1  15  242.98   21.60
  -2   1 -15  196.08   18.50
   2   1  15  188.18   29.10
  -2   1 -15  225.68   15.20
   2   1  15  246.08   22.40
   3   1  15   40.50   13.50
   3   1  15    1.00   12.40
  -3  -2  15  333.27   20.30
   3  -2 -15  372.26   31.20
   3  -2 -15  363.26   27.20
  -3  -2  15  314.97   22.70
  -3   2  15  334.17   20.90
   3   2 -15  336.37   28.90
   3   2 -15  358.36   21.40
   2  -2 -15   30.30   11.20
  -2  -2  15   42.70   20.10
  -2  -2  15   60.79   23.70
   2  -2 -15    9.60    8.20
   2  -2 -15   12.10    8.70
  -2  -2  15   16.10    5.60
  -2   2  15   35.80   10.00
  -2   2  15   49.60   20.60
  -2   2  15   -4.30   13.60
   2   2 -15    9.10   10.40
   2   2 -15    7.10   10.90
   2   2 -15   24.50   11.60
   2   2 -15   42.80   17.30
  -1  -2  15  236.68   24.00
  -1  -2  15  203.78   13.40
  -1  -2  15  192.38   20.10
  -1  -2  15  197.38   14.30
   1  -2 -15  211.88   21.50
   1  -2 -15  171.48   26.20
   1  -2 -15  192.68   31.10
   1   2 -15  181.48   32.20
  -1   2  15  217.98   13.80
   1   2 -15  254.97   23.90
  -1   2  15  195.98   18.60
   1   2 -15  199.98   18.30
  -1   2  15  209.18   24.30
  -1   2  15  232.38   15.00
   0  -2 -15  117.09   30.40
   0  -2  15  151.18   16.40
   0  -2 -15  136.79   18.40
   0  -2  15  131.69   32.40
   0  -2  15  122.79   14.70
   0  -2  15  122.89   12.60
   0   2 -15  110.89   19.20
   0   2 -15  160.98   17.10
   0   2  15  142.69   12.70
   0   2 -15  140.49   14.50
   0   2  15  167.58   14.50
   0   2  15  132.19   15.00
   0   2  15  182.88   29.00
   1   2  15   65.99   20.10
  -1   2 -15   58.49   27.20
  -1   2 -15   94.29   23.40
  -2  -2 -15  112.69   47.90
  -2  -2 -15   44.70   28.50
  -2  -2 -15   96.59   15.60
  -2   2 -15   46.50   17.20
   2   2  15   73.79   17.20
   2   2  15   76.39   26.30
  -2   2 -15   63.09   11.80
  -2   2 -15   13.80   27.60
  -3  -2 -15   89.49    9.50
   3  -2  15   75.29   33.80
  -3   2 -15   96.09   10.90
   3   2  15   65.39   19.40
   3  -3 -15    8.20    7.60
  -3  -3  15   -2.20    4.30
   3  -3 -15    5.90    6.50
   3   3 -15   -5.10    8.60
  -3   3  15    5.50    4.80
   3   3 -15   11.70    5.80
  -2  -3  15   13.60   11.30
   2  -3 -15    9.90   15.50
  -2  -3  15    4.40    6.00
   2   3 -15   17.80   10.60
  -2   3  15   14.40   17.30
   1  -3 -15  199.58   33.00
  -1  -3  15  156.18   12.00
   1  -3 -15  134.29   23.50
   1  -3 -15  155.78   21.80
  -1  -3  15  171.38   17.50
   1  -3 -15  157.48   19.60
  -1  -3  15  148.09   13.70
  -1  -3  15  132.09   27.90
   1   3 -15  122.29   31.80
   1   3 -15  166.88   14.00
  -1   3  15  124.69   17.10
  -1   3  15  155.68   12.30
  -1   3  15  169.78   40.50
   1   3 -15  160.78   24.60
  -1   3  15  155.38   14.50
   1   3 -15  160.28   18.30
   0  -3 -15   14.80    8.40
   0  -3  15   34.30   12.50
   0  -3  15    3.80    8.90
   0   3  15   30.00   12.30
   0   3 -15    5.90    8.20
   0   3  15   10.60    7.60
   0   3 -15   32.10   16.70
   0   3  15   -2.70    9.40
   0   3 -15   31.10   12.80
   0   3  15   15.50   21.50
  -1  -3 -15  111.89   23.80
  -1   3 -15  103.29   19.70
   1   3  15   74.49   20.60
  -1   3 -15   75.89   23.50
   1   3  15  102.79   21.80
  -2  -3 -15   33.40   11.40
   2   3  15  -11.60   14.50
  -2   3 -15   -8.10   15.70
  -2   3 -15   18.00   11.80
  -3  -3 -15   17.40    7.80
   3   3  15   -7.60    8.80
   3  -4 -15  162.38   19.80
   3  -4 -15  170.38   16.30
   3   4 -15  164.78   12.10
   3   4 -15  181.38   19.30
   2  -4 -15  118.59   34.70
  -2  -4  15  101.69   17.10
  -2  -4  15  107.89   13.10
   2  -4 -15   69.99   19.40
  -2  -4  15  111.89   11.00
  -2   4  15  104.99   14.90
  -2   4  15   95.09   11.60
   2   4 -15   95.59   27.70
  -1  -4  15   50.79   11.90
   1  -4 -15   26.10   15.60
   1  -4 -15   62.89   18.80
  -1  -4  15   59.89   15.30
  -1  -4  15   19.60   20.90
   1  -4 -15   41.20   20.30
  -1  -4  15   34.20   13.60
   1   4 -15   26.50   14.20
  -1   4  15   -2.50   19.70
   1   4 -15   43.30   11.40
  -1   4  15   48.20   11.30
  -1   4  15   41.40   16.20
   1   4 -15   45.60   12.70
   1   4 -15   28.60    9.40
   0  -4 -15  541.95   34.10
   0  -4  15  630.14   33.60
   0   4  15  571.24   40.90
   0   4 -15  585.94   34.30
   0   4 -15  548.65   33.90
  -1  -4 -15   75.19   16.00
  -1  -4 -15  104.99   22.80
  -1   4 -15   84.79   16.80
   1   4  15   62.09   19.50
  -2  -4 -15  107.79   12.40
   2  -4  15  121.29   24.80
  -2   4 -15   98.39   18.20
   2   4  15  100.19   17.40
  -2  -5  15   58.09   13.30
   2  -5 -15   45.50   27.40
   2  -5 -15   34.60   15.30
  -2  -5  15   28.40   10.60
  -2   5  15   49.80   12.80
   2   5 -15   52.09   22.80
   2   5 -15   48.20    9.30
  -1  -5  15   76.59   14.30
   1  -5 -15   30.40   17.00
  -1  -5  15   59.89   15.20
   1  -5 -15   72.99   24.60
   1  -5 -15   63.99   31.70
  -1   5  15   72.19   21.40
   1   5 -15   48.30   11.10
   1   5 -15   39.30   18.30
  -1   5  15   45.80   14.80
   0  -5 -15   19.40   10.40
   0  -5  15   -4.30   11.80
   0   5 -15   10.20    8.80
   0   5 -15    0.60    8.40
   0   5  15   14.40   12.80
  -1  -5 -15   97.69   20.40
  -1  -5 -15  104.49   24.10
   1   5  15  100.99   18.50
  -1   5 -15  123.39   16.40
  -1   5 -15   81.99   23.20
   2  -5  15    9.20    8.40
  -2  -5 -15    5.60    6.50
   2   5  15    8.40    7.70
   1  -6 -15   -2.10   13.10
  -1  -6  15   -4.20    8.50
   1  -6 -15    7.10   11.80
   0  -6 -15   73.69   24.80
   0   6 -15   80.69   16.70
   0   6  15   71.49   27.60
   0   6 -15   89.89   16.50
   1   6  15   98.59   17.10
  -1   6 -15  114.09   22.50
  -1   6 -15   78.79   13.60
  -3   0  16   52.59   12.30
  -3   0  16   59.59   10.30
   3   0 -16   51.79   29.90
  -2   0  16   19.50    9.00
   2   0 -16   15.40   11.60
  -2   0  16   24.20    8.80
   2   0 -16    7.10    8.20
  -2   0  16   27.20   12.40
  -1   0  16  815.52   39.30
   1   0 -16  871.31   47.50
   1   0 -16  752.02   44.30
   1   0 -16  838.02   47.60
  -1   0  16  851.71   42.50
   1   0 -16  795.82   42.20
  -1   0  16  750.32   42.00
  -1   0  16  813.22   44.00
   0   0  16  773.42   39.80
   0   0  16  770.22   47.20
   0   0 -16  840.92   51.19
   0   0  16  767.52   51.39
   0   0  16  825.42   39.20
   1   0  16  212.88   32.70
   1   0  16  208.88   34.40
   2   0  16   -2.00    8.90
  -2   0 -16   42.60   27.20
   2   0  16   14.00   16.20
  -2   0 -16   11.80    8.80
  -2   0 -16  -43.40   31.50
  -2   0 -16    1.40    4.50
   3   0  16   23.50   12.60
  -3   0 -16   21.50    9.70
   3  -1 -16   60.09   25.10
  -3  -1  16   66.79   11.90
  -3   1  16   67.59   13.10
   3   1 -16   61.29   14.10
   3   1 -16   56.89   36.40
  -2  -1  16   75.69   19.70
  -2  -1  16   66.09   10.40
   2  -1 -16   89.09   24.00
   2  -1 -16   64.79   22.80
   2  -1 -16   85.99   25.20
  -2  -1  16   45.00   23.30
   2   1 -16   89.79   26.10
  -2   1  16   72.79   10.40
   2   1 -16  129.29   27.80
  -2   1  16  120.09   25.20
   2   1 -16   63.59   29.00
   2   1 -16   74.99   12.20
  -1  -1  16   36.30    8.80
   1  -1 -16   47.80   16.70
  -1  -1  16   27.50    9.80
   1  -1 -16   39.20   25.20
  -1  -1  16   62.59   15.30
   1  -1 -16   24.70   11.40
   1  -1 -16   20.20   10.40
   1   1 -16   30.50   14.40
   1   1 -16   44.90   11.90
  -1   1  16   34.30   15.90
  -1   1  16   52.29   19.30
  -1   1  16   43.70    9.90
   1   1 -16   39.60   21.00
   1   1 -16   44.10   16.50
   0  -1  16  189.58   18.40
   0  -1 -16  200.98   17.90
   0  -1  16  182.28   15.70
   0  -1  16  167.88   14.30
   0   1  16  207.28   30.10
   0   1  16  191.38   16.70
   0   1  16  193.28   14.10
   0   1 -16  184.28   17.70
   0   1  16  213.48   28.50
   0   1  16  186.88   15.50
   0   1 -16  201.78   22.90
   1  -1  16   74.69   23.30
   1   1  16   75.09   21.20
  -2  -1 -16    7.20    9.50
  -2  -1 -16   15.60   31.40
   2  -1  16   39.80   19.10
  -2  -1 -16   -0.80    4.40
  -2  -1 -16  -13.20   32.50
  -2   1 -16    3.40    4.90
   2   1  16  -12.70   14.00
   2   1  16    4.20    8.10
   2   1  16    3.20    8.80
  -2   1 -16   -4.00    9.80
   3   1  16   24.60   10.90
  -3   1 -16   46.40   10.00
   3  -2 -16   93.59   23.40
  -3  -2  16   51.59   10.20
   3  -2 -16   73.59   17.90
   3   2 -16   60.69   20.10
  -3   2  16   30.90   11.40
   2  -2 -16  261.67   26.70
  -2  -2  16  254.37   16.90
  -2  -2  16  258.47   23.60
   2  -2 -16  258.67   24.20
  -2  -2  16  274.47   16.60
  -2  -2  16  327.97   31.20
   2  -2 -16  248.98   30.40
  -2   2  16  288.57   17.10
   2   2 -16  279.07   36.60
  -2   2  16  287.97   34.10
  -2   2  16  279.37   24.90
   2   2 -16  280.17   17.60
  -2   2  16  301.77   17.80
   2   2 -16  236.58   28.70
  -1  -2  16   43.70   16.80
  -1  -2  16   39.70   10.40
  -1  -2  16   70.89   24.50
  -1  -2  16   28.70    8.90
   1  -2 -16    9.90   10.40
   1  -2 -16   74.69   22.40
   1  -2 -16   41.60   17.30
   1   2 -16   60.99   15.80
  -1   2  16   27.70    9.00
  -1   2  16   33.00   10.60
  -1   2  16   17.60   12.80
   0  -2 -16  150.68   26.40
   0  -2  16  181.38   44.80
   0  -2  16  181.68   14.70
   0   2  16  180.08   29.00
   0   2  16  193.28   14.70
   0   2  16  187.88   33.40
  -1  -2 -16  116.59   21.50
   1  -2  16   79.59   21.70
   1   2  16   69.09   22.00
   1   2  16  105.59   22.70
  -1   2 -16  100.79   22.20
   2  -2  16   59.59   20.30
  -2   2 -16   50.39   18.00
   2   2  16   30.60    9.10
   2   2  16   14.60   17.10
   3  -2  16  146.09   28.30
   3   2  16  110.89   25.50
   3  -3 -16   62.59   20.90
   3  -3 -16   67.49   14.90
  -3  -3  16   57.69   10.00
  -3   3  16   78.69   11.80
   3   3 -16   78.99   19.70
   3   3 -16   70.69   10.50
  -2  -3  16   23.10   16.60
  -2  -3  16   -1.70   10.60
   2  -3 -16    5.50    9.20
  -2  -3  16   -0.50    4.20
  -2  -3  16   -2.30   20.60
   2  -3 -16    5.50    7.90
  -2   3  16    3.00    9.50
  -2   3  16   -3.90    4.20
   2   3 -16  -10.40   11.20
   2   3 -16   19.10   10.30
  -1  -3  16  485.15   29.10
   1  -3 -16  549.15   42.10
  -1  -3  16  477.45   27.40
   1  -3 -16  515.75   30.70
  -1  -3  16  510.65   40.90
   1   3 -16  529.15   27.20
   1   3 -16  432.86   40.40
  -1   3  16  526.75   28.10
   1   3 -16  494.75   34.00
  -1   3  16  540.05   41.90
   1   3 -16  487.65   29.20
  -1   3  16  479.25   29.30
   0  -3  16  179.38   19.40
   0  -3 -16  176.38   19.40
   0   3 -16  194.58   19.70
   0   3  16  167.78   16.60
   0   3  16  230.48   29.70
   0   3 -16  189.38   19.00
   0   3  16  175.38   17.10
  -1  -3 -16  154.08   22.00
   1  -3  16  165.28   24.10
  -1   3 -16  140.69   20.50
   1   3  16  121.69   21.30
   2  -3  16   85.49   21.30
   2  -3  16   93.79   30.60
   2   3  16   56.39   23.50
   2   3  16   86.99   17.70
  -3  -3 -16   88.09    9.10
   3  -4 -16   15.20    6.50
   3   4 -16   20.30    7.80
   3   4 -16    7.10    8.50
  -2  -4  16    4.10    8.10
   2  -4 -16    5.10   15.90
   2  -4 -16    3.40    7.30
  -2  -4  16   18.90    9.10
   2   4 -16    6.00    5.00
   2   4 -16   12.10   11.20
   1  -4 -16    7.20   14.70
  -1  -4  16   39.80   21.10
  -1  -4  16   11.40   27.50
  -1  -4  16   25.90   12.10
  -1  -4  16   10.30    8.50
   1  -4 -16    5.60    8.70
   1  -4 -16   10.90   10.90
   1   4 -16   29.30   11.50
   1   4 -16   13.20    8.40
   1   4 -16    5.80   11.60
  -1   4  16   10.10    5.50
   1   4 -16   -2.70   17.10
  -1   4  16   32.70   25.60
   0  -4  16   84.69   19.70
   0  -4 -16  118.19   18.60
   0   4  16  115.59   31.50
   0   4 -16   95.09   17.00
  -1   4 -16   52.59   29.70
   2  -4  16   21.80    9.50
  -2  -4 -16   32.90   11.30
  -2   4 -16   22.20   10.70
   2   4  16   17.60    7.90
   2  -5 -16   -5.50    6.10
  -2  -5  16   11.00    5.50
   2   5 -16   12.40   13.50
   2   5 -16   -2.70    5.70
  -2   5  16   -4.10    5.50
  -1  -5  16   70.69   14.20
   1  -5 -16   91.19   17.20
   1  -5 -16  115.19   29.80
  -1  -5  16   76.89   16.70
  -1   5  16   64.89   16.20
   1   5 -16   55.19   26.90
   0  -5  16   52.49   20.50
   0  -5 -16   93.09   19.80
   0   5 -16   61.09   16.00
   0   5 -16   98.59   18.10
   0   5  16   81.09   25.90
  -1  -5 -16   72.09   19.00
  -1  -5 -16   37.30   21.20
  -1   5 -16   40.10   13.70
   1   5  16   55.59   17.70
  -1   5 -16   67.99   20.60
  -2  -5 -16  144.09   14.10
   2   5  16  162.78   16.90
   1  -6 -16   19.10   12.00
  -1  -6  16   26.10   11.80
   0  -6  16   24.60   11.80
   0   6 -16   57.49   15.80
   0   6  16   33.70   10.50
  -1  -6 -16   35.20   19.50
  -1   6 -16   54.19   14.90
   1   6  16   35.50   18.20
  -1   6 -16   26.50   10.50
   3   0 -17   -1.20    8.60
  -3   0  17   -6.70    9.40
  -3   0  17   -5.00    4.50
  -2   0  17   -9.30   13.70
   2   0 -17   -6.90   11.20
   2   0 -17    2.90    8.10
   2   0 -17   -4.30   10.10
  -2   0  17    4.60    4.30
   2   0 -17    2.20    8.60
  -2   0  17   -4.30    5.60
  -2   0  17   -1.30   11.30
  -1   0  17   15.60   11.50
  -1   0  17    1.20    9.00
  -1   0  17    8.30    5.80
  -1   0  17    3.20    3.80
   1   0 -17   -9.90    7.30
   1   0 -17   -4.90    8.90
   0   0  17   24.10   16.00
   0   0  17    2.90    4.80
   0   0 -17   41.90   23.80
   0   0  17    2.90   10.30
   0   0  17  -10.90   15.20
   0   0  17   -0.10   11.00
   1   0  17   -7.70   11.00
  -1   0 -17   -2.50    9.50
   1   0  17   13.80   10.90
  -2   0 -17   -5.80    5.10
   2   0  17    9.60   15.30
   2   0  17   -7.30    8.90
   3  -1 -17  163.08   19.80
  -3  -1  17  157.98   13.00
   3  -1 -17  197.78   26.00
   3   1 -17  205.08   17.80
   3   1 -17  218.08   34.10
  -3   1  17  153.48   14.00
   3   1 -17  201.08   22.30
  -2  -1  17  200.18   29.30
  -2  -1  17  213.18   14.80
  -2  -1  17  198.28   14.60
   2  -1 -17  238.18   26.40
  -2  -1  17  232.88   22.40
   2  -1 -17  235.28   27.80
   2  -1 -17  212.28   24.00
   2   1 -17  185.78   29.70
  -2   1  17  175.38   32.30
  -2   1  17  237.18   21.80
  -2   1  17  213.08   15.10
  -2   1  17  215.08   14.50
   2   1 -17  193.38   16.00
   2   1 -17  160.18   29.40
   2   1 -17  258.67   29.00
   1  -1 -17  249.78   30.40
   1  -1 -17  254.87   42.80
  -1  -1  17  273.27   16.80
  -1  -1  17  240.18   20.90
   1  -1 -17  255.17   21.20
  -1  -1  17  264.17   15.60
  -1  -1  17  227.48   27.90
   1  -1 -17  242.88   24.90
   1   1 -17  309.87   27.70
   1   1 -17  271.57   20.70
  -1   1  17  214.58   27.00
   1   1 -17  218.58   25.00
   1   1 -17  240.18   17.60
  -1   1  17  249.68   16.80
  -1   1  17  252.67   19.70
  -1   1  17  260.97   15.60
   0  -1  17   -4.40   15.70
   0  -1  17   -5.60    5.10
   0  -1  17   40.50   19.90
   0  -1  17   21.60   17.70
   0   1  17    4.90    9.20
   0   1  17    5.30   16.50
   0   1  17    2.40    9.40
   0   1  17   -2.10    4.70
   0   1 -17    0.70   10.90
   0   1  17  -15.30   14.20
   1  -1  17  421.56   32.30
   1  -1  17  419.36   29.70
   1   1  17  416.96   29.60
   1   1  17  435.06   29.90
  -1   1 -17  366.66   30.60
  -1   1 -17  427.46   31.80
  -2  -1 -17   34.60   10.70
   2  -1  17   80.59   26.00
   2   1  17   42.20   18.60
  -2   1 -17   33.80   11.70
   2   1  17   33.20   15.20
   3  -1  17  293.87   26.60
  -3  -2  17  158.58   12.40
   3  -2 -17  152.18   24.40
   3  -2 -17  166.08   17.10
   3   2 -17  148.39   13.80
   3   2 -17  132.39   20.30
   2  -2 -17  455.95   35.80
   2  -2 -17  498.95   33.00
  -2  -2  17  467.75   29.90
  -2  -2  17  447.26   40.70
  -2  -2  17  419.36   25.00
   2  -2 -17  446.26   30.90
  -2  -2  17  459.05   24.40
  -2   2  17  458.55   24.70
  -2   2  17  486.35   32.30
   2   2 -17  469.95   24.90
   2   2 -17  474.15   39.10
  -2   2  17  436.06   43.70
  -2   2  17  483.05   25.50
   2   2 -17  445.46   36.30
   2   2 -17  493.55   37.90
  -1  -2  17  -10.70    8.40
   1  -2 -17   -0.90    9.20
   1  -2 -17    1.60    8.90
  -1  -2  17   -2.40    6.70
   1  -2 -17   -3.60   10.10
  -1  -2  17    5.60    4.50
  -1   2  17   -1.20   21.00
  -1   2  17    6.30    6.50
   1   2 -17   -8.50    9.30
   1   2 -17   13.20    8.00
  -1   2  17    2.90    4.00
   1   2 -17   -4.10    6.50
  -1   2  17    4.70    8.00
   0  -2  17   23.40   12.60
   0  -2 -17   14.20   13.60
   0  -2 -17    0.70    8.00
   0  -2  17   30.60   15.50
   0  -2 -17   14.80   12.10
   0   2 -17   36.40   18.90
   0   2  17    4.00    7.40
   0   2  17    5.20   14.50
   0   2  17   47.00   16.50
   1  -2  17    2.80   11.90
  -1  -2 -17    6.20    9.50
  -1   2 -17   35.30   19.20
   1   2  17   16.00   10.30
  -1   2 -17    9.10   12.80
   2  -2  17  571.54   34.40
  -2   2 -17  485.55   28.60
   2   2  17  570.64   36.60
   2   2  17  565.24   32.60
   3   2  17   34.70   16.00
   3  -3 -17    3.10    9.20
   3  -3 -17   -2.30   10.50
   3   3 -17   -0.30    7.80
   3   3 -17   -8.50   13.90
   2  -3 -17   42.00   28.40
  -2  -3  17   30.40   17.70
  -2  -3  17   35.80    9.50
   2  -3 -17   49.30   17.30
   2  -3 -17   20.90   16.50
  -2  -3  17   41.80   11.80
   2   3 -17   54.09   11.50
  -2   3  17   44.10   12.90
   2   3 -17   41.50   27.30
   2   3 -17    9.90   18.20
  -2   3  17   47.90   10.00
  -1  -3  17   28.00   13.40
  -1  -3  17   41.60   11.30
   1  -3 -17   19.30    9.80
   1  -3 -17   24.50   14.90
   1  -3 -17   43.50   21.20
  -1  -3  17   44.80   15.10
  -1  -3  17   21.90   18.70
   1   3 -17   68.59   22.30
   1   3 -17   72.99   15.60
   1   3 -17   40.10   10.90
  -1   3  17   36.20   10.70
  -1   3  17   18.50    8.30
  -1   3  17   18.30   19.40
  -1   3  17   35.40   14.10
   0  -3 -17  341.77   24.90
   0  -3  17  393.66   24.50
   0   3  17  336.37   24.80
   0   3  17  350.16   23.20
   0   3  17  297.87   32.90
   0   3 -17  341.97   24.90
   0   3 -17  355.76   23.90
  -1  -3 -17    9.30   10.50
   1  -3  17   11.70   13.00
  -1   3 -17    5.40    8.70
  -1   3 -17    5.60    9.90
   1   3  17    3.80    9.60
   2  -3  17   76.59   29.50
   2   3  17   36.10   18.10
   2   3  17   62.19   16.30
   2  -4 -17   68.89   16.00
  -2  -4  17   71.89   14.10
  -2  -4  17   68.29   10.00
  -2   4  17   60.19   11.30
   2   4 -17   42.70   24.60
  -1  -4  17  278.57   23.60
   1  -4 -17  278.67   23.50
  -1  -4  17  314.97   20.50
   1   4 -17  320.77   30.80
  -1   4  17  307.37   20.60
   1   4 -17  392.96   32.50
  -1   4  17  352.76   25.70
   1   4 -17  314.17   24.80
   0  -4  17   31.50   18.00
   0  -4 -17   -7.50    9.50
   0   4 -17    7.90    8.90
   0   4 -17    2.70    8.30
  -1  -4 -17  278.07   26.20
  -1  -4 -17  279.77   23.00
   1   4  17  293.87   23.80
  -1   4 -17  274.97   21.00
  -1   4 -17  275.17   26.10
  -2  -4 -17   29.10   13.50
  -2   4 -17    8.00   12.10
   2   4  17   75.89   21.90
  -2  -5  17   39.80   10.90
   2  -5 -17   51.59   27.40
   2   5 -17   34.80   20.30
   1  -5 -17   58.49   23.60
   1  -5 -17   35.20   25.80
  -1  -5  17   42.80   12.80
  -1   5  17   66.89   16.70
   1   5 -17   62.59   15.40
   0  -5  17   39.60   18.80
   0   5 -17   29.10   17.40
   0   5 -17   36.00   13.40
   0   5  17   53.79   26.00
  -1  -5 -17   26.20   11.60
  -1  -5 -17   23.30    9.90
  -1   5 -17   45.30   21.00
   1   5  17   32.40   17.70
  -1  -6  17   37.90   12.30
   1  -6 -17   34.70   22.00
   0  -6 -17   -3.80    9.40
   0  -6 -17    5.90    9.90
   0   6 -17   27.50   16.30
   0   6 -17    9.50    7.40
  -3   0  18   -1.60    4.70
   3   0 -18   -8.90    9.00
   3   0 -18   11.00    7.20
  -2   0  18  105.79   12.70
  -2   0  18  133.69   11.90
   2   0 -18  136.49   25.60
  -2   0  18  132.89   20.90
   2   0 -18  147.79   25.80
   2   0 -18  107.29   29.30
   2   0 -18  151.68   17.40
  -1   0  18   31.70   10.10
   1   0 -18    7.50    9.60
  -1   0  18   10.10    6.50
   1   0 -18   16.20    8.10
   1   0 -18   11.00    8.00
  -1   0  18   22.60    8.60
   0   0 -18 1953.20   98.39
   0   0  18 2102.69   96.49
   0   0  18 2050.19   95.39
   0   0  18 1990.90   96.29
   0   0  18 1976.80  101.49
   0   0 -18 2062.19   96.59
   1   0  18  208.68   22.70
   1   0  18  196.78   24.70
  -1   0 -18  190.88   21.70
  -2   0 -18  118.59   21.40
   2   0  18  155.48   17.90
   2   0  18  166.68   25.80
   2   0  18  166.38   21.10
   3   0  18   -3.20   10.30
   3  -1 -18   -5.00    7.00
   3  -1 -18    7.50    6.90
   3   1 -18    4.20   16.60
   3   1 -18    7.10    7.90
   3   1 -18   15.30   11.90
   2  -1 -18   98.09   22.50
  -2  -1  18  146.29   11.90
   2  -1 -18  159.28   22.80
  -2  -1  18  135.79   34.20
  -2  -1  18  112.79   20.90
  -2  -1  18  112.49   12.90
   2  -1 -18  132.19   25.20
   2   1 -18  136.69   14.20
   2   1 -18   83.09   27.80
  -2   1  18  133.79   13.10
  -2   1  18  138.39   12.10
  -2   1  18  138.59   35.70
  -2   1  18  133.49   21.10
   2   1 -18  145.39   27.50
   2   1 -18  156.48   25.60
  -1  -1  18  590.94   32.40
   1  -1 -18  556.64   32.20
   1  -1 -18  564.44   35.20
   1  -1 -18  634.04   43.40
  -1  -1  18  570.84   29.00
  -1  -1  18  543.25   30.00
   1  -1 -18  551.34   39.40
  -1   1  18  538.55   31.80
  -1   1  18  573.24   29.20
   1   1 -18  572.94   31.60
   1   1 -18  547.15   37.50
  -1   1  18  576.44   30.00
   1   1 -18  510.55   29.90
   1   1 -18  540.75   35.80
  -1   1  18  647.74   47.20
   0  -1 -18    8.40    7.70
   0  -1  18   14.40   17.50
   0  -1 -18    9.80   11.40
   0  -1  18  -10.30   10.10
   0  -1  18    2.00    5.80
   0  -1 -18   16.10   16.50
   0  -1  18    1.10    8.20
   0   1 -18   -9.20    9.80
   0   1 -18   37.60   15.50
   0   1  18   13.20    7.40
   1  -1  18  446.36   32.40
   1  -1  18  453.75   35.10
  -1  -1 -18  456.45   30.10
   1   1  18  505.75   32.70
  -1   1 -18  507.85   35.10
   1   1  18  486.35   31.40
  -1   1 -18  478.05   31.00
   2  -1  18  130.29   25.90
   2  -1  18   87.49   20.50
   2   1  18   82.29   19.40
   2   1  18   52.89   22.70
   3  -1  18    2.90   12.50
   3   1  18    5.70    9.60
  -3  -2  18  223.28   14.50
   3  -2 -18  257.27   23.90
   3  -2 -18  219.28   18.20
   3   2 -18  234.28   22.60
  -3   2  18  207.78   15.60
  -2  -2  18   41.90   17.40
  -2  -2  18   42.20   11.80
  -2  -2  18   58.69   10.20
   2  -2 -18   88.79   45.50
   2   2 -18   55.69   18.60
   2   2 -18   48.10   23.90
   2   2 -18   75.39   48.50
  -2   2  18   69.69   12.30
  -2   2  18   38.90   10.10
  -2   2  18   73.49   27.20
  -1  -2  18  142.29   14.70
  -1  -2  18  126.99   16.70
  -1  -2  18  121.49   34.00
   1  -2 -18  112.79   23.10
   1  -2 -18   94.89   22.80
   1  -2 -18  115.59   19.10
   1  -2 -18  125.79   30.70
  -1  -2  18  109.79   12.50
   1   2 -18  121.99   17.10
  -1   2  18  107.89   14.70
  -1   2  18  112.79   16.20
   1   2 -18  126.89   24.10
  -1   2  18  196.58   34.40
  -1   2  18  118.19   12.60
   1   2 -18  139.39   21.00
   1   2 -18  105.19   13.10
   0  -2 -18   20.60   12.20
   0  -2 -18    1.00    7.60
   0  -2 -18    3.80   11.80
   0   2  18   -4.30   14.80
   0   2 -18   -0.70    8.60
   0   2 -18   -3.50    7.50
   0   2  18   -1.50    7.50
   0   2  18    3.30    7.50
   1  -2  18   -7.20   12.40
  -1  -2 -18    6.40    9.30
   1  -2  18    7.00   12.00
  -1   2 -18    2.80    9.80
   1   2  18    2.00   15.60
  -1   2 -18   -3.60   21.60
   1   2  18   -6.00   10.00
   2  -2  18   63.39   25.80
   2   2  18   44.80   21.30
   3  -3 -18   93.79   19.10
   3  -3 -18   76.79   16.40
   3   3 -18  102.79    9.70
  -2  -3  18   34.20   14.50
  -2  -3  18   72.19   15.10
   2  -3 -18   66.59   26.50
   2  -3 -18   79.59   17.30
   2   3 -18   56.59   11.10
   2   3 -18   55.69   30.70
  -2   3  18   66.69   15.00
  -2   3  18   79.29   10.60
   2   3 -18  102.29   27.10
   1  -3 -18   33.70   21.70
  -1  -3  18   18.40   14.40
   1  -3 -18   33.20   19.30
  -1  -3  18   47.80   12.00
   1  -3 -18   10.70   15.00
  -1  -3  18    9.60   22.70
   1  -3 -18   91.79   38.20
  -1  -3  18   19.60    8.70
  -1   3  18   14.10   22.40
   1   3 -18   23.10   10.70
   1   3 -18   23.40   10.20
  -1   3  18   29.30   11.40
   1   3 -18   40.40   24.30
  -1   3  18   23.30    7.70
  -1   3  18   32.60   13.40
   0  -3  18   85.49   16.80
   0  -3 -18   67.79   16.30
   0   3 -18   63.19   16.20
   0   3  18   58.89   29.20
   0   3 -18  107.79   18.80
   2  -3  18   16.70   23.90
   2  -3  18    0.20    8.60
   2   3  18   10.10    7.60
   2  -4 -18   54.09   38.20
   2  -4 -18   27.30   14.40
  -2  -4  18   19.00    9.90
  -2  -4  18   33.80   11.70
  -2   4  18    8.90    5.20
   2   4 -18   14.60   10.70
   1  -4 -18   83.49   23.80
  -1  -4  18   66.19   20.00
  -1  -4  18   42.00   13.70
   1   4 -18   70.69   31.40
  -1   4  18   82.69   21.20
  -1   4  18   43.00   14.40
   1   4 -18   52.09   11.60
   0  -4 -18    3.20    8.80
   0  -4  18    0.90   10.10
   0   4  18   13.20   13.20
   0   4 -18   52.89   18.20
   0   4 -18   28.10   15.10
  -1  -4 -18   89.39   19.40
  -1  -4 -18   86.99   20.00
  -1   4 -18   81.29   15.60
  -1   4 -18   66.89   19.90
   1   4  18   58.89   17.50
   2  -4  18   31.60   15.80
  -2  -4 -18   22.40   11.60
   2  -5 -18  110.49   28.80
  -2  -5  18   76.19   12.30
  -1  -5  18   21.90    7.60
   1  -5 -18   10.70   12.10
   1   5 -18   23.80   16.10
   0  -5 -18   -3.20    8.80
   0  -5  18   22.70   10.60
   0   5 -18    3.20    7.50
   0   5 -18    6.70    7.00
  -1  -5 -18  111.29   19.10
  -1   5 -18  119.99   18.50
  -1   5 -18   98.59   17.50
   3   0 -19   10.00    7.40
  -3   0  19   10.10    5.00
   3   0 -19   -9.70    8.30
   2   0 -19  -14.00   13.30
   2   0 -19   14.00   12.20
   2   0 -19   19.20   16.50
   2   0 -19    7.50    8.30
  -2   0  19   20.20   11.40
   1   0 -19   -2.30    8.30
  -1   0  19  -11.30    8.70
   1   0 -19  -12.10    8.80
  -1   0  19   10.50   16.30
  -1   0  19   -2.50    6.10
   1   0 -19   -6.40    7.30
  -1   0  19   13.80    7.70
   0   0  19    0.00    8.30
   0   0 -19   -2.70    7.80
   0   0  19  -10.70    5.90
   0   0  19   -4.00   16.30
   0   0 -19    0.70   10.60
  -1   0 -19  -12.40    9.10
   1   0  19   10.10   11.50
   1   0  19    4.90   11.20
   2   0  19   -0.10    9.00
   2   0  19    3.90   12.50
   3  -1 -19   59.09   13.70
  -3  -1  19   45.70   10.60
   3  -1 -19   74.09   20.90
   3   1 -19  103.39   28.90
  -3   1  19   56.49   11.50
   3   1 -19   71.79   16.70
  -2  -1  19   24.20    9.50
  -2  -1  19   17.90   11.30
  -2  -1  19    7.40    7.10
  -2   1  19   49.40   19.30
  -2   1  19   36.20   12.10
   2   1 -19   17.50   19.40
  -1  -1  19  265.07   35.40
  -1  -1  19  299.27   21.80
  -1  -1  19  293.47   18.40
   1  -1 -19  300.97   30.40
  -1  -1  19  260.17   19.60
   1  -1 -19  333.07   25.90
   1  -1 -19  308.77   21.80
  -1   1  19  325.57   18.60
   1   1 -19  273.37   25.50
   1   1 -19  292.77   21.60
   1   1 -19  280.87   28.70
  -1   1  19  272.97   20.00
   1   1 -19  252.87   19.10
  -1   1  19  301.37   20.90
  -1   1  19  261.87   37.10
   0  -1  19    3.10    8.40
   0  -1 -19    3.50   11.20
   0  -1  19   -8.70   18.80
   0  -1 -19  -11.40   16.30
   0  -1 -19    3.30    7.60
   0   1  19  -19.30   16.10
   0   1 -19   36.50   15.50
   0   1 -19   13.90   10.20
   0   1  19    1.50    7.90
   1  -1  19   17.30   12.50
   1  -1  19   -1.80   11.70
  -1  -1 -19   47.00   17.80
  -1   1 -19    6.60    9.60
  -1   1 -19    3.40   12.80
   1   1  19   44.00   19.80
   2  -1  19  220.18   26.90
   2  -1  19  244.28   22.60
   2   1  19  202.28   23.40
   2   1  19  246.08   20.10
   3  -2 -19   50.59   19.70
   3  -2 -19   29.60   13.40
  -2  -2  19  196.58   17.50
   2  -2 -19  244.28   23.40
   2  -2 -19  190.18   27.40
  -2  -2  19  200.68   20.20
  -2  -2  19  212.18   14.40
  -2   2  19  230.88   20.70
   2   2 -19  216.88   16.10
   2   2 -19  215.68   28.80
   2   2 -19  191.18   30.10
  -2   2  19  221.88   17.60
  -2   2  19  190.48   14.70
   2   2 -19  234.58   32.60
   1  -2 -19   48.00   17.90
  -1  -2  19   54.59   11.80
   1  -2 -19   61.99   22.00
  -1  -2  19   37.00   14.70
   1  -2 -19  102.39   28.90
  -1   2  19   50.09   11.30
   1   2 -19   43.60   16.20
  -1   2  19   50.59   14.50
   1   2 -19   95.29   20.50
  -1   2  19   57.19   14.10
  -1   2  19   73.39   39.30
   1   2 -19   66.59   11.70
   0  -2 -19   13.30   13.10
   0  -2  19    1.00    8.80
   0   2  19    4.90    7.70
   0   2 -19    4.10    7.50
   0   2 -19    0.00    8.90
   0   2  19    3.10   15.40
   0   2  19   -7.10    8.70
  -1  -2 -19   41.30   19.60
   1  -2  19   13.70   12.20
   1   2  19   43.80   21.20
  -1   2 -19    7.40   11.60
   2  -2  19   83.89   23.70
   2  -2  19   36.60   18.20
   2   2  19   89.69   18.80
   2   2  19   62.99   15.30
  -2  -3  19   -1.30   11.20
   2  -3 -19   11.50    8.00
  -2  -3  19   -0.40    5.10
  -2  -3  19   -6.30    8.10
   2  -3 -19   -0.50    7.30
  -2   3  19    1.60    9.70
   2   3 -19   47.00   24.60
   2   3 -19    1.00    5.90
  -1  -3  19   19.60    6.00
   1  -3 -19   72.69   32.40
   1  -3 -19    2.80   11.20
   1  -3 -19   25.30   10.00
  -1  -3  19   16.80   10.40
   1   3 -19    9.10    8.50
  -1   3  19   10.00    9.70
   0  -3  19   97.49   17.40
   0  -3 -19   72.49   15.90
   0   3 -19   70.99   14.70
   0   3  19   59.49   15.00
   0   3 -19   47.50   18.90
   1  -3  19  121.09   23.20
  -1  -3 -19   73.19   19.10
  -1   3 -19   64.29   19.50
   1   3  19   98.89   19.00
  -1   3 -19   65.99   19.30
  -2  -3 -19    3.10    9.50
   2  -3  19   57.29   25.90
   2   3  19   -2.40   10.80
  -2  -4  19   51.79   11.30
   2  -4 -19   71.49   15.90
  -2  -4  19   30.20   13.60
   2  -4 -19   46.80   24.60
   2   4 -19   47.20   12.80
  -2   4  19   55.99   12.60
  -1  -4  19   31.20   12.40
   1  -4 -19   78.09   29.30
   1  -4 -19   55.39   22.60
   1   4 -19   51.99   22.00
   1   4 -19   15.20    8.90
  -1   4  19   55.49   15.20
   0  -4  19  109.69   18.70
   0  -4 -19  118.09   17.60
   0   4  19  122.59   24.50
   0   4 -19  125.69   15.10
   0   4 -19  129.19   19.90
  -1  -4 -19  136.39   18.80
  -1   4 -19   87.59   19.00
  -1   4 -19   95.19   16.50
   1   4  19  121.49   17.00
  -1  -5  19    6.30    8.10
   1  -5 -19    8.30   12.00
   1   5 -19   15.40   10.30
   0  -5  19   -4.20   10.20
   0   5 -19   -1.60   10.60
   0   5  19    3.20    8.80
  -1  -5 -19  -11.50    9.40
   1  -5  19   -5.60    9.50
  -1   5 -19   10.40    6.40
   1   5  19   -3.30    7.50
  -1   5 -19    8.50    9.60
   3   0 -20   56.29   22.40
   3   0 -20   23.90   15.40
  -2   0  20  191.38   18.20
  -2   0  20  163.78   13.30
   2   0 -20  180.88   24.40
  -2   0  20  159.68   16.10
   2   0 -20  166.28   26.70
   2   0 -20  165.78   26.90
   1   0 -20  115.99   25.40
   1   0 -20  109.99   20.50
  -1   0  20  115.39   15.80
  -1   0  20  132.99   13.00
  -1   0  20  105.29   16.60
  -1   0  20  114.49   37.20
   1   0 -20  137.59   17.20
   0   0  20    2.90    7.90
   0   0 -20   12.30   11.10
   0   0 -20    3.80    7.80
   0   0  20   37.80   18.80
   0   0  20   11.40    8.90
   1   0  20  321.47   30.40
  -1   0 -20  319.57   25.80
   2   0  20    2.10   11.20
   2   0  20   48.80   16.70
   3  -1 -20   37.60   20.00
   3   1 -20   64.69   33.30
  -2  -1  20    2.70    4.70
   2  -1 -20    9.40    7.50
   2  -1 -20   36.40   21.30
  -2  -1  20   -5.30   10.00
   2  -1 -20   16.80   10.80
   2   1 -20    4.40   10.80
   2   1 -20   13.00    8.60
   2   1 -20    5.40   11.80
  -2   1  20   45.00   16.50
  -2   1  20   31.40   14.30
  -1  -1  20   11.90    8.80
  -1  -1  20   -1.60   20.10
   1  -1 -20    8.00    9.50
   1  -1 -20   -0.90    9.00
  -1  -1  20   26.80   14.40
   1  -1 -20    4.50    8.00
  -1  -1  20   25.90   11.70
   1   1 -20   -7.40    9.30
  -1   1  20    2.80    8.00
   1   1 -20    8.30    8.40
  -1   1  20  -13.20    8.10
  -1   1  20    0.90    5.10
  -1   1  20   20.20   21.50
   1   1 -20   -3.30    7.60
   0  -1 -20   40.80   24.40
   0  -1  20   83.39   15.20
   0  -1 -20   97.69   16.20
   0  -1  20  174.38   42.10
   0   1  20   85.19   15.10
   0   1 -20   65.99   15.30
   0   1 -20   89.29   21.90
   1  -1  20    0.40   16.70
  -1   1 -20  -11.00   14.40
   1   1  20  -13.10   14.00
   2  -1  20   38.10   12.20
   2  -1  20   63.49   16.80
   2   1  20   40.80   18.30
   3  -2 -20   32.10   13.70
  -2  -2  20  105.59   15.40
   2  -2 -20   76.39   18.50
  -2  -2  20   75.99   15.70
  -2  -2  20  122.19   12.90
   2   2 -20  107.49   25.10
   2   2 -20  115.69   26.90
   2   2 -20   70.99   27.80
  -2   2  20  106.59   16.00
  -2   2  20  113.69   15.40
  -2   2  20  135.49   16.10
   2   2 -20   93.59   13.30
  -1  -2  20   10.00    9.30
  -1  -2  20    9.00    9.10
   1  -2 -20   16.80   13.60
  -1  -2  20    1.80    5.60
   1   2 -20    0.10    7.40
  -1   2  20    1.00    5.20
  -1   2  20   34.40   14.80
   1   2 -20    5.30   10.50
  -1   2  20    9.70    9.20
   0  -2 -20   11.20   21.80
   0  -2  20   21.90   24.90
   0  -2 -20   15.30    7.80
   0  -2  20   -5.00    8.60
   0   2  20    4.80   21.10
   0   2 -20    2.30    7.70
   0   2 -20   14.40    9.60
   0   2  20    4.50    7.50
   1  -2  20   24.90   13.20
  -1  -2 -20   39.70   17.70
   1   2  20   10.40   11.20
  -1   2 -20   41.40   21.80
   1   2  20   67.09   18.70
  -1   2 -20   31.50   10.20
   2  -2  20   53.69   14.00
   2  -2  20   57.99   16.10
   2   2  20   80.39   14.40
  -2  -3  20   -8.90    8.00
   2  -3 -20   -3.40    7.60
  -2  -3  20   -3.80    5.00
   2   3 -20   -0.80   18.50
  -2   3  20    1.50    5.20
   2   3 -20    0.80    5.70
   1  -3 -20   23.60   15.70
   1  -3 -20    9.00   11.60
  -1  -3  20    1.90    7.80
  -1  -3  20   10.10    6.30
  -1  -3  20   18.70   11.10
   1  -3 -20  -11.30   10.30
  -1   3  20   17.30   11.50
   1   3 -20    7.00    7.50
   1   3 -20    4.20    9.40
  -1   3  20    3.80    7.00
   0  -3  20   13.20   20.10
   0  -3  20   54.59   16.20
   0  -3 -20   36.40   15.80
   0   3 -20   32.60   19.00
   0   3 -20   31.10    8.40
   0   3  20   36.90   13.90
  -1  -3 -20   61.59   18.20
  -1  -3 -20   60.19   18.50
   1  -3  20   99.79   23.20
   1   3  20   44.30   18.40
  -1   3 -20   65.29   17.60
  -2  -3 -20   12.90    6.60
   2  -3  20    7.70    7.90
   2   3  20   20.70    7.50
  -2  -4  20    7.70    6.80
   2  -4 -20    3.00    6.00
  -1  -4  20   38.50   12.10
   1  -4 -20   28.20   15.90
   1   4 -20   44.50   20.90
   1   4 -20   49.70   15.70
  -1   4  20   55.99   16.80
   0  -4  20   28.10   15.40
   0  -4 -20   17.50    8.30
   0   4  20   43.70   23.60
   0   4 -20   14.90    8.20
   0   4 -20   15.50    7.40
   1  -4  20   10.00   13.00
  -1   4 -20    8.30   10.90
  -1  -5  20   62.09   11.10
   1  -5 -20   69.89   22.60
   0  -5 -20  164.38   23.70
   0  -5 -20  139.19   19.20
   0  -5  20  174.68   30.70
   0  -5  20  118.19   19.20
   0   5 -20  163.18   16.80
   0   5 -20  168.68   16.30
   3   0 -21   70.99   20.70
  -2   0  21   -3.20    9.00
   2   0 -21   -4.70    7.10
  -2   0  21   30.30   15.60
   2   0 -21   -8.40    9.70
   2   0 -21   35.10   20.80
  -1   0  21   -3.60    8.80
   1   0 -21   -6.60    7.60
   1   0 -21   -5.10   10.00
  -1   0  21    6.70    9.20
  -1   0  21    1.40    5.80
   0   0 -21    3.80   10.40
   0   0 -21    2.80    7.50
   0   0  21    9.90    8.40
   0   0 -21    2.20    7.90
   0   0  21  -22.00   28.70
  -1   0 -21   50.79   19.00
   1   0  21   -6.30   11.70
   1   0  21  -12.10   12.10
   2   0  21   33.20   15.80
   3  -1 -21  105.59   14.50
   3   1 -21   78.89   18.40
   2  -1 -21   68.59   20.50
  -2  -1  21   45.00   18.20
  -2  -1  21   63.29   15.00
   2  -1 -21  105.99   22.00
  -2  -1  21   66.89   15.70
   2  -1 -21   76.09   19.00
  -2   1  21   45.50   15.90
   2   1 -21   80.49   22.60
  -2   1  21   72.89   15.10
  -2   1  21   72.19   18.80
   2   1 -21   73.39   24.30
  -1  -1  21   78.79   13.40
  -1   1  21   44.60   13.20
  -1   1  21  103.69   17.20
   0  -1  21   99.29   16.60
   0  -1 -21   84.19   15.90
   0   1 -21   80.89   17.00
   0   1 -21   61.79   22.50
   0   1  21  106.89   15.00
   1  -1  21  147.99   22.70
   1  -1  21  168.08   26.40
  -1  -1 -21  122.59   19.80
   1   1  21  141.19   23.90
   1   1  21  111.79   21.70
  -1   1 -21  168.88   20.60
   2  -1  21   -4.60   10.90
   2  -1  21  -13.30    9.70
   2  -2 -21    6.00    7.30
  -2  -2  21   -2.80    8.00
  -2   2  21    6.30    5.10
   2   2 -21    4.30   11.20
  -2   2  21   -0.60    7.60
   2   2 -21   50.39   24.10
   2   2 -21   12.10   12.40
  -1  -2  21   15.80   10.80
   1  -2 -21   71.29   22.30
   1  -2 -21   76.09   28.00
  -1  -2  21   38.30   15.00
  -1  -2  21   47.50   13.10
  -1   2  21   53.19   18.40
  -1   2  21   42.70   14.00
   1   2 -21   51.19   22.70
   1   2 -21   17.10   10.70
   1   2 -21   31.40    9.80
   0  -2 -21  110.79   17.80
   0  -2  21  116.09   17.00
   0   2 -21  116.29   21.00
   0   2  21  144.49   29.60
   0   2 -21  104.19   17.60
   0   2  21   99.39   16.30
  -1  -2 -21   31.50   17.30
   1   2  21   14.60   15.70
   2  -2  21   56.69   19.40
   2  -2  21   35.20   15.10
   2   2  21   48.60   14.40
   2   2  21   38.30   16.70
   2  -3 -21   57.19   21.50
  -2  -3  21   58.69   12.80
  -2   3  21   58.49   12.80
   2   3 -21   83.69   24.60
  -1  -3  21   28.70   15.10
   1  -3 -21  -18.10   10.90
  -1  -3  21   21.70   12.50
  -1   3  21    5.60    6.50
  -1   3  21    0.60    6.40
   1   3 -21   -1.20    6.70
   1   3 -21    6.60    8.30
   0  -3  21   42.00   18.10
   0  -3 -21   15.20    7.60
   0  -3  21   13.30    9.50
   0   3  21   11.10   11.80
   0   3 -21   41.30   17.60
   0   3  21   14.90    7.70
   0   3 -21   32.90   13.80
  -1  -3 -21   10.30    8.60
   1  -3  21   52.99   22.20
   1   3  21    3.70    7.90
  -1   3 -21    7.70    7.80
  -1   3 -21   17.10    9.00
  -1  -4  21  134.59   16.50
   1   4 -21  156.08   23.90
   0  -4  21   75.79   25.30
   0  -4 -21   91.49   15.50
   0  -4  21   41.30   22.40
   0   4 -21   91.59   13.60
   0   4 -21   72.69   15.80
   0   4  21   84.99   23.20
  -1  -4 -21   17.20    8.50
   1  -4  21    7.90    9.00
  -1   4 -21    0.10    6.60
   1   4  21    6.80    7.70
  -1   4 -21   13.80    7.80
   2   0 -22  212.88   21.90
  -2   0  22  181.18   15.00
   2   0 -22  181.38   22.20
  -2   0  22  189.08   16.20
   1   0 -22  249.97   28.20
   1   0 -22  277.57   22.40
  -1   0  22  293.97   19.90
   1   0 -22  266.07   24.70
  -1   0  22  243.08   19.50
   0   0  22  133.99   18.40
   0   0 -22  157.28   20.00
   0   0 -22  156.88   22.90
   0   0  22  195.38   33.20
   0   0 -22  165.18   27.70
  -1   0 -22   43.00   23.30
   1   0  22   -3.30   10.20
   2   0  22   14.00    7.40
   2   0  22    1.50    8.80
  -2  -1  22  103.39   12.50
  -2  -1  22   96.19   17.00
   2  -1 -22   94.69   19.20
   2  -1 -22   80.09   20.80
  -2   1  22   82.29   13.20
   2   1 -22   93.39   22.10
   2   1 -22  108.99   21.60
   1  -1 -22   59.09   19.50
  -1  -1  22   68.69   19.40
   1  -1 -22   40.40   11.20
  -1  -1  22   32.50   14.50
  -1  -1  22   30.90   14.00
   1   1 -22   77.99   19.10
  -1   1  22   48.90   13.20
   1   1 -22   70.49   24.90
   1   1 -22   71.39   17.60
   0  -1 -22   79.19   14.40
   0  -1  22   72.09   35.70
   0  -1 -22   69.89   24.30
   0   1 -22   60.29   24.00
   0   1 -22   95.79   22.00
   0   1 -22   53.19   16.90
  -1  -1 -22   38.70   18.20
   1   1  22   46.90   20.90
   2  -1  22   28.20   15.30
   2  -1  22    0.60    8.90
   2   1  22   34.50   17.60
   2   1  22   15.80    7.30
  -2  -2  22   33.40   12.00
   2  -2 -22   45.20   16.20
   2   2 -22   43.10   22.30
   2   2 -22   17.00   11.70
  -2   2  22   39.00   13.00
  -1  -2  22    6.00    6.80
   1  -2 -22    4.40   10.40
  -1  -2  22   28.00   13.20
   1  -2 -22   -6.60    9.90
  -1   2  22    2.50    7.10
   1   2 -22   -6.00    6.50
   1   2 -22    2.90    9.90
  -1   2  22   -5.10    6.80
   1   2 -22    2.60    8.50
   0  -2 -22   87.89   15.10
   0  -2  22   83.99   17.10
   0  -2  22  114.99   34.30
   0   2  22  108.29   15.60
   0   2  22   50.79   25.10
   0   2 -22   89.69   17.40
  -1  -2 -22   91.99   17.70
   1  -2  22  119.29   22.00
  -1   2 -22   71.09   34.90
   1   2  22   96.39   19.00
  -1   2 -22  130.39   17.50
  -2  -3  22   33.20   15.20
  -1  -3  22  162.68   14.60
  -1   3  22  172.38   21.40
   1   3 -22  145.89   19.60
  -1   3  22  164.28   14.00
   1   3 -22  156.88   23.00
   0  -3 -22    6.60    7.10
   0  -3  22   -2.00    9.00
   0   3 -22    5.90    7.90
   0   3 -22    0.00    6.80
  -1  -3 -22   84.99   16.50
   1  -3  22   95.29   31.10
  -1   3 -22   77.89   16.10
  -1   3 -22   84.69   16.60
   1   3  22   58.09   18.10
  -1  -4  22   27.10   11.50
   1   4 -22    4.80    8.50
   0  -4  22   15.00   17.10
   0  -4 -22   -6.10    7.80
   0  -4  22   14.30    9.90
   0  -4 -22   55.49   26.90
   0   4 -22    8.80    6.60
   0   4 -22   -1.60    6.80
  -2   0  23    8.70    6.20
   2   0 -23   40.50   19.10
   2   0 -23    1.40   11.00
  -2   0  23    0.90    7.30
   1   0 -23   11.70    9.70
   1   0 -23   51.59   22.30
   1   0 -23    0.40    9.00
  -1   0  23   14.00    7.20
   0   0  23  -17.10   15.50
   0   0 -23  -14.80    9.80
   0   0 -23    8.50    7.70
   0   0  23   26.70   15.30
   0   0 -23    0.50    7.50
   1   0  23   70.59   20.50
  -2   1  23    8.80    5.90
   2   1 -23   35.30   20.50
   1  -1 -23  134.39   24.10
   1  -1 -23  179.98   25.30
  -1  -1  23  146.79   18.10
   1  -1 -23  173.18   20.20
  -1  -1  23  169.38   16.20
   1   1 -23  161.48   17.70
   1   1 -23  166.68   23.80
   1   1 -23  203.98   20.30
  -1   1  23  182.78   17.60
  -1   1  23  169.98   15.60
   0  -1  23  117.79   31.40
   0  -1 -23   97.69   25.90
   0  -1  23  121.39   17.10
   0  -1 -23  102.09   15.30
   0   1 -23  132.39   16.10
   0   1 -23  142.69   20.70
   0   1 -23  103.09   22.80
   0   1  23  111.49   16.30
  -1  -1 -23   29.70   16.10
   1  -1  23   -1.90    9.40
   1   1  23   16.00   13.10
   1   1  23    8.70    8.80
  -1   1 -23    8.30    6.80
  -2  -2  23   55.89   12.20
   2  -2 -23   66.19   17.00
  -1  -2  23   21.70   12.30
   1  -2 -23   50.19   23.70
  -1  -2  23   11.70    8.50
   1   2 -23    4.10    7.50
  -1   2  23    2.20    6.70
   1   2 -23   11.40    6.60
  -1   2  23   34.40   16.90
   0  -2  23   25.60    9.90
   0  -2  23   -7.70   27.80
   0   2 -23   25.30   14.40
   0   2 -23   53.09   18.10
   0   2  23   56.79   14.10
   1   2  23   65.09   29.20
  -1   2 -23   53.09   22.00
  -1  -3  23   41.90   13.00
   1   3 -23   37.50   20.50
   1   3 -23   65.19   16.50
   0  -3  23    9.40   10.40
   0   3 -23   47.10   22.20
   0   3 -23    0.50    7.10
   0   3 -23   -2.40   11.90
  -1  -3 -23   30.50   13.80
   1  -3  23  -13.40    8.40
  -1   3 -23   -0.40    7.50
   1   3  23   -1.30    7.30
   2   0 -24  197.68   21.70
   2   0 -24  176.98   20.00
  -1   0  24  120.59   14.10
   1   0 -24  114.39   22.20
  -1   0  24  127.19   18.70
   1   0 -24  128.09   19.00
   0   0  24   28.30   15.10
  -1   0 -24  138.59   20.40
   1   0  24  133.99   19.30
   1   0  24  134.89   22.40
   2  -1 -24   -1.00    5.90
   2   1 -24   17.40    9.90
   2   1 -24    6.20    6.10
   1  -1 -24   11.20    7.10
  -1  -1  24    5.00    7.00
   1  -1 -24   34.90   18.30
  -1   1  24    3.20   10.50
  -1   1  24   13.30    6.80
   1   1 -24   28.80   20.00
   1   1 -24    7.80    7.80
   0  -1 -24   47.50   14.10
   0  -1 -24  108.39   39.00
   0   1  24   55.49   15.30
   0   1 -24   32.30   14.00
   1  -1  24   -8.40    8.70
  -1  -1 -24    4.80    8.10
  -1   1 -24   -3.60    6.30
  -1   1 -24    5.10    6.40
   1   1  24    5.40    8.30
  -1  -2  24   68.19   19.30
   1   2 -24   86.39   25.10
   1   2 -24   85.49   22.30
  -1   2  24   52.99   17.60
   0  -2  24   37.40   22.30
   0   2 -24   10.50   10.50
   0   2 -24   17.10   15.00
   0   2  24   16.80   12.80
   1  -2  24   90.19   18.40
  -1  -2 -24  122.79   16.80
   1   2  24   72.19   18.00
  -1   2 -24  120.29   17.90
  -1   2 -24  114.09   15.10
   0  -3  24  161.08   16.60
   0  -3 -24  151.58   16.90
   0   3 -24  142.69   18.40
   0   3 -24  152.88   14.40
   0   3 -24  143.99   19.20
   1   0 -25   -5.30    6.50
  -1   0  25   -5.50    7.20
   0   0  25   -4.60   10.90
   0   0 -25    6.00   11.10
   0   0 -25   39.30   21.00
   1   0  25   16.90    8.60
   1   0  25   -0.70    8.90
  -1   0 -25   42.00   15.70
   1  -1 -25  136.39   18.80
  -1  -1  25  123.49   13.30
   1  -1 -25  151.38   20.40
   1   1 -25  148.99   17.50
  -1   1  25  123.79   12.90
   1   1 -25  117.09   20.60
   0  -1  25  169.48   17.20
   0   1  25  167.38   16.90
   0   1 -25  193.78   17.00
   0   1 -25  179.18   21.90
  -1  -2  25   58.39   12.00
   1   2 -25   72.09   20.20
   1   2 -25   86.39   17.30
   0  -2  25  103.09   15.70
   0   2 -25   82.59   15.60
   0   2 -25   92.49   13.60
   0   0  26  135.89   16.80
   0   0 -26  102.99   15.30
   0   0   0    0.00    0.00

_computing_structure_solution     'SHELXT 2018/2 (Sheldrick, 2018)'
;
_shelx_hkl_checksum              67722
_olex2_submission_special_instructions 'No special instructions were received'
loop_
_space_group_symop_operation_xyz
'x, y, z'
'-x, y+1/2, -z+1/2'
'-x, -y, -z'
'x, -y-1/2, z-1/2'
loop_
_atom_site_label
_atom_site_type_symbol
_atom_site_fract_x
_atom_site_fract_y
_atom_site_fract_z
_atom_site_U_iso_or_equiv
_atom_site_adp_type
_atom_site_occupancy
_atom_site_site_symmetry_order
_atom_site_calc_flag
_atom_site_refinement_flags_posn
_atom_site_refinement_flags_occupancy
_atom_site_disorder_assembly
_atom_site_disorder_group
S1 S 0.8298(4) 0.4397(2) 0.38576(7) 0.0240(4) Uani 1 1 d . . . .
F1 F 0.698(3) 0.1679(15) 0.6098(4) 0.0224(19) Uani 0.275(5) 1 d D P A 1
F1A F 0.766(4) 0.3697(15) 0.5061(6) 0.0224(19) Uani 0.225(5) 1 d D P A 2
N1 N 0.7384(13) 0.2569(8) 0.2811(2) 0.0278(12) Uani 1 1 d . . . .
C1 C 0.5789(14) 0.0908(8) 0.5569(2) 0.0224(12) Uani 1 1 d D . . .
H1 H 0.633055 0.156003 0.595764 0.027 Uiso 0.225(5) 1 calc R P A 2
C2 C 0.6553(14) 0.1857(8) 0.5023(3) 0.0221(12) Uani 1 1 d D . . .
H2 H 0.764911 0.313795 0.504790 0.026 Uiso 0.275(5) 1 calc R P A 1
C3 C 0.5773(13) 0.1004(8) 0.4441(2) 0.0192(12) Uani 1 1 d . . . .
C4 C 0.6627(13) 0.1976(8) 0.3860(2) 0.0182(11) Uani 1 1 d . . . .
C5 C 0.6366(15) 0.1297(9) 0.3267(3) 0.0252(13) Uani 1 1 d . . . .
H5 H 0.551010 -0.001269 0.316799 0.030 Uiso 1 1 calc R . . .
C6 C 0.8478(14) 0.4262(9) 0.3066(3) 0.0270(13) Uani 1 1 d . . . .
H6 H 0.931226 0.533977 0.282802 0.032 Uiso 1 1 calc R . . .
loop_
_atom_site_aniso_label
_atom_site_aniso_U_11
_atom_site_aniso_U_22
_atom_site_aniso_U_33
_atom_site_aniso_U_23
_atom_site_aniso_U_13
_atom_site_aniso_U_12
S1 0.0250(7) 0.0189(7) 0.0285(7) 0.0019(6) 0.0052(5) -0.0022(6)
F1 0.035(5) 0.014(4) 0.019(4) -0.001(4) 0.001(4) -0.011(4)
F1A 0.035(5) 0.014(4) 0.019(4) -0.001(4) 0.001(4) -0.011(4)
N1 0.028(3) 0.030(3) 0.027(3) 0.004(2) 0.008(2) 0.005(2)
C1 0.024(3) 0.023(3) 0.020(3) -0.002(2) 0.001(2) 0.004(2)
C2 0.017(3) 0.021(3) 0.028(3) -0.003(2) 0.000(2) 0.004(2)
C3 0.016(3) 0.018(3) 0.024(3) 0.001(2) 0.001(2) 0.004(2)
C4 0.010(2) 0.021(3) 0.025(3) 0.000(2) 0.003(2) 0.002(2)
C5 0.024(3) 0.024(3) 0.029(3) 0.000(2) 0.005(2) -0.004(2)
C6 0.020(3) 0.029(3) 0.033(3) 0.005(3) 0.009(2) 0.002(3)
loop_
_atom_type_symbol
_atom_type_description
_atom_type_scat_dispersion_real
_atom_type_scat_dispersion_imag
_atom_type_scat_source
C C 0.0181 0.0091 'International Tables Vol C Tables 4.2.6.8 and 6.1.1.4'
H H 0.0000 0.0000 'International Tables Vol C Tables 4.2.6.8 and 6.1.1.4'
F F 0.0727 0.0534 'International Tables Vol C Tables 4.2.6.8 and 6.1.1.4'
N N 0.0311 0.0180 'International Tables Vol C Tables 4.2.6.8 and 6.1.1.4'
S S 0.3331 0.5567 'International Tables Vol C Tables 4.2.6.8 and 6.1.1.4'
loop_
_geom_angle_atom_site_label_1
_geom_angle_atom_site_label_2
_geom_angle_atom_site_label_3
_geom_angle
_geom_angle_site_symmetry_1
_geom_angle_site_symmetry_3
C6 S1 C4 89.8(3) . .
C6 N1 C5 109.4(5) . .
F1 C1 C2 118.8(7) . .
F1 C1 C3 119.4(7) . 3_656
C2 C1 H1 119.4 . .
C2 C1 C3 121.1(5) . 3_656
C3 C1 H1 119.4 3_656 .
F1A C2 C1 117.8(8) . .
F1A C2 C3 119.4(8) . .
C1 C2 H2 118.8 . .
C1 C2 C3 122.3(5) . .
C3 C2 H2 118.8 . .
C1 C3 C4 120.6(5) 3_656 .
C2 C3 C1 116.5(5) . 3_656
C2 C3 C4 122.9(5) . .
C3 C4 S1 121.3(4) . .
C5 C4 S1 108.0(4) . .
C5 C4 C3 130.7(5) . .
N1 C5 H5 121.2 . .
C4 C5 N1 117.6(5) . .
C4 C5 H5 121.2 . .
S1 C6 H6 122.4 . .
N1 C6 S1 115.2(4) . .
N1 C6 H6 122.4 . .
loop_
_geom_bond_atom_site_label_1
_geom_bond_atom_site_label_2
_geom_bond_distance
_geom_bond_site_symmetry_2
S1 C4 1.735(6) .
S1 C6 1.713(6) .
F1 C1 1.297(9) .
F1A C2 1.297(9) .
N1 C5 1.373(7) .
N1 C6 1.309(8) .
C1 H1 0.9500 .
C1 C2 1.385(8) .
C1 C3 1.406(8) 3_656
C2 H2 0.9500 .
C2 C3 1.387(7) .
C3 C4 1.465(7) .
C4 C5 1.351(8) .
C5 H5 0.9500 .
C6 H6 0.9500 .
loop_
_geom_torsion_atom_site_label_1
_geom_torsion_atom_site_label_2
_geom_torsion_atom_site_label_3
_geom_torsion_atom_site_label_4
_geom_torsion
_geom_torsion_site_symmetry_1
_geom_torsion_site_symmetry_4
S1 C4 C5 N1 -0.3(6) . .
F1 C1 C2 C3 171.6(7) . .
F1A C2 C3 C1 -173.0(9) . 3_656
F1A C2 C3 C4 9.3(11) . .
C1 C2 C3 C1 -1.1(8) . 3_656
C1 C2 C3 C4 -178.8(5) . .
C1 C3 C4 S1 175.9(4) 3_656 .
C1 C3 C4 C5 -4.5(9) 3_656 .
C2 C3 C4 S1 -6.5(7) . .
C2 C3 C4 C5 173.1(5) . .
C3 C1 C2 F1A 173.1(9) 3_656 .
C3 C1 C2 C3 1.2(9) 3_656 .
C3 C4 C5 N1 -180.0(5) . .
C4 S1 C6 N1 0.2(4) . .
C5 N1 C6 S1 -0.4(6) . .
C6 S1 C4 C3 179.7(4) . .
C6 S1 C4 C5 0.1(4) . .
C6 N1 C5 C4 0.5(7) . .
