#------------------------------------------------------------------------------
#$Date: 2019-11-24 13:56:51 +0200 (Sun, 24 Nov 2019) $
#$Revision: 238072 $
#$URL: file:///home/coder/svn-repositories/cod/cif/1/55/47/1554712.cif $
#------------------------------------------------------------------------------
#
# This file is available in the Crystallography Open Database (COD),
# http://www.crystallography.net/
#
# All data on this site have been placed in the public domain by the
# contributors.
#
data_1554712
loop_
_publ_author_name
'Bar\/l\'og, Maciej'
'Kulai, Ihor'
'Ji, Xiaozhou'
'Bhuvanesh, Nattamai'
'Dey, Somnath'
'Sliwinski, Eric Pierre'
'Bazzi, Hassan S.'
'Fang, Lei'
'Al-Hashimi, Mohammed'
_publ_section_title
;
 Synthesis, characterization and crystal structures of novel fluorinated
 di(thiazolyl)benzene derivatives
;
_journal_issue                   6
_journal_name_full               'Organic Chemistry Frontiers'
_journal_page_first              780
_journal_paper_doi               10.1039/C9QO00044E
_journal_volume                  6
_journal_year                    2019
_chemical_formula_moiety         'C12 H6 F2 N2 S2'
_chemical_formula_sum            'C12 H6 F2 N2 S2'
_chemical_formula_weight         280.31
_space_group_crystal_system      monoclinic
_space_group_IT_number           14
_space_group_name_Hall           '-P 2yn'
_space_group_name_H-M_alt        'P 1 21/n 1'
_atom_sites_solution_hydrogens   geom
_atom_sites_solution_primary     dual
_audit_creation_date             2017-06-29
_audit_creation_method
;
Olex2 1.2
(compiled 2017.03.28 svn.r3405 for OlexSys, GUI svn.r5337)
;
_audit_update_record
;
2018-07-19 deposited with the CCDC.
2019-01-30 downloaded from the CCDC.
;
_cell_angle_alpha                90
_cell_angle_beta                 90.509(2)
_cell_angle_gamma                90
_cell_formula_units_Z            2
_cell_length_a                   5.7427(3)
_cell_length_b                   5.5541(3)
_cell_length_c                   17.1753(8)
_cell_measurement_reflns_used    2797
_cell_measurement_temperature    100
_cell_measurement_theta_max      77.34
_cell_measurement_theta_min      5.15
_cell_volume                     547.79(5)
_computing_cell_refinement       'SAINT V8.38A (?, 2016)'
_computing_data_collection       APEX3
_computing_data_reduction        'SAINT V8.38A (?, 2016)'
_computing_molecular_graphics    'Olex2 (Dolomanov et al., 2009)'
_computing_publication_material  'Olex2 (Dolomanov et al., 2009)'
_computing_structure_refinement  'ShelXL (Sheldrick, 2015)'
_computing_structure_solution    'ShelXT (Sheldrick, 2015)'
_diffrn_ambient_temperature      100.0
_diffrn_detector                 'Bruker CMOS area detector'
_diffrn_detector_area_resol_mean 10.5
_diffrn_detector_type            'CMOS area detector'
_diffrn_measured_fraction_theta_full 0.935
_diffrn_measured_fraction_theta_max 0.892
_diffrn_measurement_device       'three-circle diffractometer'
_diffrn_measurement_device_type  'Bruker Micro-Source CMOS'
_diffrn_measurement_method       '\f and \w scans'
_diffrn_radiation_monochromator  'mirror optics'
_diffrn_radiation_probe          x-ray
_diffrn_radiation_type           CuK\a
_diffrn_radiation_wavelength     1.54178
_diffrn_reflns_av_R_equivalents  0.0375
_diffrn_reflns_av_unetI/netI     0.0313
_diffrn_reflns_Laue_measured_fraction_full 0.935
_diffrn_reflns_Laue_measured_fraction_max 0.892
_diffrn_reflns_limit_h_max       6
_diffrn_reflns_limit_h_min       -6
_diffrn_reflns_limit_k_max       6
_diffrn_reflns_limit_k_min       -6
_diffrn_reflns_limit_l_max       21
_diffrn_reflns_limit_l_min       -21
_diffrn_reflns_number            3760
_diffrn_reflns_point_group_measured_fraction_full 0.935
_diffrn_reflns_point_group_measured_fraction_max 0.892
_diffrn_reflns_theta_full        67.679
_diffrn_reflns_theta_max         78.795
_diffrn_reflns_theta_min         5.150
_diffrn_source                   'microfocus sealed X-ray tube'
_diffrn_source_current           1
_diffrn_source_target            Mo
_diffrn_source_type              'Incoatec I\ms'
_diffrn_source_voltage           50
_diffrn_standards_number         0
_exptl_absorpt_coefficient_mu    4.514
_exptl_absorpt_correction_T_max  0.7542
_exptl_absorpt_correction_T_min  0.5449
_exptl_absorpt_correction_type   multi-scan
_exptl_absorpt_process_details
'SADABS-2016/2 (Bruker,2016/2) was used for absorption correction. wR2(int) was 0.0974 before and 0.0450 after correction. The Ratio of minimum to maximum transmission is 0.7225. The \l/2 correction factor is Not present.'
_exptl_crystal_colour            colourless
_exptl_crystal_density_diffrn    1.699
_exptl_crystal_description       plate
_exptl_crystal_F_000             284
_exptl_crystal_size_max          0.15
_exptl_crystal_size_mid          0.092
_exptl_crystal_size_min          0.021
_refine_diff_density_max         0.362
_refine_diff_density_min         -0.302
_refine_diff_density_rms         0.060
_refine_ls_extinction_method     none
_refine_ls_goodness_of_fit_ref   1.092
_refine_ls_hydrogen_treatment    constr
_refine_ls_matrix_type           full
_refine_ls_number_parameters     82
_refine_ls_number_reflns         1047
_refine_ls_number_restraints     0
_refine_ls_restrained_S_all      1.092
_refine_ls_R_factor_all          0.0350
_refine_ls_R_factor_gt           0.0315
_refine_ls_shift/su_max          0.000
_refine_ls_shift/su_mean         0.000
_refine_ls_structure_factor_coef Fsqd
_refine_ls_weighting_details
'w=1/[\s^2^(Fo^2^)+(0.0413P)^2^+0.3489P] where P=(Fo^2^+2Fc^2^)/3'
_refine_ls_weighting_scheme      calc
_refine_ls_wR_factor_gt          0.0832
_refine_ls_wR_factor_ref         0.0850
_reflns_Friedel_coverage         0.000
_reflns_number_gt                964
_reflns_number_total             1047
_reflns_threshold_expression     'I > 2\s(I)'
_cod_data_source_file            c9qo00044e2.cif
_cod_data_source_block           f2r
_cod_database_code               1554712
_shelx_shelxl_version_number     2016/6
_shelx_space_group_comment
;
The symmetry employed for this shelxl refinement is uniquely defined
by the following loop, which should always be used as a source of
symmetry information in preference to the above space-group names.
They are only intended as comments.
;
_shelx_estimated_absorpt_t_max   0.911
_shelx_estimated_absorpt_t_min   0.551
_olex2_refinement_description
;
1. Fixed Uiso
 At 1.2 times of:
  All C(H) groups
2.a Aromatic/amide H refined with riding coordinates:
 C1(H1), C5(H5), C6(H6)
;
_shelx_res_file
;
TITL F2R_0m_a.res in P2(1)/n
    f2r.res
    created by SHELXL-2016/6 at 10:02:39 on 29-Jun-2017
REM Old TITL F2R_0m in P2(1)/n
REM SHELXT solution in P2(1)/n
REM R1 0.091, Rweak 0.002, Alpha 0.021, Orientation as input
REM Formula found by SHELXT: C6 F N S
CELL 1.54178 5.7427 5.5541 17.1753 90 90.509 90
ZERR 2 0.0003 0.0003 0.0008 0 0.002 0
LATT 1
SYMM 0.5-X,0.5+Y,0.5-Z
SFAC C H F N S
UNIT 24 12 4 4 4

L.S. 10
PLAN  20
SIZE 0.021 0.092 0.15
TEMP -173.15
BOND $H
LIST 4
fmap 2
acta
htab
OMIT -6 1 1
OMIT 6 0 0
OMIT -6 2 1
OMIT -5 1 2
OMIT -5 2 3
OMIT -4 2 6
OMIT -4 2 4
REM <olex2.extras>
REM <HklSrc "%.\\f2r.hkl">
REM </olex2.extras>

WGHT    0.041300    0.348900
FVAR       1.23835
S1    5    0.403557    0.522635    0.317781    11.00000    0.01650    0.02492 =
         0.02153   -0.00096   -0.00485    0.00354
F1    3    0.188503    0.911039    0.384171    11.00000    0.01665    0.03005 =
         0.02631   -0.00484   -0.01011    0.00752
N1    4    0.771535    0.468249    0.402099    11.00000    0.01542    0.02267 =
         0.02179    0.00108   -0.00191    0.00361
C1    1    0.302279    1.144578    0.491599    11.00000    0.01217    0.02250 =
         0.02148    0.00427   -0.00118    0.00280
AFIX  43
H1    2    0.166638    1.240449    0.484751    11.00000   -1.20000
AFIX   0
C2    1    0.345358    0.955064    0.442471    11.00000    0.01519    0.02407 =
         0.01767    0.00305   -0.00464    0.00084
C3    1    0.539157    0.804949    0.447972    11.00000    0.01365    0.02006 =
         0.01904    0.00368    0.00040    0.00000
C4    1    0.585225    0.604460    0.394927    11.00000    0.01401    0.02074 =
         0.01933    0.00359   -0.00207   -0.00116
C5    1    0.773643    0.294988    0.345391    11.00000    0.02045    0.02244 =
         0.02443    0.00172   -0.00107    0.00354
AFIX  43
H5    2    0.895694    0.180136    0.341909    11.00000   -1.20000
AFIX   0
C6    1    0.591580    0.296482    0.294416    11.00000    0.01963    0.02284 =
         0.02269   -0.00150   -0.00078    0.00090
AFIX  43
H6    2    0.571834    0.187973    0.252113    11.00000   -1.20000
AFIX   0
HKLF 4




REM  F2R_0m_a.res in P2(1)/n
REM R1 =  0.0315 for     964 Fo > 4sig(Fo)  and  0.0350 for all    1047 data
REM     82 parameters refined using      0 restraints

END

WGHT      0.0413      0.3488

REM Instructions for potential hydrogen bonds
EQIV $2 x+1, y-1, z
HTAB C5 F1_$2

REM Highest difference peak  0.362,  deepest hole -0.302,  1-sigma level  0.060
Q1    1   0.5672  0.7132  0.4202  11.00000  0.05    0.36
Q2    1   0.2836  1.0123  0.4775  11.00000  0.05    0.34
Q3    1   0.6347  0.8564  0.4620  11.00000  0.05    0.28
Q4    1   0.6874  0.5317  0.4030  11.00000  0.05    0.25
Q5    1   0.7039  0.3318  0.3069  11.00000  0.05    0.22
Q6    1   0.7753  0.3864  0.3759  11.00000  0.05    0.22
Q7    1   0.3978  0.6576  0.2778  11.00000  0.05    0.21
Q8    1   0.4683  0.8668  0.4413  11.00000  0.05    0.20
Q9    1   0.3782  0.3181  0.3033  11.00000  0.05    0.20
Q10   1   0.4253  0.3799  0.2862  11.00000  0.05    0.20
Q11   1   0.5111  0.5872  0.3603  11.00000  0.05    0.18
Q12   1   0.4119  0.3459  0.3593  11.00000  0.05    0.18
Q13   1   0.6433  0.2384  0.3336  11.00000  0.05    0.16
Q14   1   0.8574  0.4477  0.4324  11.00000  0.05    0.16
Q15   1   0.5257  0.4008  0.3044  11.00000  0.05    0.16
Q16   1   0.3044  0.4905  0.3675  11.00000  0.05    0.15
Q17   1   0.5689  0.2451  0.2825  11.00000  0.05    0.15
Q18   1   0.2840  0.8549  0.3560  11.00000  0.05    0.15
Q19   1   0.2794  0.9375  0.4237  11.00000  0.05    0.15
Q20   1   0.3311  1.5184  0.4658  11.00000  0.05    0.15
;
_shelx_res_checksum              29039
_shelx_hkl_file
;
  -1   0   0    0.20    0.50
  -2   0   0 1107.99   40.70
  -3   0   0    4.10    1.70
   5   0   0   -2.70    5.30
   6   0   0    2.90    5.00
   6  -1   0  435.26   18.90
   5  -1   0 1656.73   63.09
   4  -1   0  307.77   15.00
  -3   1   0   47.50   10.20
  -2   1   0  238.28   12.10
   1  -1   0 3255.97  117.99
  -1   1   0 3149.78  118.59
   0  -1   0   -0.50    0.70
   0  -1   0    1.10    2.40
   0   1   0    0.00    0.60
   0   1   0    0.60    2.20
  -1  -1   0 3206.08  114.89
  -1  -1   0 3007.70  113.19
  -2  -1   0  235.58   11.50
  -2  -1   0  246.38    9.70
  -3  -1   0   46.60    4.20
  -3  -1   0   50.39    6.40
   4   1   0  330.97   16.60
   5   1   0 1613.94   61.89
   6   1   0    1.40    5.50
   6  -2   0  168.88    9.40
   5  -2   0  233.18   12.10
   4  -2   0  589.54   24.10
   3  -2   0    3.30    3.20
   2  -2   0  183.28   10.70
   2  -2   0  183.28   10.40
  -2   2   0  176.48   14.10
   1  -2   0   32.50    7.30
   1  -2   0   40.70    2.10
  -1   2   0   41.20    7.50
   0  -2   0 2648.54   98.69
   0   2   0 2713.63   98.69
   0   2   0 2744.13  102.69
  -1  -2   0   36.00    2.80
  -1  -2   0   34.90    8.60
  -2  -2   0  208.98   11.10
  -2  -2   0  187.78   16.50
  -3  -2   0    5.30    4.70
   3   2   0    1.60    6.00
   4   2   0  619.54   26.50
   5   2   0  207.28   12.80
   6  -3   0   56.29    5.80
   5  -3   0  124.79    8.30
  -5   3   0  122.79    9.50
   4  -3   0  210.28   10.90
   4  -3   0  209.88    9.80
  -4   3   0  204.38   14.80
  -4   3   0  206.98   12.00
   3  -3   0    1.90    2.70
  -3   3   0   -0.20    6.10
  -3   3   0   -0.90    5.00
   2  -3   0   49.50   11.30
   2  -3   0   36.60    5.30
  -2   3   0   75.19   15.80
  -2   3   0   53.89    7.10
  -2   3   0   49.90    7.20
   1  -3   0  620.54   25.90
   1  -3   0  686.63   24.80
  -1   3   0  640.14   25.90
  -1   3   0  661.93   27.30
  -1   3   0  672.33   34.00
   0  -3   0    1.10    2.20
  -1  -3   0  672.43   25.90
   1   3   0  655.73   27.70
   2   3   0   55.19    9.00
   4   3   0  203.78   12.90
   5   3   0   -5.70    5.20
   5  -4   0    4.10    3.20
  -5   4   0   11.60    3.20
   4  -4   0  118.19    7.90
  -4   4   0  112.29    8.00
   3  -4   0   39.90    4.90
  -3   4   0   43.60    6.10
  -3   4   0   48.20    6.40
   2  -4   0   44.00    5.80
  -2   4   0   46.80    8.00
  -2   4   0   60.09    6.60
   1  -4   0  393.16   18.30
   1  -4   0  376.56   15.50
  -1   4   0  353.96   17.70
  -1   4   0  360.06   16.00
   0  -4   0  513.75   20.50
   0  -4   0  511.35   21.90
   0   4   0  517.65   21.10
   0   4   0  514.15   22.20
  -1  -4   0  374.66   15.70
   1   4   0  365.26   18.20
  -2  -4   0   54.59    6.20
  -3  -4   0   48.00    5.20
   3   4   0   49.99    7.00
  -4  -4   0  149.09    9.50
  -5   5   0  481.35   18.50
   4  -5   0   46.30    3.80
   4  -5   0   54.59    5.10
  -4   5   0   61.49    7.40
  -4   5   0   47.90    4.90
   3  -5   0    0.60    2.50
  -3   5   0    0.20    3.80
  -3   5   0    8.30    3.40
   2  -5   0  484.55   20.10
  -2   5   0  500.45   21.50
  -2   5   0  496.55   20.50
   1  -5   0    8.30    3.40
  -1   5   0   18.60    4.00
  -1   5   0   11.00    4.20
   0  -5   0    1.60    2.70
   0  -5   0   -2.90    3.70
   0   5   0   -8.50    4.30
  -1  -5   0   11.70    2.70
  -1  -5   0   13.30    6.60
   1   5   0    2.70    5.80
  -2  -5   0  516.05   20.80
  -3  -5   0    0.50    2.50
  -4  -5   0   45.80    5.50
   3  -6   0  225.98   10.20
   3  -6   0  241.88    9.60
  -3   6   0  240.58   10.50
   2  -6   0   25.30    4.00
  -2   6   0   29.00    4.80
   1  -6   0  280.17   12.70
   1  -6   0  301.37   12.80
  -1   6   0  289.87   13.50
   0  -6   0  126.09    8.10
  -1  -6   0  297.37   12.30
  -2  -6   0   16.40    2.70
  -3  -6   0  270.57   11.00
  -3  -6   1   68.69    4.20
  -3  -6   1   67.09    5.60
  -2  -6   1   29.50    3.60
  -1  -6   1   57.39    4.40
   0  -6   1    5.50    3.70
  -1   6  -1   18.80    3.60
   1  -6   1   23.40    3.80
   1  -6   1   28.50    4.70
  -2   6  -1  105.29    6.70
   2  -6   1   97.99    5.80
   3  -6   1  301.27   11.60
   3  -6   1  283.47   12.10
  -4  -5   1   75.19    6.30
  -3  -5   1    9.90    2.80
  -2  -5   1    4.70    2.60
  -1  -5   1   83.09   11.40
  -1  -5   1  101.69    6.20
   0   5  -1  150.58   10.30
   0  -5   1  173.78    8.50
   0  -5   1  149.79    9.60
  -1   5  -1 1225.98   46.60
  -1   5  -1 1236.68   47.90
   1  -5   1 1223.68   46.90
  -2   5  -1  752.42   30.20
  -2   5  -1  773.42   31.40
   2  -5   1  785.02   30.10
  -3   5  -1   18.60    3.70
  -3   5  -1   17.00    4.20
   3  -5   1   28.10    3.60
  -4   5  -1  140.89    8.60
  -4   5  -1  122.19    7.20
   4  -5   1  124.89    7.30
   4  -5   1  126.29    6.10
   5  -5   1   45.20    4.70
  -4  -4   1   44.00    5.10
  -3  -4   1  617.54   24.80
  -2  -4   1  421.66   17.80
   1   4  -1   75.59   10.50
  -1  -4   1  105.09    6.70
   0   4  -1  367.56   16.80
   0   4  -1  343.37   15.80
   0  -4   1  348.47   16.40
   0  -4   1  364.26   15.30
  -1   4  -1   13.50    3.80
  -1   4  -1   18.10    5.40
   1  -4   1   21.60    3.80
   1  -4   1   13.70    4.10
  -2   4  -1  113.39    9.40
  -2   4  -1  116.89    8.00
   2  -4   1  112.69    7.30
  -3   4  -1  822.72   34.00
  -3   4  -1  836.12   32.90
   3  -4   1  857.61   32.40
  -4   4  -1  137.69    9.30
   4  -4   1  151.48    8.70
  -5   4  -1   54.79    5.40
   5  -4   1   54.89    5.40
   5   3  -1    5.30    6.20
   4   3  -1  482.55   21.80
   3   3  -1   38.10    7.20
   2   3  -1 1027.50   40.60
  -1  -3   1    4.30    2.70
   0  -3   1  988.20   37.10
  -1   3  -1 1480.25   56.29
  -1   3  -1 1551.74   55.39
   1  -3   1 1393.66   55.29
  -2   3  -1 1031.60   39.80
  -2   3  -1 1053.59   41.10
   2  -3   1 1000.20   39.40
   2  -3   1 1073.49   45.20
  -3   3  -1   -3.90    6.70
   3  -3   1    4.90    2.60
  -4   3  -1  313.97   17.20
  -4   3  -1  304.27   15.10
   4  -3   1  315.67   13.10
   4  -3   1  311.07   14.30
  -5   3  -1  652.33   26.10
   5  -3   1  622.64   26.00
   6  -3   1   25.60    4.50
   5   2  -1    5.80    6.10
   4   2  -1   -5.80    6.00
   3   2  -1  881.31   36.20
  -3  -2   1  916.51   37.20
  -2  -2   1  133.19    8.80
  -2  -2   1  138.29   16.20
  -1  -2   1 2929.01  106.79
  -1  -2   1 2904.81  111.19
   0  -2   1  414.56   16.70
   0  -2   1  477.95   25.30
  -1   2  -1 1556.64   62.59
   1  -2   1 1653.43   57.69
   1  -2   1 1529.15   61.99
  -2   2  -1 1592.94   66.89
   2  -2   1 1689.43   63.09
   2  -2   1 1716.83   63.89
   3  -2   1 2269.77   83.49
   4  -2   1  418.56   18.10
   5  -2   1  421.76   18.50
   6  -2   1    8.90    3.70
   5   1  -1    0.90    5.80
  -3  -1   1  398.16   15.60
  -3  -1   1  358.56   18.70
  -2  -1   1 3917.31  142.99
  -1  -1   1   85.19    3.80
  -1  -1   1   80.19    6.00
   0  -1   1   11.50    1.10
   0  -1   1    6.50    2.50
  -1   1  -1  165.38    9.20
   1  -1   1  169.38    8.60
   1  -1   1  163.68    8.00
  -2   1  -1  818.12   33.10
   4  -1   1   64.19    7.80
   5  -1   1   40.50    6.00
   6  -1   1  691.83   27.80
   6   0  -1   -2.50    5.80
   5   0  -1 1770.92   67.29
   4   0  -1    8.00    6.30
  -2   0   1    0.30    0.90
   0   0  -1    0.00    0.50
   0   0   1   -0.20    0.50
  -2   0  -1   -0.10    0.80
  -3   0  -1  293.87   11.50
   4   0   1    4.60    4.90
   5   0   1   75.79    9.30
   6   0   1    4.80    4.70
   6  -1  -1    3.80    4.90
   5  -1  -1   59.19    8.20
   4  -1  -1    3.40    5.40
  -3   1   1  380.86   20.00
  -2   1   1 3869.41  143.39
   1  -1  -1   97.79    5.70
  -1   1   1   88.09    6.40
  -1   1   1   87.69    3.70
   0  -1  -1   12.80    2.80
   0  -1  -1    9.10    1.20
   0   1   1   11.10    2.90
   0   1   1    9.40    1.30
  -1  -1  -1  151.88    6.50
  -1  -1  -1  165.78    8.40
   1   1   1  166.68    6.50
  -2  -1  -1  824.72   32.90
  -2  -1  -1  860.51   31.40
  -3  -1  -1   89.09    9.30
  -3  -1  -1   79.49    5.20
   4   1   1   60.99    8.70
   5   1   1   38.50    6.60
   6   1   1  624.94   25.80
   6  -2  -1   -8.80    4.50
   5  -2  -1  221.68   11.70
   4  -2  -1    8.00    4.50
   3  -2  -1  878.01   33.40
   2  -2  -1  152.78    9.80
  -2   2   1  148.39   13.20
   1  -2  -1 2910.41  112.49
   1  -2  -1 3036.20  108.79
  -1   2   1 2964.60  108.79
  -1   2   1 3028.00  113.69
   0  -2  -1  404.16   15.20
   0  -2  -1  386.36   21.20
   0   2   1  394.96   19.10
   0   2   1  405.76   15.20
  -1  -2  -1 1534.55   61.59
  -1  -2  -1 1555.24   57.49
   1   2   1 1587.04   57.49
  -2  -2  -1 1622.34   65.29
  -3  -2  -1 2822.32   99.29
   3   2   1 2494.85   99.29
   4   2   1  460.65   21.00
   5   2   1  432.56   20.00
   6   2   1   -1.30    5.30
   6  -3  -1   85.19    8.30
   5  -3  -1  299.67   14.20
  -5   3   1  314.87   14.80
   4  -3  -1  497.35   20.10
   4  -3  -1  480.05   19.00
  -4   3   1  468.95   20.70
  -4   3   1  469.45   22.60
   3  -3  -1   39.20    5.10
  -3   3   1   41.80    7.60
  -3   3   1   27.40    5.60
   2  -3  -1  998.60   39.90
  -2   3   1 1028.80   40.20
  -2   3   1 1121.39   52.29
  -2   3   1 1068.89   41.40
   1  -3  -1   -3.20    4.00
   1  -3  -1    3.30    2.20
  -1   3   1   -2.30    8.90
  -1   3   1    4.40    5.20
  -1   3   1    2.30    3.70
   0  -3  -1 1088.29   38.60
   0   3   1  962.00   45.70
  -1  -3  -1 1568.14   56.89
   1   3   1 1472.95   57.89
   2   3   1 1032.40   40.80
   3   3   1   -0.20    6.20
   4   3   1  324.97   16.70
   5   3   1  613.44   25.80
   5  -4  -1   92.49    6.60
  -5   4   1   93.19    6.50
   4  -4  -1   51.49    6.00
  -4   4   1   50.59    6.30
   3  -4  -1  641.24   24.90
  -3   4   1  608.34   25.20
  -3   4   1  628.34   26.60
   2  -4  -1  389.86   17.10
  -2   4   1  402.06   17.10
  -2   4   1  410.56   18.60
   1  -4  -1  101.49    7.90
   1  -4  -1   79.79    7.60
  -1   4   1   92.89    8.70
  -1   4   1   87.59    7.00
   0  -4  -1  347.57   14.90
   0  -4  -1  323.07   15.90
   0   4   1  347.77   15.40
   0   4   1  351.26   16.40
  -1  -4  -1   11.00    3.10
   1   4   1   25.10    6.70
  -2  -4  -1  118.59    7.90
   2   4   1  128.39   10.30
  -3  -4  -1  806.12   32.40
   3   4   1  850.61   33.90
  -4  -4  -1  169.48   10.30
   4   4   1  183.18   17.70
  -5   5   1   93.39    5.50
   4  -5  -1   73.89    5.60
   4  -5  -1   63.79    4.30
  -4   5   1   78.69    7.50
  -4   5   1   69.39    5.50
   3  -5  -1   14.50    3.10
  -3   5   1   20.80    4.60
  -3   5   1   10.40    3.50
   2  -5  -1    8.10    3.10
  -2   5   1   11.30    4.20
  -2   5   1    5.40    3.40
   1  -5  -1  102.39    7.70
  -1   5   1   96.89    8.50
  -1   5   1  104.89    7.60
   0  -5  -1  153.88   10.20
   0  -5  -1  158.68    8.20
   0   5   1  159.98   10.60
  -1  -5  -1 1229.28   45.60
  -1  -5  -1 1183.48   47.10
  -2  -5  -1  772.92   30.00
  -3  -5  -1   18.60    3.20
  -4  -5  -1  128.99    7.00
   3  -6  -1   51.19    4.30
   3  -6  -1   61.49    3.90
  -3   6   1   67.59    5.10
   2  -6  -1   30.00    4.10
  -2   6   1   37.30    5.10
   1  -6  -1   56.99    5.40
  -1   6   1   69.29    6.70
   0  -6  -1    3.10    3.50
  -1  -6  -1   18.90    2.80
  -2  -6  -1  110.29    6.00
  -3  -6  -1  344.87   13.70
  -3  -6   2   33.60    4.20
  -3  -6   2   30.00    3.20
  -2  -6   2  152.58    7.10
  -1  -6   2  135.59    6.60
   0  -6   2   20.70    3.90
   1  -6   2  141.09    7.50
   1  -6   2  137.59    7.80
   2  -6   2  357.06   14.40
   3  -6   2   83.39    4.90
   3  -6   2   73.39    4.20
  -4  -5   2   -1.90    2.30
  -3  -5   2  518.75   20.70
  -2  -5   2   49.70    5.10
  -1  -5   2  128.49   12.90
  -1  -5   2  109.39    6.90
   0   5  -2  152.38   10.20
   0  -5   2  172.08    8.20
   0  -5   2  149.99    9.90
  -1   5  -2  934.01   35.80
  -1   5  -2  914.61   37.00
   1  -5   2  939.11   36.10
  -2   5  -2   13.00    4.40
  -2   5  -2    7.40    3.40
   2  -5   2   11.70    3.10
  -3   5  -2  387.66   16.70
  -3   5  -2  378.16   17.30
   3  -5   2  403.26   16.00
  -4   5  -2  573.54   22.20
   4  -5   2  523.05   21.10
   4  -5   2  588.84   22.40
   5  -5   2  176.98    8.20
  -4  -4   2  175.18   10.00
  -3  -4   2   78.69    7.10
  -2  -4   2  820.92   31.80
   1   4  -2 1089.39   43.00
  -1  -4   2 1103.29   41.50
   0   4  -2  639.94   27.80
   0   4  -2  638.54   25.50
   0  -4   2  632.84   25.90
  -1   4  -2  211.98   11.80
  -1   4  -2  196.88   10.50
   1  -4   2  206.38   10.00
   1  -4   2  203.58   10.50
  -2   4  -2 1139.29   44.70
  -2   4  -2 1143.69   43.70
   2  -4   2 1144.69   43.30
   2  -4   2 1126.39   43.50
  -3   4  -2  230.68   13.00
  -3   4  -2  225.18   12.00
   3  -4   2  245.28   10.90
  -4   4  -2   61.69    8.80
  -4   4  -2   67.99    8.60
   4  -4   2   57.79    6.20
  -5   4  -2   47.00    5.50
   5  -4   2   47.30    5.00
   4   3  -2   -4.40    6.70
   3   3  -2 1003.70   40.10
   2   3  -2    7.70    7.00
  -2  -3   2    5.10    5.20
  -1  -3   2   33.80    4.70
  -1  -3   2   30.70    4.00
   0  -3   2 2507.65   94.09
   0  -3   2 2607.44   93.99
  -1   3  -2  472.15   20.20
  -1   3  -2  455.15   19.00
   1  -3   2  432.76   18.60
  -2   3  -2  144.39   10.80
  -2   3  -2  113.89    9.30
   2  -3   2  131.09    7.20
   2  -3   2  124.49   17.10
   3  -3   2  295.67   12.70
  -4   3  -2  168.48   10.80
  -4   3  -2  172.68   13.00
   4  -3   2  171.98    9.60
   4  -3   2  154.28    8.10
  -5   3  -2  243.98   13.00
   5  -3   2  235.98   11.90
  -6   3  -2   44.60    5.90
   6  -3   2   44.50    4.70
   3   2  -2   48.80    8.90
  -2  -2   2  201.58   18.30
  -2  -2   2  211.18    9.30
  -1  -2   2  452.55   23.40
  -1  -2   2  499.75   18.40
   0  -2   2  101.09   10.30
   0  -2   2  106.19    4.60
   1  -2   2  357.66   13.40
   2  -2   2 3631.54  134.79
   2  -2   2 3592.04  133.79
   3  -2   2 1240.38   46.20
   4  -2   2  132.29    8.70
   5  -2   2   40.20    6.50
   6  -2   2  370.36   16.00
   5   1  -2   12.60    7.00
   4   1  -2   14.20    7.80
  -3  -1   2 4339.87  158.88
  -2  -1   2 2438.66   89.39
   0  -1   2  234.48   11.60
   1  -1   2   10.90    2.40
   1  -1   2   12.20    3.30
   3  -1   2  645.94   25.80
   4  -1   2  356.96   16.70
   5  -1   2  138.09    9.70
   6  -1   2   -3.10    3.90
   5   0  -2   -8.20    6.30
   4   0  -2  754.42   31.20
  -3   0   2    3.50    2.00
  -2   0   2  399.66   16.00
  -1   0   2    0.40    1.60
   0   0  -2   72.69    3.90
  -1   0  -2    2.20    2.00
  -1   0  -2   -0.40    0.80
   1   0   2    5.10    1.50
   1   0   2   -0.20    0.80
   1   0   2    0.10    1.60
  -2   0  -2 2014.60   73.79
  -2   0  -2 1967.60   72.69
  -3   0  -2   -1.00    1.50
  -3   0  -2   -1.30    4.90
   4   0   2  335.37   16.20
   5   0   2   10.90    4.70
   6   0   2 1352.56   51.89
   5  -1  -2   15.30    5.50
   4  -1  -2    4.70    6.00
  -3   1   2 4282.37  160.98
  -3   1   2 4210.38  156.78
  -3   1   2 4423.16  156.78
  -2   1   2 2459.35   87.79
  -2   1   2 2353.86   90.39
   0  -1  -2  252.37   11.50
   0  -1  -2  237.68    9.30
   0   1   2  238.68    9.40
   0   1   2  247.58   11.60
  -1  -1  -2    9.20    2.70
  -1  -1  -2   10.60    1.40
   1   1   2    9.40    1.40
   1   1   2   10.80    2.70
  -2  -1  -2  109.09    5.30
  -2  -1  -2  129.09    7.80
  -3  -1  -2  723.33   28.70
  -3  -1  -2  679.73   26.20
   3   1   2  648.14   29.60
   4   1   2  385.56   18.10
   5   1   2  136.19   10.50
   6   1   2    2.60    4.50
   5  -2  -2    5.60    4.60
   4  -2  -2  880.41   34.50
   3  -2  -2   39.20    4.50
  -3   2   2   34.60   12.90
   2  -2  -2  228.18   12.70
  -2   2   2  226.48    8.80
  -2   2   2  221.28   15.60
   1  -2  -2  575.24   20.20
   1  -2  -2  563.14   26.20
  -1   2   2  505.45   25.00
  -1   2   2  514.55   20.20
   0  -2  -2  105.59    9.10
   0  -2  -2  113.09    4.90
   0   2   2  107.09    4.90
   0   2   2  103.79    9.20
  -1  -2  -2  352.86   18.40
  -1  -2  -2  346.67   13.80
   1   2   2  358.66   17.60
   1   2   2  348.57   13.80
  -2  -2  -2 3443.76  129.49
  -2  -2  -2 3347.67  124.59
   3   2   2 1338.07   51.99
   4   2   2  149.49   11.30
   5   2   2   48.90    8.20
   6   2   2  335.07   15.30
   5  -3  -2  221.08   11.40
  -5   3   2  218.68   11.80
   4  -3  -2  248.78   11.90
   4  -3  -2  255.57   10.80
  -4   3   2  229.18   15.60
  -4   3   2  234.58   12.60
   3  -3  -2 1076.29   41.80
  -3   3   2 1135.79   45.50
   2  -3  -2   -0.50    3.00
  -2   3   2  -15.80   13.00
  -2   3   2   -0.40    3.50
  -2   3   2    5.90    5.30
   1  -3  -2   36.80    4.90
   1  -3  -2   27.20    4.10
  -1   3   2   35.40    6.50
  -1   3   2   25.30    4.10
  -1   3   2   24.40    9.30
  -1   3   2   27.60    3.90
   0   3   2 2719.43  107.49
   0   3   2 2719.83   99.99
  -1  -3  -2  470.25   18.90
   1   3   2  460.45   20.90
   2   3   2  135.69   10.80
   3   3   2  316.87   16.70
   4   3   2  174.38   12.30
   5   3   2  234.38   13.30
   5  -4  -2   83.49    6.40
  -5   4   2   66.09    6.00
   4  -4  -2  165.98   11.30
  -4   4   2  148.89   10.10
  -4   4   2  184.08   12.70
   3  -4  -2   86.69    6.50
  -3   4   2   88.49    9.10
  -3   4   2   84.49    6.80
   2  -4  -2  765.02   30.70
  -2   4   2  781.92   30.70
  -2   4   2  803.42   32.00
   1  -4  -2 1112.49   42.20
   1  -4  -2 1109.49   43.10
  -1   4   2 1115.99   43.80
  -1   4   2 1142.19   42.80
   0  -4  -2  608.74   24.80
   0   4   2  622.64   24.00
   0   4   2  550.64   26.60
  -1  -4  -2  192.58    9.80
   1   4   2  198.68   13.10
   2   4   2 1160.98   45.80
   3   4   2  233.28   13.70
  -4  -4  -2   73.69    7.80
  -5   5   2  100.19    5.60
   4  -5  -2    4.20    3.00
   4  -5  -2   -0.10    2.20
  -4   5   2    0.50    2.80
  -4   5   2    1.20    3.40
   3  -5  -2  532.05   20.40
  -3   5   2  515.55   20.90
  -3   5   2  477.45   21.50
   2  -5  -2   53.89    5.60
  -2   5   2   53.49    7.20
  -2   5   2   37.90    6.10
   1  -5  -2   97.89    7.60
  -1   5   2  102.09    8.60
  -1   5   2  104.99    7.80
   0  -5  -2  157.48    8.10
   0  -5  -2  151.08   10.10
   0   5   2  138.39   10.30
  -1  -5  -2  951.00   35.60
  -1  -5  -2  904.41   37.30
  -2  -5  -2    6.50    2.80
  -3  -5  -2  371.76   15.60
  -4  -5  -2  600.34   23.20
   3  -6  -2   24.40    3.60
   3  -6  -2   24.10    3.20
  -3   6   2   32.00    4.60
   2  -6  -2  136.19    7.10
  -2   6   2  151.88    8.40
   1  -6  -2  156.18    8.30
  -1   6   2  153.78    9.10
   0  -6  -2   28.10    4.50
  -1  -6  -2  135.09    7.00
  -2  -6  -2  379.36   15.20
  -3  -6  -2   89.39    5.00
  -3  -6   3   41.10    4.30
  -3  -6   3   46.00    3.50
  -2  -6   3  326.17   13.50
  -2  -6   3  358.96   14.20
  -1  -6   3  206.88    8.90
   0  -6   3  317.67   13.40
   0  -6   3  310.37   13.70
   1  -6   3    6.40    3.40
   1  -6   3    3.40    2.60
   2  -6   3  231.98    9.90
   3  -6   3    2.20    2.60
   3  -6   3    2.50    1.80
  -4  -5   3  318.47   13.00
  -3  -5   3   65.59    5.40
  -2  -5   3    4.30    2.60
  -1  -5   3   11.10    7.10
  -1  -5   3   12.80    3.00
   0   5  -3 1189.18   49.00
   0  -5   3 1294.27   47.70
   0  -5   3 1340.27   48.80
  -1   5  -3   56.29    7.20
   1  -5   3   52.29    5.80
  -2   5  -3    3.70    4.00
  -2   5  -3    1.60    3.00
   2  -5   3    1.20    2.70
  -3   5  -3  327.87   14.70
  -3   5  -3  335.47   15.40
   3  -5   3  341.37   13.90
  -4   5  -3    3.00    2.50
   4  -5   3    3.40    2.20
   4  -5   3    7.00    3.00
   5  -5   3    2.70    2.60
  -5  -4   3   82.19    7.50
  -4  -4   3    0.70    3.60
  -3  -4   3  420.16   17.70
  -2  -4   3 1328.27   50.09
  -1  -4   3 1259.47   47.40
   0   4  -3  443.66   18.30
   0   4  -3  380.26   22.50
   0  -4   3  420.56   18.40
   0  -4   3  460.65   17.60
  -1   4  -3   98.39    7.30
  -1   4  -3   89.79    8.90
   1  -4   3   84.19    6.90
   1  -4   3   92.09    7.00
  -2   4  -3    6.50    3.70
  -2   4  -3   -1.50    4.40
   2  -4   3   11.80    3.20
   2  -4   3    7.60    5.20
  -3   4  -3   38.80    6.20
  -3   4  -3   35.40    4.80
   3  -4   3   29.50    4.80
  -4   4  -3   69.19    8.30
  -4   4  -3   69.89    9.60
   4  -4   3   62.49    7.30
   4  -4   3   64.19    4.90
  -5   4  -3  190.48    9.80
   5  -4   3  207.68    9.80
   3   3  -3    3.40    7.70
   2   3  -3  784.72   33.00
  -2  -3   3  791.02   30.90
  -1  -3   3    3.00    3.40
  -1  -3   3    7.80    3.10
   0   3  -3  113.39   10.00
   0  -3   3  121.09    6.40
   0  -3   3  125.19    7.50
  -1   3  -3  240.58   11.80
  -1   3  -3  248.88   13.20
   1  -3   3  230.78   11.20
   1  -3   3  245.58   17.80
  -2   3  -3   14.40    4.10
  -2   3  -3   16.80    5.50
   2  -3   3    0.40    6.40
   2  -3   3   10.30   10.70
   2  -3   3   12.20    4.10
  -3   3  -3    6.50    6.80
  -3   3  -3    6.10    4.70
   3  -3   3   13.50    3.10
  -4   3  -3 1046.80   41.50
  -4   3  -3 1018.30   40.30
   4  -3   3 1015.30   38.80
   4  -3   3 1070.99   40.40
  -5   3  -3    8.20    4.60
   5  -3   3    6.10    3.40
   6  -3   3   49.99    4.80
  -2  -2   3  892.91   34.00
  -2  -2   3  899.71   42.20
  -1  -2   3 1618.84   65.09
   0  -2   3  924.41   34.10
   0  -2   3  919.71   39.60
   1  -2   3  641.44   23.30
   1  -2   3  634.14   26.80
   1  -2   3  613.94   29.60
   2  -2   3   75.39    8.00
   3  -2   3   34.90    3.90
   4  -2   3  160.28    9.70
   5  -2   3  913.01   36.00
   6  -2   3   -3.70    2.70
  -3  -1   3   93.99    6.20
  -3  -1   3   99.69    9.40
   1  -1   3  659.13   25.90
   1  -1   3  670.83   24.20
   1  -1   3  651.73   27.20
   3  -1   3  202.58   10.60
   4  -1   3 1962.30   73.89
   5  -1   3  281.37   14.20
   6  -1   3   82.79    7.20
  -3   0   3  930.01   36.00
  -3   0   3  887.41   34.30
  -2   0   3    1.10    2.50
  -1   0   3 1248.48   47.00
   0   0  -3    0.70    1.80
   0   0   3    0.30    1.90
  -1   0  -3 1379.86   49.70
  -1   0  -3 1353.36   51.29
   1   0   3 1435.76   50.89
   1   0   3 1276.97   49.70
  -2   0  -3    0.50    0.90
  -2   0  -3    3.70    2.60
   2   0   3    0.90    1.00
  -3   0  -3   49.90   10.90
  -3   0  -3   61.89    3.50
   3   0   3   73.99   10.50
   4   0   3   -1.90    4.30
   5   0   3 7016.70  257.77
   6   0   3   -2.50    4.00
   5  -1  -3    6.50    6.20
  -3   1   3   87.79    5.20
  -3   1   3  101.19   11.80
  -2   1   3  707.23   28.00
  -2   1   3  631.34   24.90
  -1  -1  -3  628.84   24.20
  -1  -1  -3  673.53   26.30
   1   1   3  673.43   26.20
   1   1   3  626.34   24.30
  -2  -1  -3    4.50    3.60
  -2  -1  -3    1.80    1.50
   2   1   3    3.20    1.60
  -3  -1  -3  193.98   14.80
   3   1   3  175.18   12.60
   5   1   3  269.77   14.40
   6   1   3   80.79    7.60
   5  -2  -3    0.00    5.00
   4  -2  -3    7.50    5.30
   3  -2  -3   56.49    6.70
  -3   2   3   84.19   16.10
   2  -2  -3  812.32   36.60
  -2   2   3  939.21   40.20
  -2   2   3  966.70   33.70
   1  -2  -3 1956.50   72.99
  -1   2   3 1852.51   73.89
  -1   2   3 1845.62   69.09
   0  -2  -3  944.51   40.40
   0  -2  -3 1049.99   36.60
   0   2   3  955.10   40.80
  -1  -2  -3  633.64   23.70
  -1  -2  -3  617.74   28.20
   1   2   3  611.64   23.80
   1   2   3  630.84   27.60
  -2  -2  -3   74.49    5.00
  -2  -2  -3   76.29   12.10
   2   2   3   75.29    5.40
   3   2   3   39.50    7.50
   4   2   3  158.18   11.40
   5   2   3  906.11   36.80
   6   2   3    1.10    4.30
   4  -3  -3  231.08   10.20
   4  -3  -3  229.28   11.50
  -4   3   3  227.78   15.30
  -4   3   3  223.38   11.80
   3  -3  -3   13.50    3.30
  -2   3   3  809.32   32.60
  -2   3   3  886.31   45.90
  -2   3   3  844.32   33.90
   1  -3  -3    6.50    2.70
   1  -3  -3    0.90    4.10
  -1   3   3    0.30    9.40
  -1   3   3    6.00    5.10
  -1   3   3    5.60    3.20
  -1   3   3    1.40    3.00
   0  -3  -3  122.89    6.60
   0   3   3  126.19   15.80
   0   3   3  129.99    8.50
   0   3   3  123.29    7.00
   0   3   3  108.09   10.40
  -1  -3  -3  260.27   11.60
   1   3   3  244.88   13.90
   1   3   3  237.88   19.90
   3   3   3   17.00    5.80
   4   3   3 1009.20   40.90
   5   3   3   16.10    5.50
   6   3   3   53.39    7.20
   5  -4  -3   92.99    7.50
  -5   4   3   99.39    6.30
   4  -4  -3   10.70    2.90
   4  -4  -3   11.60    4.70
  -4   4   3   18.20    5.30
   3  -4  -3  418.16   17.20
  -3   4   3  400.26   18.80
  -3   4   3  407.96   17.60
   2  -4  -3 1304.77   49.30
  -2   4   3 1283.47   50.29
  -2   4   3 1296.27   49.20
   1  -4  -3 1180.08   44.50
   1  -4  -3 1170.08   45.60
  -1   4   3 1194.08   46.20
  -1   4   3 1204.48   45.10
   0  -4  -3  430.06   17.60
   0  -4  -3  410.56   19.10
   0   4   3  438.26   18.10
   1   4   3   95.49   11.00
   2   4   3   12.20    5.20
   3   4   3   32.20    6.30
  -4  -4  -3   68.29    7.00
   5   4   3  192.08   10.50
  -5   5   3  114.09    5.90
   4  -5  -3  277.47   11.80
   4  -5  -3  296.97   12.70
  -4   5   3  293.87   13.30
  -4   5   3  301.97   12.70
   3  -5  -3   60.89    5.20
  -3   5   3   73.39    6.60
  -3   5   3   75.09    7.20
   2  -5  -3   -2.30    2.70
  -2   5   3   -1.00    3.30
  -2   5   3    2.30    4.00
   1  -5  -3   11.30    3.60
  -1   5   3   14.10    4.60
  -1   5   3   10.20    4.00
   0  -5  -3 1245.98   48.20
   0  -5  -3 1258.17   46.80
   0   5   3 1240.98   48.50
  -1  -5  -3   70.89    8.20
  -1  -5  -3   52.19    5.30
  -2  -5  -3    2.50    2.60
  -3  -5  -3  318.47   13.70
  -4  -5  -3    4.40    2.20
   3  -6  -3   38.30    5.20
   3  -6  -3   35.40    3.90
  -3   6   3   45.60    4.90
   2  -6  -3  347.97   14.30
  -2   6   3  348.37   15.20
   1  -6  -3  219.08   10.40
  -1   6   3  220.38   11.40
  -1  -6  -3    0.60    2.50
  -2  -6  -3  234.38   10.10
  -3  -6  -3    0.30    3.30
  -3  -6   4    2.10    2.50
  -3  -6   4   -0.90    1.70
  -2  -6   4  161.68    7.80
  -2  -6   4  163.58    7.20
  -1  -6   4   12.80    2.90
  -1  -6   4   14.20    2.30
   0  -6   4  103.49    6.70
   0  -6   4   95.69    6.10
   1  -6   4  897.31   32.30
   1  -6   4  796.02   32.10
   2  -6   4   41.50    3.70
   3  -6   4   72.69    3.90
   3  -6   4   71.69    4.60
  -4  -5   4  184.08    8.30
  -3  -5   4  329.87   13.90
  -2  -5   4  154.58    8.20
  -1  -5   4   25.80    4.30
  -1  -5   4   27.40    9.00
   0  -5   4  170.28    8.30
   0  -5   4  173.58   10.10
  -1   5  -4   88.69    8.00
   1  -5   4   92.69    7.00
   1  -5   4   84.69    6.70
  -2   5  -4   10.80    3.80
  -2   5  -4    2.40    3.10
   2  -5   4    5.90    2.90
  -3   5  -4   13.20    3.50
  -3   5  -4    8.20    3.10
   3  -5   4   14.10    2.70
   4  -5   4   35.90    4.50
  -5  -4   4  392.16   16.00
  -4  -4   4  392.06   16.60
  -3  -4   4  197.88   10.20
  -2  -4   4   34.10    4.10
  -1  -4   4  280.47   12.50
   0   4  -4   -2.90    4.40
   0  -4   4    2.30    2.60
  -1   4  -4   78.79    7.30
  -1   4  -4   76.89    8.20
   1  -4   4   79.49    7.10
   1  -4   4   77.79    6.60
  -2   4  -4  546.95   22.50
  -2   4  -4  546.65   23.40
   2  -4   4  536.55   21.80
  -3   4  -4   33.40    5.60
  -3   4  -4   12.30    3.70
   3  -4   4   21.80    3.20
  -4   4  -4   27.60    4.40
   4  -4   4   35.70    5.70
   4  -4   4   30.00    4.20
  -5   4  -4  282.57   12.80
   5  -4   4  304.97   12.90
  -2  -3   4  330.97   14.90
  -1  -3   4 1179.58   44.50
  -1  -3   4 1167.68   44.10
   0   3  -4  427.66   19.50
   0   3  -4  449.95   18.90
   0  -3   4  434.66   17.70
   0  -3   4  448.76   17.70
  -1   3  -4 2014.70   74.59
  -1   3  -4 2012.60   73.89
   1  -3   4 1928.31   78.79
   1  -3   4 2064.99   73.19
   1  -3   4 1901.51   73.49
  -2   3  -4   28.90    5.70
  -2   3  -4   19.80    7.60
   2  -3   4   29.60    6.60
   2  -3   4   27.00   11.60
   2  -3   4   29.40    3.50
  -3   3  -4  583.24   24.50
  -3   3  -4  582.44   25.50
   3  -3   4  617.54   23.30
  -4   3  -4   64.99   10.10
   4  -3   4   66.69    6.90
   4  -3   4   67.39    5.30
  -5   3  -4  278.87   14.00
   5  -3   4  282.17   13.20
   6  -3   4  401.06   16.40
  -2  -2   4  524.45   20.80
  -1  -2   4 1600.94   66.59
  -1  -2   4 1652.03   60.09
   0  -2   4 1682.83   60.89
   0  -2   4 1668.83   63.99
   0  -2   4 1619.94   66.99
   1  -2   4  603.14   25.50
   1  -2   4  595.74   21.80
   1  -2   4  562.54   29.60
   2  -2   4 1264.97   45.70
   2  -2   4 1076.39   49.30
   2  -2   4 1241.58   47.50
  -3   2  -4    8.30    7.90
   3  -2   4    3.30    2.80
   3  -2   4    3.90    3.00
   5  -2   4    3.60    3.40
   6  -2   4  199.08    9.90
  -3  -1   4  183.98   12.80
  -3  -1   4  180.68    9.20
  -2  -1   4  176.48    9.90
  -1  -1   4 9164.88  334.97
   0  -1   4 2808.32  104.09
   1  -1   4 1322.97   48.20
   1  -1   4 1321.47   50.29
   1  -1   4 1317.57   51.89
   3  -1   4 2655.73   98.19
   4  -1   4    0.30    3.80
   5  -1   4   27.70    4.70
   6  -1   4    4.10    3.50
  -3   0   4   -0.80    5.00
  -2   0   4   43.60    5.90
   1   0  -4    0.00    2.40
  -1   0   4    1.40    2.40
   0   0  -4 3772.42  134.39
   0   0   4 3692.73  134.49
   0   0   4 3458.35  132.49
  -1   0  -4    0.30    2.30
  -1   0  -4    0.50    0.80
   1   0   4   -0.10    2.00
   1   0   4   -0.50    0.90
  -2   0  -4 4997.30  190.08
  -2   0  -4 5579.64  192.78
   2   0   4 5099.09  190.18
  -3   0  -4   -1.40    1.70
  -3   0  -4    2.50    9.10
   3   0   4    0.90    4.60
   4   0   4  679.13   30.40
   5   0   4    6.80    5.00
   6   0   4   46.00    6.40
  -3   1   4  156.48    7.90
  -3   1   4  165.08   14.90
  -2   1   4  178.28   11.00
  -2   1   4  159.08    7.20
   1  -1  -4 9999.00  355.86
  -1   1   4 9460.15  356.56
   0  -1  -4 2957.30  105.69
   0   1   4 2822.92  105.79
   0   1   4 2914.11  108.39
  -1  -1  -4 1324.77   49.80
  -1  -1  -4 1412.46   52.29
   1   1   4 1364.76   49.99
   1   1   4 1318.47   52.09
  -2  -1  -4 1097.29   40.80
   2   1   4 1099.39   40.90
  -3  -1  -4 2900.31  105.99
   3   1   4 2861.11  107.29
   4   1   4    2.60    4.50
   5   1   4   35.70    6.30
   6   1   4   -1.10    3.80
   4  -2  -4  257.47   14.10
   3  -2  -4  103.19    7.60
  -3   2   4  115.89   24.30
   1  -2  -4 1787.32   66.09
  -1   2   4 1657.63   61.79
  -1   2   4 1587.64   66.69
   0  -2  -4 1743.73   69.69
   0  -2  -4 1845.82   65.59
   0   2   4 1730.03   70.09
   0   2   4 1810.12   65.69
  -1  -2  -4  577.54   22.30
  -1  -2  -4  582.04   27.60
   1   2   4  591.94   26.90
   1   2   4  579.64   22.50
  -2  -2  -4 1223.58   44.40
   2   2   4 1100.09   46.00
   2   2   4 1213.68   44.60
   3   2   4   10.80    6.10
   4   2   4  749.82   31.50
   5   2   4    1.80    4.70
   6   2   4  178.28   10.00
  -6   3   4  116.89    9.40
   5  -3  -4   -0.10    5.10
  -5   3   4    4.20    4.20
   4  -3  -4   14.10    3.20
   4  -3  -4   13.30    4.50
  -4   3   4   12.10    4.00
  -4   3   4   16.00    6.90
   3  -3  -4 1050.39   39.30
  -3   3   4 1018.30   39.60
  -3   3   4 1004.40   40.70
   2  -3  -4  335.97   14.80
  -2   3   4  341.87   31.80
   1  -3  -4 1176.38   44.90
   1  -3  -4 1168.28   45.70
  -1   3   4 1244.38   45.20
  -1   3   4 1170.68   46.20
  -1   3   4 1213.18   45.20
  -1   3   4 1197.78   54.99
   0  -3  -4  492.45   23.80
   0  -3  -4  448.36   17.70
   0   3   4  411.96   19.70
   0   3   4  419.06   18.10
   0   3   4  426.86   26.80
   0   3   4  438.76   18.30
  -1  -3  -4 2048.30   74.59
   1   3   4 1934.61   75.29
   1   3   4 2060.79   82.39
   1   3   4 1957.10   75.49
   2   3   4   32.00    6.60
   3   3   4  559.54   25.00
   4   3   4   56.59    9.00
   5   3   4  268.07   14.20
   6   3   4  352.36   15.00
  -5   4   4  324.47   13.70
   4  -4  -4  380.66   16.00
   4  -4  -4  349.96   14.80
  -4   4   4  356.96   15.80
  -4   4   4  367.56   17.20
   3  -4  -4  196.98   10.00
  -3   4   4  203.98   11.90
  -3   4   4  187.18   10.40
   2  -4  -4   34.80    5.90
  -2   4   4   40.70    4.80
  -2   4   4   34.90    6.10
   1  -4  -4  278.57   13.40
  -1   4   4  281.77   14.40
  -1   4   4  277.27   12.90
   0  -4  -4    5.90    3.00
   0   4   4   -7.80    3.90
   0   4   4   10.50    5.00
  -1  -4  -4   94.29   15.60
   1   4   4   81.19   11.30
   2   4   4  514.55   23.30
   3   4   4   16.80    5.00
   4   4   4   24.00    5.60
  -5  -4  -4  247.18   11.90
   5   4   4  287.97   12.90
  -5   5   4  123.49    7.60
   4  -5  -4  170.68    9.20
  -4   5   4  176.88    8.60
  -4   5   4  172.78    9.50
   3  -5  -4  310.97   13.20
  -3   5   4  296.57   14.60
  -3   5   4  318.77   14.00
   2  -5  -4  151.38    8.50
  -2   5   4  151.58    8.90
  -2   5   4  135.79   10.00
   1  -5  -4   34.30    4.80
  -1   5   4   30.50    4.50
  -1   5   4   24.50    5.20
   0  -5  -4  168.28   10.60
   0  -5  -4  161.58    8.50
   0   5   4  171.38   11.00
  -1  -5  -4   75.89    5.90
  -1  -5  -4   93.99   11.60
  -2  -5  -4    5.20    3.00
  -3  -5  -4    7.30    2.90
  -4  -5  -4   41.60    4.30
   3  -6  -4    3.80    2.60
   3  -6  -4    1.10    1.90
  -3   6   4    0.10    5.20
   2  -6  -4  164.18    8.00
  -2   6   4  166.68    9.20
   1  -6  -4   22.20    3.60
  -1   6   4   17.50    4.30
  -1  -6  -4  826.02   31.00
  -2  -6  -4   30.70    3.80
  -3  -6  -4   75.29    4.60
  -3  -6   5  135.69    5.60
  -3  -6   5  115.09    6.40
  -2  -6   5  400.66   15.20
  -2  -6   5  390.26   15.80
  -1  -6   5   83.79    5.30
  -1  -6   5   73.19    4.60
   0  -6   5  167.08    8.50
   0  -6   5  167.98    8.10
   1  -6   5  174.68    7.70
   1  -6   5  133.59    8.30
   2  -6   5   27.00    3.20
   2  -6   5   27.10    3.60
   3  -6   5   41.70    3.70
   3  -6   5   32.30    2.80
  -4  -5   5  310.07   12.50
  -3  -5   5  454.05   18.70
  -3  -5   5  457.55   18.20
  -2  -5   5   81.89    5.90
  -1  -5   5   52.09    5.00
  -1  -5   5   57.59    8.30
   0  -5   5  322.97   14.60
   0  -5   5  304.07   12.90
   1  -5   5   -1.40    3.10
   1  -5   5    0.80    3.10
  -2   5  -5  552.64   23.70
   2  -5   5  584.14   22.60
   3  -5   5   66.39    5.50
   3  -5   5   65.89    4.60
   4  -5   5  197.68    9.30
  -5  -4   5  798.22   30.20
  -4  -4   5   37.20    6.00
  -3  -4   5  151.28    8.80
  -2  -4   5   10.80    3.30
  -1  -4   5  324.37   14.00
   0   4  -5   94.89    8.90
   0  -4   5  112.59    6.70
   0  -4   5  114.79    8.50
  -1   4  -5  505.55   22.00
  -1   4  -5  526.75   21.20
   1  -4   5  489.15   20.70
   1  -4   5  511.25   20.70
  -2   4  -5  188.28   10.50
  -2   4  -5  186.78   11.40
   2  -4   5  190.68    9.60
  -3   4  -5  351.96   16.40
  -3   4  -5  338.47   15.70
   3  -4   5  339.37   14.30
  -4   4  -5  370.16   15.90
   4  -4   5  330.97   14.40
   4  -4   5  387.16   16.10
   5  -4   5  538.95   21.50
  -3  -3   5 1343.57   50.79
  -2  -3   5   76.39   15.40
  -1  -3   5  228.68   10.60
  -1  -3   5  217.88   11.70
  -1  -3   5  246.08   19.50
   0   3  -5  467.55   20.00
   0  -3   5  435.76   25.30
   0  -3   5  453.25   18.30
   0  -3   5  437.96   19.20
   0  -3   5  478.35   18.30
  -1   3  -5  607.24   24.50
  -1   3  -5  593.54   23.70
   1  -3   5  562.64   23.00
   1  -3   5  564.74   30.20
   1  -3   5  600.34   22.80
  -2   3  -5 1202.48   44.90
  -2   3  -5 1175.48   44.20
   2  -3   5 1173.48   43.40
   2  -3   5 1070.59   52.19
   2  -3   5 1146.59   44.40
  -3   3  -5  117.49   10.50
  -3   3  -5  119.89    9.20
   3  -3   5  124.89    6.80
  -4   3  -5   14.50    4.50
   4  -3   5   19.60    4.20
   4  -3   5   12.90    2.80
  -5   3  -5  204.48   11.40
   5  -3   5  212.08   10.70
  -2  -2   5 1983.40   74.59
  -2  -2   5 2032.70   78.39
  -1  -2   5   15.90   12.50
  -1  -2   5   20.00    5.80
   0  -2   5   32.10    7.20
   0  -2   5   32.60   10.30
   1  -2   5 1797.82   75.29
   1  -2   5 1843.12   67.09
   1  -2   5 1858.91   70.79
   2  -2   5    5.60    3.20
   2  -2   5   -1.40    6.00
  -3   2  -5  184.08   15.20
  -3   2  -5  202.28   14.20
   3  -2   5  227.78   10.30
   3  -2   5  193.08    9.20
   5  -2   5   23.80    4.90
   6  -2   5    0.10    2.80
  -3  -1   5  648.14   25.10
  -3  -1   5  597.74   28.70
  -2  -1   5  477.75   21.00
  -1  -1   5  423.36   18.30
   0  -1   5 1050.39   40.80
   1  -1   5   30.00    6.00
   1  -1   5   28.30    2.00
   1  -1   5   25.60    5.10
   2  -1   5 3819.12  140.19
   2  -1   5 3786.92  140.99
   3  -1   5 1292.07   49.00
   3  -1   5 1299.47   48.30
   4  -1   5 1388.56   53.09
   5  -1   5  141.79    9.50
   6  -1   5  150.18    8.60
  -3   0   5 4990.90  185.98
  -2   0   5    0.40    3.40
   1   0  -5 3029.60  118.69
  -1   0   5 3379.76  119.39
   0   0   5   -0.20    2.40
   0   0   5   -0.70    1.10
  -1   0  -5 3236.38  116.09
   1   0   5 3078.99  115.69
   1   0   5 3021.40  113.49
  -2   0  -5   -0.10    1.10
  -2   0  -5   -0.90    4.70
   2   0   5   -1.10    1.40
  -3   0  -5   74.59   16.80
   3   0   5   59.09    7.20
   4   0   5    0.60    4.20
   5   0   5   46.00    6.40
   6   0   5    1.80    3.60
   3  -1  -5  636.64   25.70
  -3   1   5  621.44   31.10
  -3   1   5  597.54   24.30
  -2   1   5  485.85   23.00
  -2   1   5  476.05   18.60
   1  -1  -5  439.36   19.70
  -1   1   5  419.86   17.00
  -1   1   5  469.15   20.80
   0  -1  -5 1152.48   43.40
   0  -1  -5 1208.78   46.20
   0   1   5 1163.48   43.60
   0   1   5 1191.98   46.80
  -1  -1  -5   27.20    2.30
  -1  -1  -5   37.00    6.50
   1   1   5   32.30    5.60
  -2  -1  -5 3765.02  139.79
  -2  -1  -5 3923.91  143.29
   2   1   5 3786.02  139.89
  -3  -1  -5 1368.16   51.89
   3   1   5 1409.16   53.29
   4   1   5 1353.86   52.59
   5   1   5  131.39    9.90
   6   1   5  145.69    9.00
   3  -2  -5  118.89   11.60
  -3   2   5  168.28   27.00
  -3   2   5  142.99   13.30
   2  -2  -5 1795.62   71.09
  -2   2   5 1901.51   77.89
  -2   2   5 2040.40   70.79
   1  -2  -5   11.80    7.40
  -1   2   5   11.50    2.30
  -1   2   5    8.50    5.70
   0  -2  -5   29.10    7.50
   0  -2  -5   33.90    2.90
   0   2   5   30.40    3.30
   0   2   5   20.80    5.70
   1   2   5 1786.22   67.19
   1   2   5 1835.82   71.79
  -2  -2  -5    7.00    2.60
   2   2   5    2.30    5.70
   3   2   5  211.58   13.10
   4   2   5  616.34   26.90
   5   2   5   15.20    4.90
   6   2   5    3.80    3.80
  -5   3   5   44.90    5.20
   4  -3  -5 1046.30   39.50
  -4   3   5 1051.59   41.90
   3  -3  -5 1445.86   52.39
  -3   3   5 1328.07   53.49
  -3   3   5 1382.46   52.59
   2  -3  -5   87.99    7.20
  -2   3   5  145.49   32.80
  -2   3   5   87.59    8.20
  -2   3   5   91.09    7.10
   1  -3  -5  238.08   11.60
   1  -3  -5  217.28   11.50
  -1   3   5  236.98   11.00
  -1   3   5  220.38   12.00
  -1   3   5  243.08   11.90
  -1   3   5  239.48   24.20
   0  -3  -5  431.46   20.30
   0  -3  -5  485.95   19.00
   0   3   5  463.55   19.10
   0   3   5  457.15   20.30
   0   3   5  480.55   29.80
   1   3   5  558.04   33.50
   1   3   5  571.04   24.40
   1   3   5  531.45   23.80
   2   3   5 1100.09   43.70
   3   3   5  108.29   10.60
   4   3   5   17.60    5.90
   5   3   5  184.58   11.30
   6   3   5  191.48    9.30
  -5   4   5  701.23   27.00
   4  -4  -5    9.10    4.10
   4  -4  -5   17.60    3.20
  -4   4   5   20.00    3.50
  -4   4   5   25.00    5.30
   3  -4  -5  136.99    7.80
  -3   4   5  132.59    8.70
  -3   4   5  129.19    9.80
   2  -4  -5    7.90    3.50
  -2   4   5    2.20    3.50
  -2   4   5   10.00    4.40
   1  -4  -5  292.17   14.50
  -1   4   5  290.27   15.20
  -1   4   5  337.07   14.10
   0  -4  -5  112.19    7.20
   0  -4  -5  104.99    9.30
   0   4   5  107.49    9.50
   0   4   5  112.79    8.60
  -1  -4  -5  532.15   28.30
   1   4   5  490.75   23.00
   2   4   5  154.98   11.40
   3   4   5  241.48   14.00
   4   4   5  308.27   15.70
  -5  -4  -5  476.25   18.50
   5   4   5  448.06   19.20
  -4   5   5  287.87   12.40
  -4   5   5  295.27   13.20
   3  -5  -5  435.46   17.50
  -3   5   5  432.46   18.00
  -3   5   5  416.16   18.80
   2  -5  -5   74.69    6.60
  -2   5   5   91.69    7.40
  -2   5   5   88.09    8.40
   1  -5  -5   52.99    6.30
  -1   5   5   54.89    7.80
  -1   5   5   41.90    4.90
   0  -5  -5  298.87   12.80
   0  -5  -5  288.27   14.60
   0   5   5  305.37   15.10
  -1  -5  -5   -3.60    6.90
  -1  -5  -5    0.10    2.60
  -2  -5  -5  564.04   22.80
  -3  -5  -5   68.69    5.70
  -4  -5  -5  190.28    8.70
   3  -6  -5  138.49    6.00
  -3   6   5  131.89    7.10
   2  -6  -5  410.76   16.50
  -2   6   5  409.46   17.40
   1  -6  -5   92.09    6.30
  -1   6   5   82.79    7.50
  -1  -6  -5   72.19    5.30
  -2  -6  -5   21.80    3.70
  -3  -6  -5   37.50    3.60
  -3  -6   6   61.79    4.70
  -3  -6   6   58.09    3.40
  -2  -6   6    3.40    1.70
  -2  -6   6   -0.20    2.30
  -1  -6   6   14.70    2.90
   0  -6   6  247.68   10.70
   0  -6   6  240.98   10.90
   1  -6   6    5.80    6.10
   1  -6   6    4.70    2.10
   2  -6   6   -0.90    3.20
   2  -6   6    3.50    1.80
   3  -6   6   91.89    4.40
  -4  -5   6   69.99    4.30
  -3  -5   6   12.60    3.30
  -3  -5   6   15.50    2.70
  -2  -5   6  190.98   10.70
  -1  -5   6  335.47   14.00
  -1  -5   6  342.57   14.90
   0  -5   6  202.88   10.50
   0  -5   6  200.18   10.00
   0  -5   6  183.78    8.90
   1  -5   6  478.65   20.30
   1  -5   6  510.15   20.20
   2  -5   6  155.38   10.70
   3  -5   6   52.09    4.20
   3  -5   6   46.90    5.10
   4  -5   6    9.90    2.60
  -5  -4   6   69.59    5.30
  -4  -4   6   91.59    6.50
  -3  -4   6  102.79    7.30
  -3  -4   6  104.09    8.00
  -2  -4   6  176.18    9.20
  -1  -4   6   96.89    6.50
  -1  -4   6   78.49   11.90
   0  -4   6  373.36   14.90
   0  -4   6  344.67   16.10
  -1   4  -6  128.09    9.10
   1  -4   6  108.49    7.70
   1  -4   6  119.49    7.50
  -2   4  -6  170.38   10.80
  -2   4  -6  171.28    9.80
   2  -4   6  171.08    8.80
  -3   4  -6 1438.56   53.49
   3  -4   6 1356.96   53.19
   3  -4   6 1415.86   52.39
  -4   4  -6  664.63   26.10
   4  -4   6  617.14   24.70
   4  -4   6  672.73   26.10
   5  -4   6  326.97   13.90
  -4  -3   6  225.18   13.20
  -3  -3   6  125.99    9.90
  -3  -3   6  137.19    9.30
  -2  -3   6   37.30    6.20
  -1  -3   6 1236.18   47.20
  -1  -3   6 1247.08   54.59
   0  -3   6   78.99    5.80
   0  -3   6   95.79   16.20
   0  -3   6   90.99    7.30
   0  -3   6   65.59    8.10
  -1   3  -6  273.47   17.30
  -1   3  -6  323.97   16.40
   1  -3   6  266.37   14.60
   1  -3   6  305.17   12.50
   1  -3   6  299.97   12.90
   1  -3   6  230.08   22.00
  -2   3  -6  480.95   23.70
   2  -3   6  495.85   21.10
  -3   3  -6 1124.99   43.70
  -3   3  -6 1070.09   42.90
   3  -3   6 1127.69   41.80
   3  -3   6 1126.89   42.80
  -4   3  -6    8.90    4.50
   4  -3   6    6.90    2.60
   4  -3   6   12.20    3.80
   5  -3   6  124.89    7.90
   6  -3   6   36.70    4.20
  -2  -2   6 7126.69  256.47
  -2  -2   6 6664.13  252.07
  -1  -2   6 2635.84  106.49
   0  -2   6    5.60    4.80
   1  -2   6   48.10   15.60
  -2   2  -6   72.49   10.50
  -2   2  -6   84.69    9.40
   2  -2   6   97.19   13.20
   2  -2   6   86.29    6.00
   3  -2   6  417.36   16.30
   3  -2   6  397.36   17.70
  -4   2  -6 1298.17   51.79
   4  -2   6 1382.46   51.39
  -5   2  -6   84.59   11.70
   5  -2   6   76.39    7.10
   6  -2   6  112.99    6.90
   3   1  -6   46.60    6.00
  -3  -1   6   42.60   10.70
  -2  -1   6    7.70    4.20
  -1  -1   6 4771.72  176.48
   0  -1   6  124.79    8.20
   1  -1   6   73.29    3.50
   1  -1   6   61.49    7.20
   2  -1   6  181.38   10.70
   2  -1   6  165.78   14.30
   3  -1   6  246.78   10.60
   3  -1   6  226.48   11.40
   4  -1   6  649.34   26.60
   5  -1   6 1396.56   53.79
   6  -1   6   14.10    3.60
  -3   0   6    1.70    8.00
  -2   0   6 1983.90   76.29
   1   0  -6    2.00    4.50
  -1   0   6   -0.90    2.90
   0   0  -6  623.24   26.30
   0   0   6  611.64   23.40
   0   0   6  637.34   26.20
  -1   0  -6    2.00    3.60
   1   0   6    3.40    3.10
   1   0   6    3.10    1.40
  -2   0  -6 1409.16   56.19
   2   0   6 1377.46   52.79
   2   0   6 1407.76   53.29
   2   0   6 1410.86   51.79
   3   0   6   -0.40    3.20
   3   0   6    3.30    4.30
   4   0   6   34.40    5.10
   5   0   6    7.20    3.90
   6   0   6   71.49    6.60
   3  -1  -6   34.20    5.70
   2  -1  -6   -3.10    4.70
  -2   1   6    7.50    6.10
  -2   1   6    4.90    2.20
   1  -1  -6 4956.50  172.78
  -1   1   6 4598.84  173.88
  -1   1   6 4377.66  169.48
   0  -1  -6  147.89   10.70
   0   1   6  139.39    6.50
   0   1   6  142.49   10.40
  -1  -1  -6   74.19    4.00
  -1  -1  -6   64.99    9.30
   1   1   6   80.89    4.40
   1   1   6   65.49    7.90
  -2  -1  -6  181.48    8.00
  -2  -1  -6  176.28   16.90
   2   1   6  181.88    8.50
  -3  -1  -6  241.78   11.70
   3   1   6  242.18   12.90
   5   1   6 1241.88   48.70
   6   1   6   10.60    3.80
   4  -2  -6    5.80    3.40
   3  -2  -6   23.20    4.00
  -3   2   6   34.20    6.30
  -3   2   6   23.80    7.90
  -3   2   6   51.69   21.50
   2  -2  -6 6330.37  240.38
  -2   2   6 6365.66  241.18
  -2   2   6 6840.12  240.48
  -2   2   6 6783.42  248.68
   1  -2  -6 3464.55  131.09
  -1   2   6 3328.47  132.39
  -1   2   6 3482.65  125.79
   0  -2  -6    5.90    1.80
   0   2   6    8.90    6.60
   0   2   6    8.50    2.40
  -1  -2  -6   31.10    3.50
   1   2   6   31.60    4.90
   1   2   6   36.60    8.50
  -2  -2  -6   75.99    6.00
   2   2   6   72.19    9.00
   4   2   6 1348.97   52.99
   5   2   6   68.59    8.20
   6   2   6  109.29    7.60
  -5   3   6   46.60    6.40
   4  -3  -6  231.98   10.20
  -4   3   6  218.88   11.50
  -4   3   6  209.08   13.50
   3  -3  -6  114.49    7.90
  -3   3   6  117.39   10.50
  -3   3   6  133.09    8.40
  -2   3   6   54.89    6.70
  -2   3   6   42.90    7.40
   1  -3  -6 1216.98   46.60
  -1   3   6 1268.27   61.29
   0  -3  -6   70.49    9.10
   0   3   6   72.09    7.60
   0   3   6   59.79   15.20
   0   3   6   71.29    6.70
   1   3   6  235.08   18.50
   1   3   6  287.27   28.90
   1   3   6  274.07   15.40
   3   3   6 1013.60   41.20
   4   3   6    9.40    5.20
   5   3   6  112.29    8.90
   6   3   6   24.40    3.70
  -5   4   6   63.89    5.00
   4  -4  -6   90.59    5.60
  -4   4   6   84.39    6.90
  -4   4   6   90.69    8.70
   3  -4  -6   99.79    6.70
  -3   4   6   78.29    8.50
  -3   4   6   99.09    7.50
   2  -4  -6  149.59    9.30
  -2   4   6  162.58   10.70
  -2   4   6  172.98    9.80
   1  -4  -6   94.49    7.80
  -1   4   6   92.19    9.10
  -1   4   6   99.19    7.40
   0  -4  -6  340.07   14.40
   0  -4  -6  344.87   16.20
   0   4   6  330.17   16.30
   0   4   6  307.87   15.00
  -1  -4  -6  104.29   12.60
   1   4   6   92.19   11.40
   2   4   6  151.18   11.40
   3   4   6 1214.08   48.20
   4   4   6  576.44   24.80
  -5  -4  -6  263.77   11.50
   5   4   6  274.27   12.50
  -4   5   6   51.29    4.70
  -4   5   6   51.99    5.90
   3  -5  -6   16.50    3.10
  -3   5   6    7.90    4.10
  -3   5   6    7.50    3.40
  -2   5   6  175.58   11.00
   1  -5  -6  324.27   15.00
  -1   5   6  342.77   16.20
  -1   5   6  303.37   14.40
   0  -5  -6  165.68   11.00
   0  -5  -6  178.78    8.80
   0   5   6  188.58   11.70
  -1  -5  -6  424.86   17.80
  -1  -5  -6  451.05   29.60
  -3  -5  -6   43.70    4.90
  -4  -5  -6   11.10    2.30
   3  -6  -6   58.29    3.80
  -3   6   6   66.79    5.10
   2  -6  -6    2.00    2.40
  -2   6   6    4.90    3.50
   1  -6  -6   19.90    3.60
  -1   6   6   13.30    4.20
   0  -6  -6  259.27   12.30
  -2  -6  -6    4.80    3.20
  -3  -6  -6  108.99    5.30
  -2  -6   7   77.59    4.90
  -2  -6   7   65.99    3.80
  -1  -6   7   97.49    5.90
   0  -6   7   75.59    5.50
   0  -6   7   65.79    5.10
   1  -6   7  141.49    7.10
   1  -6   7  155.08   10.10
   2  -6   7    5.10    1.70
   2  -6   7   -1.50    3.10
  -4  -5   7   83.39    5.60
  -3  -5   7    3.70    2.10
  -3  -5   7    2.10    3.20
  -2  -5   7  111.99    7.10
  -2  -5   7  105.99    6.20
  -1  -5   7  241.78   11.40
  -1  -5   7  230.38   10.30
   0  -5   7    9.00    2.60
   0  -5   7   14.20    3.70
   0  -5   7    9.60    3.20
   1  -5   7  184.68   12.60
   1  -5   7  183.78    9.30
   2  -5   7  437.56   17.60
   3  -5   7  184.78    8.20
   3  -5   7  183.18    9.00
   4  -5   7   51.59    5.10
  -5  -4   7   12.50    2.60
  -4  -4   7   14.30    2.90
  -3  -4   7  218.18   11.20
  -3  -4   7  219.18   10.40
  -2  -4   7  175.18    9.10
  -2  -4   7  181.88    9.60
  -1  -4   7  163.28    8.60
  -1  -4   7  186.38   12.40
   0  -4   7 1200.68   44.30
   0  -4   7 1155.98   44.90
   0  -4   7 1187.08   45.00
   1  -4   7  791.22   30.80
   1  -4   7  788.42   30.60
  -2   4  -7   85.89    7.40
   2  -4   7   91.69    6.10
  -3   4  -7   50.69    6.10
   3  -4   7   42.00    4.30
   3  -4   7   37.70    5.50
   4  -4   7    2.30    2.20
   4  -4   7    2.80    3.20
   5  -4   7   14.50    2.80
  -4  -3   7   24.10    4.90
  -3  -3   7  331.07   15.10
  -3  -3   7  307.87   14.50
  -2  -3   7  380.06   17.30
  -1  -3   7  265.27   11.90
  -1  -3   7  286.17   28.20
   0  -3   7    2.60    3.00
   0  -3   7   10.40    2.50
   0  -3   7   10.60   11.40
   0  -3   7    3.90    4.10
   0  -3   7   12.30    6.10
  -1   3  -7    5.20    3.50
   1  -3   7    5.60    3.50
   1  -3   7   -1.40    3.00
   1  -3   7   11.30   12.50
   1  -3   7   -0.60    2.90
  -2   3  -7  612.24   24.80
  -2   3  -7  586.64   24.20
   2  -3   7  550.94   24.40
   2  -3   7  610.94   23.10
  -3   3  -7  104.89    8.60
   3  -3   7  106.89    7.60
   3  -3   7  106.49    6.30
  -4   3  -7  565.64   23.60
   4  -3   7  583.34   23.60
   4  -3   7  559.84   22.00
   5  -3   7   32.90    4.40
   6  -3   7  425.26   16.80
  -2  -2   7  740.03   29.00
  -2  -2   7  681.83   28.90
  -2  -2   7  763.62   35.10
  -1  -2   7 2133.39   79.49
  -1  -2   7 2101.09   82.59
   0  -2   7  150.38   12.30
  -1   2  -7 1239.98   48.80
   1  -2   7 1384.56   49.00
   1  -2   7 1255.77   48.10
   1  -2   7 1271.27   52.59
  -2   2  -7  235.48   13.20
   2  -2   7  252.77   11.50
   2  -2   7  255.77   10.80
   2  -2   7  250.67   19.30
  -3   2  -7  568.74   24.70
   3  -2   7  560.84   22.20
   3  -2   7  582.44   23.20
  -4   2  -7  231.18   14.40
   4  -2   7  262.87   10.80
   4  -2   7  260.87   12.60
   5  -2   7  123.29    9.80
   6  -2   7   43.30    4.70
   3   1  -7   24.30    4.80
  -3  -1   7   13.60   16.60
  -2  -1   7  955.70   40.10
  -1  -1   7  251.67   13.90
   0  -1   7  411.96   19.30
   1  -1   7   96.59    4.90
   1  -1   7  103.19    9.40
   3  -1   7  152.38    9.30
   3  -1   7  188.08    9.10
   4  -1   7 2500.45   93.39
   5  -1   7  230.88   12.10
   6  -1   7  685.13   27.20
   3   0  -7 1719.13   63.99
  -2   0   7   -0.50    4.80
   1   0  -7   92.09   10.40
  -1   0   7  102.19    8.70
   0   0  -7   -1.90    4.50
   0   0   7    1.60    1.20
   0   0   7   -0.70    3.20
  -1   0  -7 5155.88  182.88
   1   0   7 4654.63  181.98
   1   0   7 4892.81  178.78
   2   0   7   -2.50    6.80
   2   0   7    2.50    4.50
   2   0   7    1.20    2.20
   3   0   7  965.50   36.40
   4   0   7   -2.70    4.00
   5   0   7   16.70    4.40
   6   0   7   -0.60    3.30
   3  -1  -7   15.20    3.70
  -3   1   7   35.90   15.50
   2  -1  -7 1043.80   39.20
  -2   1   7 1077.29   38.50
  -2   1   7  913.81   44.30
   1  -1  -7  261.87   15.10
  -1   1   7  243.38   10.20
  -1   1   7  196.38   15.10
   0  -1  -7  433.46   21.70
   0   1   7  429.46   21.70
   0   1   7  415.96   16.90
  -1  -1  -7   97.89    5.00
  -1  -1  -7   94.79   12.90
   1   1   7   96.89    5.50
   1   1   7   93.89   10.10
  -2  -1  -7  187.18    8.50
   2   1   7  188.18   11.80
   2   1   7  179.78   10.10
   2   1   7  177.48    9.10
   3   1   7  164.18    9.10
   3   1   7  175.78   10.10
   4   1   7 2422.26   91.09
   5   1   7  216.68   12.20
   6   1   7  681.23   27.30
  -5   2   7  120.59   10.80
   3  -2  -7 1263.37   50.69
  -3   2   7 1380.86   50.99
  -3   2   7 1269.27   49.99
   2  -2  -7  728.93   29.30
  -2   2   7  781.52   41.20
  -2   2   7  747.23   30.50
   1  -2  -7 1959.10   74.99
  -1   2   7 2139.19   83.19
  -1   2   7 1887.81   74.59
  -1   2   7 2064.09   75.59
  -1   2   7 2003.30   74.89
   0   2   7  179.08   16.20
   0   2   7  168.78    9.10
  -1  -2  -7 1373.36   50.59
   1   2   7 1326.07   57.69
   2   2   7  265.87   14.00
   3   2   7  597.64   25.70
   4   2   7  241.78   13.50
   5   2   7   92.69   11.80
   6   2   7   42.10    5.30
  -5   3   7    1.80    3.40
   4  -3  -7   14.00    3.30
  -4   3   7    8.90    6.00
  -4   3   7   16.10    4.00
   3  -3  -7  300.27   13.60
  -3   3   7  291.97   15.10
  -3   3   7  292.07   13.90
   2  -3  -7  365.56   16.50
  -2   3   7  401.26   16.60
  -2   3   7  366.36   17.60
   1  -3  -7  266.37   12.60
   1  -3  -7  271.77   13.10
  -1   3   7  261.07   12.30
  -1   3   7  259.87   13.60
   0  -3  -7    0.70    4.50
   0   3   7   18.20   17.20
   0   3   7    3.20    3.70
   0   3   7    4.00    4.20
   1   3   7    0.90    6.40
   1   3   7    0.10    5.00
   1   3   7   19.70   19.90
   2   3   7  630.14   27.20
   3   3   7  104.79   10.00
   4   3   7  554.04   24.50
   5   3   7   22.60    4.70
   6   3   7  362.66   14.80
  -5   4   7   11.30    2.60
   4  -4  -7   12.30    2.70
  -4   4   7   11.20    4.90
  -4   4   7   15.90    3.40
   3  -4  -7  206.98   10.30
  -3   4   7  203.98   11.80
  -3   4   7  201.78   10.80
   2  -4  -7  162.18    9.70
  -2   4   7  178.18   11.60
  -2   4   7  173.28    9.90
   1  -4  -7  137.49    9.40
  -1   4   7  144.09    8.80
  -1   4   7  145.49   10.80
   0  -4  -7 1104.69   43.50
   0  -4  -7 1106.29   42.00
   0   4   7 1065.79   42.00
   0   4   7 1141.29   43.70
  -1  -4  -7  723.43   32.10
   1   4   7  793.22   31.60
   2   4   7   85.29    9.20
   3   4   7   45.10    6.90
   4   4   7    7.80    4.50
  -5  -4  -7   23.30    3.10
   5   4   7   22.50    4.00
  -4   5   7   62.79    5.90
  -4   5   7   69.89    4.90
   3  -5  -7    4.40    2.60
  -3   5   7   -1.80    2.90
  -3   5   7   -0.90    3.70
   2  -5  -7  102.29    7.10
  -2   5   7   92.09    7.60
  -2   5   7  104.49    9.00
   1  -5  -7  216.78   11.60
  -1   5   7  226.08   12.90
   0  -5  -7    4.60    5.60
   0  -5  -7   10.20    4.60
   0   5   7   15.00    5.50
  -1  -5  -7  164.78    8.60
  -1  -5  -7  171.28   13.30
  -2  -5  -7  348.07   15.10
  -3  -5  -7  143.19    7.70
  -3   6   7    4.40    2.70
   2  -6  -7   81.29    4.80
  -2   6   7   75.79    6.30
   1  -6  -7   95.89    6.40
  -1   6   7   85.89    7.40
   0  -6  -7   72.29    6.80
  -2  -6  -7    2.40    2.30
  -2  -6   8   22.50    3.50
  -1  -6   8  107.89    5.80
   0  -6   8  243.58    9.90
   0  -6   8  205.08    9.90
   1  -6   8    1.30    2.10
   2  -6   8   19.20    3.20
  -4  -5   8   50.69    3.30
  -3  -5   8  374.16   15.80
  -3  -5   8  388.76   15.10
  -2  -5   8  161.88    7.80
  -2  -5   8  166.58    8.80
  -1  -5   8  304.97   12.50
  -1  -5   8  268.17   15.40
   0  -5   8  118.39    7.80
   0  -5   8  112.29    7.70
   1  -5   8  233.48   10.40
   1  -5   8  208.98   10.90
   2  -5   8  405.26   15.80
   2  -5   8  367.86   16.00
   3  -5   8   29.00    4.40
   3  -5   8   26.10    3.30
   4  -5   8   69.49    4.60
  -5  -4   8   15.40    2.40
  -4  -4   8  480.55   20.50
  -4  -4   8  495.85   19.20
  -3  -4   8  202.18    9.80
  -2  -4   8   11.60    3.00
  -2  -4   8   16.50    3.80
  -1  -4   8   43.60    4.50
  -1  -4   8   43.60    6.30
   0  -4   8 1755.92   63.89
   0  -4   8 1735.63   64.69
   0  -4   8 1687.33   64.49
   1  -4   8  175.08    9.80
   1  -4   8  191.98    9.30
   2  -4   8    3.30    2.30
   2  -4   8    0.40    5.00
   3  -4   8   67.19    7.40
   3  -4   8   67.29    5.00
   4  -4   8  120.69    7.30
   4  -4   8  129.39    6.00
   5  -4   8   45.20    4.20
  -5  -3   8  515.95   20.30
  -3  -3   8  393.76   17.40
  -3  -3   8  387.66   16.60
  -2  -3   8  412.36   17.20
  -2  -3   8  422.06   17.60
   0  -3   8   15.50    3.80
   0  -3   8   20.90    3.50
   0  -3   8   22.70    2.90
   1  -3   8 1368.06   53.49
   1  -3   8 1428.66   51.79
   2  -3   8 1533.05   60.09
   2  -3   8 1674.23   59.79
  -3   3  -8   76.99    8.10
   3  -3   8   92.89    5.80
   3  -3   8   82.29    7.30
   4  -3   8  120.99    8.10
   5  -3   8  358.16   15.40
   6  -3   8   59.39    4.50
  -3  -2   8  323.57   18.50
  -3  -2   8  338.57   16.70
  -2  -2   8    9.70    5.40
  -2  -2   8    0.40   10.30
  -2  -2   8    1.20    4.80
  -1  -2   8   12.90    3.30
  -1  -2   8    7.50    7.60
  -1  -2   8   19.10    4.00
   0  -2   8  688.13   28.10
   0  -2   8  601.14   24.50
   0  -2   8  594.64   29.40
   0  -2   8  615.84   24.00
   1  -2   8  469.85   17.70
   1  -2   8  471.05   18.00
   1  -2   8  418.16   18.80
   1  -2   8  421.06   24.80
  -2   2  -8  134.89   11.50
   2  -2   8  162.08   20.80
   2  -2   8  147.59   12.60
   2  -2   8  129.19    8.70
   2  -2   8  148.99    7.40
  -3   2  -8  283.47   14.60
   3  -2   8  284.67   13.40
   3  -2   8  282.87   12.10
   4  -2   8  367.26   16.30
   4  -2   8  354.96   14.50
   5  -2   8   40.40    5.90
   6  -2   8  361.46   15.10
   3   1  -8   37.40    4.80
  -2  -1   8 1591.34   64.59
   0  -1   8  124.29   10.70
   1  -1   8 2239.48   85.09
   1  -1   8 2158.88   80.79
   2  -1   8   17.50    5.50
   2  -1   8   18.10    7.40
   2  -1   8   14.30    2.80
   3  -1   8  236.28   10.10
   3  -1   8  222.28   11.40
   5  -1   8  516.15   21.90
   6  -1   8   -2.00    2.80
   3   0  -8   -2.70    3.90
  -3   0   8    2.90   13.80
   2   0  -8   66.49    7.40
   1   0  -8    1.60    7.90
  -1   0   8    0.80    4.40
  -1   0   8    2.20    2.20
   0   0  -8  827.82   36.70
   0   0   8  834.82   31.60
   0   0   8  852.41   35.50
   1   0   8    1.30    4.50
   1   0   8    3.50    2.30
   2   0   8 7012.70  258.57
   2   0   8 7023.10  261.57
   2   0   8 7231.38  258.47
   3   0   8    8.20    4.30
   3   0   8   -0.50    2.60
   4   0   8  858.31   34.30
   5   0   8   -1.90    3.50
   6   0   8  573.84   23.20
   3  -1  -8   25.10    4.00
  -3   1   8   27.00    7.20
  -3   1   8    7.50   20.00
   2  -1  -8 1687.63   62.49
  -2   1   8 1649.54   70.09
   1  -1  -8  147.39   16.40
  -1   1   8  141.99   15.60
  -1   1   8  136.79    7.40
   0   1   8  122.89    7.00
   0   1   8  134.39   12.80
   1   1   8 2083.69   82.29
   1   1   8 2078.79   77.19
   2   1   8   14.80    5.50
   2   1   8   14.10    6.80
   2   1   8    6.70    8.60
   2   1   8   21.30    4.00
   3   1   8  223.88   12.10
   3   1   8  208.88   10.40
   4   1   8   38.80    6.90
   5   1   8  496.45   21.60
   6   1   8    5.60    3.30
  -5   2   8   42.40    5.30
  -4   2   8  954.50   37.10
  -4   2   8  934.31   38.30
   3  -2  -8  341.37   15.00
  -3   2   8  327.87   16.70
   2  -2  -8    2.80    3.00
  -2   2   8   -8.30    5.90
  -2   2   8   -9.80   16.30
  -2   2   8   -2.00    9.10
   1  -2  -8   15.50    4.30
  -1   2   8   10.20    4.60
  -1   2   8    4.40   11.00
  -1   2   8    6.40    3.30
   0  -2  -8  598.44   25.30
   0   2   8  569.04   23.30
   0   2   8  656.43   33.40
   0   2   8  550.04   24.30
   0   2   8  575.44   24.20
  -1  -2  -8  491.35   19.20
   1   2   8  440.76   21.20
   1   2   8  454.35   19.20
   1   2   8  440.96   21.00
   1   2   8  460.15   28.00
   2   2   8  164.08   11.10
   3   2   8  308.57   15.40
   4   2   8  348.47   16.90
   5   2   8   43.60    6.80
   6   2   8  320.37   13.80
  -5   3   8  502.15   20.30
   4  -3  -8   15.90    4.50
  -4   3   8   12.00    3.90
  -4   3   8   26.30    9.70
   3  -3  -8  371.16   15.40
  -3   3   8  349.37   16.90
  -3   3   8  303.57   15.30
   2  -3  -8  378.66   16.50
  -2   3   8  325.87   16.20
  -2   3   8  412.36   17.90
   1  -3  -8   84.49    8.40
  -1   3   8   94.79   11.50
  -1   3   8   58.59    9.40
   0  -3  -8   21.90    5.00
   0   3   8   19.70    3.70
   0   3   8   19.60    4.90
  -1  -3  -8 1380.96   58.19
   1   3   8 1598.04   88.69
   1   3   8 1344.77   54.69
   1   3   8 1394.06   54.99
   2   3   8 1727.23   66.29
   3   3   8   78.19    9.00
   4   3   8  113.29    9.50
   5   3   8  309.47   14.30
  -5   4   8   10.90    2.40
   4  -4  -8  439.66   16.70
  -4   4   8  434.26   18.90
  -4   4   8  411.26   17.80
   3  -4  -8  169.58    9.00
  -3   4   8  145.79    9.20
  -3   4   8  159.38   10.50
   2  -4  -8   12.90    3.70
  -2   4   8    5.80    3.40
  -2   4   8   17.20    5.10
   1  -4  -8   60.39    7.50
  -1   4   8   56.09    8.40
  -1   4   8   44.70    6.40
   0  -4  -8 1766.72   67.59
   0  -4  -8 1767.72   65.89
   0   4   8 1772.42   67.79
  -1  -4  -8  167.48   13.90
   1   4   8  182.58   13.20
   2   4   8    4.90    4.70
   3   4   8   73.39    8.20
   4   4   8  130.49    8.70
  -5  -4  -8   40.10    4.30
  -4   5   8   43.10    5.40
  -4   5   8   52.39    4.20
   3  -5  -8  359.76   14.40
  -3   5   8  363.86   14.80
  -3   5   8  332.77   15.60
   2  -5  -8  144.19    8.20
  -2   5   8  145.39    8.40
  -2   5   8  143.19   10.00
   1  -5  -8  304.57   14.80
  -1   5   8  315.07   17.70
   0  -5  -8  108.79    9.80
   0   5   8   91.49   11.60
  -1  -5  -8  207.68   14.20
  -1  -5  -8  224.78   10.20
  -2  -5  -8  380.86   15.90
  -3  -5  -8   28.40    4.10
  -4  -5  -8   65.99    4.00
   2  -6  -8   21.10    3.20
  -2   6   8   17.40    3.50
   1  -6  -8   98.29    6.40
  -1   6   8  114.29    8.50
   0  -6  -8  201.88   10.60
  -2  -6   9   -0.30    2.00
  -1  -6   9  138.49    7.60
   0  -6   9   35.50    3.80
   0  -6   9   45.60    4.80
   1  -6   9    7.80    1.80
   2  -6   9   21.50    2.60
  -4  -5   9   24.50    2.40
  -3  -5   9  263.07   10.50
  -3  -5   9  254.87   11.30
  -2  -5   9  146.89    8.00
  -2  -5   9  143.59    6.90
  -1  -5   9   96.79    6.70
  -1  -5   9   87.79    5.30
   0  -5   9    1.80    3.30
   0  -5   9    5.00    3.30
   1  -5   9   86.89    6.70
   1  -5   9   73.09    5.70
   2  -5   9   27.70    3.80
   2  -5   9   24.70    4.20
   3  -5   9  146.29    6.30
   3  -5   9  118.99    8.10
  -4  -4   9  460.55   21.20
  -4  -4   9  396.66   16.70
  -3  -4   9   77.79    7.50
  -3  -4   9   85.19    5.70
  -2  -4   9   24.00    4.00
  -2  -4   9   28.20    4.40
  -1  -4   9  771.22   29.80
  -1  -4   9  779.92   29.00
  -1  -4   9  717.63   30.50
   0  -4   9  132.29    8.10
   0  -4   9  129.69    6.80
   0  -4   9  131.19    8.20
   1  -4   9   50.89    5.20
   1  -4   9   38.60    6.30
   2  -4   9  185.78    8.70
   2  -4   9  167.58    9.40
   3  -4   9  338.17   14.10
   3  -4   9  342.07   14.90
   4  -4   9   24.00    4.40
   4  -4   9   19.20    2.90
   5  -4   9  123.09    6.50
  -4  -3   9    2.90    3.10
  -3  -3   9 1315.47   48.40
  -3  -3   9 1195.48   47.20
  -2  -3   9 3172.78  116.09
  -2  -3   9 3115.89  115.59
  -1  -3   9  445.36   17.50
  -1  -3   9  405.96   22.60
  -1  -3   9  448.96   18.10
   0  -3   9   93.99    5.60
   0  -3   9   71.79    6.20
   0  -3   9   90.99    9.50
   1  -3   9  197.68    9.00
   1  -3   9  179.98   10.00
   1  -3   9  160.08    8.60
   2  -3   9   13.70    4.30
   3  -3   9  329.17   13.80
   3  -3   9  328.17   14.90
   4  -3   9  943.61   37.00
   4  -3   9  947.41   35.40
   5  -3   9    8.50    2.90
  -4  -2   9  855.81   33.30
   3   2  -9   68.49    5.90
  -3  -2   9   60.99    7.50
  -3  -2   9   63.39    7.00
  -2  -2   9  101.09    7.00
  -2  -2   9  106.69    8.10
  -1  -2   9  639.54   34.90
  -1  -2   9  703.83   26.70
  -1  -2   9  739.03   27.40
   0  -2   9   41.10    4.50
   0  -2   9   48.50    7.00
   0  -2   9   38.00    5.80
   0  -2   9   23.50   10.10
   1  -2   9  356.06   15.50
   1  -2   9  387.26   15.30
   1  -2   9  362.96   14.60
   1  -2   9  303.77   24.50
   2  -2   9   19.10    6.40
   3  -2   9 4097.79  147.69
   3  -2   9 3964.30  148.49
   4  -2   9  745.83   29.30
   4  -2   9  712.33   27.70
   5  -2   9   22.00    4.10
   6  -2   9  113.59    6.40
  -3  -1   9    4.30    6.00
   2   1  -9  284.87   11.90
  -2  -1   9  261.47   12.60
  -2  -1   9  249.38   21.10
  -1  -1   9   73.19    8.10
  -1  -1   9   74.69    6.20
  -1  -1   9   80.09   12.00
   0  -1   9  239.48   15.60
   0  -1   9  231.28   10.20
   0  -1   9  241.18   11.50
   0  -1   9  229.58   10.50
   1  -1   9   24.30    3.60
   1  -1   9   25.40    3.70
   1  -1   9   28.10    7.30
   1  -1   9   17.20    4.50
   2  -1   9  707.53   37.00
   2  -1   9  772.32   30.80
   2  -1   9  744.53   28.50
   3  -1   9   52.49    4.40
   3  -1   9   54.29    6.70
   5  -1   9   -0.30    3.60
   6  -1   9    6.40    3.00
   3   0  -9  101.19    7.50
  -3   0   9   96.19   15.10
   2   0  -9   -0.10    3.50
  -2   0   9   -1.20    7.70
  -2   0   9    2.30    3.70
   1   0  -9  718.13   38.30
   1   0  -9  811.32   29.80
  -1   0   9  746.83   29.20
  -1   0   9  763.02   33.90
   0   0   9    2.50    4.50
   0   0   9    3.30    2.60
   1   0   9 1019.20   39.80
   1   0   9 1134.79   45.90
   1   0   9 1018.20   40.00
   2   0   9   -2.20    2.30
   2   0   9    1.40    8.50
   2   0   9   -1.10    5.80
   2   0   9    9.70    4.70
   3   0   9 1853.81   69.69
   4   0   9    4.60    3.90
   5   0   9   10.40    6.40
   6   0   9   -0.60    3.00
  -4   1   9   -3.70    4.80
   3  -1  -9   10.10    3.80
  -3   1   9   15.90    4.40
  -3   1   9    0.50    5.90
   2  -1  -9  267.97   13.00
  -2   1   9  285.37   12.80
  -2   1   9  268.87   25.00
  -2   1   9  279.17   14.80
   1  -1  -9   69.99    8.20
  -1   1   9   91.59    9.30
  -1   1   9   74.79   14.50
  -1   1   9   88.69    6.40
   0   1   9  245.08   13.10
   0   1   9  224.28   11.40
   0   1   9  257.07   11.90
   0   1   9  237.78   18.10
   1   1   9   21.40    8.50
   1   1   9   16.90    3.70
   2   1   9  731.43   28.80
   2   1   9  685.63   27.80
   3   1   9   45.00    5.70
   3   1   9   47.10    6.90
   4   1   9  438.76   19.50
   5   1   9    1.60    4.00
   6   1   9    1.50    2.70
  -5   2   9   86.49    7.50
  -4   2   9  785.62   33.40
  -4   2   9  831.62   32.20
   3  -2  -9   68.99    6.70
  -3   2   9   64.99    9.20
  -3   2   9   50.19    7.90
   2  -2  -9   97.09    8.30
  -2   2   9   92.19    8.60
  -2   2   9  101.09    7.80
   1  -2  -9  708.23   25.90
  -1   2   9  563.74   26.10
  -1   2   9  579.94   39.60
  -1   2   9  635.44   26.00
   0  -2  -9   24.50    5.30
   0   2   9   39.70    6.90
   0   2   9   34.10    4.10
   0   2   9   46.10    5.70
   0   2   9   15.70   13.10
  -1  -2  -9  334.97   21.20
   1   2   9  353.96   28.70
   1   2   9  352.36   17.30
   2   2   9    6.10    5.20
   3   2   9 3953.50  146.69
   4   2   9  668.03   27.80
   5   2   9   22.60    4.60
   6   2   9   95.99    5.90
  -5   3   9   39.10    4.80
   4  -3  -9    3.20    3.00
  -4   3   9   -0.90    5.10
  -4   3   9   -1.70    3.00
   3  -3  -9 1153.28   43.20
  -3   3   9 1143.59   44.50
  -3   3   9 1066.49   43.20
   2  -3  -9 2917.71  108.79
  -2   3   9 2931.81  109.69
   1  -3  -9  421.26   18.70
  -1   3   9  402.06   17.60
  -1   3   9  416.26   19.20
   0   3   9   63.49    8.10
  -1  -3  -9  157.68   14.60
   1   3   9  201.08   12.10
   1   3   9  187.08   12.40
   2   3   9   31.30    6.70
   3   3   9  355.86   17.30
   4   3   9 1059.39   43.90
   5   3   9    7.40    3.00
  -5   4   9   84.69    4.90
  -4   4   9  353.66   14.90
  -4   4   9  350.96   15.80
   3  -4  -9   65.29    6.90
  -3   4   9   81.49    9.00
  -3   4   9   68.99    8.00
   2  -4  -9   24.40    4.30
  -2   4   9   13.50    3.60
  -2   4   9   21.90    5.60
   1  -4  -9  757.22   30.20
  -1   4   9  743.43   31.10
  -1   4   9  699.93   28.80
   0  -4  -9  133.89    7.80
   0  -4  -9  131.59   11.00
   0   4   9  132.19   10.50
  -1  -4  -9   49.40    8.40
   2   4   9  191.98   11.70
   3   4   9  363.96   17.00
   4   4   9   31.50    5.40
  -5  -4  -9  161.08    8.50
  -4   5   9   15.60    3.30
   3  -5  -9  256.37   10.70
  -3   5   9  262.07   10.90
  -3   5   9  230.98   11.90
   2  -5  -9  136.49    7.80
  -2   5   9  120.99    9.50
  -2   5   9  152.88    7.60
   1  -5  -9   82.69    7.30
  -1   5   9   62.29    8.50
   0  -5  -9    4.30    4.50
   0   5   9    1.40    5.10
  -1  -5  -9   87.79    5.70
  -2  -5  -9   31.90    4.40
  -3  -5  -9  153.88    7.40
  -4  -5  -9  126.99    5.70
   2  -6  -9   -0.60    1.80
  -2   6   9    7.70    3.10
   1  -6  -9  122.49    6.70
  -1   6   9  118.69    7.80
   0  -6  -9   49.30    6.00
  -1  -6  10  239.98    9.80
   0  -6  10   -5.20    3.80
   1  -6  10    6.00    2.00
  -3  -5  10  160.68    7.10
  -3  -5  10  174.88    8.70
  -2  -5  10  118.79    5.80
  -2  -5  10  126.09    7.00
  -1  -5  10   68.39    6.00
  -1  -5  10   62.09    4.00
   0  -5  10   75.09    6.30
   0  -5  10   83.39    6.30
   1  -5  10   94.79    6.00
   1  -5  10   93.39    6.50
   2  -5  10   28.30    3.50
   3  -5  10  358.36   13.90
  -4  -4  10  122.19    5.90
  -4  -4  10  115.49    8.10
   3   4 -10   11.30    2.60
  -3  -4  10    6.40    3.70
  -3  -4  10    4.60    2.30
  -2  -4  10  132.19    8.00
  -2  -4  10  130.59    6.90
  -1  -4  10  146.99    8.20
  -1  -4  10  142.39    7.10
  -1  -4  10  113.19   10.60
   0  -4  10   12.70    3.70
   0  -4  10    7.80    2.30
   0  -4  10    8.50    3.60
   1  -4  10   21.00    4.00
   1  -4  10   14.00    3.00
   2  -4  10  455.15   18.40
   3  -4  10   56.29    5.90
   3  -4  10   67.89    4.70
   4  -4  10   38.90    4.60
  -5  -3  10   64.69    4.80
  -4  -3  10    1.90    5.70
  -4  -3  10    0.20    2.60
   3   3 -10  672.43   25.50
  -3  -3  10  661.43   25.60
  -3  -3  10  646.74   26.70
  -2  -3  10  158.08    9.40
  -2  -3  10  149.49    7.90
  -1  -3  10   95.69    6.00
  -1  -3  10  100.69    7.10
  -1  -3  10   79.39   10.00
   0  -3  10    7.20    3.70
   0  -3  10    0.60    2.20
   0  -3  10   -0.60    3.50
   1  -3  10   37.90    5.30
   1  -3  10   35.60    6.20
   2  -3  10  581.64   24.10
   2  -3  10  607.54   23.50
   3  -3  10  117.59    8.30
   3  -3  10  132.79    6.90
   4  -3  10  172.28    9.30
   4  -3  10  174.28    7.80
   5  -3  10   10.90    2.80
  -5  -2  10  279.87   12.20
  -4  -2  10    2.30    3.70
   3   2 -10   59.19    5.50
  -3  -2  10   59.69    6.70
  -2  -2  10 1159.88   43.80
  -2  -2  10 1169.68   44.70
  -1  -2  10    4.20    2.50
  -1  -2  10    5.60    3.80
   0  -2  10  867.91   33.70
   0  -2  10  766.22   43.10
   0  -2  10  944.71   32.80
   0  -2  10  888.11   33.70
   1  -2  10   31.90    3.60
   1  -2  10   31.70    4.50
   1  -2  10   24.20    3.60
   2  -2  10  815.62   31.10
   2  -2  10  801.52   33.50
   3  -2  10  208.58   11.00
   3  -2  10  207.18    9.50
   4  -2  10  375.06   16.60
   4  -2  10  374.06   15.00
   5  -2  10  101.49    6.80
   6  -2  10  398.06   15.80
  -4  -1  10   89.69    8.00
   3   1 -10 1056.09   37.70
  -3  -1  10  963.20   37.70
  -3  -1  10  949.60   38.60
   2   1 -10   76.49    5.60
  -2  -1  10   54.89   14.60
  -1  -1  10    3.10    2.50
  -1  -1  10    2.70    3.60
  -1  -1  10   -3.80    8.20
   0  -1  10    2.80    2.30
   0  -1  10    3.80    7.40
   0  -1  10    3.60    3.40
   0  -1  10    3.90    3.20
   1  -1  10 4203.08  161.78
   1  -1  10 4287.87  156.18
   1  -1  10 4331.77  155.58
   1  -1  10 4215.48  156.38
   2  -1  10   47.60    4.20
   2  -1  10   46.70    8.00
   3  -1  10  264.97   13.20
   3  -1  10  270.37   11.50
   5  -1  10  211.28   10.80
   6  -1  10   40.50    5.60
  -4   0  10  444.46   19.00
   3   0 -10    1.70    3.50
   2   0 -10 3602.14  120.59
  -2   0  10 3255.27  120.39
  -2   0  10 3129.39  119.59
  -2   0  10 3068.79  127.49
   1   0 -10   -0.90    3.40
  -1   0  10    0.50    6.50
  -1   0  10   -1.50    3.10
  -1   0  10    0.40    2.30
   0   0 -10 1712.43   63.49
   0   0  10 1768.22   63.79
   0   0  10 1710.93   62.79
   0   0  10 1625.04   68.49
   0   0  10 1678.73   63.59
   1   0  10    0.70    7.80
   1   0  10   -1.70    7.40
   1   0  10   -1.80    2.90
   1   0  10    0.30    4.90
   2   0  10 1724.93   63.49
   2   0  10 1689.23   64.59
   3   0  10    1.50    3.80
   3   0  10   -0.90    2.70
   4   0  10   19.20    4.20
   5   0  10   -2.00    3.50
   6   0  10  799.42   30.90
  -5   1  10  324.77   15.20
   3  -1 -10  947.41   36.60
  -3   1  10  948.91   37.90
  -3   1  10  943.01   36.60
   2  -1 -10   76.49    7.00
  -2   1  10   79.69    8.50
  -2   1  10   58.89   17.20
  -2   1  10   82.39    6.40
   1  -1 -10   -2.20    3.90
  -1   1  10   -0.70    2.80
  -1   1  10    4.70    4.20
  -1   1  10   -8.50    9.90
   0  -1 -10    0.50    3.70
   0   1  10    3.60    2.90
   0   1  10    7.10    3.10
   0   1  10    0.20    9.50
   0   1  10   -2.00    4.10
   1   1  10 4175.88  147.39
   1   1  10 3860.51  147.79
   1   1  10 3992.20  155.38
   2   1  10   46.50    5.50
   3   1  10  252.37   12.90
   3   1  10  251.27   11.70
   4   1  10  311.27   14.80
   5   1  10  207.58   11.00
   6   1  10   27.80    4.10
  -5   2  10  251.97   11.70
   4  -2 -10   -3.10    3.10
  -4   2  10   13.70    6.30
  -4   2  10    3.30    3.80
   3  -2 -10   63.69    6.60
  -3   2  10   47.60    6.60
  -3   2  10   59.19    7.00
   2  -2 -10 1088.89   43.80
  -2   2  10 1084.49   44.70
  -2   2  10 1242.78   43.70
   1  -2 -10    0.80    4.00
  -1   2  10    5.70    3.00
  -1   2  10    0.30    3.70
   0  -2 -10  755.32   33.50
   0   2  10  717.03   32.90
   0   2  10  794.92   47.10
   0   2  10  831.52   31.50
  -1  -2 -10   17.90    7.50
   1   2  10   27.00    7.70
   1   2  10    2.40   18.60
   1   2  10   12.30    4.00
   1   2  10   18.60    6.50
   2   2  10  794.82   32.30
   3   2  10  185.18   11.30
   4   2  10  370.56   17.10
   5   2  10   92.59    6.90
   6   2  10  348.87   14.10
  -5   3  10   61.29    5.00
   4  -3 -10    2.30    2.70
  -4   3  10    0.90    3.00
  -4   3  10    1.80    4.70
   3  -3 -10  651.13   25.80
  -3   3  10  654.43   25.80
  -3   3  10  601.94   27.00
   2  -3 -10  156.38    9.40
  -2   3  10  127.89   10.30
  -2   3  10  153.68    8.70
   1  -3 -10   90.99    8.50
  -1   3  10   68.49    8.50
  -1   3  10   83.09    6.60
   0  -3 -10    1.30    4.60
   0   3  10    3.60    3.60
   0   3  10    5.50    4.60
  -1  -3 -10   45.20    8.30
   1   3  10   37.40    6.60
   1   3  10   44.50    6.80
   2   3  10  603.34   25.60
   3   3  10  123.19    9.30
   4   3  10  161.98    9.80
   5   3  10    3.80    2.80
  -5   4  10    4.70    2.10
  -4   4  10  122.39    6.60
  -4   4  10  116.39    8.10
   3  -4 -10    5.80    3.20
  -3   4  10   -2.70    3.80
  -3   4  10    7.40    3.10
   2  -4 -10  116.49    8.20
  -2   4  10  125.69    7.70
  -2   4  10  102.69    9.60
   1  -4 -10  119.29    9.30
  -1   4  10  130.69    7.80
  -1   4  10  113.09    9.90
   0  -4 -10    5.10    5.10
   0  -4 -10    9.00    3.10
   0   4  10    1.10    4.70
  -1  -4 -10    4.90    7.30
   1   4  10    8.80    6.40
   2   4  10  461.15   20.40
   3   4  10   71.19    7.10
   4   4  10   34.70    4.90
   3  -5 -10  148.49    6.90
  -3   5  10  147.59    8.30
   2  -5 -10  124.79    7.10
  -2   5  10  117.99    8.50
  -2   5  10  116.69    7.00
   1  -5 -10   50.79    6.40
  -1   5  10   64.99    7.80
   0  -5 -10   67.39    8.10
   0   5  10   71.59    8.60
  -1  -5 -10  100.79   11.20
  -1  -5 -10   95.99    5.60
  -2  -5 -10   24.40    3.60
  -3  -5 -10  376.76   14.80
   1  -6 -10  288.67   11.90
   0  -6 -10    3.60    3.60
   1   6 -11    5.40    1.70
  -3  -5  11   12.70    2.50
  -3  -5  11   12.30    2.30
  -2  -5  11    0.10    2.40
  -2  -5  11    1.70    1.50
  -1  -5  11  152.98    6.90
  -1  -5  11  168.68    8.20
   0  -5  11  337.67   14.30
   0  -5  11  341.57   14.20
   1  -5  11   90.29    5.50
   1  -5  11   71.19    6.00
   2  -5  11  139.19    6.70
   3  -5  11   69.29    3.60
  -4  -4  11  663.43   24.90
   3   4 -11   25.00    3.70
  -3  -4  11   28.80    5.00
  -3  -4  11   24.00    3.50
  -1  -4  11   10.00    2.30
  -1  -4  11    8.60    3.50
  -1  -4  11   11.70    7.20
   0  -4  11   12.20    3.40
   0  -4  11   16.60    3.60
   0  -4  11   18.10    2.50
   1  -4  11  319.97   13.60
   1  -4  11  291.57   13.30
   3  -4  11   17.80    4.10
   3  -4  11   16.70    2.60
   4  -4  11    7.90    3.20
  -5  -3  11  173.88    7.60
  -4  -3  11  178.38    8.20
  -4  -3  11  167.58   10.00
   3   3 -11   80.99    5.50
  -3  -3  11   62.49    5.30
  -3  -3  11   79.19    7.60
  -2  -3  11   13.20    2.60
  -2  -3  11   10.20    4.00
  -1  -3  11   -0.60    3.40
  -1  -3  11    3.00    2.20
  -1  -3  11   -5.70    5.10
   0  -3  11 1257.97   48.50
   0  -3  11 1231.28   48.50
   0  -3  11 1343.47   47.60
   1  -3  11   38.10    5.20
   1  -3  11   47.60    5.60
   2  -3  11  491.85   21.10
   2  -3  11  506.45   20.10
   3  -3  11  281.57   11.70
   3  -3  11  257.07   13.00
   4  -3  11  216.18   10.40
   4  -3  11  206.68    8.90
   5  -3  11   60.79    4.70
  -5  -2  11  689.13   26.30
  -4  -2  11   38.30    5.40
   3   2 -11  122.89    7.10
  -3  -2  11  118.69   13.80
  -3  -2  11  114.49    7.20
  -2  -2  11    0.60    2.60
  -2  -2  11    6.20    4.10
  -1  -2  11  367.86   16.60
  -1  -2  11  366.56   14.60
  -1  -2  11  341.17   15.60
   0  -2  11    1.10    4.50
   0  -2  11    5.20    3.40
   1  -2  11 1360.46   51.49
   1  -2  11 1379.76   51.59
   2  -2  11  156.38    7.90
   2  -2  11  146.89   10.40
   3  -2  11    8.00    2.20
   3  -2  11    7.10    4.10
   4  -2  11   17.90    2.60
   5  -2  11  632.24   25.20
  -5  -1  11  159.18    8.80
  -4  -1  11  983.20   37.40
   3   1 -11    3.00    3.40
  -3  -1  11    5.70    4.40
   2   1 -11  180.88    8.90
   1   1 -11   41.60    5.40
  -1  -1  11   37.10    5.30
  -1  -1  11   43.90    4.10
  -1  -1  11   46.70    6.40
  -1  -1  11   37.20   12.70
   0  -1  11 3252.07  114.19
   0  -1  11 2944.31  120.79
  -1   1 -11  427.46   19.00
   1  -1  11  425.46   17.30
   1  -1  11  503.75   21.00
   1  -1  11  415.06   17.60
   1  -1  11  383.86   27.70
   2  -1  11    5.50    6.00
   2  -1  11    2.50    2.00
   3  -1  11  417.16   16.50
   3  -1  11  393.46   18.00
   4  -1  11   13.00    3.00
   5  -1  11   13.50    3.60
   6  -1  11  507.55   19.80
  -5   0  11  410.86   17.20
  -4   0  11   -2.30    3.30
   3   0 -11 1006.80   39.20
  -3   0  11 1041.10   40.20
   2   0 -11    1.50    2.90
  -2   0  11    3.30    2.40
  -2   0  11   -3.00    4.60
  -1   0  11 1162.38   46.30
  -1   0  11 1129.79   52.49
  -1   0  11 1200.38   44.80
  -1   0  11 1226.88   45.90
   0   0 -11    4.70    4.00
   0   0  11   -0.70    2.10
   0   0  11   -7.00    8.50
   0   0  11    0.30    3.20
   0   0  11   -7.10    4.00
  -1   0 -11   90.69   11.20
   1   0  11  113.99    8.50
   1   0  11   89.69   19.20
   2   0  11    1.40    5.70
   3   0  11   55.29    6.70
   3   0  11   70.59    5.50
   4   0  11   -0.90    3.60
   5   0  11  765.42   30.40
   6   0  11   -1.00    2.50
  -5   1  11  169.78    9.60
  -4   1  11  885.51   37.50
  -4   1  11  987.90   36.30
   3  -1 -11    4.40    3.50
  -3   1  11    6.30    4.60
  -3   1  11    3.50    3.10
   2  -1 -11  172.78    9.70
   1  -1 -11   42.90    6.30
  -1   1  11   48.20   15.00
  -1   1  11   44.60    4.80
  -1   1  11   42.40    6.80
   0  -1 -11 3576.54  125.69
   0   1  11 3186.08  134.49
   0   1  11 3416.86  125.39
   0   1  11 3404.56  124.89
  -1  -1 -11  456.65   22.20
   1   1  11  454.85   22.50
   1   1  11  441.56   18.40
   1   1  11  419.36   33.20
   2   1  11    2.20    5.90
   2   1  11    1.00    2.90
   3   1  11  357.66   15.80
   3   1  11  390.76   17.20
   4   1  11   23.80    4.90
   5   1  11    9.00    3.40
   6   1  11  509.75   19.90
  -5   2  11  634.94   24.80
  -4   2  11   31.20    6.50
   3  -2 -11  119.99    8.00
  -3   2  11  100.39    9.50
  -3   2  11  114.19    7.80
   2  -2 -11    3.20    3.50
  -2   2  11    3.60    3.90
  -2   2  11    6.00    2.90
   1  -2 -11  354.66   16.40
  -1   2  11  355.56   16.80
  -1   2  11  359.46   15.30
   0  -2 -11   -2.20    4.40
   0   2  11    1.30    4.20
   0   2  11   -0.40    3.10
  -1  -2 -11 1219.98   50.59
   1   2  11 1344.67   50.29
   2   2  11  140.59   10.20
   3   2  11   12.00    4.70
   4   2  11   22.10    6.30
   5   2  11  547.95   22.10
  -4   3  11  163.08   10.50
  -4   3  11  174.18    8.80
   3  -3 -11   59.69    6.20
  -3   3  11   67.59    8.20
  -3   3  11   67.59    5.90
   2  -3 -11   15.50    4.10
  -2   3  11   11.60    4.30
  -2   3  11    8.20    3.00
   1  -3 -11   -0.60    3.50
  -1   3  11    0.20    3.90
  -1   3  11    4.00    2.80
   0  -3 -11  964.50   44.20
   0   3  11 1205.58   42.60
   0   3  11 1197.58   44.70
  -1  -3 -11   29.60    7.50
   1   3  11   43.30    6.60
   2   3  11  528.85   22.80
   3   3  11  216.28   11.70
   4   3  11  177.48    9.60
   5   3  11   49.60    4.90
  -4   4  11  623.04   25.00
  -4   4  11  617.34   23.80
   3  -4 -11   21.40    3.50
  -3   4  11   19.60    4.40
  -3   4  11   23.20    3.40
  -2   4  11   -2.10    6.70
   1  -4 -11    8.70    4.40
  -1   4  11   10.60    5.50
  -1   4  11   11.40    3.30
   0  -4 -11    8.80    5.00
   0  -4 -11    7.10    2.90
   0   4  11   14.10    5.30
  -1  -4 -11  286.27   18.20
   3   4  11   18.60    4.00
   3  -5 -11   13.60    2.10
  -3   5  11   13.60    4.90
   2  -5 -11   -1.40    2.20
  -2   5  11    3.10    3.50
   1  -5 -11  157.88    9.10
  -1   5  11  167.98    9.80
   0  -5 -11  327.17   15.30
   0   5  11  335.17   15.20
  -1  -5 -11    0.20    2.20
  -2  -5 -11  139.49    6.40
  -3  -5 -11   64.39    3.70
  -3  -5  12   79.59    4.00
  -3  -5  12   87.99    4.90
   2   5 -12   -0.10    1.80
  -2  -5  12    0.90    2.00
  -1  -5  12  393.66   15.90
   0  -5  12   51.69    4.50
   0  -5  12   48.80    4.90
   1  -5  12   65.99    4.60
   2  -5  12  122.49    5.80
  -4  -4  12   79.99    4.10
   3   4 -12  561.14   21.70
  -3  -4  12  578.34   22.50
  -3  -4  12  582.24   21.90
  -2  -4  12  327.47   14.40
  -2  -4  12  340.37   13.50
  -1  -4  12   14.80    4.70
  -1  -4  12   12.80    4.00
   1  -4  12  445.56   21.30
   1  -4  12  543.25   20.20
   2  -4  12  463.05   18.50
   3  -4  12    3.90    1.70
  -5  -3  12   76.89    4.50
  -4  -3  12   93.89    8.10
  -4  -3  12  100.69    5.40
   3   3 -12  356.06   14.60
  -3  -3  12  338.47   15.40
  -3  -3  12  369.26   16.00
  -2  -3  12   25.50    4.30
  -2  -3  12   23.20    3.90
  -1  -3  12  581.44   24.80
  -1  -3  12  615.34   24.40
  -1  -3  12  610.34   23.30
   0  -3  12  188.38   10.00
   0  -3  12  194.98    8.60
   0  -3  12  190.18   10.10
   1  -3  12   14.40    3.60
   1  -3  12   13.90    2.90
   2  -3  12  596.24   23.50
   3  -3  12 2009.70   75.59
   3  -3  12 2044.70   75.09
   4  -3  12  129.19    7.40
   4  -3  12  124.99    6.10
  -5  -2  12    2.80    2.80
  -4  -2  12   11.30    2.70
  -4  -2  12   20.00    5.90
   3   2 -12    2.40    3.00
  -3  -2  12   -0.30    2.50
  -3  -2  12    5.40    4.00
   2   2 -12  962.00   36.80
  -2  -2  12  954.10   36.50
  -2  -2  12  978.40   37.40
  -1  -2  12   25.80    5.60
  -1  -2  12   29.60    3.90
  -1  -2  12   26.70    4.10
   0  -2  12  124.79    7.80
   0  -2  12  119.79    6.30
   0  -2  12  122.39    7.50
   1  -2  12 1642.84   62.29
   1  -2  12 1682.53   62.19
   2  -2  12   13.50    2.60
   3  -2  12  566.94   22.10
   3  -2  12  562.24   23.50
   4  -2  12  421.96   16.80
   4  -2  12  435.96   18.20
   5  -2  12   32.30    4.60
  -5  -1  12  421.26   16.90
  -4  -1  12   31.70    7.10
   3   1 -12 1172.48   44.70
  -3  -1  12 1172.48   44.50
  -3  -1  12 1206.18   45.80
   2   1 -12    2.70    2.90
  -2  -1  12    1.50    3.50
  -2  -1  12   -0.10    2.40
   1   1 -12   47.00    5.20
  -1  -1  12   48.30    4.30
  -1  -1  12   55.89    5.70
   0   1 -12   39.20    5.70
   0  -1  12   27.90    4.00
   0  -1  12   27.20    4.20
   0  -1  12   26.80    3.50
  -1   1 -12   28.70    5.50
   1  -1  12   19.50    2.80
   2  -1  12   59.19    4.60
   3  -1  12  562.84   25.30
   3  -1  12  529.35   21.50
   4  -1  12    2.10    2.60
   4  -1  12    0.50    5.40
   5  -1  12  103.49    6.70
  -5   0  12   -0.30    3.20
  -4   0  12  415.26   18.60
   3   0 -12    8.50    3.40
  -3   0  12    7.80    4.90
   2   0 -12    6.90    3.20
  -2   0  12    3.50    2.40
  -2   0  12    2.70    4.10
   1   0 -12    3.40    3.10
  -1   0  12   10.20    5.50
  -1   0  12   -0.60    2.00
  -1   0  12    3.50    3.70
   0   0 -12   10.10    3.80
   0   0  12    5.40    2.50
   0   0  12    3.00    3.50
   0   0  12    1.80    2.90
   1   0  12   -1.30    2.10
   1   0  12    2.30    3.90
   2   0  12  298.47   12.60
   2   0  12  277.87   18.00
   3   0  12    1.70    4.50
   3   0  12   -0.60    2.30
   4   0  12  431.96   18.80
   5   0  12   -0.70    3.00
   6   0  12   58.59    5.20
  -5   1  12  427.06   17.40
  -4   1  12   49.10    5.60
  -4   1  12   46.20    8.20
   3  -1 -12 1093.59   42.90
  -3   1  12 1097.59   42.40
  -3   1  12 1171.18   44.00
   2  -1 -12    2.20    3.40
  -2   1  12   -1.20    3.60
  -2   1  12    4.00    2.50
   1  -1 -12   48.80    6.80
  -1   1  12   49.70    4.80
  -1   1  12   74.09    7.90
  -1   1  12   51.09    7.40
   0  -1 -12   39.70    5.30
   0   1  12   38.20    6.40
   0   1  12   31.80    4.80
   0   1  12   31.70    4.80
  -1  -1 -12   20.40    6.40
   1   1  12   25.40    5.20
   1   1  12   28.20    4.30
   2   1  12   54.79    5.50
   2   1  12   51.09    9.10
   3   1  12  520.85   21.70
   3   1  12  471.35   20.10
   4   1  12    7.60    4.80
   5   1  12  101.09    6.70
  -5   2  12    1.90    2.30
  -4   2  12   15.10    5.20
  -4   2  12   15.00    3.30
   3  -2 -12   -0.10    3.10
  -3   2  12    4.30    4.00
  -3   2  12   -2.70    2.70
   2  -2 -12  927.61   36.60
  -2   2  12  944.71   35.90
  -2   2  12  917.21   37.30
   1  -2 -12   22.40    4.20
  -1   2  12   24.30    3.50
  -1   2  12   28.80    5.10
   0  -2 -12   98.09    9.40
   0   2  12  111.49    7.10
   0   2  12  115.99    8.70
   0   2  12  108.19    8.50
  -1  -2 -12 1575.54   60.59
   1   2  12 1560.84   59.39
   1   2  12 1641.24   61.29
   1   2  12 1473.15   59.59
   3   2  12  500.35   21.50
   4   2  12  385.66   16.90
   5   2  12   35.40    4.50
  -5   3  12   67.39    4.40
  -4   3  12   92.19    5.70
  -4   3  12   86.59    7.80
   3  -3 -12  325.07   18.80
  -3   3  12  399.76   20.20
   2  -3 -12   25.20    4.50
  -2   3  12   31.30    5.80
  -2   3  12   21.60    3.40
   1  -3 -12  572.44   24.40
  -1   3  12  576.24   22.90
  -1   3  12  568.84   24.80
   0  -3 -12  168.98   11.90
   0   3  12  183.68   11.20
  -1  -3 -12   11.80    6.80
   1   3  12   22.90    5.90
   2   3  12  545.85   23.20
   3   3  12 1831.62   69.09
   4   3  12  117.29    7.20
   5   3  12   14.00    3.10
  -4   4  12   84.29    6.30
   3  -4 -12  560.94   21.80
  -3   4  12  545.05   22.80
  -3   4  12  554.64   21.70
   2  -4 -12  325.47   14.80
  -2   4  12  350.86   16.20
  -2   4  12  319.07   14.00
   1  -4 -12    3.10    6.00
  -1   4  12   11.30    3.30
  -1   4  12   16.60    5.80
   0  -4 -12   65.69    9.60
   0   4  12   73.09    9.40
  -1  -4 -12  577.44   25.50
  -3   5  12   83.79    5.40
   2  -5 -12    2.30    2.20
  -2   5  12    3.60    3.20
   1  -5 -12  415.36   17.10
  -1   5  12  408.96   17.40
   0  -5 -12   45.30    6.30
   0   5  12   11.80    7.40
  -2  -5 -12   97.59    4.70
   2   5 -13  199.48    8.10
  -2  -5  13  197.18    8.60
   1   5 -13   91.69    4.90
  -1  -5  13   84.49    5.10
   0  -5  13   46.50    4.50
   0  -5  13   35.30    4.10
   1  -5  13   19.80    3.20
   2  -5  13  245.68    9.80
  -4  -4  13  163.88    6.80
  -3  -4  13  904.91   33.80
  -3  -4  13  914.61   34.40
   2   4 -13   45.30    4.10
  -2  -4  13   46.60    4.60
  -2  -4  13   45.50    3.70
  -1  -4  13   96.19   11.20
  -1  -4  13  102.39    6.50
  -1  -4  13  100.79    5.40
   0  -4  13    1.50    2.70
   0  -4  13   -0.80    3.00
   1  -4  13  192.68    9.60
   1  -4  13  188.18    9.00
   2  -4  13   38.70    3.70
   3  -4  13  149.69    6.60
  -4  -3  13   66.69    4.20
  -4  -3  13   71.19    7.00
   3   3 -13    1.60    2.70
  -3  -3  13    0.20    3.30
  -3  -3  13    1.10    1.80
   2   3 -13  285.07   12.70
  -2  -3  13  306.47   13.50
  -2  -3  13  300.37   12.30
  -1  -3  13  547.15   20.90
  -1  -3  13  551.24   22.00
  -1  -3  13  518.85   22.70
   0  -3  13  270.67   11.00
   0  -3  13  263.77   12.10
   0  -3  13  251.17   12.10
   1  -3  13   91.99    6.00
   1  -3  13   90.59    6.90
   2  -3  13  766.02   29.50
   3  -3  13  127.59    6.30
   4  -3  13    6.50    4.20
  -5  -2  13  148.99    6.80
  -4  -2  13   85.29    5.40
  -4  -2  13   89.39    8.50
   3   2 -13  193.88    9.20
  -3  -2  13  191.58   10.40
  -3  -2  13  192.18    9.00
   2   2 -13  240.38   11.20
  -2  -2  13  256.97   12.20
  -2  -2  13  248.08   10.80
   1   2 -13  274.77   12.40
  -1  -2  13  274.17   12.60
  -1  -2  13  273.37   11.40
  -1  -2  13  242.48   13.40
   0  -2  13  638.14   24.50
   0  -2  13  631.54   25.50
   0  -2  13  648.14   25.50
  -1   2 -13   13.20    4.40
   1  -2  13   13.30    3.70
   1  -2  13   13.70    3.00
   2  -2  13    3.70    2.00
   3  -2  13  245.28   10.70
   4  -2  13   33.70    3.90
   4  -2  13   34.90    5.30
   5  -2  13  435.86   17.20
  -5  -1  13  276.17   11.90
  -4  -1  13  273.87   14.00
  -4  -1  13  278.77   12.00
   3   1 -13    2.30    2.70
  -3  -1  13    1.80    2.40
  -3  -1  13   -2.20    4.50
   2   1 -13   99.29    6.80
  -2  -1  13  106.69    6.10
  -2  -1  13   94.39    7.40
   1   1 -13   50.29    5.40
  -1  -1  13   49.50    6.60
  -1  -1  13   49.99    4.50
  -1  -1  13   61.09    6.00
   0   1 -13  285.67   13.00
   0  -1  13  285.57   11.90
   0  -1  13  283.07   12.90
  -1   1 -13   18.60    4.90
   1  -1  13   10.10    2.00
   1  -1  13   19.50    4.30
   2  -1  13 1593.34   59.59
   3  -1  13   10.60    2.40
   3  -1  13    8.30    5.00
   5  -1  13   29.60    4.70
  -5   0  13  810.72   30.80
  -4   0  13   -1.90    5.20
  -4   0  13    1.70    2.70
   3   0 -13  313.37   13.80
  -3   0  13  306.17   14.90
  -3   0  13  306.57   13.20
   2   0 -13   -0.40    2.80
  -2   0  13    2.10    2.10
  -2   0  13    2.00    3.90
   1   0 -13  391.06   16.60
  -1   0  13  418.26   18.70
  -1   0  13  384.36   15.80
  -1   0  13  390.96   17.10
   0   0 -13    1.00    3.60
   0   0  13   -1.50    2.30
   0   0  13    0.30    2.80
   0   0  13    3.60    3.40
  -1   0 -13  791.72   33.60
   1   0  13  720.63   29.20
   1   0  13  751.02   29.90
   2   0  13    1.40    2.40
   3   0  13 1373.66   52.39
   3   0  13 1356.66   51.29
   4   0  13    2.80    3.70
   5   0  13  575.44   22.90
  -5   1  13  280.47   12.00
  -4   1  13  260.57   11.80
  -4   1  13  257.87   14.00
   3  -1 -13    0.20    3.00
  -3   1  13    3.10    4.00
  -3   1  13    1.50    2.40
   2  -1 -13  100.09    7.40
  -2   1  13  107.39    8.20
  -2   1  13   94.89    6.20
   1  -1 -13   53.49    6.60
  -1   1  13   57.89    6.70
  -1   1  13   57.29    8.70
  -1   1  13   54.29    5.00
   0  -1 -13  281.57   13.80
   0   1  13  276.27   13.20
   0   1  13  278.97   13.40
   0   1  13  287.57   12.30
  -1  -1 -13   13.80    5.80
   1   1  13   15.30    4.60
   1   1  13   15.70    3.70
   2   1  13 1580.94   58.19
   2   1  13 1505.45   59.19
   3   1  13   10.00    2.70
   3   1  13   14.90    5.10
   4   1  13  108.89    7.90
   5   1  13   28.20    4.30
  -5   2  13  124.69    6.40
  -4   2  13   79.59    5.80
  -4   2  13   73.99    7.90
   3  -2 -13  173.48    9.50
  -3   2  13  182.38   11.30
  -3   2  13  171.68    9.00
   2  -2 -13  221.68   11.50
  -2   2  13  234.58   12.20
  -2   2  13  223.78   10.80
   1  -2 -13  258.07   12.80
  -1   2  13  243.68   11.40
   0  -2 -13  596.54   25.20
   0   2  13  572.14   23.30
   0   2  13  615.44   25.30
  -1  -2 -13   15.10    6.60
   1   2  13    7.70    4.80
   2   2  13   -5.40    5.60
   3   2  13  218.88   12.00
   4   2  13   31.10    5.50
   5   2  13  420.76   16.80
  -5   3  13    8.00    2.30
  -4   3  13   53.79    6.00
  -4   3  13   59.79    4.50
   3  -3 -13    2.10    3.00
  -3   3  13    0.90    3.70
  -3   3  13    1.90    2.30
   2  -3 -13  276.47   13.30
  -2   3  13  274.97   12.40
  -2   3  13  284.27   14.30
   1  -3 -13  523.75   22.30
  -1   3  13  524.95   22.80
  -1   3  13  514.35   20.80
   0  -3 -13  264.87   14.10
   0   3  13  265.17   13.60
   3   3  13  118.49    7.90
   4   3  13    1.80    2.90
  -4   4  13  169.88    8.90
  -4   4  13  155.68    6.90
   3  -4 -13  864.41   32.20
  -3   4  13  877.91   33.30
  -3   4  13  820.42   32.10
   2  -4 -13   40.20    5.00
  -2   4  13   42.20    6.30
  -2   4  13   37.40    4.20
   1  -4 -13   94.69    7.60
  -1   4  13   98.59    8.10
   0  -4 -13    2.80    4.20
   0   4  13    1.90    4.40
  -1  -4 -13  188.78   12.40
  -1  -4 -13  183.28    8.40
  -4  -4 -13   55.89    3.50
   2  -5 -13  186.38    8.20
  -2   5  13  189.88    8.70
   1  -5 -13   85.79    5.60
  -1   5  13   83.99    9.00
   0  -5 -13   39.90    6.70
  -2  -5  14   70.19    4.50
   1   5 -14  105.89    5.10
  -1  -5  14  100.19    5.30
   0   5 -14  101.29    5.30
   0  -5  14   88.09    5.70
   0  -5  14   76.79    5.50
  -1   5 -14   41.50    4.30
   1  -5  14   51.99    3.40
   2  -5  14    5.00    1.50
  -3  -4  14   17.70    3.30
  -3  -4  14   16.60    2.30
   2   4 -14   46.70    3.80
  -2  -4  14   50.39    3.40
  -2  -4  14   46.60    4.40
   1   4 -14    4.70    2.50
  -1  -4  14    1.90    1.80
  -1  -4  14    0.70    2.40
   0  -4  14  131.89    7.20
   0  -4  14  131.49    7.10
  -1   4 -14  418.66   17.80
   1  -4  14  465.55   17.60
   1  -4  14  434.16   17.80
   2  -4  14   38.90    3.30
   3  -4  14   62.79    4.60
  -4  -3  14  176.78    7.10
  -4  -3  14  148.79    9.10
   3   3 -14   26.80    3.90
  -3  -3  14   37.40    3.40
  -3  -3  14   35.80    4.80
   2   3 -14   34.00    4.50
  -2  -3  14   42.00    3.90
  -2  -3  14   44.30    5.20
   1   3 -14  249.78   11.20
  -1  -3  14  237.28   11.30
  -1  -3  14  244.48   10.30
  -1  -3  14  237.78   13.30
   0  -3  14  174.08    9.00
   0  -3  14  171.08    9.00
  -1   3 -14  369.56   16.40
   1  -3  14  364.16   16.00
   1  -3  14  376.56   15.50
   2  -3  14   58.49    4.50
   3  -3  14   32.20    3.40
  -5  -2  14    7.30    2.00
  -4  -2  14    7.60    4.20
  -4  -2  14    4.50    2.00
   3   2 -14    6.70    2.80
  -3  -2  14    9.00    4.00
  -3  -2  14    2.80    2.20
   2   2 -14  253.57   11.50
  -2  -2  14  255.97   12.10
  -2  -2  14  248.48   10.90
   1   2 -14   11.40    3.40
  -1  -2  14   10.70    3.60
  -1  -2  14   16.90    2.60
  -1  -2  14   18.10    4.90
   0   2 -14 1700.53   62.99
   0  -2  14 1649.54   61.99
   0  -2  14 1679.13   62.99
   0  -2  14 1678.23   62.89
  -1   2 -14  276.97   13.60
   1  -2  14  294.37   13.30
   1  -2  14  278.57   12.50
   2  -2  14  227.88   10.30
   3  -2  14   10.40    2.50
  -5  -1  14   15.70    2.70
  -4  -1  14  146.69    9.80
  -4  -1  14  157.08    7.60
   3   1 -14  106.79    6.90
  -3  -1  14  115.29    8.70
  -3  -1  14  112.89    6.40
   2   1 -14   10.80    3.10
  -2  -1  14   11.00    4.00
  -2  -1  14    6.90    2.20
   1   1 -14 1096.39   42.10
  -1  -1  14 1134.89   41.50
  -1  -1  14 1106.69   42.50
  -1  -1  14 1080.29   42.70
   0   1 -14  445.26   18.60
   0  -1  14  438.46   17.60
   0  -1  14  450.35   18.80
   0  -1  14  435.96   18.50
  -1   1 -14  711.83   32.20
   1  -1  14  725.03   28.80
   1  -1  14  741.63   28.40
   2  -1  14  187.18    9.10
   3  -1  14  375.46   15.50
   4  -1  14   25.90    4.30
   5  -1  14  903.41   34.10
  -5   0  14   -2.30    2.60
  -4   0  14   37.10    4.40
  -4   0  14   28.40    5.30
   3   0 -14    0.90    2.80
  -3   0  14    0.60    2.10
  -3   0  14   -4.20    3.80
   2   0 -14   23.60    3.80
  -2   0  14   29.40    3.90
  -2   0  14   27.40    4.40
   1   0 -14    1.70    2.90
  -1   0  14    0.00    3.20
  -1   0  14   -0.20    2.20
  -1   0  14   -0.90    4.40
   0   0 -14 1267.57   48.60
   0   0  14 1302.67   47.80
   0   0  14 1292.37   48.80
   0   0  14 1246.38   48.50
  -1   0 -14   -4.60    4.10
   1   0  14    6.20    3.70
   1   0  14   -1.20    2.80
   2   0  14  101.69    6.40
   3   0  14   -0.10    2.20
   3   0  14   -3.30    5.70
   4   0  14  726.13   28.70
   5   0  14    0.80    3.00
  -5   1  14   18.50    2.70
  -4   1  14  159.98    9.90
  -4   1  14  148.09    7.80
   3  -1 -14  116.89    7.30
  -3   1  14  111.29    6.70
  -3   1  14  112.69    8.50
   2  -1 -14    7.20    3.20
  -2   1  14    8.50    2.50
  -2   1  14    7.80    3.40
   1  -1 -14 1054.09   40.30
  -1   1  14 1023.60   40.60
  -1   1  14 1060.89   40.90
  -1   1  14 1028.10   39.40
   0  -1 -14  419.36   18.30
   0   1  14  422.66   18.00
   0   1  14  413.96   17.00
   0   1  14  417.06   18.20
  -1  -1 -14  707.13   29.30
   1   1  14  713.53   28.60
   1   1  14  697.53   28.00
   2   1  14  184.98    9.40
   3   1  14  379.26   20.40
   4   1  14   23.10    4.20
   5   1  14  846.62   32.00
  -5   2  14    9.30    2.00
  -4   2  14    1.90    2.30
  -4   2  14    1.90    3.90
   3  -2 -14    2.70    3.10
  -3   2  14    7.70    3.60
  -3   2  14    3.40    4.10
   2  -2 -14  223.08   11.20
  -2   2  14  229.18   12.40
  -2   2  14  232.18   10.60
   1  -2 -14   10.50    3.70
  -1   2  14    7.90    2.60
  -1   2  14    5.20    3.00
   0  -2 -14 1567.94   60.29
   0   2  14 1590.44   60.39
  -1  -2 -14  262.47   14.30
   1   2  14  242.18   13.00
   2   2  14  233.98   13.40
   3   2  14    7.80    4.70
   4   2  14  430.86   17.70
  -4   3  14  166.08    8.70
  -4   3  14  164.18    7.40
   3  -3 -14   32.90    4.40
  -3   3  14   24.30    4.10
  -3   3  14   30.80    3.70
   2  -3 -14   33.50    5.60
  -2   3  14   40.60    4.40
  -2   3  14   31.20    4.90
   1  -3 -14  224.58   11.80
  -1   3  14  217.78   10.20
  -1   3  14  241.48   12.30
   0  -3 -14  168.58   10.80
   0   3  14  184.28   10.50
   3   3  14   33.70    4.70
   3  -4 -14    8.30    2.50
  -3   4  14   13.30    3.00
  -3   4  14   16.50    2.30
   2  -4 -14   44.40    4.70
  -2   4  14   49.90    5.70
  -2   4  14   61.39    5.10
   1  -4 -14    0.80    3.00
  -1   4  14    2.00    3.30
   0  -4 -14  128.39    8.50
   0   4  14  134.59    8.60
  -1  -4 -14  446.86   19.70
   2  -5 -14   56.99    3.60
   1  -5 -14   98.69    5.30
   0  -5 -14   85.59    5.90
   1   5 -15   75.79    4.00
   0   5 -15    1.70    1.90
  -3  -4  15  139.79    6.70
  -3  -4  15  128.69    5.60
   2   4 -15   58.49    3.90
  -2  -4  15   60.89    3.60
  -2  -4  15   59.39    4.30
   1   4 -15   99.89    5.60
  -1  -4  15  103.59    5.70
   0   4 -15   27.70    3.70
   0  -4  15   26.30    3.90
  -1   4 -15  288.87   12.30
   2  -4  15  424.56   16.50
  -4  -3  15   35.20    2.80
   3   3 -15    5.90    2.30
  -3  -3  15    3.80    3.00
  -3  -3  15    2.40    1.60
   2   3 -15   83.19    5.50
  -2  -3  15   84.19    5.80
  -2  -3  15   79.19    4.70
   1   3 -15   27.00    3.80
  -1  -3  15   34.20    5.20
  -1  -3  15   27.20    4.80
  -1  -3  15   35.40    3.50
   0   3 -15   37.50    5.10
   0  -3  15   48.20    7.20
   0  -3  15   32.00    4.70
  -1   3 -15   35.20    4.50
   1  -3  15   36.00    5.90
   1  -3  15   34.40    4.10
   2  -3  15  146.59    7.20
   3  -3  15   36.30    3.10
  -4  -2  15    6.00    3.90
  -4  -2  15    4.60    1.70
   3   2 -15  510.85   20.20
  -3  -2  15  520.15   20.00
  -3  -2  15  519.45   21.10
   2   2 -15  213.68   10.00
  -2  -2  15  203.78   10.40
  -2  -2  15  210.48    9.30
   1   2 -15  594.64   23.00
  -1  -2  15  558.34   21.90
  -1  -2  15  565.74   23.80
  -1  -2  15  556.54   23.00
   0   2 -15   19.30    3.60
   0  -2  15   16.30    3.40
   0  -2  15   31.30    4.30
   0  -2  15   24.30    3.90
  -1   2 -15  193.58   10.40
   1  -2  15  174.58    9.70
   1  -2  15  186.58    9.20
   2  -2  15    3.10    2.20
   3  -2  15  402.46   16.00
  -5  -1  15   44.70    3.90
  -4  -1  15   91.89    5.50
  -4  -1  15  107.69    7.70
   3   1 -15  254.67   11.80
  -3  -1  15  278.37   12.90
  -3  -1  15  260.47   11.50
   2   1 -15  284.27   12.90
  -2  -1  15  289.07   12.20
  -2  -1  15  296.57   13.70
   1   1 -15   70.09    5.90
  -1  -1  15   65.69    4.80
  -1  -1  15   72.19    6.90
  -1  -1  15   76.69    7.80
   0   1 -15  435.16   18.10
   0  -1  15  426.56   18.10
   0  -1  15  416.26   16.80
   0  -1  15  415.16   17.90
  -1   1 -15  164.28   15.50
   1  -1  15  178.78    9.90
   1  -1  15  193.78    9.20
   2  -1  15 1207.38   45.70
   3  -1  15   30.30    3.90
  -5   0  15  192.98    8.50
  -4   0  15    0.40    2.10
  -4   0  15    1.00    3.40
  -3   0  15  463.45   19.10
   2   0 -15    3.10    2.90
  -2   0  15    0.50    2.20
  -2   0  15    4.70    3.30
   1   0 -15  612.14   25.00
  -1   0  15  635.04   25.50
  -1   0  15  627.44   25.90
  -1   0  15  626.14   24.30
   0   0 -15    4.90    3.10
   0   0  15    0.30    2.60
   0   0  15   -3.30    2.90
   0   0  15   -1.40    2.80
  -1   0 -15 1263.17   48.20
   1   0  15 1251.77   47.90
   1   0  15 1249.77   47.60
   2   0  15    0.80    2.20
   3   0  15   38.80    5.60
   4   0  15   -4.90    4.10
  -5   1  15   40.60    3.50
  -4   1  15   95.79    5.60
  -4   1  15   85.19    7.40
   3  -1 -15  234.98   11.10
  -3   1  15  243.28   11.50
  -3   1  15  243.38   12.20
   2  -1 -15  266.17   12.30
  -2   1  15  268.17   13.10
  -2   1  15  260.67   11.60
   1  -1 -15   66.39    6.40
  -1   1  15   62.49    8.50
  -1   1  15   66.19    5.20
  -1   1  15   67.59    6.60
   0  -1 -15  403.76   17.50
   0   1  15  379.96   17.10
   0   1  15  390.46   16.00
   0   1  15  401.56   17.50
  -1  -1 -15  171.58   11.50
   1   1  15  173.18    9.10
   1   1  15  170.78   10.00
   2   1  15 1205.18   45.80
   3   1  15   30.10    6.30
   4   1  15   91.89    7.10
  -4   2  15    5.40    1.90
  -4   2  15    8.60    3.60
   3  -2 -15  501.55   19.90
  -3   2  15  485.35   19.60
  -3   2  15  497.75   20.90
   2  -2 -15  174.28    9.60
  -2   2  15  208.38   10.80
  -2   2  15  198.18    9.20
   1  -2 -15  518.65   21.60
  -1   2  15  532.25   22.10
  -1   2  15  497.45   20.50
   0  -2 -15   28.40    4.80
   0   2  15   27.80    4.70
  -1  -2 -15  150.88   10.90
   1   2  15  152.78    9.90
   3   2  15  388.26   16.90
   4   2  15   54.19    5.90
  -4   3  15   29.70    5.20
  -4   3  15   35.30    3.10
   3  -3 -15    2.90    2.20
  -3   3  15    1.10    3.40
  -3   3  15    2.20    1.90
   2  -3 -15   77.69    6.00
  -2   3  15   74.39    6.70
  -2   3  15   81.49    5.00
   1  -3 -15   33.00    5.40
  -1   3  15   29.10    4.60
   0  -3 -15   37.40    5.30
   0   3  15   42.30    6.30
  -1  -3 -15   30.40    5.90
  -3   4  15  130.09    6.60
   2  -4 -15   53.39    4.20
  -2   4  15   54.79    4.90
   1  -4 -15   93.79    6.10
  -1   4  15   93.89    6.30
   0  -4 -15   20.60    3.50
   0   4  15   29.10    4.60
  -1  -4 -15  336.57   15.90
  -2  -4 -15  339.27   13.10
   1  -5 -15   89.19    5.20
   2   4 -16   12.00    2.00
  -2  -4  16   11.70    2.40
   1   4 -16   31.80    3.30
  -1  -4  16   31.70    3.80
   0   4 -16   54.49    4.30
   0  -4  16   58.49    5.10
   0  -4  16   54.99    4.40
  -1   4 -16   89.69    6.30
   1  -4  16   99.39    5.10
   2  -4  16  882.71   32.80
  -3  -3  16   79.59    4.10
  -3  -3  16   81.49    5.50
   2   3 -16   31.30    3.70
  -2  -3  16   37.70    4.50
  -2  -3  16   32.50    3.00
   1   3 -16  377.46   15.40
  -1  -3  16  385.56   16.40
  -1  -3  16  360.16   15.50
  -1  -3  16  373.76   14.60
   0   3 -16  102.59    6.50
   0  -3  16  118.59    6.80
   0  -3  16  114.49    6.80
  -1   3 -16  223.68   10.70
   1  -3  16  223.18    9.90
   2  -3  16  165.78    7.60
   3  -3  16   35.30    3.50
  -4  -2  16  340.37   15.90
  -4  -2  16  371.56   15.10
   3   2 -16   40.00    4.20
  -3  -2  16   38.30    5.00
  -3  -2  16   34.30    3.30
   2   2 -16   34.90    4.40
  -2  -2  16   35.20    5.70
  -2  -2  16   32.20    3.60
   1   2 -16    5.50    3.10
  -1  -2  16    7.80    3.40
  -1  -2  16   11.90    4.20
   0   2 -16  586.24   23.00
   0  -2  16  541.55   23.00
   0  -2  16  574.34   23.00
  -1   2 -16  115.29    8.30
   1  -2  16  107.19    7.70
   2  -2  16  143.59    7.30
   3  -2  16  258.87   10.80
  -4  -1  16    1.10    1.60
  -4  -1  16   -4.70    3.60
   3   1 -16  198.98    9.60
  -3  -1  16  213.78   10.60
  -3  -1  16  220.78    9.40
   2   1 -16   16.60    3.30
  -2  -1  16   17.10    2.50
  -2  -1  16   19.00    4.10
   1   1 -16  213.28   10.60
  -1  -1  16  217.48   12.30
  -1  -1  16  219.18    9.80
  -1  -1  16  230.98   11.20
   0   1 -16  606.24   24.80
   0  -1  16  610.14   24.60
   0  -1  16  627.24   24.80
  -1   1 -16  139.99    9.70
   1  -1  16  154.38    8.90
   1  -1  16  142.89    7.80
   2  -1  16    1.70    2.40
   3  -1  16   41.10    4.00
  -4   0  16  652.23   25.30
  -4   0  16  581.84   23.50
   3   0 -16    0.30    2.70
  -3   0  16    1.00    2.10
  -3   0  16   -0.60    3.10
   2   0 -16   37.20    5.00
  -2   0  16   44.70    5.80
  -2   0  16   32.00    4.10
   1   0 -16    0.20    2.90
  -1   0  16    3.00    2.20
  -1   0  16   -1.00    4.60
  -1   0  16   -1.40    2.90
   0   0 -16  606.14   25.00
   0   0  16  631.64   25.30
   0   0  16  628.34   25.10
  -1   0 -16   -4.40    4.50
   1   0  16    1.10    2.40
   1   0  16    0.90    4.00
   2   0  16  227.68   10.50
   3   0  16   -0.90    2.10
  -4   1  16    3.60    2.20
  -4   1  16    6.50    5.90
   3  -1 -16  203.98    9.60
  -3   1  16  194.38   10.20
  -3   1  16  202.58    9.20
   2  -1 -16   14.80    3.30
  -2   1  16   14.30    3.60
  -2   1  16   15.70    2.60
   1  -1 -16  207.38   10.20
  -1   1  16  197.98   10.60
  -1   1  16  197.68   11.60
  -1   1  16  196.38    9.20
   0  -1 -16  598.24   23.80
   0   1  16  543.25   23.40
   0   1  16  586.14   23.70
  -1  -1 -16  143.89   10.10
   1   1  16  140.89    8.00
   1   1  16  144.39    9.50
   2   1  16   -3.30    2.50
  -4   2  16  288.07   12.20
  -4   2  16  265.07   11.20
   3  -2 -16   34.80    4.20
  -3   2  16   36.00    3.50
  -3   2  16   34.90    4.90
   2  -2 -16   22.60    3.50
  -2   2  16   23.10    4.10
  -2   2  16   34.40    3.90
   1  -2 -16    9.10    3.10
  -1   2  16    2.70    3.30
  -1   2  16   12.20    3.70
   0  -2 -16  509.85   21.50
   0   2  16  513.25   21.50
   3  -3 -16   77.89    5.40
  -3   3  16   78.49    5.50
  -3   3  16   80.59    4.50
   2  -3 -16   31.60    4.10
  -2   3  16   29.90    3.60
  -2   3  16   20.30    3.50
   1  -3 -16  341.97   14.60
  -1   3  16  328.07   14.80
   0  -3 -16  112.19    7.70
   0   3  16  113.29    7.80
  -1  -3 -16  207.78   11.70
   2  -4 -16   13.10    2.10
  -2   4  16   11.40    2.60
   1  -4 -16   30.90    3.80
  -1   4  16   34.90    4.70
   0  -4 -16   49.20    5.30
  -2  -4  17   32.90    3.80
   1   4 -17  200.88    8.30
  -1  -4  17  200.78    8.60
   0   4 -17   -0.50    1.90
  -1   4 -17   43.10    5.70
   1  -4  17   32.00    2.90
  -3  -3  17   30.50    2.60
  -3  -3  17   28.60    3.70
   2   3 -17  301.47   12.30
  -2  -3  17  301.97   12.80
  -2  -3  17  323.07   12.10
   1   3 -17  128.49    6.50
  -1  -3  17  126.89    6.80
   0   3 -17  467.95   18.20
   0  -3  17  440.96   18.10
   0  -3  17  450.45   18.10
  -1   3 -17  262.77   11.50
   1  -3  17  253.67   10.90
   2  -3  17   18.50    2.50
  -4  -2  17   53.09    3.40
   3   2 -17    2.00    2.50
  -3  -2  17    0.90    2.50
  -3  -2  17    5.30    1.70
   2   2 -17  129.69    6.80
  -2  -2  17  137.09    6.30
  -2  -2  17  128.79    7.40
   1   2 -17  500.25   20.00
  -1  -2  17  500.55   20.20
  -1  -2  17  492.25   19.10
  -1  -2  17  491.25   20.70
   0   2 -17  127.59    7.60
   0  -2  17  115.89    7.10
   0  -2  17  120.49    7.40
  -1   2 -17   89.69    6.80
   1  -2  17   82.09    5.20
   1  -2  17   64.89    6.50
   2  -2  17   -1.50    1.80
   3  -2  17  288.57   11.50
  -4  -1  17    7.20    3.90
   3   1 -17    7.30    2.40
  -3  -1  17    4.10    1.90
  -3  -1  17    2.60    2.90
   2   1 -17  717.83   28.10
  -2  -1  17  728.73   28.60
  -2  -1  17  722.03   27.50
  -1  -1  17    2.60    4.80
  -1  -1  17   -2.00    4.50
  -1  -1  17   -0.50    3.50
   0   1 -17    6.10    3.70
   0  -1  17    6.20    3.20
   0  -1  17    4.60    4.80
  -1   1 -17  102.39    7.90
   1  -1  17  107.09    7.70
   2  -1  17   29.10    3.80
   3  -1  17    3.40    2.00
  -4   0  17    4.70    3.80
  -4   0  17    2.60    2.00
   3   0 -17   16.70    3.00
  -3   0  17   21.80    3.80
  -3   0  17   21.60    3.50
   2   0 -17   -3.00    2.50
  -2   0  17    0.80    2.10
  -2   0  17   -2.50    2.70
   1   0 -17 1626.94   63.79
  -1   0  17 1729.93   63.19
  -1   0  17 1657.03   64.09
  -1   0  17 1789.82   64.49
   0   0 -17    2.60    3.30
   0   0  17    0.50    2.90
   0   0  17    0.90    2.80
  -1   0 -17   19.30    5.00
   1   0  17   23.20    3.50
   1   0  17   14.60    4.20
   2   0  17    0.60    2.30
   3   0  17  225.38    9.70
  -4   1  17    2.60    3.30
  -4   1  17    9.60    3.20
   3  -1 -17    3.80    2.40
  -3   1  17    5.90    3.10
  -3   1  17    7.40    2.20
   2  -1 -17  686.63   26.70
  -2   1  17  648.24   27.10
  -2   1  17  698.83   26.10
   1  -1 -17    1.20    3.50
  -1   1  17    2.60    2.40
  -1   1  17    0.30    3.50
   0  -1 -17    6.20    3.60
   0   1  17    5.30    3.90
   0   1  17    3.00    2.90
   3  -2 -17    1.70    2.10
  -3   2  17    1.70    2.80
  -3   2  17    2.00    1.70
   2  -2 -17  119.29    6.80
  -2   2  17  119.79    7.50
  -2   2  17  122.29    6.10
   1  -2 -17  439.06   18.40
  -1   2  17  450.25   18.80
   0  -2 -17  104.69    7.10
   0   2  17  103.79    7.10
  -1  -2 -17   86.49    8.10
  -3   3  17   23.30    3.80
   2  -3 -17  285.97   12.20
  -2   3  17  303.27   12.80
   1  -3 -17  114.69    6.60
  -1   3  17  115.19    6.90
   0  -3 -17  423.16   17.70
   0   3  17  431.86   17.60
  -1  -3 -17  161.98   11.00
   2  -4 -17   33.80    4.50
   1  -4 -17  187.98    8.10
   0  -4 -17   -0.40    2.50
   2   3 -18    7.40    1.90
  -2  -3  18    7.30    2.10
   1   3 -18   93.69    5.20
  -1  -3  18  101.29    5.40
   0  -3  18   17.00    4.20
   0  -3  18   21.80    3.50
  -1   3 -18  127.69    7.10
   1  -3  18  138.99    6.30
   2  -3  18   10.60    1.80
  -3  -2  18    1.80    2.30
  -3  -2  18    2.90    1.50
   2   2 -18   44.10    3.90
  -2  -2  18   46.60    3.30
  -2  -2  18   51.89    4.30
   1   2 -18  146.09    7.50
  -1  -2  18  145.99    7.80
  -1  -2  18  162.28    9.40
   0   2 -18    1.80    2.90
   0  -2  18   -0.90    2.40
   0  -2  18   -2.90    2.60
  -1   2 -18    4.50    3.30
   1  -2  18    4.80    2.10
   2  -2  18  376.16   14.90
   3  -2  18   55.79    3.50
  -4  -1  18   -1.50    1.70
  -3  -1  18  305.87   12.00
  -3  -1  18  298.87   12.90
   2   1 -18   26.40    4.00
  -2  -1  18   25.70    4.60
  -2  -1  18   28.40    3.20
   1   1 -18   99.69    6.30
  -1  -1  18   90.19    7.90
  -1  -1  18   91.39    5.30
  -1  -1  18   90.59    6.50
   0   1 -18   58.89    5.50
   0  -1  18   65.39    5.80
   0  -1  18   60.49    5.60
  -1   1 -18  339.27   15.00
   1  -1  18  325.37   14.00
   2  -1  18  156.68    7.50
   3  -1  18  332.87   13.10
   3   0 -18   -0.10    2.00
  -3   0  18    0.40    1.80
  -3   0  18    0.40    2.50
   2   0 -18  324.87   14.40
  -2   0  18  358.66   14.00
  -2   0  18  362.66   15.20
   1   0 -18    1.30    2.80
  -1   0  18   -8.70    4.20
  -1   0  18    1.90    2.80
  -1   0  18    0.10    2.40
   0   0 -18  391.96   16.90
   0   0  18  391.56   17.00
   0   0  18  402.06   16.80
  -1   0 -18   -2.60    3.90
   1   0  18    0.80    4.20
   1   0  18   -1.20    2.30
   2   0  18 1019.50   38.60
  -4   1  18    3.20    2.40
   3  -1 -18  325.47   12.60
  -3   1  18  288.47   12.20
  -3   1  18  304.07   13.10
   2  -1 -18   27.70    3.90
  -2   1  18   17.20    2.40
  -2   1  18   17.60    3.40
   1  -1 -18   86.29    6.00
  -1   1  18   89.79    6.20
   0  -1 -18   59.39    5.80
   0   1  18   59.29    6.00
  -1  -1 -18  305.27   14.30
   1   1  18  303.37   13.10
   3  -2 -18    5.90    2.40
  -3   2  18    0.20    2.20
  -3   2  18    0.30    1.60
   2  -2 -18   52.59    4.20
  -2   2  18   47.80    4.50
   1  -2 -18  128.49    7.10
  -1   2  18  133.59    7.30
   0  -2 -18   -2.20    2.60
   0   2  18    5.90    3.10
  -1  -2 -18    3.60    4.00
   2  -3 -18    6.50    1.90
  -2   3  18   11.80    2.40
   1  -3 -18   88.99    5.30
  -1   3  18   92.89    5.90
   0  -3 -18   19.60    2.90
   1   3 -19    5.80    1.80
  -1  -3  19    6.20    2.10
   0   3 -19  203.78    8.80
   0  -3  19  210.08    9.20
   1  -3  19   41.70    3.30
   2   2 -19   12.60    2.50
   1   2 -19  116.59    6.00
  -1  -2  19  104.29    5.90
   0   2 -19   -0.70    2.20
   0  -2  19    3.30    2.50
   0  -2  19    4.70    2.50
  -1   2 -19  634.04   24.50
   1  -2  19  619.04   24.00
  -3  -1  19  101.49    4.90
   2   1 -19   10.80    2.30
  -2  -1  19    8.00    2.30
  -2  -1  19    8.10    2.50
   1   1 -19    4.90    2.50
  -1  -1  19    3.70    2.40
  -1  -1  19    8.20    5.00
   0   1 -19  360.86   14.90
   0  -1  19  352.26   14.70
   0  -1  19  341.77   14.70
  -1   1 -19    7.30    3.60
   1  -1  19    4.30    1.90
   2  -1  19  103.39    5.40
  -3   0  19    8.00    1.70
  -3   0  19   12.60    2.60
   2   0 -19   -0.30    2.10
  -2   0  19    3.70    2.00
  -2   0  19    0.00    2.40
   1   0 -19  360.96   15.00
  -1   0  19  355.76   15.20
   0   0 -19    1.70    3.00
   0   0  19   -4.10    2.10
   0   0  19   -2.10    2.50
  -1   0 -19  645.84   26.00
   1   0  19  668.73   25.60
   2   0  19   -2.50    1.80
  -3   1  19   96.19    5.40
   2  -1 -19    5.90    1.80
  -2   1  19   11.70    2.80
  -2   1  19   11.10    2.60
   1  -1 -19    6.80    2.50
  -1   1  19    4.70    2.70
   0  -1 -19  323.17   14.10
   0   1  19  334.07   14.10
  -1  -1 -19    8.50    4.00
   2  -2 -19   13.40    2.30
  -2   2  19   19.50    3.30
   1  -2 -19  100.79    5.70
  -1   2  19  101.09    5.90
   0  -2 -19    4.60    2.70
   0   2  19   12.10    6.10
  -1  -2 -19  593.04   23.70
   1  -3 -19    4.90    2.00
   0  -3 -19  201.28    9.00
  -2  -2  20  205.18    8.60
   1   2 -20   21.10    3.10
  -1  -2  20   19.70    3.50
   0   2 -20  183.48    8.20
   0  -2  20  183.68    8.40
   1  -2  20    5.60    1.70
   2   1 -20   26.20    3.00
  -2  -1  20   17.70    3.20
   1   1 -20  740.73   28.30
  -1  -1  20  745.93   28.40
   0   1 -20   10.20    2.80
   0  -1  20   12.30    2.80
  -1   1 -20   76.39    6.00
   1  -1  20   70.79    4.50
   2  -1  20    2.10    1.50
   2   0 -20  440.36   17.30
  -2   0  20  378.76   16.60
   1   0 -20   -1.30    2.00
  -1   0  20   -1.60    2.20
   0   0 -20  114.29    6.30
   0   0  20  107.39    6.30
   0   0  20   99.79    6.60
  -1   0 -20   -1.80    3.60
   1   0  20   -1.60    1.80
   2  -1 -20   28.50    3.00
  -2   1  20   25.50    3.30
   1  -1 -20  697.53   26.70
  -1   1  20  699.93   26.80
   0  -1 -20    6.10    2.70
   0   1  20    7.70    3.40
  -1  -1 -20   54.19    6.70
   2  -2 -20  238.78    9.80
  -2   2  20  225.88   10.10
   1  -2 -20   20.20    3.10
   0  -2 -20  177.98    8.20
   1   1 -21    8.40    1.80
  -1  -1  21    8.30    2.60
   0   1 -21  158.08    7.30
  -2   0  21    4.10    2.40
   1   0 -21    4.90    2.00
  -1   0  21   11.40    2.60
   0   0 -21   -2.50    2.20
   1  -1 -21   10.40    2.00
   0  -1 -21  167.48    7.80
   0   0   0    0.00    0.00

_computing_structure_solution     'SHELXT 2014/5 (Sheldrick, 2014)'
;
_shelx_hkl_checksum              54667
_olex2_submission_special_instructions 'No special instructions were received'
loop_
_space_group_symop_operation_xyz
'x, y, z'
'-x+1/2, y+1/2, -z+1/2'
'-x, -y, -z'
'x-1/2, -y-1/2, z-1/2'
loop_
_atom_site_label
_atom_site_type_symbol
_atom_site_fract_x
_atom_site_fract_y
_atom_site_fract_z
_atom_site_U_iso_or_equiv
_atom_site_adp_type
_atom_site_occupancy
_atom_site_site_symmetry_order
_atom_site_calc_flag
_atom_site_refinement_flags_posn
S1 S 0.40356(8) 0.52263(8) 0.31778(2) 0.02101(18) Uani 1 1 d .
F1 F 0.1885(2) 0.9110(2) 0.38417(6) 0.0244(3) Uani 1 1 d .
N1 N 0.7715(3) 0.4682(3) 0.40210(9) 0.0200(4) Uani 1 1 d .
C1 C 0.3023(3) 1.1446(3) 0.49160(10) 0.0187(4) Uani 1 1 d .
H1 H 0.166638 1.240449 0.484751 0.022 Uiso 1 1 calc R
C2 C 0.3454(4) 0.9551(3) 0.44247(10) 0.0190(4) Uani 1 1 d .
C3 C 0.5392(3) 0.8049(3) 0.44797(10) 0.0176(4) Uani 1 1 d .
C4 C 0.5852(3) 0.6045(3) 0.39493(10) 0.0180(4) Uani 1 1 d .
C5 C 0.7736(4) 0.2950(3) 0.34539(10) 0.0224(4) Uani 1 1 d .
H5 H 0.895694 0.180136 0.341909 0.027 Uiso 1 1 calc R
C6 C 0.5916(4) 0.2965(3) 0.29442(10) 0.0217(4) Uani 1 1 d .
H6 H 0.571834 0.187973 0.252113 0.026 Uiso 1 1 calc R
loop_
_atom_site_aniso_label
_atom_site_aniso_U_11
_atom_site_aniso_U_22
_atom_site_aniso_U_33
_atom_site_aniso_U_23
_atom_site_aniso_U_13
_atom_site_aniso_U_12
S1 0.0165(3) 0.0249(3) 0.0215(3) -0.00096(15) -0.00485(19) 0.00354(16)
F1 0.0166(7) 0.0301(6) 0.0263(6) -0.0048(4) -0.0101(5) 0.0075(4)
N1 0.0154(10) 0.0227(8) 0.0218(7) 0.0011(6) -0.0019(6) 0.0036(6)
C1 0.0122(11) 0.0225(9) 0.0215(8) 0.0043(7) -0.0012(7) 0.0028(7)
C2 0.0152(11) 0.0241(9) 0.0177(8) 0.0030(6) -0.0046(7) 0.0008(7)
C3 0.0137(11) 0.0201(8) 0.0190(8) 0.0037(6) 0.0004(7) 0.0000(6)
C4 0.0140(11) 0.0207(8) 0.0193(8) 0.0036(6) -0.0021(7) -0.0012(7)
C5 0.0204(12) 0.0224(9) 0.0244(9) 0.0017(7) -0.0011(8) 0.0035(7)
C6 0.0196(12) 0.0228(9) 0.0227(9) -0.0015(7) -0.0008(7) 0.0009(7)
loop_
_atom_type_symbol
_atom_type_description
_atom_type_scat_dispersion_real
_atom_type_scat_dispersion_imag
_atom_type_scat_source
C C 0.0181 0.0091 'International Tables Vol C Tables 4.2.6.8 and 6.1.1.4'
H H 0.0000 0.0000 'International Tables Vol C Tables 4.2.6.8 and 6.1.1.4'
F F 0.0727 0.0534 'International Tables Vol C Tables 4.2.6.8 and 6.1.1.4'
N N 0.0311 0.0180 'International Tables Vol C Tables 4.2.6.8 and 6.1.1.4'
S S 0.3331 0.5567 'International Tables Vol C Tables 4.2.6.8 and 6.1.1.4'
loop_
_geom_angle_atom_site_label_1
_geom_angle_atom_site_label_2
_geom_angle_atom_site_label_3
_geom_angle
_geom_angle_site_symmetry_1
_geom_angle_site_symmetry_3
C6 S1 C4 89.71(9) . .
C4 N1 C5 110.48(16) . .
C2 C1 H1 120.4 . .
C2 C1 C3 119.25(18) . 3_676
C3 C1 H1 120.4 3_676 .
F1 C2 C1 117.87(17) . .
F1 C2 C3 117.70(16) . .
C1 C2 C3 124.43(18) . .
C1 C3 C4 119.51(17) 3_676 .
C2 C3 C1 116.33(16) . 3_676
C2 C3 C4 124.16(17) . .
N1 C4 S1 113.76(14) . .
N1 C4 C3 122.04(16) . .
C3 C4 S1 124.20(14) . .
N1 C5 H5 121.9 . .
C6 C5 N1 116.28(18) . .
C6 C5 H5 121.9 . .
S1 C6 H6 125.1 . .
C5 C6 S1 109.76(14) . .
C5 C6 H6 125.1 . .
loop_
_geom_bond_atom_site_label_1
_geom_bond_atom_site_label_2
_geom_bond_distance
_geom_bond_site_symmetry_2
S1 C4 1.7396(18) .
S1 C6 1.707(2) .
F1 C2 1.363(2) .
N1 C4 1.315(2) .
N1 C5 1.369(2) .
C1 H1 0.9500 .
C1 C2 1.373(3) .
C1 C3 1.403(3) 3_676
C2 C3 1.393(3) .
C3 C4 1.464(2) .
C5 H5 0.9500 .
C5 C6 1.358(3) .
C6 H6 0.9500 .
