#------------------------------------------------------------------------------
#$Date: 2019-11-24 03:15:12 +0200 (Sun, 24 Nov 2019) $
#$Revision: 236440 $
#$URL: file:///home/coder/svn-repositories/cod/cif/1/55/40/1554019.cif $
#------------------------------------------------------------------------------
#
# This file is available in the Crystallography Open Database (COD),
# http://www.crystallography.net/
#
# All data on this site have been placed in the public domain by the
# contributors.
#
data_1554019
loop_
_publ_author_name
'Sun, Xingxing'
'Zhang, Baicheng'
'Li, Xinyang'
'Trindle, Carl O.'
'Zhang, Guoqing'
_publ_section_title
;
 External Heavy-Atom Effect via Orbital Interactions Revealed by
 Single-Crystal X-ray Diffraction.
;
_journal_issue                   29
_journal_name_full               'The journal of physical chemistry. A'
_journal_page_first              5791
_journal_page_last               5797
_journal_paper_doi               10.1021/acs.jpca.6b03867
_journal_volume                  120
_journal_year                    2016
_chemical_formula_sum            'C11 H12 F6 N P'
_chemical_formula_weight         303.19
_space_group_crystal_system      triclinic
_space_group_IT_number           2
_space_group_name_Hall           '-P 1'
_space_group_name_H-M_alt        'P -1'
_atom_sites_solution_hydrogens   geom
_audit_creation_method           SHELXL-2013
_cell_angle_alpha                78.273(9)
_cell_angle_beta                 85.744(9)
_cell_angle_gamma                74.308(11)
_cell_formula_units_Z            2
_cell_length_a                   6.9573(9)
_cell_length_b                   8.2064(11)
_cell_length_c                   11.7459(10)
_cell_measurement_reflns_used    1893
_cell_measurement_temperature    290(2)
_cell_measurement_theta_max      28.9759
_cell_measurement_theta_min      3.4306
_cell_volume                     632.02(14)
_computing_cell_refinement       'CrysAlisPro (Agilent Technologies)'
_computing_data_collection       'CrysAlisPro (Agilent Technologies)'
_computing_data_reduction        'CrysAlisPro (Agilent Technologies)'
_computing_molecular_graphics    'Ortep-3 (L. J. Farrugia, 2001)'
_computing_publication_material  SHELXL-2013
_computing_structure_refinement  'SHELXL-2013 (Sheldrick, 2013)'
_computing_structure_solution    'SHELXS-97 (Sheldrick, 1997)'
_diffrn_ambient_temperature      290(2)
_diffrn_detector_area_resol_mean 15.9149
_diffrn_measured_fraction_theta_full 0.994
_diffrn_measured_fraction_theta_max 0.993
_diffrn_measurement_device_type  'Gemini S Ultra, Agilent Technologies'
_diffrn_measurement_method       '\w scans'
_diffrn_radiation_type           MoK\a
_diffrn_radiation_wavelength     0.71073
_diffrn_reflns_av_R_equivalents  0.0192
_diffrn_reflns_av_unetI/netI     0.0254
_diffrn_reflns_Laue_measured_fraction_full 0.994
_diffrn_reflns_Laue_measured_fraction_max 0.993
_diffrn_reflns_limit_h_max       8
_diffrn_reflns_limit_h_min       -6
_diffrn_reflns_limit_k_max       10
_diffrn_reflns_limit_k_min       -10
_diffrn_reflns_limit_l_max       14
_diffrn_reflns_limit_l_min       -14
_diffrn_reflns_number            5306
_diffrn_reflns_point_group_measured_fraction_full 0.994
_diffrn_reflns_point_group_measured_fraction_max 0.993
_diffrn_reflns_theta_full        25.242
_diffrn_reflns_theta_max         26.371
_diffrn_reflns_theta_min         3.438
_diffrn_source                   'Enhance (Mo) X-ray Source'
_exptl_absorpt_coefficient_mu    0.276
_exptl_absorpt_correction_T_max  1.00000
_exptl_absorpt_correction_T_min  0.95619
_exptl_absorpt_correction_type   multi-scan
_exptl_absorpt_process_details
;
CrysAlisPro, Agilent Technologies,
Version 1.171.36.21 (release 14-08-2012 CrysAlis171 .NET)
(compiled Sep 14 2012,17:21:16)
Empirical absorption correction using spherical harmonics,
 implemented in SCALE3 ABSPACK scaling algorithm.
;
_exptl_crystal_density_diffrn    1.593
_exptl_crystal_description       block
_exptl_crystal_F_000             308
_exptl_crystal_size_max          0.360
_exptl_crystal_size_mid          0.320
_exptl_crystal_size_min          0.310
_refine_diff_density_max         0.332
_refine_diff_density_min         -0.298
_refine_diff_density_rms         0.049
_refine_ls_extinction_method     none
_refine_ls_goodness_of_fit_ref   1.082
_refine_ls_hydrogen_treatment    constr
_refine_ls_matrix_type           full
_refine_ls_number_parameters     173
_refine_ls_number_reflns         2578
_refine_ls_number_restraints     0
_refine_ls_restrained_S_all      1.082
_refine_ls_R_factor_all          0.0678
_refine_ls_R_factor_gt           0.0566
_refine_ls_shift/su_max          0.000
_refine_ls_shift/su_mean         0.000
_refine_ls_structure_factor_coef Fsqd
_refine_ls_weighting_details
'w=1/[\s^2^(Fo^2^)+(0.0917P)^2^+0.1699P] where P=(Fo^2^+2Fc^2^)/3'
_refine_ls_weighting_scheme      calc
_refine_ls_wR_factor_gt          0.1597
_refine_ls_wR_factor_ref         0.1707
_reflns_Friedel_coverage         0.000
_reflns_number_gt                2076
_reflns_number_total             2578
_reflns_threshold_expression     'I > 2\s(I)'
_cod_data_source_file            jp6b03867_si_016.cif
_cod_data_source_block           shelxl
_cod_database_code               1554019
_shelx_space_group_comment
;
The symmetry employed for this shelxl refinement is uniquely defined
by the following loop, which should always be used as a source of
symmetry information in preference to the above space-group names.
They are only intended as comments.
;
_shelx_estimated_absorpt_t_min   0.907
_shelx_estimated_absorpt_t_max   0.919
_shelxl_version_number           2013-4
_shelx_res_file
;
TITL lxy0609-qPF6 in P-1
CELL  0.71073   6.9573   8.2064  11.7459   78.273   85.744   74.308
ZERR     2.00   0.0009   0.0011   0.0010    0.009    0.009    0.011
LATT   1
SFAC  C    H    F    P    N
UNIT  22   24   12   2    2
MERG   2
SHEL 53 0.8
FMAP   2
PLAN   25
SIZE     0.31   0.32   0.36
ACTA
BOND   $H
CONF
L.S.   4
WGHT    0.091700    0.169900
FVAR      16.48901
P1    4    0.113623    0.767357    0.221771    11.00000    0.06227    0.05522 =
         0.04850   -0.01066   -0.00168   -0.02067
F5    3    0.110724    0.608392    0.320064    11.00000    0.14366    0.07996 =
         0.10082    0.02484    0.00173   -0.02596
N1    5    0.605767    0.212973    0.189692    11.00000    0.05312    0.04533 =
         0.05215   -0.01380   -0.00008   -0.00948
F2    3    0.066566    0.885218    0.316839    11.00000    0.14717    0.12886 =
         0.10599   -0.07186    0.03828   -0.07262
F3    3    0.116321    0.929785    0.124642    11.00000    0.17739    0.09606 =
         0.09779    0.02363    0.02239   -0.03742
F4    3    0.156565    0.652259    0.126683    11.00000    0.17407    0.13604 =
         0.10918   -0.08108    0.04000   -0.06196
F1    3    0.342699    0.744464    0.236191    11.00000    0.06909    0.18611 =
         0.12117   -0.03258    0.00109   -0.04020
F6    3   -0.117734    0.797142    0.209372    11.00000    0.07015    0.17580 =
         0.09885   -0.02980   -0.01363   -0.03019
C9    1    0.515075    0.216722    0.297946    11.00000    0.05000    0.03894 =
         0.04827   -0.00791   -0.00324   -0.00374
C4    1    0.593827    0.288038    0.377995    11.00000    0.05742    0.04335 =
         0.05522   -0.01406   -0.01069    0.00075
C11   1    0.363296    0.268784    0.033679    11.00000    0.08698    0.07749 =
         0.07044   -0.02764   -0.02067   -0.01012
AFIX 137
H11A  2    0.315906    0.216312   -0.020680    11.00000   -1.50000
H11B  2    0.411116    0.364120   -0.007749    11.00000   -1.50000
H11C  2    0.256150    0.309274    0.085781    11.00000   -1.50000
AFIX   0
C10   1    0.530585    0.138114    0.102159    11.00000    0.07856    0.05538 =
         0.05909   -0.02532   -0.00360   -0.01234
AFIX  23
H10A  2    0.483473    0.039787    0.141471    11.00000   -1.20000
H10B  2    0.639041    0.097864    0.049439    11.00000   -1.20000
AFIX   0
C3    1    0.757038    0.358260    0.341447    11.00000    0.06311    0.06173 =
         0.09545   -0.02851   -0.02032   -0.01125
AFIX  43
H3    2    0.810429    0.406510    0.392584    11.00000   -1.20000
AFIX   0
C1    1    0.759993    0.279351    0.159917    11.00000    0.06025    0.06204 =
         0.06948   -0.01182    0.01036   -0.01438
AFIX  43
H1    2    0.819005    0.273916    0.086625    11.00000   -1.20000
AFIX   0
C2    1    0.836483    0.356471    0.233878    11.00000    0.05058    0.06878 =
         0.10157   -0.02031    0.00386   -0.02059
AFIX  43
H2    2    0.941366    0.406330    0.209454    11.00000   -1.20000
AFIX   0
C8    1    0.347191    0.151136    0.330694    11.00000    0.05860    0.05145 =
         0.06903   -0.00403   -0.00066   -0.01449
AFIX  43
H8    2    0.293452    0.104368    0.278816    11.00000   -1.20000
AFIX   0
C7    1    0.264936    0.157058    0.438818    11.00000    0.06723    0.06462 =
         0.07814    0.00537    0.01564   -0.00977
AFIX  43
H7    2    0.153283    0.115093    0.459924    11.00000   -1.20000
AFIX   0
C5    1    0.505171    0.286623    0.489892    11.00000    0.09497    0.06183 =
         0.05623   -0.01796   -0.01372    0.00746
AFIX  43
H5    2    0.558604    0.329043    0.544381    11.00000   -1.20000
AFIX   0
C6    1    0.343651    0.224464    0.518981    11.00000    0.09522    0.07196 =
         0.05693   -0.00085    0.01584    0.00573
AFIX  43
H6    2    0.284791    0.226593    0.592572    11.00000   -1.20000
AFIX   0
HKLF    4

REM  lxy0609-qPF6 in P-1
REM R1 =  0.0566 for    2076 Fo > 4sig(Fo)  and  0.0678 for all    2578 data
REM    173 parameters refined using      0 restraints

END

WGHT      0.0917      0.1704

REM Highest difference peak  0.332,  deepest hole -0.298,  1-sigma level  0.049
Q1    1  -0.0589  0.8813  0.2551  11.00000  0.05    0.33
Q2    1   0.0417  0.8545  0.0982  11.00000  0.05    0.31
Q3    1   0.3343  0.6503  0.1771  11.00000  0.05    0.30
Q4    1   0.1180  0.7336  0.3479  11.00000  0.05    0.29
Q5    1  -0.0243  0.7601  0.1378  11.00000  0.05    0.27
Q6    1   0.1807  0.5770  0.2240  11.00000  0.05    0.26
Q7    1   0.3179  0.6227  0.2518  11.00000  0.05    0.26
Q8    1   0.2243  0.8054  0.3075  11.00000  0.05    0.25
Q9    1   0.2618  0.8486  0.1733  11.00000  0.05    0.23
Q10   1  -0.0317  0.6700  0.2551  11.00000  0.05    0.22
Q11   1   0.3364  0.1062  0.3227  11.00000  0.05    0.19
Q12   1  -0.0246  0.8977  0.1595  11.00000  0.05    0.16
Q13   1   0.5014  0.3316  0.5001  11.00000  0.05    0.15
Q14   1   0.3115  0.3601  0.0600  11.00000  0.05    0.14
Q15   1  -0.1658  0.8063  0.2041  11.00000  0.05    0.14
Q16   1   0.5681  0.2079  0.2592  11.00000  0.05    0.14
Q17   1   0.5560  0.2380  0.3435  11.00000  0.05    0.12
Q18   1   0.1249  0.6418  0.1094  11.00000  0.05    0.12
Q19   1   0.4427  0.1662  0.1064  11.00000  0.05    0.11
Q20   1   0.5936  0.1741  0.1746  11.00000  0.05    0.11
Q21   1  -0.3074  0.8280  0.1802  11.00000  0.05    0.10
Q22   1   0.3548  0.1645  0.3815  11.00000  0.05    0.10
Q23   1   0.6470  0.3810  0.5251  11.00000  0.05    0.10
Q24   1  -0.0573  0.5927  0.0546  11.00000  0.05    0.10
Q25   1   0.6964  0.1538  0.0330  11.00000  0.05    0.09
;
_shelx_res_checksum              95383
_shelx_hkl_file
;
   0   0  -3 182024. 1470.27   6
   0   0   4 17002.3 530.995   6
   0   0  -4 18214.1 543.697   6
   0   0   5 15825.3 572.263   6
   0   0   6 45544.0 1063.18   6
   0   0   7 83040.5 1585.55   6
   0   0   8 474.619 167.048   6
   0   0   9 78587.6 1770.06   6
   0   0  10 8606.73 637.405   6
   0   0  11 26113.1 1146.77   6
   0   0 -11 25172.8 1043.70   9
   0   0  12 3643.88 482.297   6
   0   0 -12 3322.91 427.185   9
   0   0  13 1124.40 276.368   6
   0   0 -13 705.439 204.879   9
   0   0 -14 278.978 162.543   9
   0   0  14-10.5964 158.542   6
   0   0  15 1447.82 397.533   8
   0   0  15 1246.44 324.714   6
   0  -1  15 1047.52 378.364   8
   0  -1  14 190.180 196.764   6
   0  -1  13 691.807 254.906   6
   0   1 -12 6020.83 538.963   9
   0  -1  12 6424.45 606.094   6
   0  -1  11 774.688 250.414   6
   0  -1  10 20666.6 954.921   6
   0  -1   9 835.893 225.483   6
   0  -1   8 53081.0 1327.14   6
   0  -1   7 50154.4 1183.54   6
   0  -1   7 43192.4 467.208   7
   0  -1   6 13746.1 572.875   6
   0  -1   6 12499.9 234.871   4
   0  -1   5 81836.5 1240.58   6
   0   1  -5 82599.3 1237.43   6
   0  -1   5 79267.0 693.219   4
   0   1  -4 23038.8 578.413   6
   0  -1   4 22353.0 577.506   6
   0   1  -3 197555. 1460.44   6
   0  -1   3 192377. 1453.48   6
   0   1  -2 127966. 944.533   6
   0  -1   2 128570. 949.211   6
   0  -1   1 30871.7 520.025   5
   0  -1  -2 160984. 1288.12   5
   0  -1  -2 159441. 1249.18   9
   0  -1  -3 702131. 3021.52   9
   0  -1  -5 7316.46 206.267   4
   0  -1  -6 89.0378 37.0290   7
   0  -1  -6 201.948 33.2625   4
   0   1   7 30107.4 980.061   6
   0  -1  -7 26971.0 394.834   7
   0   1   8 128195. 2168.45   6
   0  -1  -8 127704. 2030.24   9
   0  -1  -9 9962.68 602.700   9
   0   1   9 10036.3 646.623   6
   0  -1 -10 71334.9 1712.00   9
   0   1  10 69202.4 1810.17   6
   0  -1 -11 1516.50 303.473   9
   0   1  11 1219.29 287.245   6
   0  -1 -12 16738.0 926.001   9
   0   1  12 16069.2 970.917   6
   0   1  13 1934.43 374.297   6
   0  -1 -13 1891.70 343.045   9
   0  -1 -14-104.981 161.554   9
   0   1  14 128.118 168.204   6
   0  -1 -15 888.445 244.644   9
   0   1  15 1444.17 352.526   6
   0   1  15 740.904 331.313   8
   0   2 -14 851.349 290.414   3
   0  -2  12 5664.50 559.662   6
   0  -2  11 2114.31 319.983   6
   0  -2  10 2266.29 320.588   6
   0  -2   9 20143.9 878.074   6
   0  -2   8 597.296 153.973   6
   0  -2   7 144397. 1975.76   6
   0  -2   7 136500. 1266.66   4
   0  -2   6 42824.5 990.591   6
   0  -2   5 116029. 1461.10   6
   0   2  -5 113734. 1426.07   6
   0   2  -4 99948.9 1187.14   6
   0   2  -4 96932.8 1257.48   3
   0  -2   4 99025.1 1188.84   6
   0   2  -3 317651. 1806.99   6
   0  -2   3 322657. 1854.96   6
   0  -2   2 127515. 960.190   6
   0   2  -2 124630. 1117.45   3
   0   2  -2 125970. 960.308   6
   0  -2   1 422.304 83.9279   5
   0   2  -1 249.236 54.8860   9
   0   2  -1 296.118 46.3490   6
   0  -2   1 453.393 68.4584   3
   0  -2  -1 35814.1 692.804   5
   0   2   1 35434.8 541.528   8
   0  -2  -1 35585.8 650.974   9
   0  -2  -2 173034. 1605.95   5
   0  -2  -2 172802. 1576.45   9
   0  -2  -3 25709.6 659.296   9
   0  -2  -3 25600.1 677.071   5
   0  -2  -4 403635. 2871.22   9
   0  -2  -4 421582. 2926.08   5
   0  -2  -5 96438.0 1501.32   9
   0  -2  -6 75907.1 1430.20   9
   0  -2  -7 137055. 1293.74   4
   0  -2  -7 136673. 2062.11   9
   0  -2  -8 9610.83 330.597   4
   0   2   8 10815.2 656.934   6
   0  -2  -8 10432.9 604.820   9
   0   2   9 1538.37 292.731   6
   0  -2  -9 1159.99 95.7902   4
   0  -2  -9 1211.06 245.313   9
   0  -2  -9 1308.43 120.812   7
   0   2  10 5145.50 511.743   6
   0  -2 -10 5202.67 488.503   9
   0   2  11 12101.2 819.731   6
   0  -2 -11 11753.6 756.361   9
   0   2  12 351.130 211.036   6
   0  -2 -12-35.4437 149.778   9
   0  -2 -13 2822.32 418.516   9
   0   2  13 2044.38 380.679   6
   0  -2 -14 567.992 202.622   9
   0   2  14 988.759 333.534   8
   0   2  14 329.225 210.937   6
   0  -2 -15 4981.51 593.961   9
   0   2  15 5262.04 683.201   6
   0  -2 -16 176.798 194.305   9
   0   3 -13 282.763 179.739   3
   0   3 -12 710.907 228.157   3
   0   3 -12 746.638 305.768   5
   0   3 -11 365.164 165.555   3
   0   3 -10 415.156 167.665   3
   0  -3  10 658.645 180.845   6
   0  -3   9 2649.44 311.428   6
   0   3  -9 2328.10 317.835   3
   0   3  -8 6837.50 486.440   3
   0  -3   8 6869.40 467.138   6
   0   3  -8 7788.04 632.523   5
   0   3  -7 10898.7 703.227   5
   0  -3   7 11227.8 544.235   6
   0   3  -7 10046.0 554.644   3
   0   3  -6 91454.2 1919.08   5
   0  -3   6 88365.6 1401.10   6
   0   3  -6 87866.6 1521.24   3
   0   3  -5 85278.4 1213.43   6
   0   3  -5 84609.5 1358.26   3
   0  -3   5 84887.1 1235.19   6
   0  -3   4 220924. 1749.24   6
   0   3  -4 222503. 1715.60   6
   0   3  -4 217524. 2003.47   3
   0   3  -3 71161.6 1038.50   3
   0   3  -3 71715.8 867.074   6
   0  -3   2 26851.7 564.884   3
   0   3  -2 26520.9 590.919   3
   0   3  -2 27044.0 479.334   6
   0   3  -2 27455.4 624.795   9
   0  -3   1 1350.98 126.355   3
   0   3  -1 1344.31 142.758   9
   0  -3   1 1304.43 179.287   5
   0  -3   1 1475.36 119.742   2
   0   3   0 2682.14 202.224   9
   0  -3   0 2831.36 147.289   8
   0  -3   0 2693.45 202.873   9
   0   3   0 2354.21 162.768   2
   0  -3   0 2499.64 180.738   3
   0  -3   0 2641.88 235.463   5
   0  -3  -1 30043.2 778.308   5
   0  -3  -1 29181.1 710.300   9
   0   3   1 28372.7 593.204   8
   0   3   2 12466.4 428.142   8
   0  -3  -2 11546.3 490.567   5
   0  -3  -2 11917.1 486.737   9
   0  -3  -3 134457. 1719.07   9
   0   3   3 135326. 1605.58   8
   0  -3  -4 38512.4 979.038   9
   0  -3  -5 284933. 2830.37   9
   0  -3  -6 74304.4 1522.84   9
   0  -3  -7 113361. 1996.49   9
   0   3   8 317025. 3613.83   6
   0  -3  -8 313876. 3458.26   9
   0  -3  -9 18275.5 582.182   4
   0   3   9 18923.7 951.701   6
   0  -3  -9 19038.0 900.185   9
   0  -3 -10 40854.1 1403.04   9
   0   3  10 46778.2 1568.31   6
   0  -3 -11-32.4102 170.768   9
   0   3  11-53.4543 171.005   6
   0  -3 -12 3581.04 479.502   9
   0   3  12 3448.39 494.868   6
   0  -3 -13 264.595 147.159   9
   0   3  13 306.721 236.078   6
   0   3  13 740.462 266.875   8
   0   3  14 592.807 254.507   8
   0  -3 -14 187.605 191.587   9
   0   3  14 721.724 273.780   6
   0  -3 -15 1904.98 405.507   9
   0   4 -12 8181.02 858.247   5
   0   4 -11 890.972 244.555   3
   0   4 -11 636.890 232.573   5
   0   4 -10 529.452 253.220   5
   0   4 -10 506.921 167.607   3
   0   4  -9 27.3555 128.755   5
   0   4  -9-117.249 106.384   3
   0   4  -8-99.2324 149.953   5
   0   4  -8 140.388 115.109   3
   0   4  -7 13432.9 654.874   3
   0  -4   7 12908.2 566.037   6
   0   4  -6 14657.6 816.785   5
   0   4  -6 13917.8 620.355   3
   0   4  -6 13259.7 511.307   6
   0   4  -5 109225. 1338.01   6
   0   4  -5 113998. 1636.01   3
   0   4  -5 115223. 2152.40   5
   0   4  -4 48222.2 992.743   3
   0   4  -4 47149.6 780.928   6
   0   4  -4 48915.7 989.464   9
   0   4  -3 178661. 1409.52   6
   0   4  -3 183680. 1823.77   3
   0   4  -2 22323.1 652.621   9
   0  -4   2 22254.9 552.782   2
   0   4  -2 21977.2 478.587   6
   0  -4   1 9269.98 372.971   3
   0   4  -1 9117.40 420.954   9
   0  -4   1 9957.81 278.960   8
   0   4   0 907.893 143.196   9
   0  -4   0 852.345 145.631   9
   0  -4   0 1228.24 141.682   3
   0   4   0 893.113 116.570   2
   0   4   1 5226.98 304.889   2
   0  -4  -1 5319.67 351.901   9
   0   4   2 4070.11 267.177   8
   0  -4  -2 4281.28 338.397   9
   0   4   3 54724.9 1075.84   8
   0  -4  -3 55900.4 1243.83   9
   0  -4  -4 294887. 2992.30   9
   0   4   4 296401. 2752.22   8
   0   4   5 85542.6 1620.13   8
   0  -4  -5 84380.4 1669.96   9
   0  -4  -6 140887. 2293.73   9
   0   4   6 144490. 2232.72   6
   0   4   6 141709. 2246.74   8
   0   4   7 53499.4 1464.00   6
   0   4   7 50708.0 1442.87   8
   0  -4  -7 52471.9 1456.98   9
   0  -4  -8 20049.8 951.078   9
   0   4   8 20665.7 962.224   6
   0   4   9 29951.2 1235.80   6
   0  -4  -9 30748.5 1229.37   9
   0   4   9 28202.6 1212.10   8
   0  -4 -10 2757.78 405.769   9
   0   4  10 2517.14 407.252   8
   0   4  10 3203.66 440.088   6
   0   4  11 2602.58 412.531   6
   0   4  11 2300.13 397.518   8
   0  -4 -11 1957.19 351.190   9
   0   4  12-80.3596 140.990   8
   0  -4 -12-223.345 197.645   9
   0   4  12 13.3172 170.151   6
   0   4  13 2295.35 466.092   6
   0  -4 -13 2423.97 425.354   9
   0   4  13 2341.34 432.524   8
   0  -4 -14 829.583 297.925   9
   0   4  14 1111.59 337.346   8
   0   4  14 908.208 312.701   6
   0   5 -11 445.657 272.266   5
   0   5 -10 2053.24 408.908   5
   0   5  -9 1659.45 343.085   5
   0   5  -8 1831.24 363.751   5
   0   5  -8 1821.90 268.377   3
   0   5  -7 278.061 148.041   5
   0   5  -7 95.7544 82.7657   3
   0   5  -6 438.614 135.924   3
   0   5  -6 304.009 169.464   5
   0   5  -5 1485.48 209.364   3
   0   5  -5 1544.86 285.159   5
   0   5  -4 51300.8 1104.89   3
   0   5  -4 50755.1 790.854   6
   0   5  -3 5591.12 256.498   6
   0   5  -3 6006.14 519.042   5
   0   5  -2 57695.1 1530.25   5
   0  -5   2 52582.0 989.970   3
   0  -5   2 58813.7 656.109   8
   0   5  -2 54708.7 815.715   6
   0  -5   1 57958.3 1036.05   3
   0  -5   0 11528.9 485.200   3
   0  -5   0 13391.5 606.069   9
   0  -5  -1 37343.8 1027.83   9
   0   5   1 36955.1 867.274   2
   0  -5  -1 35172.3 928.404   3
   0  -5  -2 78713.6 1564.24   9
   0  -5  -3 39641.2 1153.92   9
   0   5   3 41062.7 1004.87   8
   0   5   4 4401.96 357.739   8
   0  -5  -4 4473.81 411.823   9
   0   5   5 110417. 1899.20   8
   0  -5  -5 106823. 2059.43   9
   0   5   6 10191.2 625.526   8
   0   5   6 9470.60 654.687   5
   0   5   6 9255.28 614.451   6
   0  -5  -6 9106.65 628.915   9
   0   5   7 37169.7 1267.11   8
   0   5   7 38392.5 1286.63   6
   0  -5  -7 37589.8 1312.21   9
   0   5   8 114069. 2382.61   8
   0   5   8 119960. 2397.50   6
   0  -5  -8 114591. 2405.45   9
   0   5   9 5852.22 570.831   8
   0   5   9 5546.63 554.962   6
   0  -5  -9 5989.27 581.096   9
   0   5  10 14645.2 925.449   6
   0  -5 -10 14119.3 899.329   9
   0   5  10 12808.6 888.375   8
   0   5  11 1085.08 292.041   6
   0   5  11 1190.40 311.831   8
   0  -5 -11 937.175 288.979   9
   0   5  12 4662.20 585.134   6
   0   5  12 4060.56 552.243   8
   0  -5 -12 3647.88 521.653   9
   0  -5 -13 60.3242 218.313   9
   0   5  13 102.610 232.322   6
   0   5  13-185.375 222.120   8
   0  -5 -14 2878.51 499.133   9
   0   6  -9 2733.32 488.493   5
   0   6  -8 990.634 319.557   5
   0   6  -7 2595.21 445.989   5
   0   6  -6 353.925 217.765   5
   0   6  -5 1107.91 246.135   5
   0   6  -5 604.436 156.609   3
   0   6  -4 1693.58 323.978   5
   0   6  -3 214.011 173.370   5
   0   6  -2 3787.03 226.616   6
   0   6  -2 4285.80 478.816   5
   0   6  -1 26768.9 1117.80   5
   0   6   0 22765.7 1021.09   5
   0   6   1 3033.41 285.990   2
   0   6   1 3465.70 418.650   5
   0  -6  -1 3473.60 353.428   9
   0   6   2 39977.4 1326.26   5
   0   6   2 38952.8 1013.44   2
   0  -6  -2 37797.7 1161.49   9
   0  -6  -3 24837.6 1001.06   9
   0   6   3 23908.5 1050.90   5
   0   6   4 56793.6 1639.76   5
   0  -6  -4 59257.9 1577.88   9
   0   6   4 56829.2 1347.50   8
   0   6   5 2372.73 372.874   5
   0   6   5 2642.65 311.471   8
   0   6   5 2503.41 333.469   6
   0  -6  -5 2897.06 378.489   9
   0   6   6 1871.79 279.254   8
   0  -6  -6 1892.23 318.847   9
   0   6   6 1803.15 319.455   5
   0   6   7 146.474 135.326   6
   0  -6  -7 123.402 149.895   9
   0   6   7-26.4070 182.199   5
   0   6   7 510.505 198.547   8
   0   6   8 2298.75 381.510   6
   0   6   8 2557.93 370.213   8
   0  -6  -8 2658.12 433.008   9
   0   6   9 10563.1 784.307   6
   0  -6  -9 10088.5 796.731   9
   0   6   9 10948.0 792.948   8
   0   6  10 83.9656 143.458   8
   0  -6 -10 49.7757 155.926   9
   0   6  10 266.015 208.960   6
   0   6  11 10213.4 845.831   6
   0   6  11 9191.44 810.802   8
   0  -6 -11 9714.30 827.327   9
   0  -6 -12 136.242 172.931   9
   0   6  12 112.344 189.973   6
   0   6  12 97.4998 171.502   8
   0   6  13 2371.52 484.492   6
   0  -6 -13 2927.62 525.776   9
   0   6  13 2371.03 459.972   8
   0   7  -8 1749.60 438.354   5
   0   7  -7 1350.64 326.246   5
   0   7  -6 921.739 280.551   5
   0   7  -5-53.9039 132.297   5
   0   7  -4 7185.50 698.251   5
   0   7  -3 173.044 182.983   5
   0   7  -2 11129.7 804.801   5
   0   7  -1 3792.60 473.954   5
   0   7   0 7681.87 651.248   5
   0   7   1 24266.6 1160.89   5
   0  -7  -1 25828.6 1075.50   9
   0   7   2 50291.9 1201.74   2
   0   7   2 50744.4 1654.37   5
   0  -7  -2 50026.3 1471.47   9
   0   7   3 26427.9 1212.15   5
   0   7   3 26817.8 965.469   2
   0  -7  -3 24027.8 1049.27   9
   0   7   4 4733.82 543.401   5
   0   7   4 4205.56 420.322   6
   0  -7  -4 3606.50 433.738   9
   0   7   5 7621.55 685.160   5
   0   7   5 5847.13 495.128   6
   0   7   5 6629.17 543.634   8
   0  -7  -5 7335.47 621.529   9
   0   7   6-19.4978 132.476   5
   0  -7  -6 362.771 183.727   9
   0   7   6 215.046 139.972   6
   0   7   6-28.2467 124.964   8
   0   7   7 353.500 177.292   6
   0   7   7 281.082 156.749   8
   0   7   7 480.157 253.806   5
   0  -7  -7 343.756 182.704   9
   0   7   8 9367.08 747.876   6
   0   7   8 9122.34 713.916   8
   0  -7  -8 9661.79 782.832   9
   0   7   9 1487.74 319.869   6
   0  -7  -9 1569.35 334.460   9
   0   7   9 1513.37 311.766   8
   0  -7 -10 3400.03 525.788   9
   0   7  10 2685.81 436.804   8
   0   7  10 2888.49 468.801   6
   0   7  11 987.311 321.190   8
   0  -7 -11 1622.56 399.592   9
   0   7  11 1304.91 380.516   6
   0   7  12 8805.75 859.482   6
   0  -7 -12 9242.20 870.335   9
   0   7  12 8171.44 814.987   8
   0   8  -6 302.329 216.707   5
   0   8  -5 1071.89 324.674   5
   0   8  -4 258.651 168.785   5
   0   8  -3 2580.31 457.859   5
   0   8  -2 508.175 252.273   5
   0   8  -1 3015.30 458.994   5
   0   8   0 5784.32 629.226   5
   0   8   1 1604.06 364.405   5
   0   8   2 5853.96 619.558   5
   0  -8  -2 6266.69 591.510   9
   0   8   3 872.922 290.508   5
   0   8   3 897.689 198.961   6
   0  -8  -3 1157.28 262.440   9
   0  -8  -4 4929.10 529.715   9
   0   8   4 5463.67 606.754   5
   0   8   4 4827.37 445.996   6
   0   8   5 398.044 222.623   2
   0  -8  -5 598.773 222.025   9
   0   8   5 303.771 105.508   6
   0   8   5 113.629 151.780   5
   0   8   6 1360.37 318.789   5
   0   8   6 1526.30 303.882   8
   0   8   6 1091.08 245.170   6
   0  -8  -6 1518.95 355.216   9
   0  -8  -7 274.581 203.457   9
   0   8   7 16.9219 112.940   6
   0   8   7-21.1417 168.523   5
   0   8   7-2.93222 128.147   8
   0  -8  -8 2285.98 420.641   9
   0   8   8 1892.13 388.683   5
   0   8   8 1954.82 374.106   6
   0   8   8 1779.37 367.207   8
   0  -8  -9 571.980 289.424   9
   0   8   9 379.511 178.923   6
   0   8   9 294.224 210.115   8
   0   8  10 2339.26 422.135   6
   0  -8 -10 2569.01 462.096   9
   0   8  10 1767.76 371.974   8
   0   8  11 4420.16 601.535   6
   0   8  11 3697.71 561.455   8
   0   8  12 1900.76 428.274   8
   0   9  -3 196.727 198.863   5
   0   9  -2 3891.56 572.767   5
   0   9  -1-148.842 172.246   5
   0   9   0 448.394 272.849   5
   0   9   1 836.156 297.955   5
   0   9   2 3747.04 545.290   5
   0  -9  -3 4162.78 526.751   9
   0   9   3 3918.28 584.170   5
   0   9   4 264.809 165.794   5
   0  -9  -4-124.923 165.967   9
   0  -9  -5 956.918 289.458   9
   0   9   5 405.534 225.259   5
   0   9   6 166.704 236.350   5
   0   9   6 260.104 201.356   6
   0  -9  -6 2.02926 143.252   9
   0  -9  -7 778.367 279.749   9
   0   9   7 802.939 251.214   6
   0   9   7 604.656 273.370   5
   0  -9  -8 338.356 228.393   9
   0   9   8 625.672 289.558   5
   0   9   8 458.042 219.339   6
   0   9   9 2290.95 427.793   6
   0   9  10 1047.73 320.617   6
   0 -10  -4 236.097 178.410   9
   0 -10  -5 484.596 261.080   9
   0 -10  -6 5096.22 657.217   9
  -1   9   9-94.1548 203.723   6
  -1   9   8 142.696 176.361   6
  -1   9   7 5073.70 686.465   5
  -1   9   7 4053.28 532.809   6
   1  -9  -7 3995.36 602.314   9
  -1   9   6 168.418 138.319   6
   1  -9  -6 285.875 217.117   9
  -1   9   6 593.214 241.602   5
  -1   9   5 1439.21 375.675   5
   1  -9  -5 998.067 291.651   9
  -1   9   4 541.338 251.083   5
   1  -9  -4 245.568 204.985   9
  -1   9   3 409.008 220.569   5
  -1   9   2 3937.41 577.923   5
  -1   9   1 216.057 192.157   5
  -1   9   0-151.407 190.180   5
  -1   9  -1 914.169 322.097   5
  -1   9  -2-380.501 260.215   5
  -1   8  11 1813.76 378.322   8
  -1   8  10 127.429 138.714   8
  -1   8  10 36.6444 219.354   6
   1  -8  -9 10169.0 927.386   9
  -1   8   9 9938.20 806.533   8
  -1   8   9 9791.12 856.037   6
   1  -8  -8 921.108 334.467   9
  -1   8   8 365.033 240.293   5
  -1   8   8 996.505 323.272   6
   1  -8  -7 4147.62 562.087   9
  -1   8   7 5153.99 580.515   6
  -1   8   7 4240.13 587.748   5
   1  -8  -6 227.780 139.922   9
  -1   8   6 186.632 169.690   5
   1  -8  -5 3598.23 505.035   9
  -1   8   5 3850.24 548.909   5
  -1   8   4 4915.25 610.479   5
   1  -8  -4 5472.39 608.466   9
   1  -8  -3 2042.18 368.722   9
  -1   8   3 2473.82 449.387   5
  -1   8   2 13526.0 980.985   5
  -1   8   1 568.667 261.833   5
  -1   8   0 7867.22 754.397   5
  -1   8  -1-229.574 186.713   5
  -1   8  -2 2428.72 439.709   5
  -1   8  -3 1784.34 395.641   5
  -1   8  -4 895.564 261.832   5
  -1   8  -5 2424.35 487.373   5
  -1   7  12 3194.33 523.621   8
  -1   7  11-215.704 226.863   6
  -1   7  11 208.555 213.811   8
   1  -7 -11 46.0111 190.895   9
  -1   7  10 2574.48 427.512   8
  -1   7  10 1695.87 376.418   6
   1  -7 -10 1978.13 435.150   9
  -1   7   9-18.0999 189.299   8
   1  -7  -9 140.530 191.631   9
  -1   7   9 432.627 273.290   6
  -1   7   8 8812.50 759.776   6
  -1   7   8 7613.39 656.512   8
   1  -7  -8 8168.00 767.381   9
  -1   7   7 10050.4 830.865   5
  -1   7   7 9691.75 688.190   8
   1  -7  -7 10019.3 819.879   9
  -1   7   6 72.2470 98.1370   8
   1  -7  -6-68.0587 180.174   9
  -1   7   6-94.0683 137.557   5
   1  -7  -5 161.442 169.391   9
  -1   7   5-222.109 215.827   5
  -1   7   5 132.757 82.9226   8
  -1   7   4 2523.57 400.163   5
   1  -7  -4 3180.68 431.701   9
  -1   7   4 2786.37 314.612   8
   1  -7  -3 4078.69 482.302   9
  -1   7   3 4350.84 505.231   5
   1  -7  -2 24452.2 1123.23   9
  -1   7   2 23115.0 1158.19   5
  -1   7   1 7374.27 680.332   5
  -1   7   0 495.708 217.048   5
  -1   7  -1 1930.07 349.355   5
  -1   7  -2-289.928 205.475   5
  -1   7  -3 804.591 244.920   5
  -1   7  -4 87.0861 203.215   5
  -1   7  -5 152.444 190.255   5
  -1   7  -6 1902.06 414.825   5
  -1   7  -7 254.297 200.774   5
  -1   6  13 1979.63 461.832   8
  -1   6  12 505.410 245.273   8
  -1   6  12 844.814 339.313   6
  -1   6  11 1839.63 390.934   8
   1  -6 -11 1599.50 399.220   9
  -1   6  11 1742.88 378.014   6
   1  -6 -10 493.898 226.429   9
  -1   6  10 54.0268 152.183   8
  -1   6  10 444.789 249.691   6
  -1   6   9 35552.4 1438.54   8
  -1   6   9 35739.2 1488.58   6
   1  -6  -9 35895.7 1534.10   9
  -1   6   8 9081.58 720.284   6
   1  -6  -8 8416.97 728.493   9
  -1   6   8 7974.10 663.717   8
  -1   6   7 15793.8 879.909   8
   1  -6  -7 15541.7 952.385   9
  -1   6   7 15709.9 953.505   5
  -1   6   6 687.702 207.087   5
   1  -6  -6 1143.74 282.570   9
  -1   6   6 1071.68 218.727   8
  -1   6   5 8500.81 558.589   8
  -1   6   5 9107.14 708.729   5
   1  -6  -5 9058.55 677.104   9
  -1   6   4 12176.2 606.677   8
  -1   6   4 13052.0 815.961   5
   1  -6  -4 13236.5 799.746   9
  -1   6   3 1200.40 191.402   8
  -1   6   3 928.309 250.164   5
   1  -6  -3 854.951 219.767   9
  -1   6   2 40854.6 1018.25   2
  -1   6   2 45127.3 1488.38   5
   1  -6  -2 44243.0 1395.57   9
  -1   6   1 689.829 126.978   2
  -1   6   1 671.117 241.335   5
  -1   6   0 35988.0 1321.40   5
  -1   6  -1 1902.53 341.057   5
  -1   6  -2 25135.2 1147.32   5
  -1   6  -3 211.895 161.084   5
  -1   6  -4 137.030 147.536   5
  -1   6  -5-144.247 126.105   5
  -1   6  -6 3127.29 476.872   5
  -1   6  -7-232.846 233.214   5
  -1   6  -8 282.948 225.152   5
  -1   6  -9 2119.78 450.049   5
   1  -5 -13 7585.22 766.004   9
  -1   5  13 6351.42 731.574   6
  -1   5  13 7440.20 805.856   8
   1  -5 -12 4613.70 583.307   9
  -1   5  12 4211.14 580.123   6
  -1   5  11-363.049 267.533   6
   1  -5 -11 145.765 164.058   9
  -1   5  10-150.063 165.500   6
   1  -5 -10 152.993 175.939   9
   1  -5  -9 597.296 222.810   9
  -1   5   9 384.210 186.038   6
   1  -5  -8 19685.4 1037.17   9
   1  -5  -7 16269.8 893.241   9
  -1   5   6 28427.4 1160.30   5
   1  -5  -6 29725.5 1183.88   9
   1  -5  -5 2901.01 368.910   9
  -1   5   5 2783.84 366.425   5
  -1   5   5 3020.69 322.664   8
  -1   5   4 19200.7 906.908   5
  -1   5   4 19580.3 744.603   8
   1  -5  -4 20948.5 922.554   9
  -1   5   3 6765.52 536.107   5
   1  -5  -3 6173.78 490.492   9
  -1   5   3 6879.29 401.223   8
  -1   5   2 23892.3 650.706   8
   1  -5  -2 24292.5 934.681   9
  -1   5   2 24244.1 980.197   5
  -1   5   1 8547.68 371.925   2
  -1   5   1 9714.85 617.397   5
   1  -5  -1 10498.5 614.657   9
   1  -5   0 386.923 87.5303   3
  -1   5   0 552.934 191.387   5
  -1   5  -1 30079.1 1103.59   5
   1  -5   1 26206.4 532.279   3
  -1   5  -2 9750.09 658.960   5
  -1   5  -2 8401.94 437.178   6
  -1   5  -3 40398.5 1379.24   5
  -1   5  -4 8359.75 654.666   5
  -1   5  -5 2762.78 232.287   3
  -1   5  -5 3530.35 451.992   5
  -1   5  -6 4356.85 521.960   5
  -1   5  -7 1479.54 324.943   5
  -1   5  -8 3777.42 505.280   5
  -1   5  -9 240.624 172.394   5
  -1   5 -10 1271.55 342.144   5
  -1   4  14 910.473 320.498   6
   1  -4 -14 1240.81 327.482   9
  -1   4  13 620.955 255.129   6
   1  -4 -13 187.934 156.569   9
  -1   4  12 535.534 258.957   6
   1  -4 -12 797.688 267.893   9
   1  -4 -11 79.4909 173.948   9
  -1   4  11-57.0583 177.790   6
   1  -4 -10 2956.78 412.503   9
  -1   4  10 2486.39 398.174   6
   1  -4  -9 56911.7 1702.76   9
  -1   4   9 55874.6 1708.27   6
   1  -4  -8 3319.91 412.840   9
   1  -4  -7 97468.0 2078.15   9
   1  -4  -6 6343.09 517.567   9
   1  -4  -5 138745. 2296.32   9
  -1   4   5 133282. 2271.33   5
   1  -4  -4 35040.7 1117.96   9
   1  -4  -3 1145.80 205.355   9
   1  -4  -2 89.6840 100.667   9
  -1   4   2 93.2617 63.8289   8
  -1   4   1 1597.47 134.787   8
   1  -4  -1 1360.68 207.912   9
  -1   4   0 157152. 1141.16   2
   1  -4   0 159186. 1346.20   3
   1  -4   1 109333. 933.520   3
  -1   4  -2 22900.7 672.916   6
  -1   4  -3 7185.20 393.806   6
   1  -4   3 4748.75 195.804   2
  -1   4  -4 11875.6 515.403   6
  -1   4  -4 12998.1 413.599   3
  -1   4  -4 12302.3 714.079   5
   1  -4   5 4371.59 206.816   8
  -1   4  -5 5081.19 289.873   3
  -1   4  -5 5480.59 508.581   5
  -1   4  -6 45203.5 965.614   3
   1  -4   6 44725.4 813.663   8
  -1   4  -6 46469.7 1500.30   5
  -1   4  -7 1201.34 272.524   5
   1  -4   7 1363.88 167.653   8
  -1   4  -7 1683.64 217.530   3
  -1   4  -8-9.87683 156.604   5
  -1   4  -8 109.414 104.308   3
  -1   4  -9 81.4951 153.109   5
  -1   4 -10 430.043 259.521   5
  -1   4 -11 1642.84 388.200   5
   1  -3 -15 1878.39 402.777   9
   1  -3 -14 2413.93 429.423   9
  -1   3  14 2776.34 475.873   6
   1  -3 -13 4655.57 563.347   9
  -1   3  13 5577.57 641.002   6
  -1   3  12 1575.55 370.415   6
   1  -3 -12 1505.31 315.868   9
   1  -3 -11 1034.91 251.771   9
  -1   3  11 1089.29 285.499   6
  -1   3  10 317.516 200.205   6
   1  -3 -10 265.953 189.035   9
   1  -3 -10 90.0995 76.3831   7
  -1   3   9 3668.49 447.898   6
   1  -3  -9 3938.39 445.126   9
  -1   3   8 6727.92 557.934   6
   1  -3  -8 7667.13 567.593   9
   1  -3  -7 524.753 170.086   9
   1  -3  -6 272696. 3075.27   9
   1  -3  -5 14346.4 676.080   9
  -1   3   5 13237.1 663.364   5
   1  -3  -4 42180.0 1103.78   9
   1  -3  -3 3919.15 325.499   9
   1  -3  -2 739.404 166.650   9
   1  -3  -1 2726.15 254.559   9
  -1   3   0 5572.69 167.072   8
  -1   3   0 5873.06 191.486   2
  -1   3  -1 100286. 1457.07   9
   1  -3   1 91427.6 658.045   3
  -1   3  -2 303903. 2617.31   9
  -1   3  -2 303252. 2285.80   6
  -1   3  -3 105427. 1398.67   6
  -1   3  -3 101878. 935.811   3
  -1   3  -4 57292.3 840.963   3
  -1   3  -4 58846.6 1106.03   6
   1  -3   4 57045.0 722.452   8
  -1   3  -5 47475.6 881.262   3
   1  -3   5 47517.9 830.379   8
   1  -3   6 39465.0 1034.23   6
   1  -3   6 40466.5 890.454   8
  -1   3  -6 39419.0 1323.78   5
  -1   3  -6 38157.4 886.649   3
  -1   3  -7 180.314 89.4757   3
   1  -3   7 142.082 87.8253   8
  -1   3  -7 54.5317 107.385   5
   1  -3   7 259.731 129.912   6
  -1   3  -8 13024.7 834.325   5
   1  -3   8 12496.5 678.855   6
  -1   3  -8 12096.4 609.572   3
   1  -3   8 13153.0 621.096   8
  -1   3  -9 851.548 273.895   5
  -1   3  -9 989.453 195.683   3
   1  -3   9 990.550 224.986   8
   1  -3   9 533.570 150.462   6
   1  -3  10 2250.47 329.960   6
  -1   3 -10 2181.70 406.156   5
   1  -3  10 2133.36 295.356   8
  -1   3 -10 1860.74 293.107   3
  -1   3 -11 281.325 192.857   5
  -1   3 -11 360.783 171.984   3
  -1   3 -12 848.893 315.341   5
   1  -2 -15 268.931 195.883   9
   1  -2 -14 1726.55 372.153   9
  -1   2  14 1941.58 414.672   6
   1  -2 -13 176.646 132.427   9
  -1   2  13 134.378 203.870   6
  -1   2  12 2817.03 447.920   6
   1  -2 -12 2851.63 409.509   9
  -1   2  11 4268.98 511.042   6
   1  -2 -11 4119.60 466.761   9
  -1   2  10 9191.82 693.860   6
   1  -2 -10 9748.17 659.166   9
   1  -2 -10 8943.04 409.071   7
   1  -2  -9 56018.5 1050.31   7
  -1   2   9 56048.8 1611.60   6
   1  -2  -9 58476.4 1535.01   9
   1  -2  -8 152.276 142.199   9
  -1   2   8 115.972 139.174   6
   1  -2  -8 264.182 94.0448   7
   1  -2  -7 56287.0 1361.65   9
   1  -2  -6 24067.6 843.363   9
   1  -2  -5 276552. 2677.09   9
   1  -2  -4 26141.6 781.570   9
   1  -2  -3 40504.1 888.142   5
   1  -2  -3 37115.6 876.439   9
   1  -2  -2 91701.0 1262.56   5
   1  -2  -2 89808.5 1300.07   9
   1  -2  -1 6414.37 333.327   9
   1  -2  -1 6524.97 324.841   5
   1  -2   0 999999. 4089.65   5
   1  -2   1 957431. 4092.26   5
  -1   2  -2 19476.7 281.841   3
   1  -2   2 20499.2 663.230   5
  -1   2  -2 20351.9 553.042   6
   1  -2   3 19931.7 398.441   8
  -1   2  -3 20945.7 405.367   3
  -1   2  -4 258.650 89.9291   6
   1  -2   4 168.485 87.5346   6
   1  -2   4 246.504 76.1877   8
   1  -2   5 1312.49 195.137   6
   1  -2   6 121534. 1847.30   6
   1  -2   7 2502.13 298.371   6
   1  -2   8 1235.18 231.863   6
   1  -2   9 1506.11 254.887   8
   1  -2   9 1436.19 268.353   6
   1  -2  10 3381.00 394.938   8
   1  -2  10 3468.55 401.992   6
   1  -2  11-75.9893 137.263   6
   1  -2  11 322.582 157.371   8
   1  -2  12 105.867 171.164   6
   1  -2  12-9.31112 102.256   8
   1  -2  13 2116.06 371.536   8
  -1   1  15 549.646 251.123   6
   1  -1 -14 691.657 229.597   9
  -1   1  14 895.701 310.166   6
   1  -1 -13 4071.25 474.136   9
  -1   1  13 4365.43 550.545   6
  -1   1  12 556.786 239.139   6
   1  -1 -12 1188.64 271.983   9
  -1   1  11 14266.9 894.666   6
   1  -1 -11 13414.8 780.292   9
  -1   1  10 20452.1 1003.39   6
   1  -1 -10 20037.7 905.357   9
  -1   1   9 31667.4 1161.02   6
   1  -1  -9 31910.7 1070.31   9
   1  -1  -8 58090.9 601.569   4
  -1   1   8 62291.1 1535.14   6
   1  -1  -8 60798.4 953.704   7
   1  -1  -8 62986.7 1407.52   9
  -1   1   7 29861.8 981.438   6
   1  -1  -7 28248.0 650.075   7
   1  -1  -7 28180.4 887.203   9
   1  -1  -6 10449.2 504.745   9
   1  -1  -6 10061.7 379.773   7
   1  -1  -5 40853.3 926.992   9
  -1   1   4 136562. 1583.08   9
   1  -1  -4 141295. 1594.74   9
   1  -1  -4 140689. 1627.82   5
   1  -1  -3 24296.7 604.021   5
   1  -1  -3 23868.9 608.241   9
   1  -1  -2 780525. 3234.60   9
   1  -1  -2 784645. 3058.15   5
   1  -1  -1 931675. 3024.74   5
   1  -1   0 642093. 2526.01   5
   1  -1   2 846984. 3369.97   6
  -1   1  -2 880224. 3450.24   6
   1  -1   3 12252.3 358.351   8
   1  -1   3 12091.2 442.521   6
  -1   1  -3 12091.1 443.683   6
  -1   1  -4 18041.1 584.193   6
   1  -1   4 17500.5 516.232   8
   1  -1   4 18283.9 601.365   6
   1  -1   5 11968.7 518.461   6
   1  -1   6 2762.40 283.470   6
   1  -1   7 2577.28 296.055   6
   1  -1   8 15486.3 347.173   4
   1  -1   8 17107.1 790.208   6
   1  -1   9 1526.02 264.282   6
   1  -1  10 16895.4 878.953   8
   1  -1  10 17433.5 906.617   6
   1  -1  11 2362.23 382.936   6
   1  -1  11 2227.78 387.850   8
   1  -1  12 869.262 276.750   6
   1  -1  12 1194.16 267.612   8
   1  -1  13-218.545 186.272   8
   1  -1  13-206.240 205.041   6
   1  -1  14 1087.70 317.208   6
   1  -1  14 1217.69 347.769   8
   1  -1  15-74.2921 164.675   8
  -1   0  15-50.8432 183.417   6
  -1   0  14 2390.06 413.419   6
   1   0 -13 117.258 102.213   9
  -1   0  13 174.673 156.140   6
   1   0 -12 2994.52 376.125   9
  -1   0  12 2815.81 420.739   6
  -1   0  11 13284.6 835.782   6
   1   0 -11 13147.1 727.171   9
  -1   0  10 34561.3 1243.76   6
   1   0 -10 33210.9 1094.50   9
   1   0  -9 68050.9 1472.05   9
  -1   0   9 70586.7 1697.97   6
  -1   0   8 11314.3 643.093   6
   1   0  -8 12074.2 581.315   9
  -1   0   7 8851.64 524.186   6
   1   0  -7 9163.64 468.753   9
   1   0  -6 82357.6 658.762   4
  -1   0   6 84482.3 1458.86   6
   1   0  -6 83329.1 1303.06   9
  -1   0   6 84184.9 735.477   1
  -1   0   5 32147.4 475.558   1
   1   0  -5 34834.5 754.220   9
   1   0  -4 23775.5 569.102   9
   1   0  -4 23401.9 410.179   4
   1   0  -4 23103.7 502.583   7
  -1   0   3 3573.55 195.711   9
   1   0  -3 3868.52 197.737   7
   1   0  -3 3912.93 203.723   9
  -1   0   2 571107. 2151.52   9
   1   0  -2 546851. 2242.16   7
   1   0   1 10017.2 255.135   7
  -1   0  -2 654862. 2775.61   6
   1   0   2 635742. 2518.06   8
   1   0   3 6049.17 279.684   8
  -1   0  -3 6560.13 315.224   6
   1   0   3 6159.82 177.380   7
   1   0   4 135246. 1519.53   8
  -1   0  -4 135760. 1584.18   6
  -1   0  -5 2494.48 140.302   1
   1   0   5 2911.06 270.684   6
   1   0   5 3099.30 262.593   8
   1   0   5 2657.56 146.406   4
   1   0   6 8580.44 246.163   4
   1   0   6 9439.55 512.544   6
   1   0   7 243.745 96.6873   6
   1   0   7 249.265 38.2773   4
   1   0   8 2745.53 333.817   6
   1   0   9 51874.1 1482.84   6
   1   0  10 60527.4 1696.69   8
   1   0  10 59384.2 1687.13   6
   1   0  11 10857.2 771.224   8
   1   0  11 10064.2 743.432   6
   1   0  12 352.287 196.563   8
   1   0  12 199.008 162.254   6
   1   0  13 5211.01 592.936   8
   1   0  13 4138.23 543.413   6
   1   0  14 690.443 265.989   6
   1   0  14 690.421 271.835   8
  -1   0 -14 139.587 160.367   9
   1   0  15-103.783 271.865   8
   1   0  15 416.823 277.554   6
  -1  -1  13 2987.01 442.399   6
   1   1 -12-19.8350 127.349   9
  -1  -1  12-67.8515 165.232   6
   1   1 -11 28682.3 1027.50   9
  -1  -1  11 29996.2 1197.13   6
   1   1 -10 4883.08 403.174   9
  -1  -1  10 5031.03 470.111   6
  -1  -1   9 33120.3 1121.65   6
   1   1  -9 32969.9 962.274   9
   1   1  -8 52132.2 1123.36   9
  -1  -1   8 52843.4 1312.35   6
   1   1  -7 34061.7 838.555   9
  -1  -1   7 32583.0 630.885   7
  -1  -1   7 34574.8 989.858   6
  -1  -1   6 16517.2 454.615   7
   1   1  -6 17104.6 536.698   9
  -1  -1   6 17695.0 650.376   6
   1   1  -5 52191.4 827.266   9
  -1  -1   5 50078.4 784.145   7
  -1  -1   5 52479.4 990.116   6
  -1  -1   4 81286.3 835.206   4
   1   1  -4 82445.6 891.090   9
   1   1  -3 22511.3 602.176   3
   1   1  -3 23632.5 379.663   9
   1   1  -3 22589.8 441.456   1
   1   1  -3 23599.0 455.311   4
  -1  -1   3 21964.0 440.531   4
   1   1  -1 422727. 1971.15   1
   1   1  -1 424679. 2119.24   3
   1   1   0 617941. 2394.49   1
  -1  -1  -2 302761. 1839.30   6
   1   1   2 303507. 1715.64   1
  -1  -1  -3 137532. 1135.45   4
  -1  -1  -3 141596. 1442.86   6
   1   1   3 138545. 1146.50   1
   1   1   3 139698. 1146.39   4
   1   1   3 138593. 1453.44   8
  -1  -1  -4 146.466 37.6967   4
   1   1   4 221.771 57.3560   4
   1   1   4 154.857 52.1768   1
   1   1   4 298.583 101.025   8
  -1  -1  -4 305.059 94.4264   6
   1   1   5 96.5490 46.4126   1
   1   1   5 48.4632 46.7472   4
   1   1   5 144.590 96.5030   8
   1   1   6 7798.24 475.707   8
   1   1   7 687.116 190.189   8
   1   1   7 504.849 164.509   6
   1   1   8-258.336 144.099   8
   1   1   8-52.7332 118.829   6
   1   1   9 219.555 130.463   8
   1   1   9 751.523 229.192   6
   1   1  10 7642.64 632.605   6
   1   1  10 7274.23 615.235   8
   1   1  11 5953.82 578.265   6
   1   1  11 6929.09 633.272   8
   1   1  12 2964.79 432.128   6
   1   1  12 3392.16 465.045   8
  -1  -1 -13 484.785 209.062   9
   1   1  13 246.313 176.889   8
   1   1  13 573.239 224.707   6
  -1  -1 -14 3060.42 463.741   9
   1   1  14 2375.90 420.337   6
   1   1  14 2571.87 448.014   8
   1   1  15 62.5256 188.009   6
   1   1  15 34.6511 177.036   8
  -1  -1 -15 58.0242 164.127   9
   1   2 -14 2016.07 403.382   3
   1   2 -13-149.899 200.416   3
  -1  -2  12 292.212 175.718   6
   1   2 -12-134.440 169.075   3
   1   2 -11 2450.25 377.910   3
  -1  -2  11 2571.60 339.860   6
  -1  -2  10 6741.35 533.382   6
   1   2 -10 6701.41 438.660   9
   1   2 -10 6107.22 561.409   3
  -1  -2   9 17557.1 786.820   6
   1   2  -9 16971.3 652.495   9
  -1  -2   8 33264.9 991.960   6
   1   2  -8 32356.4 834.761   9
  -1  -2   7 48929.8 1112.43   6
   1   2  -7 50017.7 1283.85   3
   1   2  -6 251.974 146.789   3
  -1  -2   6 417.033 122.543   6
   1   2  -6 356.439 78.4115   1
  -1  -2   6 581.151 89.6150   4
  -1  -2   5 245898. 2025.33   6
   1   2  -5 247761. 1788.32   1
   1   2  -5 244768. 2470.23   3
  -1  -2   5 241515. 1808.14   4
  -1  -2   4 5435.54 280.838   4
  -1  -2   4 5520.02 262.607   6
   1   2  -4 5341.78 345.832   3
  -1  -2   3 120529. 1306.94   4
  -1  -2   3 122378. 1010.06   6
   1   2  -3 121032. 1480.70   3
  -1  -2   2 63560.7 526.931   6
  -1  -2   2 65264.0 993.354   3
  -1  -2   2 64417.0 943.909   4
   1   2  -2 63224.9 998.853   3
  -1  -2   1 132768. 1273.81   5
   1   2  -1 129007. 1365.83   3
  -1  -2   0 56525.4 481.798   6
  -1  -2   0 56574.3 602.882   9
  -1  -2   0 55807.9 774.976   5
   1   2   0 57261.5 502.390   6
  -1  -2  -1 400066. 2078.19   5
   1   2   1 415074. 2405.15   2
  -1  -2  -2 479007. 2500.49   5
   1   2   2 506426. 2845.09   8
  -1  -2  -3 55197.3 927.046   5
   1   2   3 56160.3 1007.36   8
  -1  -2  -3 56576.6 942.207   6
  -1  -2  -4 47450.0 971.005   6
  -1  -2  -4 46251.4 953.318   5
   1   2   4 46507.2 1005.12   8
  -1  -2  -4 48863.7 838.024   4
  -1  -2  -5 8330.73 347.790   4
   1   2   5 9708.48 501.709   8
   1   2   6 61203.5 1375.14   8
  -1  -2  -6 59972.7 907.520   4
   1   2   7 401.527 93.8638   1
  -1  -2  -7 256.394 74.3228   4
   1   2   7 346.029 170.236   8
   1   2   8 43707.9 761.555   1
   1   2   8 45697.9 1361.79   8
  -1  -2  -8 43112.8 723.749   4
   1   2   9 97150.7 2069.37   6
   1   2   9 95430.6 2094.77   8
   1   2  10 91098.8 2197.11   8
   1   2  10 95733.6 2174.89   6
   1   2  11 6556.32 612.044   6
  -1  -2 -11 6120.79 577.040   9
   1   2  11 5973.52 588.100   8
   1   2  12 535.698 264.269   8
  -1  -2 -12 298.395 199.118   9
   1   2  12 323.425 194.520   6
   1   2  13 3587.54 513.172   6
  -1  -2 -13 4018.95 494.633   9
   1   2  13 3336.72 501.442   8
   1   2  14-24.6887 140.722   6
   1   2  14-170.488 195.679   8
  -1  -2 -14-39.3574 169.789   9
  -1  -2 -15 273.252 203.296   9
   1   2  15 186.705 232.455   8
   1   2  15 315.766 207.670   6
   1   3 -14 736.499 306.022   3
   1   3 -13 3850.31 571.504   3
   1   3 -12 608.963 213.957   3
   1   3 -11 9546.20 752.163   3
   1   3 -10 66.3978 105.355   3
   1   3  -9 780.030 211.727   3
  -1  -3   9 649.204 160.069   6
  -1  -3   8 1280.93 200.358   6
   1   3  -8 1132.00 245.231   3
  -1  -3   7 20138.3 682.714   6
   1   3  -7 20418.3 861.547   3
   1   3  -7 20239.5 597.390   1
   1   3  -6 131680. 2022.67   3
   1   3  -6 134409. 2228.03   5
  -1  -3   6 128235. 1547.50   6
   1   3  -5 60055.1 1293.00   3
  -1  -3   5 59351.8 1090.25   4
  -1  -3   5 59435.6 923.178   6
  -1  -3   4 272600. 1638.07   6
  -1  -3   4 272279. 2370.30   4
   1   3  -4 277299. 2582.94   3
   1   3  -3 116.986 38.4562   9
  -1  -3   3 21.7497 77.6999   4
  -1  -3   3 398.844 50.2913   6
  -1  -3   3 29.6095 74.8931   3
   1   3  -3-46.8105 86.9685   3
   1   3  -3 280.337 139.331   5
  -1  -3   2 289845. 2293.17   3
  -1  -3   2 288682. 2501.97   5
   1   3  -2 289347. 1368.98   9
  -1  -3   2 290815. 2482.32   4
   1   3  -2 288080. 2355.75   3
  -1  -3   1 4584.88 281.397   3
   1   3  -1 4578.35 296.217   3
  -1  -3   1 4784.06 295.488   5
  -1  -3   1 4283.51 277.953   2
  -1  -3   1 4404.39 192.121   9
  -1  -3   0 36425.1 631.483   9
  -1  -3   0 38115.5 809.795   3
   1   3   0 36660.2 629.827   9
  -1  -3   0 37715.2 812.395   5
  -1  -3   0 37966.1 801.006   2
   1   3   0 37163.1 432.940   6
  -1  -3  -1 53201.1 959.514   5
  -1  -3  -1 53579.6 1177.53   3
  -1  -3  -1 56314.8 946.034   8
  -1  -3  -1 53976.3 860.708   9
   1   3   1 54161.8 702.487   6
   1   3   1 54903.3 989.271   2
  -1  -3  -2 57520.6 993.589   8
  -1  -3  -2 57062.0 969.097   9
  -1  -3  -2 56623.0 1017.27   5
   1   3   2 56329.9 878.290   6
   1   3   3 138306. 1586.43   6
  -1  -3  -3 139626. 1700.33   5
   1   3   3 141026. 1739.03   8
  -1  -3  -3 140576. 1667.34   9
  -1  -3  -4 1926.12 207.617   4
   1   3   4 1421.91 198.161   8
  -1  -3  -4 1783.48 226.816   9
   1   3   5 470993. 3699.12   8
  -1  -3  -5 466904. 3551.72   9
  -1  -3  -5 459081. 3117.71   4
  -1  -3  -6 32811.1 1008.10   9
   1   3   6 32233.6 1037.76   8
  -1  -3  -6 32911.2 818.576   4
  -1  -3  -7 76555.4 1256.87   4
  -1  -3  -7 76048.0 1640.33   9
   1   3   7 76363.2 1709.34   8
  -1  -3  -8 1053.58 159.122   4
  -1  -3  -8 879.237 215.416   9
   1   3   8 960.329 244.118   8
   1   3   8 1153.67 250.349   6
   1   3   9 26.2342 173.245   8
   1   3   9 354.390 233.014   6
  -1  -3  -9-168.164 147.482   9
  -1  -3  -9 110.597 57.3030   4
   1   3   9 56.8900 73.8320   1
   1   3  10 447.327 114.194   1
  -1  -3 -10 408.803 208.005   9
   1   3  10 509.549 166.062   6
   1   3  10 221.628 161.492   8
   1   3  11 9096.14 737.315   6
  -1  -3 -11 9380.49 724.705   9
   1   3  11 8634.21 724.960   8
   1   3  12 677.940 247.107   8
  -1  -3 -12 677.690 222.027   9
   1   3  12 415.822 151.755   6
  -1  -3 -13 257.955 192.953   9
   1   3  13 478.637 259.488   8
   1   3  13 246.064 150.693   6
  -1  -3 -14 2864.69 474.198   9
   1   3  14 3098.27 518.528   6
   1   3  14 3132.55 517.625   8
  -1  -3 -15 203.546 231.411   9
   1   4 -13 179.322 206.010   3
   1   4 -12 698.807 251.765   3
   1   4 -12 579.369 308.986   5
   1   4 -11-46.3158 197.765   5
   1   4 -11 94.2741 140.650   3
   1   4 -10 1193.25 265.260   3
   1   4 -10 1075.13 326.704   5
   1   4  -9 607.268 231.362   5
   1   4  -9 633.522 205.669   3
   1   4  -8 747.664 209.175   3
   1   4  -8 997.282 255.659   5
   1   4  -7 5162.73 445.982   3
  -1  -4   7 5460.15 336.936   6
   1   4  -7 5496.04 517.596   5
  -1  -4   6 20556.6 570.562   6
   1   4  -6 20959.9 943.763   5
   1   4  -6 20007.7 822.706   3
   1   4  -5 89378.6 1839.37   5
   1   4  -5 91743.4 1665.34   3
   1   4  -5 87993.8 994.398   9
  -1  -4   5 88195.0 968.219   6
   1   4  -4 30256.5 1013.40   5
   1   4  -4 30196.0 900.048   3
   1   4  -4 29334.4 555.212   9
   1   4  -3 424905. 3254.97   3
   1   4  -3 424864. 2099.19   9
  -1  -4   2 13730.5 552.250   2
   1   4  -2 13621.5 394.353   9
  -1  -4   2 14541.9 557.950   3
   1   4  -2 14728.8 591.425   3
  -1  -4   1 55491.5 876.464   9
   1   4  -1 54263.5 833.536   9
  -1  -4   1 53932.5 1060.74   3
  -1  -4   1 54374.3 1046.94   2
   1   4  -1 56028.0 1244.11   3
   1   4   0 95.8695 38.4644   6
   1   4   0 34.8444 59.4200   9
  -1  -4   0 21.2730 63.3439   9
  -1  -4  -1 311.386 100.612   9
   1   4   1 342.010 114.628   2
  -1  -4  -1 338.951 105.049   3
   1   4   1 274.645 79.3835   9
   1   4   1 243.891 62.5429   6
  -1  -4  -1 193.632 69.5573   8
  -1  -4  -2 187.839 78.2614   8
   1   4   2 177.634 97.1328   2
  -1  -4  -2 195.488 106.043   9
   1   4   3 78799.6 1240.41   6
   1   4   3 81394.7 1474.62   8
  -1  -4  -3 79641.8 1395.48   9
  -1  -4  -4 5632.04 401.809   9
   1   4   4 5945.13 420.279   8
   1   4   4 5669.31 379.543   6
  -1  -4  -5 66433.2 1444.13   9
   1   4   5 66044.2 1442.63   8
  -1  -4  -6 314746. 3262.17   9
   1   4   6 313539. 3346.81   8
   1   4   6 310799. 3279.51   6
  -1  -4  -7 660.259 206.476   9
   1   4   7 1273.57 259.288   8
   1   4   8 83880.6 1913.19   6
  -1  -4  -8 86787.1 1916.88   9
   1   4   8 81858.7 1959.90   8
   1   4   9 44841.4 1480.62   6
   1   4   9 43630.6 1492.25   8
  -1  -4  -9 43153.3 1431.91   9
   1   4  10 25048.6 1176.95   6
   1   4  10 23813.9 1171.12   8
  -1  -4 -10 22619.5 1089.72   9
   1   4  11 158.350 171.351   6
   1   4  11-132.312 177.709   8
  -1  -4 -11 144.334 178.839   9
   1   4  12 315.579 171.316   8
   1   4  12 26.0927 154.413   6
  -1  -4 -12-78.2695 184.565   9
  -1  -4 -13 4520.34 550.528   9
   1   4  13 3709.85 528.188   8
   1   4  13 4485.99 592.820   6
  -1  -4 -14 79.1112 146.673   9
   1   4  14 78.0695 208.456   6
   1   4  14 26.9228 179.895   8
   1   5 -11 7369.54 768.351   5
   1   5 -10 584.623 202.647   3
   1   5 -10 842.533 304.012   5
   1   5  -9 4332.89 567.253   5
   1   5  -9 4684.58 492.652   3
   1   5  -8 35.0425 154.464   5
   1   5  -8 533.144 195.508   3
   1   5  -7 5051.59 456.098   3
   1   5  -7 4465.01 506.636   5
   1   5  -6 11587.9 758.712   5
   1   5  -6 11701.1 658.932   3
   1   5  -5 4414.50 392.475   3
   1   5  -5 4958.24 476.148   5
   1   5  -4 28867.7 1098.57   5
   1   5  -4 26825.5 611.871   9
   1   5  -4 27153.9 918.083   3
   1   5  -3 137.020 130.273   5
   1   5  -3 93.4825 54.2061   9
   1   5  -3-159.075 132.066   3
   1   5  -2 50116.9 1355.36   5
   1   5  -2 47067.9 879.829   9
   1   5  -1 15958.5 731.951   5
   1   5  -1 15626.0 532.421   9
  -1  -5   0 33566.8 800.155   8
   1   5   0 32144.4 527.612   6
   1   5   0 32288.0 806.022   9
  -1  -5   0 31378.3 812.627   9
   1   5   1 1253.70 135.112   6
  -1  -5  -1 1233.34 162.544   8
  -1  -5  -1 1358.79 193.812   9
   1   5   1 1093.24 172.355   2
  -1  -5  -2 99.6817 84.6492   9
   1   5   2 46.0832 66.9268   6
   1   5   2-20.2742 108.738   2
   1   5   3 84981.3 1397.32   6
   1   5   3 87470.8 1727.55   5
  -1  -5  -3 88861.5 1608.35   9
   1   5   4 38.7379 121.290   8
   1   5   4 129.862 148.956   5
  -1  -5  -4-179.882 142.395   9
   1   5   5 169899. 2573.87   5
   1   5   5 169441. 2491.27   8
  -1  -5  -5 174425. 2507.78   9
   1   5   6 100.666 151.411   6
  -1  -5  -6 442.049 194.610   9
   1   5   6 77.6818 126.021   8
   1   5   7 19733.6 911.804   6
  -1  -5  -7 20493.6 947.832   9
   1   5   7 20112.8 940.154   8
   1   5   8 3854.02 425.438   6
  -1  -5  -8 4257.95 468.202   9
   1   5   8 4254.30 462.693   8
   1   5   9 1595.18 302.342   8
   1   5   9 1943.09 348.382   6
  -1  -5  -9 1566.89 301.563   9
   1   5  10 325.238 175.960   8
  -1  -5 -10 484.865 176.062   9
   1   5  10 419.004 221.097   6
   1   5  11-262.483 218.817   6
   1   5  11 206.617 188.345   8
  -1  -5 -11 12.9497 180.278   9
   1   5  12 574.331 253.690   6
   1   5  12 646.021 249.966   8
  -1  -5 -12 388.899 206.778   9
   1   5  13 1146.98 313.323   6
  -1  -5 -13 737.831 259.591   9
   1   5  13 825.174 290.010   8
  -1  -5 -14 1414.83 350.870   9
   1   5  14 1515.72 397.219   8
   1   5  14 1398.12 366.609   6
   1   6 -10 4269.44 597.274   5
   1   6  -9 1502.04 398.975   5
   1   6  -8 169.248 263.455   5
   1   6  -8-210.147 174.763   3
   1   6  -7 123.629 120.101   3
   1   6  -7 177.401 193.165   5
   1   6  -6 2984.02 428.499   5
   1   6  -6 2983.44 359.326   3
   1   6  -5-35.5084 142.729   5
   1   6  -5 211.342 118.744   3
   1   6  -4 3821.02 392.049   3
   1   6  -4 4140.60 476.377   5
   1   6  -3 67364.5 1795.29   5
   1   6  -2 16766.9 872.180   5
  -1  -6   1 40323.8 886.220   8
   1   6  -1 42609.4 1340.23   5
   1   6   0 883.667 100.491   6
  -1  -6   0 680.478 129.751   8
  -1  -6   0 854.342 184.277   9
   1   6   0 1095.52 233.266   5
   1   6   1 49558.9 1418.05   5
   1   6   1 47542.8 850.055   6
  -1  -6  -1 49997.8 1203.34   9
   1   6   2 10686.5 468.930   6
   1   6   2 10631.1 580.169   2
   1   6   2 10817.2 663.652   5
  -1  -6  -2 10617.0 591.863   9
   1   6   3 83257.7 1880.90   5
   1   6   3 79461.7 1675.18   2
  -1  -6  -3 81292.2 1690.35   9
   1   6   4 3094.10 381.415   5
  -1  -6  -4 3378.61 365.863   9
   1   6   5 15576.2 802.402   8
   1   6   5 14896.9 828.252   5
   1   6   5 14329.3 707.305   6
  -1  -6  -5 15500.7 807.733   9
   1   6   6 28548.1 1072.24   6
  -1  -6  -6 32558.9 1213.44   9
   1   6   6 31203.0 1167.59   8
   1   6   6 30755.3 1223.83   5
   1   6   7 153.555 143.435   6
   1   6   7 191.066 132.197   8
  -1  -6  -7 4.06181 142.208   9
  -1  -6  -8 2407.29 382.179   9
   1   6   8 1846.07 311.448   6
   1   6   8 2437.08 363.684   8
   1   6   9 1911.89 344.918   8
  -1  -6  -9 2528.13 408.201   9
   1   6   9 1901.44 348.565   6
   1   6  10 2355.82 412.059   8
  -1  -6 -10 1752.88 346.512   9
   1   6  10 2310.17 401.307   6
  -1  -6 -11 269.955 210.135   9
   1   6  11-128.095 174.230   6
   1   6  11 392.457 197.351   8
   1   6  12 2632.13 480.046   8
  -1  -6 -12 2185.48 422.475   9
   1   6  12 1993.58 402.898   6
   1   6  13 11104.0 971.257   8
  -1  -6 -13 12411.4 1013.89   9
   1   6  13 11632.9 976.062   6
   1   7  -8 2502.51 457.740   5
   1   7  -7 13575.2 1004.03   5
   1   7  -6 1299.22 327.810   5
   1   7  -5-27.7145 96.6535   3
   1   7  -5 271.127 203.277   5
   1   7  -4 1694.03 348.091   5
   1   7  -3 182.447 158.735   5
   1   7  -2 2.04779 173.412   5
   1   7  -1 4213.12 479.190   5
  -1  -7   0 47664.1 1259.18   9
   1   7   0 46754.3 1525.76   5
   1   7   1 6193.87 324.306   6
  -1  -7  -1 6135.69 476.355   9
   1   7   1 6191.78 566.463   5
   1   7   2 38116.3 927.482   6
   1   7   2 40634.2 1421.05   5
   1   7   2 38769.2 1173.75   2
  -1  -7  -2 38827.7 1219.24   9
   1   7   3 14071.4 852.601   5
  -1  -7  -3 13719.2 764.611   9
   1   7   3 12867.0 697.929   2
   1   7   4 8878.82 690.163   5
  -1  -7  -4 7940.66 600.300   9
   1   7   4 7362.89 584.699   2
   1   7   5 8369.98 565.641   6
   1   7   5 9243.48 719.530   5
  -1  -7  -5 9275.12 671.957   9
   1   7   6 731.064 198.547   6
  -1  -7  -6 735.454 228.013   9
   1   7   6 714.160 254.698   8
   1   7   6 441.900 208.853   5
  -1  -7  -7 29.1645 111.084   9
   1   7   7-50.6300 136.025   8
   1   7   7-76.9538 133.914   5
   1   7   8 1042.83 267.598   6
  -1  -7  -8 1189.98 302.549   9
   1   7   8 1179.12 287.646   8
   1   7   9 3287.05 442.661   6
  -1  -7  -9 3342.32 489.285   9
   1   7   9 3616.97 474.175   8
   1   7  10 2321.31 425.572   8
   1   7  10 2375.34 432.446   6
  -1  -7 -10 2173.94 405.175   9
   1   7  11 4727.63 590.253   6
   1   7  11 5357.80 630.648   8
  -1  -7 -11 5032.82 625.654   9
  -1  -7 -12-150.328 274.505   9
   1   7  12 31.4303 194.218   6
   1   7  12 117.633 199.384   8
   1   8  -7-552.876 327.999   5
   1   8  -6 3834.05 573.437   5
   1   8  -5 1077.90 285.885   5
   1   8  -4 1266.96 313.468   5
   1   8  -3 7710.83 721.233   5
   1   8  -2 1094.24 293.460   5
   1   8  -1 1658.96 328.903   5
   1   8   0 1030.08 308.932   5
  -1  -8  -1 18167.6 885.512   9
   1   8   1 16555.1 995.574   5
   1   8   2 2413.92 408.450   5
  -1  -8  -2 1924.34 300.610   9
   1   8   3 14725.9 783.171   2
   1   8   3 14318.1 950.460   5
  -1  -8  -3 13418.7 803.674   9
   1   8   4 3339.46 348.154   6
   1   8   4 4015.25 508.404   5
  -1  -8  -4 3832.58 468.278   9
   1   8   4 3995.14 438.403   2
   1   8   5 910.875 221.587   6
  -1  -8  -5 871.762 247.337   9
   1   8   5 929.715 286.100   2
   1   8   5 691.614 231.180   5
   1   8   6 232.945 167.157   5
   1   8   6 448.170 170.589   6
  -1  -8  -6 330.555 180.456   9
   1   8   7 565.037 228.381   5
  -1  -8  -7 822.856 260.080   9
   1   8   7 440.740 208.261   6
   1   8   8 21.5878 126.498   8
  -1  -8  -8 355.563 229.122   9
   1   8   8 19.0684 174.627   6
   1   8   9-71.9199 134.634   6
   1   8   9 223.225 162.703   8
  -1  -8  -9-11.2608 148.421   9
   1   8  10 2769.95 484.540   8
   1   8  10 2566.85 447.355   6
  -1  -8 -10 3428.88 535.217   9
   1   8  11 633.034 263.806   8
   1   8  11 424.659 213.802   6
  -1  -8 -11 618.401 265.643   9
   1   8  12 1967.26 415.528   6
   1   8  12 1358.77 395.534   8
   1   9  -4 60.7798 225.843   5
   1   9  -3 1335.70 368.173   5
   1   9  -2 329.944 228.123   5
   1   9  -1-80.3193 126.618   5
   1   9   0 738.239 246.698   5
   1   9   1-76.0613 126.829   5
  -1  -9  -2 596.645 219.844   9
   1   9   2 654.553 275.900   5
  -1  -9  -3 402.726 174.109   9
   1   9   3 365.782 255.441   5
   1   9   4 3374.38 496.978   5
  -1  -9  -4 2551.44 416.553   9
   1   9   5 2056.20 404.599   5
  -1  -9  -5 2006.61 372.645   9
   1   9   6 2311.49 393.609   2
  -1  -9  -6 2548.99 421.553   9
   1   9   6 2590.47 450.205   5
   1   9   7 3167.77 409.198   6
  -1  -9  -7 2987.45 501.426   9
   1   9   7 3766.53 495.000   2
   1   9   7 3276.34 541.226   5
   1   9   8 1376.10 316.821   6
   1   9   8 1588.98 387.381   5
  -1  -9  -8 2243.89 456.644   9
  -1  -9  -9 3839.43 565.295   9
   1   9   9 3176.45 471.021   6
   1   9  10 211.717 194.261   6
   1   9  10 128.763 155.780   8
   1   9  11 2348.59 456.918   6
   1   9  11 2676.18 535.716   8
   1  10   0 409.362 250.400   5
   1  10   1 6439.22 750.129   5
   1  10   2 768.633 288.957   5
   1  10   3 931.829 342.766   5
   1  10   4 25.1862 206.077   5
  -1 -10  -4 529.614 239.570   9
   1  10   5 383.499 201.403   5
  -1 -10  -5-20.9443 140.855   9
   1  10   6 174.398 214.181   5
  -1 -10  -6 13.6736 137.857   9
  -1 -10  -7 475.851 270.729   9
  -2   9   8 2180.32 432.805   6
  -2   9   4 2444.76 486.762   5
  -2   9   3 885.693 356.055   5
  -2   9   2 83.0263 187.869   5
  -2   8   9 161.399 172.362   6
  -2   8   8 3051.79 517.184   5
   2  -8  -8 3266.77 539.073   9
   2  -8  -7 152.981 207.079   9
  -2   8   7 264.688 234.183   5
   2  -8  -6 7075.02 736.073   9
  -2   8   6 5947.85 700.956   5
  -2   8   5 789.315 332.652   5
   2  -8  -5 523.384 238.562   9
  -2   8   4 38.2387 142.499   5
  -2   8   3 4357.18 588.651   5
  -2   8   2 247.698 250.173   5
  -2   8   1 529.229 227.477   5
  -2   8   0 422.605 243.996   5
  -2   8  -1 635.606 262.492   5
  -2   8  -2-55.6064 141.187   5
  -2   8  -3-365.417 255.589   5
  -2   8  -4 408.075 228.509   5
  -2   7  11 1897.22 419.150   8
   2  -7 -10 637.985 246.562   9
  -2   7  10 699.680 296.824   6
  -2   7  10 669.394 259.087   8
  -2   7   9 2188.56 369.327   8
   2  -7  -9 2602.21 470.040   9
   2  -7  -8 5998.29 683.633   9
  -2   7   8 6022.81 594.242   8
  -2   7   7 22671.0 1267.63   5
   2  -7  -7 23607.4 1295.28   9
  -2   7   7 25048.8 1122.59   8
  -2   7   6 801.058 301.033   5
   2  -7  -6 321.935 164.464   9
  -2   7   5 156.426 162.623   5
   2  -7  -5-116.917 157.347   9
  -2   7   4 3751.18 507.568   5
   2  -7  -4 3534.45 496.650   9
  -2   7   3 1712.91 357.551   5
  -2   7   2 1980.47 390.763   5
  -2   7   1 8324.51 744.296   5
  -2   7   0 5080.26 584.157   5
  -2   7  -1 3768.94 515.201   5
  -2   7  -2 3024.22 470.977   5
  -2   7  -3 3758.78 520.848   5
  -2   7  -4 64.6269 199.468   5
  -2   7  -5 674.426 297.770   5
  -2   7  -6 429.513 245.354   5
   2  -6 -12 6703.04 764.378   9
  -2   6  11 1759.64 406.080   6
   2  -6 -11 1562.20 368.238   9
  -2   6  10 715.866 279.909   6
   2  -6 -10 533.940 233.201   9
   2  -6  -9-18.2961 173.813   9
   2  -6  -8 3647.12 500.482   9
   2  -6  -7 721.042 235.483   9
  -2   6   7 219.546 168.359   5
   2  -6  -6 2533.12 395.769   9
  -2   6   6 2621.96 413.714   5
  -2   6   5 269.337 149.845   5
   2  -6  -5-50.4091 174.361   9
  -2   6   5 119.100 120.396   8
  -2   6   4 887.998 189.124   8
  -2   6   4 893.910 249.055   5
   2  -6  -4 1074.84 259.095   9
  -2   6   3 12436.3 821.723   5
   2  -6  -3 12913.0 844.556   9
  -2   6   3 12488.2 558.458   8
  -2   6   2 2495.16 393.179   5
  -2   6   1 4217.52 477.475   5
  -2   6   0 17793.4 974.101   5
  -2   6  -1 47048.1 1619.39   5
  -2   6  -2 918.098 284.283   5
  -2   6  -3 7639.15 702.418   5
  -2   6  -4 2410.51 419.451   5
  -2   6  -5-99.2984 215.496   5
  -2   6  -6 180.248 186.699   5
  -2   6  -7 4041.89 583.820   5
  -2   6  -8 2025.67 429.310   5
   2  -5 -13 456.120 270.500   9
  -2   5  12 357.933 279.190   6
   2  -5 -12 176.360 211.641   9
   2  -5 -11 2238.31 418.806   9
  -2   5  11 2257.35 445.062   6
   2  -5 -10 165.635 180.220   9
   2  -5  -9 1468.11 311.895   9
   2  -5  -8 4839.71 551.339   9
   2  -5  -7 11918.2 820.267   9
   2  -5  -6 7313.87 625.297   9
  -2   5   6 6796.21 598.469   5
  -2   5   5 292.829 173.818   5
   2  -5  -5 285.360 133.373   9
  -2   5   4 32712.5 1228.27   5
   2  -5  -4 32077.5 1234.17   9
   2  -5  -3 669.016 186.453   9
  -2   5   3 857.880 229.230   5
  -2   5   2 6423.62 537.651   5
  -2   5   1 1230.05 263.221   5
  -2   5   1 1092.15 119.889   8
  -2   5   0 3148.41 381.407   5
  -2   5  -1 983.754 261.942   5
  -2   5  -2 63164.3 1767.05   5
  -2   5  -3 37375.7 1382.14   5
  -2   5  -4 1676.44 316.491   5
  -2   5  -5 1693.08 335.064   5
  -2   5  -6-17.4827 135.321   5
  -2   5  -7 1951.18 381.503   5
  -2   5  -8 1575.36 353.367   5
  -2   5  -9 202.029 173.811   5
  -2   5 -10 896.843 321.979   5
   2  -4 -14 4029.04 583.286   9
   2  -4 -13-274.848 229.916   9
  -2   4  13 623.801 266.797   6
  -2   4  12 2256.06 415.374   6
   2  -4 -12 2140.34 371.603   9
   2  -4 -11-63.1922 121.963   7
  -2   4  11 540.334 224.111   6
   2  -4 -11 280.162 210.378   9
   2  -4 -10 1811.95 373.983   9
  -2   4  10 1749.86 358.582   6
   2  -4  -9 1316.02 285.387   9
   2  -4  -8 2969.09 417.125   9
   2  -4  -7 8693.89 659.248   9
  -2   4   6 16588.7 855.516   5
   2  -4  -6 17039.8 890.984   9
  -2   4   5 9796.25 638.177   5
   2  -4  -5 9957.63 650.203   9
   2  -4  -4 2512.96 324.704   9
  -2   4   4 2271.19 314.461   5
  -2   4   3 4102.46 405.481   5
   2  -4  -3 4362.19 422.226   9
  -2   4   2 604.675 150.415   5
   2  -4  -2 507.044 160.486   9
  -2   4   1 13722.3 698.946   5
  -2   4   0 4540.97 417.065   5
   2  -4   0 1781.95 118.594   3
  -2   4  -1 245128. 2991.22   5
  -2   4  -2 3118.04 361.496   5
  -2   4  -3 88376.7 1943.71   5
  -2   4  -4 36398.3 1288.79   5
  -2   4  -5 275.815 186.295   5
  -2   4  -6 4960.09 520.073   5
  -2   4  -7 2574.89 398.869   5
  -2   4  -8 3730.68 500.955   5
  -2   4  -9 1223.22 335.835   5
  -2   4 -10-226.314 198.424   5
  -2   4 -11 3424.02 538.090   5
   2  -3 -15 1166.06 310.186   9
   2  -3 -14 487.836 252.759   9
   2  -3 -13-20.1526 176.598   9
  -2   3  13 396.605 254.249   6
  -2   3  12 398.201 216.034   6
   2  -3 -12 507.046 210.172   9
  -2   3  11 595.983 249.228   6
   2  -3 -11 666.469 221.676   9
  -2   3  10 397.153 201.243   6
   2  -3 -10 800.890 184.026   7
   2  -3 -10 677.530 239.416   9
   2  -3  -9 246.592 132.334   9
   2  -3  -9 185.560 113.298   7
   2  -3  -8 3564.98 399.251   9
   2  -3  -7 8191.69 586.122   9
   2  -3  -6 58007.1 1520.03   9
  -2   3   5 288.402 112.596   5
   2  -3  -5 391.650 134.222   9
  -2   3   4 266592. 2872.40   5
   2  -3  -4 263059. 2960.11   9
  -2   3   3 4492.34 375.566   5
   2  -3  -3 5205.38 411.524   9
   2  -3  -2 10898.5 587.557   9
  -2   3   2 11225.4 563.212   5
  -2   3   1 103.073 109.975   5
  -2   3   0 94519.8 1615.37   5
   2  -3   0 95658.0 698.392   3
  -2   3  -1 65318.6 1396.87   5
  -2   3  -2 451232. 3760.62   5
  -2   3  -3 40493.0 1183.85   5
  -2   3  -4 12237.1 682.229   5
  -2   3  -4 10613.2 219.544   3
  -2   3  -5 46977.5 1386.24   5
  -2   3  -5 45674.3 684.375   3
  -2   3  -6 71.0214 54.2987   3
  -2   3  -6 434.534 170.534   5
  -2   3  -7 13487.8 518.172   3
  -2   3  -7 14786.7 880.449   5
  -2   3  -8 743.265 150.507   3
  -2   3  -8 990.986 280.662   5
   2  -3   8 607.318 161.803   8
   2  -3   8 498.276 161.470   6
   2  -3   9 816.109 213.725   6
  -2   3  -9 989.879 193.863   3
  -2   3  -9 696.387 276.269   5
   2  -3  10 223.583 184.534   6
  -2   3 -10 67.2734 170.753   5
  -2   3 -11 3673.30 542.135   5
  -2   3 -12 622.742 332.206   5
  -2   2  14 886.322 270.959   6
   2  -2 -14 1135.69 292.434   9
   2  -2 -13 125.812 137.387   9
  -2   2  13 122.487 206.563   6
   2  -2 -12 1618.85 319.125   9
  -2   2  12 1823.29 368.415   6
  -2   2  11 2082.09 369.575   6
   2  -2 -11 1894.11 341.206   9
  -2   2  10 759.024 253.974   6
   2  -2 -10 996.120 263.604   9
   2  -2 -10 736.828 161.778   7
   2  -2  -9 811.857 202.116   9
   2  -2  -9 1362.91 218.022   7
   2  -2  -8 20289.2 750.272   7
   2  -2  -8 20039.8 891.926   9
   2  -2  -7 19461.9 733.205   7
   2  -2  -7 20192.9 847.620   9
   2  -2  -6 35402.4 1090.55   9
   2  -2  -5 30241.7 959.311   9
  -2   2   4 6538.00 405.331   5
   2  -2  -4 6489.16 431.808   9
   2  -2  -3 19821.9 663.315   5
  -2   2   3 18908.7 663.209   5
   2  -2  -3 18843.1 701.497   9
   2  -2  -2 16075.6 566.046   5
  -2   2   2 15383.3 571.392   5
   2  -2  -2 15914.6 637.264   9
  -2   2   1 34194.1 822.537   5
   2  -2  -1 35306.8 841.689   5
   2  -2   0 23070.6 380.384   3
   2  -2   0 23339.7 677.354   5
  -2   2   0 22495.1 668.382   5
  -2   2  -1 163577. 1889.88   5
   2  -2   1 165628. 1878.19   5
  -2   2  -2 4078.68 316.281   5
  -2   2  -2 4164.86 183.267   8
  -2   2  -3 25010.5 824.867   5
   2  -2   3 20678.5 413.260   2
  -2   2  -4 16740.3 728.102   5
   2  -2   5 1940.57 255.908   6
  -2   2  -5 1820.62 279.698   5
   2  -2   6 17248.5 762.158   6
   2  -2   6 17606.8 621.354   8
  -2   2  -6 18907.0 884.119   5
   2  -2   7-90.8503 142.683   6
  -2   2  -7 249.423 189.352   5
   2  -2   7-14.4537 69.7361   8
   2  -2   8 29408.2 1101.72   6
   2  -2   8 30055.0 959.519   8
   2  -2   9 337.601 182.894   6
   2  -2   9 193.862 106.414   8
   2  -2  10 2656.15 336.594   8
   2  -2  10 2760.35 394.421   6
   2  -2  11 4428.24 525.686   6
   2  -2  11 5341.03 502.290   8
   2  -2  12 27.1374 172.593   6
  -2   1  14 312.239 201.147   6
  -2   1  13 1387.35 338.809   6
   2  -1 -13 1515.39 311.048   9
   2  -1 -12 439.934 194.480   9
  -2   1  12 339.965 173.529   6
  -2   1  11 5431.39 583.614   6
   2  -1 -11 4933.09 478.383   9
  -2   1  10 8852.20 675.015   6
   2  -1 -10 9340.64 626.828   9
  -2   1   9 20223.4 972.883   6
   2  -1  -9 19385.8 849.972   9
   2  -1  -9 18882.3 518.878   4
   2  -1  -8 2821.32 269.010   7
   2  -1  -8 3280.04 333.725   9
   2  -1  -7 5918.79 377.841   7
   2  -1  -7 5765.61 425.566   9
   2  -1  -6-50.6265 100.453   9
   2  -1  -6 298.078 95.2111   7
   2  -1  -5 32984.6 900.500   9
   2  -1  -5 33238.5 849.283   7
   2  -1  -4 67445.2 1183.50   5
   2  -1  -4 63985.0 1170.03   7
   2  -1  -4 66943.8 1222.19   9
   2  -1  -3 5836.25 314.969   5
  -2   1   3 5672.07 341.574   9
   2  -1  -3 5317.54 330.402   9
  -2   1   2 27198.2 628.866   5
   2  -1  -2 26821.5 615.022   5
   2  -1  -2 26484.8 722.349   9
  -2   1   1 68275.2 933.341   5
   2  -1  -1 68979.3 935.080   5
   2  -1  -1 68027.6 884.624   3
   2  -1   0 53613.5 830.630   5
  -2   1   0 53115.5 825.941   5
   2  -1   0 53726.1 683.904   3
   2  -1   1 950.452 122.722   5
  -2   1  -1 730.958 82.5464   2
  -2   1  -1 701.422 112.633   5
  -2   1  -1 792.321 73.1066   3
   2  -1   2 136268. 1087.29   2
  -2   1  -2 135673. 992.319   3
  -2   1  -3 28832.9 790.768   5
  -2   1  -3 28153.4 618.171   8
   2  -1   4 3339.11 297.069   6
   2  -1   5 7612.93 443.474   8
   2  -1   5 10727.0 551.665   6
   2  -1   6 9458.37 483.388   8
   2  -1   6 9190.63 348.437   7
   2  -1   6 9709.59 576.055   6
   2  -1   7 1310.50 245.021   6
   2  -1   7 1044.10 113.086   7
   2  -1   7 931.324 173.208   8
   2  -1   8 75.4838 115.197   6
   2  -1   8 109.083 102.838   8
   2  -1   9 27614.1 1146.28   6
   2  -1   9 25536.7 991.969   8
   2  -1  10 618.593 203.955   8
   2  -1  10 644.039 233.357   6
   2  -1  11 35458.5 1447.14   6
   2  -1  11 34555.7 1302.20   8
   2  -1  12 19.7256 167.697   6
   2  -1  12 132.981 131.269   8
   2  -1  13-7.58484 178.820   6
   2  -1  13 295.959 127.187   8
   2  -1  14 24.9533 234.843   6
  -2   0  15-94.4496 162.704   6
  -2   0  14-51.6804 142.596   6
  -2   0  13 262.772 171.718   6
  -2   0  12 5666.79 594.258   6
   2   0 -12 5912.96 516.080   9
  -2   0  11 7013.13 621.609   6
   2   0 -11 7295.20 544.112   9
  -2   0  10 34018.2 1271.37   6
   2   0 -10 32011.8 1079.54   9
   2   0  -9 1091.68 97.9080   4
  -2   0   9 1076.08 238.838   6
   2   0  -9 1095.53 213.654   9
   2   0  -8 19939.6 488.919   4
  -2   0   8 20629.6 880.796   6
   2   0  -8 21055.1 773.341   9
  -2   0   8 20063.4 525.016   1
  -2   0   7 3962.40 241.080   1
   2   0  -7 3705.23 309.991   9
   2   0  -7 3583.12 223.845   4
   2   0  -6 16033.6 491.700   4
   2   0  -6 15263.4 584.962   9
   2   0  -5 233787. 2157.66   7
   2   0  -5 233288. 2134.71   9
  -2   0   5 236324. 2115.83   9
  -2   0   4 9597.73 398.545   9
   2   0  -4 9549.63 404.759   9
   2   0  -4 9215.59 419.625   7
   2   0  -3 131697. 1324.60   5
  -2   0   3 132431. 1411.68   9
   2   0  -3 130652. 1605.90   3
   2   0  -3 131163. 1546.63   7
   2   0  -3 127541. 1385.56   9
   2   0  -2 2380.02 204.499   7
  -2   0   2 2151.45 173.773   9
   2   0  -2 2190.76 147.159   5
   2   0  -2 2120.34 192.967   3
  -2   0   1 205333. 1129.96   5
   2   0  -1 204316. 1127.18   5
  -2   0   1 205601. 1695.90   9
   2   0  -1 201001. 1659.33   3
   2   0  -1 202842. 1817.87   7
  -2   0   0 2992.40 133.547   5
   2   0   0 3029.92 134.545   5
   2   0   0 2946.93 215.530   7
   2   0   0 2934.82 189.800   3
  -2   0  -1 205463. 1868.87   6
  -2   0  -1 207576. 1499.57   3
  -2   0  -1 203917. 1327.44   5
  -2   0  -1 206122. 1582.63   2
   2   0   1 202680. 1735.39   7
   2   0   2 15667.7 448.701   2
   2   0   2 15618.1 467.253   7
  -2   0  -2 15956.6 551.123   6
  -2   0  -3 37413.6 888.763   6
  -2   0  -3 35648.8 781.780   8
   2   0   3 36961.6 692.739   7
   2   0   4 3487.30 205.031   7
  -2   0  -4 2822.99 263.124   8
   2   0   5 4745.41 371.027   6
   2   0   5 4533.47 338.422   8
   2   0   5 4407.13 223.595   7
  -2   0  -6 20298.1 563.603   1
   2   0   6 21320.7 756.139   8
   2   0   6 22394.2 844.154   6
   2   0   6 21191.8 587.729   4
   2   0   7 281.446 128.831   8
   2   0   7 149.761 114.036   6
   2   0   7 308.143 76.0269   4
  -2   0  -7 310.756 84.0014   1
   2   0   8 21590.7 562.410   4
   2   0   8 22010.3 948.616   6
   2   0   8 22154.0 893.735   8
  -2   0  -8 20399.9 544.749   1
   2   0   9 274.544 150.494   8
   2   0   9 93.8313 161.717   6
   2   0  10 10082.5 681.649   8
   2   0  10 9438.71 720.022   6
   2   0  11 10131.6 770.245   6
   2   0  11 8881.68 688.682   8
   2   0  12 385.709 216.204   6
   2   0  12 271.768 137.340   8
   2   0  13 1196.02 298.937   6
   2   0  13 966.340 257.420   8
   2   0  14 266.791 215.012   6
   2   0  14-139.054 206.007   8
   2   0  15 1304.64 356.639   8
  -2  -1  13 1353.80 295.763   6
   2   1 -13 2027.95 407.218   3
  -2  -1  12 410.454 201.472   6
  -2  -1  11 1785.64 308.820   6
   2   1 -11 1662.26 251.769   9
  -2  -1  10 2222.58 335.173   6
   2   1 -10 2379.08 279.001   9
  -2  -1   9 41395.3 1276.10   6
   2   1  -9 39087.9 1036.87   9
   2   1  -8 1921.71 218.970   9
  -2  -1   8 2294.44 293.188   6
  -2  -1   7 30395.3 783.919   7
  -2  -1   7 29778.5 957.952   6
   2   1  -7 30793.0 644.549   4
   2   1  -7 30157.8 775.611   9
   2   1  -6 487.413 106.888   9
   2   1  -6 619.187 104.267   4
  -2  -1   6 578.055 117.801   7
   2   1  -5 43985.0 823.691   4
  -2  -1   5 43654.2 827.310   1
   2   1  -5 44396.7 786.215   9
   2   1  -5 42736.2 1124.07   3
  -2  -1   5 43589.1 921.900   7
   2   1  -4 14768.4 481.634   4
   2   1  -4 14515.2 608.270   3
  -2  -1   4 15106.3 490.064   1
  -2  -1   4 14342.7 400.023   9
   2   1  -4 14492.1 406.425   9
  -2  -1   4 14757.3 525.342   7
   2   1  -3 37703.1 766.098   4
  -2  -1   3 37979.2 780.139   1
   2   1  -3 38094.3 918.121   3
  -2  -1   3 37336.2 597.801   9
   2   1  -3 39198.9 627.461   9
  -2  -1   3 38599.4 826.745   7
  -2  -1   2 33955.1 548.600   9
   2   1  -2 35179.6 818.357   3
   2   1  -1 37173.4 771.337   4
   2   1  -1 37897.5 794.189   3
   2   1   0 679448. 3259.15   4
   2   1   0 684857. 3269.02   3
   2   1   1 88671.7 1202.81   2
  -2  -1  -1 87342.0 1137.01   6
   2   1   1 89239.6 1184.51   4
   2   1   2 207687. 1807.96   4
  -2  -1  -2 204381. 1859.15   6
   2   1   2 203038. 1862.03   2
   2   1   3 64262.3 1016.79   4
  -2  -1  -3 65136.3 1142.02   6
  -2  -1  -3 61792.3 1005.04   1
  -2  -1  -3 62567.7 897.560   7
   2   1   4 3213.33 233.944   4
  -2  -1  -4 3195.67 275.468   8
  -2  -1  -4 3328.25 234.280   1
  -2  -1  -4 3141.00 194.254   7
  -2  -1  -5 251854. 2047.51   1
   2   1   5 255678. 2044.96   4
   2   1   5 264061. 2649.06   8
  -2  -1  -5 261530. 1644.51   7
   2   1   6 31287.9 712.798   4
   2   1   6 33126.2 990.366   8
   2   1   7 13019.7 694.158   6
   2   1   7 12732.3 449.868   4
   2   1   7 12218.5 648.849   8
   2   1   8 1650.16 259.319   6
   2   1   8 1690.31 160.214   4
   2   1   8 1294.47 224.643   8
   2   1   9 47873.8 1441.09   8
   2   1   9 48394.2 1515.46   6
   2   1   9 45907.3 763.838   4
   2   1  10 1146.68 295.841   6
   2   1  10 1408.30 287.587   8
   2   1  11 67166.3 1927.08   8
   2   1  11 64685.8 1966.47   6
   2   1  12-34.6118 195.470   8
   2   1  12 198.201 159.273   6
   2   1  13 222.012 170.704   8
   2   1  13 824.723 297.870   6
   2   1  14 851.335 340.002   6
   2   1  14 575.400 266.739   8
   2   1  15 466.419 246.414   8
   2   2 -13 1728.60 386.430   3
   2   2 -12 3414.47 501.542   3
   2   2 -11 2060.14 378.731   3
  -2  -2  11 2349.37 337.333   6
  -2  -2  10 7528.96 555.643   6
   2   2 -10 7549.34 657.605   3
   2   2  -9 1777.04 326.016   3
  -2  -2   9 1746.53 257.440   6
   2   2  -9 1885.17 210.700   9
  -2  -2   8 22420.6 831.248   6
   2   2  -8 21707.9 985.324   3
   2   2  -8 21525.4 623.871   9
   2   2  -7 1491.38 151.368   9
  -2  -2   7 1714.89 224.018   6
   2   2  -7 1319.46 267.999   3
  -2  -2   6 7341.21 405.304   6
   2   2  -6 7408.87 291.621   9
   2   2  -6 7101.44 503.172   3
  -2  -2   5 6922.80 359.490   4
   2   2  -5 7503.24 248.455   9
   2   2  -5 7651.48 497.810   3
   2   2  -5 7984.03 383.145   4
  -2  -2   4 16394.5 542.277   4
   2   2  -4 15461.6 527.066   1
   2   2  -4 17466.0 568.070   4
   2   2  -4 16226.1 670.371   3
  -2  -2   3 1774.09 190.279   4
   2   2  -3 1946.56 230.455   3
   2   2  -3 1839.87 188.071   4
   2   2  -3 1691.12 187.801   1
   2   2  -2 94157.0 1322.59   4
   2   2  -2 91855.6 1320.37   1
   2   2  -2 92592.9 1066.01   5
  -2  -2   2 91335.8 1290.46   4
   2   2  -2 90368.5 1407.16   3
   2   2  -1 9499.16 422.671   4
   2   2  -1 8985.11 410.672   1
   2   2  -1 9422.53 288.651   5
   2   2  -1 9390.80 438.306   3
   2   2   0 6123.33 348.002   1
   2   2   0 6213.99 343.061   4
   2   2   0 5967.43 207.674   5
  -2  -2   0 6141.57 210.484   5
   2   2   0 6342.50 353.486   3
  -2  -2   0 6018.25 260.836   6
  -2  -2  -1 9669.10 354.616   6
   2   2   1 8946.69 431.027   1
   2   2   1 9442.92 433.483   2
   2   2   1 9382.13 420.285   4
   2   2   1 9939.64 287.410   5
  -2  -2  -1 9784.10 287.101   5
   2   2   1 9669.02 365.968   6
  -2  -2  -2 10838.9 421.154   6
   2   2   2 9791.96 443.022   1
   2   2   2 10495.7 448.228   4
   2   2   2 10661.3 473.772   2
  -2  -2  -2 10128.5 348.487   5
   2   2   3 7608.14 391.777   1
   2   2   3 8239.04 399.569   4
  -2  -2  -3 8082.98 349.743   5
  -2  -2  -3 8019.78 390.795   6
  -2  -2  -4 247068. 2166.04   4
   2   2   4 239287. 2128.00   4
   2   2   4 243958. 2185.60   1
  -2  -2  -5 349.451 101.199   4
   2   2   5 372.929 131.615   4
   2   2   5 296.668 107.637   1
   2   2   5 215.367 114.236   8
   2   2   6 6595.29 471.860   8
   2   2   6 7859.83 388.398   4
  -2  -2  -6 7263.56 369.568   4
   2   2   6 7297.15 369.122   1
   2   2   7 2476.47 222.307   4
   2   2   7 2582.03 319.258   8
   2   2   8 11473.6 701.957   6
   2   2   8 11206.1 676.642   8
  -2  -2  -8 11299.3 314.397   7
   2   2   9 293.232 193.792   6
   2   2   9-165.856 159.073   8
   2   2  10 8814.19 702.508   6
   2   2  10 7867.69 644.168   8
   2   2  11 2785.04 412.530   8
   2   2  11 2151.93 378.299   6
   2   2  12 1501.66 328.333   6
   2   2  12 1622.47 331.001   8
   2   2  13 477.805 185.547   6
   2   2  13 389.894 233.034   8
   2   2  14 115.001 191.388   6
   2   2  14-18.9716 140.666   8
  -2  -2 -15 758.285 277.486   9
   2   2  15 941.677 330.196   8
   2   3 -13 1895.39 389.441   3
   2   3 -12 866.565 251.919   3
   2   3 -11-55.8359 166.885   3
   2   3 -10 82.6268 133.502   3
   2   3  -9-181.448 150.162   3
  -2  -3   9-47.5987 87.8946   6
   2   3  -8 191.546 166.985   3
  -2  -3   8 158.881 124.924   6
   2   3  -8 24.9726 40.1157   9
   2   3  -7 6747.44 528.668   3
  -2  -3   7 6261.35 383.964   6
   2   3  -7 5867.48 351.251   1
   2   3  -7 6096.91 229.753   9
  -2  -3   6 5581.60 330.055   6
   2   3  -6 5442.35 352.649   1
   2   3  -6 5318.99 440.506   5
   2   3  -6 5282.36 451.336   3
   2   3  -5 84637.5 1401.16   1
  -2  -3   5 82953.4 1137.49   6
   2   3  -5 85438.4 1702.52   3
   2   3  -4 42571.0 1141.98   3
   2   3  -4 44131.8 1021.66   1
   2   3  -3 83859.8 1328.40   5
   2   3  -3 85826.0 1542.71   3
   2   3  -3 87263.0 1446.93   1
   2   3  -2 30261.1 742.248   5
   2   3  -2 31098.8 900.649   3
  -2  -3   1 195714. 1178.15   6
   2   3  -1 200104. 2187.83   4
  -2  -3   1 200981. 1093.19   9
   2   3  -1 197334. 1765.43   5
  -2  -3   1 199590. 1778.73   5
   2   3   0 35827.5 913.536   4
   2   3   0 34602.2 700.533   5
  -2  -3   0 34928.2 710.475   5
  -2  -3   0 35724.3 568.728   6
   2   3   1 17807.0 653.941   2
  -2  -3  -1 18378.6 469.321   6
   2   3   1 18515.0 521.482   5
   2   3   1 18559.7 659.042   4
  -2  -3  -1 18492.7 515.722   5
   2   3   1 18824.8 495.907   6
  -2  -3  -2 163969. 1622.98   6
   2   3   2 167288. 2036.73   2
   2   3   2 165497. 1960.33   4
   2   3   2 161865. 1640.87   5
  -2  -3  -2 167235. 1645.92   5
   2   3   2 163784. 1641.64   6
  -2  -3  -3 75108.6 1196.21   6
  -2  -3  -3 77238.6 1204.73   5
   2   3   3 73794.0 1230.69   6
   2   3   3 74367.4 1324.38   4
   2   3   4 1477.39 245.043   8
   2   3   4 1370.13 207.017   6
   2   3   4 1350.98 203.132   4
   2   3   5 55860.1 1168.02   1
   2   3   5 57164.0 1378.53   8
   2   3   6 24672.2 789.797   1
   2   3   6 24909.1 953.159   8
   2   3   7 60465.3 1573.62   8
   2   3   7 60077.6 1225.53   1
   2   3   8 5895.44 515.122   6
   2   3   8 5625.78 373.753   1
   2   3   8 5222.99 485.875   8
   2   3   9 27616.1 1158.82   6
   2   3   9 26024.1 1140.24   8
   2   3   9 26013.6 763.144   1
  -2  -3  -9 25215.4 753.814   4
   2   3  10 61.8937 156.825   6
   2   3  10 114.472 191.321   8
   2   3  11 9151.29 757.918   6
   2   3  11 8986.79 739.679   8
   2   3  12 17.4303 201.794   6
   2   3  12-54.7456 239.467   8
   2   3  13-68.3577 169.541   6
  -2  -3 -13 255.321 150.521   9
   2   3  13-207.204 249.531   8
  -2  -3 -14 602.594 214.825   9
   2   3  14 791.066 328.983   6
   2   3  14 749.110 289.315   8
  -2  -3 -15 2304.13 447.591   9
   2   4 -13 2204.27 435.694   3
   2   4 -12 1622.68 340.768   3
   2   4 -12 2032.86 424.618   5
   2   4 -11 818.485 262.927   3
   2   4 -11 596.370 253.590   5
   2   4 -10 1715.61 343.282   3
   2   4 -10 1587.65 337.055   5
   2   4  -9 565.241 190.846   3
   2   4  -9 831.068 233.990   5
   2   4  -8 17917.0 956.324   5
   2   4  -8 17004.8 911.382   3
   2   4  -7 312.876 142.847   3
   2   4  -7 163.196 105.239   1
   2   4  -7 314.144 164.042   5
  -2  -4   6 31825.6 683.248   6
   2   4  -6 32237.4 964.187   1
   2   4  -6 32887.3 1141.96   3
   2   4  -6 32577.0 1142.72   5
  -2  -4   5 22071.1 471.315   6
   2   4  -5 23974.4 900.582   5
   2   4  -5 25053.6 970.966   3
   2   4  -5 24548.7 839.157   1
  -2  -4   4 105624. 752.879   6
   2   4  -4 117266. 1986.30   3
   2   4  -3 58646.8 1375.81   3
   2   4  -2 15333.0 694.244   3
  -2  -4   1 9575.99 299.189   9
   2   4  -1 9010.21 456.365   5
   2   4  -1 9742.50 553.085   3
  -2  -4   0 29292.3 790.357   5
   2   4   0 29320.0 792.560   5
  -2  -4   0 29142.6 622.358   9
   2   4   1 37728.4 1063.44   2
  -2  -4  -1 41134.3 693.431   6
   2   4   1 40355.4 934.313   5
  -2  -4  -1 40445.3 937.529   5
  -2  -4  -1 38762.7 796.334   9
   2   4   1 40503.1 707.822   6
   2   4   2 727.599 116.129   6
  -2  -4  -2 848.131 116.945   6
   2   4   2 815.456 160.210   2
  -2  -4  -2 855.849 148.386   9
   2   4   2 859.006 149.279   5
   2   4   3 5967.83 352.362   6
   2   4   3 6081.44 393.318   5
  -2  -4  -3 5900.84 381.125   9
   2   4   3 6891.02 469.965   2
  -2  -4  -3 6000.62 351.762   6
   2   4   5 14764.2 761.424   8
   2   4   6 42297.1 1202.67   6
   2   4   6 40394.7 1276.79   8
   2   4   7 25686.8 1006.75   6
   2   4   7 27434.1 1104.27   8
   2   4   8 26442.5 1083.63   6
   2   4   8 25433.1 890.197   1
   2   4   8 26481.3 1135.97   8
   2   4   9 1112.35 204.805   1
   2   4   9 1273.40 280.183   8
   2   4   9 1250.38 283.026   6
   2   4  10 150.033 174.095   8
   2   4  10-72.9947 178.757   6
   2   4  10 37.5892 79.3163   1
  -2  -4 -10-210.074 168.500   9
  -2  -4 -11 309.460 200.424   9
   2   4  11 437.477 202.354   6
   2   4  11 115.556 130.601   8
   2   4  12 1108.44 265.384   6
  -2  -4 -12 1267.31 276.584   9
   2   4  12 1164.28 304.956   8
   2   4  13 375.582 158.482   6
  -2  -4 -13 327.339 217.492   9
   2   4  13 197.865 181.945   8
   2   4  14 300.324 289.765   6
  -2  -4 -14-55.5908 161.855   9
   2   4  14 350.225 278.482   8
   2   5 -12 2054.05 407.970   3
   2   5 -11 895.846 260.087   3
   2   5 -11 937.583 278.252   5
   2   5 -10 1549.52 336.763   3
   2   5 -10 1321.17 334.041   5
   2   5  -9-41.8674 182.369   3
   2   5  -9-68.7912 129.748   5
   2   5  -8 1020.14 264.653   3
   2   5  -8 1363.98 323.558   5
   2   5  -7 10446.9 707.275   3
   2   5  -7 11710.2 765.791   5
   2   5  -7 11752.1 656.081   1
   2   5  -6 632.920 168.593   3
   2   5  -6 408.366 181.846   5
   2   5  -5 23010.3 983.940   5
   2   5  -5 23263.1 986.456   3
   2   5  -4 3793.82 397.207   5
   2   5  -4 4744.02 430.456   3
   2   5  -3 86626.1 1757.48   5
   2   5  -3 86665.5 1770.82   3
   2   5  -2 57682.7 1434.77   3
  -2  -5   1 116333. 1235.34   9
   2   5  -1 83232.6 1961.57   3
  -2  -5   0 400.013 106.518   9
   2   5   0 36.1828 24.7415   6
   2   5   1 2120.15 164.318   6
   2   5   1 2071.83 272.345   2
  -2  -5  -1 1727.91 196.573   9
   2   5   2 22006.2 622.386   6
  -2  -5  -2 22349.0 729.712   9
   2   5   2 21942.8 832.779   2
   2   5   3 1262.44 185.976   6
   2   5   3 1344.57 221.972   2
  -2  -5  -3 1150.62 195.440   9
  -2  -5  -4 29465.1 952.030   9
   2   5   5 3041.48 350.108   5
  -2  -5  -5 2953.06 325.933   9
   2   5   6 32042.9 1073.38   6
  -2  -5  -6 32280.0 1117.60   9
   2   5   6 33144.8 1252.07   8
   2   5   7 40061.2 1403.43   8
   2   5   7 37929.7 1251.86   6
  -2  -5  -7 37864.0 1286.24   9
   2   5   8 224.211 123.778   8
   2   5   8 161.547 147.070   6
  -2  -5  -8-98.6858 152.996   9
   2   5   9 1082.76 264.749   6
  -2  -5  -9 987.836 248.707   9
   2   5   9 849.261 272.688   8
   2   5  10 792.027 228.649   8
   2   5  10 716.878 234.160   6
   2   5  10 593.707 171.929   1
  -2  -5 -10 654.439 223.702   9
   2   5  11 77.4946 121.604   1
   2   5  11-147.987 206.233   6
  -2  -5 -11 181.894 132.735   9
   2   5  11 440.346 227.328   8
   2   5  12 1552.66 357.392   6
  -2  -5 -12 1715.79 356.714   9
   2   5  12 1513.17 356.453   8
   2   5  13 2162.03 429.819   8
   2   5  13 1917.11 392.952   6
  -2  -5 -13 2676.24 459.342   9
  -2  -5 -14 2244.14 466.887   9
   2   6 -10 1957.94 361.371   3
   2   6 -10 3095.96 506.906   5
   2   6  -9-1.90109 143.462   3
   2   6  -9-100.961 203.193   5
   2   6  -8 31380.3 1333.57   3
   2   6  -8 31845.1 1436.72   5
   2   6  -7 53.5462 122.382   3
   2   6  -7 153.327 199.579   5
   2   6  -6 8291.10 674.977   5
   2   6  -6 6759.71 587.668   3
   2   6  -5 922.517 229.491   3
   2   6  -5 304.193 151.474   5
   2   6  -4 1246.17 245.302   3
   2   6  -4 1347.57 266.323   5
   2   6  -3-14.4738 109.559   3
   2   6  -3-95.7047 169.044   5
   2   6  -2 256.765 150.704   5
   2   6  -1 16063.2 792.740   5
  -2  -6   1 16915.5 559.866   9
   2   6   0 923.857 204.515   5
  -2  -6   0 962.340 156.429   9
   2   6   1 37141.4 688.818   6
  -2  -6  -1 37735.0 978.070   9
   2   6   2 559.023 161.022   2
   2   6   2 518.695 111.025   6
  -2  -6  -2 493.123 154.021   9
   2   6   2 517.182 130.726   5
   2   6   3 39235.1 978.485   6
   2   6   3 39695.1 1253.40   5
  -2  -6  -3 38938.3 1120.61   9
   2   6   3 39438.6 1244.73   2
   2   6   4 4245.14 432.878   5
  -2  -6  -4 4795.15 423.314   9
   2   6   4 4353.98 438.178   2
   2   6   5 9000.85 550.994   6
   2   6   5 8972.29 626.730   5
  -2  -6  -5 9325.21 607.585   9
   2   6   6 401.397 151.382   6
  -2  -6  -6 128.420 115.784   9
   2   6   7 13119.4 760.333   6
  -2  -6  -7 14455.7 814.757   9
   2   6   7 15475.4 937.027   8
   2   6   8 2834.58 377.894   6
  -2  -6  -8 3014.40 413.549   9
   2   6   8 2474.31 395.079   8
   2   6   9 460.033 236.475   6
  -2  -6  -9 82.9302 144.511   9
   2   6   9 67.5536 141.361   8
   2   6  10 811.477 276.576   6
  -2  -6 -10 588.612 236.232   9
   2   6  10 692.773 247.067   8
   2   6  11 183.912 144.942   6
  -2  -6 -11-28.1060 121.778   9
   2   6  11 242.282 177.815   8
   2   6  12 2813.11 484.500   6
  -2  -6 -12 3280.10 508.259   9
   2   6  12 2524.86 488.984   8
   2   6  13 1081.08 333.094   6
  -2  -6 -13 2022.04 432.622   9
   2   6  13 1419.18 337.017   8
   2   7  -9 709.227 331.052   5
   2   7  -8 5608.74 658.089   5
   2   7  -7 848.839 300.402   5
   2   7  -7 591.420 215.810   3
   2   7  -6 109.298 122.697   3
   2   7  -6 321.324 201.385   5
   2   7  -5 2371.58 367.953   3
   2   7  -5 2506.05 389.696   5
   2   7  -4 136.572 112.176   3
   2   7  -4 300.525 207.264   5
   2   7  -3 367.812 168.667   5
   2   7  -2 2864.25 388.789   5
   2   7  -1 8686.52 630.057   5
   2   7   0 17038.5 889.905   5
  -2  -7   0 16700.4 671.869   9
   2   7   1 5593.84 260.628   6
  -2  -7  -1 5777.37 432.435   9
   2   7   1 5288.38 509.204   5
   2   7   2 54186.3 1025.94   6
   2   7   2 55228.9 1592.38   5
  -2  -7  -2 57260.2 1395.86   9
   2   7   3 941.870 276.272   5
   2   7   3 627.341 237.898   2
  -2  -7  -3 563.249 175.904   9
   2   7   4 38767.9 1394.17   5
  -2  -7  -4 38181.4 1263.41   9
   2   7   4 37372.4 1333.90   2
   2   7   5 3181.20 344.041   6
   2   7   5 3117.84 410.174   5
  -2  -7  -5 4028.24 439.917   9
   2   7   5 3556.82 472.836   2
   2   7   6 209.603 124.934   6
   2   7   6 440.658 189.193   5
  -2  -7  -6 236.502 158.426   9
   2   7   7 479.194 145.125   6
  -2  -7  -7 910.349 225.816   9
   2   7   8 4504.50 510.984   6
   2   7   8 3795.84 560.259   8
  -2  -7  -8 5247.42 572.107   9
   2   7   9-68.8475 166.913   6
  -2  -7  -9 176.551 187.256   9
   2   7   9-119.961 164.690   8
   2   7  10 989.421 277.536   6
  -2  -7 -10 1157.47 323.280   9
   2   7  10 1482.69 358.565   8
   2   7  11 4565.94 578.139   6
  -2  -7 -11 4300.10 589.268   9
   2   7  11 5052.76 657.286   8
   2   7  12 1565.87 370.510   6
   2   7  12 1481.36 400.983   8
  -2  -7 -12 1589.87 390.336   9
   2   8  -7 156.425 235.318   5
   2   8  -6 7444.25 755.439   5
   2   8  -5-336.485 222.682   5
   2   8  -4 1212.43 311.525   5
   2   8  -3 36.8127 138.472   5
   2   8  -2 193.875 160.816   5
   2   8  -1 665.145 232.419   5
   2   8   0 2746.42 408.383   5
  -2  -8  -1 154.254 100.845   9
   2   8   1 39.5867 162.718   5
   2   8   2 1238.14 280.099   5
  -2  -8  -2 1088.70 256.822   9
   2   8   3 6697.02 573.512   2
   2   8   3 6842.34 626.129   5
  -2  -8  -3 6090.05 516.914   9
  -2  -8  -4 574.584 174.824   9
   2   8   4 827.109 246.831   2
   2   8   4 633.761 255.437   5
   2   8   5 3310.68 366.207   6
   2   8   5 3464.96 461.337   5
  -2  -8  -5 3486.74 424.284   9
   2   8   5 3218.63 445.606   2
   2   8   6 144.684 146.580   2
   2   8   6 110.527 115.116   6
   2   8   6-93.3993 167.995   5
  -2  -8  -6-41.6201 152.199   9
   2   8   7 7046.17 599.115   6
   2   8   7 8337.42 743.076   5
  -2  -8  -7 7955.51 696.204   9
   2   8   7 8155.04 728.534   2
   2   8   8 525.926 210.093   6
  -2  -8  -8 338.850 188.343   9
   2   8   9 557.979 220.774   6
  -2  -8  -9 993.054 294.386   9
  -2  -8 -10 555.447 242.285   9
   2   8  10 473.077 217.553   6
   2   8  10 753.376 299.417   8
   2   8  11 975.968 320.218   6
  -2  -8 -11 891.346 308.723   9
   2   8  11 508.455 232.100   8
   2   8  12 2456.76 479.253   6
   2   8  12 2490.46 542.220   8
   2   9  -5 2734.09 485.806   5
   2   9  -4 84.0589 150.935   5
   2   9  -3 1140.28 314.475   5
   2   9  -2 86.1848 166.893   5
   2   9  -1 905.016 297.500   5
   2   9   0 10969.1 870.099   5
   2   9   1 1058.81 277.942   5
   2   9   2 23846.8 1271.78   5
   2   9   3 1154.55 284.989   5
  -2  -9  -3 792.643 219.367   9
   2   9   4 3128.42 500.347   5
   2   9   4 3005.82 407.014   2
  -2  -9  -4 3167.70 432.592   9
   2   9   5 307.158 197.565   2
   2   9   5-84.5390 184.954   5
  -2  -9  -5 311.839 185.830   9
   2   9   6-131.712 149.108   5
   2   9   6-64.5106 178.882   2
  -2  -9  -6-10.2873 155.085   9
   2   9   7 715.954 338.226   5
   2   9   7 170.283 145.290   6
   2   9   7 481.963 238.252   2
  -2  -9  -7 146.487 152.129   9
   2   9   8-5.47088 193.895   2
   2   9   8 170.292 160.699   6
  -2  -9  -8-90.3201 154.806   9
   2   9   9 2421.42 421.072   6
  -2  -9  -9 2960.37 488.796   9
   2   9  10 1528.77 360.199   6
  -2  -9 -10 1760.14 440.200   9
   2   9  11 3789.20 568.862   6
   2  10  -2 1609.45 374.935   5
   2  10  -1-190.469 239.919   5
   2  10   0 1425.97 358.044   5
   2  10   1 6282.15 693.945   5
   2  10   2 61.6753 206.543   5
   2  10   3 13.5774 176.326   5
   2  10   4 228.824 134.372   5
   2  10   5 1249.90 364.202   5
  -2 -10  -5 1661.11 361.044   9
   2  10   6 751.680 337.107   5
  -2 -10  -6 244.026 205.476   9
   2  10   7 4123.45 616.689   5
  -2 -10  -7 5148.12 630.753   9
   2  10   8 8.05762 158.892   2
  -2 -10  -8 233.053 212.752   9
   2  10   9 1147.81 319.233   2
  -3   8   7 272.411 227.890   5
  -3   8   6 5710.57 698.266   5
  -3   8   5 90.8793 193.051   5
  -3   8   4 190.694 253.165   5
  -3   8   3 1125.53 338.655   5
  -3   8   2-99.8647 208.998   5
  -3   8   1 1938.99 423.478   5
  -3   8   0 385.064 261.573   5
  -3   8  -1 451.295 286.885   5
  -3   8  -2 2852.07 524.056   5
   3  -7  -8 550.633 211.698   9
   3  -7  -7 1035.64 324.993   9
  -3   7   7 1354.57 339.088   5
  -3   7   6 145.215 177.281   5
   3  -7  -6 340.962 208.606   9
  -3   7   5 574.050 225.352   5
  -3   7   4 70.0179 145.902   5
  -3   7   3 572.823 250.426   5
  -3   7   2 3372.23 488.137   5
  -3   7   1-39.3190 178.247   5
  -3   7   0 2744.03 450.068   5
  -3   7  -1 330.657 224.890   5
  -3   7  -2 17873.3 1144.73   5
  -3   7  -3 6082.10 709.893   5
  -3   7  -4 57.6188 172.357   5
  -3   7  -5-117.851 302.361   5
   3  -6 -10 2597.30 488.379   9
   3  -6  -9 718.034 305.032   9
   3  -6  -8 4146.52 563.011   9
  -3   6   7 487.236 231.164   5
   3  -6  -7 365.112 189.536   9
  -3   6   6 1384.48 324.589   5
   3  -6  -6 1304.01 312.855   9
  -3   6   5 3921.56 506.872   5
   3  -6  -5 2956.88 476.926   9
  -3   6   4 1263.42 297.385   5
  -3   6   3 8574.95 722.995   5
  -3   6   2 4316.09 507.132   5
  -3   6   1 20824.9 1103.74   5
  -3   6   0 162.393 175.504   5
  -3   6  -1 83.5934 174.337   5
  -3   6  -2 10122.5 803.291   5
  -3   6  -3 1212.30 307.094   5
  -3   6  -4 12518.4 926.486   5
  -3   6  -5 196.596 233.563   5
  -3   6  -6 418.505 232.376   5
  -3   6  -7 861.838 294.723   5
   3  -5 -12 413.757 269.453   9
   3  -5 -11 1472.00 303.861   7
   3  -5 -11 2223.82 416.603   9
   3  -5 -10 402.141 229.285   9
   3  -5  -9 98.9661 145.704   9
   3  -5  -8 156.881 200.075   9
   3  -5  -7 1212.55 302.572   9
  -3   5   6 80.6236 143.260   5
   3  -5  -6 220.106 159.824   9
  -3   5   5 14595.7 878.712   5
   3  -5  -5 14945.7 942.036   9
  -3   5   4 219.258 184.659   5
  -3   5   3 2961.20 400.221   5
  -3   5   2 5483.66 520.733   5
  -3   5   1 1884.43 328.607   5
  -3   5   0 10808.5 728.585   5
  -3   5  -1 351.556 215.779   5
  -3   5  -2 113932. 2452.77   5
  -3   5  -3 9441.24 735.888   5
  -3   5  -4 8464.33 713.926   5
  -3   5  -5 1451.11 330.565   5
  -3   5  -6 1794.04 373.720   5
  -3   5  -7 1000.80 353.747   5
  -3   5  -8 142.388 201.441   5
  -3   5  -9 1564.33 387.613   5
   3  -4 -13 1528.52 359.384   9
   3  -4 -12 267.726 183.104   9
  -3   4  12 316.346 248.334   6
   3  -4 -11 52.0034 174.380   9
   3  -4 -11-1.08686 124.314   7
   3  -4 -10 1199.64 305.797   9
   3  -4 -10 1619.23 307.017   7
   3  -4  -9 438.453 175.078   9
   3  -4  -8 4097.80 498.022   9
   3  -4  -7 533.055 212.849   9
  -3   4   6 11542.5 739.275   5
   3  -4  -6 12043.5 786.023   9
   3  -4  -5 40028.5 1420.69   9
  -3   4   5 37296.8 1262.95   5
  -3   4   4 34164.1 1211.08   5
   3  -4  -4 35634.3 1319.34   9
  -3   4   3 49112.9 1407.00   5
  -3   4   2 23997.6 965.703   5
  -3   4   1 22274.9 939.085   5
   3  -4  -1 15200.6 420.922   3
  -3   4   0 6216.90 497.132   5
  -3   4  -1 51.7642 102.760   5
  -3   4  -2 19536.4 929.128   5
  -3   4  -3 4617.74 464.819   5
  -3   4  -4 30976.4 1237.70   5
  -3   4  -5 7163.25 615.196   5
  -3   4  -6 5171.75 553.020   5
  -3   4  -7 1202.22 319.376   5
  -3   4  -8 933.767 289.551   5
  -3   4  -9-172.465 197.517   5
  -3   4 -10 3690.42 558.861   5
   3  -3 -14 1276.73 322.633   9
  -3   3  13 217.680 189.939   6
   3  -3 -13 534.231 238.226   9
  -3   3  12-73.8126 169.229   6
   3  -3 -12 7.13397 136.182   9
   3  -3 -11 59.6858 166.559   9
   3  -3 -11-43.1247 95.0385   7
   3  -3 -10 6563.82 627.961   9
   3  -3 -10 7303.40 563.970   7
   3  -3  -9 183.419 154.624   7
   3  -3  -9 421.177 213.546   9
   3  -3  -8 569.837 209.079   9
   3  -3  -8 633.786 176.630   7
   3  -3  -7 12499.1 758.713   9
   3  -3  -6 2749.27 367.423   9
  -3   3   5 61956.6 1497.28   5
   3  -3  -5 62761.7 1640.16   9
  -3   3   4 292.596 146.537   5
   3  -3  -4-248.624 175.863   9
  -3   3   3 130.873 98.5122   5
   3  -3  -2 209.272 82.9789   3
  -3   3   2 325.622 123.088   5
  -3   3   1 19405.3 781.487   5
   3  -3  -1 20283.3 518.431   3
  -3   3   0 2175.66 263.924   5
   3  -3   0 2415.01 139.822   3
  -3   3  -1 6662.27 461.487   5
  -3   3  -2 77007.4 1649.94   5
  -3   3  -2 66128.5 834.633   8
  -3   3  -3 320.879 151.565   5
  -3   3  -4 36404.9 1235.27   5
   3  -3   5 15031.9 346.358   2
  -3   3  -5 24296.7 1053.68   5
   3  -3   6 34813.1 691.624   2
  -3   3  -6 39832.2 1413.36   5
  -3   3  -7 11746.2 796.499   5
  -3   3  -8 885.321 270.944   5
  -3   3  -9 2513.66 437.817   5
  -3   3 -10 329.790 226.460   5
  -3   3 -11 193.629 214.026   5
  -3   2  13 2050.85 442.998   6
   3  -2 -13 2037.89 366.652   9
  -3   2  12 1313.15 347.948   6
   3  -2 -12 1090.55 284.739   9
  -3   2  11 512.103 246.674   6
   3  -2 -11 218.501 157.098   9
   3  -2 -10 1442.21 303.076   9
   3  -2 -10 2073.22 304.626   7
   3  -2  -9 2537.64 328.286   7
   3  -2  -9 2427.12 363.448   9
   3  -2  -8 13849.7 769.975   9
   3  -2  -8 14168.0 731.161   7
   3  -2  -7 2267.04 303.847   7
   3  -2  -7 2276.05 315.024   9
   3  -2  -6 57437.8 1470.17   9
   3  -2  -6 57707.8 1422.60   7
   3  -2  -5 21730.9 871.462   7
   3  -2  -5 20922.3 859.002   9
  -3   2   4 41344.4 1062.39   5
   3  -2  -4 41756.3 1215.14   9
  -3   2   3 51736.3 1153.53   5
  -3   2   2 29979.8 852.273   5
   3  -2  -2 30945.4 760.750   3
  -3   2   1 13614.0 554.902   5
   3  -2  -1 13363.8 449.739   3
  -3   2   0 21408.9 705.060   5
   3  -2   0 20775.2 487.515   3
  -3   2  -1 606.336 95.1542   2
  -3   2  -1 785.495 153.768   5
  -3   2  -2 5185.49 379.818   5
  -3   2  -3 48889.3 1216.38   5
  -3   2  -3 47594.9 454.550   3
   3  -2   4 564.139 93.5515   2
  -3   2  -4 460.536 157.863   5
  -3   2  -5 11135.9 654.578   5
   3  -2   5 10699.4 420.039   2
  -3   2  -6 15045.6 823.724   5
   3  -2   7 5026.20 356.380   7
  -3   2  -7 4690.13 485.623   5
  -3   2  -8 5642.73 565.491   5
   3  -2   8 5628.84 536.172   6
   3  -2   9 1923.48 347.945   6
  -3   2  -9 1350.36 329.273   5
  -3   2 -10 21116.5 1208.27   5
   3  -2  10 19553.1 1077.27   6
  -3   2 -11 5306.84 659.006   5
   3  -2  11 4907.46 574.558   6
   3  -2  12 3568.57 518.690   6
  -3   2 -12 2750.70 493.945   5
  -3   1  14 153.971 218.722   6
  -3   1  13 39.0539 145.185   6
  -3   1  12 367.119 186.457   6
   3  -1 -12 503.801 198.817   9
  -3   1  11 701.406 231.175   6
   3  -1 -11 1183.54 257.395   9
   3  -1 -10 23513.9 1041.37   9
   3  -1  -9 6600.35 530.134   9
   3  -1  -9 6284.67 475.159   7
   3  -1  -9 6820.73 410.002   4
   3  -1  -8 715.914 164.201   9
   3  -1  -8 955.686 198.327   7
   3  -1  -7 1073.92 227.046   9
   3  -1  -7 792.791 162.577   7
   3  -1  -6 45.2947 98.7209   7
   3  -1  -6 13.9852 83.3397   9
   3  -1  -5 163.854 93.1708   9
   3  -1  -5 10.6624 94.1234   7
   3  -1  -4 7419.00 406.490   5
   3  -1  -4 7654.90 460.786   3
   3  -1  -4 7381.54 465.709   9
   3  -1  -4 8138.07 484.481   7
   3  -1  -3 757.614 148.979   3
   3  -1  -3 642.779 114.225   5
   3  -1  -3 631.834 149.395   7
  -3   1   2 5638.52 314.616   5
   3  -1  -2 5516.43 304.193   5
   3  -1  -2 5468.29 334.110   3
   3  -1  -2 5934.64 412.979   7
  -3   1   1 11795.1 433.155   5
   3  -1  -1 12343.3 438.337   5
   3  -1  -1 12228.0 581.292   7
   3  -1  -1 12099.6 458.516   3
  -3   1   0 63890.8 1013.28   5
   3  -1   0 64339.9 999.708   5
   3  -1   0 64958.5 983.731   3
   3  -1   0 64783.0 1321.86   7
   3  -1   1 8482.34 353.675   3
  -3   1  -1 9198.08 413.400   5
  -3   1  -1 9210.90 327.323   3
   3  -1   1 8651.11 395.508   5
   3  -1   1 8480.33 469.076   7
  -3   1  -1 8282.53 359.195   2
  -3   1  -2 21992.0 675.529   5
  -3   1  -2 22916.0 502.264   3
   3  -1   2 23129.0 757.085   7
   3  -1   3 21656.3 580.085   2
  -3   1  -3 21364.7 641.515   8
   3  -1   3 20772.5 704.377   7
  -3   1  -3 20372.9 692.751   5
  -3   1  -3 21607.7 522.084   3
  -3   1  -4 3755.55 336.733   5
  -3   1  -4 3441.88 277.800   8
   3  -1   4 3700.25 266.143   2
   3  -1   4 3710.14 296.797   7
  -3   1  -5 21182.4 851.268   5
   3  -1   5 21943.2 695.599   7
   3  -1   6 117408. 1591.37   7
   3  -1   6 116707. 2166.74   6
   3  -1   7 27989.0 740.751   7
   3  -1   7 28234.2 1112.09   6
   3  -1   8 4856.56 494.165   6
   3  -1   9 12256.4 793.649   6
   3  -1   9 9580.11 696.555   8
   3  -1  10 190.103 187.873   6
   3  -1  10-76.9209 167.445   8
   3  -1  11 257.676 207.119   6
   3  -1  11-80.6915 150.578   8
   3  -1  12 4591.18 585.163   8
   3  -1  12 4629.95 586.675   6
   3  -1  13 1811.98 415.261   6
   3  -1  14 90.7904 188.209   6
  -3   0  14 235.216 156.531   6
  -3   0  13 447.521 235.657   6
   3   0 -13 331.951 239.489   3
  -3   0  12 1347.32 342.547   6
   3   0 -12 1062.53 301.962   3
  -3   0  11 655.143 209.522   6
   3   0 -11 834.565 195.443   9
  -3   0  10 6507.60 601.560   6
   3   0 -10 5854.94 490.049   9
   3   0  -9 1594.46 193.077   4
   3   0  -9 1627.85 255.551   9
   3   0  -8 20825.7 688.396   4
   3   0  -8 19590.0 787.156   9
   3   0  -7 1344.98 188.754   4
   3   0  -7 1425.51 215.282   9
   3   0  -6 1140.32 175.915   9
   3   0  -6 1159.82 214.484   3
   3   0  -6 1341.43 189.174   4
   3   0  -5 495.114 150.058   3
   3   0  -5 493.017 131.543   9
   3   0  -5 156.806 89.3647   7
   3   0  -4 98783.8 1344.38   5
   3   0  -4 99955.7 1693.27   3
   3   0  -4 102056. 1675.60   7
  -3   0   3 11012.5 487.432   9
   3   0  -3 11213.9 397.592   5
   3   0  -3 10455.2 524.298   3
   3   0  -3 11232.6 545.176   7
   3   0  -2 32834.2 584.458   5
  -3   0   2 31595.0 807.400   9
   3   0  -2 33623.6 867.087   3
   3   0  -2 33790.2 927.109   7
  -3   0   1 21407.2 436.538   5
   3   0  -1 20536.1 418.041   5
  -3   0   1 20389.5 615.399   3
   3   0  -1 20519.3 637.661   3
   3   0  -1 20300.9 719.351   7
  -3   0   0 80916.4 836.585   5
   3   0   0 79038.1 839.303   5
  -3   0   0 81794.3 1174.46   3
   3   0   0 80265.0 1216.14   3
   3   0   0 81668.7 1397.23   7
  -3   0  -1 154707. 1315.31   5
  -3   0  -1 155074. 1576.75   3
   3   0   1 155832. 1894.84   7
  -3   0  -1 154185. 1685.72   2
   3   0   1 159292. 1731.47   3
  -3   0  -2 45884.2 831.723   5
  -3   0  -2 45993.6 873.597   3
   3   0   2 45848.1 1013.21   7
  -3   0  -3 118484. 1539.70   3
   3   0   3 120640. 1611.26   7
   3   0   3 121907. 1543.02   2
   3   0   4 26157.5 769.753   2
   3   0   4 25010.8 717.464   7
   3   0   5 28847.8 755.305   7
   3   0   5 29056.5 1008.30   6
   3   0   6 4250.41 435.417   6
   3   0   7 348.480 184.611   6
   3   0   7 377.088 118.495   4
   3   0   8 2179.11 333.990   6
   3   0   8 1765.63 216.610   4
   3   0   8 1720.40 281.627   8
   3   0   9 17268.5 645.461   4
   3   0   9 19019.1 935.583   8
   3   0   9 19587.2 1029.84   6
   3   0  10 53115.7 1767.47   6
   3   0  10 50922.9 1594.66   8
   3   0  11 6315.06 639.509   8
   3   0  11 7473.66 706.321   6
   3   0  12 8029.87 772.679   6
   3   0  12 6856.90 663.119   8
   3   0  13 382.857 178.108   6
   3   0  13 510.404 252.051   8
   3   0  14 2817.75 500.722   6
   3   0  14 2857.80 486.419   8
   3   1 -13 109.803 159.582   3
  -3  -1  13 84.7581 160.603   6
   3   1 -12 1139.06 289.184   3
  -3  -1  12 462.295 195.264   6
   3   1 -11 1440.02 323.146   3
  -3  -1  11 958.359 241.686   6
  -3  -1  10 21450.3 1020.23   6
   3   1 -10 20801.5 813.045   9
   3   1 -10 19532.2 1084.76   3
  -3  -1   9 13426.6 782.724   6
   3   1  -9 14547.6 644.153   9
   3   1  -9 13417.3 871.310   3
   3   1  -8 5509.55 354.802   4
   3   1  -8 4851.64 485.987   3
   3   1  -8 5086.11 361.109   9
   3   1  -7 14509.8 569.679   4
   3   1  -7 13109.4 535.410   9
   3   1  -7 13865.5 782.532   3
   3   1  -6 6708.28 396.442   4
  -3  -1   6 6061.84 343.638   9
   3   1  -6 6497.58 359.227   9
   3   1  -6 6357.96 501.713   3
   3   1  -5 15703.1 605.101   4
  -3  -1   5 15381.7 518.631   9
   3   1  -5 15385.4 537.911   9
   3   1  -5 15683.2 749.561   3
   3   1  -4 1054.59 191.812   3
   3   1  -4 782.465 158.079   4
  -3  -1   4 1050.55 137.388   9
   3   1  -3 19135.1 679.127   4
  -3  -1   3 18800.9 544.381   9
   3   1  -3 18761.9 725.678   3
   3   1  -2 8717.92 458.291   4
   3   1  -2 8512.62 241.988   5
   3   1  -2 8657.03 475.150   3
  -3  -1   2 8171.68 357.706   9
   3   1  -1 48234.6 1049.63   3
   3   1  -1 51873.7 1113.58   4
   3   1   0 347212. 2767.99   3
   3   1   0 345783. 2846.06   4
  -3  -1  -1 70671.4 1261.94   2
  -3  -1  -1 69990.8 635.075   5
  -3  -1  -1 72234.1 1216.08   3
   3   1   1 73094.3 1319.81   4
   3   1   2 202808. 2126.87   2
  -3  -1  -2 198761. 2058.99   7
  -3  -1  -2 196058. 2034.82   3
   3   1   2 195243. 2196.37   4
   3   1   3 26.1440 85.9992   2
  -3  -1  -3 45.8650 71.4929   3
  -3  -1  -3 71.9918 61.2288   7
   3   1   4 9418.59 491.881   4
   3   1   4 8502.17 494.159   2
  -3  -1  -4 8876.23 407.031   7
   3   1   5 16029.6 637.141   4
  -3  -1  -5 15742.2 533.527   7
   3   1   6 64857.9 1266.24   4
   3   1   7 14472.1 792.498   6
   3   1   7 13840.9 583.049   4
   3   1   7 13027.1 787.486   8
   3   1   8 628.934 216.626   6
   3   1   8 596.514 141.890   4
   3   1   8 556.814 190.270   8
   3   1   9 8575.33 686.675   6
   3   1   9 8921.99 462.830   4
   3   1   9 8717.21 648.124   8
   3   1  10 3619.59 483.382   6
   3   1  10 2888.81 425.306   8
   3   1  11 3035.48 447.594   6
   3   1  11 2831.83 429.060   8
   3   1  12 257.494 190.239   8
   3   1  12 365.518 232.106   6
   3   1  13 4984.16 624.899   6
   3   1  13 5199.72 620.727   8
   3   1  14 565.656 310.262   6
   3   1  14-64.5522 197.321   8
   3   1  15 187.420 221.309   8
   3   2 -13 520.567 235.833   3
   3   2 -12 350.942 184.645   3
   3   2 -11 706.773 245.417   3
  -3  -2  11 977.267 250.763   6
   3   2 -10 108.295 152.986   3
  -3  -2  10-104.164 136.357   6
   3   2  -9 2938.54 429.419   3
  -3  -2   9 3919.16 399.293   6
   3   2  -8 566.548 205.341   3
  -3  -2   8 401.558 137.637   6
   3   2  -8 730.782 159.594   4
   3   2  -8 563.151 107.944   9
   3   2  -7 838.969 222.185   3
   3   2  -7 571.065 135.734   4
   3   2  -7 552.572 103.255   9
   3   2  -6 638.717 186.002   3
   3   2  -6 805.163 154.886   4
   3   2  -5 3297.01 296.785   4
   3   2  -5 3149.25 354.160   3
   3   2  -4 11252.9 533.376   4
  -3  -2   4 10344.8 318.027   9
   3   2  -4 11176.1 616.023   3
   3   2  -3 7733.58 439.598   4
  -3  -2   3 7095.59 270.239   9
   3   2  -3 8002.99 493.052   3
   3   2  -2 73759.7 1367.63   4
   3   2  -2 73040.7 790.428   5
   3   2  -2 72509.8 1429.85   3
   3   2  -1 11140.4 527.037   4
   3   2  -1 10121.5 219.877   5
   3   2  -1 11093.1 563.620   3
   3   2   0 81018.2 1422.50   4
   3   2   0 80559.5 1443.63   3
  -3  -2   0 81386.5 1244.24   6
   3   2   1 4663.73 356.155   4
   3   2   1 4668.46 412.179   3
  -3  -2  -1 4609.19 163.300   5
  -3  -2  -1 5065.22 327.378   6
  -3  -2  -2 67.8634 47.2280   5
   3   2   2-55.3043 99.5507   2
   3   2   3 458.302 145.024   2
   3   2   3 1090.37 177.215   4
   3   2   4 17268.0 669.015   4
   3   2   4 17807.9 752.247   2
  -3  -2  -4 17739.8 611.637   7
   3   2   5 3045.78 287.907   4
  -3  -2  -5 2526.89 229.160   7
   3   2   6 6935.82 426.889   4
  -3  -2  -6 5897.45 337.244   7
   3   2   7 8242.57 602.163   6
   3   2   7 9133.07 490.221   4
   3   2   7 10247.7 681.043   8
  -3  -2  -7 8948.69 393.064   7
   3   2   8 3450.07 419.104   6
   3   2   8 3330.25 299.241   4
   3   2   8 3429.96 430.151   8
  -3  -2  -8 3230.36 221.470   7
   3   2   9 25267.4 1152.42   6
   3   2   9 25167.8 791.938   4
   3   2   9 26072.2 1170.27   8
   3   2  10 27023.3 1244.18   6
   3   2  10 25587.8 1216.99   8
   3   2  11 2615.72 443.847   6
   3   2  11 2240.00 388.686   8
   3   2  12 1627.88 391.634   6
   3   2  12 1938.41 403.002   8
   3   2  13 246.138 164.605   6
   3   2  13 294.282 187.662   8
   3   2  14 6840.48 783.227   6
   3   2  14 6420.49 724.016   8
   3   3 -12 414.446 217.868   3
   3   3 -11 185.477 178.841   3
   3   3 -10 711.740 203.265   3
   3   3  -9 1441.07 317.753   3
   3   3  -8 818.331 266.551   3
  -3  -3   8 949.640 203.459   6
  -3  -3   7 49281.4 1145.52   6
   3   3  -7 52349.2 1595.69   3
   3   3  -6 46726.6 1437.22   3
   3   3  -5 58729.3 1300.28   4
   3   3  -5 55940.8 1512.28   3
   3   3  -4 6020.99 411.336   1
   3   3  -4 6052.79 422.457   4
   3   3  -4 6043.42 376.806   5
   3   3  -4 6289.19 483.582   3
   3   3  -3 53925.1 1227.41   4
   3   3  -3 50242.4 1203.69   1
   3   3  -3 50594.9 951.688   5
   3   3  -3 49597.3 1303.60   3
   3   3  -2 13651.0 622.931   4
   3   3  -2 13461.4 622.681   1
   3   3  -2 13273.4 439.361   5
   3   3  -2 13184.5 663.824   3
   3   3  -1 107143. 1761.55   4
   3   3  -1 102680. 1731.38   1
   3   3  -1 103612. 1108.14   5
   3   3  -1 102266. 1798.59   3
  -3  -3   1 103863. 1268.02   6
   3   3   0 23263.7 820.697   4
  -3  -3   0 22179.2 477.001   5
  -3  -3   0 22694.2 621.562   6
   3   3   0 23699.1 848.906   1
   3   3   0 22461.3 489.250   5
   3   3   0 23557.4 863.165   3
  -3  -3  -1 187.830 84.1786   6
   3   3   1 186.859 117.144   4
   3   3   1 129.341 50.5459   5
   3   3   1 85.9372 98.0162   1
  -3  -3  -1 189.474 63.9157   5
  -3  -3  -2 3572.97 281.564   6
   3   3   2 3720.11 343.259   4
   3   3   2 3579.69 333.447   1
  -3  -3  -2 3728.73 228.657   5
   3   3   2 3548.29 350.852   2
   3   3   2 3374.75 281.074   6
   3   3   3 931.350 184.197   6
   3   3   3 801.645 176.665   2
   3   3   3 1081.00 205.622   4
  -3  -3  -3 935.489 140.113   5
   3   3   3 908.465 205.712   1
   3   3   4 4143.14 359.507   4
   3   3   4 4351.84 360.438   1
  -3  -3  -4 4165.30 296.288   5
   3   3   4 3892.00 384.619   2
   3   3   5 4574.21 372.618   4
   3   3   5 4717.15 378.514   1
   3   3   6 70337.1 1634.61   6
   3   3   6 70752.8 1431.50   4
   3   3   6 69055.4 1419.95   1
   3   3   7 3813.91 405.339   6
   3   3   7 4251.73 360.900   4
   3   3   7 4152.25 346.162   1
   3   3   7 4749.44 515.861   8
   3   3   8 23162.7 1048.86   6
   3   3   8 23323.2 821.823   4
   3   3   8 22786.2 1103.07   8
   3   3   9 2468.35 389.177   8
   3   3   9 2525.78 387.401   6
   3   3  10 8009.20 696.445   6
   3   3  10 7150.25 660.158   8
   3   3  11 5234.83 605.357   6
   3   3  11 4853.27 582.531   8
   3   3  12 1517.91 354.256   6
   3   3  12 1483.64 357.468   8
   3   3  13 1792.10 392.792   6
   3   3  13 2146.14 434.640   8
   3   3  14 234.265 206.555   6
   3   3  14 250.335 214.105   8
   3   4 -12 85.0743 204.927   3
   3   4 -12 75.1107 173.499   5
   3   4 -11 1880.96 385.891   5
   3   4 -11 1606.84 352.492   3
   3   4 -10 308.002 193.052   3
   3   4 -10 45.7855 157.227   5
   3   4  -9 191.498 154.800   3
   3   4  -9-62.4437 153.042   5
   3   4  -8 14343.4 838.469   5
   3   4  -8 14988.2 931.918   3
   3   4  -7 4846.43 458.316   5
   3   4  -7 5397.97 534.146   3
   3   4  -7 4046.62 372.167   1
   3   4  -6 1427.77 286.218   3
  -3  -4   6 1223.83 157.814   6
   3   4  -6 1261.33 222.865   1
   3   4  -6 1223.79 233.384   5
  -3  -4   5 624.293 107.517   6
   3   4  -5 967.154 250.371   3
   3   4  -5 581.317 162.465   1
   3   4  -4 56743.0 1386.83   1
   3   4  -4 51843.4 1452.74   3
   3   4  -3 5205.16 430.231   1
   3   4  -3 5030.12 357.538   5
   3   4  -3 4540.10 419.894   3
   3   4  -2 156934. 2329.68   4
   3   4  -2 155909. 1861.29   5
   3   4  -2 162738. 2443.55   3
   3   4  -2 158054. 2329.46   1
  -3  -4   2 154321. 1305.68   6
  -3  -4   1 956.163 113.188   6
   3   4  -1 973.343 214.565   1
   3   4  -1 789.656 181.436   4
  -3  -4   1 889.303 100.774   9
   3   4  -1 811.912 200.094   3
   3   4  -1 833.587 135.986   5
  -3  -4   1 739.647 124.524   5
  -3  -4   0 100.238 54.4881   6
   3   4   0 9.35919 132.402   3
   3   4   0 82.7446 103.379   4
   3   4   0-62.8221 66.3504   5
  -3  -4   0 13.8319 59.3089   5
   3   4   0-65.3634 133.647   1
  -3  -4  -1 54574.6 970.906   6
   3   4   1 58236.5 1392.19   4
   3   4   1 54355.9 1011.38   5
  -3  -4  -1 55472.9 1000.82   5
   3   4   1 56676.1 1399.84   1
   3   4   2 27740.9 983.418   2
  -3  -4  -2 26742.4 733.111   6
   3   4   2 28743.6 977.224   4
   3   4   2 26618.8 721.894   5
  -3  -4  -2 27133.4 725.776   5
   3   4   2 28686.3 997.424   1
   3   4   2 27370.6 773.812   6
   3   4   3 21983.0 761.087   6
   3   4   3 22449.5 864.071   4
   3   4   3 22154.0 876.014   1
   3   4   3 22939.5 901.779   2
   3   4   4 1380.71 224.468   1
   3   4   4 990.907 213.119   2
   3   4   4 1007.82 195.476   4
   3   4   5 70936.8 1554.04   4
   3   4   5 66574.1 1552.41   1
   3   4   6 2979.92 351.735   1
   3   4   6 3174.65 367.341   6
   3   4   7 51446.5 1502.02   6
   3   4   7 49334.5 1336.17   1
   3   4   8 6274.26 560.663   6
   3   4   8 6584.98 490.246   1
   3   4   8 6059.90 618.756   8
   3   4   9 14373.5 890.823   6
   3   4   9 13236.5 675.025   1
   3   4   9 13373.3 901.004   8
   3   4  10 4998.86 562.000   6
   3   4  10 4557.72 402.120   1
   3   4  10 5273.86 596.679   8
   3   4  11 387.582 186.309   6
   3   4  11 417.191 205.459   8
   3   4  12 16.1450 156.252   6
   3   4  12 12.9902 170.106   8
   3   4  13 80.3849 142.993   6
   3   4  13 57.5605 170.910   8
   3   4  14 8591.04 863.025   6
  -3  -4 -14 9974.43 905.053   9
   3   4  14 9481.10 951.604   8
   3   5 -11-45.4789 191.378   3
   3   5 -11-127.131 229.317   5
   3   5 -10 3312.56 494.983   3
   3   5 -10 2916.61 444.183   5
   3   5  -9 681.946 242.802   3
   3   5  -9 497.365 184.001   5
   3   5  -8 136.931 172.281   3
   3   5  -8 356.529 235.551   5
   3   5  -7 28850.2 1059.15   1
   3   5  -7 26697.6 1130.90   5
   3   5  -7 28849.2 1271.13   3
   3   5  -6 14751.3 775.196   1
   3   5  -6 14346.7 782.473   5
   3   5  -6 13537.0 841.507   3
   3   5  -5 15427.4 803.125   1
   3   5  -5 15205.2 766.310   5
   3   5  -5 15652.5 873.358   3
   3   5  -4 156.818 154.354   1
   3   5  -4-187.070 131.953   3
   3   5  -4 84.9248 94.9468   5
   3   5  -3 46061.2 1367.47   1
   3   5  -3 46071.2 1427.40   3
   3   5  -2 160.418 150.809   3
  -3  -5   1 1006.00 85.1299   6
  -3  -5   1 1109.43 116.271   9
   3   5  -1 1143.26 274.136   3
  -3  -5   0 706.628 95.0547   6
  -3  -5   0 641.414 107.550   9
  -3  -5  -1-10.0933 52.2419   6
  -3  -5  -1 10.7840 70.7440   9
   3   5   1 26.7637 50.9849   6
   3   5   2-9.68853 67.4368   6
  -3  -5  -2 235.075 81.8058   6
   3   5   2-38.1917 117.568   2
  -3  -5  -2 17.5245 71.8847   9
   3   5   3 11234.8 673.934   2
   3   5   4 1150.36 246.684   2
   3   5   5 4952.05 422.440   6
   3   5   5 7179.19 573.439   2
   3   5   6 37227.6 1234.41   6
   3   5   6 38088.8 1263.84   1
   3   5   7 375.878 154.491   6
   3   5   7 540.369 184.076   1
   3   5   8 37421.6 1377.34   6
   3   5   8 38157.8 1276.10   1
   3   5   9 61.7569 183.312   6
   3   5   9-28.3485 111.772   1
   3   5   9 9.14846 151.967   8
   3   5  10 1716.63 348.279   6
   3   5  10 1663.32 278.064   1
   3   5  10 1809.66 381.892   8
   3   5  11 718.960 277.756   6
  -3  -5 -11 537.364 222.566   9
   3   5  11 781.099 198.417   1
   3   5  11 891.733 289.486   8
   3   5  12 1652.48 378.130   6
  -3  -5 -12 1302.54 328.255   9
   3   5  12 1423.12 344.265   8
   3   5  13 657.945 302.685   6
  -3  -5 -13 253.509 154.448   9
   3   5  13 400.464 259.514   8
   3   6 -11 1812.23 403.061   3
   3   6 -10 934.309 307.612   3
   3   6 -10 395.408 169.679   5
   3   6  -9 2008.18 382.296   3
   3   6  -9 1806.07 380.358   5
   3   6  -8 364.412 149.279   5
   3   6  -8 806.829 243.899   3
   3   6  -7 620.578 229.386   3
   3   6  -7 552.440 228.106   5
   3   6  -6 2071.38 337.437   1
   3   6  -6 2145.53 367.402   3
   3   6  -6 1896.10 316.619   5
   3   6  -5 353.080 194.384   3
   3   6  -5 251.081 120.099   5
   3   6  -5 97.0809 127.452   1
   3   6  -4 1458.37 291.964   3
   3   6  -4 1675.53 300.924   1
   3   6  -4 1531.41 262.440   5
   3   6  -3 1491.91 296.005   3
   3   6  -3 936.165 220.730   5
   3   6  -2 12866.2 857.480   3
   3   6  -2 14498.2 736.252   5
  -3  -6   1 1674.39 156.722   9
   3   6  -1 1813.68 257.222   5
   3   6   0 10471.3 593.792   5
  -3  -6   0 10173.4 439.391   9
   3   6   1 20168.3 825.480   5
  -3  -6  -1 20277.6 695.600   9
   3   6   1 20111.3 551.748   6
   3   6   2 43109.5 1223.43   5
  -3  -6  -2 40656.2 1061.46   9
   3   6   2 41120.2 941.016   6
   3   6   3 35782.9 1271.01   2
   3   6   3 36122.2 1159.26   5
  -3  -6  -3 36038.0 1053.52   9
   3   6   4 14332.9 731.450   5
  -3  -6  -4 14405.2 708.612   9
   3   6   4 14780.2 828.548   2
   3   6   5 54229.4 1411.98   6
  -3  -6  -5 53486.1 1460.62   9
   3   6   5 55654.8 1689.22   2
   3   6   6 1435.88 251.664   6
  -3  -6  -6 1688.51 308.007   9
   3   6   6 1622.60 315.022   2
  -3  -6  -7 1049.88 254.323   9
   3   6   7 791.752 217.942   6
   3   6   8 1239.76 293.616   6
  -3  -6  -8 662.611 214.620   9
   3   6   9 1213.59 303.862   6
  -3  -6  -9 1331.40 309.854   9
   3   6   9 663.569 180.703   1
   3   6  10 2866.31 444.977   6
  -3  -6 -10 3642.95 490.517   9
   3   6  10 2968.38 521.125   8
   3   6  10 2959.24 399.036   1
   3   6  11 1395.32 356.271   6
   3   6  11 1601.12 293.361   1
  -3  -6 -11 1535.88 359.976   9
   3   6  11 1117.47 282.867   8
   3   6  12 2805.91 493.275   6
  -3  -6 -12 1984.64 407.110   9
   3   6  12 2148.78 453.780   8
   3   6  13 75.3569 264.747   6
  -3  -6 -13 264.233 198.352   9
   3   6  13-84.7437 191.242   8
   3   7  -9-109.962 182.013   3
   3   7  -9 3.83198 176.677   5
   3   7  -8 2013.97 399.523   3
   3   7  -8 1718.64 366.619   5
   3   7  -7 7859.08 723.542   5
   3   7  -7 7423.05 711.088   3
   3   7  -6 1758.86 358.807   3
   3   7  -6 2431.33 406.203   5
   3   7  -6 2185.46 374.976   1
   3   7  -5 1474.39 318.895   3
   3   7  -5 1302.26 278.311   1
   3   7  -5 1649.95 327.811   5
   3   7  -4-28.4084 145.554   3
   3   7  -4-33.9411 124.694   5
   3   7  -3 453.844 242.762   3
   3   7  -3 888.719 226.582   5
   3   7  -2 165.030 119.027   5
   3   7  -1 2707.22 345.460   5
  -3  -7   0 97.5488 78.0985   9
   3   7   0 225.190 149.158   5
   3   7   1 6609.79 529.553   5
  -3  -7  -1 6892.89 440.189   9
   3   7   2 94.3036 76.1199   6
  -3  -7  -2 188.675 129.109   9
   3   7   2 332.305 167.615   5
   3   7   3 737.780 226.409   5
   3   7   3 481.135 170.485   2
  -3  -7  -3 562.367 171.043   9
   3   7   4 4475.17 461.250   5
  -3  -7  -4 4345.74 415.819   9
   3   7   4 4412.89 486.709   2
   3   7   5 6898.91 518.402   6
  -3  -7  -5 6435.36 539.392   9
   3   7   5 6495.63 562.841   5
   3   7   5 6678.45 603.464   2
   3   7   6 8755.69 625.513   6
  -3  -7  -6 9473.32 673.777   9
   3   7   6 9660.86 761.422   2
   3   7   7 530.242 214.810   6
  -3  -7  -7 682.107 228.105   9
   3   7   7 795.531 258.834   2
   3   7   8 5776.40 571.027   6
  -3  -7  -8 5806.00 580.284   9
   3   7   9 666.151 231.080   6
  -3  -7  -9 1046.70 297.222   9
   3   7  10-15.9156 153.860   6
  -3  -7 -10-10.4626 170.268   9
   3   7  10-72.5048 115.912   1
   3   7  11-29.0222 204.029   6
   3   7  11 25.6857 152.994   1
  -3  -7 -11-141.594 212.870   9
   3   7  12 2637.58 489.970   6
  -3  -7 -12 3396.09 530.565   9
   3   7  12 2656.06 582.107   8
   3   8  -8-44.3576 140.166   5
   3   8  -7 5989.06 674.569   5
   3   8  -6 208.799 224.409   3
   3   8  -6 311.308 158.646   5
   3   8  -5-741.677 367.166   3
   3   8  -5 2331.32 383.165   5
   3   8  -4 47.5309 136.127   5
   3   8  -3 277.577 150.428   5
   3   8  -2 353.675 178.359   5
   3   8  -1-60.4934 143.669   5
   3   8   0 6862.94 598.452   5
   3   8   1 23361.9 1109.31   5
   3   8   2 56637.4 1737.43   5
  -3  -8  -2 56263.7 1435.31   9
   3   8   3 25139.0 1171.53   5
  -3  -8  -3 24504.7 1012.58   9
   3   8   4 18088.9 1028.63   2
   3   8   4 18880.9 1026.22   5
  -3  -8  -4 18061.0 908.708   9
   3   8   5 5472.21 460.354   6
   3   8   5 4748.96 524.040   5
  -3  -8  -5 5028.63 494.837   9
   3   8   5 5641.07 596.508   2
   3   8   6 37.5863 141.239   6
   3   8   6-16.6490 179.600   2
   3   8   6-38.9155 166.401   5
  -3  -8  -6-236.709 170.712   9
   3   8   7 483.935 212.343   6
   3   8   7 1303.66 324.852   2
  -3  -8  -7 763.736 257.715   9
   3   8   8 266.949 181.337   2
   3   8   8 17.7480 161.386   6
  -3  -8  -8 258.156 153.202   9
   3   8   9 2535.44 416.061   6
  -3  -8  -9 2374.14 430.350   9
   3   8  10 2375.94 416.312   6
  -3  -8 -10 2401.74 428.895   9
   3   8  11 1935.32 404.299   6
  -3  -8 -11 1652.20 389.806   9
   3   8  11 1764.11 369.734   1
   3   8  12 1716.37 411.185   6
   3   9  -6 172.351 232.738   5
   3   9  -5 1347.37 364.690   5
   3   9  -4 276.292 184.229   5
   3   9  -3 3377.84 487.797   5
   3   9  -2 111.785 170.924   5
   3   9  -1 1000.62 275.922   5
   3   9   0 1065.91 312.054   5
   3   9   1 91.2196 182.221   5
   3   9   2 4311.31 542.912   5
   3   9   3 1070.64 281.035   5
   3   9   4 554.564 234.485   5
   3   9   4 699.379 276.025   2
  -3  -9  -4 724.455 218.028   9
   3   9   5 748.394 246.997   2
  -3  -9  -5 1202.68 273.992   9
   3   9   5 1142.06 314.540   5
   3   9   6 3204.49 479.270   2
   3   9   6 2674.98 444.696   5
  -3  -9  -6 2796.97 414.846   9
   3   9   7 118.614 154.454   2
  -3  -9  -7 297.977 202.439   9
   3   9   8 2030.58 368.546   6
   3   9   8 2515.99 455.617   2
  -3  -9  -8 2403.78 406.722   9
   3   9   9 8.37146 180.609   2
   3   9   9 146.446 159.658   6
  -3  -9  -9 310.463 269.770   9
   3   9  10 1408.59 399.854   2
   3   9  10 1750.01 392.498   6
  -3  -9 -10 1832.00 406.046   9
   3   9  11 248.954 249.437   6
   3  10  -3 1869.89 383.779   5
   3  10  -2 1621.44 361.301   5
   3  10  -1 179.250 171.340   5
   3  10   0 2536.06 472.913   5
   3  10   1 3049.06 494.037   5
   3  10   2 4412.83 583.858   5
   3  10   3 1197.57 330.353   5
   3  10   4 2138.18 423.957   5
   3  10   5 250.883 199.094   5
   3  10   5-24.7538 155.679   2
   3  10   6 382.715 239.712   2
   3  10   6 189.305 154.003   5
  -3 -10  -6 586.666 259.302   9
   3  10   7 801.448 256.920   5
   3  10   7 1568.92 387.098   2
  -3 -10  -7 1236.78 328.855   9
   3  10   8-242.504 224.680   2
  -3 -10  -8-178.471 232.933   9
  -4   7   7 1450.15 363.772   5
  -4   7   6-54.1780 200.225   5
  -4   7   5-26.1556 199.798   5
  -4   7   4 1019.43 301.021   5
  -4   7   3 6421.06 697.751   5
  -4   7   2 669.927 274.961   5
  -4   7   1 1586.32 378.135   5
  -4   7   0 1441.38 350.602   5
  -4   7  -1 544.310 244.597   5
  -4   7  -2-438.267 258.165   5
  -4   7  -3 6963.97 753.886   5
   4  -6 -11 1284.02 353.809   7
   4  -6 -10 681.897 268.885   7
   4  -6  -8 208.877 250.831   9
  -4   6   7 399.804 210.188   5
  -4   6   6 1360.65 332.369   5
  -4   6   5 432.069 218.020   5
  -4   6   4 427.587 202.082   5
  -4   6   3-71.1652 198.260   5
  -4   6   2 1149.71 308.487   5
  -4   6   1 2960.72 453.644   5
  -4   6   0 1166.01 316.633   5
  -4   6  -1 2138.62 400.402   5
  -4   6  -2 2361.60 423.281   5
  -4   6  -3 3753.04 546.423   5
  -4   6  -4 5135.19 617.116   5
  -4   6  -5 640.537 269.126   5
  -4   6  -6 9.45176 236.427   5
   4  -5 -11 280.804 222.416   7
   4  -5 -10 114.973 174.984   9
   4  -5 -10 733.763 255.957   7
   4  -5  -9 5903.99 614.258   7
   4  -5  -9 5249.47 659.718   9
   4  -5  -8 461.982 281.169   9
   4  -5  -7 5951.18 671.428   9
  -4   5   6 111.981 169.016   5
  -4   5   5 2679.89 389.782   5
  -4   5   4 1212.67 269.653   5
  -4   5   3 33240.6 1338.80   5
  -4   5   2 3400.29 441.141   5
  -4   5   1 5102.51 535.237   5
  -4   5   0 10736.2 764.075   5
  -4   5  -1 324.136 169.633   5
  -4   5  -2 5361.90 581.324   5
  -4   5  -3 2788.32 405.684   5
  -4   5  -4 3259.39 472.076   5
  -4   5  -5-249.868 215.534   5
  -4   5  -6 70.2327 151.785   5
  -4   5  -7 1024.63 322.868   5
  -4   5  -8 874.487 346.162   5
   4  -4 -12-180.625 171.686   9
   4  -4 -11 798.095 296.501   9
   4  -4 -11 292.931 132.292   7
   4  -4 -10 82.5488 153.152   9
   4  -4 -10-129.923 186.468   7
   4  -4  -9 3345.81 474.047   9
   4  -4  -9 3321.47 470.914   7
   4  -4  -8 568.084 236.412   9
   4  -4  -8 722.808 218.000   7
   4  -4  -7 1536.72 344.136   9
  -4   4   5 132.169 136.132   5
  -4   4   4 11829.1 750.688   5
   4  -4  -4 11523.8 590.190   3
   4  -4  -3 142.782 93.0264   3
  -4   4   3 172.917 136.042   5
  -4   4   2 2.91825 126.649   5
  -4   4   1 1145.36 245.918   5
  -4   4   0 14684.9 797.468   5
  -4   4  -1 5514.92 509.783   5
  -4   4  -2 2331.49 344.060   5
  -4   4  -3 12575.9 809.336   5
  -4   4  -4 316.960 188.389   5
  -4   4  -5 18015.8 1017.14   5
  -4   4  -6 184.089 150.814   5
  -4   4  -7 4418.67 552.411   5
  -4   4  -8-122.020 167.335   5
  -4   4  -9 2056.90 431.537   5
   4  -3 -13 387.330 234.023   9
   4  -3 -12 3028.75 466.609   9
   4  -3 -11 299.766 168.941   9
   4  -3 -11 559.432 223.445   7
   4  -3 -10-66.7687 129.518   9
   4  -3 -10-55.1247 131.155   7
   4  -3  -9 5824.00 572.642   7
   4  -3  -9 6130.96 600.645   9
   4  -3  -8 1852.04 341.732   9
   4  -3  -8 1722.88 324.795   7
   4  -3  -7 19243.1 1046.35   9
   4  -3  -7 18608.0 974.530   7
   4  -3  -6 7241.17 626.151   9
   4  -3  -6 6805.79 600.436   7
  -4   3   5 47031.0 1359.10   5
   4  -3  -5 48791.4 1330.49   3
   4  -3  -4 1437.72 233.506   3
  -4   3   4 1322.15 241.503   5
  -4   3   3 76980.4 1664.05   5
   4  -3  -3 64669.9 1339.70   3
  -4   3   2 9292.14 571.305   5
   4  -3  -2 8758.24 447.809   3
  -4   3   1 15134.1 715.535   5
   4  -3  -1 14064.9 503.319   3
   4  -3   0 254.697 68.0024   3
  -4   3   0 428.883 146.230   5
  -4   3  -1 4461.64 410.908   5
  -4   3  -2 19631.8 878.043   5
  -4   3  -3 6856.26 534.724   5
  -4   3  -4 29451.9 1152.21   5
  -4   3  -5 1887.74 334.560   5
  -4   3  -6 1002.86 269.220   5
  -4   3  -7 3087.69 450.901   5
  -4   3  -8 1141.57 297.991   5
  -4   3  -9 756.050 266.824   5
  -4   3 -10 129.456 164.352   5
   4  -2 -12 156.791 134.964   9
   4  -2 -11 1233.51 274.673   9
   4  -2 -10-26.2163 138.434   9
   4  -2 -10-126.852 165.851   7
   4  -2  -9 10234.4 741.548   9
   4  -2  -9 10722.5 726.049   7
   4  -2  -8 902.537 246.513   9
   4  -2  -8 891.722 223.292   7
   4  -2  -7 8326.43 627.231   3
   4  -2  -7 7385.87 601.369   9
   4  -2  -7 7879.53 609.900   7
   4  -2  -6 23172.0 992.173   3
   4  -2  -6 24292.5 1062.19   9
   4  -2  -6 23903.3 1024.64   7
   4  -2  -5 2731.98 331.331   3
   4  -2  -5 3124.81 390.880   7
  -4   2   4 68697.8 1419.19   5
   4  -2  -4 71347.4 1518.50   3
   4  -2  -4 68724.9 1737.68   7
   4  -2  -3 461.132 146.901   3
  -4   2   3 372.609 136.421   5
   4  -2  -3 471.567 216.962   7
  -4   2   2 44166.2 1089.42   5
   4  -2  -2 43457.4 1036.49   3
   4  -2  -2 44607.4 1360.14   7
  -4   2   1 7805.41 455.406   5
   4  -2  -1 8020.21 411.032   3
  -4   2   0 37504.2 1003.64   5
   4  -2   0 37981.9 816.171   3
  -4   2  -1 43691.1 1120.97   5
  -4   2  -1 31130.0 800.281   2
  -4   2  -2 5575.17 414.279   5
  -4   2  -3 14067.8 699.539   5
   4  -2   3 13804.3 711.242   7
  -4   2  -4 291.728 54.8698   3
  -4   2  -4 670.491 171.201   5
   4  -2   4 403.509 178.763   7
  -4   2  -5 83709.2 1878.93   5
   4  -2   5 86515.7 1765.79   7
   4  -2   6 291.980 103.944   2
  -4   2  -6 607.079 205.937   5
   4  -2   6 322.314 135.271   7
  -4   2  -7 41763.3 1465.95   5
   4  -2   7 43394.6 1203.13   7
  -4   2  -8 384.320 199.808   5
  -4   2  -9 5748.85 620.754   5
  -4   2 -10 737.423 278.591   5
  -4   2 -11 402.086 258.610   5
  -4   1  13 274.095 216.734   6
   4  -1 -12 2188.40 444.948   3
  -4   1  12 2986.11 477.893   6
   4  -1 -11 404.777 250.573   3
   4  -1 -11 298.451 132.838   9
   4  -1 -10 1543.45 327.984   3
   4  -1 -10 1609.17 302.243   9
   4  -1  -9 4113.55 495.169   3
   4  -1  -9 4394.91 464.128   9
   4  -1  -9 4312.52 400.814   4
   4  -1  -8 13937.8 854.598   3
   4  -1  -8 12798.8 754.131   9
   4  -1  -8 13782.0 781.782   7
   4  -1  -7 10897.6 716.581   3
   4  -1  -7 10742.6 667.734   9
   4  -1  -7 10395.4 677.590   7
   4  -1  -6 552.070 196.767   3
   4  -1  -6 859.105 240.615   7
   4  -1  -5 32174.7 1099.52   3
   4  -1  -5 32188.5 1145.29   7
   4  -1  -4 6771.90 488.641   3
   4  -1  -4 6798.40 534.654   7
   4  -1  -3 27714.5 754.496   5
   4  -1  -3 29149.4 933.878   3
   4  -1  -3 28679.0 1044.40   7
   4  -1  -2 1404.50 208.343   3
   4  -1  -2 1366.11 165.958   5
  -4   1   2 1290.52 164.702   5
   4  -1  -2 1389.05 242.601   7
  -4   1   1 126244. 1543.38   5
   4  -1  -1 126255. 1726.25   3
   4  -1  -1 125870. 2138.14   7
   4  -1  -1 124143. 1500.52   5
  -4   1   0 13893.0 574.356   2
  -4   1   0 14158.9 523.549   5
   4  -1   0 14120.5 526.780   5
   4  -1   0 14112.1 706.362   7
   4  -1   0 14372.6 556.289   3
  -4   1  -1 70369.8 1216.31   5
  -4   1  -1 71275.5 1096.58   3
   4  -1   1 71622.2 1559.72   7
  -4   1  -1 67980.9 1227.79   2
  -4   1  -2 25363.6 779.499   5
  -4   1  -2 25383.4 634.533   3
   4  -1   2 25095.7 912.811   7
  -4   1  -3 22344.1 771.445   5
  -4   1  -3 22421.6 604.069   3
   4  -1   3 22142.2 849.429   7
  -4   1  -4 38942.8 1083.91   5
  -4   1  -4 37335.3 830.110   3
   4  -1   4 40353.9 1135.53   7
  -4   1  -5 3578.98 389.412   5
   4  -1   5 3549.31 347.427   7
  -4   1  -5 3081.36 252.060   3
   4  -1   5 3676.53 292.739   2
   4  -1   6 670.008 150.573   2
  -4   1  -6 455.061 169.444   5
   4  -1   6 386.466 110.435   7
   4  -1   7 443.821 156.054   2
   4  -1   7 431.444 130.706   7
  -4   1  -7 306.757 181.267   5
  -4   1  -8 16899.7 953.446   5
  -4   1  -9 1313.85 306.785   5
   4  -1   9 1196.46 286.380   6
  -4   1 -10 5015.84 590.727   5
   4  -1  10 5945.39 646.250   6
   4  -1  11 1611.90 369.525   6
  -4   1 -11 1633.74 386.178   5
  -4   1 -12 4354.98 582.707   5
   4  -1  12 5145.52 631.893   6
   4  -1  13 409.002 219.702   6
  -4   0  13 127.224 156.048   6
   4   0 -12 1205.26 307.822   3
  -4   0  12 1278.64 330.603   6
  -4   0  11 4237.36 545.810   6
   4   0 -11 4530.36 581.977   3
   4   0 -10 338.464 190.452   3
   4   0 -10 600.512 211.256   9
   4   0  -9 26746.3 920.822   4
   4   0  -9 27281.0 1280.13   3
   4   0  -9 25918.5 1019.48   9
   4   0  -8 11286.2 615.927   4
   4   0  -8 10186.7 739.915   3
   4   0  -8 9589.95 607.027   9
   4   0  -7 46347.7 1248.98   4
   4   0  -7 44411.4 1475.00   3
   4   0  -7 41714.4 1208.87   9
   4   0  -6 11195.4 719.622   3
   4   0  -6 11432.3 620.667   4
   4   0  -5 38835.5 1237.05   3
   4   0  -5 37917.1 1203.25   7
   4   0  -4 10834.8 447.948   5
   4   0  -4 11027.0 635.578   3
   4   0  -4 11163.1 650.022   7
   4   0  -3-37.4418 44.2117   5
   4   0  -3 103.738 98.9629   7
   4   0  -2 70204.8 906.423   5
   4   0  -2 71937.5 1440.99   3
   4   0  -2 68981.8 1558.86   7
  -4   0   1 47410.3 701.635   5
   4   0  -1 43638.6 663.721   5
   4   0  -1 46331.1 1106.52   3
   4   0  -1 45193.4 1247.36   7
  -4   0   0 198871. 1504.48   5
   4   0   0 200040. 2558.21   7
   4   0   0 194404. 2208.25   3
  -4   0  -1 268726. 1946.10   5
  -4   0  -1 276292. 2426.68   3
   4   0   1 271778. 2934.46   7
  -4   0  -2 167499. 1694.93   5
  -4   0  -2 173230. 1915.12   3
   4   0   2 167501. 2286.85   7
  -4   0  -3 38756.7 897.859   5
  -4   0  -3 41502.0 956.535   3
   4   0   3 40880.1 1112.99   7
   4   0   4 51758.0 1175.76   2
  -4   0  -4 52857.3 1182.73   5
   4   0   4 52628.4 1246.10   7
  -4   0  -5 80832.2 1599.40   5
   4   0   5 84058.7 1556.72   7
   4   0   6-52.0938 108.468   2
   4   0   6 122.779 173.516   6
   4   0   7 51679.1 1632.18   6
   4   0   7 53348.7 1363.47   4
   4   0   8 818.387 293.615   6
   4   0   8 738.623 171.531   4
   4   0   9 10975.3 628.471   4
   4   0   9 10608.2 793.594   6
   4   0  10 1332.69 310.555   6
   4   0  11 2935.01 467.298   6
   4   0  12 2366.69 453.361   6
   4   0  13 462.707 225.183   6
   4   1 -12 1841.84 398.473   3
  -4  -1  12 2369.80 399.638   6
   4   1 -11-366.822 254.869   3
  -4  -1  11 13.7502 137.575   6
   4   1 -10 7152.48 734.064   3
   4   1  -9 974.934 306.431   3
   4   1  -9 583.420 161.254   9
   4   1  -8 23556.1 858.585   4
   4   1  -8 24515.6 1170.74   3
   4   1  -7 102.749 184.518   3
   4   1  -7 182.025 140.117   4
   4   1  -6 24860.6 898.617   4
   4   1  -6 25008.2 1073.23   3
   4   1  -5 2830.69 317.711   4
   4   1  -5 2598.90 238.006   5
   4   1  -5 2917.27 353.898   3
   4   1  -4 171.822 94.3891   3
   4   1  -4 392.028 128.735   4
   4   1  -4 181.097 66.6367   5
   4   1  -3 777.712 182.485   3
   4   1  -3 584.949 150.782   4
   4   1  -3 583.947 85.9000   5
   4   1  -2 1856.60 252.333   4
   4   1  -2 1776.56 94.7039   5
   4   1  -2 1907.97 264.814   3
   4   1  -1 252333. 2804.99   3
   4   1  -1 254582. 2879.31   4
   4   1   0 35276.7 1009.86   3
   4   1   0 34872.7 1063.13   4
  -4  -1  -1 249989. 1297.79   5
   4   1   1 255827. 2880.88   4
  -4  -1  -2 37693.3 659.806   5
   4   1   2 39979.7 1139.62   4
   4   1   3 65760.5 1410.43   2
   4   1   3 67508.5 1495.53   4
   4   1   4 43001.6 1206.56   4
   4   1   4 40797.3 1120.45   2
   4   1   5 5847.67 452.250   4
   4   1   5 5596.43 438.431   2
   4   1   5 5787.43 493.887   6
   4   1   6 2093.02 291.871   4
   4   1   6 2246.49 330.289   6
   4   1   6 2681.07 323.524   2
   4   1   7 5088.51 417.862   4
   4   1   7 4992.49 499.615   6
   4   1   8 36828.1 1112.62   4
   4   1   8 38775.4 1444.43   6
   4   1   9 3858.97 365.542   4
   4   1   9 3518.77 467.060   6
   4   1  10 13295.7 937.019   6
   4   1  11 1308.89 338.987   6
   4   1  12 3324.47 528.041   6
   4   1  13 1774.92 433.116   6
   4   2 -12 1078.88 348.692   3
   4   2 -11 546.700 251.882   3
   4   2 -10 169.478 162.221   3
  -4  -2  10 303.809 172.116   6
   4   2  -9 9477.30 772.338   3
   4   2  -8 2539.61 291.932   4
   4   2  -8 2956.61 430.841   3
   4   2  -7 70616.7 1539.81   4
   4   2  -7 68535.7 1914.85   3
   4   2  -6 26532.0 947.253   4
   4   2  -6 25093.1 1098.11   3
   4   2  -5 114104. 1945.25   4
   4   2  -5 111924. 2234.57   3
   4   2  -4 18023.9 770.575   4
  -4  -2   4 16441.6 532.204   9
   4   2  -4 17069.1 835.423   3
   4   2  -3 63.3493 112.207   3
   4   2  -3 48.6240 99.9271   4
  -4  -2   3 92.5440 71.3426   9
   4   2  -3 117.985 54.4538   5
   4   2  -2 49500.0 1287.68   4
  -4  -2   2 45887.9 948.861   9
   4   2  -2 48613.3 1311.00   3
   4   2  -1 8173.98 529.290   4
   4   2  -1 7955.54 533.114   3
   4   2   0 136450. 2140.17   4
   4   2   0 141048. 2143.33   3
   4   2   1 87095.1 1851.80   3
   4   2   1 87029.0 1693.44   4
   4   2   2 172670. 2422.23   4
  -4  -2  -2 162997. 1196.96   5
   4   2   3 34073.7 1069.32   4
   4   2   3 35560.7 1094.60   2
   4   2   4 87168.9 1722.64   4
   4   2   4 88987.6 1747.80   2
   4   2   5 52915.6 1348.29   4
   4   2   5 52704.8 1407.76   2
   4   2   5 52726.1 1470.51   6
   4   2   6 3081.97 334.901   4
   4   2   6 2543.71 340.856   2
   4   2   6 2977.48 383.320   6
   4   2   7 29408.4 1004.20   4
   4   2   7 31414.0 1260.49   6
   4   2   8 1519.65 305.380   6
   4   2   8 1599.88 243.130   4
   4   2   9 17877.7 1037.51   6
   4   2   9 19092.6 822.969   4
   4   2  10-68.9696 211.443   6
   4   2  11 11026.3 899.258   6
   4   2  12 4671.13 628.489   6
   4   2  13 1725.37 427.999   6
   4   3 -11 372.706 242.853   3
   4   3 -10 1299.47 319.473   3
   4   3  -9 346.904 217.410   3
   4   3  -8 2645.21 415.043   3
   4   3  -8 2678.95 304.837   4
   4   3  -7 5236.97 440.524   4
   4   3  -7 4965.78 418.759   5
   4   3  -7 5010.67 546.736   3
   4   3  -6 11626.6 638.422   4
   4   3  -6 11183.6 769.173   3
   4   3  -5 10051.9 599.951   4
   4   3  -5 9647.45 503.333   5
   4   3  -5 10534.9 723.508   3
   4   3  -4 14566.1 732.445   4
   4   3  -4 14010.2 509.642   5
   4   3  -4 13668.3 783.873   3
   4   3  -3 43422.6 1264.76   4
   4   3  -3 41689.2 770.100   5
  -4  -3   3 38784.8 684.634   9
   4   3  -3 40557.5 1295.52   3
   4   3  -2 11005.8 639.567   4
   4   3  -2 11004.0 325.104   5
   4   3  -2 11271.6 669.989   3
   4   3  -1 83473.8 1723.49   4
   4   3  -1 81726.6 1792.19   3
   4   3   0 11527.3 649.432   4
   4   3   0 11724.8 687.302   3
   4   3   1 24546.3 942.498   4
  -4  -3  -1 22290.1 405.997   5
   4   3   1 23177.4 892.177   1
   4   3   2 1129.60 216.322   4
  -4  -3  -2 1124.33 116.420   5
   4   3   3 67790.9 1598.50   2
   4   3   3 67632.7 1566.69   4
  -4  -3  -3 64673.0 1006.75   5
   4   3   4 18588.8 831.560   4
  -4  -3  -4 17782.4 589.734   5
   4   3   4 18598.5 861.244   2
   4   3   4 18637.0 821.299   6
   4   3   5 30938.1 1066.77   4
   4   3   5 31538.2 1150.96   2
   4   3   5 30715.6 1113.08   6
   4   3   6 62788.6 1525.01   4
   4   3   6 66057.2 1731.71   2
   4   3   6 64161.5 1696.24   6
   4   3   7 16765.1 918.383   6
   4   3   7 15216.2 757.252   4
   4   3   8 59849.9 1820.49   6
   4   3   8 57740.5 1467.63   4
   4   3   9 5385.43 587.793   6
   4   3   9 5156.44 446.714   4
   4   3  10 13386.9 930.922   6
   4   3  11-166.718 177.944   6
   4   3  12 3972.42 576.548   6
   4   3  13 2331.29 492.058   6
   4   4 -11 462.304 259.318   3
   4   4 -10 742.014 274.191   3
   4   4 -10 424.287 189.933   5
   4   4  -9 919.855 279.029   3
   4   4  -9 917.270 237.057   5
   4   4  -8 162.888 192.588   3
   4   4  -8 444.658 189.499   5
   4   4  -7 8240.43 573.515   5
   4   4  -7 8149.01 699.921   3
   4   4  -6 14945.9 712.496   5
   4   4  -6 16617.0 960.257   3
   4   4  -5 79205.9 1791.62   4
   4   4  -5 76152.3 1986.43   3
   4   4  -4 37603.3 1245.43   4
   4   4  -4 33386.7 905.411   5
   4   4  -4 34891.3 1152.82   1
   4   4  -4 36813.0 1339.81   3
   4   4  -3 24608.5 989.392   4
   4   4  -3 22855.7 691.468   5
   4   4  -3 23148.7 952.060   1
   4   4  -3 24218.5 1068.16   3
   4   4  -2 70178.7 1650.54   4
   4   4  -2 68743.0 1081.26   5
   4   4  -2 68603.4 1646.70   1
   4   4  -2 70350.5 1778.01   3
  -4  -4   2 65368.8 1153.39   6
   4   4  -1 12852.3 720.888   4
   4   4  -1 13233.0 440.657   5
   4   4  -1 13218.7 724.398   1
   4   4  -1 12775.6 734.010   3
  -4  -4   1 12810.5 524.827   6
   4   4   0 25196.6 1109.73   3
   4   4   0 23722.6 970.808   4
   4   4   0 23500.8 568.803   5
   4   4   0 24407.0 986.449   1
  -4  -4   0 22400.7 571.098   5
   4   4   1 19.6380 102.729   1
   4   4   1-18.4744 115.405   4
   4   4   1-43.0216 59.5440   5
  -4  -4  -1 14.9781 49.1364   5
   4   4   2 7837.90 565.977   4
   4   4   2 8747.90 602.238   1
  -4  -4  -2 7376.89 347.572   5
   4   4   3 1511.48 278.290   1
  -4  -4  -3 1655.71 179.931   5
   4   4   3 1934.62 294.961   4
   4   4   3 1457.37 272.861   2
   4   4   4 27.7460 116.495   6
   4   4   4 165.659 162.709   2
   4   4   4 301.498 143.353   4
   4   4   4 198.422 143.697   1
   4   4   5 20119.0 907.501   4
   4   4   5 20017.8 905.694   1
   4   4   5 20096.4 964.616   2
   4   4   5 20414.1 912.940   6
   4   4   6 24140.7 1051.92   6
   4   4   6 25945.3 1031.92   4
   4   4   6 24776.3 994.610   1
   4   4   6 26154.0 1177.77   2
   4   4   7 44611.4 1494.56   6
   4   4   7 43538.9 1342.32   4
   4   4   7 44508.6 1316.23   1
   4   4   8 17865.8 996.004   6
   4   4   8 18312.7 867.146   4
   4   4   9 24949.5 1213.32   6
   4   4  10 3498.66 484.642   6
   4   4  11 4370.65 598.823   6
   4   4  12 952.232 331.543   6
   4   4  13 774.811 322.908   6
   4   5 -10 1120.80 336.453   3
   4   5  -9 428.732 213.315   3
   4   5  -9 324.197 192.305   5
   4   5  -8 896.827 260.096   3
   4   5  -8 1002.17 232.960   5
   4   5  -7 386.250 158.231   3
   4   5  -7 684.765 205.438   5
   4   5  -6-39.4478 119.957   1
   4   5  -6-167.888 171.881   3
   4   5  -6 70.1001 101.463   5
   4   5  -5 34.0338 145.653   1
   4   5  -5-56.9163 166.010   3
   4   5  -5 161.251 135.476   5
   4   5  -4 18922.4 930.946   1
   4   5  -4 17490.8 988.576   3
   4   5  -3 13853.5 815.509   1
   4   5  -3 12372.2 798.929   3
   4   5  -2 17045.4 899.913   1
   4   5  -2 15785.8 872.258   4
   4   5  -2 16998.2 915.241   3
  -4  -5   1 22205.7 609.324   6
   4   5  -1 23633.6 1038.42   1
   4   5  -1 23530.1 1045.44   4
   4   5  -1 22805.2 725.940   5
  -4  -5   1 22486.9 539.407   9
   4   5  -1 23747.5 1121.25   3
  -4  -5   0 1048.47 148.424   6
   4   5   0 1314.58 259.836   1
   4   5   0 1158.92 251.038   4
   4   5   0 1119.32 166.713   5
  -4  -5   0 890.545 153.700   5
   4   5   1 19237.4 943.310   1
   4   5   1 18970.9 921.467   4
   4   5   1 18650.8 653.725   5
   4   5   2 2924.11 377.420   4
   4   5   2 2929.24 273.934   5
   4   5   2 2528.38 371.187   1
   4   5   3 143581. 2607.57   1
   4   5   3 144763. 2540.35   4
   4   5   4 7305.96 610.228   1
   4   5   4 8281.63 622.826   4
   4   5   4 7797.44 618.443   2
   4   5   4 7813.33 530.191   6
   4   5   5 45345.9 1356.25   6
   4   5   5 45053.3 1462.27   1
   4   5   5 46263.5 1451.05   4
   4   5   5 46498.0 1548.95   2
   4   5   6 30086.2 1171.11   6
   4   5   6 31026.8 1206.69   1
   4   5   6 31762.6 1329.13   2
   4   5   7 13562.5 824.157   6
   4   5   7 13322.0 797.917   1
   4   5   7 13628.9 902.068   2
   4   5   8 18787.7 1016.06   6
   4   5   8 19554.2 952.635   1
   4   5   9 1417.51 305.955   6
   4   5   9 904.063 212.174   1
   4   5  10 9615.50 806.670   6
   4   5  10 9904.88 668.943   1
   4   5  11-25.7477 169.054   6
   4   5  12 4755.36 609.432   6
   4   5  13 1885.32 432.207   6
   4   6 -10 802.029 293.352   3
   4   6  -9 3742.05 549.380   3
   4   6  -8 426.340 254.537   3
   4   6  -8 380.126 182.605   5
   4   6  -7 959.720 263.089   3
   4   6  -7 1346.07 297.368   5
   4   6  -6 2388.46 424.576   3
   4   6  -6 2169.18 345.061   1
   4   6  -6 2191.67 351.018   5
   4   6  -5 2915.32 400.488   1
   4   6  -5 2759.57 427.798   3
   4   6  -5 2960.75 354.108   5
   4   6  -4 5108.16 525.350   1
   4   6  -4 4820.71 434.412   5
   4   6  -4 5150.56 568.354   3
   4   6  -3 3318.76 429.755   1
   4   6  -3 3121.87 340.785   5
   4   6  -3 3181.92 431.178   3
   4   6  -2 10084.0 735.249   1
   4   6  -2 10630.4 826.879   3
   4   6  -1 7031.51 623.867   1
  -4  -6   0 17909.7 584.323   9
   4   6   0 19215.4 1014.05   1
  -4  -6  -1 1994.33 221.468   9
   4   6   1 1827.27 325.540   1
  -4  -6  -2 4184.83 351.740   9
   4   6   2 4081.74 495.117   1
  -4  -6  -3 136.091 109.425   9
   4   6   3 29.1727 150.168   2
   4   6   3 445.828 195.852   1
   4   6   4 82.6382 193.200   1
   4   6   4 33.7349 105.099   6
   4   6   4-94.6115 168.544   2
   4   6   5 11302.5 690.208   6
   4   6   5 11068.8 796.036   1
   4   6   5 11898.4 811.785   2
   4   6   6 21414.6 991.150   6
   4   6   6 24453.5 1198.54   2
   4   6   6 22453.6 1107.94   1
   4   6   7 14627.1 870.219   6
   4   6   7 14868.7 909.991   1
   4   6   7 15126.2 984.223   2
   4   6   8 8252.99 675.479   6
   4   6   8 8786.52 703.081   1
   4   6   8 9224.49 802.233   2
   4   6   9 2622.79 413.078   6
   4   6   9 2107.56 359.638   1
   4   6  10 1635.72 301.346   1
   4   6  10 2447.39 426.514   6
   4   6  11 1501.70 290.328   1
   4   6  11 1487.68 351.960   6
  -4  -6 -11 1552.81 355.151   9
   4   6  12 216.505 233.361   6
  -4  -6 -12-6.18807 141.172   9
   4   7  -9 1085.75 336.124   3
   4   7  -8 2227.14 433.266   3
   4   7  -7 242.098 236.572   3
   4   7  -7 268.245 233.497   5
   4   7  -6 5078.85 539.058   5
   4   7  -6 5485.73 608.059   3
   4   7  -5 317.535 175.762   3
   4   7  -5 132.613 141.760   1
   4   7  -5 546.230 210.241   5
   4   7  -4 2306.62 380.062   1
   4   7  -4 2504.93 439.436   3
   4   7  -4 2505.41 340.897   5
   4   7  -3 1295.90 302.120   1
   4   7  -3 806.487 271.924   3
   4   7  -3 1077.99 228.439   5
   4   7  -2 471.663 163.432   5
   4   7  -2 1357.13 333.946   1
   4   7  -1 1182.43 222.880   5
   4   7  -1 1464.05 331.166   1
   4   7   0 2689.12 328.782   5
   4   7   0 2572.51 403.759   1
   4   7   1 36559.2 1205.49   5
   4   7   1 39877.9 1543.00   1
  -4  -7  -2 440.944 157.993   9
   4   7   2 332.297 191.989   5
   4   7   2 229.603 193.567   1
   4   7   3 158068. 2522.94   5
  -4  -7  -3 158774. 2355.28   9
   4   7   3 158876. 3130.10   1
   4   7   4 693.540 215.532   6
   4   7   4 576.735 254.857   2
   4   7   4 494.881 192.748   5
  -4  -7  -4 678.710 201.792   9
   4   7   4 237.763 238.024   1
   4   7   5 24301.4 1010.92   6
  -4  -7  -5 24615.1 1043.59   9
   4   7   5 24248.9 1215.51   1
   4   7   5 26494.3 1250.59   2
   4   7   6 149.274 114.109   6
   4   7   6 555.472 254.881   2
  -4  -7  -6 618.534 210.536   9
   4   7   6 608.161 242.274   1
   4   7   7 3154.03 415.621   6
  -4  -7  -7 3742.23 473.057   9
   4   7   7 3456.72 492.614   2
   4   7   7 3169.40 470.454   1
   4   7   8 1627.75 342.142   1
   4   7   8 1359.21 302.393   6
   4   7   8 1652.89 352.043   2
  -4  -7  -8 1566.07 320.620   9
   4   7   9-126.950 163.420   6
   4   7   9 503.252 239.701   1
  -4  -7  -9 299.423 248.783   9
   4   7   9 55.4872 163.921   2
   4   7  10 3931.60 523.841   6
   4   7  10 4161.69 519.111   1
  -4  -7 -10 3974.24 556.135   9
   4   7  11-107.289 159.734   6
  -4  -7 -11 215.288 209.404   9
   4   7  11 1.54096 140.562   1
   4   7  12 1757.37 397.936   6
   4   8  -7 2316.59 479.159   3
   4   8  -6-44.9340 185.500   3
   4   8  -5 569.996 240.479   1
   4   8  -5 1050.40 271.152   5
   4   8  -4 2528.66 438.538   1
   4   8  -4 2451.83 395.758   5
   4   8  -3 246.208 137.345   5
   4   8  -3 167.220 215.555   1
   4   8  -2 3259.89 424.319   5
   4   8  -2 3730.91 524.927   1
   4   8  -1 104.676 147.830   5
   4   8  -1-76.1515 174.664   1
   4   8   0 2790.31 386.285   5
   4   8   1 650.709 208.772   5
   4   8   2-34.1965 141.359   5
  -4  -8  -3 625.079 194.539   9
   4   8   3 528.622 142.812   5
   4   8   4 1835.56 322.970   5
  -4  -8  -4 2078.21 310.744   9
   4   8   4 1809.97 377.041   2
   4   8   5 1087.63 209.103   6
   4   8   5 1021.72 247.658   5
   4   8   5 1237.59 308.903   2
  -4  -8  -5 1187.16 259.153   9
   4   8   6 4656.15 471.347   6
  -4  -8  -6 5123.56 538.652   9
   4   8   6 4817.83 589.595   2
   4   8   7 1218.64 249.374   6
   4   8   7 1497.98 360.715   2
  -4  -8  -7 1329.92 292.679   9
   4   8   7 1292.88 323.891   1
   4   8   8 405.375 197.076   6
   4   8   8 573.106 244.606   2
  -4  -8  -8 535.147 225.816   9
   4   8   8 553.779 238.742   1
   4   8   9-0.71077 200.688   1
   4   8   9 160.148 165.967   6
   4   8   9 319.522 227.126   2
  -4  -8  -9-110.035 179.217   9
   4   8  10 781.852 277.581   2
   4   8  10 527.071 220.103   6
   4   8  10 518.713 229.177   1
  -4  -8 -10 4.31116 183.338   9
   4   8  11 5247.34 641.092   6
   4   8  11 5220.25 635.031   1
  -4  -8 -11 5764.73 700.301   9
   4   9  -4 3763.83 582.263   1
   4   9  -3 483.595 239.199   5
   4   9  -3 664.191 256.108   1
   4   9  -2 1943.69 369.539   5
   4   9  -2 1894.92 387.963   1
   4   9  -1 709.557 233.937   5
   4   9   0 2261.77 378.713   5
   4   9   1 5355.32 559.573   5
   4   9   2 58.6837 185.451   5
   4   9   3 14579.8 945.379   5
   4   9   4 16.1992 163.434   5
   4   9   5 2008.09 371.188   5
   4   9   5 1437.66 369.062   2
  -4  -9  -5 2156.49 343.674   9
   4   9   6 240.439 204.660   2
  -4  -9  -6 190.194 175.453   9
   4   9   7 2005.72 415.665   2
  -4  -9  -7 2133.09 390.386   9
   4   9   8 2510.79 482.370   2
  -4  -9  -8 2005.03 386.847   9
   4   9   8 2845.74 531.258   1
   4   9   9 395.321 217.331   6
   4   9   9 853.655 304.937   2
  -4  -9  -9 601.773 242.680   9
   4   9   9 256.716 174.440   1
   4   9  10 725.958 254.433   6
   4   9  10 860.375 318.068   1
   4   9  11 74.4103 136.709   6
   4   9  11 163.078 206.612   1
   4  10  -1 644.863 235.783   5
   4  10   0 677.997 284.748   5
   4  10   1 535.404 238.444   5
   4  10   2 809.812 278.818   5
   4  10   3 655.983 255.226   5
   4  10   4 888.439 242.527   5
   4  10   5 409.626 245.863   5
   4  10   6 137.728 139.644   5
   4  10   6 1.22277 206.337   2
   4  10   7-209.290 207.551   2
  -4 -10  -7-232.461 216.808   9
  -4 -10  -8 170.436 160.266   9
   4  11   2-12.3918 180.141   5
   4  11   3 272.546 168.102   5
   4  11   4 66.4455 174.154   5
  -5   7   6-49.8293 214.344   5
  -5   7   5 171.663 193.614   5
  -5   7   4 128.671 144.337   5
  -5   7   3-244.355 272.461   5
  -5   7   2-271.665 215.595   5
  -5   7   1 339.372 261.484   5
  -5   7   0 362.829 207.476   5
  -5   7  -1 85.4158 179.831   5
  -5   6   6-162.699 201.285   5
  -5   6   5 325.773 176.667   5
  -5   6   4 601.144 231.092   5
  -5   6   3 527.367 255.342   5
  -5   6   2 3876.66 538.864   5
  -5   6   1 220.585 211.521   5
  -5   6   0 1619.88 360.159   5
  -5   6  -1 472.203 203.792   5
  -5   6  -2 195.902 150.354   5
  -5   6  -3 338.619 206.693   5
  -5   6  -4-58.4462 172.632   5
   5  -5 -10 385.631 199.868   7
   5  -5  -9 330.424 239.223   7
   5  -5  -8 317.532 234.019   7
   5  -5  -7 301.424 242.261   7
  -5   5   6 246.686 202.448   5
  -5   5   5 619.467 221.154   5
  -5   5   4-90.6513 185.868   5
  -5   5   3 291.216 151.922   5
  -5   5   2-83.5305 146.240   5
  -5   5   1 627.526 214.319   5
  -5   5   0 773.416 247.422   5
  -5   5  -1 2624.72 406.722   5
  -5   5  -2-20.6865 157.512   5
  -5   5  -3 1610.57 356.408   5
  -5   5  -4 569.613 192.643   5
  -5   5  -5-15.0865 156.498   5
  -5   5  -6 1478.04 373.547   5
  -5   5  -7 608.446 260.130   5
   5  -4 -11 1898.43 385.266   7
   5  -4 -10-220.137 242.149   3
   5  -4 -10-7.78201 170.955   7
   5  -4  -9 611.351 222.995   3
   5  -4  -9 556.621 260.955   7
   5  -4  -8 1883.59 345.575   3
   5  -4  -8 2936.54 462.563   7
   5  -4  -7 1829.87 331.526   3
   5  -4  -7 2167.73 410.229   7
   5  -4  -6 203.952 173.866   7
  -5   4   5 4735.54 487.133   5
   5  -4  -5 4868.40 573.867   7
  -5   4   4 5179.67 514.008   5
  -5   4   3 1113.97 259.733   5
  -5   4   2 3555.45 426.184   5
  -5   4   1 234.385 168.790   5
  -5   4   0 927.126 242.005   5
  -5   4  -1 307.651 189.730   5
  -5   4  -2 663.770 215.052   5
  -5   4  -3 1542.89 320.244   5
  -5   4  -4 2298.13 374.104   5
  -5   4  -5 190.582 183.191   5
   5  -4   5 207.707 205.775   7
  -5   4  -6-326.626 287.757   5
   5  -4   6 75.3290 108.140   7
  -5   4  -7-160.055 168.373   5
  -5   4  -8 1299.19 299.829   5
   5  -3 -12 108.368 160.812   9
   5  -3 -11-165.334 232.034   3
   5  -3 -11-6.74149 153.621   7
   5  -3 -10 131.687 166.048   3
   5  -3 -10-300.815 241.395   7
   5  -3  -9 966.615 271.320   3
   5  -3  -9 1122.74 297.549   7
   5  -3  -8 1464.97 318.378   3
   5  -3  -8 2047.95 361.473   7
   5  -3  -7 255.747 172.541   3
   5  -3  -7 416.301 205.056   7
   5  -3  -6 9957.29 705.769   3
   5  -3  -6 13219.1 872.642   7
   5  -3  -5 1693.94 276.844   3
   5  -3  -5 1782.61 370.646   7
  -5   3   4 3659.03 389.789   5
   5  -3  -4 4006.84 395.112   3
   5  -3  -4 3818.71 497.582   7
  -5   3   3 5396.01 472.891   5
   5  -3  -3 5745.16 436.859   3
   5  -3  -3 6606.84 634.608   7
  -5   3   2 7241.67 525.423   5
   5  -3  -2 7584.32 670.179   7
  -5   3   1 5721.79 476.924   5
   5  -3  -1 5170.91 557.091   7
  -5   3   0 6108.00 490.778   5
   5  -3   0 7226.41 640.524   7
  -5   3  -1 8294.88 579.520   5
   5  -3   1 8677.69 687.363   7
  -5   3  -2 1778.80 299.271   5
   5  -3   2 1709.32 329.402   7
  -5   3  -3 7173.50 579.275   5
   5  -3   3 7656.96 642.497   7
  -5   3  -4 2566.80 372.884   5
   5  -3   4 2815.15 404.525   7
  -5   3  -5 845.244 260.613   5
   5  -3   5 448.735 189.041   7
  -5   3  -6 6397.62 617.857   5
   5  -3   6 6108.11 553.627   7
  -5   3  -7 4144.86 522.963   5
  -5   3  -8 2134.88 397.816   5
  -5   3  -9 183.062 223.278   5
  -5   3 -10 540.875 270.102   5
   5  -2 -11 1531.47 379.596   3
   5  -2 -10 552.860 255.524   3
   5  -2 -10 573.257 228.577   7
   5  -2  -9 1297.65 304.622   3
   5  -2  -9 1830.28 354.533   7
   5  -2  -8 429.199 188.837   3
   5  -2  -8 497.425 178.091   7
   5  -2  -7 2711.13 408.237   3
   5  -2  -7 3000.24 416.665   7
   5  -2  -6 1886.22 337.456   3
   5  -2  -6 1468.59 312.707   7
   5  -2  -5 1344.04 272.076   3
   5  -2  -5 1751.18 342.992   7
   5  -2  -4 33506.5 1144.46   3
   5  -2  -4 34185.4 1333.41   7
  -5   2   3 4504.10 382.128   5
   5  -2  -3 4074.78 386.564   3
   5  -2  -3 3697.32 451.331   7
  -5   2   2 3601.55 336.958   5
   5  -2  -2 3652.48 344.682   3
   5  -2  -2 3698.01 447.399   7
  -5   2   1 3539.80 329.855   5
   5  -2  -1 3288.00 313.075   3
   5  -2  -1 3449.19 429.159   7
  -5   2   0 1921.01 255.275   5
   5  -2   0 1929.38 330.341   7
   5  -2   0 1963.74 233.570   3
  -5   2  -1 19729.9 798.720   5
   5  -2   1 19893.6 987.627   7
  -5   2  -2 44.4821 91.2610   5
   5  -2   2 90.0206 151.735   7
  -5   2  -3 2376.65 309.174   5
   5  -2   3 3236.18 398.739   7
  -5   2  -4 1623.99 271.296   5
   5  -2   4 1125.70 252.682   7
  -5   2  -5 1253.46 247.588   5
   5  -2   5 2455.84 333.017   7
  -5   2  -6 644.792 209.322   5
   5  -2   6 691.020 197.145   7
  -5   2  -7 563.179 206.492   5
  -5   2  -8 269.766 156.338   5
  -5   2  -9 729.410 259.595   5
  -5   2 -10-15.8937 162.300   5
  -5   2 -11 1275.35 354.398   5
   5  -1 -11 369.509 248.939   3
   5  -1 -10 1849.86 431.060   3
   5  -1  -9 186.952 141.622   3
   5  -1  -9 576.925 182.947   4
   5  -1  -8 8433.81 717.008   3
   5  -1  -8 9146.34 721.006   7
   5  -1  -8 10314.3 691.114   4
   5  -1  -7 595.531 189.928   3
   5  -1  -7 629.146 205.587   7
   5  -1  -6 78580.5 1982.28   3
   5  -1  -6 80565.8 2058.70   7
   5  -1  -5 2189.19 338.208   3
   5  -1  -5 2672.14 383.610   7
   5  -1  -4 38991.1 1273.70   3
   5  -1  -4 42126.8 1450.64   7
   5  -1  -3 4326.44 413.009   3
   5  -1  -3 4912.20 501.835   7
  -5   1   2 21309.9 671.995   5
   5  -1  -2 19921.2 647.551   5
   5  -1  -2 21981.3 860.042   3
   5  -1  -2 22184.1 1023.46   7
  -5   1   1 36409.9 878.725   5
   5  -1  -1 33137.4 836.617   5
   5  -1  -1 36968.4 1067.07   3
   5  -1  -1 36930.4 1323.94   7
  -5   1   0 9678.65 461.355   5
   5  -1   0 9927.66 670.277   7
   5  -1   0 9544.22 521.776   3
  -5   1  -1 42936.5 1017.32   5
   5  -1   1 46020.9 1441.01   7
  -5   1  -2 1434.88 211.405   5
   5  -1   2 1350.05 260.346   7
  -5   1  -3 34274.1 1020.68   5
   5  -1   3 32099.2 1180.12   7
  -5   1  -4 937.781 191.403   5
   5  -1   4 1428.89 271.387   7
  -5   1  -5 8187.62 563.653   5
   5  -1   5 7994.17 564.999   7
  -5   1  -6 7245.11 562.393   5
   5  -1   6 6916.78 532.888   7
   5  -1   7 1531.98 279.375   2
   5  -1   7 2170.63 302.196   7
  -5   1  -7 1990.50 334.055   5
  -5   1  -8 4784.56 531.934   5
  -5   1  -9 105.106 183.361   5
  -5   1 -10 766.168 239.880   5
  -5   1 -11 146.533 180.436   5
  -5   0  12 88.1888 194.262   6
   5   0 -11 4056.98 586.731   3
   5   0 -10 3666.82 529.272   3
   5   0  -9 11604.9 888.930   3
   5   0  -8 199.637 206.851   3
   5   0  -8-264.659 175.110   4
   5   0  -7 6359.80 541.319   4
   5   0  -7 6206.58 601.916   3
   5   0  -6 282.905 195.866   3
   5   0  -6 133.888 179.231   4
   5   0  -5 11511.9 755.217   3
   5   0  -5 11736.7 761.104   7
   5   0  -5 11582.7 717.684   4
   5   0  -4 26560.0 693.401   5
   5   0  -4 28700.7 1119.42   3
   5   0  -4 28325.8 1162.72   7
   5   0  -3 4484.97 255.796   5
   5   0  -3 4633.73 447.128   3
   5   0  -3 4656.55 471.973   7
   5   0  -2 4752.61 237.638   5
   5   0  -2 5151.27 436.518   3
   5   0  -2 4992.64 484.497   7
  -5   0   1 21366.8 496.438   5
   5   0  -1 21378.9 870.156   3
   5   0  -1 20505.6 955.394   7
  -5   0   0 48623.6 798.372   5
   5   0   0 49610.9 1458.98   7
   5   0   0 49013.3 1271.75   3
  -5   0  -1 35245.7 737.512   5
   5   0   1 36238.0 1248.94   7
  -5   0  -2 31705.4 790.388   5
   5   0   2 31554.8 1146.37   7
  -5   0  -3 2438.51 244.787   5
   5   0   3 2535.60 331.006   7
  -5   0  -4 3902.51 336.037   5
   5   0   4 3836.31 403.954   7
   5   0   5 255.515 126.895   2
  -5   0  -5 590.767 154.898   5
   5   0   5 374.103 143.327   7
   5   0   6 4553.74 413.550   2
  -5   0  -6 4132.28 420.802   5
   5   0   6 3928.47 431.009   4
  -5   0  -7 4770.72 470.616   5
   5   0   7 4810.33 435.865   2
   5   0   7 4208.92 438.990   4
   5   0   8 473.623 192.957   4
   5   0   8 254.069 146.718   2
  -5   0  -8 63.9112 122.077   5
   5   0   9 3854.09 430.071   4
  -5   0  -9 3882.07 479.439   5
   5   0   9 3840.97 449.120   2
   5   0  10 295.355 170.738   2
   5   0  10 198.611 202.624   6
   5   0  11 3937.82 570.940   6
   5   0  12 234.132 204.482   6
   5   1 -11 601.889 234.937   3
   5   1 -10 1708.77 402.904   3
   5   1  -9 3840.02 538.530   3
   5   1  -8 12862.4 738.343   4
   5   1  -8 12005.7 875.689   3
   5   1  -7 1072.43 289.979   3
   5   1  -7 1249.15 247.036   4
   5   1  -6 96950.4 2042.08   4
   5   1  -6 93429.1 2273.41   3
   5   1  -5 5649.66 506.480   4
   5   1  -5 6071.72 574.281   3
   5   1  -4 40974.6 730.628   5
   5   1  -4 42629.5 1409.48   3
   5   1  -3 119.135 106.877   4
   5   1  -3 218.174 152.467   3
   5   1  -3 320.931 47.3463   5
   5   1  -2 25112.5 1012.93   3
   5   1  -2 27899.7 1092.99   4
   5   1  -1 61315.6 1557.77   3
   5   1  -1 62752.3 1630.85   4
   5   1   0 5297.83 460.639   3
   5   1   0 5588.84 497.814   4
   5   1   1 125506. 2230.18   3
   5   1   1 133196. 2370.75   4
  -5  -1  -2 5375.53 259.965   5
   5   1   2 6049.26 516.189   4
  -5  -1  -3 61163.1 1035.62   5
   5   1   3 65730.8 1690.41   4
   5   1   4 6452.52 547.529   4
  -5  -1  -4 6031.40 382.993   5
   5   1   5 14536.9 799.450   4
   5   1   5 13925.1 734.379   2
  -5  -1  -5 13280.4 619.026   5
   5   1   6 4415.18 457.104   4
   5   1   6 5199.38 465.345   2
   5   1   7 248.445 142.991   4
   5   1   7 53.6024 115.390   2
   5   1   8 1859.98 362.291   6
   5   1   8 2152.25 336.440   2
   5   1   8 1818.63 292.985   4
   5   1   9 4614.21 460.672   4
   5   1   9 5220.93 531.062   2
   5   1   9 4211.59 569.534   6
   5   1  10 1809.51 377.489   6
   5   1  11-39.1338 186.768   6
   5   1  12 891.277 339.535   6
   5   2 -10 4725.62 602.064   3
   5   2  -9 6851.40 698.784   3
   5   2  -8 280.386 204.211   3
   5   2  -8 126.227 119.369   4
   5   2  -7 10136.1 656.406   4
   5   2  -7 9889.74 785.286   3
   5   2  -6 1013.68 295.249   3
   5   2  -6 1155.42 264.145   4
   5   2  -5 791.477 200.827   3
   5   2  -5 1294.38 271.060   4
   5   2  -4 11098.9 688.777   4
   5   2  -4 10932.7 350.842   5
   5   2  -4 11443.1 748.367   3
   5   2  -3 17880.6 869.327   4
   5   2  -3 16366.2 864.503   3
   5   2  -2 7627.24 574.985   4
   5   2  -2 7403.88 590.808   3
   5   2  -1 20892.3 937.057   4
   5   2  -1 20746.8 945.076   3
   5   2   0 55738.0 1545.93   4
   5   2   0 54168.9 1490.47   3
   5   2   1 18161.2 1064.44   3
   5   2   1 25334.9 1030.09   4
  -5  -2  -2 101266. 825.612   5
  -5  -2  -2 106613. 825.640   5
   5   2   3 3220.27 374.849   4
  -5  -2  -3 3270.75 219.000   5
   5   2   4 73804.2 1774.65   4
   5   2   4 68398.1 1736.08   2
   5   2   5 5566.05 495.708   2
   5   2   5 5170.23 478.119   4
   5   2   6 30556.5 1164.29   4
   5   2   6 30997.6 1190.31   2
   5   2   6 29429.7 1252.73   6
   5   2   7 12632.8 749.361   4
   5   2   7 13332.9 808.952   2
   5   2   7 12873.2 869.351   6
   5   2   8 1488.76 320.668   6
   5   2   8 1650.72 323.037   2
   5   2   8 1399.27 277.964   4
   5   2   9 7780.60 583.867   4
   5   2   9 8825.36 737.917   2
   5   2   9 8198.53 760.014   6
   5   2  10-173.930 165.252   6
   5   2  11 7326.43 775.712   6
   5   2  12 339.772 269.692   6
   5   3 -10 119.939 201.075   3
   5   3  -9 2874.13 515.096   3
   5   3  -8 1228.34 340.494   3
   5   3  -8 1000.09 217.182   4
   5   3  -7 4278.85 441.832   4
   5   3  -7 4051.12 520.216   3
   5   3  -6 33981.4 1244.05   4
   5   3  -6 33238.2 1425.12   3
   5   3  -5 185.929 163.826   3
   5   3  -5 274.344 177.904   4
   5   3  -5 140.494 84.2280   5
   5   3  -4 62640.0 1693.58   4
   5   3  -4 58996.1 896.274   5
   5   3  -4 64360.2 1836.26   3
   5   3  -3 4661.61 474.395   4
   5   3  -3 3544.65 158.393   5
   5   3  -3 4132.97 165.817   5
   5   3  -3 4726.02 500.594   3
   5   3  -2 69167.8 1742.28   4
   5   3  -2 66061.7 1811.95   3
   5   3  -1 34052.8 1233.51   4
   5   3  -1 35352.0 1288.97   3
   5   3   0 27928.4 1109.25   4
   5   3   0 29290.4 1197.56   3
   5   3   1 26450.9 1086.03   4
   5   3   2 6212.30 527.058   4
  -5  -3  -2 5560.00 175.386   5
   5   3   3 174.016 176.477   4
  -5  -3  -3 67.5962 42.7708   5
   5   3   4 25691.6 1074.85   4
   5   3   4 26215.6 1126.29   2
   5   3   5 8793.07 640.996   2
   5   3   5 8759.72 641.665   4
   5   3   5 8127.38 633.757   6
   5   3   6 9601.11 660.274   4
   5   3   6 9111.61 674.423   2
   5   3   6 9700.67 713.372   6
   5   3   7 10297.6 689.663   4
   5   3   7 9665.88 718.711   2
   5   3   7 9492.10 735.437   6
   5   3   8 1577.68 349.776   6
   5   3   8 2064.28 366.340   2
   5   3   8 2165.98 340.581   4
   5   3   9 18671.3 944.545   4
   5   3   9 18163.6 1102.35   2
   5   3   9 18278.0 1104.34   6
   5   3  10 2582.48 447.823   6
   5   3  11 315.240 228.966   6
   5   3  12-159.828 187.929   6
   5   4 -10 1678.95 389.793   3
   5   4  -9 527.442 254.704   3
   5   4  -8 81.4296 110.391   3
   5   4  -7 2895.17 398.084   4
   5   4  -7 3275.66 479.185   3
   5   4  -6 3052.52 450.766   3
   5   4  -6 2531.26 346.475   4
   5   4  -5 12294.1 772.866   4
   5   4  -5 12045.6 541.061   5
   5   4  -5 11414.0 839.639   3
   5   4  -4 461.263 234.242   3
   5   4  -4 724.985 245.271   4
   5   4  -4 489.065 119.445   5
   5   4  -3 53165.1 1604.26   4
   5   4  -3 49786.7 837.424   5
   5   4  -3 53534.9 1731.67   3
   5   4  -2 1388.59 114.923   5
   5   4  -2 1933.76 339.602   4
   5   4  -2 1384.57 302.443   3
   5   4  -1 28487.5 1185.84   4
   5   4  -1 29190.7 1238.08   3
   5   4   0 5127.23 590.489   3
   5   4   0 5268.14 512.822   4
   5   4   1 14351.4 835.826   4
   5   4   2 57591.3 1657.87   4
   5   4   3 15361.6 870.514   4
   5   4   4 106619. 2345.07   2
   5   4   4 104642. 2267.47   4
   5   4   5 17962.7 958.563   2
   5   4   5 18107.9 949.423   4
   5   4   5 17873.0 931.686   6
   5   4   6 48348.3 1526.43   4
   5   4   6 47192.6 1606.22   2
   5   4   6 45365.8 1530.93   6
   5   4   7 7786.70 621.518   4
   5   4   7 7447.85 671.755   2
   5   4   7 7213.69 650.342   6
   5   4   8 5963.75 543.044   4
   5   4   8 6090.73 623.988   2
   5   4   8 5035.42 572.642   6
   5   4   9 5921.92 537.172   4
   5   4   9 6071.73 656.514   2
   5   4   9 5654.01 629.916   6
   5   4  10 1045.26 346.571   6
   5   4  10 589.232 189.552   4
   5   4  11 6355.29 729.502   6
   5   4  12 844.022 341.172   6
   5   5  -9 430.174 258.784   3
   5   5  -8 1234.55 316.122   3
   5   5  -7 1471.70 377.685   3
   5   5  -6 2452.37 430.656   3
   5   5  -5 307.171 165.292   3
   5   5  -5-41.0361 186.873   4
   5   5  -4 17945.3 979.834   4
   5   5  -4 17240.6 1045.06   3
   5   5  -3 2110.41 217.234   5
   5   5  -3 2717.96 416.174   3
   5   5  -3 2492.37 395.512   4
   5   5  -3 2830.00 400.137   1
   5   5  -2 62113.7 1818.20   4
   5   5  -2 58381.5 1048.09   5
   5   5  -2 59643.9 1744.25   1
   5   5  -2 61082.5 1886.11   3
   5   5  -1 9734.10 725.767   4
   5   5  -1 9673.44 401.377   5
   5   5  -1 9250.00 704.307   1
   5   5  -1 9109.02 787.403   3
   5   5   0 16617.9 928.177   4
   5   5   0 14284.3 470.699   5
   5   5   0 15255.6 892.703   1
   5   5   1 4577.57 498.480   4
   5   5   1 4928.09 508.807   1
   5   5   2 316.837 155.452   1
   5   5   2 368.556 191.346   4
   5   5   3 7672.70 642.873   4
   5   5   3 7626.11 627.076   1
   5   5   4 17626.9 1020.44   2
   5   5   4 17611.2 951.710   4
   5   5   4 15335.6 907.041   1
   5   5   4 15720.8 827.810   6
   5   5   5 9052.13 707.178   2
   5   5   5 9919.97 727.467   4
   5   5   5 8144.73 666.148   1
   5   5   5 9603.27 681.248   6
   5   5   6 5783.66 567.334   4
   5   5   6 5329.14 546.032   1
   5   5   6 5418.27 563.456   2
   5   5   6 5645.27 549.206   6
   5   5   7 21141.9 1069.38   4
   5   5   7 21203.2 1066.53   1
   5   5   7 20954.1 1162.73   2
   5   5   7 21414.6 1099.49   6
   5   5   8 1254.18 283.521   6
   5   5   8 1257.07 319.524   2
   5   5   8 636.174 214.266   4
   5   5   9 12132.8 826.301   4
   5   5   9 12847.5 982.508   2
   5   5   9 11881.2 905.225   6
   5   5  10 1282.77 337.177   6
   5   5  10 1265.05 364.000   2
   5   5  11 64.9304 227.837   6
   5   5  12 314.111 251.353   6
   5   6  -8 1490.40 388.310   3
   5   6  -7 316.164 195.523   3
   5   6  -6 1035.70 329.615   3
   5   6  -5 4769.96 526.567   1
   5   6  -5 5642.27 658.717   3
   5   6  -4 3783.65 503.476   3
   5   6  -4 3405.80 440.806   1
   5   6  -3 6376.85 627.685   1
   5   6  -3 5250.43 596.815   3
   5   6  -2 2608.14 410.673   1
   5   6  -2 2783.74 487.967   3
   5   6  -1 8199.70 692.448   1
   5   6  -1 1205.59 576.057   3
   5   6   0 311.124 183.536   1
   5   6   0 119.915 190.201   4
   5   6   0 225.286 118.789   5
   5   6   1 26548.2 1247.56   4
   5   6   1 25573.1 1231.41   1
   5   6   2 28815.5 1296.40   4
   5   6   2 29528.4 1331.58   1
   5   6   3 19596.4 1056.30   4
   5   6   3 18085.5 1055.90   1
   5   6   4 56257.4 1939.13   2
   5   6   4 59954.9 1899.92   4
   5   6   4 59451.2 1871.69   1
   5   6   4 55320.9 1529.51   6
   5   6   5 13086.6 902.674   2
   5   6   5 12675.1 907.103   4
   5   6   5 12809.9 881.213   1
   5   6   5 12539.3 772.437   6
   5   6   6 19743.2 1083.39   1
   5   6   6 18838.1 983.957   6
   5   6   6 18890.4 1105.64   2
   5   6   7 478.132 232.861   6
   5   6   7-111.459 193.027   2
   5   6   7 493.161 176.491   1
   5   6   8 5725.62 588.063   1
   5   6   8 6091.10 666.528   2
   5   6   8 5762.18 611.668   6
   5   6   9 1503.16 368.807   6
   5   6   9 1088.89 312.153   2
   5   6   9 1073.65 277.388   1
   5   6  10 2201.80 416.596   6
   5   6  10 2656.79 486.607   2
   5   6  11 1312.80 341.257   6
   5   6  11 1260.57 315.618   2
   5   6  12-75.8710 206.693   6
   5   7  -7 1860.39 422.134   3
   5   7  -6 2037.73 417.772   3
   5   7  -5 560.746 245.353   1
   5   7  -5 511.667 211.531   3
   5   7  -4 1484.51 329.645   1
   5   7  -4 1131.32 343.713   3
   5   7  -3 625.535 212.713   1
   5   7  -3 611.826 281.636   3
   5   7  -2 8427.50 761.823   1
   5   7  -1 3554.90 509.375   1
   5   7   0 2323.48 297.660   5
   5   7   0 2185.97 390.219   1
   5   7   1 4848.60 572.956   1
   5   7   1 4636.32 414.217   5
   5   7   2 3422.50 351.049   5
   5   7   2 3139.86 477.420   1
   5   7   3 1947.78 393.976   1
  -5  -7  -3 1510.87 247.928   9
   5   7   4 1155.45 246.376   6
   5   7   4 1369.75 330.423   1
  -5  -7  -4 1435.86 264.303   9
   5   7   5 13357.8 981.497   2
   5   7   5 12973.2 941.253   1
  -5  -7  -5 12784.7 778.404   9
   5   7   5 12952.3 777.653   6
   5   7   6 7.39247 119.068   6
   5   7   6 1.34443 190.830   2
   5   7   6 223.363 199.968   1
   5   7   7 2857.19 480.723   2
   5   7   7 2413.17 431.670   1
   5   7   7 3048.53 436.340   6
   5   7   8 154.536 140.160   1
   5   7   8-268.043 205.167   6
   5   7   8-164.171 143.527   2
   5   7   9 991.153 288.929   6
   5   7   9 682.749 270.723   2
   5   7   9 1025.25 292.329   1
  -5  -7  -9 1133.63 294.533   9
   5   7  10 795.360 322.259   6
   5   7  10 621.600 224.820   2
  -5  -7 -10 846.938 282.168   9
   5   7  10 593.843 237.820   1
   5   7  11 635.405 283.573   6
  -5  -7 -11 442.946 265.969   9
   5   7  11 777.745 253.933   1
   5   8  -6 1006.34 356.100   3
   5   8  -5 1104.98 312.294   1
   5   8  -5 361.644 275.933   3
   5   8  -4 95.0943 149.613   3
   5   8  -4 1262.71 322.419   1
   5   8  -3 541.643 205.939   1
   5   8  -2 1794.24 404.134   1
   5   8  -1 523.746 221.043   1
   5   8   0 108.487 135.136   1
   5   8   1 9505.92 854.479   1
   5   8   2 3622.65 410.107   5
   5   8   2 4278.53 580.369   1
   5   8   3 4456.80 459.847   5
   5   8   3 5290.24 641.776   1
  -5  -8  -4 5350.71 498.825   9
   5   8   4 5596.42 656.883   1
   5   8   5 1902.38 427.593   1
  -5  -8  -5 1552.13 297.552   9
   5   8   5 1404.17 372.768   2
   5   8   6 5658.60 666.728   1
   5   8   6 5215.48 642.677   2
  -5  -8  -6 5705.72 563.435   9
   5   8   6 5622.94 544.989   6
   5   8   7 134.621 168.347   6
   5   8   7 31.7758 203.521   2
   5   8   7 378.870 261.379   1
  -5  -8  -7-112.295 170.905   9
   5   8   8 4260.30 529.197   6
   5   8   8 4655.05 620.074   1
  -5  -8  -8 4248.34 533.593   9
   5   8   8 4949.73 633.639   2
   5   8   9 471.370 220.181   6
   5   8   9 691.313 307.826   2
  -5  -8  -9 348.950 147.781   9
   5   8   9 287.631 178.977   1
   5   8  10 529.736 271.271   1
   5   8  10 721.641 279.404   6
  -5  -8 -10 828.541 245.417   9
   5   8  11 156.320 224.249   6
   5   8  11-288.961 213.004   1
   5   9  -4 1100.33 346.913   1
   5   9  -3 1.84297 241.906   1
   5   9  -2 2086.10 448.431   1
   5   9  -1 179.533 187.782   1
   5   9   0 1467.69 356.475   1
   5   9   1 772.643 331.692   1
   5   9   2 3057.02 528.032   1
   5   9   3 1384.47 414.325   1
   5   9   4 3439.89 539.105   1
   5   9   5 1945.25 452.943   1
   5   9   6 1435.61 382.875   1
   5   9   6 1274.15 402.977   2
   5   9   7 474.458 254.822   1
   5   9   7 38.4906 202.731   2
  -5  -9  -7 322.990 196.763   9
   5   9   8 593.812 305.653   1
   5   9   8 275.385 184.478   2
  -5  -9  -8 732.256 289.476   9
   5   9   9 441.579 250.136   1
  -5  -9  -9 397.783 196.552   9
   5   9  10 667.637 263.188   6
   6  -5  -4 674.075 242.504   7
   6  -5  -3 692.949 278.283   7
   6  -5  -2 452.130 239.434   7
   6  -5  -1 120.355 309.207   7
   6  -5   0 875.653 295.640   7
   6  -5   1-216.370 219.460   7
   6  -5   2-44.8149 187.065   7
   6  -5   3 7.73329 194.375   7
   6  -5   4-49.9890 142.976   7
   6  -4  -8 980.015 343.117   7
   6  -4  -7 153.321 180.505   7
   6  -4  -6 227.564 221.111   7
   6  -4  -5 2720.02 491.985   7
   6  -4  -4 4907.04 625.077   7
   6  -4  -3 421.430 198.607   7
   6  -4  -2 160.215 147.197   7
   6  -4  -1 1097.38 377.074   7
   6  -4   0 622.241 241.156   7
   6  -4   1 150.170 170.166   7
   6  -4   2 9933.51 857.724   7
  -6   4  -3 439.918 185.619   5
   6  -4   3 313.712 174.765   7
  -6   4  -4 1657.53 353.182   5
   6  -4   4 1290.64 321.330   7
  -6   4  -5-211.123 194.407   5
   6  -4   5 88.9278 118.439   7
  -6   4  -6 737.214 282.549   5
  -6   4  -7 610.470 269.582   5
   6  -3 -10 146.831 146.451   3
   6  -3 -10 349.989 176.637   7
   6  -3  -9 289.130 159.821   3
   6  -3  -9 207.600 214.279   7
   6  -3  -8 115.103 166.431   3
   6  -3  -8-77.3879 180.106   7
   6  -3  -7 240.709 160.766   3
   6  -3  -7 173.699 183.859   7
   6  -3  -6-107.589 149.767   7
   6  -3  -5 4876.17 616.301   7
   6  -3  -4 881.506 285.085   7
   6  -3  -3 8361.11 746.591   7
   6  -3  -2 532.221 242.996   7
   6  -3  -1 118.524 201.158   7
   6  -3   0 872.174 263.956   7
   6  -3   1 840.272 257.633   7
   6  -3   2 148.628 134.385   7
  -6   3  -3 665.747 220.562   5
   6  -3   3 693.457 278.960   7
  -6   3  -4 40.2708 154.697   5
   6  -3   4 72.4434 170.735   7
  -6   3  -5 1027.82 275.487   5
   6  -3   5 1163.98 289.249   7
  -6   3  -6 163.527 143.318   5
  -6   3  -7 133.487 165.846   5
  -6   3  -8-33.1142 148.814   5
  -6   3  -9 199.076 169.810   5
   6  -2 -10 72.5192 151.760   3
   6  -2  -9 37.6091 177.370   3
   6  -2  -9 332.952 222.931   7
   6  -2  -8 482.731 226.839   3
   6  -2  -8 402.823 214.912   7
   6  -2  -7 742.934 263.163   3
   6  -2  -7 519.797 227.737   7
   6  -2  -6 688.638 219.722   3
   6  -2  -6 1260.93 332.792   7
   6  -2  -5 13479.3 840.905   3
   6  -2  -5 14511.0 989.781   7
   6  -2  -4 27790.7 1151.55   3
   6  -2  -4 28250.7 1374.56   7
   6  -2  -3 2573.24 338.200   3
   6  -2  -3 2532.25 428.325   7
   6  -2  -2-112.699 194.165   7
   6  -2  -1 1105.70 310.924   7
   6  -2   0 370.578 188.540   7
   6  -2   1 545.034 221.058   7
   6  -2   2 5464.26 593.192   7
  -6   2  -3 545.023 169.525   5
   6  -2   3 404.908 165.372   7
  -6   2  -4 2019.05 324.499   5
   6  -2   4 2073.81 375.008   7
  -6   2  -5-173.178 172.256   5
   6  -2   5 105.288 140.126   7
  -6   2  -6 2033.54 337.256   5
   6  -2   6 2092.19 345.814   7
  -6   2  -7 358.219 224.176   5
  -6   2  -8 1397.94 333.325   5
  -6   2  -9 399.609 170.351   5
  -6   2 -10 127.457 195.948   5
   6  -1 -10 587.942 257.344   3
   6  -1  -9 1963.76 403.670   3
   6  -1  -8 1252.05 330.353   3
   6  -1  -8 1446.63 308.130   4
   6  -1  -7 722.773 239.225   3
   6  -1  -7 404.798 179.995   7
   6  -1  -7 129.228 143.683   4
   6  -1  -6 100.673 146.295   3
   6  -1  -6 36.9269 149.137   7
   6  -1  -5 8030.63 672.034   3
   6  -1  -5 8332.92 746.491   7
   6  -1  -4 213.135 134.028   3
   6  -1  -4 322.968 194.413   7
   6  -1  -3 11530.0 726.971   3
   6  -1  -3 12646.4 876.142   7
   6  -1  -2 511.365 162.318   3
   6  -1  -2 579.109 226.384   7
   6  -1  -1 426.972 151.539   3
   6  -1  -1 533.367 203.674   7
   6  -1   0 1439.80 260.938   3
   6  -1   0 1993.89 341.341   7
   6  -1   1-89.0388 184.436   7
   6  -1   2-28.7016 141.927   7
   6  -1   3-143.846 132.332   7
  -6   1  -4 968.671 204.217   5
   6  -1   4 809.323 213.419   7
  -6   1  -5 166.466 101.565   5
   6  -1   5 402.073 210.597   7
  -6   1  -6 116.252 139.830   5
   6  -1   6 114.255 130.786   7
  -6   1  -7 194.160 139.982   5
   6  -1   8-317.295 208.769   4
  -6   1  -8 116.633 149.639   5
  -6   1  -9 533.543 215.627   5
  -6   1 -10 1153.46 292.076   5
  -6   1 -11 59.9535 218.857   5
   6   0 -10 247.576 260.922   3
   6   0  -9 70.1802 241.430   3
   6   0  -8 3027.26 444.158   4
   6   0  -8 3349.53 512.536   3
   6   0  -7 34.8657 135.553   3
   6   0  -7 114.392 150.499   4
   6   0  -6 2889.50 435.569   3
   6   0  -6 2715.95 418.497   4
   6   0  -5 8093.98 685.244   3
   6   0  -5 9548.03 733.292   4
   6   0  -4 24443.9 1131.15   3
   6   0  -4 24746.6 1217.94   7
   6   0  -4 25916.9 1201.43   4
   6   0  -3 1370.93 271.157   3
   6   0  -3 1744.23 334.837   7
   6   0  -2-30.4447 118.872   3
   6   0  -2-18.5592 143.277   7
   6   0  -1 3568.45 459.314   7
   6   0  -1 3572.85 407.433   3
   6   0   0 505.554 163.430   3
   6   0   0 16.7557 125.705   7
   6   0   1 2886.88 397.934   7
   6   0   2 1319.28 259.290   7
   6   0   3 94.7702 118.317   7
   6   0   4-106.915 156.811   4
  -6   0  -5 8161.52 539.834   5
   6   0   5 8433.67 690.810   4
   6   0   6 1202.28 298.922   4
  -6   0  -6 1152.73 221.060   5
   6   0   7 220.117 151.667   4
  -6   0  -7 127.284 109.218   5
   6   0   8 272.035 191.196   4
  -6   0  -8 732.540 217.606   5
  -6   0  -9 115.924 147.405   5
  -6   0 -10 570.044 214.990   5
  -6   0 -11 459.588 236.626   5
   6   1  -9 6087.16 691.870   3
   6   1  -8 3228.59 419.869   4
   6   1  -8 3681.10 564.317   3
   6   1  -7 856.545 246.131   3
   6   1  -7 1120.70 266.102   4
   6   1  -6 2579.59 418.191   3
   6   1  -6 1902.75 322.158   4
   6   1  -5 7.03417 131.558   4
   6   1  -5 69.4245 144.242   3
   6   1  -4 1151.12 293.643   4
   6   1  -4 872.070 233.782   3
   6   1  -3 1063.16 256.170   4
   6   1  -3 1101.51 282.038   3
   6   1  -2-203.588 194.168   4
   6   1  -2 45.4378 126.456   3
   6   1  -1-259.221 178.692   4
   6   1  -1-7.60789 119.946   3
   6   1   0 3843.45 433.948   3
   6   1   0 4183.12 491.184   4
   6   1   1 4570.11 505.936   4
   6   1   2 2624.55 396.771   4
   6   1   3 6903.16 620.603   4
   6   1   4 31437.5 1324.71   4
   6   1   5 926.389 232.085   4
   6   1   6 4920.53 543.112   4
   6   1   7 61.3862 151.041   4
   6   1   7 179.958 146.700   2
  -6  -1  -7 228.766 146.379   5
   6   1   8 46.4736 142.164   4
   6   1   8 180.516 143.212   2
  -6  -1  -8 309.673 126.345   5
   6   1   9 224.143 168.919   4
   6   1   9 72.6362 124.666   2
  -6  -1  -9 72.5699 118.061   5
   6   1  10 1707.57 352.569   2
  -6  -1 -10 2029.31 385.489   5
   6   2  -9-41.9177 170.928   3
   6   2  -8 4945.39 518.441   4
   6   2  -8 5870.34 689.139   3
   6   2  -7-32.5078 155.275   3
   6   2  -7 212.102 148.303   4
   6   2  -6 3039.38 411.231   4
   6   2  -6 2284.87 406.175   3
   6   2  -5 2073.81 382.721   3
   6   2  -5 2683.09 399.263   4
   6   2  -4 1845.41 347.221   4
   6   2  -4 1605.70 340.380   3
   6   2  -3 5858.59 557.233   4
   6   2  -3 4588.14 543.045   3
   6   2  -2 260.723 162.682   4
   6   2  -2 244.621 153.885   3
   6   2  -1 15192.0 891.040   4
   6   2  -1 14063.8 855.320   3
   6   2   0 409.154 191.836   4
   6   2   0 302.948 133.799   3
   6   2   1 4932.10 549.678   4
   6   2   2 844.916 257.752   4
   6   2   3 529.381 249.898   4
   6   2   4-46.7076 144.967   4
   6   2   5 35077.7 1370.18   4
   6   2   6 1374.68 298.401   4
   6   2   6 1131.89 289.507   2
   6   2   7 137.014 126.302   4
   6   2   7 247.657 190.497   2
   6   2   8 2322.88 385.117   4
   6   2   8 2711.01 398.705   2
   6   2   9-82.6582 165.185   2
   6   2   9-160.616 180.269   4
   6   2  10 545.475 216.355   2
   6   2  10 960.959 300.658   6
   6   2  11 78.1863 213.450   6
   6   2  11 172.708 143.307   2
   6   2  12 25.2695 156.361   2
   6   3  -9 2877.63 532.539   3
   6   3  -8 92.1662 178.629   3
   6   3  -7 942.848 276.688   3
   6   3  -7 693.639 245.265   4
   6   3  -6 2629.41 440.955   3
   6   3  -6 2135.99 373.919   4
   6   3  -5 5447.49 549.401   4
   6   3  -5 6596.37 673.299   3
   6   3  -4 3614.41 454.385   4
   6   3  -4 3074.88 471.900   3
   6   3  -3 5615.37 552.119   4
   6   3  -3 4227.59 536.207   3
   6   3  -2 1278.82 311.678   4
   6   3  -2 919.180 285.475   3
   6   3  -1 760.269 248.002   4
   6   3  -1 736.293 237.154   3
   6   3   0 4139.86 488.728   4
   6   3   0 3597.35 484.131   3
   6   3   1 27.1444 113.608   4
   6   3   2 4832.29 531.824   4
   6   3   3 4606.58 514.831   4
   6   3   4 51448.3 1681.81   4
   6   3   5 3504.04 456.060   4
   6   3   6 9866.35 742.534   4
   6   3   6 9652.76 769.094   2
   6   3   7 872.538 262.127   4
   6   3   7 826.595 196.163   2
   6   3   8 163.026 155.763   2
   6   3   8 18.6742 143.328   4
   6   3   8 216.463 156.416   6
   6   3   9 525.075 267.452   6
   6   3   9 947.740 291.187   2
   6   3   9 641.578 200.299   4
   6   3  10 564.451 257.169   6
   6   3  10 722.277 248.835   2
   6   3  11 1651.74 389.191   6
   6   3  11 1234.61 347.042   2
   6   3  12 548.405 278.801   2
   6   3  13 161.538 223.090   2
   6   4  -8 406.056 223.389   3
   6   4  -7 809.983 298.379   3
   6   4  -7 794.097 264.581   4
   6   4  -6 1747.19 394.100   3
   6   4  -6 2360.68 384.140   4
   6   4  -5 1291.09 363.514   3
   6   4  -5 1653.50 329.365   4
   6   4  -4 1040.60 274.935   4
   6   4  -4 919.052 277.182   3
   6   4  -3 21025.6 1101.39   4
   6   4  -3 18507.4 1115.84   3
   6   4  -2 345.728 221.093   4
   6   4  -2 13.3375 183.070   3
   6   4  -1 36222.2 1438.36   4
   6   4  -1 36716.4 1524.93   3
   6   4   0 432.171 245.587   4
   6   4   0 44.1514 170.555   3
   6   4   1 3851.40 494.905   4
   6   4   2 1686.24 329.174   4
   6   4   3 2767.91 418.468   4
   6   4   4 490.306 212.027   4
   6   4   5 16201.9 973.565   4
   6   4   5 12618.0 936.863   2
   6   4   6 4492.69 546.198   2
   6   4   6 4608.15 530.528   4
   6   4   7 332.716 206.619   4
   6   4   7 415.830 208.856   2
   6   4   7 397.427 169.963   6
   6   4   8 5387.78 574.673   4
   6   4   8 5968.48 638.135   2
   6   4   8 5744.08 651.125   6
   6   4   9-157.076 213.445   6
   6   4   9 78.4008 154.844   2
   6   4   9 339.812 205.653   4
   6   4  10 304.078 194.674   6
   6   4  10 333.752 240.015   2
   6   4  11 319.412 224.138   6
   6   4  11 32.6955 135.958   2
   6   4  12 593.253 298.650   2
   6   5  -7 456.114 218.952   3
   6   5  -6 154.474 163.717   3
   6   5  -6-182.733 167.191   4
   6   5  -5 2209.14 419.220   3
   6   5  -5 2407.77 391.223   4
   6   5  -4 3308.68 481.020   4
   6   5  -4 2693.00 460.232   3
   6   5  -3 7678.43 684.559   4
   6   5  -3 7287.62 734.551   3
   6   5  -2 679.082 270.745   4
   6   5  -2 606.273 245.628   3
   6   5  -1 6066.05 622.095   4
   6   5  -1 4527.63 639.402   3
   6   5   0 2707.81 437.252   4
   6   5   1 1892.62 379.959   4
   6   5   2 4502.39 526.786   4
   6   5   3 276.577 148.061   4
   6   5   4 14411.8 944.701   4
   6   5   5 3606.98 488.247   4
   6   5   5 2552.43 465.283   2
   6   5   6 2573.19 419.074   4
   6   5   6 2619.38 445.768   2
   6   5   6 2461.11 397.568   6
   6   5   7 4234.16 554.370   2
   6   5   7 4472.15 525.399   4
   6   5   7 4124.87 525.134   6
   6   5   8 142.657 204.027   6
   6   5   8 148.489 143.567   2
   6   5   8 196.482 172.503   4
   6   5   9 2752.11 467.089   6
   6   5   9 3287.16 472.760   4
   6   5   9 3102.54 505.378   2
   6   5  10 206.139 182.147   6
   6   5  10-8.90547 150.506   4
   6   5  11 1436.01 391.468   6
   6   5  11 2327.84 462.608   2
   6   6  -6 4983.10 721.020   3
   6   6  -5 480.765 200.736   3
   6   6  -4 2874.12 501.600   3
   6   6  -3 3618.52 503.512   4
   6   6  -3 3661.67 554.765   3
   6   6  -2 796.936 270.358   4
   6   6  -2 695.958 303.192   3
   6   6  -1 12488.3 914.489   4
   6   6  -1 12569.3 906.215   1
   6   6   0 231.703 264.630   4
   6   6   0 151.736 173.728   1
   6   6   1 3484.53 496.080   4
   6   6   1 2804.56 432.668   1
   6   6   2 843.005 242.487   1
   6   6   2 1020.71 292.348   4
   6   6   3 2163.19 373.859   1
   6   6   3 3099.76 453.620   4
   6   6   4 2584.39 414.137   1
   6   6   4 2705.90 433.018   4
   6   6   5 1392.53 339.526   1
   6   6   5 1955.59 379.930   4
   6   6   6 1737.10 366.364   4
   6   6   6 1667.23 374.489   2
   6   6   6 1547.69 334.495   6
   6   6   7 2792.10 449.083   6
   6   6   7 2199.68 430.257   2
   6   6   7 2418.17 428.967   4
   6   6   8 516.473 250.833   6
   6   6   8 294.249 235.436   2
   6   6   8 364.240 198.079   4
   6   6   9 597.181 246.173   6
   6   6   9 246.592 240.480   2
   6   6  10 142.803 188.461   6
   6   6  10 186.778 235.528   2
   6   6  11-102.595 150.915   6
   6   7  -5 587.036 263.236   3
   6   7  -4 283.195 234.495   3
   6   7  -3 251.663 167.909   1
   6   7  -3 305.763 214.334   3
   6   7  -2 115.399 160.779   1
   6   7  -1 1782.09 376.922   1
   6   7   0 1509.96 364.525   1
   6   7   1 280.144 186.523   1
   6   7   2 5606.74 650.860   1
   6   7   3-63.4987 227.841   1
   6   7   4 3273.39 493.214   1
   6   7   5 2062.54 417.801   1
   6   7   6 472.381 235.925   1
   6   7   6 748.289 350.900   2
   6   7   6 676.401 222.859   6
   6   7   7 4976.41 678.797   2
   6   7   7 6470.51 688.780   1
   6   7   7 5312.27 590.076   6
   6   7   8 270.293 185.374   6
   6   7   8 809.557 285.551   2
   6   7   8 427.838 230.937   1
   6   7   9 3194.71 511.216   6
   6   7   9 2602.89 499.756   2
   6   7  10-115.247 158.882   6
   6   8  -5-58.9391 155.384   1
   6   8  -4 2684.96 489.610   1
   6   8  -3-1.52212 183.019   1
   6   8  -2 182.960 214.884   1
   6   8  -1 1442.39 386.783   1
   6   8   0 321.590 248.338   1
   6   8   1 2218.82 447.306   1
   6   8   2 582.628 277.018   1
   6   8   3 7616.71 798.814   1
   6   8   4 131.828 216.866   1
   6   8   5 5573.35 677.835   1
   6   8   6 275.881 233.443   1
  -6  -8  -6 494.735 225.110   9
   6   8   6 78.5745 202.511   2
   6   8   7 1332.64 328.986   6
   6   8   7 1038.64 392.393   2
  -6  -8  -7 1144.33 272.837   9
   6   8   7 1521.77 390.263   1
   6   8   8 219.435 169.140   6
   6   8   8-164.736 291.338   2
  -6  -8  -8 275.579 155.642   9
   6   8   8 197.940 182.493   1
   6   8   9-4.88539 154.751   6
   6   8   9-209.453 225.608   1
  -6  -8  -9 55.4193 160.142   9
   6   8  10 167.154 165.374   1
   6   8  10 502.188 226.904   6
   6   9   0 947.024 320.638   1
   6   9   1 451.089 293.005   1
   6   9   2 1504.73 387.742   1
   6   9   3 3.09613 202.637   1
   6   9   4 1448.88 362.971   1
  -6  -9  -8 53.6765 156.047   9
   7  -3  -4 51.5164 186.983   7
   7  -3  -3 8446.88 842.431   7
   7  -3  -2 18.8162 175.538   7
   7  -3  -1 683.075 273.351   7
   7  -3   0 1846.58 419.747   7
   7  -3   1 247.709 197.909   7
   7  -3   2 1606.87 388.926   7
   7  -3   3 503.659 234.216   7
   7  -3   4 502.728 235.095   7
   7  -3   5 1255.76 340.008   7
   7  -2  -8 427.845 260.342   4
   7  -2  -7-156.410 246.848   7
   7  -2  -6 598.528 258.567   7
   7  -2  -5 716.665 281.386   7
   7  -2  -4 2882.08 479.557   7
   7  -2  -3 3510.29 553.197   7
   7  -2  -2 448.066 231.865   7
   7  -2  -1 1353.30 325.477   7
   7  -2   0 6.49798 153.139   7
   7  -2   1 687.250 277.348   7
   7  -2   2 387.830 239.164   7
   7  -2   3 1478.68 349.984   7
   7  -2   4 1184.66 333.777   7
   7  -2   5 2432.14 419.446   7
   7  -1  -8-59.3319 156.272   3
   7  -1  -8 6.85517 152.768   4
   7  -1  -7 258.038 178.626   4
   7  -1  -7 203.537 183.818   3
   7  -1  -6 441.202 191.164   4
   7  -1  -6 762.911 260.625   3
   7  -1  -6 1144.69 313.902   7
   7  -1  -5 1400.97 316.674   3
   7  -1  -5 1632.20 383.057   7
   7  -1  -4 287.233 163.362   3
   7  -1  -4 493.690 211.110   7
   7  -1  -3 4323.88 513.613   3
   7  -1  -3 4482.41 589.070   7
   7  -1  -2-8.74363 232.885   7
   7  -1  -1 454.803 239.305   7
   7  -1   0 1485.34 339.581   7
   7  -1   1 399.720 219.402   7
   7  -1   2 1487.03 314.948   7
   7  -1   3 123.777 121.006   7
   7  -1   4 585.097 227.371   7
   7  -1   5 2691.75 436.550   7
   7  -1   6-495.901 324.385   4
   7  -1   7 5224.71 624.765   4
   7  -1   8 45.8109 165.220   4
   7   0  -8 2431.49 473.951   3
   7   0  -8 2091.83 409.515   4
   7   0  -7 70.0345 172.019   3
   7   0  -7 382.597 163.416   4
   7   0  -6 1207.97 323.166   4
   7   0  -6 1187.41 318.373   3
   7   0  -5 459.319 195.021   4
   7   0  -5 859.057 284.746   3
   7   0  -4-35.0125 165.508   4
   7   0  -4 71.4035 149.760   3
   7   0  -3-99.1924 177.620   4
   7   0  -3 253.809 181.383   3
   7   0  -2 255.072 198.412   4
   7   0  -2 6.51267 160.843   3
   7   0  -1 48.0722 113.510   3
   7   0  -1-37.4914 152.580   4
   7   0   0 150.945 170.212   3
   7   0   0 1168.72 336.706   4
   7   0   1 417.765 202.123   4
   7   0   2-146.218 166.441   4
   7   0   3 3116.24 472.952   4
   7   0   4 165.273 208.871   4
   7   0   5 13988.4 997.697   4
   7   0   6 2777.29 465.761   4
   7   0   7 1990.22 396.635   4
   7   0   8 444.087 223.706   4
   7   1  -8-154.268 148.331   3
   7   1  -8-153.526 194.727   4
   7   1  -7 1225.98 361.321   3
   7   1  -7 1624.29 361.511   4
   7   1  -6 339.164 139.207   4
   7   1  -6 759.573 258.599   3
   7   1  -5 31.3631 138.126   4
   7   1  -5 210.691 205.796   3
   7   1  -4-151.917 186.504   4
   7   1  -4 126.170 149.360   3
   7   1  -3 213.978 175.480   4
   7   1  -3 230.439 195.008   3
   7   1  -2 2167.39 397.192   4
   7   1  -2 1748.18 341.055   3
   7   1  -1 391.867 222.402   4
   7   1  -1 413.600 181.948   3
   7   1   0 4416.59 560.027   4
   7   1   0 1274.36 383.317   3
   7   1   1 1059.45 302.615   4
   7   1   2 4558.94 564.816   4
   7   1   3 267.590 176.640   4
   7   1   4 2504.35 428.262   4
   7   1   5 3488.26 501.933   4
   7   1   6 1143.06 310.772   4
   7   1   7 4524.53 556.574   4
   7   1   8 141.022 141.197   4
   7   2  -7 391.141 213.587   3
   7   2  -7 1175.69 321.635   4
   7   2  -6 600.667 268.592   3
   7   2  -6 401.885 223.173   4
   7   2  -5-59.9569 167.129   4
   7   2  -5 328.425 191.777   3
   7   2  -4 704.781 232.088   4
   7   2  -4 220.887 154.391   3
   7   2  -3 623.963 232.206   4
   7   2  -3 367.732 179.058   3
   7   2  -2 555.397 240.096   4
   7   2  -2 445.529 193.285   3
   7   2  -1 628.411 231.444   4
   7   2  -1 1011.56 260.685   3
   7   2   0 1310.67 334.549   4
   7   2   0 473.950 259.003   3
   7   2   1-81.8503 196.819   4
   7   2   2 1020.91 252.345   4
   7   2   3 2506.57 430.033   4
   7   2   4 937.555 314.339   4
   7   2   5 13967.3 972.132   4
   7   2   6 2402.14 426.072   4
   7   2   7 1023.64 302.071   4
   7   2   8 72.4919 143.516   4
   7   2   9 541.248 251.866   4
   7   2   9-74.1765 178.356   2
   7   2  10-168.442 167.781   2
   7   3  -7 769.597 285.983   3
   7   3  -7 1146.20 306.796   4
   7   3  -6 247.152 173.627   3
   7   3  -6-67.7135 190.698   4
   7   3  -5 2062.07 398.217   4
   7   3  -5 1660.95 385.115   3
   7   3  -4-45.1291 146.575   4
   7   3  -4 123.186 140.172   3
   7   3  -3 421.695 205.975   4
   7   3  -3 304.244 168.213   3
   7   3  -2 4330.45 546.253   4
   7   3  -2 4056.93 537.664   3
   7   3  -1 1766.40 350.706   4
   7   3  -1 2077.83 410.590   3
   7   3   0 6532.37 649.414   4
   7   3   0 1724.56 516.700   3
   7   3   1 412.718 219.711   4
   7   3   2 2707.82 440.310   4
   7   3   3 2058.59 375.123   4
   7   3   4 733.681 276.520   4
   7   3   5 982.220 290.234   4
   7   3   6 666.202 252.631   4
   7   3   7 1456.76 338.958   4
   7   3   8 785.709 273.830   4
   7   3   8 98.2141 183.128   2
   7   3   9 521.597 213.371   4
   7   3   9 414.442 245.982   2
   7   3  10 124.112 159.361   2
   7   3  11 245.949 216.783   2
   7   4  -7 1730.12 356.395   4
   7   4  -6 239.284 215.044   3
   7   4  -6-144.502 176.965   4
   7   4  -5 201.824 180.089   4
   7   4  -5-5.72231 146.802   3
   7   4  -4 369.976 195.307   4
   7   4  -4 486.713 267.224   3
   7   4  -3 463.278 216.708   4
   7   4  -3 167.142 195.551   3
   7   4  -2 2094.71 383.875   4
   7   4  -2 1890.72 398.382   3
   7   4  -1 461.150 207.872   4
   7   4  -1 206.402 158.566   3
   7   4   0-117.864 154.887   4
   7   4   1-120.429 194.895   4
   7   4   2 1912.40 409.392   4
   7   4   3 136.571 176.239   4
   7   4   4 151.870 191.392   4
   7   4   5 1385.42 345.004   4
   7   4   6 284.145 170.300   4
   7   4   7 684.008 277.218   4
   7   4   7 268.140 208.734   2
   7   4   8 1185.54 295.517   4
   7   4   8 457.534 286.545   2
   7   4   9 3820.42 529.316   4
   7   4   9 2260.73 451.039   2
   7   4  10 1545.45 389.234   2
   7   4  11-198.772 232.627   2
   7   5  -6 661.448 242.891   4
   7   5  -5 2984.95 450.388   4
   7   5  -5 2289.23 491.384   3
   7   5  -4-95.0031 147.981   4
   7   5  -4 86.5915 221.720   3
   7   5  -3 4722.10 594.154   4
   7   5  -3 5631.06 698.174   3
   7   5  -2 627.701 263.637   4
   7   5  -2 559.317 281.765   3
   7   5  -1 3791.92 544.593   4
   7   5  -1 1045.39 466.734   3
   7   5   0 2593.94 434.839   4
   7   5   1 1049.31 315.837   4
   7   5   2 876.940 281.176   4
   7   5   3 572.042 237.425   4
   7   5   4 846.230 300.896   4
   7   5   5-361.268 229.256   4
   7   5   6 4515.88 578.295   4
   7   5   7 130.097 168.479   4
   7   5   7-205.267 176.913   2
   7   5   8 190.429 200.589   4
   7   5   8 316.349 260.053   2
   7   5   9 74.9543 127.240   4
   7   5   9 28.7032 176.410   2
   7   5  10-213.419 190.656   2
   7   6  -5 554.746 296.471   4
   7   6  -4 20.0797 162.383   4
   7   6  -4-43.6406 199.884   3
   7   6  -3 174.781 210.914   4
   7   6  -3 11.8205 136.197   3
   7   6  -2 1209.96 336.371   4
   7   6  -2 104.889 223.897   3
   7   6  -1 142.071 134.585   4
   7   6   0 298.989 185.616   4
   7   6   1 183.482 161.319   4
   7   6   2 18.7066 161.297   4
   7   6   3 1297.73 353.541   4
   7   6   4-63.3288 189.004   4
   7   6   5 1236.13 331.109   4
   7   6   6 1482.98 377.697   4
   7   6   7 1786.17 406.129   4
   7   6   7 689.092 336.014   2
   7   6   8 1383.55 341.511   4
   7   6   8 1151.48 374.947   2
   7   6   9 4254.72 604.187   4
   7   6   9 2518.10 559.289   2
   7   6   9 3564.11 554.263   6
   7   7  -1 507.955 257.432   4
   7   7   0-12.8002 163.800   4
   7   7   1 1736.95 403.747   4
   7   7   2 428.077 257.952   4
   7   7   3 1737.55 424.543   4
   7   7   4 1428.06 373.246   4
   7   7   5 434.001 222.860   4
   7   7   6 1426.02 364.812   4
   7   7   9-8.01240 161.987   6
   7   8   0 388.422 255.347   1
   7   8   1 1371.53 386.136   1
   7   8   2-36.6553 201.129   1
   7   8   3 3115.90 539.791   1
   7   8   4-99.6537 258.086   1
   7   8   9 873.975 274.871   6
   8  -1  -4 15.1503 188.856   4
   8  -1  -3 1447.77 353.034   4
   8  -1  -2 485.905 312.393   7
   8  -1  -2-67.8740 182.528   4
   8  -1  -1 461.053 229.616   7
   8  -1   0 406.403 261.609   7
   8  -1   1 184.704 154.639   7
   8  -1   2 1460.07 389.738   7
   8  -1   2 1387.17 375.070   4
   8  -1   3 0.82580 195.732   4
   8   0  -7 63.1620 193.293   4
   8   0  -6 2097.40 440.241   4
   8   0  -6 1343.02 363.743   3
   8   0  -5 445.869 238.059   4
   8   0  -5 340.783 200.697   3
   8   0  -4 1032.99 346.042   4
   8   0  -4 1149.64 281.707   3
   8   0  -3 668.970 278.671   4
   8   0  -2 1397.70 353.134   4
   8   0  -1 1937.49 411.936   4
   8   0   0 6929.23 782.815   4
   8   0   1 1977.94 435.872   4
   8   0   2 1406.50 388.971   4
   8   0   3 2524.80 498.069   4
   8   0   4 2.22639 246.547   4
   8   0   5 1002.37 363.548   4
   8   0   6 3357.03 567.077   4
   8   1  -7 144.170 174.659   4
   8   1  -6 893.553 348.496   4
   8   1  -6 610.944 275.483   3
   8   1  -5 25.7618 161.271   4
   8   1  -5 137.299 177.275   3
   8   1  -4 279.887 207.403   4
   8   1  -4 179.682 196.213   3
   8   1  -3 829.635 268.671   4
   8   1  -3 990.723 278.982   3
   8   1  -2-189.616 228.598   4
   8   1  -2 111.517 182.028   3
   8   1  -1 353.403 241.414   4
   8   1  -1-156.348 177.977   3
   8   1   0 23.7929 195.772   4
   8   1   1-64.9640 185.434   4
   8   1   2 858.691 309.607   4
   8   1   3 1778.75 400.895   4
   8   1   4 1648.04 400.804   4
   8   1   5 1749.81 423.550   4
   8   1   6 1058.22 343.261   4
   8   1   7 788.554 318.574   4
   8   1   8 1012.91 322.000   4
   8   2  -7 50.3437 208.633   4
   8   2  -6 2546.69 448.781   4
   8   2  -5-125.607 176.272   4
   8   2  -5 68.1645 175.385   3
   8   2  -4 3114.58 517.332   4
   8   2  -4 1948.77 434.891   3
   8   2  -3 357.035 232.834   4
   8   2  -3 98.0466 139.605   3
   8   2  -2 1562.01 366.268   4
   8   2  -2 1287.22 355.150   3
   8   2  -1 511.885 252.968   4
   8   2  -1 214.656 205.998   3
   8   2   0 7920.34 805.388   4
   8   2   1 2009.88 444.041   4
   8   2   2 2903.68 518.176   4
   8   2   3 3418.40 533.448   4
   8   2   4 253.537 224.024   4
   8   2   5 3945.74 586.647   4
   8   2   6 436.632 221.057   4
   8   2   7 1617.44 418.725   4
   8   2   8 341.518 225.279   4
   8   3  -7-213.161 246.564   4
   8   3  -6 1462.64 372.911   4
   8   3  -5 94.7372 144.111   4
   8   3  -5-81.5563 238.803   3
   8   3  -4-307.265 252.247   4
   8   3  -4 78.5213 200.943   3
   8   3  -3 945.584 269.236   4
   8   3  -3 461.221 244.562   3
   8   3  -2 612.255 267.446   4
   8   3  -2 499.325 265.152   3
   8   3  -1 611.079 269.433   4
   8   3  -1 216.848 261.696   3
   8   3   0 115.280 175.087   4
   8   3   1 653.057 264.704   4
   8   3   2 699.694 287.922   4
   8   3   3 2226.77 440.110   4
   8   3   4 931.291 290.421   4
   8   3   5 192.288 267.608   4
   8   3   6 1298.06 345.512   4
   8   3   7 174.819 237.149   4
   8   3   8 3484.02 532.839   4
   8   3   9-229.390 274.354   4
   8   4  -6 627.176 242.614   4
   8   4  -5 27.0230 177.091   4
   8   4  -4 2049.51 402.253   4
   8   4  -4 2080.22 470.212   3
   8   4  -3 780.464 282.131   4
   8   4  -3 441.714 267.301   3
   8   4  -2 2773.75 530.117   4
   8   4  -2 2006.24 461.738   3
   8   4  -1 128.054 203.293   4
   8   4  -1-113.338 237.197   3
   8   4   0 3611.03 525.590   4
   8   4   1 399.624 245.474   4
   8   4   2 1175.75 337.368   4
   8   4   3 418.198 255.822   4
   8   4   4 1471.02 375.253   4
   8   4   5 1908.03 420.705   4
   8   4   6 915.259 320.608   4
   8   4   7 1637.82 419.063   4
   8   4   8 49.1772 179.286   4
   8   4   9 172.308 233.887   4
   8   5  -5-59.7507 226.533   4
   8   5  -4 648.595 286.019   4
   8   5  -3 1558.63 398.431   4
   8   5  -2-69.6690 161.046   4
   8   5  -2 43.9569 339.363   3
   8   5  -1 1619.18 392.413   4
   8   5   0-350.484 290.689   4
   8   5   1 953.632 300.635   4
   8   5   2 1094.00 281.142   4
   8   5   3 554.166 260.527   4
   8   5   4 2876.12 514.795   4
   8   5   5 559.633 279.439   4
   8   5   6 1695.69 419.287   4
   8   5   7-188.534 246.904   4
   8   5   8 4719.67 640.991   4
   8   6  -2 929.337 314.246   4
   8   6  -1 77.1776 181.862   4
   8   6   0 769.735 292.425   4
   8   6   1 12.8463 169.194   4
   8   6   2 1565.43 374.743   4
   8   6   3 618.622 329.539   4
   8   6   4 1064.09 322.197   4
   8   6   5 862.544 341.501   4
   9   2  -3 172.568 213.974   3
   9   2  -2-102.391 232.408   3
   0   0   0    0.00    0.00   0
TITL lxy0609-qPF6 in P-1
REM P-1 (#2 in standard setting)
CELL 0.71073   6.957262   8.206360  11.745855  78.2735  85.7438  74.3076
ZERR    2.00   0.000878   0.001112   0.001041   0.0095   0.0088   0.0114
LATT  1
SFAC C H F Np
UNIT 22.00 20.00 12.00 2.00
TREF
HKLF 4
END
;
_shelx_hkl_checksum              4807
loop_
_space_group_symop_operation_xyz
'x, y, z'
'-x, -y, -z'
loop_
_atom_site_label
_atom_site_type_symbol
_atom_site_fract_x
_atom_site_fract_y
_atom_site_fract_z
_atom_site_U_iso_or_equiv
_atom_site_adp_type
_atom_site_occupancy
_atom_site_site_symmetry_order
_atom_site_calc_flag
_atom_site_refinement_flags_posn
_atom_site_refinement_flags_adp
P1 P 0.11362(10) 0.76736(8) 0.22177(5) 0.0541(3) Uani 1 1 d . .
F5 F 0.1107(4) 0.6084(3) 0.3201(2) 0.1152(8) Uani 1 1 d . .
N1 N 0.6058(3) 0.2130(2) 0.18969(17) 0.0503(5) Uani 1 1 d . .
F2 F 0.0666(4) 0.8852(3) 0.3168(2) 0.1150(8) Uani 1 1 d . .
F3 F 0.1163(4) 0.9298(3) 0.1246(2) 0.1309(9) Uani 1 1 d . .
F4 F 0.1566(4) 0.6523(3) 0.1267(2) 0.1293(10) Uani 1 1 d . .
F1 F 0.3427(3) 0.7445(4) 0.2362(2) 0.1238(9) Uani 1 1 d . .
F6 F -0.1177(3) 0.7971(4) 0.2094(2) 0.1142(8) Uani 1 1 d . .
C9 C 0.5151(3) 0.2167(3) 0.29795(19) 0.0472(5) Uani 1 1 d . .
C4 C 0.5938(4) 0.2880(3) 0.3780(2) 0.0536(6) Uani 1 1 d . .
C11 C 0.3633(5) 0.2688(4) 0.0337(3) 0.0776(9) Uani 1 1 d . .
H11A H 0.3159 0.2163 -0.0207 0.116 Uiso 1 1 calc R U
H11B H 0.4111 0.3641 -0.0077 0.116 Uiso 1 1 calc R U
H11C H 0.2561 0.3093 0.0858 0.116 Uiso 1 1 calc R U
C10 C 0.5306(4) 0.1381(3) 0.1022(2) 0.0631(7) Uani 1 1 d . .
H10A H 0.4835 0.0398 0.1415 0.076 Uiso 1 1 calc R U
H10B H 0.6390 0.0979 0.0494 0.076 Uiso 1 1 calc R U
C3 C 0.7570(4) 0.3583(4) 0.3414(3) 0.0715(8) Uani 1 1 d . .
H3 H 0.8104 0.4065 0.3926 0.086 Uiso 1 1 calc R U
C1 C 0.7600(4) 0.2794(4) 0.1599(3) 0.0650(7) Uani 1 1 d . .
H1 H 0.8190 0.2739 0.0866 0.078 Uiso 1 1 calc R U
C2 C 0.8365(4) 0.3565(4) 0.2339(3) 0.0723(8) Uani 1 1 d . .
H2 H 0.9414 0.4063 0.2095 0.087 Uiso 1 1 calc R U
C8 C 0.3472(4) 0.1511(3) 0.3307(2) 0.0608(6) Uani 1 1 d . .
H8 H 0.2935 0.1044 0.2788 0.073 Uiso 1 1 calc R U
C7 C 0.2649(5) 0.1571(4) 0.4388(3) 0.0752(8) Uani 1 1 d . .
H7 H 0.1533 0.1151 0.4599 0.090 Uiso 1 1 calc R U
C5 C 0.5052(5) 0.2866(4) 0.4899(3) 0.0749(8) Uani 1 1 d . .
H5 H 0.5586 0.3290 0.5444 0.090 Uiso 1 1 calc R U
C6 C 0.3437(5) 0.2245(4) 0.5190(3) 0.0828(10) Uani 1 1 d . .
H6 H 0.2848 0.2266 0.5926 0.099 Uiso 1 1 calc R U
loop_
_atom_site_aniso_label
_atom_site_aniso_U_11
_atom_site_aniso_U_22
_atom_site_aniso_U_33
_atom_site_aniso_U_23
_atom_site_aniso_U_13
_atom_site_aniso_U_12
P1 0.0623(5) 0.0552(4) 0.0485(4) -0.0107(3) -0.0017(3) -0.0207(3)
F5 0.144(2) 0.0800(13) 0.1008(15) 0.0248(12) 0.0017(13) -0.0260(13)
N1 0.0531(11) 0.0453(10) 0.0522(10) -0.0138(8) -0.0001(8) -0.0095(8)
F2 0.147(2) 0.1289(18) 0.1060(15) -0.0719(14) 0.0383(13) -0.0726(16)
F3 0.177(3) 0.0961(17) 0.0978(16) 0.0236(13) 0.0224(15) -0.0374(16)
F4 0.174(3) 0.136(2) 0.1092(17) -0.0811(17) 0.0400(16) -0.0620(18)
F1 0.0691(14) 0.186(3) 0.1212(17) -0.0326(18) 0.0011(12) -0.0402(15)
F6 0.0702(13) 0.176(2) 0.0988(15) -0.0298(16) -0.0136(10) -0.0302(14)
C9 0.0500(12) 0.0389(11) 0.0483(11) -0.0079(9) -0.0032(9) -0.0037(9)
C4 0.0574(14) 0.0433(12) 0.0552(13) -0.0141(10) -0.0107(10) 0.0008(10)
C11 0.087(2) 0.0775(19) 0.0704(17) -0.0276(15) -0.0207(15) -0.0101(16)
C10 0.0786(18) 0.0554(14) 0.0591(15) -0.0253(12) -0.0036(12) -0.0123(13)
C3 0.0631(17) 0.0617(16) 0.095(2) -0.0285(15) -0.0203(15) -0.0112(13)
C1 0.0603(16) 0.0620(16) 0.0695(16) -0.0118(13) 0.0104(12) -0.0144(12)
C2 0.0506(15) 0.0688(17) 0.102(2) -0.0203(16) 0.0039(14) -0.0206(13)
C8 0.0586(15) 0.0514(14) 0.0690(16) -0.0040(12) -0.0007(12) -0.0145(11)
C7 0.0672(17) 0.0646(17) 0.0781(19) 0.0054(15) 0.0156(14) -0.0098(14)
C5 0.095(2) 0.0618(17) 0.0562(15) -0.0180(13) -0.0137(14) 0.0075(15)
C6 0.095(2) 0.0720(19) 0.0569(16) -0.0008(14) 0.0158(15) 0.0057(17)
loop_
_atom_type_symbol
_atom_type_description
_atom_type_scat_dispersion_real
_atom_type_scat_dispersion_imag
_atom_type_scat_source
C C 0.0033 0.0016 'International Tables Vol C Tables 4.2.6.8 and 6.1.1.4'
H H 0.0000 0.0000 'International Tables Vol C Tables 4.2.6.8 and 6.1.1.4'
F F 0.0171 0.0103 'International Tables Vol C Tables 4.2.6.8 and 6.1.1.4'
P P 0.1023 0.0942 'International Tables Vol C Tables 4.2.6.8 and 6.1.1.4'
N N 0.0061 0.0033 'International Tables Vol C Tables 4.2.6.8 and 6.1.1.4'
loop_
_geom_angle_atom_site_label_1
_geom_angle_atom_site_label_2
_geom_angle_atom_site_label_3
_geom_angle
F5 P1 F4 91.45(14)
F5 P1 F1 92.47(15)
F4 P1 F1 91.77(15)
F5 P1 F3 178.85(13)
F4 P1 F3 89.69(15)
F1 P1 F3 87.34(16)
F5 P1 F6 88.36(14)
F4 P1 F6 90.36(14)
F1 P1 F6 177.69(14)
F3 P1 F6 91.79(15)
F5 P1 F2 88.94(14)
F4 P1 F2 179.00(15)
F1 P1 F2 89.13(14)
F3 P1 F2 89.92(14)
F6 P1 F2 88.73(14)
C1 N1 C9 120.7(2)
C1 N1 C10 118.1(2)
C9 N1 C10 121.1(2)
N1 C9 C8 121.8(2)
N1 C9 C4 118.7(2)
C8 C9 C4 119.4(2)
C5 C4 C3 123.1(3)
C5 C4 C9 118.7(3)
C3 C4 C9 118.2(2)
C10 C11 H11A 109.5
C10 C11 H11B 109.5
H11A C11 H11B 109.5
C10 C11 H11C 109.5
H11A C11 H11C 109.5
H11B C11 H11C 109.5
N1 C10 C11 111.3(2)
N1 C10 H10A 109.4
C11 C10 H10A 109.4
N1 C10 H10B 109.4
C11 C10 H10B 109.4
H10A C10 H10B 108.0
C2 C3 C4 120.9(3)
C2 C3 H3 119.5
C4 C3 H3 119.5
N1 C1 C2 122.4(3)
N1 C1 H1 118.8
C2 C1 H1 118.8
C3 C2 C1 119.0(3)
C3 C2 H2 120.5
C1 C2 H2 120.5
C7 C8 C9 119.3(3)
C7 C8 H8 120.4
C9 C8 H8 120.4
C8 C7 C6 121.7(3)
C8 C7 H7 119.2
C6 C7 H7 119.2
C6 C5 C4 120.8(3)
C6 C5 H5 119.6
C4 C5 H5 119.6
C5 C6 C7 120.1(3)
C5 C6 H6 120.0
C7 C6 H6 120.0
loop_
_geom_bond_atom_site_label_1
_geom_bond_atom_site_label_2
_geom_bond_distance
P1 F5 1.560(2)
P1 F4 1.5670(19)
P1 F1 1.571(2)
P1 F3 1.572(2)
P1 F6 1.575(2)
P1 F2 1.5821(19)
N1 C1 1.324(3)
N1 C9 1.379(3)
N1 C10 1.489(3)
C9 C8 1.411(3)
C9 C4 1.414(3)
C4 C5 1.409(4)
C4 C3 1.410(4)
C11 C10 1.505(4)
C11 H11A 0.9600
C11 H11B 0.9600
C11 H11C 0.9600
C10 H10A 0.9700
C10 H10B 0.9700
C3 C2 1.342(4)
C3 H3 0.9300
C1 C2 1.383(4)
C1 H1 0.9300
C2 H2 0.9300
C8 C7 1.358(4)
C8 H8 0.9300
C7 C6 1.394(5)
C7 H7 0.9300
C5 C6 1.350(5)
C5 H5 0.9300
C6 H6 0.9300
loop_
_geom_torsion_atom_site_label_1
_geom_torsion_atom_site_label_2
_geom_torsion_atom_site_label_3
_geom_torsion_atom_site_label_4
_geom_torsion
C1 N1 C9 C8 178.2(2)
C10 N1 C9 C8 -0.3(3)
C1 N1 C9 C4 -1.9(3)
C10 N1 C9 C4 179.5(2)
N1 C9 C4 C5 -177.9(2)
C8 C9 C4 C5 1.9(3)
N1 C9 C4 C3 2.5(3)
C8 C9 C4 C3 -177.7(2)
C1 N1 C10 C11 -93.5(3)
C9 N1 C10 C11 85.1(3)
C5 C4 C3 C2 180.0(3)
C9 C4 C3 C2 -0.4(4)
C9 N1 C1 C2 -0.7(4)
C10 N1 C1 C2 178.0(2)
C4 C3 C2 C1 -2.1(4)
N1 C1 C2 C3 2.7(4)
N1 C9 C8 C7 179.5(2)
C4 C9 C8 C7 -0.3(4)
C9 C8 C7 C6 -0.8(4)
C3 C4 C5 C6 177.1(3)
C9 C4 C5 C6 -2.5(4)
C4 C5 C6 C7 1.4(5)
C8 C7 C6 C5 0.3(5)
