#------------------------------------------------------------------------------
#$Date: 2019-11-24 04:06:51 +0200 (Sun, 24 Nov 2019) $
#$Revision: 236630 $
#$URL: file:///home/coder/svn-repositories/cod/cif/1/55/41/1554139.cif $
#------------------------------------------------------------------------------
#
# This file is available in the Crystallography Open Database (COD),
# http://www.crystallography.net/
#
# All data on this site have been placed in the public domain by the
# contributors.
#
data_1554139
loop_
_publ_author_name
'Luo, Binbin'
'Guo, Yan'
'Li, Xianli'
'Xiao, Yonghong'
'Huang, Xiaochun'
'Zhang, Jin Z.'
_publ_section_title
;
 Efficient Trap-Mediated Mn2+ Dopant Emission in Two Dimensional
 Single-Layered Perovskite (CH3CH2NH3)2PbBr4
;
_journal_issue                   23
_journal_name_full               'The Journal of Physical Chemistry C'
_journal_page_first              14239
_journal_paper_doi               10.1021/acs.jpcc.9b02649
_journal_volume                  123
_journal_year                    2019
_chemical_formula_moiety         '0.5(Br8 Pb2), 2(C2 H8 N)'
_chemical_formula_sum            'C4 H16 Br4 N2 Pb'
_chemical_formula_weight         619.02
_space_group_crystal_system      monoclinic
_space_group_IT_number           14
_space_group_name_Hall           '-P 2ybc'
_space_group_name_H-M_alt        'P 1 21/c 1'
_atom_sites_solution_hydrogens   mixed
_atom_sites_solution_primary     dual
_audit_creation_date             2018-07-04
_audit_creation_method
;
Olex2 1.2-beta
(compiled 2018.05.29 svn.r3508 for OlexSys, GUI svn.r5506)
;
_cell_angle_alpha                90
_cell_angle_beta                 108.855(2)
_cell_angle_gamma                90
_cell_formula_units_Z            2
_cell_length_a                   11.7549(2)
_cell_length_b                   8.23736(12)
_cell_length_c                   8.16994(15)
_cell_measurement_reflns_used    2503
_cell_measurement_temperature    298
_cell_measurement_theta_max      73.9180
_cell_measurement_theta_min      6.6950
_cell_volume                     748.64(2)
_computing_cell_refinement       'CrysAlisPro 1.171.39.28b (Rigaku OD, 2015)'
_computing_data_collection       'CrysAlisPro 1.171.39.28b (Rigaku OD, 2015)'
_computing_data_reduction        'CrysAlisPro 1.171.39.28b (Rigaku OD, 2015)'
_computing_molecular_graphics    'Olex2 (Dolomanov et al., 2009)'
_computing_publication_material  'Olex2 (Dolomanov et al., 2009)'
_computing_structure_refinement  'XL (Sheldrick, 2008)'
_computing_structure_solution    'ShelXT (Sheldrick, 2015)'
_diffrn_ambient_temperature      298
_diffrn_detector                 'CCD plate'
_diffrn_measured_fraction_theta_full 1.000
_diffrn_measured_fraction_theta_max 0.959
_diffrn_measurement_details
;
List of Runs (angles in degrees, time in seconds):

  # Type    Start    End  Width  t~exp~   \w     \q     \k     \f   Frames
--------------------------------------------------------------------------
  1  \w    -11.00  15.00   0.50    0.50    --    0.00  26.00  77.00   52
  2  \w     -5.00  72.00   0.50    0.50    --    0.00  57.00 -90.00  154
  3  \w     43.00  88.00   0.50    0.50    --    0.00  38.00-180.00   90
  4  \w     -6.00  20.00   0.50    0.50    --    0.00  38.00-180.00   52
  5  \w     70.00 112.00   0.50    0.50    --   95.80 -15.00 120.00   84
  6  \w     44.00 114.00   0.50    0.50    --   95.80 -61.00 120.00  140
  7  \w     85.00 170.00   0.50    0.50    --   95.80  30.00 120.00  170
  8  \w     36.00  62.00   0.50    0.50    --   95.80 -15.00 120.00   52
  9  \w     76.00 118.00   0.50    0.50    --   95.80 -61.00-120.00   84
 10  \w      6.00  68.00   0.50    0.50    --   95.80 -61.00-120.00  124
 11  \w     90.00 161.00   0.50    0.50    --   95.80  15.00  30.00  142
 12  \w     46.00 114.00   0.50    0.50    --   95.80 -77.00 120.00  136
;
_diffrn_measurement_device       'four-circle diffractometer'
_diffrn_measurement_device_type  'XtaLAB AFC12 (RINC): Kappa single'
_diffrn_measurement_method       '\w scans'
_diffrn_orient_matrix_type
'CrysAlisPro convention (1999,Acta A55,543-557)'
_diffrn_orient_matrix_UB_11      -0.1058143000
_diffrn_orient_matrix_UB_12      -0.0633656000
_diffrn_orient_matrix_UB_13      0.0543516000
_diffrn_orient_matrix_UB_21      0.0800765000
_diffrn_orient_matrix_UB_22      0.0034878000
_diffrn_orient_matrix_UB_23      0.1910203000
_diffrn_orient_matrix_UB_31      -0.0396994000
_diffrn_orient_matrix_UB_32      0.1759359000
_diffrn_orient_matrix_UB_33      0.0157197000
_diffrn_radiation_monochromator  graphite
_diffrn_radiation_probe          x-ray
_diffrn_radiation_type           CuK\a
_diffrn_radiation_wavelength     1.54184
_diffrn_reflns_av_R_equivalents  0.0301
_diffrn_reflns_av_unetI/netI     0.0288
_diffrn_reflns_Laue_measured_fraction_full 1.000
_diffrn_reflns_Laue_measured_fraction_max 0.959
_diffrn_reflns_limit_h_max       14
_diffrn_reflns_limit_h_min       -13
_diffrn_reflns_limit_k_max       10
_diffrn_reflns_limit_k_min       -5
_diffrn_reflns_limit_l_max       6
_diffrn_reflns_limit_l_min       -10
_diffrn_reflns_number            3319
_diffrn_reflns_point_group_measured_fraction_full 1.000
_diffrn_reflns_point_group_measured_fraction_max 0.959
_diffrn_reflns_theta_full        67.684
_diffrn_reflns_theta_max         74.375
_diffrn_reflns_theta_min         3.974
_diffrn_source                   'fine-focus sealed X-ray tube'
_diffrn_source_type              'Enhance (Cu) X-ray Source'
_exptl_absorpt_coefficient_mu    34.119
_exptl_absorpt_correction_T_max  1.00000
_exptl_absorpt_correction_T_min  0.19227
_exptl_absorpt_correction_type   multi-scan
_exptl_absorpt_process_details
;
CrysAlisPro 1.171.39.28b (Rigaku Oxford Diffraction, 2015)
Empirical absorption correction using spherical harmonics,
 implemented in SCALE3 ABSPACK scaling algorithm.
;
_exptl_crystal_colour            'clear light colourless'
_exptl_crystal_colour_lustre     clear
_exptl_crystal_colour_modifier   light
_exptl_crystal_colour_primary    colourless
_exptl_crystal_density_diffrn    2.746
_exptl_crystal_description       block
_exptl_crystal_F_000             552
_exptl_crystal_recrystallization_method 'slowly cooling to room temperature'
_exptl_crystal_size_max          0.2
_exptl_crystal_size_mid          0.1
_exptl_crystal_size_min          0.05
_refine_diff_density_max         2.217
_refine_diff_density_min         -2.572
_refine_diff_density_rms         0.234
_refine_ls_extinction_coef       0.0094(6)
_refine_ls_extinction_expression Fc^*^=kFc[1+0.001xFc^2^\l^3^/sin(2\q)]^-1/4^
_refine_ls_extinction_method     'SHELXL-2018/3 (Sheldrick 2018)'
_refine_ls_goodness_of_fit_ref   1.055
_refine_ls_hydrogen_treatment    constr
_refine_ls_matrix_type           full
_refine_ls_number_parameters     83
_refine_ls_number_reflns         1467
_refine_ls_number_restraints     71
_refine_ls_restrained_S_all      1.033
_refine_ls_R_factor_all          0.0475
_refine_ls_R_factor_gt           0.0460
_refine_ls_shift/su_max          0.000
_refine_ls_shift/su_mean         0.000
_refine_ls_structure_factor_coef Fsqd
_refine_ls_weighting_details
'w=1/[\s^2^(Fo^2^)+(0.1049P)^2^+0.0472P] where P=(Fo^2^+2Fc^2^)/3'
_refine_ls_weighting_scheme      calc
_refine_ls_wR_factor_gt          0.1313
_refine_ls_wR_factor_ref         0.1333
_reflns_Friedel_coverage         0.000
_reflns_number_gt                1356
_reflns_number_total             1467
_reflns_threshold_expression     'I > 2\s(I)'
_cod_data_source_file            jp9b02649_si_002.cif
_cod_data_source_block           180504g
_cod_database_code               1554139
_shelx_shelxl_version_number     2018/3
_chemical_oxdiff_formula         'C H N Pb Br'
_shelx_space_group_comment
;
The symmetry employed for this shelxl refinement is uniquely defined
by the following loop, which should always be used as a source of
symmetry information in preference to the above space-group names.
They are only intended as comments.
;
_shelx_estimated_absorpt_t_max   0.280
_shelx_estimated_absorpt_t_min   0.056
_reflns_odcompleteness_completeness 100.00
_reflns_odcompleteness_iscentric 1
_reflns_odcompleteness_theta     66.97
_olex2_refinement_description
;
1. Fixed Uiso
 At 1.2 times of:
  All C(H,H) groups, All N(H,H,H) groups
 At 1.5 times of:
  All C(H,H,H) groups
2. Restrained distances
 C2B-C1B
 1.53 with sigma of 0.02
 N1B-C1B
 1.47 with sigma of 0.02
 C2B-N1B
 2.6 with sigma of 0.02
 N1A-C1A
 1.47 with sigma of 0.02
 C2A-C1A
 1.53 with sigma of 0.02
3. Rigid bond restraints
 N1B, C1B, C2B
 with sigma for 1-2 distances of 0.01 and sigma for 1-3 distances of 0.01
 N1A, C1A, C2A
 with sigma for 1-2 distances of 0.01 and sigma for 1-3 distances of 0.01
4. Uiso/Uaniso restraints and constraints
N1B \\sim C1B \\sim C2B: within 2A with sigma of 0.04 and sigma for terminal
atoms of 0.08
N1A \\sim C1A \\sim C2A: within 2A with sigma of 0.04 and sigma for terminal
atoms of 0.08
Uanis(N1B) \\sim Ueq, Uanis(C1B) \\sim Ueq, Uanis(C2B) \\sim Ueq: with sigma of
0.1 and sigma for terminal atoms of 0.2
Uanis(C2A) \\sim Ueq, Uanis(C1A) \\sim Ueq, Uanis(N1A) \\sim Ueq: with sigma of
0.1 and sigma for terminal atoms of 0.2
5. Others
 Fixed Sof: N1B(0.6) H1BA(0.6) H1BB(0.6) H1BC(0.6) C1B(0.6) H1BD(0.6)
 H1BE(0.6) C2B(0.6) H2BA(0.6) H2BB(0.6) H2BC(0.6) C2A(0.4) H2AA(0.4) H2AB(0.4)
 H2AC(0.4) C1A(0.4) H1AA(0.4) H1AB(0.4) N1A(0.4) H1AC(0.4) H1AD(0.4) H1AE(0.4)
6.a Riding coordinates:
 C2A(H2AA,H2AB,H2AC)
6.b Secondary CH2 refined with riding coordinates:
 C1B(H1BD,H1BE), C1A(H1AA,H1AB)
6.c Idealised Me refined as rotating group:
 N1B(H1BA,H1BB,H1BC), C2B(H2BA,H2BB,H2BC), N1A(H1AC,H1AD,H1AE)
;
_shelx_res_file
;
TITL 180504g_a.res in P2(1)/c
    180504g.res
    created by SHELXL-2018/3 at 16:35:22 on 04-Jul-2018
REM Old TITL 180504g_a.res in P2(1)/c
REM SHELXT solution in P2(1)/c: R1 0.193, Rweak 0.005, Alpha 0.010
REM <I/s> 0.987 for 112 systematic absences, Orientation as input
REM Formula found by SHELXT: Br4 N2 Pb
CELL 1.54184 11.754903 8.237365 8.169941 90 108.855 90
ZERR 2 0.000223 0.000116 0.000147 0 0.002 0
LATT 1
SYMM -X,0.5+Y,0.5-Z
SFAC C H Br N Pb
UNIT 8 32 8 4 2
DFIX 1.53 C2B C1B
DFIX 1.47 N1B C1B
DFIX 2.6 C2B N1B
DFIX 1.47 N1A C1A
DFIX 1.53 C2A C1A
DELU N1B C1B C2B
DELU N1A C1A C2A
SIMU N1B C1B C2B
SIMU N1A C1A C2A
ISOR N1B C1B C2B
ISOR C2A C1A N1A

L.S. 40
PLAN  20
SIZE 0.2 0.1 0.05
TEMP 24.85
BOND
list 4
fmap 2 53
acta
REM <olex2.extras>
REM <HklSrc "%.\\180504G.hkl">
REM </olex2.extras>

WGHT    0.104900    0.047200
EXTI    0.009419
FVAR       0.51773
PART 1
PB1   5    0.500000    0.500000    0.500000    10.50000    0.08181    0.03798 =
         0.04262    0.00007    0.02147   -0.00171
PART 0
BR1   3    0.454683    0.798852    0.679296    11.00000    0.11640    0.05920 =
         0.06324   -0.02302    0.03660   -0.00221
BR2   3    0.760821    0.575595    0.591366    11.00000    0.08708    0.09625 =
         0.10198   -0.01199    0.01551   -0.00234

PART 1
N1B   4    0.721038    0.960994    0.650141    10.60000    0.13613    0.10347 =
         0.17761    0.02128    0.08455   -0.02400
AFIX 137
H1BA  2    0.666635    1.038362    0.607670    10.60000   -1.20000
H1BB  2    0.732234    0.948449    0.762467    10.60000   -1.20000
H1BC  2    0.695121    0.868083    0.595123    10.60000   -1.20000
AFIX   0

C1B   1    0.834483    1.007093    0.625790    10.60000    0.13676    0.16663 =
         0.17403    0.00492    0.08039   -0.04061
AFIX  23
H1BD  2    0.819419    1.014641    0.502090    10.60000   -1.20000
H1BE  2    0.889637    0.917212    0.667064    10.60000   -1.20000
AFIX   0

C2B   1    0.900153    1.158226    0.704842    10.60000    0.11516    0.14139 =
         0.26318    0.03601    0.02970   -0.02257
AFIX 137
H2BA  2    0.855246    1.251537    0.649075    10.60000   -1.50000
H2BB  2    0.977965    1.159317    0.690221    10.60000   -1.50000
H2BC  2    0.909364    1.160749    0.825930    10.60000   -1.50000
AFIX   0

PART 0
PART 2
C2A   1    0.902323    1.056186    0.570154    10.40000    0.11287    0.17544 =
         0.11369   -0.02762    0.04879   -0.05701
AFIX   3
H2AA  2    0.884173    0.953026    0.512934    10.40000   -1.50000
H2AB  2    0.987903    1.070896    0.613624    10.40000   -1.50000
H2AC  2    0.866793    1.141286    0.489574    10.40000   -1.50000
AFIX   0
C1A   1    0.847319    1.069740    0.712641    10.40000    0.12616    0.09035 =
         0.10544   -0.02814    0.04691   -0.02744
AFIX  23
H1AA  2    0.902310    1.025047    0.818581    10.40000   -1.20000
H1AB  2    0.834452    1.183265    0.732883    10.40000   -1.20000
AFIX   0
N1A   4    0.732779    0.982942    0.667674    10.40000    0.09956    0.06177 =
         0.07449    0.01054    0.03584    0.00000
AFIX 137
H1AC  2    0.682343    1.023701    0.570316    10.40000   -1.20000
H1AD  2    0.701381    0.994188    0.752627    10.40000   -1.20000
H1AE  2    0.744917    0.878121    0.652718    10.40000   -1.20000
AFIX   0
HKLF 4




REM  180504g_a.res in P2(1)/c
REM wR2 = 0.1333, GooF = S = 1.055, Restrained GooF = 1.033 for all data
REM R1 = 0.0460 for 1356 Fo > 4sig(Fo) and 0.0475 for all 1467 data
REM 83 parameters refined using 71 restraints

END

WGHT      0.1053      0.0585

REM Highest difference peak  2.217,  deepest hole -2.572,  1-sigma level  0.234
Q1    1   0.4966  0.5012  0.6221  11.00000  0.05    2.22
Q2    1   0.7580  0.5802  0.7009  11.00000  0.05    1.11
Q3    1   0.4594  0.7923  0.5635  11.00000  0.05    1.02
Q4    1   0.5175  0.7581  0.7350  11.00000  0.05    0.95
Q5    1   0.4100  0.5519  0.4585  11.00000  0.05    0.91
Q6    1   0.5923  0.5522  0.5410  11.00000  0.05    0.90
Q7    1   0.5021  0.3757  0.5022  11.00000  0.05    0.71
Q8    1   0.7581  0.6468  0.4959  11.00000  0.05    0.63
Q9    1   0.5423  0.8523  0.6976  11.00000  0.05    0.61
Q10   1   0.7622  0.5611  0.4412  11.00000  0.05    0.56
Q11   1   0.4877  1.0013  0.6530  11.00000  0.05    0.52
Q12   1   0.4580  0.8374  0.7991  11.00000  0.05    0.52
Q13   1   0.7247  1.2585  0.5123  11.00000  0.05    0.46
Q14   1   0.4444  0.7671  0.8033  11.00000  0.05    0.44
Q15   1   0.7753  1.0907  0.6446  11.00000  0.05    0.44
Q16   1   0.3381  0.8518  0.6236  11.00000  0.05    0.42
Q17   1   0.7796  0.5049  0.5688  11.00000  0.05    0.41
Q18   1   0.3182  0.8241  0.6092  11.00000  0.05    0.41
Q19   1   0.7375  0.9639  0.6139  11.00000  0.05    0.41
Q20   1   0.7395  1.1756  0.5458  11.00000  0.05    0.40
;
_shelx_res_checksum              59867
_shelx_hkl_file
;
  -1   0   0 3572.62   80.85
  -2   0   0 1911.44   45.08
  -3   0   0 6809.77  156.92
  -3   0   0 7069.66  157.48
  -4   0   0 9640.67  221.12
   4   0   0 9999.00  221.66
  -4   0   0 9689.67  220.97
   5   0   0 2930.55   69.69
  -5   0   0 2890.67   69.45
  -5   0   0 2916.38   69.40
  -6   0   0   53.52    3.80
   6   0   0   61.69    4.09
  -6   0   0   53.84    3.86
  -6   0   0   53.22    4.26
  -6   0   0   52.41    4.30
  -7   0   0 1197.12   31.91
   7   0   0 1192.90   31.68
  -7   0   0 1129.54   33.34
  -7   0   0 1218.48   32.03
  -8   0   0 1249.77   36.19
  -9   0   0   17.87    3.25
  -9   0   0   21.14    2.94
 -10   0   0    4.13    1.55
 -10   0   0    3.12    1.87
 -11   0   0  106.43    6.25
 -11   0   0  130.34    8.66
 -12   0   0   77.06    5.82
 -13   0   0    3.35    1.17
   0   1   0    0.13    0.24
   1  -1   0   64.03    2.04
  -1   1   0   70.76    2.13
  -2   1   0  599.93   14.44
   2  -1   0  596.91   14.44
  -3   1   0 3088.73   71.84
  -3  -1   0 3074.70   73.98
  -3   1   0 3210.13   71.69
  -4   1   0  888.58   25.46
  -4   1   0  929.07   25.48
  -5   1   0  182.11    6.73
  -5  -1   0  198.91    8.54
  -5   1   0  176.84    7.09
   5  -1   0  200.76    6.99
  -5  -1   0  161.34    8.09
  -6   1   0  964.78   28.67
  -6   1   0 1004.91   26.19
  -6   1   0 1031.44   27.31
   6  -1   0 1004.66   26.07
  -6   1   0  956.13   28.41
  -6  -1   0  969.86   27.73
  -6  -1   0 1069.20   28.80
  -7   1   0  760.99   23.44
  -7   1   0  721.57   23.18
  -7  -1   0  744.54   22.03
  -8   1   0   49.67    4.83
  -8  -1   0   45.72    4.08
  -9  -1   0    0.27    1.63
  -9   1   0   -0.12    1.32
 -10   1   0   17.44    3.29
 -10  -1   0   19.67    3.59
 -10   1   0   15.20    2.76
 -11   1   0    6.35    2.23
 -11   1   0    6.59    1.94
 -11  -1   0    7.18    2.73
 -12   1   0    7.04    1.52
 -12  -1   0    9.25    2.49
 -12   1   0    5.52    1.84
 -13  -1   0    3.38    1.20
   0   2   0 2685.50   60.96
   1  -2   0  351.88    8.04
   1  -2   0  322.65    8.30
   1   2   0  333.17    7.94
   2   2   0  155.15    6.78
   2  -2   0  164.58    4.86
   3  -2   0 1504.44   35.31
   3   2   0 1467.33   39.15
  -3   2   0 1527.77   35.58
  -4   2   0 3087.48   69.83
  -4  -2   0 3101.09   73.14
   4  -2   0 2914.00   69.49
  -5  -2   0 1527.18   39.35
  -5  -2   0 1440.73   39.01
  -6   2   0  606.30   19.26
  -6  -2   0  566.84   19.25
   6   2   0  618.90   18.93
  -6   2   0  533.55   16.80
  -6  -2   0  608.93   19.76
  -6   2   0  568.40   19.50
   6  -2   0  618.64   18.76
  -7  -2   0 1482.32   41.86
  -7   2   0 1601.63   42.07
  -7   2   0 1574.19   42.89
  -8  -2   0 1562.79   44.06
  -8   2   0 1562.93   44.03
  -8   2   0 1621.93   43.46
  -9  -2   0  487.21   19.06
  -9   2   0  500.79   18.57
 -10   2   0  204.00   10.27
 -10   2   0  189.00   10.18
 -10  -2   0  223.59   11.56
 -11   2   0  215.23   10.25
 -11   2   0  218.01    9.91
 -12   2   0   99.72    5.50
 -12   2   0   87.18    4.78
 -13   2   0   12.87    1.34
   0  -3   0    0.07    1.18
  -1  -3   0 2159.08   53.66
   1  -3   0 2126.59   48.67
   1  -3   0 2160.18   48.11
   2  -3   0  208.63    5.38
   2   3   0  174.48    7.39
   2  -3   0  164.38    5.37
   2   3   0  170.56    4.98
  -2  -3   0  219.38    9.86
  -3  -3   0  638.58   20.05
   3  -3   0  543.93   14.89
   3   3   0  572.20   18.46
   3   3   0  561.55   15.64
   3  -3   0  664.48   16.23
  -4  -3   0  581.43   19.09
   4   3   0  522.48   16.25
   4  -3   0  587.41   16.60
   4  -3   0  550.75   15.13
  -4   3   0  543.54   18.73
   5  -3   0 1965.95   47.50
   5   3   0 1826.16   47.26
  -5   3   0 1822.12   49.38
  -5  -3   0 1902.27   49.30
  -6  -3   0   15.55    2.64
  -6   3   0   12.25    2.62
   6  -3   0   14.91    2.23
  -7  -3   0   77.96    6.02
  -8  -3   0  112.06    7.80
  -9  -3   0  135.29    8.80
 -10  -3   0   16.85    3.25
 -11  -3   0   24.51    3.61
 -11   3   0   18.06    2.99
 -12   3   0    3.12    1.24
 -12  -3   0    4.33    1.62
 -13   3   0    0.33    0.40
  13   3   0    0.48    0.43
 -13  -3   0    1.28    0.72
   0   4   0 2884.86   71.22
   0  -4   0 3101.55   69.58
   0  -4   0 2940.41   71.82
  -1   4   0 3352.44   79.81
   1  -4   0 3347.26   78.21
  -2   4   0 3252.64   76.59
   2  -4   0 3230.80   75.02
   2   4   0 3153.78   77.64
   3   4   0 2285.17   56.43
   3  -4   0 2150.32   51.86
  -3   4   0 2258.16   58.05
  -3   4   0 2112.31   53.00
  -4   4   0 1487.43   41.54
  -5  -4   0 1704.78   45.58
  -5   4   0 1664.90   46.45
  -6   4   0 1293.85   38.30
  -6  -4   0 1300.77   37.39
  -7  -4   0  446.71   17.31
  -7   4   0  441.06   18.24
  -8   4   0  242.03   12.74
  -8  -4   0  222.89   11.88
  -9  -4   0  268.76   12.86
 -10  -4   0  152.03    9.01
 -11   4   0   43.52    4.11
 -11  -4   0   44.82    4.16
  12   4   0   15.84    1.48
 -12  -4   0   18.16    2.06
 -12   4   0   20.27    2.20
   0   5   0    1.65    0.95
   0   5   0    0.25    0.88
   0  -5   0    0.27    0.49
  -1   5   0  322.32   10.69
   1  -5   0  291.43    9.65
   1   5   0  311.33   12.21
  -1   5   0  306.31   11.29
  -2   5   0    6.50    1.25
   2  -5   0    3.93    0.87
  -2  -5   0    2.89    1.67
  -2   5   0    3.88    1.26
  -3   5   0  301.91   13.43
  -3   5   0  243.71    9.66
  -4   5   0    2.31    1.61
  -4   5   0    4.50    1.20
  -5   5   0  129.31    8.78
  -6   5   0   13.90    3.34
  -7   5   0   63.20    6.21
  -7  -5   0   62.04    5.65
  -8  -5   0    3.21    1.74
   8   5   0    4.42    1.88
   9   5   0   11.70    2.17
  -9  -5   0   10.50    2.42
 -10   5   0    5.41    1.92
 -10  -5   0    6.73    1.82
 -11   5   0    3.84    1.36
 -11  -5   0    3.20    0.97
   0   6   0  748.81   24.54
   0   6   0  804.12   23.70
   1   6   0 1674.99   43.45
   1   6   0 1625.36   45.14
  -1   6   0 1523.66   43.27
  -1   6   0 1660.41   42.18
  -2   6   0 2281.70   55.37
  -2   6   0 2315.95   57.35
  -3   6   0  931.86   26.85
  -4   6   0  422.60   17.05
   4   6   0  381.75   17.60
  -5   6   0  903.95   30.13
   5   6   0  935.49   32.57
  -6   6   0  846.57   28.89
   6   6   0  951.68   31.90
   7   6   0  190.23   11.37
   8   6   0   68.70    5.74
   9   6   0  143.66    7.88
   9   6   0  131.20    6.60
  -9   6   0  136.20    7.55
  10   6   0   82.45    4.83
 -10   6   0   82.48    5.00
 -11   6   0   13.79    1.56
   0   7   0    1.26    1.36
   0   7   0    0.13    1.62
  -1   7   0   12.61    2.93
  -1   7   0   22.02    2.94
   1   7   0   15.00    2.95
   1   7   0   13.35    3.20
  -2   7   0   16.45    2.40
   2   7   0   16.79    3.63
   2   7   0   15.69    3.19
  -2   7   0   16.97    2.94
   3   7   0   36.00    4.73
  -3   7   0   31.92    3.68
   4   7   0   56.38    6.87
   4   7   0   50.34    5.79
  -4   7   0   45.62    4.02
   5   7   0   40.56    5.46
   5   7   0   57.40    6.90
   6   7   0   24.90    4.37
   7   7   0    9.96    2.60
   7   7   0    7.39    2.68
  -7   7   0    7.26    1.88
   8   7   0    9.04    2.26
  -8   7   0    8.01    1.75
   8   7   0   10.06    2.06
   9   7   0    4.46    1.45
  -9   7   0    2.32    1.02
   0   8   0   92.42    6.37
   0   8   0   95.03    7.67
  -1   8   0  201.01    9.41
   1   8   0  231.16   12.60
   1   8   0  216.99   10.92
  -1   8   0  218.66   11.52
   2   8   0  345.48   15.17
  -2   8   0  340.83   14.38
   2   8   0  369.99   17.11
   3   8   0  207.10   11.40
  -3   8   0  185.44    9.20
   4   8   0  153.67   10.00
   4   8   0  158.51   10.94
   5   8   0  323.74   15.46
   5   8   0  271.21   13.80
   6   8   0  320.61   14.38
   6   8   0  347.79   14.93
   7   8   0  162.36    8.23
   8   8   0   93.07    5.23
   0   9   0   -0.71    1.59
   1   9   0    1.18    1.85
   1   9   0    0.17    1.04
  -1   9   0    1.33    1.38
  -2   9   0   13.83    2.33
   2   9   0   15.67    2.63
   2   9   0   16.38    3.43
   3   9   0   48.39    5.54
   3   9   0   46.64    4.56
   4   9   0   17.14    2.86
   5   9   0    5.91    1.80
   5   9   0    7.35    2.28
   6   9   0   16.91    2.30
   6   9   0   19.02    2.46
   0  10   0  317.06   11.18
   1  10   0  340.95   12.44
   2  10   0  293.33   11.36
   3  10   0  225.06    9.24
 -13   0   1    4.28    1.48
 -12   0   1   -0.34    1.80
 -12   0   1    0.07    0.92
 -11   0   1    1.81    1.30
 -11   0   1    0.82    2.07
 -10   0   1    0.21    1.18
 -10   0   1    0.58    1.73
  -9   0   1   -0.80    1.87
  -9   0   1    0.11    1.30
  -8   0   1    1.52    1.32
  -8   0   1    0.80    1.50
  -7   0   1    1.64    1.18
  -7   0   1    0.66    0.71
   7   0  -1   -0.14    0.76
  -7   0   1    0.82    1.13
  -7   0   1    0.55    0.65
  -6   0   1    0.87    0.86
  -6   0   1    1.05    0.74
  -5   0   1    0.81    0.89
  -5   0   1    0.13    0.58
   4   0  -1    0.28    0.72
  -4   0   1    0.92    0.87
  -3   0   1    0.25    0.75
   3   0  -1    0.71    0.67
   2   0  -1    1.14    0.51
  -1   0   1    0.94    0.24
   1   0  -1    1.00    0.19
   0   0   1    0.14    0.29
   0   0  -1    0.07    0.29
  -1   0  -1    6.98    0.69
  -2   0  -1    0.98    0.58
  -2   0  -1    0.45    0.97
  -3   0  -1   10.27    1.69
  -4   0  -1    0.13    0.85
  -5   0  -1    0.36    1.02
  -5   0  -1    0.36    0.83
  -5   0  -1    0.77    0.79
  -6   0  -1    0.58    0.92
  -6   0  -1    0.10    1.03
  -6   0  -1   -0.23    0.82
  -6   0  -1   -0.08    0.88
  -7   0  -1    9.79    2.11
  -7   0  -1   -0.45    1.36
  -8   0  -1    0.24    1.59
  -9   0  -1   -0.35    0.96
  -9   0  -1    0.78    1.67
 -10   0  -1    0.24    0.95
 -10   0  -1   -0.13    1.56
 -11   0  -1   -1.20    1.80
 -12   0  -1    0.08    1.06
 -13   0  -1    0.14    0.50
 -13   1   1   17.20    1.89
 -13  -1   1   20.33    2.66
 -12   1   1  170.08    8.95
 -12   1   1  162.04    8.07
 -12  -1   1  190.46   10.04
 -11  -1   1  200.95   11.38
 -11   1   1  186.65    9.69
 -11   1   1  209.96   11.03
 -10   1   1   55.38    5.55
 -10  -1   1   49.44    4.42
 -10   1   1   46.46    4.75
  -9  -1   1  557.64   18.79
  -9   1   1  568.57   20.58
  -8   1   1 2505.42   65.02
  -8  -1   1 2523.84   63.43
  -7  -1   1 1724.08   44.33
   7   1  -1 1793.41   44.91
  -7  -1   1 1831.06   45.23
  -7  -1   1 1727.09   43.27
  -7   1   1 1736.30   46.07
  -6   1   1  399.18   14.36
  -6   1   1  408.37   11.62
  -6  -1   1  359.12   14.04
  -6   1   1  328.14   13.53
  -6  -1   1  410.94   14.06
   6   1  -1  377.96   13.97
   6  -1  -1  383.04   13.91
  -5   1   1 2951.26   66.43
   5  -1  -1 2778.99   69.57
  -5  -1   1 3286.71   70.29
   5   1  -1 2473.18   69.10
   4   1  -1 5161.20  129.33
  -4   1   1 5627.08  126.68
  -4  -1   1 6476.95  131.14
   4  -1  -1 5376.29  127.45
   4  -1  -1 6018.15  130.08
   3  -1  -1 2154.51   49.12
   3  -1  -1 2317.20   50.50
  -3   1   1 2233.27   48.24
   3   1  -1 2057.16   50.11
   2  -1  -1 1488.20   32.31
   2   1  -1 1363.77   32.28
  -2   1   1 1419.85   32.45
  -2  -1   1 1431.50   32.43
  -1  -1   1 3143.26   69.97
   1   1  -1 3010.08   70.43
   0   1  -1 3474.16   78.08
  -1   1  -1 2080.19   48.12
   1  -1   1 2113.26   48.10
  -2   1  -1  232.57    7.04
   2  -1   1  223.26    6.94
  -3   1  -1 3554.43   77.06
   3  -1   1 3395.95   76.35
  -4   1  -1 3334.85   70.84
  -4  -1  -1 3244.37   73.06
  -5   1  -1  112.49    6.47
  -5   1  -1  128.58    5.32
   5   1   1  132.30    7.01
  -5  -1  -1  104.42    6.22
  -5   1  -1  104.92    6.41
  -5   1  -1  109.02    6.03
  -5  -1  -1  125.53    6.73
  -6   1  -1  554.38   17.62
  -6  -1  -1  551.44   18.15
  -6   1  -1  536.63   18.23
  -6   1  -1  531.57   18.24
  -6  -1  -1  546.39   18.00
  -7  -1  -1 1599.78   46.38
  -7   1  -1 1709.49   45.93
  -8   1  -1  690.42   22.90
  -8  -1  -1  668.33   23.42
  -8   1  -1  685.60   22.57
  -9   1  -1   47.78    4.93
  -9  -1  -1   52.87    5.53
 -10   1  -1  130.96    8.26
 -10  -1  -1  137.93    8.89
 -11   1  -1  208.68    9.01
 -11   1  -1  238.55   10.61
 -11  -1  -1  246.10   11.45
 -12  -1  -1   53.31    4.22
 -12   1  -1   47.78    3.57
 -13  -1  -1    4.54    0.97
  14   2  -1    1.26    0.51
 -13   2   1    1.83    0.96
 -13  -2   1    1.80    1.23
 -12   2   1    1.06    1.36
 -12  -2   1    2.46    1.79
 -11   2   1   66.56    5.34
 -11   2   1   70.54    5.87
 -11  -2   1   72.52    6.54
 -10   2   1   25.61    3.73
 -10  -2   1   27.15    4.28
 -10   2   1   26.48    3.69
  -9  -2   1   67.69    6.17
  -9   2   1   68.11    5.93
  -9   2   1   60.87    5.51
  -8  -2   1    3.84    1.88
  -8   2   1    4.61    1.86
  -7   2   1  345.52   14.07
  -7  -2   1  342.63   14.10
   6   2  -1   46.21    3.94
  -6  -2   1   57.49    4.58
   6  -2  -1   50.03    4.05
  -6   2   1   43.26    4.17
  -6  -2   1   50.75    4.62
   6   2  -1   62.40    4.95
  -5  -2   1 1061.67   31.61
   5   2  -1 1031.64   29.73
  -5   2   1 1116.72   26.93
  -5  -2   1 1349.40   32.78
   5  -2  -1 1119.40   30.02
  -5   2   1 1280.07   32.56
   4  -2  -1  203.34    6.24
   4   2  -1  208.25    7.55
  -3  -2   1  108.75    6.51
   3   2  -1  103.27    3.93
   3  -2  -1  101.09    3.38
   3  -2  -1  110.64    4.10
  -2  -2   1 1434.11   36.84
   2  -2  -1 1443.70   32.67
  -1  -2   1 3750.21   83.25
  -1   2   1 3775.77   83.27
   0  -2   1    1.30    0.50
   0  -2  -1    0.91    0.62
  -1   2  -1   35.97    1.99
   1  -2   1   32.32    1.83
  -1  -2  -1   35.85    2.56
  -2   2  -1 1425.86   34.00
   2  -2   1 1418.63   33.84
  -3   2  -1  543.49   15.09
   3  -2   1  525.43   14.51
   4   2   1  370.42   13.35
  -4   2  -1  361.54   11.25
  -4   2  -1  296.12   12.46
  -4  -2  -1  299.37   12.50
   4  -2   1  328.70   10.48
  -5   2  -1  366.76   12.47
  -5  -2  -1  340.73   13.27
  -5  -2  -1  323.68   13.16
  -5   2  -1  339.34   13.71
  -5   2  -1  307.99   11.49
  -5  -2  -1  347.15   12.70
  -6  -2  -1   85.01    6.23
  -6   2  -1   93.48    6.66
  -6   2  -1   90.70    5.47
  -6   2  -1   87.54    5.66
  -7   2  -1    2.28    1.35
  -7  -2  -1    3.81    1.98
  -7   2  -1    1.08    1.46
  -8   2  -1  313.92   14.16
  -8   2  -1  326.81   13.25
  -8  -2  -1  311.59   14.14
  -9   2  -1   50.86    5.10
  -9   2  -1   48.99    4.65
  -9  -2  -1   49.52    5.40
 -10   2  -1   16.88    2.72
 -11   2  -1    0.23    1.14
 -11   2  -1    0.84    0.99
 -12   2  -1   10.10    1.47
  13   3  -1   25.65    2.14
 -13   3   1   24.75    2.30
 -13  -3   1   27.06    2.53
 -12  -3   1   52.12    4.58
 -12   3   1   58.24    4.62
 -11   3   1   92.68    6.83
 -11  -3   1   99.90    7.18
 -10  -3   1   83.71    6.94
 -10   3   1   73.43    6.44
  -9  -3   1  124.14    8.60
  -9   3   1  110.79    6.97
  -8   3   1  283.20   12.33
  -8  -3   1  304.57   13.64
  -7  -3   1  297.60   13.24
  -7   3   1  300.39   13.23
   6  -3  -1  165.95    7.66
  -6   3   1  204.37    9.96
  -6  -3   1  191.72    9.74
   6   3  -1  157.40    7.45
   5   3  -1  412.73   13.70
  -5  -3   1  437.55   16.53
  -5  -3   1  550.75   18.18
  -5   3   1  510.40   17.61
   5  -3  -1  462.31   14.34
   4  -3  -1 1315.62   31.30
   4  -3  -1 1335.32   30.75
  -4   3   1 1336.33   37.10
  -3  -3   1 1644.47   45.55
   3  -3  -1 1733.27   39.39
   3  -3  -1 1731.63   38.91
   3  -3  -1 1642.35   38.46
  -2  -3   1 2339.39   54.49
   2  -3  -1 2186.56   48.83
  -1  -3   1 3122.36   70.95
  -1  -3   1 3292.19   72.08
   0  -3   1 4073.29   89.05
   0  -3   1 3947.79   87.04
   0  -3   1 4002.40   88.12
   0   3   1 3854.68   87.04
   1  -3   1 4664.93  105.92
   2  -3   1 5002.48  113.80
   3  -3   1 4356.80   98.80
  -3   3  -1 4198.60  102.90
  -4   3  -1 3347.58   79.39
   4  -3   1 3416.81   78.63
  -4   3  -1 3316.17   83.49
  -4   3  -1 3331.49   78.97
  -4  -3  -1 3362.87   82.40
  -5  -3  -1 2280.82   57.04
  -5   3  -1 2351.38   58.65
  -6  -3  -1 1781.85   48.26
  -7   3  -1 1195.44   36.10
  -7  -3  -1 1142.57   34.44
  -8   3  -1  481.33   19.03
  -8  -3  -1  444.31   17.69
  -9   3  -1  179.47   10.34
  -9  -3  -1  181.31   10.21
 -10  -3  -1  117.54    7.83
 -11  -3  -1   52.46    4.71
 -11   3  -1   43.22    3.75
 -12   3  -1   13.72    1.61
 -12  -3  -1   18.41    2.24
 -13   4   1    8.36    1.19
  12   4  -1    5.67    1.15
 -12   4   1    6.40    1.73
 -12  -4   1    5.00    1.38
 -11  -4   1    2.33    1.55
 -10   4   1    9.96    2.75
 -10  -4   1    7.68    2.30
  -9  -4   1  161.41    9.94
  -8  -4   1    9.79    2.65
  -7  -4   1  236.60   11.80
  -6  -4   1   27.59    3.67
  -6   4   1   39.68    4.50
  -5   4   1   42.73    4.53
  -4  -4   1  721.24   24.74
  -4   4   1  654.45   23.31
   3   4  -1 2490.74   58.11
   3  -4  -1 2329.25   51.49
  -3  -4   1 2005.41   57.75
   3   4  -1 2216.16   56.85
  -3   4   1 1867.24   56.61
   2   4  -1  611.15   18.09
   2  -4  -1  557.64   14.59
  -2  -4   1  605.55   18.68
   2   4  -1  556.96   18.16
  -1  -4   1  104.60    4.91
   1  -4  -1   89.60    3.85
   1   4  -1   94.46    4.93
  -1  -4   1  100.84    4.74
   1   4  -1   98.89    4.62
   0   4  -1 1878.70   46.06
   0  -4   1 1866.53   45.38
   0   4  -1 1957.87   44.10
   0   4  -1 1809.29   46.74
  -1   4  -1 1802.45   44.94
   1  -4   1 1798.14   43.42
  -1   4  -1 1850.55   44.23
  -2   4  -1    2.79    1.07
   2  -4   1    2.76    0.82
  -2   4  -1    3.56    1.04
  -3   4  -1   50.53    3.63
   3  -4   1   49.69    3.09
  -3  -4  -1   55.27    5.47
  -3   4  -1   51.40    3.33
  -3   4  -1   49.02    5.03
  -4   4  -1  173.71    7.65
   4  -4   1  180.66    7.26
  -5   4  -1    7.07    2.51
  -5  -4  -1    7.75    2.20
  -6  -4  -1  463.71   17.86
  -6   4  -1  474.39   19.45
  -7   4  -1  217.94   12.30
  -7  -4  -1  198.33   10.76
  -8  -4  -1    0.38    1.53
  -9  -4  -1   16.11    3.03
 -10  -4  -1   81.40    6.00
 -11  -4  -1    7.59    1.76
 -11   4  -1    8.65    1.75
 -12  -4  -1    1.66    0.71
 -12   4  -1    1.60    0.64
 -12   5   1   13.56    1.76
 -11   5   1   76.85    5.28
  10   5  -1  275.85   11.24
 -10  -5   1  280.47   11.46
 -10   5   1  299.70   12.93
  -9  -5   1  358.22   14.12
  -9   5   1  356.83   14.77
   8   5  -1  467.64   17.28
  -8  -5   1  465.70   17.77
   7   5  -1 1445.04   42.22
   6   5  -1 2431.75   65.61
   5   5  -1 1694.87   49.19
  -5   5   1 1762.12   48.60
   4   5  -1 1336.70   39.30
  -4   5   1 1296.11   38.17
  -3   5   1 2516.78   60.16
   3   5  -1 2455.04   64.68
   2   5  -1 2688.27   66.80
   2   5  -1 2473.70   67.82
   1   5  -1  792.82   22.99
  -1   5   1  857.21   23.46
  -1   5   1  802.57   21.68
   1  -5  -1  768.73   20.53
   0   5  -1  276.34   10.43
   0   5  -1  263.73   10.87
  -1   5  -1 1091.85   31.41
  -1   5  -1 1103.30   30.49
  -2   5  -1  835.21   23.42
  -2   5  -1  853.76   24.52
  -2   5  -1  861.61   28.55
  -3   5  -1   37.47    3.46
  -3   5  -1   35.26    3.00
  -4   5  -1   22.58    2.69
  -4   5  -1   39.03    5.37
  -5   5  -1  320.33   12.15
  -5   5  -1  466.46   18.20
  -6  -5  -1  427.80   16.81
  -6   5  -1  416.79   18.30
  -7  -5  -1   69.34    6.03
  -7   5  -1   83.98    7.51
  -8  -5  -1  100.11    6.95
  -8   5  -1  106.80    7.96
  -9  -5  -1  219.78   10.24
   9   5   1  219.96    9.56
 -10  -5  -1  118.87    6.22
 -11   6   1    8.98    1.45
  10   6  -1   11.28    1.93
 -10   6   1    8.20    1.87
  -9   6   1    2.73    1.55
   9   6  -1    3.16    1.79
   8   6  -1    7.01    2.04
   8   6  -1    6.28    2.45
  -8   6   1    5.24    2.02
   7   6  -1    7.40    2.51
  -7   6   1    6.41    2.18
   7   6  -1    9.62    3.18
   6   6  -1    4.52    2.50
   5   6  -1  107.48    9.02
   4   6  -1  131.87    9.81
   3   6  -1  177.29    9.83
  -3   6   1  163.40    7.88
   3   6  -1  171.96   10.53
   2   6  -1  427.04   16.18
  -2   6   1  417.44   15.09
   1   6  -1  567.11   19.27
  -1   6   1  575.88   17.75
   1   6  -1  556.90   20.20
  -1   6   1  576.20   19.40
   0   6  -1  332.10   13.10
   0   6   1  339.30   12.71
   0   6   1  362.07   14.51
   0   6  -1  307.26   13.62
  -1   6  -1  204.68   10.18
   1   6   1  230.04   11.59
  -1   6  -1  202.00    9.30
  -2   6  -1  166.42    8.00
  -2   6  -1  168.27    8.88
  -3   6  -1   39.48    3.98
  -3   6  -1   35.58    3.37
  -4   6  -1   10.44    2.09
  -4   6  -1    8.91    2.63
  -5   6  -1    8.05    1.75
  -5   6  -1   10.81    2.99
  -6   6  -1    6.88    2.51
  -7   6  -1   23.31    3.64
   8   6   1   35.26    3.95
  -9   6  -1    7.87    1.86
   9   6   1    8.56    1.61
  10   6   1    1.50    0.89
 -10   6  -1    2.10    0.95
  10   7  -1   61.25    3.42
   9   7  -1   51.53    4.17
  -9   7   1   41.90    3.29
   8   7  -1   27.91    3.31
   8   7  -1   26.27    3.72
  -8   7   1   25.02    2.94
   7   7  -1  138.65    9.50
   7   7  -1  138.52    8.87
  -7   7   1  110.23    7.07
   6   7  -1  306.52   15.46
   6   7  -1  265.11   14.53
   5   7  -1  121.56    9.77
   4   7  -1  100.83    8.40
   4   7  -1  111.53    9.52
   3   7  -1  520.21   20.63
  -3   7   1  516.05   17.72
   3   7  -1  568.21   22.54
  -2   7   1 1024.93   30.29
   2   7  -1 1004.88   31.72
  -1   7   1  595.16   20.78
   1   7  -1  573.49   22.00
  -1   7   1  560.85   18.39
   1   7  -1  603.96   20.94
   0   7   1  634.80   20.89
   0   7  -1  620.16   23.03
   0   7   1  659.87   23.04
   0   7  -1  643.85   21.66
   1   7   1 1582.44   44.24
  -1   7  -1 1592.75   45.25
   1   7   1 1637.36   47.08
  -1   7  -1 1646.57   43.63
   2   7   1 1637.77   45.87
  -2   7  -1 1555.95   45.14
  -2   7  -1 1610.04   43.14
   3   7   1  732.76   28.59
  -3   7  -1  780.98   24.51
  -4   7  -1  530.19   19.10
  -4   7  -1  726.27   23.58
   5   7   1 1094.44   35.48
  -5   7  -1  977.32   31.24
   6   7   1  703.91   25.49
   7   7   1  165.23    9.23
   8   7   1   96.66    5.96
  -8   7  -1   82.20    4.94
   8   7   1  100.04    5.63
   9   7   1   94.88    4.81
  -9   7  -1   80.11    4.11
   8   8  -1    1.14    1.23
   8   8  -1    0.79    0.76
   7   8  -1    1.83    1.50
   7   8  -1    2.75    1.80
   6   8  -1    5.11    2.38
   5   8  -1   29.67    4.68
   5   8  -1   37.14    5.33
   4   8  -1    8.98    2.96
   4   8  -1   12.68    3.64
   3   8  -1   10.88    2.95
  -3   8   1   10.18    2.04
   2   8  -1   95.38    8.17
  -2   8   1   89.60    6.36
   2   8  -1  103.98    7.70
  -1   8   1  117.14    8.09
   1   8  -1  124.48    8.16
   1   8  -1  137.97    9.62
   0   8  -1   26.36    3.64
   0   8  -1   26.93    4.34
   0   8   1   24.57    3.94
   0   8   1   24.77    3.15
  -1   8  -1    7.60    1.96
   1   8   1    6.69    2.07
  -1   8  -1    7.35    2.57
   1   8   1    7.71    2.78
   2   8   1   44.45    4.96
   2   8   1   50.36    6.09
  -2   8  -1   55.36    5.25
   3   8   1   23.38    3.79
   3   8   1   27.90    4.80
  -3   8  -1   26.35    3.41
   4   8   1    5.00    2.28
  -4   8  -1    2.72    1.29
   5   8   1    9.98    2.89
   5   8   1    9.20    2.63
   6   8   1    0.21    1.45
   6   8   1    0.21    1.60
   7   8   1    0.76    1.00
   7   8   1    0.15    1.07
   8   8   1    6.43    1.24
   6   9  -1  216.14    9.16
   6   9  -1  198.06    9.02
   5   9  -1  252.69   11.62
   5   9  -1  213.08   10.50
   4   9  -1  288.90   13.70
   4   9  -1  253.65   11.87
   3   9  -1  324.81   13.76
   2   9  -1  395.27   16.31
   2   9  -1  358.28   14.03
  -1   9   1  261.50   11.28
   1   9  -1  296.31   13.78
   1   9  -1  283.52   11.70
   0   9   1  248.45   11.47
   0   9  -1  239.06   11.98
   0   9  -1  228.76    9.90
   1   9   1  273.88   12.58
  -1   9  -1  263.12   11.72
   2   9   1  206.01    9.30
  -2   9  -1  201.19    9.45
   2   9   1  232.86   11.73
   3   9   1  143.13    8.86
   3   9   1  127.63    7.17
   4   9   1  109.97    6.54
   5   9   1  108.71    6.11
   5   9   1  122.78    6.79
   6   9   1   78.13    4.28
   3  10  -1    2.97    1.39
   2  10  -1    0.67    1.15
   1  10  -1    0.64    1.24
   0  10  -1    4.82    1.43
  14   0  -2    9.28    1.32
 -13   0   2   75.51    4.32
 -12   0   2  250.62   10.55
 -12   0   2  265.03   12.19
 -11   0   2  203.90   11.21
 -11   0   2  191.10    9.94
 -10   0   2  157.31    9.14
 -10   0   2  152.93    9.89
  -9   0   2  967.64   29.68
  -9   0   2  936.56   30.63
  -8   0   2 1358.93   40.76
  -8   0   2 1493.49   40.47
  -7   0   2   91.07    6.89
  -7   0   2  120.99    7.36
  -6   0   2   43.25    4.42
  -6   0   2   45.92    4.12
   6   0  -2   41.92    3.42
   5   0  -2 1382.21   34.46
   4   0  -2 1298.49   32.04
  -3   0   2  997.26   23.25
   3   0  -2 1006.63   24.61
  -2   0   2  323.72    8.33
   1   0  -2 4140.44   91.41
  -1   0   2 3957.29   91.89
   0   0  -2 1723.96   39.72
   0   0   2 1661.01   40.05
   1   0   2  297.20    9.72
  -1   0  -2  349.29   10.06
  -2   0  -2 2071.73   48.37
  -3   0  -2 5552.86  125.84
  -3   0  -2 5448.45  127.92
  -4   0  -2 3922.40   88.05
  -4   0  -2 3384.62   88.18
  -5   0  -2  563.57   18.62
  -5   0  -2  530.43   19.95
  -6   0  -2 1789.46   50.64
  -6   0  -2 1992.72   49.20
  -7   0  -2 3188.02   80.78
  -7   0  -2 3220.23   78.78
  -8   0  -2  716.45   22.16
  -8   0  -2  708.69   24.03
  -9   0  -2   99.77    7.22
 -10   0  -2  232.08   10.98
 -11   0  -2  171.03    8.32
 -12   0  -2   13.62    1.73
  14   1  -2   -0.12    0.56
  14  -1  -2   -0.16    0.45
 -13   1   2    5.21    1.42
 -12   1   2    0.83    1.64
 -12   1   2    1.70    1.56
 -11   1   2    0.25    1.50
 -11  -1   2    0.90    1.11
 -11   1   2    0.35    1.46
 -10   1   2   98.96    7.60
 -10  -1   2   98.42    6.71
 -10   1   2   99.44    7.17
  -9   1   2  266.94   12.75
  -9   1   2  274.76   13.43
  -9  -1   2  290.88   12.68
  -8  -1   2  113.93    7.40
  -8  -1   2  116.77    8.20
  -8   1   2  108.51    7.75
  -8   1   2  119.83    7.73
  -7  -1   2  107.01    6.65
  -7   1   2  103.04    7.09
  -7  -1   2  101.93    7.34
  -7   1   2  113.69    7.23
  -6   1   2  702.79   20.49
  -6   1   2  545.35   13.60
   6  -1  -2  659.42   17.16
   6   1  -2  606.12   18.04
   6  -1  -2  622.22   18.22
  -6  -1   2  570.98   20.09
  -6  -1   2  689.65   19.29
  -6   1   2  667.48   20.20
   5  -1  -2  611.53   16.38
   5   1  -2  567.07   17.86
   4  -1  -2   43.44    2.45
  -3  -1   2  108.83    3.98
  -3   1   2  117.53    4.26
  -3  -1   2  109.36    4.13
   2   1  -2    5.66    1.00
   2  -1  -2    4.98    0.32
   1   1  -2  390.93   10.28
  -1  -1   2  370.02   10.43
   0  -1   2 2632.95   59.36
   0   1  -2 2584.23   59.14
   0  -1  -2 2476.71   59.97
  -1  -1  -2 2481.64   55.02
  -1  -1  -2 2158.28   56.66
  -2   1  -2  408.27   10.56
  -2   1  -2  389.15   11.97
   2  -1   2  363.02   11.72
  -2  -1  -2  378.59   11.54
   3  -1   2  816.86   22.73
  -3   1  -2  894.83   23.68
  -4   1  -2 1533.44   41.17
  -4   1  -2 1532.20   40.87
  -4   1  -2 1537.83   41.06
  -4   1  -2 1472.19   41.64
  -5   1  -2  315.33   12.05
  -5   1  -2  308.48   12.52
  -5   1  -2  273.81   12.10
  -5  -1  -2  256.70   12.47
  -6   1  -2    1.68    1.39
  -6  -1  -2    5.51    2.03
  -6   1  -2    6.54    1.89
  -7   1  -2    7.46    2.19
  -7  -1  -2    9.47    2.73
  -7   1  -2    6.82    2.07
  -8  -1  -2   29.31    4.16
  -8   1  -2   28.09    3.72
  -8   1  -2   31.01    3.76
  -9  -1  -2    7.83    2.35
  -9   1  -2    7.04    2.13
 -10   1  -2   36.13    3.82
 -10  -1  -2   39.06    4.42
 -10   1  -2   25.68    2.85
 -11  -1  -2    2.34    1.45
 -11   1  -2    2.68    1.18
 -12  -1  -2   -0.10    0.72
  14   2  -2    2.18    0.71
  13  -2  -2   19.21    1.90
 -13   2   2   21.14    2.48
 -12  -2   2   68.71    5.72
 -12   2   2   68.70    5.44
 -11  -2   2   58.63    5.82
 -11   2   2   53.26    5.34
 -10   2   2  101.92    7.28
 -10   2   2  110.89    7.72
 -10  -2   2  106.10    8.06
  -9  -2   2  526.38   20.02
  -9  -2   2  488.09   16.89
  -9   2   2  504.97   18.74
  -8   2   2 1025.74   31.76
  -8  -2   2 1031.65   30.00
  -7   2   2  817.00   26.58
  -7  -2   2  941.57   28.66
  -7  -2   2  839.76   24.97
  -7   2   2  914.37   27.25
  -6  -2   2 1922.32   46.73
  -6   2   2 1806.75   45.11
  -6  -2   2 1816.04   43.48
   5  -2  -2 4354.10   97.41
  -5  -2   2 4033.78  101.65
  -4  -2   2 4111.91  104.45
   4   2  -2 4249.54  105.27
  -3  -2   2 3366.32   81.87
   3   2  -2 3478.34   83.26
  -3  -2   2 3528.14   79.42
  -3   2   2 3479.98   79.60
  -2   2   2 4804.85  105.87
   2   2  -2 4513.26  109.34
   2  -2  -2 4502.65  105.09
  -2  -2   2 4906.67  105.73
  -2  -2   2 4777.76  106.69
   1   2  -2 6549.20  160.28
  -1  -2   2 7367.20  158.88
   0  -2  -2 4949.09  108.69
   0   2  -2 4575.63  108.57
  -1  -2  -2 1509.43   39.87
   1  -2   2 1593.82   39.50
  -1   2  -2 1651.24   39.64
  -2   2  -2 2686.36   65.67
   2  -2   2 2701.65   65.33
  -2   2  -2 2814.55   63.31
  -3   2  -2 3513.96   84.08
  -3   2  -2 3391.62   83.62
  -3  -2  -2 3902.87   86.27
  -3   2  -2 3399.85   83.64
   3  -2   2 3611.44   83.42
  -3   2  -2 3698.07   85.23
  -4   2  -2 1179.52   31.10
  -4  -2  -2 1152.17   32.87
  -4   2  -2 1111.79   30.79
   4  -2   2 1070.64   29.69
  -4   2  -2 1223.86   32.92
  -5  -2  -2   79.29    6.41
  -5   2  -2   90.87    5.63
  -5   2  -2   82.00    6.52
  -6   2  -2  329.11   12.54
  -6  -2  -2  306.22   14.02
  -6   2  -2  308.46   13.93
  -7   2  -2  585.42   19.33
  -7   2  -2  603.41   21.15
  -7  -2  -2  569.86   21.31
  -8   2  -2  119.08    7.94
  -8   2  -2  111.52    6.91
  -9   2  -2   14.96    2.75
  -9   2  -2   18.17    2.69
 -10   2  -2   73.34    4.94
 -11   2  -2   59.71    3.69
 -12  -2  -2   13.74    1.77
  13   3  -2    3.30    1.03
 -13   3   2    3.53    1.24
 -12  -3   2    6.32    1.94
 -12   3   2    5.14    1.89
 -11  -3   2   55.21    5.36
 -10  -3   2   -0.27    1.49
  -9  -3   2    3.87    2.14
  -9   3   2    5.47    2.25
  -8   3   2  281.93   13.10
  -8  -3   2  299.35   14.19
  -7  -3   2  416.14   17.49
  -7   3   2  430.57   16.81
  -6  -3   2   17.80    2.99
  -5  -3   2   14.93    2.70
   5   3  -2   16.15    2.63
  -5  -3   2   19.19    2.60
  -4  -3   2  762.80   24.77
   4  -3  -2  822.37   19.92
  -3  -3   2  286.95   10.82
  -3  -3   2  267.31    9.25
   3   3  -2  292.55   10.26
  -2   3   2 1183.80   27.95
   2  -3  -2 1220.11   29.41
  -2  -3   2 1155.21   27.90
  -2  -3   2 1135.16   29.26
  -1  -3   2  695.64   17.19
  -1   3   2  712.48   17.25
   0  -3   2  216.99    7.55
   0  -3  -2  253.53    8.83
   1  -3   2   61.34    3.41
  -1   3  -2   52.97    3.68
  -1  -3  -2   61.57    4.29
  -2   3  -2 2253.66   55.34
  -2   3  -2 2286.62   55.91
  -2   3  -2 2324.42   55.34
   2  -3   2 2263.33   54.66
  -2   3  -2 2404.24   57.15
  -3  -3  -2  551.84   18.28
  -3   3  -2  536.76   16.97
   3  -3   2  516.85   15.84
  -3   3  -2  567.03   17.07
  -3   3  -2  562.05   16.68
  -4   3  -2  142.24    6.81
  -4  -3  -2  143.71    8.64
  -4   3  -2  139.09    7.19
  -5  -3  -2   65.38    5.83
  -6   3  -2  544.13   20.59
  -6  -3  -2  493.55   19.35
  -7  -3  -2    3.06    2.24
  -7   3  -2    3.31    2.11
  -8  -3  -2   90.34    7.01
  -8   3  -2   94.07    7.30
  -9   3  -2    0.22    1.48
  -9  -3  -2   -0.12    1.50
 -10  -3  -2   23.94    3.34
 -11  -3  -2    2.91    1.36
 -11   3  -2    2.48    0.95
 -12  -3  -2    6.75    1.06
  13   4  -2   18.01    1.51
  12   4  -2   34.72    2.89
 -11  -4   2  122.59    7.16
  11   4  -2  101.70    6.16
 -11   4   2  126.23    7.75
 -10  -4   2  278.55   12.99
 -10   4   2  306.31   13.73
   9   4  -2  247.94   11.35
  -9  -4   2  271.34   13.06
  -9   4   2  247.55   12.51
  -8  -4   2  293.31   13.86
  -8   4   2  296.99   13.87
   7   4  -2  772.77   23.48
  -7   4   2  743.27   24.62
   6   4  -2 1078.87   31.00
  -6  -4   2  927.71   28.77
   5   4  -2  556.92   16.47
   5   4  -2  572.36   20.57
   4   4  -2  575.55   19.08
  -4  -4   2  552.18   20.09
   4   4  -2  574.49   16.03
   4   4  -2  582.71   20.29
  -3  -4   2 1326.09   35.62
   3   4  -2 1272.35   35.27
   3   4  -2 1305.16   36.92
   3  -4  -2 1402.48   34.10
  -3  -4   2 1280.51   34.23
   2   4  -2 1625.39   43.01
   2  -4  -2 1612.10   37.93
   2  -4  -2 1722.81   41.88
   1   4  -2 1003.21   27.28
   1   4  -2  948.76   28.09
  -1  -4   2  999.07   26.48
   0   4  -2  974.58   25.44
   0   4  -2  917.69   26.24
   0  -4   2  952.94   24.58
   0   4  -2  912.08   22.77
  -1   4  -2 1594.17   41.35
   1  -4   2 1613.33   39.25
  -1   4  -2 1558.96   40.64
  -1   4  -2 1561.17   39.87
   2  -4   2 1457.04   37.64
  -2   4  -2 1516.57   39.30
  -2  -4  -2 1551.72   40.81
  -2   4  -2 1543.80   38.60
  -2   4  -2 1552.83   41.30
  -3  -4  -2  945.50   29.24
  -3   4  -2  905.88   25.54
  -3   4  -2  896.81   26.13
  -4  -4  -2  967.63   29.23
  -4   4  -2  847.14   25.15
  -4   4  -2  935.63   29.93
  -4   4  -2  850.05   24.80
  -5  -4  -2 1204.44   35.72
  -5   4  -2 1141.89   36.77
  -6   4  -2  567.48   22.97
  -6  -4  -2  678.93   23.01
  -7  -4  -2  331.43   14.49
  -8   4  -2  272.29   13.36
  -8  -4  -2  268.09   12.55
  -9   4  -2  179.31    9.44
  -9  -4  -2  201.68    9.94
 -10  -4  -2   71.40    5.00
 -11  -4  -2   24.15    2.30
 -11   4  -2   21.13    1.93
 -12   5   2    0.64    0.86
  11   5  -2    4.92    1.17
 -11   5   2    7.16    1.97
  10   5  -2    1.34    1.00
  10   5  -2    2.17    1.21
 -10   5   2    1.22    1.65
   9   5  -2    6.51    2.05
   9   5  -2    5.45    1.59
  -9   5   2    7.27    2.34
   8   5  -2   18.00    3.40
   8   5  -2   13.25    2.24
  -8   5   2   16.50    3.31
   7   5  -2   13.37    2.88
   7   5  -2    8.12    1.75
   7   5  -2   10.06    2.91
  -7   5   2    9.11    2.62
   6   5  -2   58.46    6.10
   6   5  -2   59.83    6.16
  -6   5   2   63.82    5.91
   5   5  -2   35.51    4.56
   5   5  -2   42.65    5.26
  -5   5   2   34.52    4.21
   4   5  -2   48.57    5.02
   4   5  -2   68.58    6.45
   3   5  -2    5.59    2.15
   2   5  -2  244.94   10.77
   2   5  -2  249.79    8.97
  -2   5   2  272.63   10.26
   2   5  -2  242.15   11.74
   1   5  -2   42.22    3.88
   0   5  -2  147.17    8.21
   0   5  -2  162.22    8.54
   0   5  -2  153.77    7.60
  -1   5  -2    4.45    1.39
  -1   5  -2    6.75    2.17
  -1   5  -2    4.40    1.59
  -2   5  -2  171.77    8.68
  -2   5  -2  172.38   10.31
  -3   5  -2    1.84    1.32
  -3   5  -2    1.73    1.15
  -3   5  -2    3.38    2.16
  -4   5  -2  126.68    6.80
  -4   5  -2  113.67    6.93
  -4   5  -2  134.08    9.69
  -5   5  -2    0.96    2.11
  -5  -5  -2    1.04    1.54
  -6   5  -2   41.73    5.32
  -6  -5  -2   61.23    5.45
  -7  -5  -2    1.79    1.53
  -7   5  -2    1.79    2.01
  -8  -5  -2   29.81    3.57
  -8   5  -2   24.17    3.58
  -9  -5  -2   -0.08    0.98
 -10   5  -2    3.05    1.09
 -10  -5  -2    2.99    0.98
 -11   6   2   69.70    4.09
  10   6  -2  156.03    7.23
 -10   6   2  141.80    7.51
   9   6  -2   98.48    6.82
  -9   6   2   93.87    6.42
   8   6  -2  106.18    7.98
   8   6  -2   96.75    6.58
  -8   6   2   96.68    7.04
   7   6  -2  466.64   19.98
   7   6  -2  514.16   19.44
   6   6  -2  556.11   23.25
  -6   6   2  538.22   20.85
   5   6  -2  191.53   11.77
   5   6  -2  199.21   12.59
   4   6  -2  296.47   15.46
   3   6  -2 1152.27   36.40
  -3   6   2 1208.20   30.91
   2   6  -2 1088.93   33.44
   2   6  -2 1090.17   34.93
  -1   6   2  466.26   16.83
   1   6  -2  432.09   16.53
   0   6  -2  669.83   23.49
   0   6  -2  729.93   22.69
  -1   6  -2 1651.36   46.42
  -1   6  -2 1743.90   50.57
  -1   6  -2 1726.04   45.31
  -2   6  -2 1100.87   33.10
  -2   6  -2 1133.70   37.09
  -2   6  -2 1146.88   32.03
  -3   6  -2  394.44   15.62
  -3   6  -2  394.62   14.63
  -4   6  -2  570.63   19.03
  -4   6  -2  582.51   19.86
  -5   6  -2  987.08   31.86
  -6   6  -2  422.51   17.33
  -7   6  -2  120.41    7.75
   8   6   2  177.01    8.49
   9   6   2  114.96    5.10
 -10   6  -2   26.31    1.96
  10   7  -2    0.74    0.58
  10   7  -2    1.58    0.73
   9   7  -2    1.65    1.00
   9   7  -2    0.58    1.16
   8   7  -2    8.57    1.84
   8   7  -2   12.47    2.86
   8   7  -2   12.15    2.25
   7   7  -2   12.04    2.22
   7   7  -2   18.00    3.77
   7   7  -2   16.90    3.37
   6   7  -2    3.08    1.31
   6   7  -2    3.89    2.61
   5   7  -2    7.77    3.20
   4   7  -2    0.58    2.47
   3   7  -2    2.17    2.16
   3   7  -2    2.14    2.44
   2   7  -2   30.34    4.27
  -2   7   2   28.42    3.40
   1   7  -2   72.97    6.95
  -1   7   2   72.48    5.86
   1   7  -2   72.48    6.21
   0   7   2   54.29    4.55
   0   7  -2   60.06    6.01
   0   7   2   62.35    6.03
   0   7  -2   58.35    5.48
   1   7   2   43.12    4.37
  -1   7  -2   46.35    4.72
   1   7   2   51.62    5.99
  -1   7  -2   42.06    5.11
  -2   7  -2   48.10    4.67
   2   7   2   63.30    6.90
  -2   7  -2   50.47    5.28
   3   7   2   51.80    6.50
  -3   7  -2   40.69    4.56
  -3   7  -2   50.57    5.55
  -4   7  -2    9.83    2.22
  -4   7  -2   13.11    2.84
   5   7   2    2.41    2.48
  -5   7  -2    1.30    1.47
   6   7   2    1.27    1.82
  -6   7  -2    4.26    1.61
   7   7   2    0.73    1.29
  -8   7  -2    2.41    0.97
   8   7   2    3.42    1.34
   8   7   2    2.58    1.01
   8   8  -2  112.23    6.37
   7   8  -2  308.61   12.49
   7   8  -2  304.10   13.33
   6   8  -2  399.31   17.72
   6   8  -2  524.56   19.53
   5   8  -2  441.60   19.68
   4   8  -2  602.59   24.10
   4   8  -2  543.75   21.47
   3   8  -2  950.69   32.47
   3   8  -2  897.82   29.89
  -2   8   2  807.65   24.38
   2   8  -2  811.32   27.29
   1   8  -2  549.22   20.12
   1   8  -2  537.04   21.35
  -1   8   2  524.47   18.92
   0   8  -2  532.01   21.02
   0   8   2  556.22   20.40
   0   8  -2  563.13   20.10
   1   8   2  621.41   20.20
  -1   8  -2  600.62   22.36
   1   8   2  649.56   23.28
  -1   8  -2  628.05   21.06
   2   8   2  369.86   14.71
   2   8   2  384.17   16.92
  -2   8  -2  353.50   13.66
  -2   8  -2  350.46   15.16
   3   8   2  130.95    8.40
  -3   8  -2  119.84    7.60
   4   8   2  126.17    8.13
   4   8   2  130.48    9.15
   5   8   2  139.91    8.08
   5   8   2  133.86    8.23
   6   8   2   60.73    4.58
   6   8   2   56.98    4.51
   7   8   2   19.10    2.09
   7   8   2   17.77    1.92
   7   9  -2    4.52    1.21
   6   9  -2   26.88    2.98
   5   9  -2   14.11    2.77
   5   9  -2   21.95    3.48
   4   9  -2   -0.22    1.49
   4   9  -2    1.77    2.00
   3   9  -2    3.51    1.79
   2   9  -2    0.69    1.98
   2   9  -2    0.32    1.44
   1   9  -2   11.76    2.45
  -1   9   2    9.54    1.90
   1   9  -2   12.36    2.97
   0   9  -2   55.81    5.27
   0   9   2   59.49    4.94
   0   9  -2   57.32    4.62
   1   9   2   58.99    5.17
  -1   9  -2   49.70    3.85
  -1   9  -2   54.57    4.93
   2   9   2   23.69    3.43
  -2   9  -2   18.56    2.72
   3   9   2   23.61    3.42
   3   9   2   20.43    2.47
   4   9   2   36.60    3.76
   4   9   2   33.37    3.00
   2  10  -2   59.46    4.45
   1  10  -2   71.69    4.79
  14   0  -3   -0.04    0.55
  13   0  -3    0.60    1.04
 -12   0   3   -0.09    1.42
 -11   0   3    0.26    1.82
 -11   0   3   -0.23    1.43
 -10   0   3    1.51    1.79
 -10   0   3   -0.26    1.59
  -9   0   3   -0.71    1.77
  -9   0   3    0.27    1.81
  -8   0   3    2.33    2.00
  -8   0   3    5.19    2.02
  -7   0   3    0.89    1.33
   6   0  -3    2.02    0.92
  -6   0   3    0.36    0.88
   5   0  -3    0.06    0.64
  -5   0   3    1.60    0.50
  -5   0   3    0.07    0.80
  -4   0   3    0.10    0.41
   4   0  -3    0.93    0.64
  -3   0   3    0.03    0.46
  -2   0   3    8.87    1.18
   2   0  -3    0.11    0.30
  -1   0   3    1.04    0.83
   1   0  -3    2.58    0.64
   0   0   3    0.99    0.86
   0   0  -3    5.72    1.04
  -1   0  -3    1.07    0.83
  -2   0  -3    0.69    0.58
  -2   0  -3    3.06    1.24
  -3   0  -3    0.05    0.56
  -3   0  -3    0.24    1.03
  -3   0  -3   -0.12    0.67
  -4   0  -3    0.10    0.96
  -4   0  -3    0.24    0.85
  -5   0  -3    0.12    1.39
  -5   0  -3    0.56    1.10
  -6   0  -3    0.25    1.51
  -6   0  -3    0.74    1.02
  -7   0  -3    0.60    1.51
  -7   0  -3    2.00    1.32
  -8   0  -3    0.88    1.42
  -9   0  -3   -0.59    1.18
 -10   0  -3    1.24    1.31
 -11   0  -3    0.48    0.82
  14   1  -3    9.21    1.38
  14  -1  -3    6.97    1.05
  13  -1  -3   54.22    3.79
  13   1  -3   63.23    4.32
 -13   1   3   64.51    4.50
 -12   1   3  116.04    7.17
 -11   1   3   24.49    3.73
 -11  -1   3   27.06    3.58
 -10   1   3   95.97    7.42
 -10  -1   3   90.33    7.45
 -10  -1   3   91.13    6.76
 -10   1   3   94.93    7.36
  -9   1   3  755.02   27.25
  -9  -1   3  803.36   28.13
  -9  -1   3  874.04   27.31
  -9   1   3  946.27   28.87
  -8   1   3  568.16   22.54
  -8  -1   3  618.39   23.83
  -8  -1   3  778.67   23.65
  -8   1   3  843.08   25.59
  -7   1   3   99.04    6.91
   7  -1  -3   95.89    5.38
  -7  -1   3   95.97    6.39
  -6   1   3  833.75   24.11
  -6  -1   3  837.43   24.98
   6   1  -3  811.91   23.64
   6  -1  -3  827.35   21.97
  -6  -1   3  813.65   23.26
  -6   1   3  731.52   24.29
  -6  -1   3  726.66   21.03
  -5  -1   3 3896.34   87.83
   5   1  -3 3600.82   87.72
   5  -1  -3 3743.25   85.55
  -5  -1   3 3556.56   85.15
  -5  -1   3 3864.11   86.98
  -5   1   3 3526.95   88.03
   4  -1  -3 3178.77   73.26
  -4  -1   3 3276.01   73.34
  -4   1   3 3169.93   73.10
  -4  -1   3 3023.86   72.94
  -3  -1   3  981.89   24.32
  -3  -1   3  944.54   23.82
  -3   1   3  954.47   23.81
   2   1  -3 2969.58   71.80
  -2  -1   3 3141.70   71.54
   2  -1  -3 3125.59   69.93
  -1  -1   3 6146.20  134.00
   1   1  -3 5965.20  133.35
   0  -1  -3 3715.49   89.80
   0   1  -3 3843.96   89.52
  -1  -1  -3 1259.48   31.17
  -1   1  -3 1205.60   31.62
   1  -1   3 1286.58   32.23
  -1  -1  -3 1259.71   32.80
  -2   1  -3 3142.73   71.43
  -2  -1  -3 3066.08   74.70
  -2   1  -3 3189.45   73.37
  -2  -1  -3 3135.82   72.92
  -3   1  -3 3973.08   94.50
  -3   1  -3 3739.66   94.84
  -3   1  -3 4019.15   94.10
  -3  -1  -3 3864.19   93.78
  -3   1  -3 4104.14   92.46
  -4  -1  -3  946.74   28.02
  -4   1  -3  936.14   27.94
  -4   1  -3  933.20   27.27
  -4   1  -3  945.82   27.60
  -5   1  -3  289.35   12.75
  -5  -1  -3  283.26   13.31
  -5   1  -3  281.89   12.41
  -6   1  -3  967.99   28.89
  -6  -1  -3  897.01   30.14
  -6   1  -3  979.54   29.12
  -7   1  -3  669.29   22.03
  -7   1  -3  678.73   21.93
  -7  -1  -3  638.67   23.03
  -8  -1  -3   60.54    5.63
  -8   1  -3   72.90    5.39
  -8   1  -3   67.26    5.31
  -9   1  -3   33.58    3.62
  -9  -1  -3   33.10    3.85
 -10   1  -3  107.89    5.85
 -10  -1  -3  103.91    6.18
 -11  -1  -3   45.57    3.33
  14   2  -3    2.84    0.86
  13  -2  -3    4.15    1.00
  13   2  -3    3.41    1.29
 -13   2   3    4.36    1.42
  12  -2  -3    3.46    1.25
 -12   2   3    2.99    1.74
 -11  -2   3    3.61    1.98
 -11   2   3    5.63    2.20
 -10  -2   3   21.42    3.72
  -9  -2   3    1.35    1.84
  -8  -2   3  230.19   12.62
  -8   2   3  287.55   13.47
  -7  -2   3  207.64   11.20
  -7   2   3  245.14   12.23
  -6  -2   3    8.16    1.60
   6  -2  -3   10.39    1.46
  -6  -2   3   10.31    2.18
  -6   2   3    7.85    2.23
  -5  -2   3  127.63    6.12
  -5  -2   3  130.59    6.55
   5  -2  -3  132.72    5.40
   5   2  -3  133.24    7.62
  -5   2   3  131.39    7.45
  -4  -2   3 1663.66   39.56
  -4   2   3 1707.95   39.71
   4   2  -3 1633.18   39.79
   4   2  -3 1679.39   42.71
  -4  -2   3 1584.49   40.09
  -4   2   3 1550.19   41.46
  -3  -2   3  517.95   14.17
  -3   2   3  542.71   14.23
   3   2  -3  549.93   16.85
   2   2  -3  182.30    7.51
   2  -2  -3  190.77    5.29
   1   2  -3  150.64    6.15
   1  -2  -3  136.67    5.15
   0   2  -3  851.43   22.12
   0  -2   3  841.76   22.16
   0  -2  -3  803.54   22.34
   0   2  -3  885.71   22.12
   0  -2  -3  843.20   23.12
  -1   2  -3   74.65    3.86
  -1   2  -3   64.77    3.61
  -1   2  -3   66.25    4.34
  -1  -2  -3   61.70    4.73
  -2   2  -3  816.47   20.13
  -2   2  -3  793.13   22.13
  -2   2  -3  831.92   23.54
  -2   2  -3  828.59   23.05
   2  -2   3  788.42   22.65
  -2  -2  -3  797.21   22.93
  -3   2  -3   29.63    2.90
  -3   2  -3   43.90    3.88
  -3   2  -3   30.20    3.25
  -3   2  -3   28.99    3.16
  -3  -2  -3   47.24    4.50
  -4  -2  -3   23.76    3.43
  -4   2  -3   21.37    2.87
  -4   2  -3   23.78    3.31
  -5   2  -3  236.44   10.33
  -5  -2  -3  219.71   11.99
  -5   2  -3  240.79   11.74
  -6   2  -3  323.97   12.63
  -6   2  -3  292.12   13.65
  -7   2  -3    0.53    1.04
  -7   2  -3    0.34    1.36
  -8   2  -3    2.82    1.31
  -8   2  -3    2.93    1.65
  -9   2  -3   25.42    3.00
 -10   2  -3    6.92    1.35
 -10  -2  -3    6.85    1.89
 -11  -2  -3    3.81    1.15
  13   3  -3   44.21    3.23
 -13   3   3   52.30    3.83
  12   3  -3  103.70    6.07
 -11  -3   3  182.73    9.79
  11   3  -3  181.53    9.26
 -10  -3   3  358.04   15.83
 -10   3   3  389.87   16.29
  -9  -3   3  758.97   26.29
  -9   3   3  782.46   26.48
  -8  -3   3  792.73   28.34
  -8   3   3 1027.82   30.55
   7   3  -3  769.39   25.04
  -7  -3   3  791.98   25.75
  -7   3   3  849.03   27.62
  -6  -3   3 1178.12   31.31
   6   3  -3 1145.08   29.79
   5   3  -3 1620.27   42.71
   5  -3  -3 1548.32   37.79
   5   3  -3 1518.63   42.42
   5   3  -3 1577.43   39.18
  -5  -3   3 1584.64   40.92
  -5   3   3 1542.99   42.64
   4   3  -3 1388.62   36.02
   4   3  -3 1368.73   37.33
  -4   3   3 1289.67   34.63
   4   3  -3 1273.20   32.76
  -4  -3   3 1283.66   34.05
   3   3  -3  772.14   22.47
   3   3  -3  800.88   24.32
  -3  -3   3  766.34   19.93
   3   3  -3  731.45   20.18
  -3   3   3  775.77   19.89
   3   3  -3  799.24   25.89
  -3  -3   3  741.26   21.15
  -2   3   3  618.95   16.84
   2   3  -3  671.25   18.10
   2   3  -3  720.90   21.46
  -2  -3   3  676.30   18.61
   2   3  -3  700.51   17.98
   2  -3  -3  637.84   16.48
   2   3  -3  705.94   19.78
  -2  -3   3  629.73   16.91
   1  -3  -3  775.62   21.35
   1   3  -3  754.75   20.27
   1   3  -3  791.05   23.14
  -1  -3   3  692.29   20.37
   1   3  -3  741.76   19.93
   1  -3  -3  783.48   20.97
   1   3  -3  748.51   21.49
   0  -3  -3  501.80   16.10
   0   3  -3  511.17   14.83
   0   3  -3  486.31   16.96
   0  -3  -3  541.49   17.89
   0   3  -3  523.58   14.93
  -1   3  -3  316.51   12.38
  -1   3  -3  332.16   10.95
  -1   3  -3  340.42   10.69
  -1   3  -3  334.84   11.88
  -1  -3  -3  321.41   11.97
   1  -3   3  312.16   10.97
  -2   3  -3  439.27   15.68
  -2   3  -3  450.45   14.11
  -2   3  -3  453.95   15.24
  -2   3  -3  448.77   15.53
  -3   3  -3  586.05   18.06
  -3  -3  -3  606.82   20.03
  -3   3  -3  602.04   19.10
  -4   3  -3  445.71   15.67
  -4  -3  -3  476.24   18.39
  -4   3  -3  436.48   17.41
  -5  -3  -3  448.84   18.52
  -5   3  -3  436.24   18.15
  -6  -3  -3  519.97   20.50
  -6   3  -3  516.12   20.15
  -7  -3  -3  371.31   15.77
  -7   3  -3  361.74   15.32
  -8  -3  -3  233.66   11.22
  -8   3  -3  219.47   10.82
  -9  -3  -3  159.30    8.40
  -9   3  -3  146.36    7.53
 -10  -3  -3  102.14    5.79
 -11  -3  -3   37.76    2.71
  13   4  -3    0.29    0.54
 -13   4   3    0.81    0.79
  12   4  -3   14.82    2.02
 -12   4   3   20.40    2.74
  11   4  -3    6.83    1.80
 -11   4   3    7.70    2.33
  10   4  -3   20.45    3.03
 -10   4   3   15.64    3.27
   9   4  -3   37.86    3.91
   9   4  -3   31.20    3.84
  -9   4   3   42.89    4.98
   8   4  -3    5.30    2.10
  -8  -4   3    4.37    1.82
   8   4  -3    3.87    1.68
  -8   4   3    4.92    2.28
   7   4  -3   43.78    4.97
   7   4  -3   32.85    3.56
  -7   4   3   36.66    4.79
   6   4  -3  791.98   26.29
   6   4  -3  765.72   22.22
   5   4  -3  528.94   19.49
   5   4  -3  496.79   19.87
   5   4  -3  519.44   15.75
  -5   4   3  480.65   18.22
   4   4  -3   23.02    3.34
   4   4  -3   23.77    3.88
   4   4  -3   22.41    2.30
   3   4  -3  461.27   16.66
   3   4  -3  512.00   19.18
   3   4  -3  471.00   14.13
   2   4  -3 1505.65   37.62
   2   4  -3 1552.62   42.19
   2   4  -3 1531.38   37.02
   2   4  -3 1443.92   39.61
   2  -4  -3 1454.19   39.04
   1   4  -3  154.86    6.46
   1   4  -3  150.96    8.44
   1   4  -3  146.72    6.10
   1  -4  -3  153.34    7.73
   0   4  -3  229.31    8.17
   0  -4  -3  204.75   10.49
   0   4  -3  205.32    9.19
  -1   4  -3    4.40    1.42
  -1   4  -3    4.31    1.57
  -1  -4  -3    3.24    1.83
  -1   4  -3    3.48    1.44
  -1   4  -3    3.92    1.02
  -2   4  -3   62.43    4.03
  -2   4  -3   72.62    5.38
  -2   4  -3   61.36    5.27
  -2   4  -3   62.28    4.70
  -3   4  -3  274.35   11.90
  -3   4  -3  288.26   13.36
  -3  -4  -3  296.66   13.61
  -3   4  -3  288.99   11.61
  -4  -4  -3  504.35   20.00
  -4   4  -3  455.17   16.54
  -4   4  -3  500.54   19.97
  -5  -4  -3   36.29    4.76
  -6  -4  -3    2.82    1.84
  -7  -4  -3  113.89    7.78
  -7   4  -3  105.33    7.67
  -8  -4  -3   58.65    5.08
  -8   4  -3   57.26    5.12
  -9  -4  -3    1.73    1.30
 -10   4  -3    1.42    0.76
 -10  -4  -3    1.04    0.89
 -12   5   3    9.76    1.64
  11   5  -3   47.05    3.46
 -11   5   3   48.11    4.20
  10   5  -3   47.64    3.97
 -10   5   3   56.22    5.06
   9   5  -3   19.13    2.78
  -9   5   3   21.64    3.49
   8   5  -3   69.11    5.20
  -8   5   3   79.44    6.88
   7   5  -3  330.84   15.92
   7   5  -3  307.25   12.19
   6   5  -3  448.09   19.09
   6   5  -3  423.38   14.58
   5   5  -3  417.07   18.05
   5   5  -3  429.69   19.32
   4   5  -3 1142.30   35.24
   4   5  -3 1198.24   38.23
   3   5  -3 2652.83   63.19
   3   5  -3 2580.39   70.12
   3   5  -3 2495.95   66.52
   2   5  -3 2608.18   61.93
   2   5  -3 2414.53   66.90
   1   5  -3 2060.12   48.23
   1   5  -3 1873.42   50.42
   1   5  -3 1885.29   52.63
   1   5  -3 1904.50   50.83
   0   5  -3 2831.92   73.41
   0   5  -3 3084.64   73.36
  -1   5  -3 3384.81   83.72
  -1   5  -3 3508.48   82.34
  -2   5  -3 1799.07   49.43
  -2  -5  -3 1914.73   51.61
  -2   5  -3 1783.34   50.86
  -2   5  -3 1885.91   48.65
  -3   5  -3  926.06   28.53
  -3   5  -3  880.94   30.64
  -3   5  -3  931.94   27.87
  -4   5  -3 1069.82   34.98
  -4   5  -3  983.51   30.32
  -5  -5  -3  951.36   29.48
  -5   5  -3  874.66   30.40
  -6  -5  -3  220.58   10.84
  -6   5  -3  199.08   11.32
  -7  -5  -3   61.88    5.06
  -8  -5  -3  105.74    6.17
  -9  -5  -3   58.31    3.74
  11   6  -3   -0.12    0.77
 -11   6   3    0.38    0.70
 -10   6   3    0.51    1.03
   9   6  -3    1.81    1.52
  -9   6   3    2.98    1.44
  -8   6   3   32.47    3.95
   8   6  -3   38.43    4.80
   7   6  -3   74.77    7.34
   7   6  -3   82.87    6.84
   6   6  -3   74.40    7.51
   6   6  -3   83.49    7.90
   5   6  -3  193.28   12.00
   5   6  -3  168.31    8.72
   5   6  -3  207.93   13.37
   4   6  -3  349.82   13.28
   4   6  -3  349.14   16.56
   3   6  -3  268.19   10.79
   3   6  -3  264.81   14.94
   2   6  -3  128.53    9.62
  -2   6   3  132.26    7.31
   2   6  -3  130.96    8.46
   1   6  -3  133.30    9.04
   1   6  -3  128.52    8.20
   0   6  -3   68.07    6.45
   0   6  -3   77.90    6.98
   0   6  -3   68.74    5.86
  -1   6  -3   -0.53    1.93
  -1   6  -3   -0.65    1.61
  -2   6  -3   31.51    4.22
  -2   6  -3   35.62    4.98
  -2   6  -3   33.83    3.99
  -3   6  -3   23.82    3.61
  -3   6  -3   26.24    4.38
  -3   6  -3   29.24    3.61
  -4   6  -3   41.85    5.22
  -5   6  -3   76.67    6.51
  -6   6  -3   48.34    4.86
  -7   6  -3   11.14    2.25
   8   6   3    8.70    1.61
  -9   6  -3    4.31    0.90
  10   7  -3  103.60    4.71
   9   7  -3  123.10    6.35
   9   7  -3  141.24    7.04
   8   7  -3  237.99   10.43
   8   7  -3  308.11   13.11
   7   7  -3  627.31   20.54
   7   7  -3  587.80   21.71
   6   7  -3  464.17   16.80
   6   7  -3  476.62   20.68
   5   7  -3  345.26   17.79
   5   7  -3  308.89   15.96
   4   7  -3  498.79   22.70
   3   7  -3  679.47   26.43
   3   7  -3  601.68   23.39
   2   7  -3  287.15   15.05
  -2   7   3  255.27   10.91
   2   7  -3  265.89   13.39
   1   7  -3   78.99    6.68
  -1   7   3   77.07    6.11
   0   7  -3  225.33   12.59
   0   7   3  256.80   12.71
   0   7  -3  241.36   12.07
   1   7   3  376.69   16.66
  -1   7  -3  370.65   17.72
  -1   7  -3  336.89   14.71
  -2   7  -3   92.43    7.23
  -2   7  -3  104.98    8.41
  -2   7  -3   89.07    6.68
  -3   7  -3   51.88    5.43
  -3   7  -3   42.75    4.24
  -3   7  -3   46.59    4.84
  -4   7  -3  209.36   10.85
  -5   7  -3  233.24   10.88
   6   7   3   92.06    6.19
  -6   7  -3   75.18    5.13
   7   7   3   57.25    4.02
   8   8  -3    1.50    1.24
   7   8  -3    4.02    1.96
   7   8  -3    3.35    1.45
   6   8  -3    1.37    2.07
   6   8  -3    2.72    2.07
   5   8  -3   33.93    5.08
   4   8  -3   77.23    7.71
   4   8  -3   52.46    5.89
   3   8  -3   45.38    6.03
   3   8  -3   39.52    4.96
   2   8  -3   17.80    3.47
   1   8  -3   34.28    4.97
  -1   8   3   33.41    3.61
   1   8  -3   39.52    4.73
   0   8  -3   43.31    5.32
   0   8   3   52.76    4.98
   0   8  -3   49.35    5.05
  -1   8  -3    2.58    2.02
   1   8   3    1.00    1.53
  -1   8  -3    3.17    1.63
  -2   8  -3    2.92    1.45
   2   8   3    3.37    1.43
   2   8   3    3.88    2.18
  -2   8  -3    2.41    1.85
   3   8   3    0.10    1.10
   3   8   3    0.69    1.77
   4   8   3    0.18    1.13
   4   8   3    0.58    1.45
   5   8   3    5.33    1.51
   6   8   3    7.34    1.32
   6   8   3    8.98    1.53
   6   9  -3   87.55    5.55
   5   9  -3  137.29    7.91
   4   9  -3  189.56   10.42
   4   9  -3  174.74    9.31
   3   9  -3  240.42   12.14
   3   9  -3  226.74   10.77
   2   9  -3  229.09   10.71
   1   9  -3  249.81   10.94
   1   9  -3  257.19   12.01
   0   9  -3  305.92   12.92
   0   9   3  299.23   11.28
   0   9  -3  308.70   11.92
  -1   9  -3  293.72   12.02
   1   9   3  310.82   11.79
  -1   9  -3  275.94   10.41
   2   9   3  246.15   10.54
   3   9   3  210.90    9.28
  14   0  -4    7.98    1.23
  13   0  -4   62.35    4.20
  12   0  -4   72.28    5.14
  11   0  -4   71.60    5.66
 -11   0   4   94.46    7.07
 -10   0   4  441.98   17.93
  -9   0   4 1339.88   39.86
  -8   0   4 1108.69   34.04
   7   0  -4 1164.57   31.52
  -7   0   4 1037.75   32.22
   6   0  -4 3374.35   80.55
   5   0  -4 5254.34  119.65
   5   0  -4 5220.23  118.88
  -5   0   4 4950.75  120.10
   4   0  -4 3048.67   67.90
   4   0  -4 2924.93   67.50
  -4   0   4 2884.37   67.61
   3   0  -4 2487.62   58.94
   3   0  -4 2445.71   58.42
  -3   0   4 2532.36   60.05
   2   0  -4 5046.74  116.66
   2   0  -4 5185.98  116.19
  -2   0   4 4789.27  118.43
   2   0  -4 5164.17  115.35
   1   0  -4 3973.32   93.47
   1   0  -4 4131.42   93.63
  -1   0   4 4105.88   96.37
   0   0  -4  517.00   15.07
   0   0  -4  480.28   14.62
   0   0  -4  509.12   15.40
  -1   0  -4  258.94    9.99
  -1   0  -4  256.93    9.84
  -1   0  -4  248.30    9.47
  -2   0  -4 1598.61   39.37
  -2   0  -4 1577.03   41.62
  -3   0  -4  727.79   21.12
  -4   0  -4   17.88    2.87
  -4   0  -4   21.10    2.81
  -5   0  -4   22.90    3.61
  -5   0  -4   30.08    3.48
  -6   0  -4  444.06   17.25
  -7   0  -4  175.25    9.33
  -8   0  -4    5.94    1.75
  -9   0  -4   55.27    4.22
 -10   0  -4  105.79    5.03
  14   1  -4    0.30    0.64
  14  -1  -4    0.57    0.48
  13   1  -4    4.50    1.12
  13   1  -4    4.68    1.50
  13  -1  -4    4.40    1.26
  12  -1  -4   26.92    2.94
  12   1  -4   24.96    3.23
 -12   1   4   31.96    3.89
  11  -1  -4   29.53    3.38
  11   1  -4   23.61    3.51
 -11   1   4   32.60    4.25
  10  -1  -4   11.46    2.44
  10   1  -4   11.33    2.66
 -10   1   4   13.67    3.16
   9  -1  -4   55.18    4.96
  -9  -1   4   79.13    6.79
   8  -1  -4  124.33    7.32
   8   1  -4  108.70    7.29
  -8  -1   4  124.28    8.19
   7   1  -4    5.70    1.81
  -7  -1   4    9.67    2.23
   7  -1  -4    6.36    1.66
  -7   1   4    5.07    2.02
   6  -1  -4   57.57    4.09
   6   1  -4   59.29    4.33
  -6   1   4   67.41    5.23
   5  -1  -4   43.74    3.26
  -5  -1   4   44.83    3.15
   5  -1  -4   42.63    3.05
   5   1  -4   34.00    2.95
  -5  -1   4   43.71    3.03
  -5   1   4   40.60    2.92
  -5   1   4   39.01    3.54
   4   1  -4   82.65    4.51
   4  -1  -4   84.88    4.63
  -4  -1   4   94.31    4.79
   4   1  -4   83.29    4.93
  -4  -1   4   91.21    4.42
  -4   1   4   86.53    4.27
   4  -1  -4   77.88    4.10
  -4   1   4   78.82    4.66
  -3  -1   4 1028.23   26.07
   3   1  -4  995.34   25.60
   3   1  -4  971.73   26.04
   3  -1  -4  952.38   24.76
  -3   1   4  958.53   24.56
   2   1  -4 1837.16   44.95
   2   1  -4 1788.98   45.31
   2  -1  -4 1882.36   43.24
  -2  -1   4 1871.55   45.88
   1  -1  -4  758.65   20.01
   1  -1  -4  768.03   20.61
  -1  -1   4  775.51   21.84
   1   1  -4  744.10   20.40
   0  -1  -4  536.73   16.20
   0  -1  -4  542.37   16.01
   0  -1  -4  541.12   16.62
   0   1  -4  573.94   18.68
   0   1  -4  542.13   16.07
   0  -1   4  558.84   17.42
  -1  -1  -4 1161.40   30.38
  -1  -1  -4 1231.44   32.47
  -1  -1  -4 1201.72   32.01
  -1   1  -4 1196.62   31.00
  -1   1  -4 1242.23   31.77
   1  -1   4 1189.69   32.11
  -2   1  -4  599.96   17.03
  -2  -1  -4  666.10   20.68
  -2   1  -4  637.83   19.19
  -3   1  -4   11.59    2.19
  -3   1  -4    9.14    1.81
  -4   1  -4    1.33    1.36
  -4  -1  -4    1.65    1.40
  -4   1  -4    0.44    1.26
  -4   1  -4    0.09    1.06
  -5   1  -4   18.63    3.07
  -5  -1  -4   14.69    3.04
  -5   1  -4   15.60    2.84
  -6   1  -4    0.96    1.36
  -6  -1  -4    1.26    1.58
  -6   1  -4    1.14    1.29
  -7   1  -4   58.05    4.93
  -7  -1  -4   55.20    5.17
  -7   1  -4   63.03    4.93
  -8   1  -4   21.75    2.82
  -8  -1  -4   22.86    3.09
  -8   1  -4   22.82    2.62
  -9   1  -4   -0.07    0.94
  -9  -1  -4    0.60    1.08
 -10  -1  -4    1.40    0.93
 -13   2   4   71.32    4.84
  12  -2  -4   76.18    4.55
 -12   2   4   76.01    5.72
  11  -2  -4   64.87    4.66
  11   2  -4   61.04    5.39
  10  -2  -4  126.26    7.09
  10   2  -4  114.64    7.95
   9  -2  -4  222.22   10.08
   9   2  -4  206.14   11.06
   8  -2  -4  158.98    7.95
   8   2  -4  155.59    8.84
  -8   2   4  153.01   10.21
   7  -2  -4   70.71    4.64
   7   2  -4   67.08    5.13
  -7   2   4   56.88    5.89
   6  -2  -4  307.97   10.45
   6   2  -4  283.74   11.00
  -6   2   4  284.16   12.90
   5  -2  -4  653.92   17.90
   5  -2  -4  614.06   17.98
  -5  -2   4  640.61   19.31
  -5  -2   4  632.09   18.31
   5   2  -4  623.23   18.54
  -5   2   4  644.79   18.38
  -5   2   4  624.64   19.92
  -4  -2   4  227.02    9.15
   4   2  -4  256.83   10.80
   4   2  -4  226.37    8.75
  -4  -2   4  280.59    9.28
  -4   2   4  253.47    8.92
  -4   2   4  219.34    8.85
   4   2  -4  274.28   10.98
   3   2  -4  445.13   16.33
  -3  -2   4  400.48   12.93
   3   2  -4  392.34   13.79
   3   2  -4  391.91   12.26
   3   2  -4  418.74   14.34
  -3  -2   4  386.53   11.64
  -3   2   4  360.04   11.40
   2   2  -4 1917.73   48.00
  -2  -2   4 1978.28   48.73
   2   2  -4 2084.52   53.22
   2   2  -4 1909.45   49.19
   2  -2  -4 2007.21   45.78
   2   2  -4 1952.35   47.71
   2   2  -4 1973.26   50.08
   1   2  -4 2374.44   56.83
   1  -2  -4 2322.66   56.08
   1   2  -4 2570.83   62.10
   1   2  -4 2302.14   57.53
   1   2  -4 2399.28   56.51
   1   2  -4 2411.87   59.27
  -1  -2   4 2331.45   57.57
   0  -2  -4 1253.81   33.19
   0   2  -4 1252.69   33.07
   0   2  -4 1318.03   33.28
   0   2  -4 1393.69   37.35
   0   2  -4 1283.52   32.63
   0   2  -4 1339.94   35.18
   0  -2  -4 1230.12   34.37
   0  -2   4 1239.18   33.50
  -1  -2  -4 1698.56   46.93
  -1   2  -4 1859.63   44.95
  -1   2  -4 1841.59   44.87
  -1  -2  -4 1720.07   46.60
  -2   2  -4 2983.08   73.55
  -2   2  -4 3091.69   75.89
  -2   2  -4 3105.11   74.10
  -3   2  -4 2112.42   53.18
  -3   2  -4 2060.60   53.26
  -3   2  -4 2108.23   53.50
  -4   2  -4  838.22   25.49
  -4  -2  -4  766.76   26.13
  -4   2  -4  855.85   26.03
  -4   2  -4  816.17   25.39
  -5   2  -4  829.89   24.46
  -5   2  -4  728.84   25.13
  -6   2  -4  970.82   27.38
  -6   2  -4  855.50   28.01
  -7   2  -4  401.71   13.96
  -7   2  -4  365.87   14.41
  -8   2  -4   78.50    5.14
  -9  -2  -4   69.94    4.74
 -10  -2  -4   56.64    3.57
  13   3  -4    1.51    0.84
  13   3  -4    0.70    0.84
  12   3  -4    2.05    1.40
 -12   3   4    1.87    1.55
  11   3  -4    7.93    2.20
 -11   3   4    5.95    2.18
  10   3  -4   78.01    6.25
 -10   3   4   86.50    6.98
   9   3  -4    6.64    2.28
  -9   3   4   10.22    2.91
   8   3  -4    9.23    2.41
  -8   3   4    7.78    2.77
   7   3  -4   37.08    3.79
  -7   3   4   35.01    4.78
   6   3  -4  135.61    7.05
  -6   3   4  142.28    8.87
   6   3  -4  150.34    9.02
   5   3  -4   64.17    4.33
  -5   3   4   67.42    5.02
   5   3  -4   67.28    5.82
   4   3  -4  487.90   15.93
   4   3  -4  528.30   19.86
  -4   3   4  504.96   14.99
   4   3  -4  516.20   15.61
  -4   3   4  486.73   15.42
   4   3  -4  530.03   18.64
  -4  -3   4  499.69   14.99
   3   3  -4    9.82    1.66
   3   3  -4    8.08    2.02
   3   3  -4    7.41    2.36
  -3   3   4    6.09    1.11
   3   3  -4    6.96    1.38
   3   3  -4    9.70    2.22
  -3  -3   4    6.85    1.23
   2   3  -4    0.56    0.76
   2   3  -4    1.09    1.13
   2   3  -4    0.39    1.57
  -2  -3   4    0.88    0.56
  -2   3   4    0.59    0.43
   2   3  -4    2.15    0.89
   2   3  -4    2.44    1.31
   1   3  -4  962.10   26.46
   1   3  -4 1055.87   30.95
   1   3  -4 1015.37   26.54
   1   3  -4  963.20   28.36
   0   3  -4 1003.79   31.12
   0   3  -4 1043.10   27.57
  -1   3  -4    0.29    1.17
  -1   3  -4    0.29    0.69
  -1   3  -4    1.49    0.95
  -2   3  -4   -0.31    1.20
  -2   3  -4    0.15    0.75
  -3   3  -4  378.41   13.83
  -3  -3  -4  398.04   15.58
  -3   3  -4  363.17   14.96
  -4  -3  -4  108.92    8.21
  -4   3  -4   90.33    6.26
  -4   3  -4   96.13    7.20
  -5  -3  -4   70.28    6.74
  -5   3  -4   67.04    6.22
  -6  -3  -4   21.90    3.70
  -6   3  -4   15.86    3.04
  -7  -3  -4   23.73    3.50
  -7   3  -4   22.54    3.18
  -8  -3  -4    0.53    1.24
  -8   3  -4    0.63    1.05
  -9  -3  -4   23.20    2.62
 -10  -3  -4    1.80    0.80
  13   4  -4   15.26    1.71
  13   4  -4   15.40    1.58
  12   4  -4   38.95    3.31
 -12   4   4   38.84    3.51
  11   4  -4  101.72    6.32
 -11   4   4  104.57    6.78
  10   4  -4  141.97    8.23
 -10   4   4  151.34    9.09
   9   4  -4  158.23    9.10
  -9   4   4  183.15   10.68
   8   4  -4  440.64   16.70
  -8   4   4  412.32   18.44
   7   4  -4  848.74   25.03
   7   4  -4  837.91   28.03
   6   4  -4  914.28   26.36
  -6   4   4  897.57   28.42
   6   4  -4  876.46   30.24
   5   4  -4 1018.08   34.51
   5   4  -4 1092.60   29.53
  -5   4   4 1056.80   30.04
   5   4  -4 1069.79   34.21
   4   4  -4 1806.25   47.79
   4   4  -4 1867.10   54.46
   4   4  -4 1944.82   47.49
   4   4  -4 1926.08   52.11
   3   4  -4 2464.67   62.04
   3   4  -4 2551.72   68.70
   3   4  -4 2591.93   61.49
   3   4  -4 2477.01   65.16
   2   4  -4 1952.16   49.16
   2   4  -4 2012.07   55.07
   2   4  -4 1996.26   48.57
   2   4  -4 1850.63   51.33
   1   4  -4 1507.64   42.33
   1   4  -4 1517.28   37.44
   0   4  -4 1574.95   45.76
   0   4  -4 1694.78   42.08
   0   4  -4 1611.30   41.84
  -1   4  -4 1510.83   39.08
  -1   4  -4 1522.61   41.23
  -1   4  -4 1469.28   41.14
  -2   4  -4  734.46   24.80
  -2   4  -4  750.25   22.14
  -2   4  -4  754.09   24.11
  -2   4  -4  736.65   24.42
  -3   4  -4  394.13   14.44
  -3  -4  -4  397.18   17.19
  -3   4  -4  403.13   15.69
  -3   4  -4  375.05   16.43
  -4  -4  -4  431.93   18.59
  -5  -4  -4  330.52   14.90
  -5   4  -4  261.50   13.67
  -6  -4  -4  141.78    8.72
  -6   4  -4  130.43    8.43
  -7  -4  -4   89.47    6.28
  -7   4  -4   86.51    6.12
  -8  -4  -4   81.93    5.25
  -8   4  -4   78.16    5.05
  -9  -4  -4   43.10    3.16
 -12   5   4    1.12    0.80
  11   5  -4    0.25    1.17
  11   5  -4    0.62    0.85
 -11   5   4    0.51    0.98
  10   5  -4    1.10    1.15
 -10   5   4    0.39    1.19
   9   5  -4    9.26    2.05
   9   5  -4    7.70    1.93
  -9   5   4    7.94    2.18
   8   5  -4   25.85    3.30
  -8   5   4   19.71    3.36
   7   5  -4    2.87    1.39
  -7   5   4    1.25    1.42
   6   5  -4    0.67    1.25
   6   5  -4   -0.18    2.27
   6   5  -4    0.80    1.80
   6   5  -4   -0.09    0.83
   5   5  -4   65.37    5.26
   5   5  -4   56.92    6.92
   5   5  -4   55.86    4.38
   5   5  -4   50.97    6.20
   4   5  -4   82.93    5.81
   4   5  -4   87.58    8.88
   4   5  -4   93.88    5.60
   4   5  -4   90.42    7.82
   3   5  -4    6.12    1.66
   3   5  -4   10.07    2.83
   3   5  -4   11.13    3.60
   3   5  -4    5.82    1.47
   2   5  -4   19.25    2.58
   2   5  -4   19.55    4.14
   2   5  -4   21.53    3.53
   1   5  -4   50.18    5.89
   0   5  -4    9.45    2.48
   0   5  -4   12.94    2.16
   0   5  -4    9.48    2.44
  -1   5  -4   88.21    7.38
  -1  -5  -4   93.88    6.94
  -1   5  -4   96.04    5.79
  -1   5  -4   92.53    7.18
  -1   5  -4   94.61    6.94
  -2   5  -4   44.06    5.03
  -2  -5  -4   45.56    5.36
  -2   5  -4   44.36    5.28
  -2   5  -4   46.44    4.84
  -3   5  -4    7.03    2.17
  -3  -5  -4    8.42    2.62
  -3   5  -4    9.07    2.97
  -4  -5  -4    1.11    1.41
  -4   5  -4    0.93    2.03
  -5  -5  -4   62.12    5.56
  -5   5  -4   51.06    5.72
  -6  -5  -4   12.08    2.37
  -7  -5  -4    2.77    1.30
  -8  -5  -4    0.47    0.75
  -8   5  -4    0.24    0.80
  11   6  -4   93.30    5.04
  10   6  -4  110.19    6.36
 -10   6   4   98.28    5.25
   9   6  -4  108.13    7.16
   9   6  -4  128.60    6.97
   8   6  -4  298.70   13.60
   8   6  -4  387.35   15.59
   7   6  -4  741.11   22.96
   7   6  -4  656.67   24.63
   6   6  -4  341.46   14.71
   6   6  -4  376.34   18.19
   5   6  -4  322.52   13.40
   5   6  -4  353.63   18.42
   5   6  -4  305.61   16.33
   4   6  -4  826.47   25.43
   4   6  -4  757.88   28.82
   3   6  -4  947.14   27.55
   3   6  -4  997.22   35.47
   3   6  -4  902.22   31.04
   2   6  -4  379.02   19.07
  -2   6   4  368.50   13.86
   2   6  -4  390.51   16.67
   1   6  -4  245.43   13.82
   1   6  -4  248.76   12.93
   1   6  -4  234.40   12.16
   0   6  -4  613.08   23.23
   0   6  -4  603.31   21.90
  -1   6  -4  547.11   21.56
  -1   6  -4  542.52   22.10
  -1   6  -4  593.22   20.99
  -2   6  -4  130.40    8.78
  -2   6  -4  137.83    9.81
  -2   6  -4  147.35    8.89
  -3   6  -4  128.10    8.03
  -3   6  -4  128.64    9.34
  -4   6  -4  299.14   14.21
  -5   6  -4  206.72   10.52
  -6   6  -4   57.60    4.68
  -7   6  -4   58.70    4.09
   9   7  -4    1.61    1.08
   9   7  -4    2.21    1.03
   8   7  -4   -0.08    1.04
   8   7  -4    0.81    1.40
   7   7  -4   -0.37    1.19
   7   7  -4    1.13    2.02
   7   7  -4    1.09    1.35
   6   7  -4    0.19    1.23
   6   7  -4    0.99    2.36
   6   7  -4    0.46    1.76
   5   7  -4   13.76    2.38
   5   7  -4   17.85    3.94
   5   7  -4   16.53    4.10
   4   7  -4   61.63    7.58
   4   7  -4   57.25    6.37
   3   7  -4   59.79    7.46
   2   7  -4   43.36    6.03
   2   7  -4   33.23    4.63
  -1   7   4   42.66    4.26
   1   7  -4   42.30    5.16
   0   7  -4   52.42    6.01
   0   7   4   55.19    5.33
   0   7  -4   61.52    6.89
   0   7  -4   53.21    5.46
  -1   7  -4   18.51    3.34
  -1   7  -4   18.68    3.75
  -1   7  -4   21.43    4.03
  -2   7  -4    0.45    1.26
  -2   7  -4    0.73    1.74
  -3   7  -4    1.35    1.58
  -4   7  -4    0.10    1.18
  -5   7  -4    6.31    1.73
   6   7   4    5.88    1.54
  -6   7  -4    4.64    1.21
   8   8  -4   57.12    3.81
   7   8  -4   95.09    6.43
   6   8  -4   68.90    5.57
   6   8  -4   60.50    5.80
   5   8  -4   98.84    7.81
   5   8  -4   79.09    6.99
   4   8  -4  248.09   13.98
   3   8  -4  325.81   15.77
   3   8  -4  259.80   13.20
   2   8  -4  230.12   12.90
   2   8  -4  218.76   11.46
   1   8  -4  289.63   13.31
   0   8  -4  449.23   17.65
   0   8   4  477.40   15.78
   1   8   4  478.87   17.15
  -1   8  -4  486.49   17.22
   2   8   4  348.21   14.33
   3   8   4  320.85   13.29
   4   8   4  334.35   12.35
   4   9  -4    7.38    2.01
   4   9  -4    8.35    2.32
   3   9  -4   43.30    4.56
   3   9  -4   40.27    3.97
   2   9  -4   66.18    5.44
   2   9  -4   49.80    4.35
   1   9  -4   31.50    3.29
   0   9  -4   15.27    2.12
  14   0  -5   -0.04    0.50
  13   0  -5    0.66    0.87
  12   0  -5   -0.24    1.13
  11   0  -5    1.02    1.23
  10   0  -5    0.66    1.07
  10   0  -5    0.12    1.46
   9   0  -5    0.63    1.10
   9   0  -5   -0.12    1.20
   8   0  -5   -0.21    1.05
   8   0  -5    1.14    1.43
   7   0  -5    0.39    1.09
   7   0  -5   -1.36    1.19
   6   0  -5    1.86    1.20
   6   0  -5    0.08    0.88
   5   0  -5    0.31    0.87
   5   0  -5    3.39    1.29
   4   0  -5    0.64    0.83
   4   0  -5    0.67    0.77
   3   0  -5    1.73    0.85
   2   0  -5    2.32    0.94
   2   0  -5    0.04    0.45
   1   0  -5    0.13    0.66
   1   0  -5    0.56    0.59
   1   0  -5    1.56    1.02
   0   0  -5   11.27    1.92
   0   0  -5    5.54    1.60
  -1   0  -5   -0.38    1.04
  -2   0  -5    1.12    1.42
  -2   0  -5    0.50    0.82
  -3   0  -5   -0.25    0.89
  -4   0  -5    0.74    1.42
  -4   0  -5    0.29    1.03
  -5   0  -5   -0.50    1.47
  -6   0  -5    0.32    1.23
  -7   0  -5    1.67    1.37
  -8   0  -5    0.13    0.80
  -9   0  -5    0.40    0.65
  14   1  -5   26.29    2.12
  13   1  -5   70.77    4.46
  13  -1  -5   69.25    4.04
  12   1  -5   64.63    4.35
  12  -1  -5   59.90    4.37
  12   1  -5   63.64    4.86
  11   1  -5   87.15    5.84
  11  -1  -5   79.40    5.64
  11   1  -5   77.08    6.01
  10  -1  -5  282.93   12.40
  10   1  -5  285.43   13.34
   9  -1  -5  462.22   16.84
   9   1  -5  402.79   17.06
   8  -1  -5  192.72    9.58
   8   1  -5  186.13   10.09
  -8   1   5  160.91   10.88
   7   1  -5  347.64   14.07
   7  -1  -5  319.48   12.68
   7   1  -5  333.79   13.44
  -7   1   5  316.05   14.60
   6   1  -5 1384.38   36.76
   6  -1  -5 1305.65   35.35
   6   1  -5 1304.30   35.87
   5  -1  -5 1586.68   39.30
   5   1  -5 1516.41   39.73
   5  -1  -5 1459.81   38.29
   5   1  -5 1448.95   38.71
   4   1  -5  316.62   11.80
   4  -1  -5  328.50   11.06
   4   1  -5  304.04   11.10
   3   1  -5  497.35   15.88
   3  -1  -5  480.66   15.24
   3   1  -5  441.76   15.07
   3  -1  -5  551.82   16.58
   3   1  -5  615.98   20.84
  -3  -1   5  533.93   17.59
   2  -1  -5 2516.20   61.68
   2  -1  -5 2494.22   62.90
   2   1  -5 2660.40   67.63
  -2  -1   5 2657.56   65.12
   1  -1  -5 1791.35   44.78
   1  -1  -5 1705.03   45.66
   1   1  -5 1747.70   45.19
   0  -1  -5  131.43    7.47
   0  -1  -5  353.01   11.72
  -1  -1  -5  867.48   26.86
  -2  -1  -5 1815.89   49.03
  -2   1  -5 1752.22   46.96
  -2   1  -5 1762.39   45.44
  -3   1  -5  818.66   26.27
  -3   1  -5  836.99   25.45
  -3   1  -5  814.80   24.72
  -4   1  -5  185.29   10.27
  -4  -1  -5  187.95   10.54
  -4   1  -5  200.54    9.85
  -5  -1  -5  359.73   16.01
  -5   1  -5  378.44   14.97
  -6   1  -5  533.54   18.10
  -6  -1  -5  485.40   18.27
  -6   1  -5  520.14   17.31
  -7   1  -5  153.24    7.57
  -7  -1  -5  140.37    7.73
  -8   1  -5   44.91    3.38
  -8  -1  -5   37.48    3.31
  -9  -1  -5   65.79    3.77
  13   2  -5   -0.05    0.70
  12   2  -5    1.03    1.08
  11  -2  -5   11.94    2.05
 -11   2   5   11.70    2.90
  10  -2  -5   43.44    4.11
 -10   2   5   53.46    5.89
   9  -2  -5    5.44    1.69
  -9   2   5    3.46    2.24
   8  -2  -5    2.44    1.30
   8   2  -5    0.72    1.36
  -8   2   5    0.63    1.61
   7  -2  -5  208.64    9.14
   7   2  -5  182.18    9.50
  -7   2   5  176.65   10.59
   6   2  -5  256.23   11.54
   6  -2  -5  262.09   10.08
   6   2  -5  228.32   10.39
  -6   2   5  251.81   11.70
   5   2  -5    9.10    2.01
   5  -2  -5   12.06    1.79
   5   2  -5   10.25    1.93
   4   2  -5    8.39    1.81
   4   2  -5   11.19    2.65
   4  -2  -5    9.91    1.60
   4   2  -5    8.90    1.69
   3  -2  -5  147.07    6.64
   3   2  -5  141.87    6.83
   2   2  -5    7.68    2.23
   2  -2  -5    6.41    1.64
   1  -2  -5  490.19   15.67
   1   2  -5  457.94   15.40
   1  -2  -5  468.62   16.81
   1   2  -5  499.68   18.66
   0  -2  -5  286.40   12.82
   0   2  -5  295.68   11.33
   0   2  -5  286.36   11.39
   0   2  -5  305.70   13.60
  -1  -2  -5    5.89    2.08
  -1   2  -5    0.26    1.02
  -2   2  -5   61.97    5.07
  -2   2  -5   59.65    4.93
  -3   2  -5  329.09   13.50
  -3   2  -5  320.85   13.47
  -3   2  -5  283.77   12.61
  -4   2  -5   39.71    4.46
  -4   2  -5   52.70    4.88
  -4   2  -5   40.77    4.45
  -5   2  -5    9.56    2.11
  -5   2  -5    8.45    2.31
  -6   2  -5    5.10    1.70
  -7  -2  -5   17.03    2.70
  -7   2  -5   18.42    2.40
  -8  -2  -5    0.85    0.97
  -9  -2  -5    7.97    1.33
  13   3  -5   14.19    1.71
  13   3  -5   14.79    1.88
  12   3  -5   24.64    2.79
  12   3  -5   23.30    2.91
  11   3  -5   50.69    4.72
  11   3  -5   50.83    4.83
 -11   3   5   56.62    5.18
  10   3  -5  130.76    8.38
 -10   3   5  132.83    8.79
   9   3  -5  198.30   10.61
  -9   3   5  178.40   10.90
   8   3  -5  290.43   12.79
  -8   3   5  226.56   12.86
   7   3  -5  677.02   23.76
   7   3  -5  726.30   22.63
   6   3  -5 1440.58   38.57
  -6   3   5 1435.76   39.93
   6   3  -5 1343.57   41.11
   5   3  -5 1897.57   48.24
   5   3  -5 1847.22   52.80
   4   3  -5 2115.93   53.06
   4   3  -5 1932.83   57.72
   4   3  -5 2063.36   52.05
   4   3  -5 2111.26   56.77
   3   3  -5 2728.52   67.38
   3   3  -5 2711.32   74.59
   3   3  -5 2799.60   67.03
   3   3  -5 2663.42   71.14
   2   3  -5 3406.81   87.36
   2   3  -5 3310.26   79.39
   2   3  -5 3186.93   82.97
   1   3  -5 2831.44   73.34
   1   3  -5 2727.02   66.47
   0   3  -5 1896.88   48.06
   0   3  -5 1871.53   47.95
   0   3  -5 1780.06   50.49
  -1   3  -5 1315.15   36.23
  -2   3  -5  956.90   28.51
  -2   3  -5  981.41   29.67
  -3   3  -5  470.20   17.47
  -3  -3  -5  471.31   18.97
  -3   3  -5  489.90   18.39
  -4  -3  -5  207.57   11.84
  -4   3  -5  192.86   10.90
  -5  -3  -5  149.59    9.36
  -5   3  -5  135.63    8.73
  -6  -3  -5   93.30    6.65
  -6   3  -5   94.07    6.33
  -7  -3  -5   41.69    3.91
  -7   3  -5   42.58    3.63
  -8  -3  -5   27.42    2.69
  -8   3  -5   26.72    2.30
  -9  -3  -5   20.88    1.80
  13   4  -5    1.00    0.60
  12   4  -5    7.48    1.59
  12   4  -5    6.35    1.44
  11   4  -5    2.43    1.48
  11   4  -5    1.24    1.18
 -11   4   5    2.18    1.41
  10   4  -5    6.10    2.24
  10   4  -5    5.43    2.00
 -10   4   5    4.65    1.95
   9   4  -5   95.14    6.95
  -9   4   5   89.28    7.09
   8   4  -5  175.97    9.55
  -8   4   5  145.71    9.54
   7   4  -5   35.11    4.49
   7   4  -5   30.50    3.78
  -7   4   5   35.22    4.33
   7   4  -5   33.97    4.55
   6   4  -5   48.97    4.89
   6   4  -5   45.57    4.38
   6   4  -5   49.44    5.96
   5   4  -5  360.31   14.76
   5   4  -5  379.30   17.90
   5   4  -5  363.95   13.88
   5   4  -5  380.07   18.00
   4   4  -5  165.68    8.80
   4   4  -5  171.08   12.39
   4   4  -5  156.21    8.10
   4   4  -5  178.36   11.36
   3   4  -5   56.41    4.80
   3   4  -5   65.64    7.79
   3   4  -5   56.08    4.60
   3   4  -5   64.76    6.51
   2   4  -5   74.59    8.08
   2   4  -5   64.66    5.00
   2   4  -5   64.58    6.31
   1   4  -5    4.92    2.26
   1   4  -5    5.05    2.59
   1   4  -5    7.05    1.77
   1   4  -5    5.31    1.75
   0   4  -5   74.43    7.47
   0   4  -5   77.15    5.68
   0   4  -5   79.68    5.73
  -1   4  -5  528.81   18.33
  -1   4  -5  526.97   20.17
  -1   4  -5  550.53   19.99
  -2   4  -5  205.65    9.90
  -2  -4  -5  202.75   11.11
  -3  -4  -5   13.38    3.43
  -3   4  -5   10.54    2.27
  -4  -4  -5   68.86    6.73
  -4   4  -5   66.70    6.53
  -5  -4  -5  110.57    7.71
  -5   4  -5  102.22    7.43
  -6  -4  -5    3.80    1.66
  -6   4  -5    4.44    1.66
  -7  -4  -5    5.62    1.52
  -7   4  -5    6.45    1.62
  -8  -4  -5    1.76    0.86
  11   5  -5  134.24    7.16
  11   5  -5  149.27    6.56
  10   5  -5  143.25    8.44
  10   5  -5  150.11    7.54
   9   5  -5  153.11    9.36
   9   5  -5  165.68    8.52
   8   5  -5  283.40   13.76
   8   5  -5  282.82   12.34
   7   5  -5  317.88   14.96
   7   5  -5  332.67   13.54
   6   5  -5  171.51    9.81
   6   5  -5  171.10    8.85
   6   5  -5  161.10   11.74
   5   5  -5  107.20    7.37
   5   5  -5  110.09    9.74
   5   5  -5  110.55    6.79
   5   5  -5  112.87    9.77
   4   5  -5  243.80   11.31
   4   5  -5  251.02   16.72
   4   5  -5  245.34   10.90
   4   5  -5  250.05   14.70
   3   5  -5  201.96    9.89
   3   5  -5  218.50   15.36
   3   5  -5  201.29    9.68
   3   5  -5  201.24   12.30
   2   5  -5   43.66    6.53
   2   5  -5   44.37    4.17
   2   5  -5   39.00    5.24
   1   5  -5   99.26    9.41
   1   5  -5  102.64    6.67
   1   5  -5  114.50    7.02
   1   5  -5  103.91    7.79
   0   5  -5  353.99   17.50
   0   5  -5  378.29   14.31
   0   5  -5  355.57   16.01
  -1   5  -5  298.47   12.25
  -1  -5  -5  297.29   14.02
  -1   5  -5  300.55   14.08
  -1   5  -5  278.21   14.19
  -2   5  -5  167.45    8.75
  -2  -5  -5  170.45   10.71
  -2   5  -5  174.59   10.02
  -2   5  -5  159.49   10.69
  -3  -5  -5  312.92   14.65
  -3   5  -5  278.39   14.65
  -4  -5  -5  466.91   17.17
  -4   5  -5  365.22   16.83
  -5  -5  -5  288.35   11.99
  -6  -5  -5  140.99    6.79
  -6   5  -5  130.68    7.11
  -7  -5  -5  123.14    5.33
  -7   5  -5  123.58    5.82
  11   6  -5    2.48    0.96
  10   6  -5    7.87    1.90
   9   6  -5   11.93    2.48
   8   6  -5   32.99    4.09
   8   6  -5   39.57    4.17
   7   6  -5   88.61    6.75
   7   6  -5  110.98    8.37
   6   6  -5   78.37    6.30
   6   6  -5   99.29    7.81
   6   6  -5   95.99    8.71
   5   6  -5   37.50    4.14
   5   6  -5   43.84    6.37
   5   6  -5   49.94    6.44
   4   6  -5   53.16    7.71
   4   6  -5   51.84    5.57
   4   6  -5   43.29    6.16
   3   6  -5   54.25    7.59
   3   6  -5   42.52    5.20
   3   6  -5   43.40    5.79
   2   6  -5   -0.16    2.22
   2   6  -5    2.33    1.79
   2   6  -5    1.62    1.33
   1   6  -5   30.04    5.48
   1   6  -5   36.34    3.79
   1   6  -5   25.55    4.29
   0   6  -5   39.26    5.19
   0   6  -5   35.37    4.76
  -1   6  -5   33.55    4.42
  -1   6  -5   32.29    4.97
  -2   6  -5   74.88    7.09
  -3   6  -5   73.48    6.71
  -4   6  -5   26.79    3.73
  -5   6  -5    8.99    2.07
  -6   6  -5    8.82    1.65
   8   7  -5  112.98    6.27
   8   7  -5  143.72    7.09
   7   7  -5  244.51   11.73
   6   7  -5  269.77   12.29
   6   7  -5  236.79   13.01
   5   7  -5  468.86   19.69
   5   7  -5  377.48   17.98
   4   7  -5  717.73   22.44
   4   7  -5  724.45   27.10
   3   7  -5  921.76   32.71
   3   7  -5  768.42   28.15
   2   7  -5  642.65   25.89
   1   7  -5  731.90   26.91
  -1   7   5  664.62   21.55
   1   7  -5  736.41   25.16
   0   7   5  859.89   26.69
   0   7  -5  947.44   31.37
   0   7  -5  860.70   28.20
   1   7   5  580.41   19.96
  -1   7  -5  590.24   21.54
  -2   7  -5  289.48   13.21
  -3   7  -5  279.56   11.70
   4   7   5  264.06   11.06
  -4   7  -5  235.56    9.71
   5   7   5   87.06    4.89
   7   8  -5   26.78    2.82
   6   8  -5   41.33    4.25
   5   8  -5   28.88    3.75
   5   8  -5   26.70    3.83
   4   8  -5   30.98    4.38
   4   8  -5   28.14    4.00
   3   8  -5   41.02    5.27
   2   8  -5   16.04    2.95
   1   8  -5   -0.10    1.34
   0   8  -5    2.60    1.50
   1   8   5    1.08    0.93
   2   8   5    5.96    1.47
  13   0  -6   31.54    2.60
  12   0  -6   12.82    2.17
  11   0  -6   14.68    2.68
  10   0  -6   72.67    6.20
   9   0  -6  109.17    7.36
   9   0  -6   98.37    7.61
   8   0  -6   22.63    3.47
   8   0  -6   18.23    3.31
   7   0  -6  106.07    7.39
   7   0  -6   92.70    6.81
   6   0  -6  726.48   23.66
   6   0  -6  720.42   22.94
   5   0  -6  666.37   20.90
   4   0  -6  502.50   16.81
   3   0  -6 1597.84   42.66
   3   0  -6 1699.88   44.12
   2   0  -6 2988.05   72.65
   2   0  -6 2947.80   73.88
   1   0  -6 2090.14   53.30
   1   0  -6 2056.32   54.34
   0   0  -6 1370.29   38.81
  -1   0  -6 2206.51   58.67
  -2   0  -6 1960.91   53.29
  -2   0  -6 1879.75   48.93
  -3   0  -6  641.41   22.23
  -3   0  -6  629.20   20.42
  -4   0  -6  281.65   13.53
  -5   0  -6  392.03   15.46
  -6   0  -6  228.90    9.98
  -7   0  -6   33.92    2.86
  13   1  -6    2.00    0.97
  12  -1  -6    2.77    1.12
  12   1  -6    1.79    1.32
  11   1  -6   10.96    2.19
  11  -1  -6   10.26    2.20
  11   1  -6    8.83    2.37
  10   1  -6    3.13    1.73
  10  -1  -6    3.65    1.74
  10   1  -6    2.90    1.91
   9   1  -6    9.17    2.65
   9  -1  -6    9.91    2.56
   9   1  -6    6.95    2.72
   8   1  -6   27.19    4.09
   8  -1  -6   26.31    3.71
   8   1  -6   27.11    4.12
   7   1  -6   35.66    4.48
   7  -1  -6   34.37    3.86
   7   1  -6   33.50    4.25
   6   1  -6  171.10    9.50
   6  -1  -6  154.60    8.17
   6   1  -6  153.78    8.64
   5   1  -6  505.74   18.46
   5  -1  -6  507.23   17.19
   5   1  -6  506.30   17.62
   4  -1  -6  478.10   16.14
   4   1  -6  472.34   16.53
   3  -1  -6  256.24   10.62
   3   1  -6  237.57   10.35
   2  -1  -6  401.79   14.55
   2   1  -6  403.59   14.67
   2  -1  -6  425.12   16.09
   2   1  -6  411.62   15.26
   1  -1  -6  442.43   15.61
   1   1  -6  410.82   15.13
   1  -1  -6  421.85   16.45
   1   1  -6  417.25   15.86
   0  -1  -6   83.54    6.66
   0   1  -6   59.91    5.28
  -1  -1  -6    2.44    1.83
  -2   1  -6    1.93    1.29
  -3   1  -6    0.64    1.52
  -3  -1  -6    0.12    1.66
  -3   1  -6    0.95    1.56
  -3   1  -6    0.41    1.00
  -4   1  -6   38.41    4.50
  -4  -1  -6   35.04    4.62
  -4   1  -6   33.66    3.87
  -5   1  -6   54.07    4.71
  -5  -1  -6   47.33    4.78
  -5   1  -6   53.00    4.22
  -6   1  -6    8.69    1.78
  -6  -1  -6    8.95    2.05
  -7  -1  -6    2.25    1.05
  -8  -1  -6    6.24    1.07
  13   2  -6   43.80    3.10
  12   2  -6   76.63    4.70
  11   2  -6  163.66    8.61
  10   2  -6  357.50   15.37
  10  -2  -6  366.75   13.54
   9   2  -6  494.37   20.72
   9  -2  -6  588.47   19.15
   8   2  -6  626.31   24.06
   8  -2  -6  649.12   21.23
   7   2  -6  949.32   31.85
   7  -2  -6 1018.05   29.20
   6   2  -6 1643.93   46.18
   6  -2  -6 1628.84   43.28
   5   2  -6 1263.78   36.99
   5   2  -6 1143.11   34.93
   4   2  -6  886.21   27.13
   4  -2  -6  943.82   26.36
   4   2  -6  988.25   32.83
   3  -2  -6 1079.84   29.79
   3   2  -6 1166.57   36.73
   2  -2  -6 1081.73   30.65
   2   2  -6 1030.90   30.50
   2  -2  -6 1061.42   33.01
   2   2  -6 1146.60   36.95
   1  -2  -6  444.96   18.26
   1   2  -6  433.06   16.00
   0  -2  -6  180.82   11.01
   0   2  -6  171.72    9.27
   0   2  -6  185.00    9.59
  -1   2  -6  320.54   13.67
  -1   2  -6  330.54   13.68
  -2   2  -6  301.83   13.53
  -2   2  -6  311.28   13.29
  -2   2  -6  287.03   12.90
  -3   2  -6   85.19    6.89
  -3   2  -6   89.83    6.80
  -3   2  -6   86.19    6.56
  -4   2  -6   71.07    5.85
  -5  -2  -6  164.35    9.11
  -5   2  -6  160.09    8.16
  -6  -2  -6  125.52    6.94
  -6   2  -6  131.64    6.31
  -7  -2  -6   42.13    3.24
  -8  -2  -6   34.33    2.28
  13   3  -6    4.70    1.03
  12   3  -6    8.30    1.68
  12   3  -6    8.11    1.72
  11   3  -6    0.29    1.25
  11   3  -6    0.10    1.21
  10   3  -6    1.94    1.91
  10   3  -6    0.12    1.45
   9   3  -6   19.55    3.75
   9   3  -6   17.96    3.49
   8   3  -6    0.98    2.10
   8   3  -6    1.02    1.73
   7   3  -6   57.90    6.24
   7   3  -6   55.42    5.26
   6   3  -6   49.30    5.51
   6   3  -6   51.77    4.91
   5   3  -6    1.48    1.92
   5   3  -6    3.77    1.63
   4   3  -6  108.12    6.93
   4   3  -6  128.43   10.24
   3   3  -6  499.11   17.95
   3   3  -6  532.61   22.85
   2   3  -6  114.53    7.31
   2   3  -6  129.47   10.01
   2   3  -6  112.74    7.38
   1   3  -6    4.22    1.73
   1   3  -6    1.64    1.45
   0   3  -6  124.49    7.81
  -1   3  -6  140.32    8.33
  -1   3  -6  136.02    8.79
  -2   3  -6    3.07    1.72
  -2   3  -6    1.42    1.51
  -3   3  -6   32.82    4.15
  -3  -3  -6   37.73    4.87
  -3   3  -6   31.06    4.21
  -4  -3  -6    1.38    1.70
  -4   3  -6    2.53    1.78
  -5  -3  -6    3.87    1.80
  -5   3  -6    5.24    1.75
  -6  -3  -6   18.98    2.60
  -6   3  -6   17.12    2.23
  -7  -3  -6   12.23    1.71
  12   4  -6   43.05    3.18
  12   4  -6   44.62    3.13
  11   4  -6   68.44    5.05
  11   4  -6   68.00    4.84
  10   4  -6   71.62    6.11
  10   4  -6   64.32    5.34
   9   4  -6   95.15    6.90
   8   4  -6  166.52    9.45
   7   4  -6  182.82    9.82
   6   4  -6  200.43   11.06
   6   4  -6  179.50    9.70
   6   4  -6  189.26   12.14
   5   4  -6  313.27   13.93
   5   4  -6  303.04   13.16
   4   4  -6  546.32   19.51
   4   4  -6  616.90   25.86
   3   4  -6  609.43   20.81
   3   4  -6  604.47   25.66
   2   4  -6  537.54   19.36
   2   4  -6  539.92   19.41
   2   4  -6  562.54   23.40
   1   4  -6  678.75   23.29
   1   4  -6  681.86   23.16
   0   4  -6  864.29   26.98
   0   4  -6  854.33   29.69
   0   4  -6  859.61   28.81
  -1   4  -6  626.46   21.54
  -2   4  -6  402.73   15.84
  -2  -4  -6  414.25   17.62
  -2   4  -6  364.79   16.89
  -3  -4  -6  366.89   16.66
  -3   4  -6  380.20   16.69
  -4  -4  -6  319.45   13.88
  -4   4  -6  302.98   13.85
  -5  -4  -6  188.08    8.85
  -5   4  -6  170.31    8.64
  -6  -4  -6   93.94    5.14
  -6   4  -6   93.61    5.06
  11   5  -6    3.25    0.93
  10   5  -6    2.71    1.66
  10   5  -6    2.79    1.25
   9   5  -6    0.97    1.67
   9   5  -6    0.09    1.07
   8   5  -6    3.45    2.09
   8   5  -6    2.92    1.49
   7   5  -6   15.84    3.21
   7   5  -6   20.01    3.57
   7   5  -6   16.36    2.77
   6   5  -6    3.59    1.91
   6   5  -6    4.54    2.49
   6   5  -6    2.59    1.46
   5   5  -6    6.63    2.16
   5   5  -6    7.90    3.41
   5   5  -6    8.15    2.07
   4   5  -6    1.11    2.69
   4   5  -6    0.54    1.12
   3   5  -6    2.28    2.75
   3   5  -6    7.67    2.10
   3   5  -6    3.42    1.68
   2   5  -6   30.93    3.88
   2   5  -6   33.27    4.15
   2   5  -6   35.44    5.57
   2   5  -6   28.23    4.44
   1   5  -6   66.88    5.64
   1   5  -6   63.71    6.92
   1   5  -6   67.46    6.63
   0  -5  -6    5.29    2.12
   0   5  -6    3.39    1.66
   0   5  -6    4.99    2.51
  -1  -5  -6    3.28    2.10
  -1   5  -6    4.04    1.77
  -1   5  -6    2.06    2.25
  -2   5  -6   31.77    3.74
  -2  -5  -6   27.54    4.22
  -2   5  -6   33.11    4.88
  -3  -5  -6   22.41    3.40
  -4  -5  -6   -0.09    0.99
  -5  -5  -6    0.17    0.79
  -5   5  -6    0.75    1.02
  -6   5  -6    3.94    0.94
   9   6  -6   80.17    5.52
   8   6  -6  181.90    9.29
   7   6  -6  262.48   12.28
   6   6  -6  257.29   14.00
   5   6  -6  531.49   20.02
   5   6  -6  510.27   22.83
   4   6  -6  725.26   24.03
   4   6  -6  794.62   29.84
   4   6  -6  821.33   27.24
   3   6  -6  652.16   21.59
   3   6  -6  671.28   26.22
   3   6  -6  658.53   24.38
   2   6  -6  479.47   17.30
   2   6  -6  492.91   20.80
   2   6  -6  477.59   20.17
   1   6  -6  636.49   20.92
   1   6  -6  689.97   25.09
   0   6  -6  577.12   22.34
   0   6  -6  729.04   25.51
  -1   6  -6  363.28   16.82
  -2   6  -6  189.29   10.91
  -3   6  -6  245.83   11.27
  -4   6  -6  180.23    8.17
  -5   6  -6   54.25    3.33
   7   7  -6   21.77    2.55
   7   7  -6   25.44    2.99
   6   7  -6   29.40    3.01
   6   7  -6   34.06    4.27
   5   7  -6   19.39    3.65
   5   7  -6   22.31    2.68
   4   7  -6   27.47    4.41
   3   7  -6   25.90    4.21
   2   7  -6    9.49    2.87
   2   7  -6   11.90    3.10
   1   7  -6    1.17    2.06
   0   7  -6    1.82    1.69
   1   7   6    1.74    1.17
  -1   7  -6    1.88    1.55
   2   7   6    7.83    1.71
  -2   7  -6    7.69    1.75
   5   8  -6  174.68    8.42
   4   8  -6  157.05    8.30
   3   8  -6   79.64    5.66
  12   0  -7   -0.06    0.83
  11   0  -7   -0.18    1.06
  10   0  -7   -0.12    1.35
   9   0  -7    0.81    1.64
   8   0  -7    6.21    2.35
   7   0  -7    1.56    1.80
   6   0  -7    0.36    1.40
   6   0  -7   -0.14    1.39
   5   0  -7    0.33    1.33
   5   0  -7    0.83    1.48
   4   0  -7    0.87    1.41
   4   0  -7   -0.14    1.31
   3   0  -7    2.04    1.51
   3   0  -7    0.92    1.54
   2   0  -7    0.99    1.51
   2   0  -7    1.44    1.59
   1   0  -7   -0.81    1.71
   0   0  -7    1.87    1.83
  -1   0  -7    0.59    1.63
  -1   0  -7    0.09    1.04
  -2   0  -7   -0.61    1.45
  -3   0  -7    0.38    1.56
  -4   0  -7    0.51    1.22
  -5   0  -7    0.58    0.95
  -6   0  -7   -0.39    0.65
  13   1  -7   27.27    2.13
  12   1  -7   37.21    3.28
  11  -1  -7  105.17    5.89
  11   1  -7   87.76    6.20
  10   1  -7  236.62   10.49
  10  -1  -7  215.81   10.14
   9   1  -7  226.51   11.66
   9  -1  -7  228.94   11.22
   9   1  -7  208.76   11.79
   8   1  -7  322.32   15.00
   8  -1  -7  307.35   13.93
   8   1  -7  306.40   14.85
   7  -1  -7  810.52   25.68
   7   1  -7  736.61   25.94
   6  -1  -7 1050.53   31.44
   6   1  -7 1060.10   32.35
   5  -1  -7  741.99   24.66
   5   1  -7  735.68   24.53
   4  -1  -7  606.30   21.73
   4   1  -7  654.33   22.18
   4   1  -7  657.46   23.18
   3  -1  -7 1278.06   36.51
   3   1  -7 1276.03   36.84
   3  -1  -7 1375.16   39.30
   3   1  -7 1243.30   37.81
   2  -1  -7 1237.64   35.56
   2   1  -7 1215.47   35.42
   2  -1  -7 1266.20   37.81
   2   1  -7 1193.45   36.14
   1   1  -7  460.12   17.53
   1  -1  -7  490.13   19.79
   1   1  -7  424.22   17.51
   0  -1  -7  376.13   17.11
   0   1  -7  350.31   15.49
  -1   1  -7  538.90   20.65
  -1   1  -7  556.04   18.97
  -2   1  -7  401.07   16.15
  -2  -1  -7  373.35   15.63
  -2   1  -7  363.45   14.39
  -3   1  -7   88.14    6.82
  -3  -1  -7   87.64    7.01
  -3   1  -7   85.59    5.83
  -4   1  -7   88.65    5.77
  -4  -1  -7   74.30    5.93
  -5  -1  -7  146.48    7.22
  -6  -1  -7   72.33    3.99
  12   2  -7    3.46    1.29
  11   2  -7    2.26    1.27
  11   2  -7    1.03    1.43
  10   2  -7    9.71    2.41
   9   2  -7   27.62    4.24
   8   2  -7    1.27    1.93
   7   2  -7    6.28    2.65
   7  -2  -7    6.85    2.03
   6  -2  -7    2.80    1.54
   5  -2  -7   19.39    3.02
   4  -2  -7   86.33    6.30
   4   2  -7   74.74    6.51
   3  -2  -7  173.74    9.38
   3   2  -7  159.66    9.74
   2  -2  -7   42.56    5.68
   2   2  -7   36.44    4.30
   2   2  -7   29.39    4.12
   1   2  -7   12.20    2.80
   1  -2  -7   23.37    4.48
   0   2  -7  134.74    8.38
  -1   2  -7   87.64    7.03
  -1   2  -7   97.30    6.83
  -1   2  -7   88.89    6.69
  -2   2  -7    0.38    1.65
  -2   2  -7    0.56    1.36
  -3  -2  -7    0.51    1.65
  -3   2  -7   -0.21    1.20
  -4  -2  -7    9.52    2.39
  -4   2  -7    9.00    1.88
  -5  -2  -7    0.28    0.97
  -6  -2  -7    6.37    1.21
  12   3  -7   47.37    3.32
  11   3  -7   73.35    4.84
  11   3  -7   70.77    5.05
  10   3  -7   75.69    5.91
  10   3  -7   73.88    5.89
   9   3  -7   60.02    6.11
   9   3  -7   73.60    6.34
   8   3  -7   92.97    8.04
   8   3  -7   95.05    7.30
   7   3  -7  141.25    9.93
   7   3  -7  140.24    8.91
   6   3  -7  122.34    8.18
   5   3  -7  126.45    8.19
   4   3  -7  202.98   10.61
   3   3  -7  371.82   15.15
   3   3  -7  329.28   14.73
   2   3  -7  455.71   17.53
   2   3  -7  415.53   17.22
   1   3  -7  413.50   16.72
   0   3  -7  507.98   19.00
   0   3  -7  514.25   19.81
  -1   3  -7  598.83   21.34
  -1   3  -7  601.25   21.71
  -2   3  -7  464.49   17.71
  -2  -3  -7  458.98   18.38
  -2   3  -7  460.76   18.03
  -3  -3  -7  292.25   13.41
  -3   3  -7  301.84   13.03
  -4  -3  -7  228.35   10.32
  -4   3  -7  233.18    9.81
  -5  -3  -7  169.16    7.40
  -5   3  -7  174.00    6.73
  -6  -3  -7   68.39    3.41
  11   4  -7   18.42    2.23
  10   4  -7   11.50    2.33
  10   4  -7   10.13    2.11
   9   4  -7    4.90    2.15
   9   4  -7    4.23    1.81
   8   4  -7   25.32    3.59
   7   4  -7   27.33    3.70
   6   4  -7    4.79    2.09
   5   4  -7   42.20    4.58
   5   4  -7   43.35    6.34
   4   4  -7   15.78    4.66
   4   4  -7   12.72    2.60
   4   4  -7   12.39    2.99
   3   4  -7   31.41    4.07
   3   4  -7   28.32    4.12
   3   4  -7   36.53    6.27
   2   4  -7  212.37   10.97
   2   4  -7  197.58   10.65
   1   4  -7  226.79   11.37
   0   4  -7   41.18    4.58
  -1   4  -7   29.25    3.83
  -1  -4  -7   28.61    4.14
  -1   4  -7   21.43    3.79
  -2  -4  -7   77.41    6.67
  -2   4  -7   76.18    6.60
  -3  -4  -7   17.34    2.88
  -3   4  -7   20.15    3.20
  -4  -4  -7    2.34    1.17
  -4   4  -7    2.74    1.22
  -5  -4  -7    1.00    0.66
  10   5  -7   71.18    4.07
   9   5  -7  185.18    8.47
   8   5  -7  343.43   13.29
   7   5  -7  459.31   16.59
   6   5  -7  524.53   18.64
   6   5  -7  592.75   21.78
   5   5  -7  690.74   23.09
   5   5  -7  722.04   24.15
   4   5  -7  951.41   29.16
   4   5  -7  931.26   29.73
   3   5  -7  692.30   23.91
   3   5  -7  757.48   26.27
   2   5  -7  526.57   18.91
   2   5  -7  535.68   20.93
   1  -5  -7  551.12   20.09
   1   5  -7  543.93   20.73
   0   5  -7  355.54   14.40
   0  -5  -7  392.21   16.36
   0   5  -7  360.51   16.36
  -1   5  -7  146.71    8.00
  -1  -5  -7  149.89    9.25
  -1   5  -7  150.98    9.63
  -2  -5  -7   95.52    6.37
  -3  -5  -7   83.99    4.96
  -3   5  -7   82.12    5.51
  -4   5  -7   49.40    3.34
   9   6  -7   22.39    2.41
   8   6  -7   14.90    2.36
   7   6  -7   15.15    2.50
   6   6  -7   18.22    3.11
   6   6  -7   15.40    2.53
   5   6  -7    1.12    1.92
   5   6  -7    1.29    1.51
   5   6  -7    0.94    1.13
   4   6  -7    8.60    3.28
   4   6  -7    8.97    2.53
   4   6  -7    8.45    1.98
   3   6  -7   23.22    2.98
   3   6  -7   25.45    4.00
   2   6  -7   24.09    2.90
   2   6  -7   26.36    4.07
   1   6  -7   42.66    3.77
   1   6  -7   43.96    5.15
   0   6  -7   72.58    6.38
  -1   6  -7   50.75    4.84
  -2   6  -7   13.49    2.19
  11   0  -8  170.90    7.49
  10   0  -8  249.75   10.94
   9   0  -8  220.35   11.23
   8   0  -8  238.39   12.47
   7   0  -8  435.02   18.12
   7   0  -8  445.95   18.26
   6   0  -8  427.51   17.81
   6   0  -8  460.74   19.19
   5   0  -8  155.85    9.55
   5   0  -8  179.90   11.11
   4   0  -8  118.60    8.08
   4   0  -8  121.81    8.96
   3   0  -8  253.93   12.35
   3   0  -8  253.24   13.40
   2   0  -8  168.71   10.70
   1   0  -8   40.82    5.13
   1   0  -8   39.84    3.85
   0   0  -8   93.89    7.59
   0   0  -8   71.75    5.03
  -1   0  -8  221.70   10.90
  -2   0  -8  114.62    7.43
  -3   0  -8   67.14    4.78
  -4   0  -8  119.98    5.30
  11   1  -8    2.80    1.27
  10  -1  -8    8.56    1.76
  10   1  -8    4.93    1.88
   9  -1  -8   18.03    2.87
   9   1  -8   16.21    3.20
   9   1  -8   18.68    2.92
   8  -1  -8   69.79    5.91
   8   1  -8   60.30    6.17
   8   1  -8   66.43    6.22
   7  -1  -8  117.68    7.95
   7   1  -8  107.76    8.30
   7   1  -8  115.54    8.84
   6  -1  -8   87.24    6.80
   6   1  -8   86.90    7.23
   6   1  -8   85.05    7.67
   5  -1  -8   86.39    6.73
   5   1  -8   75.65    6.60
   5  -1  -8   97.83    7.95
   5   1  -8   78.32    7.23
   4  -1  -8   99.23    7.36
   4   1  -8  102.49    7.45
   4  -1  -8  120.14    9.18
   4   1  -8  101.31    8.14
   3   1  -8   41.12    4.84
   3  -1  -8   53.02    6.21
   3   1  -8   50.34    5.50
   2  -1  -8    0.18    1.91
   2   1  -8    1.52    1.79
   1  -1  -8    4.37    2.48
   1   1  -8    0.55    1.59
   1   1  -8    1.31    1.35
   0   1  -8    2.94    1.99
   0   1  -8    1.70    1.24
  -1   1  -8   18.10    3.09
  -1  -1  -8   16.50    2.96
  -1   1  -8   16.66    2.52
  -2   1  -8   37.93    3.90
  -2  -1  -8   36.51    4.19
  -3  -1  -8   18.49    2.63
  -4  -1  -8    5.11    1.23
  11   2  -8   34.67    3.19
  10   2  -8   46.77    4.53
  10   2  -8   57.64    4.38
   9   2  -8   55.47    5.47
   9   2  -8   59.48    5.43
   8   2  -8   96.38    7.71
   8   2  -8  106.42    8.25
   7   2  -8  280.82   14.71
   6   2  -8  468.66   20.20
   5   2  -8  507.14   20.70
   4   2  -8  690.99   24.91
   3   2  -8  972.88   31.09
   2   2  -8  860.36   28.02
   1   2  -8  618.34   21.16
   0   2  -8  559.60   19.36
  -1   2  -8  431.88   17.37
  -1  -2  -8  452.72   17.37
  -1   2  -8  490.63   16.84
  -2  -2  -8  241.26   11.31
  -2   2  -8  227.38    9.76
  -3  -2  -8  109.06    6.25
  -4  -2  -8   94.78    4.72
  11   3  -8    0.80    0.87
  10   3  -8    5.11    1.77
  10   3  -8    4.32    1.45
   9   3  -8   14.76    2.90
   9   3  -8   12.47    2.69
   8   3  -8    7.71    2.39
   8   3  -8    5.46    2.30
   7   3  -8   14.65    3.13
   7   3  -8   13.21    3.43
   6   3  -8   71.40    6.19
   6   3  -8   77.84    7.17
   5   3  -8   78.51    6.50
   5   3  -8   95.81    7.72
   4   3  -8   17.20    3.15
   3   3  -8   18.38    3.34
   2   3  -8   46.49    4.98
   2   3  -8   52.71    5.29
   1   3  -8    7.29    2.28
   1   3  -8   11.44    2.59
   0  -3  -8    7.96    2.37
   0   3  -8    9.01    2.51
   0   3  -8    8.94    2.34
  -1  -3  -8    2.67    1.92
  -1   3  -8    2.97    1.69
  -1   3  -8    4.22    1.78
  -2  -3  -8    0.49    1.28
  -2   3  -8    1.16    1.14
  -3  -3  -8    3.32    1.19
  -3   3  -8    3.87    1.03
  10   4  -8  119.24    5.78
  10   4  -8  110.55    5.70
   9   4  -8  164.89    8.16
   9   4  -8  177.93    8.87
   8   4  -8  234.87   10.79
   8   4  -8  246.15   12.00
   7   4  -8  276.09   12.09
   6   4  -8  296.66   12.82
   5   4  -8  339.41   13.96
   5   4  -8  340.89   14.95
   4   4  -8  329.97   13.65
   4   4  -8  309.67   14.08
   3   4  -8  240.01   11.56
   3   4  -8  246.62   12.06
   2   4  -8  201.57   10.09
   1   4  -8  200.31    9.90
   1  -4  -8  193.96   10.31
   0   4  -8  145.63    8.00
   0  -4  -8  153.55    8.97
   0   4  -8  140.09    8.50
  -1  -4  -8   89.08    6.35
  -1   4  -8   91.24    6.23
  -2  -4  -8   83.68    5.12
  -2   4  -8   69.06    4.71
   8   5  -8    0.06    0.83
   8   5  -8    0.88    1.29
   7   5  -8   -0.08    0.98
   7   5  -8    1.39    1.22
   7   5  -8    1.31    1.38
   6   5  -8    0.33    1.03
   6   5  -8    1.05    1.30
   6   5  -8    0.82    1.33
   5   5  -8    4.70    1.81
   5   5  -8    4.04    1.86
   4   5  -8   22.74    3.08
   4   5  -8   25.55    3.64
   3   5  -8   15.01    2.48
   3  -5  -8   21.71    3.32
   3   5  -8   15.75    3.02
   2  -5  -8    6.31    2.18
   2   5  -8    6.53    1.75
   2   5  -8    5.92    2.08
   1   5  -8   13.89    2.25
   1  -5  -8   17.30    3.01
   1   5  -8   15.72    2.89
   0  -5  -8   21.47    2.91
   5   6  -8   87.69    4.95
   3   6  -8   83.01    5.86
   2   6  -8  115.13    6.80
   9   0  -9    1.83    1.21
   8   0  -9    1.79    1.50
   7   0  -9   -0.49    1.49
   6   0  -9   -0.76    1.64
   6   0  -9    2.34    1.73
   5   0  -9    0.46    1.63
   4   0  -9    0.16    1.82
   3   0  -9   -0.16    1.75
   3   0  -9    0.56    0.95
   2   0  -9    0.15    1.64
   1   0  -9    0.37    1.11
   0   0  -9   -0.18    1.07
  -1   0  -9    0.07    0.87
  10   1  -9   60.60    3.97
   9   1  -9   59.88    4.87
   8   1  -9  113.21    7.60
   8   1  -9  112.96    6.57
   7   1  -9  211.60   11.10
   7   1  -9  199.71   10.68
   6   1  -9  222.86   11.75
   6   1  -9  238.16   12.60
   5   1  -9  209.75   11.32
   5   1  -9  235.47   12.56
   4   1  -9  355.50   16.23
   3   1  -9  451.61   18.48
   2   1  -9  332.71   14.41
   2   1  -9  269.18   11.15
   1   1  -9  207.10    9.34
   1   1  -9  201.20    8.71
   0  -1  -9  247.64   10.95
  -1  -1  -9  217.99    9.31
  10   2  -9    0.35    0.65
   9   2  -9    1.51    1.31
   8   2  -9   -0.11    1.38
   8   2  -9    0.30    1.20
   7   2  -9    8.34    2.43
   7   2  -9    7.23    2.40
   6   2  -9   35.77    4.44
   6   2  -9   36.10    4.76
   5   2  -9   22.31    3.59
   5   2  -9   25.02    4.12
   4   2  -9   11.63    3.03
   3   2  -9   25.62    3.97
   3   2  -9   23.15    3.14
   2   2  -9   36.91    4.43
   2   2  -9   30.34    3.41
   1  -2  -9    3.86    1.74
   1   2  -9    5.28    1.98
   1   2  -9    4.44    1.48
   0  -2  -9    1.14    1.35
   0   2  -9    0.07    0.94
  -1  -2  -9    2.12    1.19
   9   3  -9  160.76    7.42
   8   3  -9  227.46   10.18
   8   3  -9  227.97   10.34
   7   3  -9  280.77   12.32
   7   3  -9  287.08   13.03
   6   3  -9  280.89   12.35
   6   3  -9  287.28   13.55
   5   3  -9  297.52   13.69
   4   3  -9  265.13   12.36
   4   3  -9  235.02   10.83
   3   3  -9  169.25    8.63
   2   3  -9  118.51    6.88
   1   3  -9   87.28    5.97
   1  -3  -9   89.12    6.16
   1   3  -9   87.67    5.58
   0  -3  -9   72.92    5.19
   0   3  -9   65.85    4.40
   7   4  -9    7.69    1.85
   7   4  -9    6.64    1.65
   6   4  -9    9.37    2.05
   5   4  -9   34.66    3.64
   4   4  -9   66.13    5.17
   4   4  -9   60.89    4.89
   3   4  -9   36.14    3.72
   3  -4  -9   41.76    4.18
   2   4  -9   14.23    2.26
   2  -4  -9   17.77    2.80
   2   4  -9   14.04    2.30
   1   4  -9   22.60    2.61
   3  -1 -10    3.84    1.34
   4  -2 -10   66.53    4.86
   0   0   0    0.00    0.00


TITL 180504G in P2(1)/c
REM P2(1)/c (#14 in standard setting)
CELL 1.54184  11.754903   8.237365   8.169941  90.0000 108.8550  90.0000
ZERR   11.00   0.000223   0.000116   0.000147   0.0000   0.0020   0.0000
LATT  1
SYMM -x, y+1/2,-z+1/2
SFAC C H N Br Pb
UNIT 11.00 11.00 11.00 11.00 11.00
TREF
HKLF 4
END
_computing_structure_solution     'SHELXT 2018/2 (Sheldrick, 2018)'
;
_shelx_hkl_checksum              55673
_olex2_exptl_crystal_mounting_method 'loop ring'
_olex2_submission_special_instructions 'No special instructions were received'
_oxdiff_exptl_absorpt_empirical_details
;
Empirical correction (ABSPACK) includes:
- Absorption correction using spherical harmonics
- Frame scaling
;
_oxdiff_exptl_absorpt_empirical_full_max 2.548
_oxdiff_exptl_absorpt_empirical_full_min 0.510
loop_
_space_group_symop_operation_xyz
'x, y, z'
'-x, y+1/2, -z+1/2'
'-x, -y, -z'
'x, -y-1/2, z-1/2'
loop_
_atom_site_label
_atom_site_type_symbol
_atom_site_fract_x
_atom_site_fract_y
_atom_site_fract_z
_atom_site_U_iso_or_equiv
_atom_site_adp_type
_atom_site_occupancy
_atom_site_site_symmetry_order
_atom_site_calc_flag
_atom_site_refinement_flags_posn
_atom_site_refinement_flags_adp
_atom_site_refinement_flags_occupancy
_atom_site_disorder_assembly
_atom_site_disorder_group
Pb1 Pb 0.500000 0.500000 0.500000 0.0538(3) Uani 1 2 d S T P A 1
Br1 Br 0.45468(9) 0.79885(10) 0.67930(11) 0.0778(4) Uani 1 1 d . . . . .
Br2 Br 0.76082(10) 0.57560(17) 0.59137(16) 0.0987(4) Uani 1 1 d . . . . .
N1B N 0.721(3) 0.961(5) 0.650(8) 0.131(15) Uani 0.6 1 d D U . B 1
H1BA H 0.666635 1.038362 0.607670 0.157 Uiso 0.6 1 calc GR . . B 1
H1BB H 0.732234 0.948449 0.762467 0.157 Uiso 0.6 1 calc GR . . B 1
H1BC H 0.695121 0.868083 0.595123 0.157 Uiso 0.6 1 calc GR . . B 1
C1B C 0.834(3) 1.007(3) 0.626(7) 0.152(15) Uani 0.6 1 d D U . B 1
H1BD H 0.819419 1.014641 0.502090 0.182 Uiso 0.6 1 calc R . . B 1
H1BE H 0.889637 0.917212 0.667064 0.182 Uiso 0.6 1 calc R . . B 1
C2B C 0.900(3) 1.158(4) 0.705(5) 0.181(15) Uani 0.6 1 d D U . B 1
H2BA H 0.855246 1.251537 0.649075 0.271 Uiso 0.6 1 calc GR . . B 1
H2BB H 0.977965 1.159317 0.690221 0.271 Uiso 0.6 1 calc GR . . B 1
H2BC H 0.909364 1.160749 0.825930 0.271 Uiso 0.6 1 calc GR . . B 1
C2A C 0.902(4) 1.056(7) 0.570(5) 0.131(12) Uani 0.4 1 d D U . C 2
H2AA H 0.884173 0.953026 0.512934 0.197 Uiso 0.4 1 d R . . C 2
H2AB H 0.987903 1.070896 0.613624 0.197 Uiso 0.4 1 d R . . C 2
H2AC H 0.866793 1.141286 0.489574 0.197 Uiso 0.4 1 d R . . C 2
C1A C 0.847(3) 1.070(4) 0.713(5) 0.105(9) Uani 0.4 1 d D U . C 2
H1AA H 0.902310 1.025047 0.818581 0.126 Uiso 0.4 1 calc R . . C 2
H1AB H 0.834452 1.183265 0.732883 0.126 Uiso 0.4 1 calc R . . C 2
N1A N 0.733(3) 0.983(6) 0.668(7) 0.077(9) Uani 0.4 1 d D U . C 2
H1AC H 0.682343 1.023701 0.570316 0.092 Uiso 0.4 1 calc GR . . C 2
H1AD H 0.701381 0.994188 0.752627 0.092 Uiso 0.4 1 calc GR . . C 2
H1AE H 0.744917 0.878121 0.652718 0.092 Uiso 0.4 1 calc GR . . C 2
loop_
_atom_site_aniso_label
_atom_site_aniso_U_11
_atom_site_aniso_U_22
_atom_site_aniso_U_33
_atom_site_aniso_U_23
_atom_site_aniso_U_13
_atom_site_aniso_U_12
Pb1 0.0818(4) 0.0380(4) 0.0426(4) 0.00007(10) 0.0215(2) -0.00171(11)
Br1 0.1164(7) 0.0592(5) 0.0632(5) -0.0230(4) 0.0366(5) -0.0022(4)
Br2 0.0871(6) 0.0963(9) 0.1020(8) -0.0120(6) 0.0155(5) -0.0023(5)
N1B 0.14(2) 0.10(2) 0.18(4) 0.02(2) 0.08(2) -0.024(17)
C1B 0.14(2) 0.17(3) 0.17(4) 0.005(18) 0.08(2) -0.041(17)
C2B 0.115(17) 0.14(2) 0.26(4) 0.04(2) 0.03(2) -0.023(15)
C2A 0.11(2) 0.18(3) 0.11(3) -0.03(3) 0.049(19) -0.06(3)
C1A 0.126(19) 0.09(2) 0.11(2) -0.028(18) 0.047(16) -0.027(16)
N1A 0.100(19) 0.062(18) 0.07(2) 0.011(11) 0.036(15) 0.000(11)
loop_
_atom_type_symbol
_atom_type_description
_atom_type_scat_dispersion_real
_atom_type_scat_dispersion_imag
_atom_type_scat_source
C C 0.0181 0.0091 'International Tables Vol C Tables 4.2.6.8 and 6.1.1.4'
H H 0.0000 0.0000 'International Tables Vol C Tables 4.2.6.8 and 6.1.1.4'
Br Br -0.6763 1.2805 'International Tables Vol C Tables 4.2.6.8 and 6.1.1.4'
N N 0.0311 0.0180 'International Tables Vol C Tables 4.2.6.8 and 6.1.1.4'
Pb Pb -4.0753 8.5060 'International Tables Vol C Tables 4.2.6.8 and 6.1.1.4'
loop_
_geom_angle_atom_site_label_1
_geom_angle_atom_site_label_2
_geom_angle_atom_site_label_3
_geom_angle
_geom_angle_site_symmetry_1
_geom_angle_site_symmetry_3
Br1 Pb1 Br1 180.00(2) 4_575 2_646
Br1 Pb1 Br1 87.924(8) 2_646 3_666
Br1 Pb1 Br1 180.0 . 3_666
Br1 Pb1 Br1 92.076(8) 4_575 3_666
Br1 Pb1 Br1 92.076(8) 2_646 .
Br1 Pb1 Br1 87.924(8) 4_575 .
Br2 Pb1 Br1 88.93(3) 3_666 2_646
Br2 Pb1 Br1 87.88(3) 3_666 .
Br2 Pb1 Br1 87.88(3) . 3_666
Br2 Pb1 Br1 88.93(3) . 4_575
Br2 Pb1 Br1 92.12(3) . .
Br2 Pb1 Br1 91.07(3) 3_666 4_575
Br2 Pb1 Br1 92.12(3) 3_666 3_666
Br2 Pb1 Br1 91.07(3) . 2_646
Br2 Pb1 Br2 180.0 . 3_666
Pb1 Br1 Pb1 150.56(4) 2_656 .
N1B C1B C2B 122(2) . .
N1A C1A C2A 111(3) . .
loop_
_geom_bond_atom_site_label_1
_geom_bond_atom_site_label_2
_geom_bond_distance
_geom_bond_site_symmetry_2
Pb1 Br1 2.9987(7) 4_575
Pb1 Br1 2.9987(7) 2_646
Pb1 Br1 2.9990(7) .
Pb1 Br1 2.9990(7) 3_666
Pb1 Br2 2.9775(11) .
Pb1 Br2 2.9776(11) 3_666
N1B C1B 1.461(19) .
C1B C2B 1.497(19) .
C2A C1A 1.507(19) .
C1A N1A 1.463(19) .
