#------------------------------------------------------------------------------
#$Date: 2019-11-24 03:22:29 +0200 (Sun, 24 Nov 2019) $
#$Revision: 236470 $
#$URL: file:///home/coder/svn-repositories/cod/cif/1/55/40/1554035.cif $
#------------------------------------------------------------------------------
#
# This file is available in the Crystallography Open Database (COD),
# http://www.crystallography.net/
#
# All data on this site have been placed in the public domain by the
# contributors.
#
data_1554035
loop_
_publ_author_name
'Pavan, Mysore S.'
'Jana, Ajay Kumar'
'Natarajan, S.'
'Guru Row, Tayur N.'
_publ_section_title
;
 Halogen Bonding and Chalcogen Bonding in
 4,7-Dibromo-5,6-dinitro-2,1,3-benzothiadiazole.
;
_journal_issue                   34
_journal_name_full               'The journal of physical chemistry. B'
_journal_page_first              11382
_journal_page_last               11390
_journal_paper_doi               10.1021/acs.jpcb.5b03533
_journal_volume                  119
_journal_year                    2015
_chemical_formula_moiety         'C6 Br2 N4 O4 S'
_chemical_formula_sum            'C6 Br2 N4 O4 S'
_chemical_formula_weight         383.98
_space_group_crystal_system      triclinic
_space_group_IT_number           2
_space_group_name_Hall           '-P 1'
_space_group_name_H-M_alt        'P -1'
_atom_sites_solution_primary     iterative
_audit_creation_date             2014-02-11
_audit_creation_method
;
Olex2 1.2
(compiled 2013.09.17 svn.r2790 for OlexSys, GUI svn.r4601)
;
_cell_angle_alpha                86.709(4)
_cell_angle_beta                 77.084(4)
_cell_angle_gamma                76.289(4)
_cell_formula_units_Z            4
_cell_length_a                   9.1670(5)
_cell_length_b                   10.2561(5)
_cell_length_c                   11.4773(6)
_cell_measurement_reflns_used    4943
_cell_measurement_temperature    100(2)
_cell_measurement_theta_max      27.5460
_cell_measurement_theta_min      3.5560
_cell_volume                     1021.78(9)
_computing_cell_refinement
;
CrysAlisPro, Agilent Technologies,
Version 1.171.37.31 (release 14-01-2014 CrysAlis171 .NET)
(compiled Jan 14 2014,18:38:05)
;
_computing_data_collection
;
CrysAlisPro, Agilent Technologies,
Version 1.171.37.31 (release 14-01-2014 CrysAlis171 .NET)
(compiled Jan 14 2014,18:38:05)
;
_computing_data_reduction
;
CrysAlisPro, Agilent Technologies,
Version 1.171.37.31 (release 14-01-2014 CrysAlis171 .NET)
(compiled Jan 14 2014,18:38:05)
;
_computing_molecular_graphics
;
O. V. Dolomanov, L. J. Bourhis, R. J. Gildea, J. A. K. Howard and H. Puschmann,
OLEX2: a complete structure solution, refinement and analysis program.
J. Appl. Cryst. (2009). 42, 339-341.
;
_computing_publication_material
;
O. V. Dolomanov, L. J. Bourhis, R. J. Gildea, J. A. K. Howard and H. Puschmann,
OLEX2: a complete structure solution, refinement and analysis program.
J. Appl. Cryst. (2009). 42, 339-341.
;
_computing_structure_refinement
;
SHELX, G.M. Sheldrick, Acta Cryst.
(2008). A64, 112-122
;
_computing_structure_solution
'L.J. Bourhis, O.V. Dolomanov, R.J. Gildea, J.A.K. Howard, H. Puschmann, in preparation (2013)'
_diffrn_ambient_temperature      100.15
_diffrn_detector                 'CCD plate'
_diffrn_detector_area_resol_mean 8.0419
_diffrn_detector_type            Eos
_diffrn_measured_fraction_theta_full 0.9991
_diffrn_measured_fraction_theta_max 0.9994
_diffrn_measurement_device       'four-circle diffractometer'
_diffrn_measurement_device_type  'Xcalibur, Eos, Nova'
_diffrn_measurement_method       '\w scans'
_diffrn_orient_matrix_UB_11      -0.0592958000
_diffrn_orient_matrix_UB_12      0.0037713000
_diffrn_orient_matrix_UB_13      -0.0314237000
_diffrn_orient_matrix_UB_21      0.0301830000
_diffrn_orient_matrix_UB_22      0.0467838000
_diffrn_orient_matrix_UB_23      -0.0405492000
_diffrn_orient_matrix_UB_31      0.0472023000
_diffrn_orient_matrix_UB_32      -0.0535240000
_diffrn_orient_matrix_UB_33      -0.0372632000
_diffrn_radiation_monochromator  mirror
_diffrn_radiation_probe          x-ray
_diffrn_radiation_type           'Mo K\a'
_diffrn_radiation_wavelength     0.71073
_diffrn_reflns_av_R_equivalents  0.0394
_diffrn_reflns_av_unetI/netI     0.0692
_diffrn_reflns_Laue_measured_fraction_full 0.999
_diffrn_reflns_Laue_measured_fraction_max 1.000
_diffrn_reflns_limit_h_max       11
_diffrn_reflns_limit_h_min       -11
_diffrn_reflns_limit_k_max       12
_diffrn_reflns_limit_k_min       -13
_diffrn_reflns_limit_l_max       14
_diffrn_reflns_limit_l_min       -11
_diffrn_reflns_number            9337
_diffrn_reflns_point_group_measured_fraction_full 0.999
_diffrn_reflns_point_group_measured_fraction_max 1.000
_diffrn_reflns_theta_full        25.242
_diffrn_reflns_theta_max         27.476
_diffrn_reflns_theta_min         2.638
_diffrn_source                   'Mova (Mo) X-ray Source'
_exptl_absorpt_coefficient_mu    8.146
_exptl_absorpt_correction_T_max  0.521
_exptl_absorpt_correction_T_min  0.364
_exptl_absorpt_correction_type   analytical
_exptl_absorpt_process_details
;
CrysAlisPro, Agilent Technologies,
Version 1.171.37.31 (release 14-01-2014 CrysAlis171 .NET)
(compiled Jan 14 2014,18:38:05)
Analytical numeric absorption correction using a multifaceted crystal
			model based on expressions derived by R.C. Clark & J.S. Reid.
(Clark, R. C. & Reid, J. S. (1995). Acta Cryst. A51, 887-897)
Empirical absorption correction using spherical harmonics,
 implemented in SCALE3 ABSPACK scaling algorithm.
;
_exptl_crystal_density_diffrn    2.496
_exptl_crystal_description
;
;
_exptl_crystal_F_000             728
_exptl_crystal_size_max          0.1825
_exptl_crystal_size_mid          0.1545
_exptl_crystal_size_min          0.1058
_refine_diff_density_max         0.863
_refine_diff_density_min         -0.837
_refine_diff_density_rms         0.194
_refine_ls_extinction_coef       0.0024(2)
_refine_ls_extinction_expression Fc^*^=kFc[1+0.001xFc^2^\l^3^/sin(2\q)]^-1/4^
_refine_ls_extinction_method     SHELXL
_refine_ls_goodness_of_fit_ref   1.037
_refine_ls_hydrogen_treatment    undef
_refine_ls_matrix_type           full
_refine_ls_number_parameters     308
_refine_ls_number_reflns         4672
_refine_ls_number_restraints     0
_refine_ls_restrained_S_all      1.037
_refine_ls_R_factor_all          0.0501
_refine_ls_R_factor_gt           0.0397
_refine_ls_shift/su_max          0.001
_refine_ls_shift/su_mean         0.000
_refine_ls_structure_factor_coef Fsqd
_refine_ls_weighting_details
;
 w=1/[\s^2^(Fo^2^)+(0.0278P)^2^]
 where P=(Fo^2^+2Fc^2^)/3
;
_refine_ls_weighting_scheme      calc
_refine_ls_wR_factor_gt          0.0733
_refine_ls_wR_factor_ref         0.0797
_reflns_Friedel_coverage         0.000
_reflns_number_gt                3963
_reflns_number_total             4672
_reflns_threshold_expression     'I > 2\s(I)'
_cod_data_source_file            jp5b03533_si_005.cif
_cod_data_source_block           f1
_cod_database_code               1554035
_shelxl_version_number           2013-2
_chemical_oxdiff_formula         'C12 N8 O8 S2 BR4'
_chemical_oxdiff_usercomment     'ANOTHER FORM'
_shelx_space_group_comment
;
The symmetry employed for this shelxl refinement is uniquely defined
by the following loop, which should always be used as a source of
symmetry information in preference to the above space-group names.
They are only intended as comments.
;
_shelx_estimated_absorpt_t_max   0.468
_shelx_estimated_absorpt_t_min   0.322
_reflns_odcompleteness_completeness 99.91
_reflns_odcompleteness_iscentric 1
_reflns_odcompleteness_theta     27.42
_olex2_refinement_description
;
;
_shelx_res_file
;
TITL
CELL 0.71073 9.167004 10.256098 11.477281 86.7091 77.0838 76.2889
ZERR 4 0.000467 0.000516 0.000579 0.0041 0.0043 0.0044
LATT 1

SFAC C Br N O S
UNIT 24 8 16 16 4

L.S. 10
PLAN  5
SIZE 0.11 0.15 0.18
TEMP -173
fmap 2
acta
REM <HKL>C:/Documents%20and%20Settings/All%20Users/Documents/oxford/aj_pure/st
REM ruct/olex2_f1/f1.hkl</HKL>

WGHT    0.027800
EXTI    0.002373
FVAR       2.51151
BR3   2    0.548074    0.980938    0.772799    11.00000    0.01581    0.01060 =
         0.01080    0.00495   -0.00239   -0.00389
BR2   2    0.899586    0.530452    0.733968    11.00000    0.01501    0.01257 =
         0.01225    0.00664   -0.00550   -0.00411
BR4   2    0.490201    0.538263    1.212149    11.00000    0.01291    0.01228 =
         0.00967    0.00511   -0.00193   -0.00253
BR1   2    0.850278    0.964196    0.288143    11.00000    0.01439    0.01429 =
         0.01106    0.00651   -0.00430   -0.00418
S2    5    0.177527    0.725430    0.939651    11.00000    0.01108    0.01682 =
         0.01374    0.00471   -0.00461   -0.00482
S1    5    0.488688    0.766203    0.554413    11.00000    0.00777    0.01648 =
         0.01545    0.00440   -0.00309   -0.00410
O4    4    1.188882    0.806890    0.276908    11.00000    0.01580    0.02344 =
         0.01108   -0.00021    0.00225   -0.00501
O8    4    0.742678    0.689240    1.220387    11.00000    0.02220    0.02761 =
         0.01194    0.00277   -0.00854   -0.00774
N2    3    1.147211    0.826527    0.384196    11.00000    0.00832    0.01128 =
         0.01597    0.00570   -0.00263   -0.00212
N8    3    0.770455    0.674680    1.113261    11.00000    0.01352    0.00975 =
         0.01458    0.00348   -0.00476   -0.00349
O1    4    1.181710    0.670186    0.673731    11.00000    0.01725    0.02841 =
         0.00832   -0.00100   -0.00565   -0.00510
O7    4    0.895420    0.627333    1.049233    11.00000    0.00995    0.02127 =
         0.02206    0.00213   -0.00051    0.00005
N6    3    0.268503    0.653759    1.039255    11.00000    0.00942    0.01598 =
         0.01091    0.00477   -0.00229   -0.00417
O3    4    1.212427    0.877759    0.444877    11.00000    0.01464    0.02381 =
         0.02227    0.00406   -0.00884   -0.01254
O6    4    0.817052    0.919953    1.007388    11.00000    0.02128    0.01860 =
         0.01938   -0.00453   -0.00503   -0.00832
O2    4    1.265365    0.582591    0.496747    11.00000    0.01064    0.01797 =
         0.02429   -0.00305   -0.00403    0.00015
O5    4    0.871761    0.847031    0.824617    11.00000    0.01573    0.01970 =
         0.01146    0.00164    0.00299   -0.00749
N4    3    0.610837    0.679965    0.626580    11.00000    0.01145    0.00983 =
         0.00922    0.00206   -0.00377   -0.00363
N3    3    0.594960    0.840957    0.457253    11.00000    0.01011    0.01578 =
         0.01517    0.00516   -0.00176   -0.00274
N5    3    0.291627    0.814670    0.869658    11.00000    0.01039    0.01431 =
         0.01034    0.00409   -0.00244   -0.00468
N7    3    0.792867    0.862718    0.925992    11.00000    0.01215    0.01015 =
         0.01018    0.00293   -0.00162   -0.00222
C9    1    0.639883    0.714729    1.051383    11.00000    0.00856    0.01055 =
         0.00691    0.00126   -0.00124    0.00202
N1    3    1.165600    0.646660    0.575642    11.00000    0.00757    0.01046 =
         0.01456    0.00489   -0.00319   -0.00003
C2    1    1.004608    0.785814    0.447342    11.00000    0.00631    0.01016 =
         0.01091   -0.00277    0.00045   -0.00350
C10   1    0.515521    0.661653    1.087316    11.00000    0.00973    0.01125 =
         0.00645    0.00323   -0.00050   -0.00124
C3    1    1.013058    0.699424    0.546633    11.00000    0.01228    0.01075 =
         0.00880   -0.00013   -0.00450   -0.00090
C8    1    0.654505    0.804459    0.954298    11.00000    0.00936    0.00601 =
         0.00943   -0.00030    0.00175   -0.00293
C11   1    0.397423    0.699514    1.021214    11.00000    0.01122    0.01094 =
         0.00342    0.00252    0.00236   -0.00082
C1    1    0.870913    0.840341    0.412031    11.00000    0.01276    0.00696 =
         0.01039   -0.00018   -0.00511   -0.00343
C5    1    0.747056    0.707969    0.575228    11.00000    0.00964    0.00874 =
         0.00783   -0.00082    0.00125    0.00292
C12   1    0.412199    0.791397    0.923165    11.00000    0.01281    0.00691 =
         0.00969    0.00117   -0.00086   -0.00124
C6    1    0.738344    0.800493    0.478121    11.00000    0.01148    0.01048 =
         0.00863   -0.00219   -0.00318    0.00209
C4    1    0.889101    0.655388    0.610600    11.00000    0.01150    0.00978 =
         0.00722    0.00166   -0.00434   -0.00380
C7    1    0.541843    0.847910    0.891612    11.00000    0.01279    0.01220 =
         0.00655    0.00191    0.00028    0.00112
HKLF 4

REM
REM R1 =  0.0397 for    3963 Fo > 4sig(Fo)  and  0.0501 for all    4672 data
REM    308 parameters refined using      0 restraints

END

WGHT      0.0278      0.0000

REM Highest difference peak  0.863,  deepest hole -0.837,  1-sigma level  0.194
Q1    1   0.3724  0.5734  1.2231  11.00000  0.05    0.86
Q2    1   0.9570  0.9978  0.2459  11.00000  0.05    0.86
Q3    1   0.8471  0.8361  0.1972  11.00000  0.05    0.82
Q4    1   0.7889  0.5597  0.7450  11.00000  0.05    0.82
Q5    1   0.4714  0.4145  1.1244  11.00000  0.05    0.81
;
_shelx_res_checksum              44556
_shelx_hkl_file
;
   0   0  -2 34194.7 939.731   2
   0   0   2 34170.9 925.115   2
   0   0   3 351.687 54.0881   5
   0   0  -3 478.886 144.058   2
   0   0   3 388.828 119.844   2
   0   0   4 170678. 1493.92   5
   0   0   4 165881. 2907.26   2
   0   0  -4 174134. 3018.09   2
   0   0   5 711.971 108.046   5
   0   0   5 633.985 223.165   2
   0   0   6 94341.6 2658.08   2
   0   0   6 100563. 1381.22   5
   0   0   7 967.701 305.492   2
   0   0   7 689.844 116.635   5
   0   0   8 4213.26 303.258   5
   0   0   8 3462.34 587.747   2
   0   0   9 203.744 198.063   2
   0   0   9 426.996 89.5771   5
   0   0  10 346.623 157.999   2
   0   0  11 8.05809 162.826   2
   0   0  12 22549.1 1924.94   2
   0   0  13 394.885 234.490   2
   0   0  14 18226.6 1949.18   2
   0  -1  14 1050.75 528.138   2
   0  -1  13 14433.7 1738.74   2
   0  -1  12 1584.77 516.765   2
   0  -1  11 17298.2 1524.39   2
   0  -1  10 975.827 422.964   2
   0  -1   9 282.034 113.627   5
   0  -1   9 504.501 199.553   2
   0  -1   8 1776.84 406.958   2
   0  -1   8 1703.45 262.187   5
   0  -1   7 13585.7 689.423   5
   0  -1   7 10319.0 903.730   2
   0  -1   6 32.8157 49.0101   5
   0  -1   6 172.597 125.786   2
   0  -1   5 10500.1 538.488   5
   0   1  -5 10519.3 501.360   5
   0  -1   5 9137.80 707.796   2
   0   1  -4 124.016 39.8340   5
   0   1  -4 143.251 57.6949   2
   0  -1   4 141.508 75.2438   2
   0  -1   4 125.286 59.8083   5
   0  -1   3 37303.2 710.735   1
   0  -1   3 35797.1 1088.90   2
   0   1  -3 37639.5 1128.40   2
   0   1  -3 36807.5 604.082   1
   0   1  -3 39681.9 912.145   6
   0   1  -3 36319.5 845.568   5
   0  -1   3 36231.2 886.651   5
   0  -1   2 133.232 53.9778   1
   0   1  -2 81.0570 50.7301   6
   0  -1   2-31.9899 50.8163   2
   0  -1   2 7.63869 23.1526   5
   0   1  -2 23.0096 27.5152   5
   0   1  -2 82.4209 32.8383   1
   0   1  -2 1.08947 12.2335   2
   0   1  -1 70.8123 37.6156   1
   0   1  -1 56.7307 14.0476   5
   0   1  -1 169.867 64.6372   6
   0  -1   1 200.486 50.2432   5
   0   1  -1 65.8691 79.3568   2
   0  -1  -1 3978.18 299.094   3
   0   1   1 3775.88 289.686   1
   0   1   1 3060.13 272.694   3
   0   1   2 16.9354 28.0292   3
   0   1   2-10.0302 24.5521   6
   0  -1  -2-47.1641 53.3662   3
   0   1   3 8603.89 436.590   6
   0   1   3 9062.23 473.141   1
   0   1   3 9085.24 629.218   2
   0   1   3 8131.27 596.352   3
   0   1   4 330.777 157.767   2
   0   1   4 251.035 119.510   3
   0   1   4 263.143 78.8317   1
   0   1   5 1120.69 244.407   2
   0   1   5 1469.88 184.696   1
   0   1   6 1363.57 155.343   5
   0   1   6 992.596 289.732   2
   0   1   6 876.227 138.819   1
   0   1   7 12567.0 492.902   1
   0   1   7 13827.0 1195.91   2
   0   1   7 13670.4 471.631   5
   0   1   8 370.141 71.7966   5
   0   1   8 297.814 179.841   2
   0   1   9 1843.40 504.148   2
   0   1  10 2040.91 552.127   2
   0   1  11 8559.22 1177.51   2
   0   1  12 393.031 140.777   2
   0   1  13 18792.5 1880.97   2
   0   1  14 639.460 330.708   2
   0  -2  14 25144.5 2767.43   2
   0  -2  13 398.032 303.492   2
   0  -2  12 15736.0 1751.45   2
   0  -2  11 242.144 222.735   2
   0  -2  10 54833.9 2663.63   2
   0  -2   9-43.2266 92.5789   5
   0  -2   9-20.7228 163.003   2
   0  -2   8 62.1484 89.6509   2
   0  -2   8 152.581 106.986   5
   0   2  -7-9.18034 36.6889   5
   0  -2   7-184.441 182.248   2
   0  -2   7 13.0305 67.1169   5
   0  -2   6 15781.0 880.063   5
   0   2  -6 14690.8 729.777   5
   0  -2   6 15223.2 1045.12   2
   0   2  -6 14345.2 478.477   1
   0  -2   5 247.886 163.666   2
   0   2  -5 49.0447 29.5601   5
   0  -2   5 151.479 100.484   5
   0   2  -5 227.377 62.3459   1
   0   2  -4 148562. 1808.73   1
   0   2  -4 145985. 2272.01   5
   0   2  -4 146758. 2621.02   2
   0  -2   4 150786. 2476.65   5
   0   2  -4 145719. 2584.10   6
   0  -2   3 217.741 166.427   2
   0  -2   3 141.048 56.4866   5
   0   2  -3 292.030 106.298   2
   0   2  -3 169.194 71.7220   6
   0   2  -3 108.903 44.3707   5
   0   2  -3 118.193 53.4193   1
   0  -2   3 80.0265 45.7818   1
   0  -2   2 50303.9 1292.95   1
   0   2  -2 47775.4 1194.72   1
   0   2  -2 52834.9 1578.22   6
   0   2  -2 50699.7 1301.81   5
   0  -2   2 60251.0 5121.91   2
   0   2  -2 64960.3 2483.55   2
   0  -2   2 49763.3 1331.46   5
   0   2  -1 117.855 76.6613   2
   0   2  -1 26.3238 67.4856   5
   0  -2   1 164.761 73.6999   3
   0  -2   1 160.923 97.8320   5
   0   2  -1 47.2195 46.0061   1
   0   2  -1 198.393 113.767   6
   0  -2   1 51.7807 54.5886   1
   0   2   0 7863.21 413.435   3
   0  -2   0 9384.74 449.541   3
   0   2   0 9638.12 586.860   5
   0   2   0 9124.12 636.911   6
   0   2   0 8700.79 586.130   1
   0  -2   0 9215.35 353.193   4
   0  -2   0 9150.86 555.055   5
   0   2   1 1208.30 222.372   1
   0  -2  -1 1016.21 167.012   3
   0   2   1 1244.51 220.068   5
   0   2   1 1270.68 235.107   6
   0   2   1 1149.57 194.026   3
   0   2   2 859881. 6253.28   6
   0   2   2 880539. 6065.00   3
   0   2   3 376.082 156.933   3
   0   2   3 488.405 154.426   1
   0  -2  -3 396.186 134.226   3
   0   2   3 380.809 114.760   6
   0   2   4 135797. 2909.17   3
   0   2   4 141793. 3000.08   2
   0   2   4 143981. 2549.58   6
   0   2   4 136796. 2450.83   1
   0   2   5 2559.07 443.625   2
   0   2   5 3175.79 358.578   1
   0   2   6 72037.5 1781.92   1
   0   2   6 76671.3 2754.41   2
   0   2   7 2133.38 505.153   2
   0   2   7 1712.22 261.808   1
   0   2   8 76695.5 1387.59   5
   0   2   8 77021.1 1652.88   1
   0   2   8 80165.0 3234.14   2
   0   2   9 833.396 374.900   2
   0   2  10 744.934 319.174   2
   0   2  11 1272.71 394.978   2
   0   2  12 453.450 393.794   2
   0   2  13 5.95723 289.587   2
   0   2  14 6838.64 1244.30   2
   0  -3  14 29.7159 583.156   2
   0  -3  13 57809.4 4934.46   2
   0  -3  12-167.065 602.204   2
   0  -3  11 39289.3 3140.91   2
   0  -3  10 586.068 281.807   2
   0  -3   9 21173.1 2015.67   2
   0  -3   8 39.4104 62.9241   5
   0   3  -8 109.759 53.5984   1
   0   3  -8 19.2768 43.0528   5
   0  -3   8-148.972 279.071   2
   0  -3   7 30399.6 1452.86   5
   0   3  -7 27657.2 855.113   1
   0   3  -7 27320.9 1184.52   5
   0  -3   6 233.786 152.396   5
   0  -3   6 204.081 286.786   2
   0   3  -6 7.94732 37.4906   1
   0   3  -5 5754.97 542.284   5
   0  -3   5 6166.55 612.130   5
   0   3  -5 5379.14 442.128   1
   0   3  -5 5665.65 621.693   6
   0   3  -4 243.938 86.4787   5
   0  -3   4 88.1212 50.5989   5
   0   3  -4 164.715 86.1984   1
   0   3  -4 17.2910 39.6080   6
   0  -3   3 3098.56 790.294   2
   0   3  -3 3335.14 385.083   1
   0   3  -3 3291.26 469.148   6
   0   3  -3 3576.66 425.945   5
   0   3  -3 5281.01 645.447   2
   0  -3   3 3648.96 443.068   5
   0  -3   2-45.0195 43.1092   2
   0  -3   2 19.6273 64.3057   5
   0  -3   2 48.6405 25.5550   1
   0   3  -2 123.936 124.236   6
   0   3  -2 127.917 107.982   2
   0   3  -2 97.2375 91.5042   5
   0   3  -2-2.06204 35.4009   1
   0  -3   1 263.135 87.0307   3
   0   3  -1 229.863 89.4980   2
   0  -3   1 245.124 115.388   5
   0   3  -1 38.4948 22.7946   6
   0   3  -1 467.800 160.343   5
   0   3  -1 237.951 125.059   1
   0  -3   0 1131.46 193.041   3
   0   3   0 1059.15 276.704   1
   0   3   0 1064.56 232.360   5
   0  -3   0 1058.40 148.662   4
   0   3   0 985.625 261.619   6
   0   3   0 1306.29 195.857   3
   0   3   1 20621.2 1091.85   5
   0   3   1 18824.7 847.228   3
   0   3   1 19677.5 1144.95   6
   0   3   1 18862.7 666.725   4
   0  -3  -1 18381.0 821.022   3
   0   3   1 19210.2 1090.96   1
   0   3   2 269.651 117.888   1
   0   3   2-12.6378 61.1713   6
   0  -3  -2 67.4576 42.5640   3
   0   3   2 106.965 82.8074   3
   0   3   2 326.934 133.829   5
   0   3   3 90702.2 2388.02   1
   0   3   3 101808. 2414.22   5
   0   3   3 96285.4 2565.11   6
   0   3   3 88483.2 2311.26   3
   0  -3  -3 99791.0 2632.53   3
   0   3   4 174.087 125.274   6
   0  -3  -4 138.945 81.7562   3
   0   3   4 68.2246 32.1446   1
   0   3   5 3468.28 539.127   2
   0   3   5 3529.96 486.106   1
   0   3   5 3375.42 478.769   6
   0   3   6 254.475 149.038   1
   0   3   6 38.1846 64.3011   5
   0   3   6 229.284 216.795   2
   0   3   7 9107.09 1041.85   2
   0   3   7 8413.21 591.716   5
   0   3   7 8378.54 717.252   1
   0   3   8 1713.61 311.191   1
   0   3   8 1709.27 547.962   2
   0   3   8 1559.32 246.897   5
   0   3   9 4300.47 851.118   2
   0   3  10 2352.07 688.062   2
   0   3  11 3857.88 897.768   2
   0   3  12 2202.16 720.880   2
   0   3  13 1062.42 462.813   2
   0   3  14 1827.48 506.831   2
   0  -4  13-837.958 1895.07   2
   0  -4  12 43507.1 6164.25   2
   0  -4  11 313.885 469.556   2
   0  -4  10 5512.77 1786.84   2
   0  -4   9-1121.16 1237.22   2
   0   4  -8 43599.5 1252.55   1
   0  -4   8 47719.4 2062.66   5
   0  -4   8 46778.1 6128.08   2
   0  -4   7-147.646 196.104   5
   0   4  -7-17.6182 37.9709   1
   0  -4   7-1323.87 1899.51   2
   0  -4   6 3631.19 556.641   5
   0   4  -6 3728.01 592.092   6
   0   4  -6 3434.64 404.547   1
   0   4  -5 212.242 87.0039   1
   0   4  -5 257.972 165.887   6
   0  -4   5-545.400 1131.58   2
   0  -4   5 376.549 181.847   5
   0  -4   4 483.510 209.573   5
   0   4  -4 510.728 217.116   6
   0   4  -4 717.219 197.494   1
   0  -4   4-19.4147 561.640   2
   0   4  -3 318.376 202.721   6
   0   4  -3 368.899 137.555   1
   0  -4   3 306.641 81.2784   5
   0   4  -3 566.074 206.016   5
   0  -4   3 194.294 38.7426   2
   0  -4   2 193350. 3743.47   5
   0   4  -2 194353. 3682.90   1
   0   4  -2 193632. 4236.74   6
   0  -4   2 191874. 2789.67   3
   0   4  -2 194557. 3660.59   5
   0   4  -1 677.673 165.736   2
   0   4  -1 581.715 157.640   3
   0   4  -1 300.028 93.9985   5
   0  -4   1 270.480 141.470   5
   0  -4   1 481.337 122.894   3
   0   4  -1 465.196 171.738   6
   0   4  -1 542.491 211.809   1
   0   4   0 68786.1 1693.15   3
   0   4   0 74888.1 2625.64   6
   0  -4   0 76995.4 1432.24   4
   0   4   0 84595.0 2518.32   5
   0   4   0 77409.7 2517.44   1
   0  -4   0 80079.9 1894.08   3
   0   4   1 64.2301 92.0229   1
   0   4   1-22.3439 47.5532   6
   0   4   1 48.0438 53.0811   4
   0   4   1 10.6325 37.7119   3
   0   4   1 114.899 89.9904   5
   0   4   2 54314.8 1842.82   3
   0  -4  -2 48878.5 1680.59   3
   0   4   2 54046.7 2054.79   5
   0   4   2 50598.4 2159.01   6
   0   4   2 52320.6 2072.80   1
   0   4   3 2705.23 491.711   6
   0  -4  -3 2520.23 428.464   3
   0   4   3 3342.91 512.113   5
   0   4   3 3783.84 550.133   1
   0   4   4 298353. 5245.09   6
   0  -4  -4 299206. 5200.02   3
   0   4   4 300817. 4618.45   5
   0  -4  -5 788.072 278.238   3
   0   4   5 1385.84 359.399   6
   0   4   5 1007.26 266.926   5
   0   4   6 123650. 3235.58   6
   0   4   6 124318. 2784.26   5
   0   4   7 2051.53 344.772   5
   0   4   7 2662.51 563.460   2
   0   4   8 36476.7 2265.23   2
   0   4   9 3965.28 817.349   2
   0   4  10 18030.9 1824.57   2
   0   4  11 236.399 292.110   2
   0   4  12 1428.37 568.051   2
   0   4  13 2192.87 734.682   2
   0  -5  13 11705.2 3827.19   2
   0  -5  12 797.242 1234.13   2
   0  -5  11 33240.9 8010.83   2
   0  -5  10 776.608 570.159   2
   0  -5   9 20367.9 5547.53   2
   0  -5   8 9444.90 3912.58   2
   0   5  -7 5720.96 574.505   1
   0  -5   7 5490.16 1764.03   2
   0   5  -6 153.391 117.472   6
   0  -5   6 204.796 139.829   5
   0  -5   6 622.632 470.114   2
   0   5  -5 17345.0 1430.67   6
   0  -5   5 17512.3 1319.53   5
   0  -5   5 20721.3 1583.42   2
   0  -5   4 1251.87 297.244   2
   0   5  -4 1540.77 426.478   6
   0  -5   4 1014.84 310.549   5
   0  -5   3 147.689 93.4427   3
   0  -5   3 129.555 82.8071   5
   0   5  -3 327.733 223.752   6
   0   5  -2 2081.03 474.012   6
   0  -5   2 1520.09 267.731   3
   0   5  -1 15194.7 1320.56   6
   0  -5   1 15906.0 900.592   3
   0  -5   1 15130.3 717.105   4
   0  -5   0 183.297 82.4404   4
   0   5   0 169.395 72.1102   6
   0   5   1 770.260 337.668   6
   0  -5  -1 911.084 231.398   3
   0   5   1 1361.76 209.887   4
   0   5   2 1199.52 402.345   6
   0  -5  -2 671.398 187.324   3
   0   5   2 1740.54 267.564   4
   0  -5  -3 21501.2 1318.63   3
   0   5   3 21621.0 1562.10   6
   0  -5  -4 1211.79 332.404   3
   0   5   4 1070.76 367.847   6
   0   5   5 41937.6 2172.46   6
   0  -5  -5 42821.8 2152.67   3
   0  -5  -6 529.488 230.764   3
   0   5   6 216.487 178.737   6
   0   5   7 3293.42 640.729   2
   0   5   8 178.432 223.768   2
   0   5   9 11067.9 1351.56   2
   0   5  10 1220.01 571.629   2
   0   5  11 5586.56 1092.33   2
   0   5  12 2068.16 780.870   2
   0   5  13 202.009 183.392   2
   0  -6  12 13412.5 3343.70   2
   0  -6  11-832.601 709.736   2
   0  -6  10 78168.3 6631.06   2
   0  -6   9 625.693 471.264   2
   0  -6   8 56814.7 3790.01   2
   0  -6   7 651.884 393.801   2
   0  -6   6 27420.7 1733.42   2
   0   6  -6 26264.4 1904.76   6
   0  -6   5 18.8988 93.7341   2
   0  -6   5 255.550 152.655   3
   0   6  -5 59.6722 113.944   6
   0   6  -4 70909.1 3162.19   6
   0  -6   4 64105.3 2060.02   3
   0  -6   3 94.6905 167.302   3
   0   6  -3 590.702 326.160   6
   0  -6   2 7334.89 659.955   3
   0   6  -2 8346.95 1096.85   6
   0   6  -1 846.817 322.750   6
   0  -6   1 636.092 194.858   3
   0  -6   1 996.137 185.937   4
   0   6   0 72049.5 3133.61   6
   0  -6   0 82512.4 2390.09   3
   0  -6  -1 2069.99 367.029   3
   0   6   1 2895.54 622.115   6
   0  -6  -2 97891.3 2797.83   3
   0   6   2 98827.4 2136.94   4
   0   6   2 96403.0 3613.20   6
   0   6   3 357.798 238.949   6
   0  -6  -3 581.354 269.885   3
   0   6   3 362.111 132.886   4
   0  -6  -4 85130.3 3027.48   3
   0   6   4 85850.5 3396.33   6
   0  -6  -5 4208.45 702.212   3
   0   6   5 3602.26 685.497   6
   0   6   6 101334. 3587.03   6
   0  -6  -6 108994. 3726.34   3
   0  -6  -7 2334.20 589.486   3
   0   6   8 68475.8 2999.69   2
   0   6   9 1136.52 314.457   2
   0   6  10 34706.6 2491.94   2
   0   6  11 3702.87 865.208   2
   0   6  12 4125.96 969.154   2
   0  -7  12-150.391 277.820   2
   0  -7  11 69034.3 4495.79   2
   0  -7  10-144.453 192.568   2
   0  -7   9 42758.5 2817.96   2
   0  -7   8 88.2172 97.3890   2
   0  -7   7 58575.9 2644.35   3
   0  -7   7 43010.0 2152.95   2
   0  -7   6 379.557 181.390   3
   0   7  -6 312.199 218.962   6
   0  -7   5 2873.01 482.792   3
   0   7  -5 3550.68 743.980   6
   0   7  -4 1946.90 575.159   6
   0  -7   4 1763.43 352.287   3
   0   7  -3 10152.9 1288.82   6
   0  -7   3 8924.06 798.252   3
   0  -7   2 3135.73 485.319   3
   0  -7   2 3203.12 403.147   4
   0   7  -2 3312.01 726.922   6
   0  -7   1 240.008 163.524   3
   0   7  -1-102.588 114.022   6
   0   7   0 4706.67 851.233   6
   0  -7   0 4676.46 599.396   3
   0   7   1 4198.73 825.782   6
   0  -7  -1 4305.90 597.656   3
   0  -7  -2 1937.29 419.596   3
   0   7   2 2168.01 332.417   4
   0   7   2 2885.46 701.994   6
   0  -7  -3 2205.67 468.772   3
   0   7   3 2219.63 580.000   6
   0   7   3 2093.81 368.599   4
   0   7   4 754.665 265.396   4
   0  -7  -4 541.740 164.786   3
   0   7   4 591.581 325.535   6
   0  -7  -5 1717.14 442.642   3
   0   7   5 2048.74 568.376   6
   0   7   6 2205.77 560.155   6
   0  -7  -6 1768.80 476.567   3
   0  -7  -7 565.305 231.157   3
   0   7   8 335.945 271.659   2
   0   7   9 7526.09 1045.73   2
   0   7  10 1.22759 78.5703   2
   0   7  11 1425.79 519.385   2
   0   7  12-298.004 290.241   2
   0  -8  11 16.9519 124.619   2
   0  -8  10 11127.6 1353.15   2
   0  -8   9 42.0111 186.393   3
   0  -8   9 130.621 226.831   2
   0  -8   8 81060.4 3223.07   3
   0  -8   7-105.731 144.599   3
   0  -8   6 41143.1 1982.14   3
   0  -8   5-43.0766 155.852   3
   0   8  -5 84.8669 216.915   6
   0   8  -4 21618.1 1998.90   6
   0  -8   4 18758.8 1283.85   3
   0   8  -3 59.8155 70.4581   6
   0  -8   3 140.372 166.035   3
   0  -8   2 50416.0 2144.66   3
   0   8  -2 53221.9 3174.71   6
   0  -8   2 50325.1 1718.25   4
   0  -8   1 41.9653 58.3702   3
   0  -8   1 49.1423 66.6746   4
   0   8  -1 126.754 252.440   6
   0  -8   0 3040.25 534.760   3
   0   8   0 2593.43 685.512   6
   0  -8  -1 270.964 192.021   3
   0   8   1-159.199 157.879   6
   0   8   2 34459.8 2491.05   6
   0  -8  -2 34903.5 1924.08   3
   0   8   3 1979.67 585.302   6
   0  -8  -3 1203.68 385.694   3
   0   8   3 2000.29 363.263   4
   0   8   4 22365.2 1375.38   4
   0  -8  -4 23581.4 1709.55   3
   0   8   4 24034.8 2101.02   6
   0   8   5 586.906 224.419   4
   0  -8  -5 578.125 320.171   3
   0   8   5 813.825 387.471   6
   0  -8  -6 64651.6 3114.24   3
   0   8   6 63785.5 2449.56   4
   0   8   6 69960.8 3495.52   6
   0  -8  -7 1351.79 454.305   3
   0   8   8 21623.2 1642.80   2
   0  -8  -8 29575.3 2199.84   3
   0   8   9 1791.09 509.762   2
   0   8  10 26026.9 2038.94   2
   0   8  11 660.913 141.922   2
   0  -9  10-94.3208 153.784   3
   0  -9   9 56339.0 2754.08   3
   0  -9   8 20.6384 145.404   3
   0  -9   7 29921.5 1871.73   3
   0  -9   6 941.813 289.990   3
   0  -9   5 26468.3 1651.56   3
   0   9  -5 30747.2 2570.00   6
   0  -9   4 243.022 163.525   3
   0   9  -4-37.1414 70.6103   6
   0   9  -3 16529.3 1873.38   6
   0  -9   3 15772.1 1286.56   3
   0   9  -2 4373.14 1009.67   6
   0  -9   2 3395.54 598.386   3
   0   9  -1 154.359 149.909   6
   0  -9   1-96.7282 116.894   3
   0   9   0 4576.90 940.985   6
   0  -9   0 3626.08 614.982   3
   0   9   1 6761.14 1170.71   6
   0  -9  -1 5849.85 807.399   3
   0   9   2 3293.68 814.219   6
   0  -9  -2 4553.76 747.628   3
   0   9   3 535.486 214.259   6
   0  -9  -3 1924.69 501.232   3
   0   9   3 1288.06 313.061   4
   0   9   4 4699.52 617.303   4
   0   9   4 4116.65 889.029   6
   0  -9  -4 4797.75 823.381   3
   0  -9  -5 128.720 197.978   3
   0   9   5 171.427 55.9111   4
   0   9   5 431.935 332.576   6
   0  -9  -6 1302.04 496.945   3
   0   9   6 725.651 269.898   4
   0  -9  -7 145.152 214.668   3
   0   9   7 556.328 275.980   4
   0  -9  -8 1298.68 471.942   3
   0   9   9 1143.69 451.643   2
   0   9  10-20.8280 60.2615   2
   0 -10   9 523.464 301.699   3
   0 -10   8 19942.8 1654.01   3
   0 -10   7 22.4713 184.946   3
   0 -10   6 45813.0 2403.55   3
   0 -10   5 45.0765 66.9025   3
   0 -10   4 32423.7 1984.45   3
   0  10  -4 36226.7 2970.83   6
   0 -10   3-43.4627 116.244   3
   0  10  -3-142.615 218.486   6
   0  10  -2 13235.2 1736.85   6
   0 -10   2 12362.2 1240.13   3
   0 -10   1-31.8961 181.225   3
   0  10  -1 641.809 347.589   6
   0  10   0 7983.49 1327.58   6
   0 -10   0 8467.65 1028.10   3
   0 -10  -1 34.7918 70.0964   3
   0  10   1-132.252 190.636   6
   0 -10  -2 3052.90 669.358   3
   0  10   2 3219.97 805.861   6
   0  10   3-344.977 259.397   6
   0 -10  -3 212.933 257.372   3
   0 -10  -4 18338.2 1689.01   3
   0  10   4 15909.2 1937.58   6
   0 -10  -5 96.3493 47.1770   3
   0 -10  -6 14729.5 1636.99   3
   0 -10  -7 726.185 385.203   3
   0 -10  -8 23932.1 2165.03   3
   0  10   9 310.078 168.622   2
   0 -11   7 37158.5 2379.86   3
   0 -11   6 184.333 132.864   3
   0 -11   5 31380.9 2088.70   3
   0 -11   4 2276.28 563.754   3
   0 -11   3 6264.15 952.150   3
   0  11  -2 205.725 298.382   6
   0 -11   2 579.352 288.862   3
   0 -11   1 12838.2 1325.42   3
   0  11  -1 16245.4 2049.20   6
   0  11   0 2417.90 770.819   6
   0 -11   0 2492.38 580.328   3
   0 -11  -1 687.114 320.783   3
   0  11   1 1294.25 635.357   6
   0 -11  -2 5565.91 935.600   3
   0  11   2 6048.28 1250.46   6
   0 -11  -3 226.109 224.590   3
   0 -11  -4 2137.25 579.434   3
   0 -11  -5 681.115 281.505   3
   0 -11  -6 3943.39 885.923   3
   0 -11  -7 152.194 98.6772   3
   0 -12   5 939.545 397.477   3
   0 -12   4 33103.5 2310.50   3
   0 -12   3 350.177 265.117   3
   0 -12   2 30485.5 2214.72   3
   0 -12   1-292.558 305.149   3
   0 -12   0 15987.3 1620.49   3
   0 -12  -1 333.077 198.210   3
   0 -12  -2 1613.23 497.059   3
   0 -12  -3 146.275 103.285   3
   0 -12  -4 2127.51 610.380   3
   0 -12  -5 87.4848 51.9940   3
  -1  12   4 725.779 574.947   6
   1 -12  -4 429.347 235.934   3
   1 -12  -3 25985.7 2230.88   3
  -1  12   3 26653.2 2833.21   6
   1 -12  -2 283.509 391.290   3
  -1  12   2 281.816 282.124   6
  -1  12   1 13444.1 2017.20   6
   1 -12  -1 15817.8 1672.19   3
  -1  12   0 3371.37 996.733   6
   1 -12   0 2105.63 605.158   3
   1 -12   1 9277.01 1213.68   3
  -1  12  -1 9886.64 1700.23   6
  -1  12  -2 1528.36 699.504   6
   1 -12   2 1161.97 411.923   3
   1 -12   3 10978.2 1308.53   3
  -1  12  -3 11913.7 1930.82   6
   1 -12   4 1146.33 367.791   3
  -1  12  -4 2138.23 816.641   6
   1 -11  -6 3814.65 818.024   3
   1 -11  -5 2162.86 676.948   3
  -1  11   5 2629.99 891.880   6
  -1  11   4 2526.10 816.292   6
   1 -11  -4 1585.15 553.439   3
   1 -11  -3 1649.83 523.887   3
  -1  11   3 1042.20 568.350   6
  -1  11   2 716.475 510.552   6
   1 -11  -2 69.3468 124.163   3
  -1  11   1 417.768 341.291   6
   1 -11  -1 1224.17 429.865   3
   1 -11   0 1636.22 462.057   3
  -1  11   0 2478.61 815.964   6
   1 -11   1 12817.3 1345.20   3
  -1  11  -1 12334.0 1824.71   6
   1 -11   2 3242.48 695.460   3
  -1  11  -2 1908.52 682.084   6
  -1  11  -3 24540.3 2623.14   6
   1 -11   3 25195.9 1880.27   3
  -1  11  -4 53.3727 301.397   6
   1 -11   4 82.8667 52.3765   3
   1 -11   5 8517.38 1087.87   3
  -1  11  -5 7805.00 1431.66   6
   1 -11   6 526.284 276.593   3
  -1  11  -6 1213.87 567.195   6
   1 -11   7 11563.7 1314.52   3
  -1  10   8 1537.95 456.862   2
   1 -10  -7 5528.39 982.953   3
   1 -10  -6 639.522 308.985   3
  -1  10   6 284.281 210.696   6
  -1  10   5 24839.0 2508.93   6
   1 -10  -5 25034.4 2043.11   3
   1 -10  -4 5737.71 958.949   3
  -1  10   4 5866.81 1228.62   6
  -1  10   3 36266.0 2970.11   6
   1 -10  -3 39069.8 2425.68   3
  -1  10   2 2139.03 681.952   6
   1 -10  -2 2337.46 582.707   3
   1 -10  -1 49184.4 2562.92   3
  -1  10   1 50105.7 3457.76   6
   1 -10   0 503.800 240.413   3
  -1  10   0-179.891 270.951   6
  -1  10  -1 39470.9 3069.82   6
   1 -10   1 40668.4 2251.83   3
  -1  10  -2 1330.72 605.076   6
   1 -10   2 2002.66 495.121   3
   1 -10   3 9776.18 1101.05   3
  -1  10  -3 10131.9 1580.65   6
  -1  10  -4-77.7347 328.729   6
   1 -10   4 29.9901 109.202   3
   1 -10   5 22406.3 1639.95   3
  -1  10  -5 23280.5 2429.07   6
  -1  10  -6 922.921 526.533   6
   1 -10   6 904.982 326.161   3
   1 -10   7 1296.19 415.351   3
  -1  10  -7 1855.72 612.828   6
   1 -10   8 2673.83 618.011   3
  -1   9   9 3507.38 713.858   2
  -1   9   8 2398.40 525.660   2
  -1   9   8 3619.09 701.430   4
  -1   9   7 13917.2 1599.27   6
   1  -9  -7 14334.6 1552.43   3
  -1   9   7 15436.1 1388.99   4
  -1   9   6 483.914 359.569   6
  -1   9   6 377.263 215.932   4
   1  -9  -6 760.336 369.082   3
   1  -9  -5 3796.36 757.347   3
  -1   9   5 4560.95 738.748   4
  -1   9   5 3648.57 888.790   6
  -1   9   4 5642.80 1102.03   6
   1  -9  -4 3559.24 660.206   3
  -1   9   4 4206.26 669.329   4
   1  -9  -3 5726.46 872.940   3
  -1   9   3 6825.19 1194.75   6
  -1   9   3 6128.93 753.080   4
   1  -9  -2 6636.74 905.985   3
  -1   9   2 5861.56 1091.48   6
  -1   9   1 101.358 174.024   6
   1  -9  -1 104.373 148.568   3
  -1   9   0 560.356 310.006   6
   1  -9   0 461.157 284.559   3
   1  -9   1 2749.84 536.834   3
  -1   9  -1 2123.26 674.777   6
  -1   9  -2 3234.02 822.371   6
   1  -9   2 2257.93 498.131   3
  -1   9  -3 3320.20 842.564   6
   1  -9   3 3022.78 557.930   3
  -1   9  -4 761.195 434.748   6
   1  -9   4 897.869 317.039   3
   1  -9   5 45894.0 2141.64   3
  -1   9  -5 47988.2 3278.13   6
  -1   9  -6 948.294 480.929   6
   1  -9   6 512.873 262.069   3
  -1   9  -7 8396.44 1373.90   6
   1  -9   7 6839.38 853.358   3
   1  -9   8 2909.69 603.207   3
   1  -9   9 12313.4 1233.85   3
   1  -9  10 1567.57 484.486   3
  -1   8  10 6286.15 955.773   2
  -1   8   9 1200.17 432.520   2
  -1   8   8 11556.1 1193.66   2
  -1   8   8 13681.1 1332.71   6
   1  -8  -7 12091.9 1358.66   3
  -1   8   7 10136.8 1255.34   6
  -1   8   7 11329.6 1175.73   4
  -1   8   6 946.341 408.163   6
   1  -8  -6 1515.68 442.845   3
  -1   8   6 1377.15 388.288   4
  -1   8   5 6951.51 1184.50   6
  -1   8   5 5836.42 803.109   4
   1  -8  -5 6676.59 944.587   3
  -1   8   4 4311.57 927.442   6
   1  -8  -4 3310.02 648.090   3
  -1   8   4 3970.04 645.457   4
  -1   8   3 50798.9 3105.17   6
  -1   8   3 51715.3 2158.08   4
   1  -8  -3 55737.2 2600.10   3
  -1   8   2 45.1590 105.024   4
   1  -8  -2 66.0014 144.554   3
  -1   8   2 86.8040 15.3587   6
  -1   8   1 103458. 4356.16   6
   1  -8  -1 89290.9 2992.16   3
   1  -8   0 438.858 173.388   3
  -1   8   0 30.9367 84.9458   6
  -1   8  -1 72525.4 3671.50   6
   1  -8   1 68397.7 2470.32   3
   1  -8   2 3863.70 581.090   3
  -1   8  -2 4322.53 918.376   6
   1  -8   3 97601.1 2895.12   3
  -1   8  -3 98416.0 4424.35   6
  -1   8  -4-137.548 197.548   6
   1  -8   4 140.479 130.348   3
   1  -8   5 10788.6 965.192   3
  -1   8  -5 11601.8 1503.29   6
   1  -8   6 548.227 223.107   3
  -1   8  -6 550.725 371.042   6
  -1   8  -7 22047.1 2074.46   6
   1  -8   7 19170.5 1383.75   3
  -1   8  -8 671.003 307.254   6
   1  -8   8 1109.50 363.173   3
   1  -8   9 325.325 322.348   3
   1  -8  10 540.584 375.970   3
   1  -8  10 101.032 202.466   2
   1  -8  11 14712.4 1528.90   2
   1  -8  11 20456.5 1933.68   3
  -1   7  11 5979.57 1045.12   2
  -1   7  10 771.973 364.279   2
  -1   7   9 6948.80 1015.12   2
  -1   7   8 2154.76 541.489   2
  -1   7   8 1711.20 446.659   6
  -1   7   7 1065.15 304.708   2
  -1   7   7 1746.63 470.988   6
  -1   7   6 6224.73 1001.18   6
   1  -7  -6 5947.48 897.301   3
   1  -7  -5 33331.8 2069.85   3
  -1   7   5 32436.2 1783.59   4
  -1   7   5 35219.6 2390.73   6
  -1   7   4 2643.60 632.581   6
  -1   7   4 2672.29 516.166   4
   1  -7  -4 2807.39 596.659   3
  -1   7   3 2046.19 389.792   4
  -1   7   3 1385.92 422.409   6
   1  -7  -3 1824.99 425.120   3
  -1   7   2 952.052 363.823   6
  -1   7   2 1163.08 274.124   4
   1  -7  -2 1341.47 379.133   3
  -1   7   1 6677.82 1012.25   6
   1  -7  -1 7291.97 801.358   3
   1  -7   0 9822.51 874.928   3
  -1   7   0 9265.98 1204.09   6
   1  -7   1 401.261 166.337   3
  -1   7  -1 571.379 314.449   6
  -1   7  -2 188.593 186.634   6
   1  -7   2 115.947 67.2467   5
   1  -7   2 347.041 136.840   3
  -1   7  -3 151.062 110.724   6
   1  -7   3 59.6296 132.527   5
   1  -7   4-48.9829 49.1194   3
  -1   7  -4 198.283 99.2940   6
   1  -7   4 185.600 197.890   5
   1  -7   5 1444.63 483.304   5
  -1   7  -5 1836.17 503.547   6
   1  -7   5 2147.19 407.345   3
   1  -7   6 197.891 71.5465   3
   1  -7   6 144.630 150.646   5
  -1   7  -6 430.044 173.698   6
  -1   7  -7 16914.4 1668.83   6
   1  -7   7 16222.8 1267.39   3
   1  -7   7 17057.6 1553.66   5
   1  -7   8 4109.36 685.189   2
   1  -7   8 3824.52 715.559   5
  -1   7  -8 3839.94 789.930   6
   1  -7   9 10871.9 1276.21   2
   1  -7  10 1613.70 676.721   2
   1  -7  11 7070.25 1373.81   2
   1  -7  12 3160.95 1004.00   2
  -1   6  12 3399.14 893.317   2
  -1   6  11 4393.15 925.056   2
  -1   6  10 373.607 273.370   2
  -1   6   9 3798.48 799.934   2
  -1   6   8 8213.95 1053.93   2
  -1   6   8 6139.77 772.219   6
  -1   6   7 6443.86 877.093   2
  -1   6   7 6774.93 895.463   6
  -1   6   6 29576.0 1970.87   6
   1  -6  -6 28720.6 1920.38   3
   1  -6  -5 37873.0 2133.06   3
  -1   6   5 38393.2 2330.65   6
  -1   6   4 125.411 153.680   4
  -1   6   4 444.699 374.542   6
   1  -6  -4 3.90446 103.384   3
  -1   6   3 13894.4 1368.76   6
  -1   6   3 13147.6 1018.95   4
   1  -6  -3 14100.5 1164.34   3
   1  -6  -2 9773.82 910.277   3
  -1   6   2 11320.6 1234.46   6
  -1   6   2 12258.0 897.605   4
  -1   6   1 67157.3 1952.04   4
  -1   6   1 69601.5 3048.70   6
   1  -6  -1 67275.7 2208.08   3
   1  -6   0 54.2372 122.148   5
   1  -6   0 140.205 75.6186   4
  -1   6   0 202.509 197.411   6
   1  -6   0 18.5907 37.7042   3
   1  -6   0 7.51289 112.436   1
  -1   6  -1 210099. 5389.98   6
   1  -6   1 212116. 4724.18   5
   1  -6   1 201451. 3480.30   4
   1  -6   1 219039. 3710.26   3
   1  -6   1 213582. 4860.57   1
   1  -6   2 688.152 286.314   5
   1  -6   2 845.921 218.900   4
  -1   6  -2 797.591 273.450   6
   1  -6   2 1005.41 235.392   3
   1  -6   2 867.478 358.352   1
   1  -6   3 77056.1 2915.19   1
   1  -6   3 77605.4 2922.48   5
   1  -6   3 76170.6 2103.59   3
  -1   6  -3 82246.0 3460.38   6
   1  -6   4 173.427 113.205   3
   1  -6   4-31.2991 110.134   1
   1  -6   4-51.9788 124.165   5
  -1   6  -4-80.2793 140.257   6
  -1   6  -5 153241. 4734.59   6
   1  -6   5 143566. 4084.99   5
   1  -6   5 154394. 3309.11   3
   1  -6   6 5410.96 819.291   5
   1  -6   6 5625.26 695.900   2
  -1   6  -6 5981.34 942.722   6
   1  -6   7 23037.0 1682.93   5
  -1   6  -7 25583.8 1923.71   6
   1  -6   8 6471.94 917.771   5
  -1   6  -8 7555.20 1000.59   6
   1  -6   9 21737.1 2533.14   2
   1  -6   9 15640.3 1465.74   5
   1  -6  10 2208.79 818.811   2
   1  -6  11 134.339 358.119   2
   1  -6  12 3394.98 1374.78   2
  -1   5  12 13039.4 1708.66   2
  -1   5  11-10.7453 164.977   2
  -1   5  10 15761.8 1757.45   2
  -1   5   9 5442.81 969.134   2
  -1   5   8 2518.99 621.452   2
  -1   5   8 2112.36 398.308   6
  -1   5   7 34924.4 1831.54   6
  -1   5   7 38845.0 2195.70   2
  -1   5   6 1734.29 450.842   6
  -1   5   6 1958.87 457.174   2
  -1   5   5 3940.75 667.423   6
   1  -5  -5 4019.31 660.116   3
  -1   5   4 1660.32 453.794   6
   1  -5  -4 1257.20 347.489   3
   1  -5  -3 43696.0 1977.20   3
  -1   5   3 43971.0 2243.45   6
  -1   5   3 41715.2 1729.64   4
  -1   5   2 15598.9 971.465   4
  -1   5   2 14180.5 1234.14   6
   1  -5  -2 14897.6 1046.28   3
   1  -5  -2 15097.7 1184.24   1
   1  -5  -1 13223.1 1111.03   1
   1  -5  -1 13219.0 1040.42   5
  -1   5   1 12380.2 794.895   4
   1  -5  -1 11816.3 844.094   3
  -1   5   1 12304.1 1169.20   6
   1  -5   0 204.525 90.7546   4
  -1   5   0 300.385 187.668   6
   1  -5   0 652.440 274.696   5
   1  -5   0 337.576 202.065   1
   1  -5   0 209.701 106.925   3
  -1   5   0 277.540 129.342   3
   1  -5   1-110.044 135.557   5
  -1   5  -1 46.5902 59.3637   3
   1  -5   1 122.760 71.8715   3
   1  -5   1 90.2294 48.3480   1
  -1   5  -1 128.810 213.673   6
   1  -5   1 176.635 84.9458   4
   1  -5   2 9725.97 666.378   3
   1  -5   2 9956.87 943.265   1
   1  -5   2 10774.9 751.722   4
   1  -5   2 9376.64 925.497   5
  -1   5  -2 9639.28 1065.19   6
   1  -5   3 6157.64 747.685   1
  -1   5  -3 7193.99 923.225   6
   1  -5   3 6144.08 544.257   3
   1  -5   3 6885.27 777.261   5
   1  -5   4 886.915 236.189   3
  -1   5  -4 841.914 334.287   6
   1  -5   4 547.976 156.280   1
   1  -5   4 449.602 254.244   5
   1  -5   5 1309.84 329.264   2
   1  -5   5 1894.42 427.479   1
  -1   5  -5 2095.84 516.867   6
   1  -5   5 1763.58 421.685   5
  -1   5  -6 5593.23 827.620   6
   1  -5   6 4926.60 646.057   1
   1  -5   6 4365.66 663.897   5
   1  -5   7 9671.19 999.295   5
  -1   5  -7 9916.14 1084.00   6
   1  -5   8 1542.43 369.651   5
  -1   5  -8 1468.45 388.177   6
   1  -5   9 9708.77 4203.58   2
   1  -5   9 5674.13 797.970   5
   1  -5  10 1862.37 504.704   5
   1  -5  10 2716.91 3515.93   2
   1  -5  11 4952.46 2723.71   2
   1  -5  12-607.317 2638.34   2
   1  -5  13 3047.52 2164.49   2
  -1   4  13 2663.26 773.677   2
  -1   4  12 325.705 398.581   2
  -1   4  11 25098.3 2280.10   2
  -1   4  10 23434.4 2148.02   2
  -1   4   9 14074.7 1556.41   2
  -1   4   8 428.024 168.564   6
  -1   4   8 429.863 259.365   2
  -1   4   7 3337.67 513.173   6
  -1   4   7 4771.58 771.396   2
  -1   4   7 3957.71 440.974   5
  -1   4   6 5991.28 798.916   2
  -1   4   6 6665.45 775.920   6
  -1   4   6 6390.85 604.569   5
  -1   4   5 30892.9 1696.84   6
  -1   4   5 29216.3 1333.16   5
  -1   4   4 26908.2 1585.62   6
  -1   4   4 27095.4 1322.70   5
   1  -4  -4 27776.0 1560.34   3
   1  -4  -3 70253.8 2332.47   1
   1  -4  -3 72999.2 2425.55   3
  -1   4   3 70877.0 2189.51   5
   1  -4  -2 3575.43 523.970   1
   1  -4  -2 3459.80 468.346   3
  -1   4   2 3904.85 484.136   3
  -1   4   2 3746.76 517.527   5
  -1   4   2 3676.70 445.859   4
   1  -4  -1 32185.5 1443.27   5
  -1   4   1 32593.4 1219.55   4
  -1   4   1 32760.7 1518.51   5
   1  -4  -1 31576.3 1253.89   3
   1  -4  -1 32303.8 1542.26   1
  -1   4   1 31837.1 1228.39   3
   1  -4   0 1337.47 296.092   5
   1  -4   0 957.759 253.708   1
   1  -4   0 1108.21 218.455   4
  -1   4   0 1148.37 213.548   4
  -1   4   0 936.380 260.966   5
  -1   4   0 1140.35 207.880   3
   1  -4   0 995.300 208.840   3
   1  -4   1 76906.3 1716.13   3
   1  -4   1 74717.8 1767.75   4
  -1   4  -1 73328.6 2303.88   1
   1  -4   1 75726.0 2352.05   1
   1  -4   1 78066.4 2322.76   5
  -1   4  -1 80857.7 1802.27   3
  -1   4  -2 5011.55 799.451   2
   1  -4   2 4557.74 562.135   5
   1  -4   2 4913.93 592.065   1
  -1   4  -2 4352.45 544.500   1
   1  -4   2 4818.36 400.356   3
   1  -4   3 286336. 4474.42   1
   1  -4   3 277792. 4579.31   5
  -1   4  -3 275787. 4243.80   1
   1  -4   4 9535.72 863.675   5
  -1   4  -4 10196.5 791.891   1
  -1   4  -4 10742.7 999.863   6
   1  -4   4 9913.19 840.414   1
  -1   4  -5 115364. 2619.36   1
  -1   4  -5 113462. 3318.04   6
   1  -4   5 116731. 2873.61   1
   1  -4   6 1813.28 361.621   1
  -1   4  -6 2272.79 352.162   1
   1  -4   6 2177.26 437.688   5
   1  -4   6 1067.06 358.973   2
  -1   4  -6 2389.31 486.278   6
   1  -4   7 117986. 3237.45   5
  -1   4  -7 113386. 2415.41   1
   1  -4   7 123041. 2938.63   1
  -1   4  -7 121148. 3409.75   6
   1  -4   8 22520.9 1446.07   5
  -1   4  -8 21596.6 1016.37   1
  -1   4  -8 21236.1 1397.19   6
   1  -4   9 50484.2 2249.82   5
   1  -4   9 41773.5 5409.20   2
   1  -4  10 454.998 237.304   5
   1  -4  10-996.024 1332.42   2
   1  -4  11 4769.94 1742.23   2
   1  -4  12 1836.63 1219.79   2
   1  -4  13-39.8127 1727.63   2
  -1   3  13 4415.95 1030.30   2
  -1   3  12 41696.7 2987.12   2
  -1   3  11 3244.65 831.299   2
  -1   3  10 26850.9 2215.83   2
  -1   3   9 424.417 296.069   2
  -1   3   8 34512.5 2264.63   2
  -1   3   8 28507.2 1247.20   1
  -1   3   7 6342.72 424.178   5
  -1   3   7 5947.85 582.604   6
  -1   3   7 7546.59 1001.06   2
  -1   3   7 6128.09 593.098   1
  -1   3   6 15210.7 952.136   1
  -1   3   6 15207.1 1268.35   2
  -1   3   6 14135.8 989.900   6
  -1   3   6 14946.2 733.492   5
  -1   3   5 49074.1 2098.97   2
  -1   3   5 48145.6 1717.39   1
  -1   3   5 45485.7 1399.21   5
  -1   3   5 47324.1 1820.51   6
  -1   3   4 398.818 128.757   1
  -1   3   4 751.284 180.961   5
  -1   3   4 708.221 256.358   2
  -1   3   3 52229.4 1784.18   1
  -1   3   3 47237.3 1655.21   3
   1  -3  -3 52331.0 1863.96   3
  -1   3   3 51201.6 1584.37   5
   1  -3  -3 51983.5 1759.08   1
  -1   3   2 1364.79 265.072   5
   1  -3  -2 1034.69 223.250   5
   1  -3  -2 1139.81 296.723   3
  -1   3   2 1470.02 292.230   1
   1  -3  -2 1192.12 255.342   1
  -1   3   2 1335.55 259.616   3
  -1   3   1 30885.8 1122.83   4
  -1   3   1 32310.2 1369.84   1
   1  -3  -1 28431.7 1089.40   3
  -1   3   1 33339.5 1155.88   3
   1  -3  -1 31118.4 1205.55   5
  -1   3   1 30121.8 1238.14   5
   1  -3  -1 30365.2 1310.93   1
  -1   3   0 16879.7 976.982   1
  -1   3   0 16483.3 752.872   4
   1  -3   0 16804.1 909.883   5
   1  -3   0 16328.4 701.282   3
  -1   3   0 16238.0 671.259   3
   1  -3   0 16113.1 937.147   1
  -1   3   0 17029.7 937.355   5
   1  -3   0 16203.7 784.475   4
  -1   3  -1 173109. 2185.06   3
   1  -3   1 166192. 2452.57   4
  -1   3  -1 161427. 2922.20   1
   1  -3   1 176274. 3008.52   5
   1  -3   1 165038. 2066.47   3
  -1   3  -1 168261. 2957.55   5
   1  -3   1 168226. 3001.39   1
  -1   3  -2 959.629 207.067   5
   1  -3   2 883.841 197.480   1
   1  -3   2 937.225 224.593   5
  -1   3  -2 1080.86 212.874   1
  -1   3  -2 835.068 490.784   2
   1  -3   2 1028.43 170.215   3
   1  -3   3 168.331 115.441   5
   1  -3   3 234.554 107.520   1
  -1   3  -3 83.7753 42.3460   1
   1  -3   3 130.788 149.424   2
  -1   3  -3-10.5378 44.2978   5
  -1   3  -4 217.783 119.698   1
  -1   3  -4 244.920 142.021   5
   1  -3   4 302.981 164.970   5
  -1   3  -4 305.614 151.377   2
   1  -3   4 30.1443 71.2481   1
   1  -3   5 522.247 188.431   5
  -1   3  -5 573.432 178.969   5
   1  -3   5 372.881 147.066   1
  -1   3  -5 429.262 125.616   1
   1  -3   6 5485.63 613.447   5
   1  -3   6 4634.56 1002.28   2
  -1   3  -6 4763.32 612.178   6
   1  -3   6 5881.92 555.632   1
  -1   3  -6 5344.97 461.232   1
   1  -3   7 3986.09 783.993   2
   1  -3   7 3732.75 515.194   5
  -1   3  -7 2875.22 452.816   6
   1  -3   7 3646.43 434.148   1
  -1   3  -7 2987.20 344.272   1
  -1   3  -8 12624.9 895.786   6
  -1   3  -8 13113.9 696.476   1
   1  -3   8 13144.1 1007.29   5
   1  -3   8 14416.4 836.023   1
   1  -3   9 16783.6 1710.79   2
   1  -3   9 11883.9 974.961   5
   1  -3  10 61.2259 101.580   5
   1  -3  10 449.270 320.618   2
   1  -3  11 1437.97 573.146   2
   1  -3  12-302.083 287.246   2
   1  -3  13 4963.45 1398.86   2
   1  -3  14-81.1801 359.803   2
  -1   2  13 8971.28 1342.61   2
  -1   2  12 516.042 430.678   2
  -1   2  11 14238.0 1568.13   2
  -1   2  10 1761.20 526.285   2
  -1   2   9 31108.8 2159.00   2
  -1   2   8 27417.5 964.832   1
  -1   2   8 26870.7 1918.93   2
  -1   2   7 32479.7 1098.34   1
  -1   2   7 33392.5 1970.37   2
  -1   2   7 28851.7 1078.10   6
  -1   2   6 19017.5 926.668   6
  -1   2   6 18599.3 851.276   1
  -1   2   6 20886.9 1458.58   2
  -1   2   6 18302.0 531.519   5
  -1   2   5 8146.62 841.966   2
  -1   2   5 7724.75 566.835   1
  -1   2   5 7725.95 411.327   5
   1  -2  -4 267.359 110.158   1
  -1   2   4 188.822 139.528   3
  -1   2   4 124.878 102.915   2
  -1   2   4 184.042 72.5523   5
  -1   2   4 240.196 64.1924   1
   1  -2  -3 37541.5 1262.30   1
  -1   2   3 37724.7 1259.30   1
  -1   2   3 38728.9 1065.09   5
  -1   2   3 38411.8 1453.47   2
  -1   2   3 37166.0 1375.65   3
   1  -2  -2 104136. 1775.73   5
  -1   2   2 102363. 2042.09   1
  -1   2   2 96338.6 1940.45   3
   1  -2  -2 103278. 2017.42   1
  -1   2   2 102536. 1797.81   5
   1  -2  -2 98441.4 2055.62   3
  -1   2   1 75797.7 1732.82   1
   1  -2  -1 76970.6 1726.88   1
   1  -2  -1 76452.2 1549.57   5
  -1   2   1 77721.0 1618.51   3
  -1   2   1 73744.4 1564.48   5
  -1   2   1 77157.3 1640.04   4
   1  -2  -1 82416.4 1721.84   3
   1  -2   0 3925.15 354.970   5
  -1   2   0 4325.64 346.131   4
   1  -2   0 4484.47 402.925   1
  -1   2   0 3710.43 383.540   1
   1  -2   0 4096.65 359.630   4
  -1   2   0 4386.62 394.436   5
   1  -2   0 3814.75 276.573   3
  -1   2   0 4069.64 280.488   3
   1  -2   1 111619. 2017.19   1
  -1   2  -1 106692. 1971.38   1
  -1   2  -1 111946. 1597.78   2
   1  -2   1 110869. 2032.10   5
  -1   2  -1 110405. 2013.20   5
   1  -2   2 12096.9 649.289   1
   1  -2   2 11397.8 680.627   5
  -1   2  -2 11609.5 670.500   5
  -1   2  -2 13233.4 985.166   2
  -1   2  -2 11650.2 634.563   1
   1  -2   3 88616.8 1762.18   1
   1  -2   3 81705.3 1928.22   5
  -1   2  -3 80874.5 1578.26   2
  -1   2  -3 88509.5 1902.82   5
  -1   2  -3 86868.5 1703.51   1
  -1   2  -4 15790.8 824.067   5
   1  -2   4 16178.4 751.669   1
  -1   2  -4 16026.9 825.252   2
  -1   2  -4 15327.7 701.335   1
   1  -2   4 14885.6 825.426   5
  -1   2  -5 274122. 3524.20   5
   1  -2   5 267248. 3098.73   1
   1  -2   5 271681. 3651.43   5
  -1   2  -5 275377. 2865.92   1
  -1   2  -6 189.406 101.859   6
  -1   2  -6 185.368 71.4866   1
  -1   2  -6 140.058 67.6094   5
   1  -2   6 222.460 101.987   5
   1  -2   6 167.253 90.6733   1
   1  -2   6 119.035 32.7482   2
  -1   2  -7 160251. 2122.27   1
   1  -2   7 158979. 3014.88   5
   1  -2   7 155323. 3603.09   2
   1  -2   7 161578. 2360.15   1
  -1   2  -7 165291. 2763.51   6
   1  -2   8 7769.45 870.127   2
   1  -2   8 8302.03 725.655   5
   1  -2   8 9437.22 548.462   1
   1  -2   9 67685.7 2154.40   5
   1  -2   9 64368.0 2698.97   2
   1  -2  10 7654.48 735.465   5
   1  -2  10 6563.59 875.282   2
   1  -2  11 50509.2 2686.66   2
   1  -2  12 8402.92 1233.04   2
   1  -2  13 7322.44 1324.53   2
   1  -2  14 1988.94 753.625   2
  -1   1  14 16619.7 1958.18   2
  -1   1  13-246.565 248.074   2
  -1   1  12 17450.2 1786.26   2
  -1   1  11 646.741 288.099   2
  -1   1  10 77952.5 3383.70   2
  -1   1   9 60.3487 17.1448   2
  -1   1   8 49474.5 2421.48   2
  -1   1   7-151.880 214.634   2
  -1   1   7-14.0629 33.7998   1
  -1   1   6 35764.2 1768.33   2
  -1   1   6 34886.4 851.891   1
  -1   1   6 35473.7 951.910   6
  -1   1   5 1549.89 190.836   1
  -1   1   5 1947.59 385.364   2
   1  -1  -4 32420.6 1305.12   2
  -1   1   4 36372.7 1489.90   2
  -1   1   4 35466.1 899.021   1
   1  -1  -4 35316.6 1005.67   1
   1  -1  -3 25985.5 816.315   1
  -1   1   3 27048.0 1129.64   2
   1  -1  -3 24817.7 1017.21   2
  -1   1   3 26166.3 533.422   5
  -1   1   3 24755.6 773.032   1
  -1   1   2 127.818 61.9882   1
  -1   1   2 143.657 76.4543   2
   1  -1  -2 72.7161 11.3565   1
   1  -1  -2 78.4497 29.1001   5
  -1   1   2 178.328 90.3980   3
  -1   1   2 147.177 46.8688   5
  -1   1   1 7848.93 437.298   1
   1  -1  -1 8780.49 451.254   1
   1  -1  -1 8251.67 375.322   5
  -1   1   1 7441.00 390.127   3
  -1   1   1 8013.59 381.134   5
  -1   1   0 187.926 67.3218   1
   1  -1   0 274.024 84.2044   1
   1  -1   0 212.011 51.5664   3
  -1   1   0 308.941 76.8025   5
  -1   1   0 183.678 43.0117   3
   1  -1   0 168.685 60.7455   5
  -1   1   0 256.913 74.8301   4
   1  -1   0 416.492 104.009   4
  -1   1  -1 17797.7 1248.98   2
  -1   1  -1 16013.1 621.321   5
   1  -1   1 16928.7 618.743   1
   1  -1   1 15573.5 612.887   5
  -1   1  -1 15472.7 606.753   1
  -1   1  -2 2613.71 218.017   2
   1  -1   2 2655.03 269.924   5
  -1   1  -2 2537.70 238.420   1
   1  -1   2 2584.12 236.797   2
   1  -1   2 2600.54 248.562   1
  -1   1  -2 2361.38 255.048   5
  -1   1  -3 70947.9 1246.80   1
  -1   1  -3 69851.9 1477.09   2
   1  -1   3 65985.6 1359.07   2
   1  -1   3 70072.4 1454.72   5
   1  -1   3 70226.8 1291.18   1
  -1   1  -3 70855.0 1473.95   5
  -1   1  -4 6183.00 369.870   1
  -1   1  -4 6870.48 556.843   2
   1  -1   4 6281.71 459.056   5
   1  -1   4 5494.09 471.625   2
   1  -1   4 6570.12 393.139   1
  -1   1  -4 6626.15 475.010   5
  -1   1  -5 18224.7 1047.55   2
  -1   1  -5 16437.9 609.336   1
   1  -1   5 15205.8 869.128   2
   1  -1   5 16693.8 778.270   5
   1  -1   5 17259.1 632.702   1
   1  -1   6 1977.42 206.232   1
   1  -1   6 1716.29 306.195   2
   1  -1   6 1915.28 272.912   5
   1  -1   7 154.370 109.245   5
   1  -1   7 96.3415 47.4727   1
   1  -1   7-68.2719 109.709   2
  -1   1  -7 101.680 38.1382   6
   1  -1   8 1773.47 312.035   5
   1  -1   8 1920.99 419.962   2
   1  -1   8 1974.65 191.153   1
   1  -1   9-179.989 138.164   2
   1  -1   9 44.9447 40.1168   5
   1  -1  10 6147.98 862.731   2
   1  -1  10 6621.66 601.998   5
   1  -1  11 8900.47 1085.30   2
   1  -1  12 3147.90 707.913   2
   1  -1  13 87.6034 311.996   2
   1  -1  14 130.574 239.995   2
  -1   0  14 1909.51 608.987   2
  -1   0  13 1604.21 570.351   2
  -1   0  12 13504.2 1543.91   2
  -1   0  11 10312.4 1238.93   2
  -1   0  10 1867.79 508.732   2
  -1   0   9 47321.9 2364.85   2
  -1   0   8 59.8727 165.062   2
  -1   0   7 42678.6 1945.67   2
  -1   0   6 12502.9 975.173   2
  -1   0   5 45323.0 1720.23   2
   1   0  -4 30504.6 1296.53   2
  -1   0   4 26963.5 1196.04   2
   1   0  -3 44416.4 1384.27   2
  -1   0   3 42353.0 669.646   1
   1   0  -3 43914.5 693.841   1
  -1   0   3 44472.4 1334.05   2
  -1   0   2 686.983 92.2472   1
  -1   0   2 696.634 140.412   2
   1   0  -2 798.092 96.7362   1
   1   0  -2 911.414 162.920   2
  -1   0   1 19890.0 554.127   2
  -1   0   1 20090.8 509.525   1
   1   0  -1 20952.2 507.570   1
   1   0  -1 21038.9 602.044   2
  -1   0  -1 18141.6 528.071   1
   1   0   2 4770.26 276.049   1
  -1   0  -2 4870.89 312.644   2
   1   0   2 4788.69 324.148   2
   1   0   3 139042. 2162.92   2
   1   0   3 141206. 1574.98   1
   1   0   4 9062.75 503.204   5
   1   0   4 9251.58 416.380   1
  -1   0  -4 9750.46 670.366   2
   1   0   4 9069.97 641.060   2
   1   0   5 90833.7 1672.15   5
   1   0   5 91130.4 1342.74   1
  -1   0  -5 92397.9 2298.29   2
   1   0   5 89411.7 2332.16   2
   1   0   6 8337.73 528.919   5
   1   0   6 8286.85 768.424   2
   1   0   6 8591.77 415.097   1
   1   0   7 177837. 1889.40   1
   1   0   7 179947. 2591.46   5
   1   0   8 542.034 93.5846   1
   1   0   8 610.397 167.917   5
   1   0   8 584.455 182.423   2
   1   0   9 172642. 2740.51   5
   1   0   9 161209. 4277.55   2
   1   0  10 1142.59 232.214   5
   1   0  10 964.949 382.900   2
   1   0  11 40597.9 2413.69   2
   1   0  12 1083.68 476.640   2
   1   0  13 29134.3 2318.09   2
   1   0  14 4582.24 995.089   2
  -1  -1  14 8335.42 1491.23   2
  -1  -1  13 2561.74 734.613   2
  -1  -1  12 31413.4 2368.74   2
  -1  -1  11 3988.28 758.232   2
  -1  -1  10 34036.7 2066.08   2
  -1  -1   9 1409.87 424.590   2
  -1  -1   8 81326.9 2833.11   2
  -1  -1   7 929.475 275.210   2
  -1  -1   6 113447. 2850.21   2
   1   1  -5 2986.99 199.022   5
  -1  -1   5 2950.50 418.886   2
  -1  -1   5 3359.21 282.962   6
   1   1  -4 35608.5 724.129   5
  -1  -1   4 34728.9 1313.10   2
   1   1  -3 13886.0 476.144   5
  -1  -1   3 12632.8 687.317   2
   1   1  -3 13058.5 719.346   2
  -1  -1   2 85673.9 1715.31   2
   1   1  -2 66874.3 1360.82   2
  -1  -1   1 15352.7 2771.50   2
   1   1  -1 12594.2 842.943   2
  -1  -1   0 7979.51 306.564   3
   1   1   0 8658.24 351.430   3
  -1  -1  -1 18353.5 551.693   3
   1   1   1 18815.2 587.264   3
   1   1   2 14380.4 664.325   3
  -1  -1  -2 15642.9 709.992   3
   1   1   3 1339.69 229.431   2
   1   1   3 1309.04 235.061   3
  -1  -1  -3 1309.34 203.320   3
   1   1   4 153.269 80.6434   3
   1   1   4 463.373 157.478   2
   1   1   5 4233.64 537.228   2
  -1  -1  -5 4086.62 296.882   6
   1   1   5 4470.04 545.635   3
   1   1   6 3472.57 556.978   2
  -1  -1  -6 2791.02 247.050   6
   1   1   7 4692.44 430.609   5
   1   1   7 4588.07 693.057   2
   1   1   8 42.1671 47.9709   1
   1   1   8-29.6911 29.0319   5
   1   1   9 226.848 116.966   5
   1   1   9 71.2498 36.9083   1
   1   1   9 245.166 231.494   2
   1   1   9 143.012 67.9787   1
   1   1  10 1937.84 593.101   2
   1   1  10 1284.72 219.789   5
   1   1  11 3069.19 674.071   2
   1   1  12-53.4717 230.810   2
   1   1  13 2836.37 761.353   2
   1   1  14 7046.65 1185.74   2
  -1  -2  14 21681.3 2755.40   2
  -1  -2  13 2526.19 911.229   2
  -1  -2  12 1073.02 441.950   2
  -1  -2  11 10225.4 1297.12   2
  -1  -2  10 7895.48 1066.66   2
  -1  -2   9 7326.99 936.512   2
  -1  -2   8-76.4143 192.999   2
  -1  -2   7 90281.1 2944.85   2
   1   2  -7 90016.9 1597.11   5
   1   2  -6 47.7852 47.4859   5
  -1  -2   6 117.523 97.1142   2
   1   2  -5 81429.6 1553.81   5
  -1  -2   5 80425.4 1900.95   6
   1   2  -5 76180.4 1078.56   1
   1   2  -4 22192.2 836.232   5
  -1  -2   4 22386.6 1041.92   6
   1   2  -4 22677.0 1086.98   2
   1   2  -4 23012.7 732.235   1
   1   2  -3 63123.9 1654.26   2
  -1  -2   3 63587.2 1796.03   6
   1   2  -3 59475.5 1410.74   5
  -1  -2   3 59803.4 3078.00   2
   1   2  -2 45321.6 1329.77   5
  -1  -2   2 44536.5 1499.59   6
  -1  -2   1 76759.9 1507.11   2
   1   2  -1 70347.3 2733.45   2
  -1  -2   0 14601.3 568.596   3
   1   2   0 13863.6 566.182   3
   1   2   1 13007.1 598.021   3
  -1  -2  -1 13015.1 587.409   3
  -1  -2  -2 11016.8 648.180   3
   1   2   2 11743.1 708.022   3
  -1  -2  -3 11353.2 695.966   6
   1   2   3 12165.4 789.339   3
  -1  -2  -4 6215.30 515.534   6
   1   2   4 5587.90 575.762   3
  -1  -2  -4 5916.55 613.597   3
  -1  -2  -5 43063.6 1378.00   6
   1   2   5 43033.0 1749.62   2
   1   2   6 25077.9 1510.70   2
  -1  -2  -6 24378.0 1014.64   6
   1   2   7 85831.7 3078.03   2
   1   2   8 34651.5 2110.72   2
   1   2   9 81241.6 3418.18   2
   1   2   9 81752.2 1897.51   5
   1   2   9 80364.8 2028.88   1
   1   2  10 7788.94 1130.85   2
   1   2  10 8586.64 591.400   5
   1   2  11 114341. 4434.26   2
   1   2  12 6373.84 1087.66   2
   1   2  13 24850.6 2209.69   2
   1   2  14-46.5915 74.0595   2
  -1  -3  13-1088.86 916.784   2
  -1  -3  12 7166.19 1524.36   2
  -1  -3  11 4145.61 1142.00   2
  -1  -3  10 40119.2 3165.76   2
  -1  -3   9 26223.3 2371.51   2
   1   3  -8 76154.9 1787.59   5
  -1  -3   8 91289.3 4511.67   2
   1   3  -7 4774.28 453.121   5
   1   3  -7 4219.27 254.661   1
  -1  -3   6 64542.9 3926.21   2
   1   3  -6 63339.1 1703.13   5
   1   3  -6 63083.1 1257.10   1
   1   3  -5 391.689 117.584   1
  -1  -3   5 117.725 409.903   2
   1   3  -5 326.259 128.089   5
  -1  -3   5 260.210 156.173   6
  -1  -3   4 185899. 3615.84   6
   1   3  -4 194413. 3089.86   5
   1   3  -4 191767. 2858.89   1
  -1  -3   3 7391.56 1602.42   2
  -1  -3   3 6665.17 707.102   6
   1   3  -3 6665.22 578.138   5
   1   3  -3 6806.29 605.317   1
  -1  -3   2 50196.3 1966.72   6
   1   3  -2 52564.7 1745.94   5
  -1  -3   1 84156.0 1675.01   3
  -1  -3   1 92916.1 2649.71   6
  -1  -3   0 34565.2 1580.71   6
   1   3   0 31262.9 1026.77   3
  -1  -3   0 31969.2 1025.33   3
  -1  -3  -1 68.7066 101.383   6
   1   3   1 33.6140 55.0705   3
  -1  -3  -1 289.276 95.2696   3
  -1  -3  -2 61891.9 1679.43   3
  -1  -3  -2 65246.6 2083.70   6
   1   3   2 67016.7 1848.11   3
   1   3   3 73554.4 2123.30   3
  -1  -3  -3 67850.9 2123.10   6
  -1  -3  -3 69429.4 2085.19   3
  -1  -3  -4 30280.2 1561.42   3
  -1  -3  -4 27650.0 1335.90   6
  -1  -3  -5 4699.50 655.630   3
  -1  -3  -5 5002.53 569.063   6
   1   3   6 2372.93 488.529   2
   1   3   7 2639.12 525.404   2
   1   3   8 219.445 139.924   1
   1   3   8-188.957 223.706   2
   1   3   9 2876.80 635.501   2
   1   3  10 211.794 89.0462   2
   1   3  11 2880.05 750.918   2
   1   3  12 7882.28 1249.80   2
   1   3  13 1882.29 545.872   2
   1   3  14 162.031 284.597   2
  -1  -4  13 705.492 1479.95   2
  -1  -4  12 15507.6 3913.39   2
  -1  -4  11-1770.39 1549.41   2
  -1  -4  10 1453.10 904.135   2
  -1  -4   9 14993.1 3450.39   2
  -1  -4   8 260.392 960.239   2
   1   4  -8 61.9250 3.19642   1
   1   4  -7 13107.3 675.741   1
  -1  -4   7 8110.73 2706.62   2
  -1  -4   6-549.761 1305.92   2
   1   4  -6 189.358 79.5707   1
   1   4  -5 76783.8 2057.90   1
   1   4  -5 80954.2 2304.21   5
   1   4  -4 3883.99 504.832   5
   1   4  -4 3489.59 463.289   1
  -1  -4   4 2979.41 254.985   2
  -1  -4   4 3660.00 584.184   6
   1   4  -3 143109. 3222.20   5
  -1  -4   3 144363. 3737.20   6
   1   4  -3 145594. 3341.96   1
   1   4  -2 4712.74 590.912   5
  -1  -4   2 4304.55 653.027   6
   1   4  -2 4255.36 591.320   1
   1   4  -2 2352.11 793.708   2
  -1  -4   2 4156.28 451.990   3
  -1  -4   1 52850.8 2271.57   6
   1   4  -1 52877.1 2112.85   5
   1   4  -1 53116.0 1649.01   2
  -1  -4   0 63019.2 812.180   4
   1   4   0 65451.7 1668.74   3
   1   4   0 63403.4 2426.93   6
  -1  -4   0 68401.0 2580.51   6
  -1  -4   0 66401.2 1715.76   3
  -1  -4  -1 58342.0 1722.76   3
   1   4   1 53753.9 758.493   4
  -1  -4  -1 57924.2 2308.14   6
   1   4   1 53908.0 1553.17   3
   1   4   2 28422.6 1293.25   3
  -1  -4  -2 24854.4 1171.11   3
  -1  -4  -2 27380.2 1564.53   6
  -1  -4  -3 11173.1 865.549   3
  -1  -4  -3 11538.0 1009.03   6
  -1  -4  -4 648.829 226.293   6
  -1  -4  -4 930.026 290.522   3
  -1  -4  -5 25964.1 1614.57   3
  -1  -4  -6 3506.09 633.323   3
   1   4   7 17617.2 1380.28   2
   1   4   8-65.7388 97.9488   2
   1   4   9 53285.9 2844.03   2
   1   4  10 23752.1 2033.00   2
   1   4  11 46979.8 2995.90   2
   1   4  12 3460.81 832.044   2
   1   4  13 41796.2 3083.91   2
   1   4  14 9318.02 1487.67   2
  -1  -5  13 1962.91 4066.48   2
  -1  -5  12 3233.99 2577.14   2
  -1  -5  11-1648.52 2438.56   2
  -1  -5  10 14906.6 5720.65   2
  -1  -5   9-1396.27 2366.00   2
  -1  -5   8 29415.9 6535.28   2
   1   5  -7 27955.1 1278.75   1
  -1  -5   7 30132.7 4453.46   2
  -1  -5   6 128362. 6322.66   2
   1   5  -6 117186. 2711.00   1
  -1  -5   5 6338.63 961.748   2
   1   5  -5 3814.32 510.946   1
   1   5  -4 42541.9 1872.48   1
  -1  -5   4 43071.8 1917.69   2
  -1  -5   3 21754.9 1213.63   3
  -1  -5   2 132048. 2671.27   3
   1   5  -1 9443.44 1044.32   6
  -1  -5   1 7836.74 658.566   3
  -1  -5   0 45112.3 828.531   4
  -1  -5   0 48207.6 1692.61   3
   1   5   0 46058.2 2285.19   6
   1   5   1 1339.69 357.851   6
  -1  -5  -1 1955.86 378.268   3
   1   5   2 2539.14 538.908   6
   1   5   2 2698.23 268.657   4
  -1  -5  -2 2785.10 432.642   3
  -1  -5  -3 38.1453 49.5263   3
  -1  -5  -4 50120.5 2146.67   3
  -1  -5  -5 4365.20 651.916   3
  -1  -5  -6 12243.7 1218.65   3
  -1  -5  -7 6242.13 900.332   3
   1   5   8-357.992 240.364   2
   1   5   9 763.910 304.340   2
   1   5  10 517.511 252.061   2
   1   5  11 638.389 115.934   2
   1   5  12-124.407 223.911   2
   1   5  13-165.475 260.468   2
  -1  -6  12 8806.44 2999.44   2
  -1  -6  11-464.174 1456.42   2
  -1  -6  10 13097.8 2872.69   2
  -1  -6   9 1666.18 1076.48   2
  -1  -6   8 12591.7 1896.70   2
  -1  -6   7 25809.1 2254.28   2
  -1  -6   6 569.158 351.044   2
  -1  -6   5 41400.3 1963.71   2
  -1  -6   4 666.336 215.493   3
  -1  -6   3 34867.3 1546.94   3
  -1  -6   2 142.051 100.831   3
  -1  -6   1 174424. 2105.58   4
   1   6  -1 167501. 4832.93   6
  -1  -6   1 174841. 3359.77   3
  -1  -6   0 2729.18 428.313   3
   1   6   0 1996.79 530.792   6
  -1  -6  -1 48354.3 1910.10   3
   1   6   1 45057.8 2457.51   6
   1   6   2 1618.02 463.925   6
   1   6   2 1199.46 181.943   4
  -1  -6  -2 1246.19 303.064   3
   1   6   3 35124.2 1212.72   4
  -1  -6  -3 32819.8 1718.00   3
  -1  -6  -4 21482.6 1476.29   3
  -1  -6  -5 29149.8 1820.00   3
  -1  -6  -6 6712.37 915.901   3
  -1  -6  -7 18626.9 1569.41   3
   1   6   8 2708.19 605.199   2
  -1  -6  -8 1666.24 465.153   3
   1   6   9 10202.9 1266.23   2
   1   6  10 946.671 406.728   2
   1   6  11 21050.8 2072.97   2
   1   6  12 6365.02 1185.98   2
   1   6  13 35805.8 3002.25   2
  -1  -7  12 27879.8 3244.23   2
  -1  -7  11-594.859 614.121   2
  -1  -7  10 318.519 444.402   2
  -1  -7   9 728.997 427.133   2
  -1  -7   8 25543.5 2015.50   2
  -1  -7   7 268.683 149.664   2
  -1  -7   6 13596.4 1222.29   3
  -1  -7   6 10586.9 993.783   2
  -1  -7   5 6306.79 761.483   3
  -1  -7   4 115844. 3065.18   3
  -1  -7   3 614.972 211.892   3
  -1  -7   2 52238.4 2009.15   3
  -1  -7   1 9361.52 538.531   4
   1   7  -1 9906.61 1267.03   6
  -1  -7   1 9925.79 876.188   3
   1   7   0 66388.1 3252.85   6
  -1  -7   0 73881.4 2481.56   3
   1   7   1 1075.68 401.914   6
  -1  -7  -1 863.727 301.776   3
   1   7   2 35439.2 2318.87   6
  -1  -7  -2 33994.7 1785.70   3
   1   7   3-27.4009 60.5845   4
  -1  -7  -3-80.9061 96.9347   3
  -1  -7  -4 1641.44 419.852   3
   1   7   4 1633.85 315.926   4
  -1  -7  -5 387.552 175.322   3
  -1  -7  -6 14367.1 1400.44   3
  -1  -7  -7 2402.27 581.545   3
  -1  -7  -8-81.3306 212.081   3
   1   7   9 530.790 293.842   2
   1   7  10 1942.55 608.648   2
   1   7  11 326.008 196.862   2
   1   7  12 316.129 131.427   2
  -1  -8  11 2371.64 668.846   2
  -1  -8  10 3091.57 738.247   2
  -1  -8   9 2339.30 559.973   2
  -1  -8   9 3037.17 724.335   3
  -1  -8   8 3817.58 716.921   3
  -1  -8   7 2293.12 481.146   3
  -1  -8   6 5392.54 758.486   3
  -1  -8   5 7872.66 870.613   3
  -1  -8   4 1414.01 331.058   3
  -1  -8   3 59466.2 2336.53   3
  -1  -8   2 10426.9 996.449   3
  -1  -8   2 10401.2 660.857   4
  -1  -8   1 19689.9 1362.33   3
  -1  -8   1 17924.1 769.994   4
   1   8   0 4314.92 859.749   6
  -1  -8   0 5064.31 709.473   3
  -1  -8  -1 89966.5 3021.03   3
   1   8   1 93534.2 4103.53   6
  -1  -8  -2 7031.98 857.957   3
   1   8   3 49716.5 1481.32   4
  -1  -8  -3 45760.5 2329.63   3
   1   8   4 808.667 219.305   4
  -1  -8  -4 1037.02 336.219   3
  -1  -8  -5 6893.78 982.236   3
   1   8   5 6777.63 675.240   4
  -1  -8  -6 13887.9 1440.42   3
  -1  -8  -7 30109.2 2155.49   3
  -1  -8  -8 5885.55 1002.63   3
   1   8   9 6057.98 936.081   2
   1   8  10-155.906 134.926   2
   1   8  11 5384.77 1034.71   2
  -1  -9  10 16969.3 1703.13   3
  -1  -9   9 926.814 368.431   3
  -1  -9   8 2810.78 636.731   3
  -1  -9   7 222.873 193.119   3
  -1  -9   6 19319.2 1487.00   3
  -1  -9   5 9773.23 1051.61   3
  -1  -9   4 10037.5 1031.07   3
  -1  -9   3 1219.98 347.200   3
  -1  -9   2 54283.5 2436.67   3
  -1  -9   1 6460.19 836.096   3
  -1  -9   0 60459.7 2570.31   3
  -1  -9  -1 5620.51 810.304   3
  -1  -9  -2 27313.4 1821.69   3
  -1  -9  -3 830.668 347.045   3
  -1  -9  -4 20843.6 1740.17   3
  -1  -9  -5 167.491 194.523   3
  -1  -9  -6 1094.47 450.396   3
  -1  -9  -7 785.633 306.098   3
  -1  -9  -8 1386.05 510.930   3
  -1  -9  -9 803.160 400.436   3
   1   9   9 1223.50 445.302   2
   1   9  10 745.600 380.170   2
  -1 -10   9 3184.65 702.250   3
  -1 -10   8 3916.85 764.933   3
  -1 -10   7 752.063 306.101   3
  -1 -10   6-147.339 144.337   3
  -1 -10   5 7357.15 964.218   3
  -1 -10   4 5653.75 836.930   3
  -1 -10   3 2556.17 564.486   3
  -1 -10   2 528.978 280.061   3
  -1 -10   1 53628.0 2597.88   3
  -1 -10   0 2972.74 594.687   3
  -1 -10  -1 20735.1 1637.34   3
  -1 -10  -2 15434.7 1457.57   3
  -1 -10  -3 39748.6 2438.09   3
  -1 -10  -4 2333.90 609.528   3
  -1 -10  -5 29948.5 2230.47   3
  -1 -10  -6 6159.63 1057.21   3
  -1 -10  -7 2554.30 745.450   3
  -1 -10  -8 7692.80 1218.76   3
  -1 -10  -9 11162.9 1498.23   3
  -1 -11   7-446.724 348.203   3
  -1 -11   6 3849.50 751.030   3
  -1 -11   5 320.496 306.490   3
  -1 -11   4 11338.0 1265.55   3
  -1 -11   3 5835.02 918.757   3
  -1 -11   2 13150.1 1364.83   3
  -1 -11   1 1360.03 439.495   3
  -1 -11   0 13450.7 1393.88   3
  -1 -11  -1 1659.27 475.268   3
  -1 -11  -2 38254.4 2443.54   3
  -1 -11  -3 8113.94 1151.78   3
  -1 -11  -4 13246.5 1520.03   3
  -1 -11  -5 2.72342 125.259   3
  -1 -11  -6 5020.09 981.090   3
  -1 -11  -7 3591.17 848.758   3
  -1 -11  -8 1206.40 428.085   3
  -1 -12   5 251.422 154.571   3
  -1 -12   4-243.117 78.1294   3
  -1 -12   3 9819.74 1240.77   3
  -1 -12   2 317.767 199.127   3
  -1 -12   1 1906.00 540.019   3
  -1 -12   0 204.102 245.839   3
  -1 -12  -1 21183.3 1885.09   3
  -1 -12  -2 1657.06 589.095   3
  -1 -12  -3 22665.4 2052.03   3
  -1 -12  -4 5479.17 1040.80   3
  -1 -12  -5 19552.6 2046.74   3
  -1 -12  -6 1600.45 582.605   3
  -1 -13   1 922.627 321.388   3
  -1 -13   0 12288.4 1488.71   3
  -1 -13  -1 348.602 261.807   3
  -1 -13  -2 4516.06 943.366   3
  -2  12   2 1749.14 751.257   6
   2 -12  -2 1536.03 528.007   3
  -2  12   1 4887.89 1227.60   6
   2 -12  -1 4657.19 917.315   3
  -2  12   0 12453.2 1982.90   6
   2 -12   0 13320.0 1470.97   3
  -2  12  -1-299.053 491.557   6
   2 -12   2 3700.87 795.759   3
  -2  12  -2 8271.65 1630.22   6
  -2  12  -3 1086.02 541.924   6
   2 -11  -5 7015.32 1119.13   3
  -2  11   5 6758.99 1396.61   6
   2 -11  -4 9179.72 1313.07   3
  -2  11   4 10316.2 1749.67   6
   2 -11  -3 530.345 395.441   3
  -2  11   3 369.107 198.945   6
  -2  11   2 35038.8 3100.87   6
   2 -11  -2 35461.7 2456.72   3
  -2  11   1-42.1994 256.174   6
   2 -11  -1-62.5963 153.550   3
   2 -11   0 8396.54 1144.32   3
  -2  11   0 8745.15 1543.20   6
  -2  11  -1 83.6051 193.438   6
   2 -11   1 300.924 243.267   3
  -2  11  -2 13583.1 1999.92   6
   2 -11   2 12913.6 1362.09   3
  -2  11  -3 677.082 519.368   6
   2 -11   3 311.790 180.491   3
  -2  11  -4 4500.17 1154.17   6
   2 -11   4 3439.86 687.470   3
  -2  11  -5 200.810 30.6481   6
   2 -11   5 96.6589 121.618   3
   2 -11   6 1634.71 488.405   3
  -2  11  -6 1891.47 734.990   6
  -2  10   7 1032.88 357.109   2
  -2  10   7 1086.30 526.953   6
  -2  10   6 3919.59 991.381   6
   2 -10  -6 2959.47 699.084   3
   2 -10  -5 17939.8 1735.21   3
  -2  10   5 21460.2 2420.24   6
   2 -10  -4 1455.03 438.509   3
  -2  10   4 1139.92 578.006   6
  -2  10   3 12234.3 1806.22   6
   2 -10  -3 12175.8 1363.86   3
   2 -10  -2 1916.92 523.638   3
  -2  10   2 1390.16 579.816   6
   2 -10  -1 8168.73 1074.66   3
  -2  10   1 7667.70 1399.35   6
   2 -10   0 7123.29 988.608   3
  -2  10   0 7502.07 1350.30   6
  -2  10  -1 15522.9 1951.53   6
   2 -10   1 12194.0 1220.48   3
  -2  10  -2 21703.9 2362.71   6
   2 -10   2 18925.3 1511.68   3
  -2  10  -3 1859.34 645.407   6
   2 -10   3 2484.35 547.733   3
   2 -10   4 37503.3 2126.85   3
  -2  10  -4 37358.4 3150.04   6
  -2  10  -5 109.445 215.910   6
   2 -10   5 34.5593 115.610   3
   2 -10   6 22693.3 1681.52   3
  -2  10  -6 25212.4 2529.29   6
  -2  10  -7 3039.81 922.875   6
   2 -10   7 1997.32 482.336   3
   2 -10   8 35240.7 2137.09   3
  -2  10  -8 37785.4 3103.72   6
  -2   9   9 10676.1 1246.27   2
  -2   9   9 17118.2 1744.78   4
  -2   9   8 739.200 351.353   4
  -2   9   8 1098.39 445.598   6
  -2   9   8 758.301 314.546   2
  -2   9   7 4368.82 792.149   4
  -2   9   7 5132.49 995.545   6
  -2   9   6 4630.93 782.619   4
  -2   9   6 3479.57 915.757   6
   2  -9  -6 3502.33 767.179   3
  -2   9   5 1142.74 402.742   4
   2  -9  -5 946.922 362.829   3
  -2   9   5 1935.59 687.935   6
   2  -9  -4 15760.6 1512.97   3
  -2   9   4 16334.5 1956.74   6
  -2   9   4 15843.8 1435.59   4
  -2   9   3 5305.84 789.683   4
  -2   9   3 4898.00 1030.98   6
   2  -9  -3 6359.19 937.932   3
  -2   9   2 10178.8 1518.13   6
   2  -9  -2 12171.1 1268.03   3
  -2   9   1 1262.19 524.242   6
   2  -9  -1 2232.77 572.912   3
   2  -9   0 50273.7 2365.95   3
  -2   9   0 50049.0 3309.37   6
   2  -9   1 94.3610 163.484   3
  -2   9  -1 285.320 222.681   6
  -2   9  -2 39903.2 2970.82   6
   2  -9   2 38564.7 1976.31   3
  -2   9  -3-312.752 410.756   6
   2  -9   3 282.283 94.0603   3
   2  -9   4 6585.06 828.224   3
   2  -9   4 7902.70 1192.97   5
  -2   9  -4 7456.09 1323.34   6
  -2   9  -5 2828.75 885.571   6
   2  -9   5 3465.11 808.630   5
   2  -9   5 2758.58 544.827   3
   2  -9   6 14831.9 1676.87   5
   2  -9   6 15494.6 1264.63   3
  -2   9  -6 16381.1 1947.43   6
  -2   9  -7 350.904 339.769   6
   2  -9   7-96.3784 107.407   3
   2  -9   7 568.491 361.015   5
   2  -9   8 768.417 279.597   3
  -2   9  -8 1885.81 587.060   6
   2  -9   9 1040.37 394.557   3
  -2   9  -9 1787.18 590.892   6
   2  -9  10 4576.01 761.577   3
  -2   8  10 473.828 240.665   2
  -2   8   9 1529.33 486.721   2
  -2   8   8 6630.60 958.107   6
  -2   8   8 5508.92 836.342   2
  -2   8   8 6911.18 1034.76   4
  -2   8   7 9807.07 1050.77   2
  -2   8   7 14804.6 1623.07   6
  -2   8   7 14232.4 1432.21   4
  -2   8   6 1017.59 468.683   6
  -2   8   6 1115.97 387.576   4
  -2   8   5 5755.82 881.725   4
  -2   8   5 6385.35 1121.32   6
   2  -8  -5 6358.27 922.769   3
  -2   8   4 3477.50 642.959   4
   2  -8  -4 3906.17 699.512   3
  -2   8   4 5019.60 1016.03   6
  -2   8   3 21773.9 2104.24   6
   2  -8  -3 21480.3 1622.20   3
  -2   8   3 20758.2 1529.49   4
   2  -8  -2 5908.50 817.212   3
  -2   8   2 5459.36 736.679   4
  -2   8   2 5404.54 1035.86   6
  -2   8   1 33590.7 2540.36   6
   2  -8  -1 33015.5 1865.60   3
   2  -8   0 395.175 157.744   3
  -2   8   0 485.316 434.683   6
   2  -8   1 4694.06 862.640   1
   2  -8   1 4034.03 583.981   3
  -2   8  -1 4921.37 995.681   6
   2  -8   1 4071.51 779.276   5
   2  -8   2 4272.49 615.275   3
   2  -8   2 5000.30 864.582   5
  -2   8  -2 5091.31 1038.17   6
   2  -8   2 3719.81 771.403   1
   2  -8   3 15419.2 1162.58   3
  -2   8  -3 18010.4 1936.05   6
   2  -8   3 15411.3 1556.25   1
   2  -8   3 15489.3 1551.77   5
   2  -8   4 20162.6 1800.55   5
  -2   8  -4 23089.9 2202.48   6
   2  -8   4 18706.4 1703.23   1
   2  -8   4 19858.8 1319.50   3
   2  -8   5 1131.57 451.686   5
  -2   8  -5 966.668 388.828   6
   2  -8   5 1125.15 336.874   3
   2  -8   6 48402.7 2827.89   5
   2  -8   6 46278.3 2009.85   3
  -2   8  -6 51112.1 3244.72   6
  -2   8  -7 3207.88 794.242   6
   2  -8   7 3078.38 718.176   5
   2  -8   7 2899.26 503.199   3
   2  -8   8 30626.8 2323.89   5
   2  -8   8 27476.3 1667.04   3
  -2   8  -8 31524.9 2539.86   6
   2  -8   9 3077.18 780.028   5
   2  -8   9 1542.73 390.517   3
  -2   8  -9 2644.69 695.037   6
   2  -8  10 38709.9 2298.71   3
   2  -8  11 2342.53 569.615   3
   2  -8  11 1680.20 480.687   2
  -2   7  11 1680.12 618.419   2
  -2   7  10 4918.53 908.404   2
  -2   7   9 8965.85 1176.87   2
  -2   7   8 313.204 248.090   2
  -2   7   8 214.494 123.211   6
  -2   7   7 39078.8 2426.29   6
  -2   7   7 30666.3 1929.09   2
  -2   7   6 236.859 187.603   4
  -2   7   6 26.8791 203.359   6
  -2   7   6 248.548 138.897   2
  -2   7   5 16551.6 1748.72   6
   2  -7  -5 16896.5 1463.47   3
  -2   7   5 16385.5 1400.96   4
  -2   7   4 212.368 132.267   4
   2  -7  -4 298.363 250.802   3
  -2   7   4 143.955 95.2213   6
   2  -7  -3 18571.1 1451.79   3
  -2   7   3 18270.9 1789.49   6
  -2   7   3 18649.6 1398.29   4
   2  -7  -2 36778.5 1917.59   3
   2  -7  -2 38943.0 2320.31   1
  -2   7   2 35712.5 2453.10   6
  -2   7   2 40671.4 1917.71   4
   2  -7  -1 2896.28 559.358   5
  -2   7   1 3395.23 741.309   6
   2  -7  -1 2800.67 590.681   1
   2  -7  -1 2571.19 482.323   3
   2  -7   0 16042.7 1399.95   5
   2  -7   0 15855.7 1128.13   3
   2  -7   0 16900.3 1539.45   1
  -2   7   0 15083.2 1615.27   6
   2  -7   1 13351.0 997.991   3
  -2   7  -1 13851.0 1522.52   6
   2  -7   1 12278.1 1245.97   5
   2  -7   1 13264.6 1335.12   1
   2  -7   2 42983.0 2424.10   1
   2  -7   2 48416.2 2493.90   5
   2  -7   2 51740.7 1927.84   3
  -2   7  -2 46938.6 2804.75   6
  -2   7  -3 1132.92 425.795   6
   2  -7   3 1314.89 326.787   3
   2  -7   3 1656.49 514.336   5
   2  -7   3 1130.39 398.858   1
   2  -7   4 66020.7 2112.58   3
  -2   7  -4 68927.5 3528.86   6
   2  -7   4 71188.2 3124.12   5
   2  -7   4 61624.2 2852.45   1
   2  -7   5-226.173 156.151   1
   2  -7   5-4.50348 242.455   5
  -2   7  -5 172.036 250.211   6
   2  -7   5-100.101 185.141   3
   2  -7   6 5925.24 888.215   1
   2  -7   6 5183.87 870.075   5
   2  -7   6 5002.70 601.339   3
  -2   7  -6 6414.73 1066.58   6
   2  -7   7 49.9134 119.890   3
  -2   7  -7 123.372 90.4510   6
   2  -7   7 376.219 204.249   5
   2  -7   7 419.983 225.667   1
   2  -7   8 14023.3 1467.30   5
  -2   7  -8 13884.1 1573.79   6
   2  -7   8 13081.7 1133.19   3
  -2   7  -9 316.425 104.981   6
   2  -7   9 180.681 156.255   5
   2  -7  10-347.339 235.313   5
   2  -7  10 85.8379 234.151   2
   2  -7  11 451.560 314.183   5
   2  -7  11 618.097 354.583   2
   2  -7  12 10550.6 1577.50   2
  -2   6  11 7380.05 1287.69   2
  -2   6  10 3791.28 855.975   2
  -2   6   9 1605.91 574.523   2
  -2   6   8 5162.27 884.014   2
  -2   6   8 3039.21 547.057   6
  -2   6   7 4761.73 755.751   6
  -2   6   7 4240.88 719.814   2
  -2   6   6 9066.54 998.510   2
  -2   6   6 11380.2 1287.86   6
  -2   6   5 18053.9 1684.73   6
   2  -6  -5 16093.4 1363.10   3
  -2   6   5 16496.4 1368.49   4
  -2   6   4 5586.31 778.219   4
  -2   6   4 5693.54 944.436   6
   2  -6  -4 6623.22 845.459   3
  -2   6   3 20995.4 1438.97   4
   2  -6  -3 21320.9 1582.00   1
   2  -6  -3 19346.2 1392.18   3
   2  -6  -2 17.9153 137.081   1
  -2   6   2 199.277 24.5031   4
   2  -6  -2 265.072 168.139   5
  -2   6   1 13841.0 1031.44   4
   2  -6  -1 15533.6 1249.48   5
   2  -6  -1 14077.0 1048.18   3
   2  -6  -1 16121.2 1366.42   1
   2  -6   0 1785.77 485.095   1
   2  -6   0 1430.95 317.080   3
   2  -6   0 1579.76 366.998   5
   2  -6   1 42010.7 2216.73   1
   2  -6   1 41764.6 1584.27   3
   2  -6   1 46277.0 2246.71   5
   2  -6   2 4038.62 669.098   1
   2  -6   2 4684.28 523.414   3
   2  -6   2 4628.52 718.198   5
   2  -6   3 5903.48 575.846   3
   2  -6   3 5557.67 789.722   5
   2  -6   3 5644.61 802.333   1
   2  -6   4 5489.99 784.652   1
   2  -6   4 5945.90 829.344   5
   2  -6   4 5691.26 572.514   3
   2  -6   5 939.679 249.661   3
   2  -6   5 1597.76 427.268   5
  -2   6  -5 1634.32 482.753   6
   2  -6   5 893.236 336.474   1
   2  -6   6 28973.4 1469.74   3
  -2   6  -6 28508.0 2094.46   6
   2  -6   6 27357.5 1764.28   1
   2  -6   6 26450.5 1812.24   5
   2  -6   7 1303.30 411.410   1
   2  -6   7 1047.17 298.932   2
  -2   6  -7 1158.58 432.956   6
   2  -6   7 1600.62 469.060   5
  -2   6  -8 40197.4 2461.61   6
   2  -6   8 35752.9 2200.15   5
   2  -6   8 41604.9 2222.86   1
  -2   6  -9 17677.7 1626.58   6
   2  -6   9 18143.0 1616.96   5
  -2   6 -10 48534.0 2596.25   6
   2  -6  10 51336.5 2795.21   5
   2  -6  11 2434.57 591.793   5
   2  -6  11 1725.13 639.369   2
   2  -6  12 28710.0 3893.17   2
  -2   5  12 1253.46 553.147   2
  -2   5  11 14004.3 1726.96   2
  -2   5  10 1135.36 483.668   2
  -2   5   9 518.879 301.534   2
  -2   5   8 5710.14 945.084   2
  -2   5   8 3889.39 548.147   6
  -2   5   7 25131.7 1858.53   2
  -2   5   7 25424.9 1622.10   6
  -2   5   6 1976.22 445.364   6
  -2   5   6 1868.70 441.970   2
  -2   5   5 28477.7 1648.22   2
   2  -5  -4 1605.42 384.337   3
   2  -5  -4 1374.58 402.335   1
   2  -5  -3 48095.2 1950.06   5
   2  -5  -3 47387.3 2043.56   3
  -2   5   3 46001.8 2034.06   4
   2  -5  -3 46307.1 2149.55   1
  -2   5   2 1442.74 340.851   4
   2  -5  -2 1392.44 325.905   3
   2  -5  -2 1288.78 331.641   1
   2  -5  -2 1068.02 301.144   5
   2  -5  -1 36809.5 1576.81   3
  -2   5   1 34624.6 1534.35   4
  -2   5   1 35676.7 1425.68   3
   2  -5  -1 34657.8 1689.72   5
   2  -5  -1 38486.1 1929.32   1
   2  -5   0 40927.9 1861.67   5
   2  -5   0 37325.6 1439.97   3
  -2   5   0 37690.3 1307.20   3
   2  -5   1 1269.81 368.012   1
   2  -5   1 1239.29 320.974   5
   2  -5   1 1449.35 249.481   3
  -2   5  -1 1520.99 278.652   3
   2  -5   2 50312.0 1527.41   3
   2  -5   2 47649.1 2120.09   1
   2  -5   2 49525.9 2135.43   5
   2  -5   3 3625.27 390.386   3
   2  -5   3 4201.59 631.547   1
   2  -5   3 3900.19 610.586   5
   2  -5   4 37841.8 1884.69   1
   2  -5   4 37450.0 1943.06   5
   2  -5   4 35278.9 1270.62   3
   2  -5   5 7108.93 859.662   5
   2  -5   5 8592.65 717.906   3
   2  -5   5 6649.96 637.121   2
   2  -5   5 7369.01 822.496   1
   2  -5   6 77953.4 2724.09   1
   2  -5   6 76691.3 2851.93   5
   2  -5   7 3765.33 604.546   1
   2  -5   7 3550.77 630.925   5
   2  -5   7 2951.34 736.732   2
  -2   5  -7 2782.16 604.610   6
   2  -5   8 11087.5 1140.70   5
  -2   5  -8 10075.8 1126.32   6
   2  -5   8 9172.24 1992.13   2
   2  -5   8 9905.59 979.484   1
  -2   5  -9 6394.86 861.553   6
   2  -5   9 6461.66 880.582   5
   2  -5   9 5302.77 714.418   1
   2  -5   9 6883.76 2751.05   2
  -2   5 -10 5454.23 781.604   6
   2  -5  10 5447.28 851.454   5
   2  -5  11-2510.51 2722.08   2
   2  -5  11 259.142 186.947   5
   2  -5  12 211.790 811.744   2
   2  -5  13-3237.30 3770.78   2
  -2   4  12 68.8553 40.7897   2
  -2   4  11 20193.8 2094.54   2
  -2   4  10 2768.90 729.187   2
  -2   4   9 29113.5 2278.07   2
  -2   4   8 8743.10 755.431   6
  -2   4   8 13767.6 1494.79   2
  -2   4   7 307.405 166.190   6
  -2   4   7 652.962 374.867   2
  -2   4   6 15809.8 923.073   5
  -2   4   6 17719.9 1466.43   2
  -2   4   5 1890.20 337.177   5
   2  -4  -5 2048.61 408.125   1
  -2   4   5 1449.53 387.190   2
  -2   4   4 60601.4 2231.43   2
  -2   4   4 62967.3 2020.32   5
   2  -4  -4 62749.0 2274.72   1
   2  -4  -3 13570.9 1008.92   3
  -2   4   3 13599.3 1065.00   4
   2  -4  -3 13296.9 1037.27   1
  -2   4   3 12610.0 926.118   5
   2  -4  -3 13169.9 913.073   5
   2  -4  -2 22444.7 1314.39   1
  -2   4   2 21509.5 1258.48   4
   2  -4  -2 21042.2 1162.42   5
   2  -4  -2 20918.9 1211.60   3
  -2   4   2 21468.2 1174.49   3
  -2   4   1 65886.2 2062.50   4
   2  -4  -1 70490.4 1995.83   3
  -2   4   1 68343.3 1826.78   3
   2  -4  -1 67909.9 2125.52   5
   2  -4  -1 70327.0 2339.16   1
  -2   4   0 29399.2 1293.94   4
   2  -4   0 30790.1 1469.47   5
  -2   4   0 29140.8 1005.42   3
   2  -4   0 30475.8 1532.85   1
   2  -4   0 29967.1 1124.84   3
   2  -4   0 29943.7 1324.01   4
   2  -4   1 18622.3 1042.01   4
  -2   4  -1 18741.0 787.765   3
   2  -4   1 18882.3 825.851   3
   2  -4   1 19045.1 1186.49   5
   2  -4   1 18105.0 1191.01   1
   2  -4   2 7070.29 742.181   1
   2  -4   2 7535.44 746.217   5
  -2   4  -2 6102.96 909.570   2
   2  -4   2 6779.90 477.915   3
   2  -4   2 7034.84 641.169   4
   2  -4   3 36146.4 1640.91   1
   2  -4   3 34575.5 1063.09   3
   2  -4   3 37460.4 1738.26   5
   2  -4   4 313.873 173.526   5
  -2   4  -4-56.4777 62.2902   2
   2  -4   4 179.268 175.413   1
   2  -4   5 13624.0 1087.94   5
   2  -4   5 12997.4 995.038   1
   2  -4   6 25731.8 1386.03   1
   2  -4   6 24424.7 1474.49   5
   2  -4   7 4668.33 594.633   1
   2  -4   7 4879.29 688.544   5
   2  -4   8 28598.3 1501.45   1
   2  -4   8 27931.5 1664.18   5
  -2   4  -8 27658.7 1703.64   6
  -2   4  -9 1952.31 457.930   6
   2  -4   9 853.347 1281.94   2
   2  -4   9 2031.68 407.962   1
   2  -4   9 2683.25 562.105   5
  -2   4 -10 36295.0 1802.08   6
   2  -4  10 38889.2 2129.57   5
   2  -4  11 15015.7 3341.71   2
   2  -4  11 23313.6 1664.62   5
   2  -4  12 47175.6 6483.83   2
   2  -4  13 3036.51 1309.66   2
  -2   3  13 1838.43 646.429   2
  -2   3  12-31.7676 185.771   2
  -2   3  11 2230.10 668.482   2
  -2   3  10 2309.91 589.309   2
  -2   3   9 37476.1 2529.24   2
  -2   3   8 6695.19 583.434   6
  -2   3   8 10537.6 1265.47   2
  -2   3   7 8492.78 464.525   5
  -2   3   7 9131.80 1085.07   2
  -2   3   7 6623.80 687.134   6
  -2   3   7 7569.56 686.220   1
  -2   3   6 5933.43 433.759   5
  -2   3   6 5335.29 569.939   1
  -2   3   6 5999.98 847.559   2
  -2   3   5 57676.0 1504.20   5
  -2   3   5 62923.3 2483.13   2
   2  -3  -5 58057.9 2005.94   1
  -2   3   5 61242.5 1994.82   1
   2  -3  -4 10540.8 822.601   1
  -2   3   4 11132.4 949.748   2
  -2   3   4 10290.7 824.876   1
  -2   3   4 10628.0 681.829   5
   2  -3  -3 63307.2 1980.04   1
   2  -3  -3 59041.2 1669.07   5
  -2   3   3 62574.2 2008.66   2
  -2   3   3 59233.3 1968.82   1
  -2   3   3 62056.3 1734.43   5
   2  -3  -2 2667.80 353.739   5
   2  -3  -2 2279.38 371.123   1
  -2   3   2 2556.15 355.265   5
   2  -3  -2 1753.38 310.333   3
  -2   3   2 1976.19 312.813   3
  -2   3   2 2908.71 433.670   4
  -2   3   2 2038.56 365.678   1
   2  -3  -1 81321.5 2054.64   5
   2  -3  -1 85820.6 2026.71   3
  -2   3   1 81845.9 2199.51   4
  -2   3   1 81861.2 2286.56   1
   2  -3  -1 81254.4 2241.08   1
  -2   3   1 80904.0 2100.48   5
  -2   3   1 82738.9 1868.75   3
   2  -3   0 15827.5 922.078   4
   2  -3   0 14589.8 695.198   3
  -2   3   0 15126.8 978.585   1
   2  -3   0 13649.4 923.551   1
  -2   3   0 14532.4 631.035   3
  -2   3   0 14763.7 908.431   5
   2  -3   0 15147.0 922.018   5
  -2   3   0 14419.9 851.643   4
   2  -3   1 146653. 2931.48   5
   2  -3   1 144823. 2996.04   1
   2  -3   1 142883. 2687.41   4
  -2   3  -1 135712. 1781.79   3
  -2   3  -1 144659. 2927.14   5
   2  -3   1 140292. 1890.35   3
  -2   3  -1 144158. 2962.13   1
   2  -3   2 10313.6 789.057   1
  -2   3  -2 10401.0 780.609   5
   2  -3   2 11717.3 791.025   4
  -2   3  -2 10576.0 793.103   1
   2  -3   2 9453.15 463.381   3
   2  -3   2 11043.1 827.134   5
   2  -3   3 1436.89 238.362   2
  -2   3  -3 1695.33 314.444   1
  -2   3  -3 1928.70 287.286   2
   2  -3   3 1309.23 290.153   1
   2  -3   3 1516.56 327.023   5
   2  -3   4 88208.6 2467.85   5
   2  -3   4 93084.0 2338.52   1
  -2   3  -4 94630.6 2313.67   1
  -2   3  -4 86857.3 1937.19   2
   2  -3   5 5047.93 1881.89   2
  -2   3  -5 5658.79 548.329   1
   2  -3   5 6224.24 605.757   1
   2  -3   5 5354.89 619.870   5
   2  -3   6 37093.5 1482.01   1
   2  -3   6 31171.8 3057.25   2
   2  -3   6 33071.3 1591.72   5
  -2   3  -6 36051.3 1374.46   1
  -2   3  -7 1788.96 302.160   1
   2  -3   7 2098.10 351.124   1
   2  -3   7 1550.48 321.754   5
  -2   3  -8 52163.6 2073.36   6
   2  -3   8 55279.7 1894.93   1
   2  -3   8 52663.9 2118.32   5
  -2   3  -8 53467.7 1670.46   1
   2  -3   9 5391.48 562.695   1
  -2   3  -9 5656.92 647.838   6
  -2   3  -9 5630.51 529.029   1
   2  -3   9 6848.09 1089.78   2
   2  -3   9 5500.46 713.729   5
   2  -3  10 26928.6 1634.93   5
  -2   3 -10 25535.5 1248.15   6
   2  -3  10 30639.0 2447.24   2
   2  -3  11 259.314 206.665   5
   2  -3  11-161.158 335.283   2
   2  -3  12 3058.90 861.178   2
   2  -3  13 228.182 614.106   2
   2  -3  14 439.949 565.456   2
  -2   2  13 13208.3 1696.77   2
  -2   2  12 2272.20 713.328   2
  -2   2  11 54338.6 3159.04   2
  -2   2  10-84.1706 229.522   2
  -2   2   9 28264.4 2063.47   2
  -2   2   8 3248.29 347.474   6
  -2   2   8 5063.51 795.674   2
  -2   2   7 36972.2 2078.55   2
  -2   2   7 34787.6 1254.55   1
  -2   2   6 3419.15 402.636   1
  -2   2   6 3116.31 598.155   2
  -2   2   5 8868.77 449.700   5
  -2   2   5 8930.85 652.058   1
   2  -2  -5 8513.42 673.115   1
  -2   2   5 9685.19 917.827   2
   2  -2  -4 24231.5 1083.04   1
  -2   2   4 26151.3 1374.20   2
  -2   2   4 24333.1 1068.36   1
   2  -2  -4 25897.2 899.768   5
  -2   2   4 23991.1 810.738   5
   2  -2  -3 4009.02 434.722   1
  -2   2   3 4363.72 369.027   5
  -2   2   3 4781.12 517.787   2
  -2   2   3 3902.42 431.464   1
  -2   2   3 4408.09 511.291   3
   2  -2  -3 4044.04 364.332   5
   2  -2  -2 68277.4 1543.45   5
  -2   2   2 69214.9 1713.86   2
   2  -2  -2 68657.2 1789.59   1
  -2   2   2 66227.9 1783.68   1
  -2   2   2 64815.8 1632.56   3
  -2   2   2 65568.7 1544.58   5
  -2   2   1 1215.78 264.367   4
  -2   2   1 1036.32 199.633   5
  -2   2   1 1148.74 231.967   1
   2  -2  -1 746.179 141.042   3
   2  -2  -1 884.571 179.299   5
   2  -2  -1 952.475 201.128   1
  -2   2   1 1215.27 199.897   3
  -2   2   0 62956.5 1699.51   4
   2  -2   0 67357.9 1279.01   3
   2  -2   0 68289.9 1792.82   1
   2  -2   0 70385.6 1825.47   4
  -2   2   0 66264.0 1798.38   1
  -2   2   0 65017.5 1089.20   3
   2  -2   0 68066.4 1687.94   5
  -2   2   0 65695.4 1676.70   5
  -2   2  -1 134681. 2511.33   1
   2  -2   1 132053. 1344.82   3
   2  -2   1 133158. 2399.12   4
  -2   2  -1 122976. 1387.62   2
  -2   2  -1 145299. 1385.78   3
   2  -2   1 136781. 2493.40   5
  -2   2  -1 133258. 2468.07   5
   2  -2   1 129531. 2478.51   1
   2  -2   2 130573. 2483.66   1
  -2   2  -2 125989. 2432.67   1
  -2   2  -2 127317. 2508.88   5
   2  -2   2 126727. 2490.14   5
   2  -2   2 124599. 1425.61   3
  -2   2  -3 35663.0 1361.39   5
  -2   2  -3 33871.1 1235.78   1
  -2   2  -3 32800.9 950.502   2
   2  -2   3 33994.3 1327.85   5
   2  -2   3 34275.1 1285.02   1
   2  -2   4 1317.04 255.153   5
   2  -2   4 1579.63 264.996   1
   2  -2   4 1899.64 367.907   2
  -2   2  -4 1258.46 221.265   2
  -2   2  -4 1410.06 253.777   1
  -2   2  -4 1276.66 260.554   5
  -2   2  -5 33433.7 1358.76   2
   2  -2   5 30842.7 1196.69   1
  -2   2  -5 32032.2 1363.35   5
   2  -2   5 35607.4 1425.96   2
   2  -2   5 30794.2 1342.13   5
  -2   2  -5 29084.5 1139.80   1
   2  -2   6 2441.06 330.475   1
   2  -2   6 2131.45 359.633   5
   2  -2   6 1985.29 351.220   2
  -2   2  -6 2201.33 315.555   1
   2  -2   7 18906.6 1135.20   5
   2  -2   7 18992.3 971.894   1
   2  -2   7 17703.7 1108.83   2
  -2   2  -7 18017.7 916.334   1
   2  -2   8 14847.6 1157.10   2
   2  -2   8 15070.0 1058.11   5
   2  -2   8 15355.5 860.723   1
   2  -2   9 5416.72 756.337   2
   2  -2   9 4872.68 619.861   5
  -2   2  -9 4590.91 504.042   6
   2  -2   9 5480.82 517.515   1
  -2   2 -10 25209.9 922.986   6
   2  -2  10 24725.8 1664.10   2
   2  -2  10 27582.4 1530.83   5
   2  -2  11 442.079 273.784   5
   2  -2  11 559.570 285.362   2
   2  -2  12 12814.1 1432.62   2
   2  -2  13 9174.66 1426.89   2
   2  -2  14 69033.6 4202.85   2
  -2   1  13 2484.80 697.356   2
  -2   1  12 241.044 71.6260   2
  -2   1  11 9413.55 1282.60   2
  -2   1  10 1918.88 532.998   2
  -2   1   9 1440.01 458.700   2
  -2   1   8 236.922 82.9203   6
  -2   1   8 226.730 64.8055   2
  -2   1   7 21644.1 1481.16   2
  -2   1   7 23924.7 817.158   1
  -2   1   6 40577.7 1858.26   2
  -2   1   6 43747.0 1153.26   1
   2  -1  -6 43741.5 1265.19   1
  -2   1   5 41917.6 1774.17   2
  -2   1   5 44239.5 1178.63   1
   2  -1  -5 45790.8 1270.88   1
   2  -1  -4 2778.99 391.806   2
  -2   1   4 2855.91 301.357   1
  -2   1   4 2915.73 425.831   2
   2  -1  -4 2829.51 215.261   5
   2  -1  -4 2807.74 309.552   1
  -2   1   3 69517.9 1544.92   1
  -2   1   3 71914.8 1916.13   2
   2  -1  -3 69360.0 1179.23   5
   2  -1  -3 72367.0 1555.56   1
  -2   1   2 28383.9 1011.06   2
   2  -1  -2 28038.2 968.824   1
   2  -1  -2 27685.6 802.124   5
   2  -1  -2 25480.0 926.459   2
  -2   1   2 26777.9 978.501   1
  -2   1   1 78250.1 1513.30   5
   2  -1  -1 80942.3 1649.30   1
  -2   1   1 80596.9 1705.37   1
  -2   1   1 78839.8 1885.93   4
  -2   1   1 74385.5 1371.93   3
  -2   1   1 73196.0 1318.48   2
   2  -1  -1 77417.6 1457.20   5
  -2   1   0 14630.1 694.621   5
  -2   1   0 14741.5 764.428   4
   2  -1   0 14879.0 790.625   4
  -2   1   0 14262.9 387.416   2
   2  -1   0 14877.7 712.023   1
  -2   1   0 13663.2 411.445   3
  -2   1   0 15419.8 745.209   1
   2  -1   0 14722.7 666.912   5
  -2   1  -1 117245. 2104.17   5
   2  -1   1 119710. 2013.42   5
   2  -1   1 113775. 2084.02   4
   2  -1   1 123177. 2073.93   1
  -2   1  -1 118391. 2098.52   1
  -2   1  -2 12366.6 661.310   1
   2  -1   2 12889.2 677.193   1
  -2   1  -2 12491.7 457.913   2
  -2   1  -2 13190.3 739.851   5
   2  -1   2 12265.6 687.603   5
   2  -1   3 154017. 1943.39   2
  -2   1  -3 176955. 2274.25   2
   2  -1   3 164509. 2453.32   1
  -2   1  -3 167126. 2443.23   1
   2  -1   3 164758. 2612.53   5
   2  -1   4 2202.71 280.360   1
  -2   1  -4 2870.94 350.631   2
  -2   1  -4 2439.15 295.537   1
   2  -1   4 1836.99 248.825   2
   2  -1   4 2480.46 333.054   5
   2  -1   5 50630.7 1579.84   5
   2  -1   5 44847.9 1429.20   2
   2  -1   5 51098.6 1389.91   1
  -2   1  -5 48675.4 1368.34   1
  -2   1  -5 55062.2 1769.94   2
   2  -1   6 35779.7 1436.36   2
   2  -1   6 40267.5 1247.53   1
   2  -1   6 39099.8 1440.73   5
   2  -1   7 10646.1 866.210   2
   2  -1   7 12183.9 692.411   1
   2  -1   7 12660.4 869.564   5
   2  -1   8 41913.7 1297.12   1
   2  -1   8 40815.8 1607.09   5
   2  -1   9 12484.1 702.257   1
  -2   1  -9 10391.0 581.532   6
   2  -1   9 12016.1 1083.12   2
   2  -1   9 12822.5 936.555   5
   2  -1  10 9780.83 854.181   5
   2  -1  10 8190.97 933.580   2
   2  -1  11 380.859 179.367   5
   2  -1  11 365.264 201.001   2
   2  -1  12 27775.5 2002.31   2
   2  -1  13 186.079 202.255   2
   2  -1  14 1461.74 658.450   2
  -2   0  13 19812.7 2034.23   2
  -2   0  12 258.838 268.972   2
  -2   0  11 9506.16 1241.57   2
  -2   0  10 10806.2 1217.69   2
  -2   0   9 66491.1 2843.71   2
  -2   0   8 630.322 295.421   2
  -2   0   7 37314.1 1843.37   2
   2   0  -6 37846.5 861.702   1
  -2   0   6 35069.0 1672.36   2
   2   0  -5 29802.5 799.833   1
  -2   0   5 27198.3 1334.88   2
   2   0  -4 823.042 132.295   1
  -2   0   4 730.907 215.529   2
   2   0  -4 887.716 220.469   2
  -2   0   4 752.778 130.971   1
   2   0  -3 33926.8 888.765   1
  -2   0   3 32677.6 1174.90   2
   2   0  -3 35494.6 691.636   5
   2   0  -3 34274.8 1285.33   2
  -2   0   3 33750.6 923.244   1
  -2   0   2 56962.7 1309.56   2
   2   0  -2 60650.3 1224.96   1
  -2   0   2 60682.8 1258.68   1
  -2   0   1 11952.7 568.458   1
   2   0  -1 11646.3 544.189   1
   2   0  -1 12132.7 514.818   2
  -2   0   1 11533.9 463.662   2
   2   0   0 6832.63 247.707   2
   2   0   0 6784.49 476.425   4
  -2   0   0 6782.94 446.853   1
   2   0   0 7094.64 437.921   1
  -2   0   0 7041.92 482.127   4
   2   0   1 2600.42 285.251   4
  -2   0  -1 2465.08 278.636   1
   2   0   1 2314.10 251.550   1
  -2   0  -2 71881.8 1492.50   1
   2   0   2 70315.2 1093.08   2
   2   0   2 66664.8 1149.72   3
   2   0   2 69604.5 1446.94   1
   2   0   3 37922.0 1118.83   2
   2   0   3 36633.4 1063.19   3
   2   0   3 38905.6 1102.06   1
  -2   0  -4 56261.9 1499.28   2
   2   0   4 60157.3 1636.91   2
   2   0   4 62190.9 1442.01   1
   2   0   4 61632.6 1624.76   3
   2   0   5 64443.4 1793.83   5
  -2   0  -5 61051.2 1776.69   2
   2   0   5 61554.7 1888.78   3
   2   0   5 66392.4 1923.41   2
   2   0   5 64663.4 1507.35   1
   2   0   6 1464.58 273.206   5
   2   0   6 1238.79 279.542   2
   2   0   6 1589.63 234.451   1
   2   0   7 3891.28 555.374   2
   2   0   7 3204.09 426.295   5
   2   0   7 3942.89 385.645   1
   2   0   8 283.886 135.259   5
   2   0   8 524.506 142.458   1
   2   0   9 15131.4 754.129   1
   2   0   9 15774.7 1008.70   5
   2   0   9 15752.7 1304.27   2
   2   0  10 14106.9 1319.26   2
   2   0  10 15658.1 730.925   1
   2   0  10 15042.2 1008.14   5
   2   0  11 7621.13 1045.75   2
   2   0  11 7528.93 724.008   5
   2   0  12 23163.9 1939.24   2
   2   0  13 980.117 458.905   2
   2   0  14 10028.4 1381.23   2
  -2  -1  13 5801.70 1148.64   2
  -2  -1  12 1940.81 566.663   2
  -2  -1  11 13335.8 1507.89   2
  -2  -1  10 3139.96 645.800   2
  -2  -1   9 5185.72 779.787   2
  -2  -1   8 6889.94 826.799   2
  -2  -1   7 9.23045 93.1213   2
  -2  -1   6 491.396 193.934   2
   2   1  -5 13822.8 435.284   1
   2   1  -5 13991.3 401.967   5
   2   1  -4 58304.3 1022.90   1
  -2  -1   4 57396.2 1772.47   2
   2   1  -3 77123.3 1860.12   2
   2   1  -3 80444.6 1304.83   1
  -2  -1   3 80124.5 1883.24   2
   2   1  -2 20707.0 824.212   2
   2   1  -2 20531.1 699.686   1
  -2  -1   1 139825. 9110.84   2
   2   1  -1 153637. 2253.24   2
  -2  -1   0 7141.40 354.359   3
  -2  -1   0 7012.23 433.589   4
   2   1   1 16460.2 647.068   4
   2   1   1 16860.7 542.147   3
  -2  -1  -1 17827.6 576.994   3
  -2  -1  -2 20843.4 792.652   3
   2   1   2 20531.8 746.161   3
  -2  -1  -3 103512. 2034.53   3
   2   1   3 96678.6 2008.27   3
   2   1   4 15098.6 851.117   2
   2   1   4 16901.8 933.425   3
   2   1   5 7795.15 701.698   2
   2   1   5 7742.48 714.439   3
   2   1   6 5911.29 487.832   1
   2   1   6 5509.07 653.687   2
   2   1   7 68495.6 2575.99   2
   2   1   7 68696.0 1729.58   1
   2   1   8 22907.4 1590.93   2
   2   1   8 22909.9 1014.55   1
   2   1   8 22617.2 1166.65   5
   2   1   9 1132.54 415.491   2
   2   1   9 1051.19 271.716   5
   2   1   9 1206.22 225.787   1
   2   1  10 33238.4 1126.75   1
   2   1  10 33942.9 1497.94   5
   2   1  10 31442.9 2061.49   2
   2   1  11 11782.7 1378.07   2
   2   1  12 3227.14 703.084   2
   2   1  13 756.612 262.820   2
   2   1  14 11501.5 1450.11   2
  -2  -2  13 1452.72 699.498   2
  -2  -2  12 188.430 459.417   2
  -2  -2  11 53621.1 3264.07   2
  -2  -2  10 612.394 299.649   2
  -2  -2   9 12801.3 1409.31   2
  -2  -2   8 13116.1 1303.05   2
   2   2  -7 65516.1 1123.08   5
  -2  -2   7 65993.9 1658.05   6
   2   2  -6 9859.37 357.127   1
  -2  -2   6 10258.1 726.314   6
   2   2  -6 9764.11 493.655   5
   2   2  -6 9198.78 302.615   1
   2   2  -5 53969.3 1003.79   1
   2   2  -5 57897.8 1339.28   5
  -2  -2   4 51600.2 2507.35   2
   2   2  -4 45187.2 1299.04   5
  -2  -2   3 5667.64 1161.11   2
   2   2  -3 6201.26 526.888   2
  -2  -2   2 99646.1 7697.71   2
   2   2  -2 160741. 3145.92   2
  -2  -2   1 30295.5 1128.25   2
   2   2  -1 19455.4 3097.97   2
  -2  -2   0 74288.1 1237.11   4
  -2  -2   0 72534.0 1331.95   3
   2   2   1 22274.0 607.259   4
  -2  -2  -1 23696.9 854.215   3
   2   2   1 21698.5 762.001   3
   2   2   2 70295.3 1616.46   3
  -2  -2  -2 65469.5 1490.20   3
  -2  -2  -3 29796.7 1247.04   3
   2   2   3 27722.3 1187.70   3
   2   2   4 44833.4 1656.14   3
  -2  -2  -4 49456.5 1828.32   3
   2   2   5 13795.8 930.287   2
  -2  -2  -5 14655.4 1010.83   3
   2   2   6 43482.2 1851.42   2
   2   2   7 56883.7 2367.98   2
  -2  -2  -7 49047.8 1491.84   6
  -2  -2  -8 14016.1 762.513   6
   2   2   8 14397.7 1293.10   2
   2   2   9 5082.47 829.384   2
   2   2   9 4637.20 469.652   1
   2   2  10 158.739 85.6420   5
   2   2  10-84.5067 102.604   2
   2   2  10 81.6449 80.6504   1
   2   2  11 5623.67 962.396   2
   2   2  12 13875.7 1556.88   2
   2   2  13 1827.45 637.302   2
   2   2  14 7644.13 1253.83   2
  -2  -3  13 36129.6 4683.52   2
  -2  -3  12 1139.94 600.015   2
  -2  -3  11 9787.66 1969.84   2
  -2  -3  10-725.775 668.723   2
  -2  -3   9 19195.0 2373.84   2
  -2  -3   8 10137.8 1708.76   2
   2   3  -8 7993.65 527.977   5
   2   3  -7 6619.38 299.984   1
  -2  -3   7 7130.13 650.875   6
   2   3  -7 7796.15 545.161   5
  -2  -3   7 7275.62 1431.40   2
   2   3  -7 6563.96 284.256   1
  -2  -3   6 9785.90 1787.29   2
   2   3  -6 9485.30 644.865   5
  -2  -3   6 9956.12 827.103   6
   2   3  -6 9571.92 539.494   1
   2   3  -5 6178.50 550.581   5
  -2  -3   5 6681.55 715.312   6
  -2  -3   4 6839.02 2577.29   2
   2   3  -4 11549.8 777.192   5
  -2  -3   3-388.640 667.544   2
   2   3  -2 26843.6 3160.15   2
  -2  -3   2 42984.9 1781.79   2
   2   3  -1 263475. 5295.02   2
  -2  -3   1 219660. 2949.67   3
  -2  -3   0 117391. 2015.88   3
  -2  -3   0 120306. 1233.29   4
  -2  -3  -1 122900. 2285.34   3
   2   3   1 111612. 2010.41   3
  -2  -3  -2 7088.50 558.152   3
   2   3   2 8596.22 624.987   3
  -2  -3  -3 99717.2 2363.74   3
   2   3   3 112809. 2635.51   3
   2   3   4 23288.2 1277.75   3
  -2  -3  -4 24968.8 1365.28   3
  -2  -3  -5 66317.5 2440.28   3
  -2  -3  -6 518.067 176.705   6
  -2  -3  -6 661.949 224.381   3
   2   3   6 630.503 260.264   2
  -2  -3  -7 7267.12 667.136   6
   2   3   7 7337.59 843.049   2
   2   3   8 4595.44 746.396   2
  -2  -3  -8 5196.58 554.157   6
   2   3   9 17892.5 1578.12   2
   2   3  10 10560.0 1302.46   2
   2   3  11 1665.23 541.002   2
   2   3  12 17808.8 1829.89   2
   2   3  13 1298.63 485.571   2
   2   3  14 1805.38 668.363   2
  -2  -4  13-486.865 253.842   2
  -2  -4  12 1575.25 764.017   2
  -2  -4  11-4.31321 578.640   2
  -2  -4  10 295.803 1016.74   2
  -2  -4   9 30858.4 6009.13   2
   2   4  -8 779.735 119.430   1
  -2  -4   8 1332.65 1726.93   2
   2   4  -8 760.321 202.998   5
   2   4  -7 44820.5 1250.08   1
   2   4  -7 43906.1 1600.50   5
   2   4  -6 5476.64 510.424   1
  -2  -4   6 4665.99 2648.50   2
  -2  -4   6 5424.97 712.663   6
   2   4  -6 5586.26 593.631   5
   2   4  -5 52188.4 1820.75   1
   2   4  -5 49101.8 1805.89   5
  -2  -4   5 50268.5 2259.52   6
   2   4  -4 3595.49 496.012   5
  -2  -4   4 3766.91 631.269   6
   2   4  -3 93789.6 2701.85   5
  -2  -4   3 98117.4 3198.53   6
  -2  -4   2 6431.75 598.034   3
  -2  -4   2 5729.79 773.989   6
   2   4  -1 4103.77 548.253   2
  -2  -4   1 2915.57 369.078   3
  -2  -4   1 3778.71 619.448   6
  -2  -4   0 106910. 2236.94   3
   2   4   0 109280. 2267.22   3
  -2  -4   0 109900. 3204.30   6
  -2  -4  -1 16705.1 949.151   3
   2   4   1 15448.0 837.353   3
  -2  -4  -1 14636.6 1128.46   6
  -2  -4  -2 59084.2 1850.67   3
   2   4   2 56339.4 1771.62   3
  -2  -4  -2 53923.7 2140.30   6
  -2  -4  -3 12598.7 897.427   3
  -2  -4  -3 14550.6 1107.34   6
  -2  -4  -4 49673.6 1998.14   6
  -2  -4  -4 48272.9 1951.11   3
  -2  -4  -5 19289.4 1360.96   3
  -2  -4  -5 19389.8 1237.77   6
  -2  -4  -6 54265.1 2417.85   3
  -2  -4  -6 53294.9 2075.30   6
  -2  -4  -7 15839.5 1385.50   3
  -2  -4  -7 16774.4 1168.00   6
   2   4   7 17382.3 1370.42   2
  -2  -4  -8 3700.74 535.338   6
   2   4   8 4082.58 727.118   2
   2   4   9 18718.1 1654.50   2
   2   4  10 37399.1 2458.53   2
   2   4  11 12313.7 1496.20   2
   2   4  12 417.676 384.083   2
   2   4  13 2696.74 786.324   2
   2   4  14 4243.07 974.451   2
  -2  -5  12 2641.17 1733.89   2
  -2  -5  11 43954.5 10500.5   2
  -2  -5  10 20282.7 7068.30   2
  -2  -5   9 27285.5 6926.96   2
  -2  -5   8 1286.12 1321.44   2
  -2  -5   7 22175.6 3647.19   2
   2   5  -7 29730.0 1269.22   1
   2   5  -6 15807.8 1033.07   1
  -2  -5   6 14397.3 2196.96   2
   2   5  -5 20049.2 1285.52   1
  -2  -5   5 29792.1 2226.76   2
  -2  -5   4 4728.00 628.371   2
   2   5  -4 4525.16 665.534   1
  -2  -5   3 2819.98 468.086   3
  -2  -5   2 9550.72 768.005   3
  -2  -5   1 3042.36 406.962   3
  -2  -5   0 9608.28 758.665   3
  -2  -5  -1 75336.4 2235.51   3
  -2  -5  -2 63827.2 2108.24   3
  -2  -5  -3 58154.5 2119.31   3
  -2  -5  -4 22787.6 1406.16   3
  -2  -5  -5 74352.7 2724.09   3
  -2  -5  -6 3320.51 616.009   3
  -2  -5  -7 49564.0 2520.48   3
   2   5   8 7761.66 1038.97   2
  -2  -5  -8 7356.07 982.783   3
   2   5   9 16523.8 1596.84   2
   2   5  10 2642.60 711.451   2
   2   5  11 8342.38 1248.29   2
   2   5  12 2935.07 826.811   2
   2   5  13 2666.82 849.882   2
  -2  -6  12 1262.19 1561.01   2
  -2  -6  11 75.5610 909.999   2
  -2  -6  10 4392.03 1656.07   2
  -2  -6   9 245.862 451.370   2
  -2  -6   8 16253.5 2227.04   2
  -2  -6   7 17054.8 1889.67   2
  -2  -6   6 600.852 310.211   2
  -2  -6   5 54325.7 2346.42   2
  -2  -6   4 16037.2 1187.59   3
  -2  -6   3 36308.2 1670.93   3
  -2  -6   2 7082.24 687.850   3
  -2  -6   1 33573.5 1525.66   3
  -2  -6   0 3080.51 471.774   3
  -2  -6  -1 13836.6 1053.08   3
  -2  -6  -2 54119.4 2138.13   3
  -2  -6  -3-17.2389 74.7312   3
  -2  -6  -4 36903.8 1918.63   3
  -2  -6  -5 1451.94 378.450   3
  -2  -6  -6 28309.6 1854.71   3
  -2  -6  -7 15197.6 1437.64   3
  -2  -6  -8 37979.4 2330.54   3
   2   6   9 10981.3 1390.82   2
   2   6  10 302.201 120.759   2
   2   6  11 4641.35 1051.05   2
   2   6  12 18644.4 2152.41   2
   2   6  13 3283.08 898.268   2
  -2  -7  11 37435.0 3517.24   2
  -2  -7  10 6746.84 1375.23   2
  -2  -7   9 66075.2 3816.72   2
  -2  -7   8 27648.7 2179.49   2
  -2  -7   7 36825.1 2170.86   2
  -2  -7   6 138.660 75.8122   2
  -2  -7   6 704.963 274.550   3
  -2  -7   5 30553.9 1754.12   3
  -2  -7   4 2811.10 481.665   3
  -2  -7   3 7380.35 791.818   3
  -2  -7   2 803.162 251.549   3
  -2  -7   1 233.262 59.3495   4
  -2  -7   1 206.268 158.462   3
  -2  -7   0 14916.9 1118.19   3
  -2  -7  -1 4517.34 660.447   3
  -2  -7  -2 3994.85 619.824   3
   2   7   3 3002.34 263.917   4
  -2  -7  -3 3527.93 611.949   3
  -2  -7  -4 20304.2 1525.65   3
  -2  -7  -5 33285.6 2006.40   3
  -2  -7  -6 18003.5 1563.57   3
  -2  -7  -7 22512.2 1761.51   3
  -2  -7  -8 233.189 148.727   3
   2   7   9 15575.1 1716.97   2
  -2  -7  -9 12527.0 1444.45   3
   2   7  10 2305.73 714.629   2
   2   7  11 11854.5 1712.30   2
   2   7  12 74.5167 185.326   2
  -2  -8  11 4614.08 1024.42   2
  -2  -8  10 1689.77 612.083   2
  -2  -8   9-44.1478 219.777   2
  -2  -8   8 1093.00 389.957   3
  -2  -8   8 833.461 322.396   2
  -2  -8   7 6448.60 905.528   3
  -2  -8   6 2309.22 462.955   3
  -2  -8   5 2070.12 466.120   3
  -2  -8   4 1060.73 308.258   3
  -2  -8   3 36928.6 1909.02   3
  -2  -8   2 1318.95 193.529   4
  -2  -8   2 1479.43 379.683   3
  -2  -8   1 25426.4 1595.30   3
  -2  -8   0 25478.4 1586.16   3
  -2  -8  -1 7342.22 880.204   3
  -2  -8  -2 2841.87 544.874   3
  -2  -8  -3 9830.60 1069.61   3
  -2  -8  -4 28668.4 1932.64   3
   2   8   4 35204.0 1164.57   4
  -2  -8  -5 2116.18 540.898   3
  -2  -8  -6 28138.8 2038.48   3
  -2  -8  -7 4429.57 841.985   3
  -2  -8  -8 34863.2 2381.53   3
  -2  -8  -9 7997.94 1172.65   3
   2   8  10 22611.2 2257.68   2
   2   8  11 15484.1 1936.83   2
   2   8  12 1335.19 525.546   2
  -2  -9  10 1108.36 445.294   3
  -2  -9   9 44129.3 2665.12   3
  -2  -9   8 6108.06 911.961   3
  -2  -9   7 36993.1 2242.89   3
  -2  -9   6 15734.0 1384.85   3
  -2  -9   5 56290.3 2552.42   3
  -2  -9   4 7102.72 913.951   3
  -2  -9   3 19255.4 1481.61   3
  -2  -9   2 397.551 185.244   3
  -2  -9   1 8921.17 1003.30   3
  -2  -9   0 213.962 216.233   3
  -2  -9  -1-242.019 191.787   3
  -2  -9  -2 11594.5 1189.72   3
  -2  -9  -3 13854.8 1360.33   3
  -2  -9  -4 9909.18 1209.95   3
  -2  -9  -5 5779.28 925.663   3
  -2  -9  -6 7570.82 1130.50   3
  -2  -9  -7 10685.0 1377.99   3
  -2  -9  -8 13797.7 1563.35   3
  -2  -9  -9 19773.2 1909.99   3
   2   9  10 366.453 209.500   2
   2   9  11 2970.84 838.014   2
  -2 -10   8 1004.62 304.789   3
  -2 -10   7 881.114 364.376   3
  -2 -10   6 430.055 291.666   3
  -2 -10   5 10101.5 1159.29   3
  -2 -10   4 350.100 215.127   3
  -2 -10   3 285.891 229.090   3
  -2 -10   2 2210.09 530.756   3
  -2 -10   1 18283.2 1552.26   3
  -2 -10   0 973.241 334.059   3
  -2 -10  -1 16461.5 1465.70   3
  -2 -10  -2 7333.46 1000.11   3
  -2 -10  -3 3484.35 725.944   3
  -2 -10  -4 8898.52 1170.12   3
  -2 -10  -5 2357.92 647.435   3
  -2 -10  -6 2200.94 653.863   3
  -2 -10  -7-153.425 291.425   3
  -2 -10  -8 16438.2 1758.77   3
  -2 -10  -9 6821.41 1193.22   3
  -2 -10 -10 14627.0 1752.42   3
   2  10  10 13500.4 1674.25   2
  -2 -11   7 51532.1 2870.19   3
  -2 -11   6 8052.28 1123.55   3
  -2 -11   5 28855.0 2104.61   3
  -2 -11   4 7606.39 1033.84   3
  -2 -11   3 57640.1 2906.57   3
  -2 -11   2 20697.3 1748.62   3
  -2 -11   1 24472.7 1905.31   3
  -2 -11   0-102.475 114.790   3
  -2 -11  -1 6696.96 979.695   3
  -2 -11  -2-142.881 40.5920   3
  -2 -11  -3 2967.54 765.557   3
  -2 -11  -4 1285.82 311.485   3
  -2 -11  -5 8458.25 1265.10   3
  -2 -11  -6 9298.43 1372.76   3
  -2 -11  -7 4296.71 975.902   3
  -2 -11  -8 1008.66 526.361   3
  -2 -12   5 752.292 364.799   3
  -2 -12   4 1129.97 493.491   3
  -2 -12   3 3193.80 692.877   3
  -2 -12   2 489.212 336.975   3
  -2 -12   1 3315.36 740.428   3
  -2 -12   0 2531.93 631.479   3
  -2 -12  -1 1410.01 415.865   3
  -2 -12  -2 563.359 312.607   3
  -2 -12  -3 11691.9 1472.31   3
  -2 -12  -4 1254.14 543.766   3
  -2 -12  -5 341.914 335.890   3
  -2 -12  -6 15561.7 1860.04   3
  -2 -13   2 2333.81 638.097   3
  -2 -13   1 15599.0 1689.86   3
  -2 -13   0 14725.6 1650.50   3
  -2 -13  -1 20814.1 1940.59   3
  -2 -13  -2 328.597 311.207   3
  -2 -13  -3 1678.27 609.510   3
   3 -11  -3 10.1044 287.501   3
  -3  11   3-231.710 249.918   6
   3 -11  -2 1287.87 552.734   3
  -3  11   2 5040.95 1218.11   6
  -3  11   1 611.437 502.944   6
  -3  11   0-297.989 337.173   6
  -3  11  -1 1756.20 671.799   6
  -3  11  -2 12014.3 1888.67   6
  -3  11  -3 11534.6 1890.92   6
  -3  11  -4 3320.32 992.504   6
  -3  11  -5 29862.9 3012.84   6
  -3  10   6 6979.27 1457.91   6
  -3  10   6 3925.65 719.282   2
  -3  10   5 6307.89 1390.45   6
   3 -10  -4 6989.50 1046.36   3
  -3  10   4 8864.37 1631.12   6
   3 -10  -3 2393.96 607.977   3
  -3  10   3 2200.78 723.495   6
   3 -10  -2 925.177 386.287   3
  -3  10   2 286.026 207.194   6
   3 -10  -1 354.830 294.938   3
  -3  10   1 903.107 576.695   6
  -3  10   0 18173.1 2165.99   6
   3 -10   0 18755.5 1578.53   3
   3 -10   1 3608.36 661.419   3
  -3  10  -1 5047.33 1169.41   6
  -3  10  -2 4586.98 1051.49   6
   3 -10   2 3925.99 677.992   3
   3 -10   3 559.635 287.058   3
  -3  10  -3 1280.70 545.165   6
   3 -10   4 23575.9 1656.68   3
  -3  10  -4 29371.2 2835.31   6
   3 -10   4 28376.3 2482.15   5
  -3  10  -5 2082.82 733.923   6
   3 -10   5 2105.57 662.751   5
  -3  10  -6 8212.32 1547.72   6
   3 -10   6 10197.0 1555.36   5
   3 -10   7 5500.12 1102.11   5
  -3  10  -7 4778.69 1142.18   6
  -3   9   7-9.72384 155.271   4
  -3   9   7 289.420 227.088   2
  -3   9   7-194.256 192.609   6
  -3   9   6 2510.34 612.340   4
  -3   9   6 1380.76 386.106   2
  -3   9   6 3007.27 875.087   6
  -3   9   5 320.651 268.438   4
  -3   9   5-614.623 470.843   6
  -3   9   4 1410.36 462.205   4
   3  -9  -4 909.295 336.534   3
  -3   9   4 1554.42 630.057   6
  -3   9   3 10360.0 1232.74   4
   3  -9  -3 9587.92 1122.00   3
  -3   9   3 12284.0 1726.40   6
   3  -9  -2 5717.20 857.464   3
  -3   9   2 5794.64 1202.34   6
   3  -9  -1 3093.48 620.726   3
  -3   9   1 2207.61 659.639   6
   3  -9   0 15644.0 1716.28   1
   3  -9   0 15412.1 1310.52   3
  -3   9   0 14254.3 1833.99   6
   3  -9   1-206.744 370.530   5
   3  -9   1-238.559 279.453   1
   3  -9   1 104.178 71.5849   3
  -3   9  -1 69.1596 281.261   6
   3  -9   2 3069.09 552.859   3
   3  -9   2 2985.10 693.408   5
  -3   9  -2 3882.30 976.608   6
   3  -9   2 3429.65 828.916   1
   3  -9   3 5300.16 737.940   3
   3  -9   3 4744.45 928.507   1
  -3   9  -3 4742.75 1015.74   6
   3  -9   3 3895.87 873.615   5
   3  -9   4 17205.9 1777.04   1
   3  -9   4 17883.6 1346.77   3
   3  -9   4 17990.8 1867.98   5
  -3   9  -4 18560.6 2090.86   6
   3  -9   5 16359.5 1759.44   1
  -3   9  -5 18135.3 2134.43   6
   3  -9   5 19263.6 1430.60   3
   3  -9   5 16451.4 1786.70   5
  -3   9  -6 10821.7 1657.44   6
   3  -9   6 8980.40 968.173   3
   3  -9   6 9549.01 1347.02   5
   3  -9   7 23690.1 1582.18   3
   3  -9   7 24053.1 2236.16   5
  -3   9  -7 22774.9 2383.07   6
   3  -9   8 4789.69 1027.16   5
  -3   9  -8 5142.62 1144.17   6
  -3   9  -9 48285.4 3471.51   6
   3  -9   9 45490.2 3117.10   5
  -3   8   9 1073.46 518.311   4
  -3   8   9 390.522 260.723   2
  -3   8   8 13332.4 1435.94   6
  -3   8   8 16144.8 1700.06   4
  -3   8   8 13027.0 1378.71   2
  -3   8   7 5205.81 933.488   4
  -3   8   7 4340.88 745.485   2
  -3   8   7 6481.67 1150.66   6
  -3   8   6 43151.2 2612.38   4
  -3   8   6 33532.5 1947.96   2
  -3   8   5 1656.36 477.911   4
  -3   8   5 1551.41 646.536   6
  -3   8   5 1144.88 344.423   2
  -3   8   4 3193.09 658.086   4
   3  -8  -4 3649.44 649.105   3
  -3   8   4 3962.63 993.278   6
  -3   8   3 11155.1 1190.51   4
   3  -8  -3 11837.7 1202.53   3
  -3   8   3 9810.98 1458.70   6
  -3   8   2 10351.5 1123.43   4
   3  -8  -2 8852.53 1018.70   3
   3  -8  -2 10733.2 1291.66   1
  -3   8   2 11048.3 1483.08   6
   3  -8  -1 2840.35 643.465   5
   3  -8  -1 2917.51 720.219   1
   3  -8  -1 3174.74 550.233   3
  -3   8   1 3254.11 814.246   6
   3  -8   0-183.457 183.785   1
   3  -8   0 95.8775 141.346   3
   3  -8   1 685.462 313.368   1
   3  -8   1 239.404 244.153   5
   3  -8   1 745.990 279.521   3
   3  -8   2 50583.9 2904.66   1
   3  -8   2 50582.9 2069.10   3
   3  -8   2 47746.8 2732.66   5
  -3   8  -2 51430.9 3278.03   6
   3  -8   3 717.314 287.516   1
   3  -8   3 540.997 195.791   5
   3  -8   3 503.998 228.393   3
  -3   8  -3 1200.66 640.980   6
   3  -8   4 4794.78 882.015   1
   3  -8   4 6462.55 1032.41   5
   3  -8   4 6312.59 725.326   3
  -3   8  -4 6075.62 1134.62   6
   3  -8   5 300.897 251.989   5
   3  -8   5 263.310 110.959   3
  -3   8  -5 652.105 392.630   6
   3  -8   5-100.130 212.377   1
   3  -8   6 25730.0 2072.36   1
   3  -8   6 24036.2 2022.68   5
  -3   8  -6 27481.6 2488.95   6
   3  -8   6 25375.8 1482.69   3
   3  -8   7 1601.12 551.669   5
   3  -8   7 851.344 357.503   1
  -3   8  -7 2220.78 740.693   6
   3  -8   7 1534.02 357.997   3
   3  -8   8 20517.1 1396.95   3
  -3   8  -8 22457.6 2234.63   6
   3  -8   8 20293.5 1907.11   1
   3  -8   8 21993.8 2001.66   5
   3  -8   9 8539.29 1295.42   5
   3  -8   9 7763.99 884.829   3
  -3   8  -9 7389.72 1275.49   6
   3  -8  10 726.410 393.979   5
  -3   7  10 834.996 282.813   2
  -3   7   9 1122.86 421.697   2
  -3   7   8 412.492 276.627   4
  -3   7   8 208.326 166.988   2
  -3   7   8 319.222 214.778   6
  -3   7   7 5276.44 947.123   6
  -3   7   7 4176.62 761.832   2
  -3   7   7 5263.41 909.845   4
  -3   7   6 884.254 370.027   4
  -3   7   6 472.255 187.165   2
  -3   7   6 226.534 216.614   6
  -3   7   5 4389.13 954.999   6
  -3   7   5 3199.99 585.458   2
  -3   7   5 3572.45 662.458   4
  -3   7   4 5687.09 873.474   4
   3  -7  -4 6652.02 994.192   1
   3  -7  -4 5987.50 845.923   3
  -3   7   4 6763.26 1180.78   6
   3  -7  -3 895.375 357.451   1
  -3   7   3 1467.89 434.870   4
   3  -7  -3 1269.40 414.157   3
   3  -7  -2 1409.74 410.327   5
   3  -7  -2 1299.07 438.145   1
  -3   7   2 1671.35 411.649   4
   3  -7  -2 1237.44 343.150   3
  -3   7   1 25412.9 1668.90   4
   3  -7  -1 23134.9 1841.33   1
   3  -7  -1 23642.4 1505.06   3
   3  -7  -1 22976.3 1636.21   5
   3  -7   0 11198.3 1262.61   1
   3  -7   0 9769.17 1106.57   5
   3  -7   0 9683.37 887.964   3
   3  -7   1 210.225 173.760   1
   3  -7   1 276.430 85.1057   5
   3  -7   1 46.4186 123.804   3
   3  -7   2 29012.0 1424.11   3
   3  -7   2 31864.3 2084.57   5
   3  -7   2 27494.3 2025.75   1
   3  -7   3 8587.06 773.539   3
   3  -7   3 6917.02 998.348   1
   3  -7   3 8608.33 1089.86   5
   3  -7   4 7526.93 1070.08   5
   3  -7   4 6573.94 994.894   1
   3  -7   4 8630.12 772.518   3
   3  -7   5 1334.13 421.258   1
   3  -7   5 639.245 272.743   5
   3  -7   5 1208.86 282.862   3
   3  -7   6 22898.6 1874.67   5
   3  -7   6 21969.7 1254.13   3
  -3   7  -6 21517.0 2038.09   6
   3  -7   6 22905.0 1810.98   1
   3  -7   7 32239.8 2205.32   1
   3  -7   7 33484.6 1602.92   3
  -3   7  -7 38565.5 2743.24   6
   3  -7   7 35651.8 2360.48   5
   3  -7   8 15739.0 1577.32   5
   3  -7   8 16104.9 1570.62   1
  -3   7  -8 15138.1 1694.80   6
   3  -7   8 14474.4 1120.10   3
   3  -7   9 23489.8 1588.61   3
  -3   7  -9 23290.9 2106.08   6
   3  -7   9 21460.3 1851.75   1
   3  -7   9 19326.5 1813.38   5
   3  -7  10 13979.5 1369.30   3
  -3   7 -10 12723.1 1542.28   6
   3  -7  10 12025.1 1485.24   5
   3  -7  10 11644.9 1212.34   2
   3  -7  11 37171.0 2405.28   2
   3  -7  11 37399.4 2676.56   5
  -3   6  11 471.325 299.237   2
  -3   6  10 18631.9 1955.57   2
  -3   6   9 7053.24 1153.69   2
  -3   6   8 43337.5 2195.28   6
  -3   6   8 57141.4 3089.03   2
  -3   6   7 4796.62 817.921   6
  -3   6   7 4333.57 788.530   2
  -3   6   6 29076.8 1923.63   2
  -3   6   6 30521.1 2116.65   4
   3  -6  -5 8334.40 1021.26   1
  -3   6   5 7359.10 997.014   4
  -3   6   5 6492.20 845.557   2
  -3   6   4 78135.9 3180.90   4
   3  -6  -4 78384.3 3105.99   1
  -3   6   3 5601.75 808.267   4
   3  -6  -3 6524.00 769.439   3
   3  -6  -3 7943.15 887.861   5
   3  -6  -3 7568.70 988.000   1
  -3   6   2 16969.4 1329.36   4
   3  -6  -2 16497.3 1285.37   5
   3  -6  -2 16238.1 1426.81   1
   3  -6  -2 16645.3 1219.69   3
   3  -6  -1 29821.5 1922.26   1
  -3   6   1 28316.0 1658.51   4
   3  -6  -1 31149.7 1581.81   3
   3  -6  -1 30754.0 1791.71   5
   3  -6   0 3569.12 659.133   1
   3  -6   0 3380.82 475.482   3
   3  -6   0 3852.14 653.833   5
   3  -6   1 3429.65 598.791   5
   3  -6   1 2955.37 595.628   1
  -3   6  -1 2259.85 355.336   3
   3  -6   1 2247.77 361.819   3
   3  -6   2 7024.14 939.942   1
   3  -6   2 7578.06 648.909   3
   3  -6   2 7278.29 940.743   5
   3  -6   3 6207.89 840.559   1
   3  -6   3 6843.06 607.408   3
   3  -6   3 6641.94 922.619   5
   3  -6   4 85280.6 3209.22   1
   3  -6   4 88536.5 2244.46   3
   3  -6   4 86909.3 3319.90   5
   3  -6   5 1146.58 359.347   1
   3  -6   5 995.461 316.697   5
   3  -6   5 1341.37 269.105   3
   3  -6   6 9752.48 1084.49   1
   3  -6   6 10174.6 792.835   3
   3  -6   6 10023.0 1162.46   5
   3  -6   7 1436.76 341.933   3
   3  -6   7 958.946 381.887   5
   3  -6   7 1307.63 388.797   1
   3  -6   8 30372.8 1747.15   2
   3  -6   8 31043.7 2109.05   5
  -3   6  -8 32539.8 2307.95   6
   3  -6   8 34705.8 2116.22   1
   3  -6   9 1946.20 550.560   2
  -3   6  -9 2151.73 605.403   6
   3  -6   9 1697.64 450.476   1
   3  -6   9 1636.05 494.165   5
   3  -6  10 40148.7 2548.04   5
  -3   6 -10 38724.4 2499.63   6
   3  -6  11 11445.5 1408.53   5
   3  -6  11 14815.1 2068.79   2
   3  -6  12 41.9715 479.022   2
  -3   5  11 9340.14 1377.88   2
  -3   5  10 2070.03 600.019   2
  -3   5   9 1651.74 548.548   2
  -3   5   8 752.347 250.178   6
  -3   5   8 810.720 331.830   2
  -3   5   7 2554.15 569.980   6
  -3   5   7 1934.79 554.071   2
  -3   5   6-73.0029 94.2663   2
   3  -5  -5 658.166 184.996   1
  -3   5   5 775.195 240.093   2
  -3   5   5 517.326 151.655   4
   3  -5  -4 71.9859 137.034   1
  -3   5   4 92.5748 118.851   4
  -3   5   4 151.013 122.422   2
   3  -5  -4 14.9161 35.8714   5
  -3   5   3 22798.2 1582.62   4
   3  -5  -3 21167.5 1492.71   1
   3  -5  -3 23155.1 1392.15   5
   3  -5  -2 6470.84 812.928   1
   3  -5  -2 5715.60 651.533   3
  -3   5   2 6364.10 803.160   4
   3  -5  -2 5949.34 716.649   5
   3  -5  -1 4519.90 677.024   1
   3  -5  -1 3818.68 569.744   5
  -3   5   1 3372.17 527.601   4
   3  -5  -1 4205.97 532.727   3
  -3   5   1 4006.08 472.918   3
   3  -5   0 2240.09 455.260   5
   3  -5   0 2441.45 384.985   3
   3  -5   0 2371.55 506.757   1
  -3   5   0 2454.49 479.414   4
  -3   5   0 1887.68 282.692   3
   3  -5   1 41670.3 2111.55   1
   3  -5   1 45419.0 2083.69   5
   3  -5   1 41146.3 1425.53   3
  -3   5  -1 44441.2 1393.43   3
   3  -5   2 10316.4 1039.66   5
   3  -5   2 9922.53 1017.55   1
   3  -5   2 10354.2 667.547   3
  -3   5  -2 9562.89 1318.09   2
   3  -5   3 20571.0 1454.83   1
   3  -5   3 22970.3 1013.15   3
   3  -5   3 21663.5 1522.44   5
   3  -5   4 37004.1 1990.00   5
   3  -5   4 36309.4 1945.52   1
   3  -5   4 37822.2 1259.29   3
   3  -5   5 12189.4 1102.83   1
   3  -5   5 11923.2 750.213   3
   3  -5   5 11196.3 1101.69   5
   3  -5   6 11724.9 884.496   3
   3  -5   6 10605.9 848.943   2
   3  -5   6 10247.7 1103.78   5
   3  -5   6 9977.37 1005.80   1
   3  -5   7 249.910 234.512   2
   3  -5   7 60.0644 61.2188   1
   3  -5   7 155.442 114.997   5
   3  -5   8 23341.7 1704.03   5
   3  -5   8 26570.5 1692.59   1
  -3   5  -9 22504.3 1776.05   6
   3  -5   9 24456.6 1813.35   5
   3  -5   9 21320.2 3105.26   2
   3  -5   9 24648.3 1663.93   1
   3  -5  10 9590.42 1176.61   5
  -3   5 -10 9989.24 1161.34   6
   3  -5  10 8955.95 2529.11   2
   3  -5  11 23573.8 5396.04   2
   3  -5  11 28189.2 2082.21   5
   3  -5  12 13574.7 4407.69   2
   3  -5  12 19127.7 1758.06   5
   3  -5  13 10184.4 3907.55   2
  -3   4  12 4167.62 969.565   2
  -3   4  11 1114.23 373.265   2
  -3   4  10 16293.7 1779.60   2
  -3   4   9 1557.15 634.430   2
  -3   4   8 21793.5 1888.05   2
  -3   4   8 13930.4 1039.22   6
  -3   4   7 9275.25 1176.04   2
  -3   4   6 112352. 3795.73   2
   3  -4  -6 101635. 3087.64   1
  -3   4   5 37571.1 2002.39   2
  -3   4   5 32620.1 1413.58   5
   3  -4  -5 34272.7 1750.04   1
  -3   4   4 70521.1 2499.97   2
   3  -4  -4 68006.3 2441.58   1
   3  -4  -4 69560.9 2140.86   5
  -3   4   3 4061.78 533.508   2
  -3   4   3 4019.92 642.980   4
   3  -4  -3 4468.48 605.987   1
   3  -4  -3 4536.76 534.776   5
  -3   4   2 85181.2 2338.01   3
   3  -4  -2 81901.5 2370.69   5
  -3   4   2 80669.4 2771.96   4
   3  -4  -2 82832.4 2677.32   1
   3  -4  -1 37533.5 1789.75   1
   3  -4  -1 33828.0 1356.18   3
  -3   4   1 37089.6 1350.92   3
   3  -4  -1 36332.7 1616.79   5
  -3   4   1 34226.6 1675.55   4
   3  -4   0 42507.7 1929.31   1
  -3   4   0 39802.5 1717.46   4
   3  -4   0 43249.4 1452.40   3
   3  -4   0 40913.0 1768.12   5
  -3   4   0 38564.2 1154.76   3
   3  -4   1 28712.2 1036.40   3
   3  -4   1 30129.5 1577.85   5
  -3   4  -1 31170.7 958.856   3
   3  -4   1 29528.4 1611.42   1
   3  -4   2 5571.00 689.950   1
   3  -4   2 5610.98 423.704   3
   3  -4   2 5744.59 701.829   5
   3  -4   3 27483.6 1566.26   1
   3  -4   3 31038.4 969.495   3
   3  -4   3 30235.2 1665.47   5
  -3   4  -4 12402.7 756.180   2
   3  -4   4 13338.6 1085.45   1
   3  -4   4 13124.1 667.292   3
   3  -4   4 13724.1 1131.42   5
   3  -4   5 16974.1 1267.12   5
   3  -4   5 20578.4 1144.30   2
   3  -4   5 17892.3 1220.55   1
   3  -4   6 43031.6 1931.15   1
   3  -4   6 40631.5 2024.67   5
   3  -4   7 122.962 106.128   5
   3  -4   7 80.0522 130.881   1
   3  -4   8 13139.5 1111.37   1
   3  -4   8 13607.2 1208.10   5
   3  -4   9 2995.08 567.854   5
   3  -4   9 3009.97 526.502   1
   3  -4   9 4090.27 2450.20   2
   3  -4  10 17236.5 1280.21   1
  -3   4 -10 16327.8 1367.77   6
   3  -4  10 17546.0 1507.42   5
   3  -4  10 15739.2 4478.22   2
   3  -4  11 801.277 1127.02   2
   3  -4  11-216.933 178.140   5
   3  -4  12 24157.5 5341.75   2
   3  -4  12 34549.7 2235.28   5
   3  -4  13 11767.7 4309.17   2
  -3   3  12 5202.92 1037.97   2
  -3   3  11 367.271 276.417   2
  -3   3  10 5244.50 981.560   2
  -3   3   9 2040.03 605.682   2
  -3   3   8 5632.67 886.346   2
  -3   3   7 12371.8 1257.17   2
  -3   3   6 2759.64 587.662   2
   3  -3  -6 3064.86 479.884   1
  -3   3   5 756.898 183.565   5
   3  -3  -5 458.441 195.034   1
  -3   3   5 869.119 271.513   2
   3  -3  -5 651.827 173.894   5
  -3   3   4 60.3896 49.6086   5
   3  -3  -4 2.51673 112.963   1
   3  -3  -4 201.782 132.991   5
  -3   3   4 94.2213 37.3008   2
  -3   3   3 5555.65 736.728   4
  -3   3   3 6383.41 642.724   2
   3  -3  -3 4968.69 504.840   5
   3  -3  -3 4920.30 596.799   1
  -3   3   3 4926.79 567.552   3
  -3   3   3 5027.43 528.559   5
  -3   3   2 594.683 193.018   5
  -3   3   2 584.206 219.775   4
   3  -3  -2 656.352 218.578   1
   3  -3  -2 391.155 171.918   5
  -3   3   2 331.016 153.322   3
  -3   3   2 401.222 149.972   2
  -3   3   1 35128.9 1656.58   4
  -3   3   1 38513.6 1303.10   3
   3  -3  -1 37664.7 1637.03   1
   3  -3  -1 38459.6 1499.59   5
   3  -3   0 26527.1 938.263   3
  -3   3   0 25036.7 1302.91   4
   3  -3   0 29645.6 1446.31   1
  -3   3   0 27179.8 849.475   3
   3  -3   0 27360.5 1326.14   5
   3  -3   1 2898.85 444.167   5
   3  -3   1 2874.97 265.588   3
  -3   3  -1 2987.65 227.945   3
   3  -3   1 3091.47 472.205   1
   3  -3   2 906.670 234.091   5
  -3   3  -2 547.334 415.403   2
   3  -3   2 724.636 223.724   1
   3  -3   2 984.693 135.647   3
  -3   3  -3 22721.6 861.726   2
   3  -3   3 22784.6 1277.02   1
   3  -3   3 22330.2 1293.36   5
   3  -3   3 22850.7 678.788   3
   3  -3   4 41578.8 1724.27   1
   3  -3   4 37644.9 1728.91   5
  -3   3  -4 39193.1 1210.15   2
  -3   3  -5 45749.0 1573.53   2
   3  -3   5 45982.7 1947.27   5
   3  -3   5 44688.4 1801.49   1
   3  -3   6 27414.4 3938.16   2
   3  -3   6 28089.2 1424.30   1
   3  -3   6 25992.4 1500.22   5
   3  -3   7 7138.58 1393.17   2
   3  -3   7 7655.23 745.230   1
   3  -3   7 6932.66 799.962   5
   3  -3   8 37727.1 1711.86   1
   3  -3   8 35919.5 1885.91   5
   3  -3   8 36527.6 2930.07   2
   3  -3   9 2035.69 438.897   5
   3  -3   9 1874.64 375.088   1
   3  -3   9 2392.59 759.021   2
  -3   3 -10 18188.8 1269.50   6
   3  -3  10 19044.4 1228.31   1
   3  -3  10 22603.5 2241.70   2
   3  -3  10 19028.2 1471.99   5
   3  -3  11 11823.8 1212.80   5
   3  -3  11 15377.5 1954.07   2
   3  -3  12 13934.2 2074.21   2
   3  -3  13 34556.5 3709.29   2
   3  -3  14 14347.3 2843.59   2
  -3   2  12 4814.60 996.968   2
  -3   2  11 1272.15 517.858   2
  -3   2  10 35.7740 84.0541   2
  -3   2   9 4105.19 745.641   2
  -3   2   8 47389.4 2480.73   2
   3  -2  -7 463.511 138.877   1
  -3   2   7 526.261 152.397   1
  -3   2   7 745.272 249.842   2
  -3   2   6 18880.6 1362.73   2
  -3   2   6 15687.3 946.409   1
   3  -2  -6 17712.7 1042.32   1
   3  -2  -5 18783.1 1048.67   1
  -3   2   5 19135.4 1256.91   2
  -3   2   5 18109.0 1021.60   1
   3  -2  -5 20491.0 821.512   5
   3  -2  -4 140310. 2792.67   1
   3  -2  -4 140438. 2280.59   5
  -3   2   4 144398. 3230.35   2
  -3   2   4 138890. 2841.08   1
  -3   2   3 54715.2 1800.68   2
   3  -2  -3 53032.4 1722.48   1
  -3   2   3 51287.3 1748.76   1
   3  -2  -3 50687.7 1425.99   5
  -3   2   2 108869. 2296.72   5
  -3   2   2 115136. 2272.35   2
   3  -2  -2 116572. 2577.03   1
  -3   2   2 113671. 2973.68   4
  -3   2   2 115150. 2619.43   1
  -3   2   2 112767. 2296.52   3
   3  -2  -2 115143. 2236.51   5
  -3   2   1 6696.56 468.417   2
   3  -2  -1 7534.36 643.426   1
  -3   2   1 7506.62 675.767   1
   3  -2  -1 7238.42 576.400   5
  -3   2   1 6299.01 462.983   3
  -3   2   1 6698.14 681.045   4
  -3   2   1 6966.83 594.613   5
  -3   2   0 65943.0 1893.21   5
   3  -2   0 64034.8 1942.70   1
   3  -2   0 69080.4 2099.92   4
  -3   2   0 63156.8 1154.82   3
  -3   2   0 68315.2 2021.06   1
  -3   2   0 64304.0 2017.17   4
   3  -2   0 68775.4 1882.16   5
  -3   2  -1 39376.2 1528.68   5
   3  -2   1 40448.5 1573.30   4
   3  -2   1 39490.3 1475.41   5
   3  -2   1 40703.3 1544.98   1
  -3   2  -1 41056.2 1562.31   1
  -3   2  -2 7450.72 312.757   2
   3  -2   2 8177.99 696.233   4
   3  -2   2 8799.21 731.093   5
   3  -2   2 7969.54 694.690   1
   3  -2   2 8710.88 283.595   3
  -3   2  -2 9157.90 731.841   1
  -3   2  -3 8316.06 465.697   2
   3  -2   3 7883.09 693.097   1
   3  -2   3 8073.82 705.617   5
  -3   2  -4 8434.11 579.439   2
   3  -2   4 7422.12 664.952   1
   3  -2   4 6732.39 676.383   5
   3  -2   5 34953.4 1572.52   5
   3  -2   5 37762.4 1533.38   1
   3  -2   6 7194.21 695.209   2
   3  -2   6 6106.61 603.663   1
   3  -2   6 6135.76 663.559   5
   3  -2   7 27202.1 1306.39   1
   3  -2   7 26914.5 1392.38   2
   3  -2   7 26287.1 1438.87   5
   3  -2   8 11204.8 994.490   5
   3  -2   8 11577.1 977.471   2
   3  -2   8 11967.2 887.901   1
   3  -2   9 842.239 305.073   5
   3  -2   9 772.702 277.961   2
   3  -2   9 641.695 206.037   1
   3  -2  10 19660.0 1165.53   1
   3  -2  10 17970.7 1352.15   5
   3  -2  10 17342.5 1386.31   2
   3  -2  11 6897.35 967.181   2
   3  -2  11 6846.46 879.716   5
   3  -2  12 9220.55 1231.53   2
   3  -2  13-54.7442 88.4601   2
   3  -2  14 15549.3 2015.50   2
  -3   1  13 4122.15 940.488   2
  -3   1  12 10986.9 1431.00   2
  -3   1  11 9105.55 1235.87   2
  -3   1  10 5782.30 953.394   2
  -3   1   9 23.8263 107.198   2
  -3   1   8 16782.9 1393.74   2
   3  -1  -7 134.855 39.7543   1
  -3   1   7 143.970 100.736   2
  -3   1   7 183.326 60.5889   1
  -3   1   6 14705.7 1122.60   2
   3  -1  -6 15619.0 845.576   1
  -3   1   6 16660.8 874.848   1
   3  -1  -5 8975.92 626.854   1
  -3   1   5 9032.15 791.028   2
  -3   1   5 9073.06 654.985   1
   3  -1  -5 9325.62 438.430   5
  -3   1   4 16220.9 1010.19   2
   3  -1  -4 17106.5 877.685   1
  -3   1   4 17271.0 906.962   1
   3  -1  -4 16305.1 649.042   5
   3  -1  -3 6352.05 558.783   2
   3  -1  -3 7025.25 559.327   1
  -3   1   3 6881.59 568.660   1
  -3   1   3 7535.02 611.178   2
   3  -1  -3 6800.26 447.206   5
  -3   1   2 11356.5 656.108   2
   3  -1  -2 9417.83 590.311   2
   3  -1  -2 10277.6 689.290   1
  -3   1   2 10388.6 702.686   1
   3  -1  -2 10582.5 597.390   5
   3  -1  -1 5872.50 482.666   5
  -3   1   1 5820.18 394.590   2
   3  -1  -1 5800.18 524.092   1
  -3   1   1 5977.30 546.452   1
  -3   1   1 6531.86 621.135   4
   3  -1   0 286.252 118.261   5
  -3   1   0 443.985 162.740   4
   3  -1   0 409.578 158.744   4
   3  -1   0 603.265 193.069   1
  -3   1   0 469.152 68.1272   2
  -3   1   0 493.852 86.8667   3
  -3   1   0 367.854 129.465   1
   3  -1   1 24779.1 1073.71   5
   3  -1   1 24849.8 1165.61   4
   3  -1   1 24132.6 1088.81   1
  -3   1  -1 24309.5 1174.41   4
  -3   1  -1 26360.1 1154.50   1
   3  -1   2 18798.7 1004.17   4
   3  -1   2 16873.5 928.201   5
   3  -1   2 17647.9 939.851   1
  -3   1  -2 17570.9 938.795   1
   3  -1   3 58297.9 1711.35   1
  -3   1  -3 61387.4 1153.52   2
   3  -1   3 61824.0 1156.31   3
   3  -1   3 58621.2 1043.59   2
  -3   1  -3 62335.0 1788.33   1
   3  -1   3 57208.4 1784.14   5
  -3   1  -4 1924.52 303.008   1
   3  -1   4 1877.83 250.905   3
   3  -1   4 2043.98 356.322   5
   3  -1   4 2029.20 315.485   1
  -3   1  -4 1768.23 253.260   2
   3  -1   4 1477.63 201.252   2
   3  -1   5 4703.38 438.808   2
  -3   1  -5 6237.44 555.277   2
   3  -1   5 5186.41 525.320   1
  -3   1  -5 5205.61 530.116   1
   3  -1   5 5041.53 562.263   5
   3  -1   6 24145.9 1119.37   2
  -3   1  -6 27364.6 1202.03   1
   3  -1   6 27842.8 1242.04   1
   3  -1   6 26345.9 1355.61   5
   3  -1   7 62008.1 2127.54   5
   3  -1   7 63314.3 1888.05   1
   3  -1   8 19865.4 1245.39   2
   3  -1   8 20478.9 1110.06   1
   3  -1   8 20761.6 1273.63   5
   3  -1   9-35.8877 29.2188   1
   3  -1   9 35.0801 167.879   5
   3  -1   9 29.0808 95.7651   2
   3  -1  10 36706.5 1976.29   2
   3  -1  10 41003.5 1614.28   1
   3  -1  10 41239.7 1966.52   5
   3  -1  11 3833.12 619.321   5
   3  -1  11 2992.08 594.146   2
   3  -1  12 14133.3 1388.77   2
   3  -1  13 7991.51 1173.00   2
   3  -1  14 14078.5 1725.09   2
  -3   0  13-26.1900 342.172   2
  -3   0  12 5017.98 981.164   2
  -3   0  11 476.209 288.643   2
  -3   0  10 2526.38 581.645   2
  -3   0   9 3180.36 615.704   2
  -3   0   8 475.603 227.457   2
  -3   0   7 14428.1 1143.77   2
   3   0  -7 18347.0 749.743   1
  -3   0   6 48978.1 2048.00   2
   3   0  -6 55219.8 1337.19   1
   3   0  -5 258.706 57.4362   5
  -3   0   5 217.194 116.452   2
   3   0  -5 204.598 95.1618   1
  -3   0   4 64057.3 1603.18   1
   3   0  -4 62926.5 1127.27   5
   3   0  -4 61714.2 1463.10   1
   3   0  -3 68200.4 1369.07   5
  -3   0   3 68358.7 1759.58   2
  -3   0   3 72125.2 1707.91   1
   3   0  -3 73566.6 1976.11   2
   3   0  -3 66759.4 1589.45   1
   3   0  -2 133232. 2317.36   2
   3   0  -2 131843. 2247.20   1
  -3   0   2 125795. 2310.09   1
  -3   0   1 60722.0 1850.95   4
   3   0  -1 60689.6 1558.97   1
   3   0  -1 63682.7 1304.95   2
  -3   0   1 60258.4 1615.51   1
   3   0   0 341671. 2166.96   2
   3   0   0 354296. 4155.96   4
  -3   0   0 342430. 4208.86   4
   3   0   0 359572. 3839.57   1
  -3   0   0 356673. 3933.74   1
   3   0   1 79159.4 1964.80   4
  -3   0  -1 81597.9 1982.46   4
  -3   0  -1 85083.3 945.216   3
  -3   0  -1 80245.1 1917.36   1
   3   0   1 79965.7 1849.94   1
   3   0   2 61726.1 1740.17   4
   3   0   2 59800.1 938.096   2
  -3   0  -2 58214.3 944.817   3
   3   0   2 57968.6 886.365   3
   3   0   2 59201.5 1612.12   1
  -3   0  -2 60269.8 1656.61   1
   3   0   3 58943.0 1291.68   3
   3   0   3 60998.7 1319.35   2
   3   0   3 60363.8 1658.15   1
  -3   0  -3 60700.9 1676.69   1
   3   0   4 15035.7 802.870   2
   3   0   4 14694.8 808.632   3
   3   0   4 15981.3 866.454   1
   3   0   5 4171.74 512.891   5
   3   0   5 3820.34 445.034   2
   3   0   5 3930.97 470.762   3
   3   0   5 4536.71 470.989   1
   3   0   6 7301.79 693.839   2
   3   0   6 7690.36 733.084   3
   3   0   6 7355.20 618.541   1
   3   0   6 7547.11 710.101   5
   3   0   7 36180.9 1604.58   5
   3   0   7 35721.8 1661.91   2
   3   0   7 37703.8 1438.02   1
   3   0   8 25844.1 1559.07   2
   3   0   8 25137.8 1394.30   5
   3   0   8 23846.0 1172.63   1
   3   0   9 21376.3 1495.95   2
   3   0   9 24280.7 1204.42   1
   3   0   9 25161.2 1433.25   5
   3   0  10 20377.1 1325.60   5
   3   0  10 21338.5 1101.85   1
   3   0  10 17342.0 1451.89   2
   3   0  11 620.529 235.056   5
   3   0  11 70.1723 33.6515   2
   3   0  12 11861.2 1308.02   2
   3   0  13 3461.88 742.591   2
   3   0  14 14276.7 1641.06   2
  -3  -1  13 1159.90 590.854   2
  -3  -1  12 4146.21 908.394   2
  -3  -1  11 3755.41 828.063   2
  -3  -1  10 12389.4 1331.35   2
  -3  -1   9 13106.8 1274.60   2
  -3  -1   8 11821.8 1199.32   2
  -3  -1   7 25620.5 1639.43   2
   3   1  -7 26519.4 680.791   1
  -3  -1   6 17666.1 1297.11   2
   3   1  -6 16928.1 648.447   1
   3   1  -5 235.341 80.0138   1
  -3  -1   5 538.197 226.263   2
  -3  -1   4 16943.5 1055.90   2
   3   1  -4 16505.9 716.797   1
   3   1  -3 32486.3 1292.05   2
   3   1  -3 31750.4 1038.67   1
   3   1  -2 16862.0 795.970   2
  -3  -1   2 16106.6 1308.54   2
   3   1  -2 16864.8 793.131   1
  -3  -1   1 1329.71 648.546   2
   3   1  -1 1089.94 196.374   1
   3   1  -1 1015.84 182.082   2
   3   1   0 37413.4 1239.62   1
  -3  -1   0 39754.4 1304.39   4
  -3  -1   0 41840.7 990.238   3
   3   1   0 36524.9 3310.79   2
   3   1   1 23554.1 1000.85   1
  -3  -1  -1 25411.4 1005.21   4
   3   1   1 22751.0 974.115   4
  -3  -1  -1 24790.5 735.881   3
   3   1   1 23506.8 681.873   3
   3   1   2 7187.30 566.669   1
  -3  -1  -2 6083.67 395.933   3
   3   1   2 6899.00 405.236   3
  -3  -1  -3 14666.8 792.395   3
   3   1   3 14016.8 710.625   3
   3   1   3 14703.6 822.794   1
   3   1   4 293.317 101.728   2
  -3  -1  -4 360.665 152.879   3
   3   1   4 616.103 176.113   3
   3   1   4 409.029 159.021   1
   3   1   5 69078.4 1932.78   1
   3   1   5 67821.6 2102.14   3
   3   1   5 70927.4 2044.76   2
   3   1   6 25583.5 1388.71   2
   3   1   6 22069.8 1105.92   1
   3   1   7 17743.7 1297.53   2
   3   1   7 18782.2 1042.46   1
   3   1   8 3996.14 574.979   5
   3   1   8 4893.29 732.096   2
   3   1   8 4334.06 508.298   1
   3   1   9 18813.6 1224.35   5
   3   1   9 18832.1 1508.62   2
   3   1   9 19036.1 1069.63   1
   3   1  10 13876.3 1368.63   2
   3   1  10 14105.4 920.957   1
   3   1  10 13954.1 1056.91   5
   3   1  11 15685.5 1506.98   2
   3   1  11 16063.6 1188.84   5
   3   1  12 19134.6 1762.55   2
   3   1  13 1550.79 535.866   2
   3   1  14 4425.51 924.878   2
  -3  -2  13 483.833 113.665   2
  -3  -2  12 25637.9 2836.40   2
  -3  -2  11 204.415 110.402   2
  -3  -2  10 21437.2 2098.50   2
  -3  -2   9 11293.2 1449.68   2
  -3  -2   8 10278.1 1341.94   2
   3   2  -7 8969.65 348.139   1
   3   2  -7 8774.41 371.880   5
  -3  -2   6 226.133 107.059   2
   3   2  -6 152.175 74.6525   1
   3   2  -6 70.1243 9.67041   5
   3   2  -5 8201.23 502.002   1
  -3  -2   5 10282.2 1269.75   2
   3   2  -4 18917.5 808.704   1
  -3  -2   4 15051.1 1734.62   2
  -3  -2   3 469.961 866.942   2
   3   2  -3 648.471 182.818   2
   3   2  -2 69854.7 1894.77   2
  -3  -2   2 49619.6 4131.19   2
  -3  -2   1 32945.9 1227.00   2
   3   2  -1 29785.2 2669.63   2
  -3  -2   0 76332.2 1653.49   4
  -3  -2   0 67404.1 1392.29   3
   3   2   1 54537.7 1329.99   4
  -3  -2  -1 55692.9 1347.18   3
   3   2   1 51759.7 1206.08   3
  -3  -2  -2 271450. 3115.62   3
   3   2   2 271164. 3008.35   3
  -3  -2  -3 84227.6 1980.05   3
   3   2   3 90358.6 2038.21   3
  -3  -2  -4 95800.7 2535.44   3
   3   2   4 93206.9 2351.18   3
  -3  -2  -5 116304. 2895.08   3
   3   2   5 107398. 2766.79   3
   3   2   6 8459.91 783.976   2
   3   2   7 5248.93 650.489   2
   3   2   8 18888.0 1105.28   1
   3   2   8 19079.9 1421.78   2
   3   2   9 47782.4 2466.27   2
   3   2   9 42358.7 1662.12   1
   3   2  10 12441.5 993.187   5
   3   2  10 12777.2 1354.27   2
   3   2  10 11375.3 865.166   1
   3   2  11 17620.9 1222.17   5
   3   2  11 17515.2 1645.94   2
   3   2  12 18141.3 1702.11   2
   3   2  13 1010.01 442.977   2
   3   2  14 4278.83 907.302   2
  -3  -3  12 6274.68 1951.50   2
  -3  -3  11 3335.68 1484.70   2
  -3  -3  10 13827.1 2495.42   2
  -3  -3   9 1263.13 892.671   2
  -3  -3   8 27952.0 3507.44   2
   3   3  -7 372.403 120.645   1
   3   3  -7 239.442 71.3027   1
  -3  -3   7 213.024 175.045   2
  -3  -3   7 98.0719 87.4213   6
   3   3  -7 249.028 106.484   5
  -3  -3   6 29814.7 4187.72   2
   3   3  -6 33972.9 1263.60   5
   3   3  -6 32519.1 999.650   1
   3   3  -5 66052.9 1908.48   5
  -3  -3   5 40854.4 5775.35   2
  -3  -3   4 30882.8 4975.83   2
  -3  -3   3 786.868 958.591   2
  -3  -3   2 2120.32 391.872   2
   3   3  -2 2076.77 584.411   2
   3   3  -1 20908.3 2659.73   2
  -3  -3   1 29528.8 1174.55   3
  -3  -3   0 58901.6 1293.35   4
  -3  -3   0 57144.4 1466.02   3
   3   3   0 56925.8 1565.10   2
   3   3   1 2512.73 249.216   4
  -3  -3  -1 2929.13 350.841   3
   3   3   1 2452.15 293.751   3
   3   3   2 5037.20 377.432   4
  -3  -3  -2 5153.86 496.328   3
   3   3   2 4274.08 433.157   3
  -3  -3  -3 20167.2 1029.39   3
   3   3   3 22635.9 1129.06   3
  -3  -3  -4 769.585 226.001   3
   3   3   4 715.337 207.966   3
  -3  -3  -5 8196.78 839.078   3
  -3  -3  -6 2635.39 481.676   3
   3   3   7 27665.4 1569.52   2
   3   3   8 21579.1 1494.97   2
   3   3   9 18572.7 1521.52   2
  -3  -3  -9 17119.2 1062.55   6
   3   3  10 7559.34 1044.43   2
   3   3  11 980.768 341.563   2
   3   3  12 7513.10 1149.92   2
   3   3  13 8759.27 1296.96   2
   3   3  14 15038.1 1755.67   2
  -3  -4  12 26092.4 7543.03   2
  -3  -4  11 1612.04 1484.85   2
  -3  -4  10 11839.1 4826.15   2
  -3  -4   9-1627.32 2821.09   2
  -3  -4   8 18615.9 6639.26   2
   3   4  -8 16791.1 580.802   1
   3   4  -7 8594.03 701.015   5
   3   4  -7 8685.96 617.985   1
   3   4  -6 12960.4 920.563   5
  -3  -4   6 7479.62 2839.08   2
  -3  -4   5 5810.02 1595.30   2
   3   4  -5 11451.6 891.687   5
  -3  -4   4 5865.33 1075.89   2
  -3  -4   3 14494.0 1165.10   2
  -3  -4   2 22686.7 1223.59   3
  -3  -4   1 6959.01 588.960   3
  -3  -4   0 17694.7 922.053   3
  -3  -4   0 18493.8 605.411   4
  -3  -4  -1 8479.79 697.479   3
   3   4   2 70069.5 1213.43   4
  -3  -4  -2 77898.1 2184.18   3
  -3  -4  -3 5991.73 600.155   3
  -3  -4  -4 34505.6 1594.15   3
  -3  -4  -5 48238.6 2075.49   3
  -3  -4  -6 63108.4 2601.17   3
  -3  -4  -7 33408.6 1980.62   3
   3   4   8 118.549 6.81749   2
   3   4   9 13159.1 1337.25   2
   3   4  10 4749.50 806.362   2
   3   4  11 13085.0 1477.44   2
   3   4  12 3109.56 689.847   2
   3   4  13 15023.0 1769.83   2
   3   4  14 16517.1 1898.81   2
  -3  -5  12-344.343 3132.87   2
  -3  -5  11 12727.8 5885.27   2
  -3  -5  10 10514.2 4594.93   2
  -3  -5   9 1561.34 1941.41   2
  -3  -5   8 31313.1 5875.03   2
  -3  -5   7 4494.80 2010.06   2
   3   5  -6 25322.4 1406.75   1
  -3  -5   6 32995.8 3158.54   2
  -3  -5   5 488.589 210.298   2
  -3  -5   4 71642.7 2663.60   2
  -3  -5   3 35290.8 1735.52   3
  -3  -5   3 26339.7 1328.30   2
  -3  -5   2 81385.5 2348.59   3
  -3  -5   1 20231.6 1087.28   3
  -3  -5   0 6084.58 257.864   4
  -3  -5   0 6188.15 613.596   3
  -3  -5  -1 263.001 130.021   3
  -3  -5  -2 62642.3 2151.48   3
  -3  -5  -3 8003.17 782.426   3
  -3  -5  -4 4238.12 604.630   3
  -3  -5  -5 20219.2 1409.71   3
  -3  -5  -6 5282.53 766.702   3
  -3  -5  -7 14456.3 1297.09   3
  -3  -5  -8 237.994 246.815   3
   3   5   9 24363.1 1954.65   2
   3   5  10 7939.80 1181.34   2
   3   5  11 21690.8 2037.27   2
   3   5  12 6533.66 1204.37   2
   3   5  13 2124.58 752.475   2
   3   5  14 5172.59 1180.55   2
  -3  -6  11 13381.9 2968.26   2
  -3  -6  10 63331.5 6275.73   2
  -3  -6   9 1760.59 744.190   2
  -3  -6   8 32451.1 3206.28   2
  -3  -6   7 551.768 382.913   2
  -3  -6   6 11610.9 1320.98   2
  -3  -6   5 3111.39 553.155   2
  -3  -6   4 55343.2 2302.92   3
  -3  -6   3 2389.41 414.575   3
  -3  -6   2 32734.6 1579.65   3
  -3  -6   1 11523.1 921.438   3
  -3  -6   0 15841.8 1086.05   3
  -3  -6  -1 35499.3 1683.00   3
  -3  -6  -2 30612.1 1650.82   3
  -3  -6  -3 9597.87 942.377   3
  -3  -6  -4 67704.8 2619.40   3
  -3  -6  -5 8152.84 921.303   3
  -3  -6  -6 17916.0 1459.83   3
  -3  -6  -7 28434.0 1904.47   3
  -3  -6  -8 28961.3 2020.08   3
   3   6   9 21035.6 2053.61   2
  -3  -6  -9 11844.8 1337.89   3
   3   6  10 520.516 485.469   2
   3   6  11 23280.2 2344.80   2
   3   6  12 716.990 489.456   2
   3   6  13 5789.96 1235.22   2
  -3  -7  11 21889.0 2750.23   2
  -3  -7  10 5546.29 1239.70   2
  -3  -7   9 3423.46 984.249   2
  -3  -7   8 7362.44 1144.86   2
  -3  -7   7 3650.95 677.987   2
  -3  -7   6 38185.5 2227.73   3
  -3  -7   6 26535.7 1712.33   2
  -3  -7   5 7176.75 903.021   3
  -3  -7   4 10216.1 1014.39   3
  -3  -7   3 6037.48 752.636   3
  -3  -7   2 75001.1 2552.27   3
  -3  -7   1 18798.6 1267.17   3
  -3  -7   0 39591.5 1856.82   3
  -3  -7  -1 50645.9 2163.46   3
  -3  -7  -2 20952.8 1450.81   3
  -3  -7  -3 1784.34 399.484   3
  -3  -7  -4 13540.9 1239.14   3
  -3  -7  -5 2342.40 514.292   3
  -3  -7  -6 4417.91 764.466   3
  -3  -7  -7 281.559 222.777   3
  -3  -7  -8 1005.94 405.945   3
  -3  -7  -9 17944.6 1698.80   3
   3   7  10 659.252 394.748   2
   3   7  11 8351.02 1571.65   2
   3   7  12 1381.31 633.530   2
   3   7  13 22019.5 2861.70   2
  -3  -8  10 3946.02 880.484   2
  -3  -8   9 15280.6 1574.88   2
  -3  -8   8 59977.5 3106.53   3
  -3  -8   8 40251.4 2386.13   2
  -3  -8   7 4415.37 745.268   3
  -3  -8   6 44007.5 2326.76   3
  -3  -8   5 1247.59 376.852   3
  -3  -8   4 4879.09 710.330   3
  -3  -8   3 4955.23 706.636   3
  -3  -8   2 77924.5 2840.64   3
  -3  -8   1 279.618 174.723   3
  -3  -8   0 8572.84 894.780   3
  -3  -8  -1 406.214 212.499   3
  -3  -8  -2 14150.0 1256.01   3
  -3  -8  -3 31388.7 1952.33   3
   3   8   4 3949.51 249.591   4
  -3  -8  -4 4360.90 723.853   3
  -3  -8  -5 1422.29 436.330   3
  -3  -8  -6 52153.9 2825.04   3
  -3  -8  -7 12772.7 1433.21   3
  -3  -8  -8 7579.55 1126.72   3
  -3  -8  -9 7627.88 1141.09   3
   3   8  10 15778.8 2222.48   2
  -3  -8 -10 8812.08 1280.13   3
   3   8  11 17978.6 2410.43   2
   3   8  12 946.154 469.840   2
  -3  -9   9 30905.8 2304.29   3
  -3  -9   8 3019.19 663.923   3
  -3  -9   7 478.359 251.612   3
  -3  -9   6 13724.0 1311.25   3
  -3  -9   5 3267.38 637.550   3
  -3  -9   4 25106.3 1748.64   3
  -3  -9   3 5588.51 800.471   3
  -3  -9   2 17414.5 1449.31   3
  -3  -9   1 12281.1 1238.40   3
  -3  -9   0 52304.9 2489.03   3
  -3  -9  -1 5708.20 823.759   3
  -3  -9  -2 32809.5 2056.94   3
  -3  -9  -3 31409.1 2054.62   3
  -3  -9  -4 24998.7 1900.17   3
  -3  -9  -5 3764.76 759.759   3
  -3  -9  -6 9460.88 1276.20   3
  -3  -9  -7-243.078 303.166   3
  -3  -9  -8 820.973 270.624   3
  -3  -9  -9 750.329 386.245   3
  -3  -9 -10 94.7573 25.5346   3
   3   9  11 9313.00 1798.11   2
  -3 -10   8 3626.79 772.675   3
  -3 -10   7 13057.6 1411.50   3
  -3 -10   6 23518.1 1826.89   3
  -3 -10   5 4167.35 775.713   3
  -3 -10   4 31944.9 2110.38   3
  -3 -10   3 1389.79 388.870   3
  -3 -10   2 1722.94 427.623   3
  -3 -10   1 47.1976 40.2892   3
  -3 -10   0 27469.1 1932.55   3
  -3 -10  -1 2364.64 557.878   3
  -3 -10  -2-110.651 229.036   3
  -3 -10  -3 92.4168 173.106   3
  -3 -10  -4 15062.1 1522.32   3
  -3 -10  -5 5783.01 1039.73   3
  -3 -10  -6-227.331 267.976   3
  -3 -10  -7 1448.57 511.665   3
  -3 -10  -8 20012.4 2001.34   3
  -3 -10  -9 5130.93 1054.41   3
  -3 -10 -10 3708.08 891.274   3
  -3 -11   7 18487.4 1765.45   3
  -3 -11   6 466.690 320.946   3
  -3 -11   5 2327.86 594.395   3
  -3 -11   4 14401.4 1517.53   3
  -3 -11   3 201.951 79.8868   3
  -3 -11   2 17650.1 1670.82   3
  -3 -11   1 1595.80 493.167   3
  -3 -11   0 11035.8 1270.97   3
  -3 -11  -1 17219.6 1625.05   3
  -3 -11  -2 31600.9 2247.42   3
  -3 -11  -3 3915.93 786.128   3
  -3 -11  -4 15607.6 1630.97   3
  -3 -11  -5 14054.5 1636.39   3
  -3 -11  -6 21002.1 2093.19   3
  -3 -11  -7 2180.12 673.216   3
  -3 -11  -8 6747.76 1244.85   3
  -3 -11  -9 512.680 295.742   3
  -3 -12   5 12592.2 1545.09   3
  -3 -12   4 12335.8 1492.26   3
  -3 -12   3 6331.46 1033.85   3
  -3 -12   2 23463.5 2053.63   3
  -3 -12   1 772.505 342.298   3
  -3 -12   0 1666.49 540.912   3
  -3 -12  -1 268.602 185.657   3
  -3 -12  -2 5378.75 955.679   3
  -3 -12  -3 1516.91 537.275   3
  -3 -12  -4 16.3329 149.955   3
  -3 -12  -5 525.898 345.760   3
  -3 -12  -6 7218.37 1284.55   3
  -3 -12  -7-48.9852 282.328   3
  -3 -13   2 7935.86 1263.81   3
  -3 -13   1 1436.81 517.536   3
  -3 -13   0 12527.8 1560.89   3
  -3 -13  -1 2613.95 728.382   3
  -3 -13  -2 4951.71 1006.54   3
  -3 -13  -3 7390.30 1216.30   3
  -3 -13  -4 18537.9 1998.69   3
  -4  11   0 281.634 327.707   6
  -4  11  -1 2825.73 959.506   6
  -4  11  -2 1071.87 562.497   6
  -4  10   4 5208.04 1301.23   6
  -4  10   3 24327.9 2676.88   6
  -4  10   2 11792.4 1792.56   6
  -4  10   1 54588.7 3952.08   6
  -4  10   0 13036.4 1884.03   6
  -4  10  -1 4098.93 1049.61   6
   4 -10   1 5284.89 1018.66   5
   4 -10   1 5683.23 1142.42   1
   4 -10   2 2605.66 699.076   5
  -4  10  -2 3298.29 906.641   6
   4 -10   2 2431.71 761.856   1
   4 -10   3 24795.3 2368.34   5
  -4  10  -3 28557.4 2878.56   6
   4 -10   3 25798.2 2457.40   1
   4 -10   4 6957.34 1307.67   5
  -4  10  -4 7398.99 1439.57   6
   4 -10   4 6959.39 1258.54   1
   4 -10   5 8119.99 1399.19   5
  -4  10  -5 7433.34 1412.74   6
   4 -10   5 7592.27 1299.85   1
   4 -10   6 169.677 52.2883   5
  -4  10  -6 747.955 489.571   6
  -4   9   6 359.876 247.671   4
  -4   9   6 663.011 542.699   6
  -4   9   5-103.209 163.363   2
  -4   9   5 119.275 297.205   6
  -4   9   5-1.24307 102.375   4
  -4   9   4 862.729 407.255   4
  -4   9   4 484.629 343.106   6
  -4   9   4 129.026 140.937   2
  -4   9   3 1368.01 422.748   4
  -4   9   3 1121.60 541.345   6
   4  -9  -2 2016.38 481.057   3
  -4   9   2 2160.96 679.374   6
   4  -9  -2 1812.68 624.181   1
   4  -9  -1 495.220 340.251   1
   4  -9  -1 476.409 239.161   3
  -4   9   1-34.8127 100.298   6
   4  -9  -1 490.769 328.747   5
   4  -9   0 7247.04 1199.76   1
   4  -9   0 7282.76 1143.84   5
  -4   9   0 7721.38 1371.38   6
   4  -9   1 513.184 284.010   5
  -4   9  -1 271.730 238.244   6
   4  -9   1 2.22499 176.570   1
   4  -9   2 340.100 327.604   5
   4  -9   2 233.370 126.188   1
  -4   9  -2 256.124 313.309   6
   4  -9   3 1016.68 374.938   1
   4  -9   3 2116.43 684.854   5
  -4   9  -3 1231.70 561.769   6
   4  -9   4 4861.16 1011.46   5
   4  -9   4 4216.96 956.154   1
  -4   9  -4 3411.48 862.147   6
   4  -9   5 2784.65 719.525   1
   4  -9   5 3504.67 887.057   5
  -4   9  -5 2941.81 850.400   6
   4  -9   6 971.111 492.829   1
   4  -9   6 2089.98 666.770   5
  -4   9  -6 1390.04 597.577   6
   4  -9   7 3508.63 854.549   5
   4  -9   7 3595.34 850.633   1
  -4   9  -7 3241.21 930.778   6
   4  -9   8 2924.75 789.437   5
  -4   9  -8 3965.08 1010.46   6
   4  -9   8 2342.75 691.280   1
  -4   8   8-107.659 199.345   4
  -4   8   8-281.913 293.628   2
  -4   8   7 3421.16 816.365   4
  -4   8   7 2968.05 682.427   2
  -4   8   7 5028.63 1135.45   6
  -4   8   6 356.674 344.465   4
  -4   8   6 286.855 215.954   2
  -4   8   6 622.325 418.849   6
  -4   8   5 12069.6 1398.54   4
  -4   8   5 9907.43 1084.27   2
  -4   8   4 11194.9 1331.10   4
  -4   8   4 8758.03 968.115   2
  -4   8   4 13277.8 1833.28   6
   4  -8  -4 10762.7 1379.08   1
  -4   8   3 33451.4 2281.29   4
   4  -8  -3 33945.0 2436.05   1
  -4   8   2 19855.0 1756.96   4
   4  -8  -2 19409.9 1468.77   3
   4  -8  -2 21154.2 1752.67   5
   4  -8  -2 20785.8 1923.96   1
   4  -8  -1 42520.6 2114.43   3
   4  -8  -1 42137.4 2499.83   5
   4  -8  -1 44972.0 2831.03   1
   4  -8   0 22211.9 1499.26   3
   4  -8   0 23006.6 1866.98   5
   4  -8   0 24408.9 2075.25   1
   4  -8   1 75834.3 2677.67   3
   4  -8   1 79187.6 3544.58   5
   4  -8   1 83079.5 3873.14   1
   4  -8   2 29650.4 1581.52   3
   4  -8   2 27014.5 2129.74   5
   4  -8   2 32577.2 2424.90   1
   4  -8   3 6139.00 1069.88   1
   4  -8   3 7618.09 760.778   3
   4  -8   3 7400.48 1131.95   5
   4  -8   4 8896.03 822.347   3
   4  -8   4 9114.34 1289.12   5
   4  -8   4 7820.38 1181.18   1
   4  -8   5 24696.7 1421.41   3
   4  -8   5 26998.6 2204.66   1
   4  -8   5 28520.7 2288.89   5
  -4   8  -6 9215.26 1490.03   6
   4  -8   6 6855.09 1134.34   5
   4  -8   6 7094.84 1113.61   1
   4  -8   7 5035.17 962.852   1
   4  -8   7 4961.30 983.976   5
  -4   8  -7 4210.71 952.959   6
   4  -8   8 1868.84 556.867   1
   4  -8   8 1711.09 558.833   5
  -4   8  -8 2154.15 684.981   6
   4  -8   9 5569.07 1044.51   1
   4  -8   9 5261.25 1064.35   5
  -4   8  -9 6398.70 1233.29   6
   4  -8  10 622.355 336.247   5
  -4   8 -10 1223.68 475.088   6
  -4   7   9 539.478 197.842   4
  -4   7   9 655.011 382.439   2
  -4   7   8-170.050 363.603   4
  -4   7   8 946.073 379.719   2
  -4   7   7 97.8605 270.375   4
  -4   7   7 263.211 209.952   2
  -4   7   7 690.678 455.140   6
  -4   7   6 1690.96 522.816   4
  -4   7   6 1275.94 399.068   2
  -4   7   5 435.813 228.590   2
   4  -7  -5 424.206 269.035   1
  -4   7   5 834.358 429.980   4
   4  -7  -4 46.5421 122.063   1
  -4   7   4 295.576 191.121   4
  -4   7   4-44.0960 86.5555   2
   4  -7  -3 251.372 148.053   5
  -4   7   3 276.399 280.519   4
   4  -7  -3 703.409 345.622   1
   4  -7  -2 228.256 256.929   5
   4  -7  -2 30.7295 61.6576   1
   4  -7  -2 177.197 172.141   3
  -4   7   2 284.991 266.085   4
  -4   7   1-91.9703 83.5206   4
   4  -7  -1 69.1318 270.417   1
   4  -7  -1 16.2938 52.6239   3
   4  -7  -1 89.9507 76.6589   5
   4  -7   0 975.205 343.253   1
   4  -7   0 1278.26 413.742   5
   4  -7   0 847.707 266.868   3
   4  -7   1 689.340 321.883   5
   4  -7   1 508.521 350.030   1
   4  -7   1 305.733 198.195   3
   4  -7   2 10444.8 858.883   3
   4  -7   2 11868.1 1295.06   5
   4  -7   2 11336.6 1346.58   1
   4  -7   3 628.801 300.987   5
   4  -7   3 745.380 381.693   1
   4  -7   3 638.247 225.102   3
   4  -7   4 2777.57 658.285   5
   4  -7   4 4088.02 806.626   1
   4  -7   4 3942.80 501.656   3
   4  -7   5-175.530 275.091   5
   4  -7   5-126.876 197.254   1
   4  -7   5 181.417 130.748   3
   4  -7   6 5451.50 918.442   1
   4  -7   6 5933.32 947.010   5
   4  -7   6 5753.70 631.808   3
   4  -7   7 1430.61 448.019   1
   4  -7   7 1240.94 468.125   5
   4  -7   7 1144.63 282.298   3
   4  -7   8 11390.0 951.223   3
  -4   7  -8 14022.1 1689.62   6
   4  -7   8 10215.0 1354.19   5
   4  -7   8 11335.1 1359.21   1
   4  -7   9 2182.65 659.549   5
   4  -7   9 3223.04 772.318   1
  -4   7  -9 3347.78 872.841   6
   4  -7  10 2758.09 706.912   5
  -4   7 -10 3637.23 839.167   6
   4  -7  11 1372.79 582.437   5
   4  -7  11 1591.30 424.864   2
  -4   6  10 309.203 246.111   2
  -4   6   9 3336.35 805.998   2
  -4   6   8 1657.28 597.440   4
  -4   6   8 1927.14 561.572   2
  -4   6   7 229.721 127.297   4
  -4   6   7 151.146 220.698   2
  -4   6   7 197.164 238.945   6
  -4   6   6 513.085 346.441   4
  -4   6   6 148.042 55.1746   2
   4  -6  -6 337.955 224.227   1
  -4   6   5 11598.1 1380.64   4
  -4   6   5 10673.4 1140.98   2
   4  -6  -5 12306.1 1291.72   1
   4  -6  -4 4967.65 828.937   1
  -4   6   4 4081.05 656.649   2
  -4   6   4 5500.09 909.335   4
   4  -6  -4 5008.39 695.938   5
  -4   6   3 26125.7 1497.25   2
  -4   6   3 29836.2 2032.98   4
   4  -6  -3 30186.1 1783.16   5
   4  -6  -3 29796.6 1995.18   1
   4  -6  -2 2789.94 523.977   5
  -4   6   2 3517.61 640.504   4
   4  -6  -2 4198.97 751.964   1
   4  -6  -1 33764.9 2129.53   1
   4  -6  -1 32030.0 1895.96   5
  -4   6   1 34202.9 1997.11   4
   4  -6  -1 33167.6 1576.90   3
   4  -6   0 43781.5 2431.80   1
   4  -6   0 46743.0 1802.89   3
   4  -6   0 43568.1 2256.59   5
   4  -6   1 130279. 4206.00   1
   4  -6   1 138244. 2917.49   3
   4  -6   1 134443. 4051.71   5
   4  -6   2 34472.8 2112.62   5
   4  -6   2 34857.0 1381.57   3
   4  -6   2 34063.4 2149.21   1
   4  -6   3 74862.1 3189.93   1
   4  -6   3 73074.1 1953.79   3
   4  -6   3 75375.0 3183.32   5
   4  -6   4 33061.1 2127.80   5
   4  -6   4 37346.7 1441.16   3
   4  -6   4 37048.3 2223.71   1
   4  -6   5 23713.8 1767.95   1
   4  -6   5 25351.1 1182.96   3
   4  -6   5 23099.2 1817.97   5
   4  -6   6 18375.3 1536.52   1
   4  -6   6 19992.8 1064.34   3
   4  -6   6 20028.6 1678.68   5
   4  -6   7 25669.0 1868.04   1
   4  -6   7 24190.4 1224.36   3
   4  -6   7 27623.9 2036.44   5
   4  -6   8 6645.59 960.166   1
   4  -6   8 5915.00 953.737   5
   4  -6   8 5918.58 664.146   3
   4  -6   9 5360.06 900.362   1
   4  -6   9 5285.75 942.832   5
   4  -6   9 3933.11 643.325   2
   4  -6   9 4680.40 716.482   3
   4  -6  10 2528.97 598.244   1
   4  -6  10 2746.21 629.244   2
   4  -6  10 2781.60 731.959   5
  -4   6 -10 2841.31 727.940   6
   4  -6  11 468.745 226.211   5
   4  -6  11 1096.40 491.525   2
   4  -6  12 494.167 331.324   5
   4  -6  12 52.6233 205.813   2
  -4   5  10 8527.90 1290.08   2
  -4   5   9 1911.60 560.263   2
  -4   5   8 118.908 135.971   2
  -4   5   8 443.445 270.159   6
  -4   5   7 310.137 378.417   2
   4  -5  -6 332.444 149.773   1
  -4   5   6 129.977 205.154   4
  -4   5   6 435.880 319.610   2
   4  -5  -5 2491.40 552.639   1
  -4   5   5 2826.51 696.909   4
   4  -5  -5 3000.84 511.974   5
  -4   5   5 2907.94 625.322   2
   4  -5  -4 954.395 276.907   5
   4  -5  -4 1266.86 354.296   1
  -4   5   4 803.872 298.742   4
  -4   5   4 843.023 262.730   2
  -4   5   3 792.349 338.351   4
   4  -5  -3 834.219 308.243   1
   4  -5  -3 951.542 320.743   5
  -4   5   3 841.076 250.946   2
   4  -5  -2 8353.81 969.229   1
  -4   5   2 7365.70 942.779   4
  -4   5   2 7262.65 693.884   2
   4  -5  -2 8515.33 868.385   5
  -4   5   1 1427.78 404.500   4
   4  -5  -1 1371.15 420.067   1
   4  -5  -1 1076.75 315.755   5
  -4   5   1 1189.81 252.323   3
   4  -5   0 68.6671 152.060   5
  -4   5   0 50.1298 166.680   4
   4  -5   0-118.116 183.788   1
   4  -5   0 65.2539 31.5101   3
  -4   5   0 36.9993 56.6738   3
   4  -5   1 9265.56 674.380   3
  -4   5  -1 10838.0 671.285   3
   4  -5   1 9663.87 1062.60   1
   4  -5   1 9731.47 1007.26   5
  -4   5  -1 8117.36 639.672   2
   4  -5   2 3358.60 599.860   5
   4  -5   2 2341.49 527.121   1
   4  -5   2 1729.86 259.165   3
  -4   5  -2 1989.64 1083.75   2
   4  -5   3 1443.97 400.712   5
  -4   5  -3 1128.28 341.600   2
   4  -5   3 1172.64 369.162   1
   4  -5   3 1120.20 199.351   3
   4  -5   4 3967.72 705.021   5
   4  -5   4 5390.97 475.103   3
   4  -5   4 5302.71 764.720   1
  -4   5  -4 4986.69 497.679   2
   4  -5   5 815.093 346.319   5
   4  -5   5 913.059 372.582   1
   4  -5   5 525.799 155.246   3
   4  -5   6 9979.19 1067.69   1
   4  -5   6 9342.22 687.357   3
   4  -5   6 9696.33 1120.13   5
   4  -5   7 1181.57 294.446   2
   4  -5   7 1560.89 405.105   1
   4  -5   7 1465.63 440.726   5
   4  -5   7 1566.94 334.021   3
   4  -5   8 10889.0 1147.58   1
   4  -5   8 9388.81 1145.95   5
   4  -5   8 13322.3 1299.52   2
   4  -5   9 519.096 271.212   5
   4  -5   9 737.376 515.140   2
   4  -5   9 512.010 258.725   1
   4  -5  10 12055.6 1268.22   1
   4  -5  10 11918.6 2076.10   2
   4  -5  10 10810.3 1312.98   5
   4  -5  11 1378.63 428.695   5
   4  -5  11 2180.66 995.208   2
   4  -5  12-1274.46 1539.33   2
   4  -5  12 253.183 37.7286   5
  -4   4  11 15337.2 1762.78   2
  -4   4  10 10740.9 1390.29   2
  -4   4   9 16572.9 1672.79   2
  -4   4   8 21.1840 56.3231   2
  -4   4   7 11861.8 1314.39   2
   4  -4  -7 10247.6 1029.67   1
   4  -4  -6 509.798 213.633   1
  -4   4   6 297.525 169.066   2
   4  -4  -5 4552.16 668.962   1
  -4   4   5 3680.96 740.922   4
  -4   4   5 5217.10 738.523   2
   4  -4  -5 4615.16 557.236   5
  -4   4   4 755.871 384.442   4
   4  -4  -4 524.364 225.998   1
   4  -4  -4 633.440 183.603   5
  -4   4   4 409.661 159.797   2
   4  -4  -3 11750.0 1040.69   1
  -4   4   3 12305.5 1235.14   4
  -4   4   3 11426.0 930.672   2
   4  -4  -3 11072.1 897.550   5
  -4   4   2 18747.6 1474.40   4
  -4   4   2 21084.1 1144.26   2
   4  -4  -2 18559.2 1320.88   1
  -4   4   2 18468.0 1084.39   3
   4  -4  -2 18896.5 1188.96   5
   4  -4  -1 44688.2 2077.73   1
  -4   4   1 43171.0 2097.80   4
  -4   4   1 47558.9 1546.71   3
   4  -4  -1 46651.0 1934.18   5
   4  -4   0 11477.4 1066.10   1
  -4   4   0 11203.7 1020.80   4
  -4   4   0 11795.8 602.385   3
   4  -4   0 11750.8 1007.54   5
   4  -4   1 16572.1 1264.55   1
   4  -4   1 16582.4 1227.02   5
   4  -4   1 15315.6 713.462   3
  -4   4  -1 17255.3 668.448   3
  -4   4  -1 16232.0 734.417   2
   4  -4   2 46085.7 1140.34   3
   4  -4   2 49563.2 2190.45   5
   4  -4   2 45535.1 2117.29   1
  -4   4  -3 185959. 2534.69   2
   4  -4   3 184321. 4290.33   1
   4  -4   3 187978. 2242.79   3
   4  -4   3 182420. 4265.99   5
   4  -4   4 82686.2 2853.89   1
   4  -4   4 83055.8 1537.78   3
  -4   4  -4 78064.9 1745.21   2
   4  -4   4 81231.2 2897.17   5
  -4   4  -5 79124.1 2031.53   2
   4  -4   5 83227.1 2890.57   1
   4  -4   5 85013.1 1744.79   3
   4  -4   5 82471.0 2982.62   5
   4  -4   6 30773.8 1753.29   1
   4  -4   6 29582.2 1825.23   5
   4  -4   7 18999.1 1387.37   1
   4  -4   7 17394.6 1425.82   5
   4  -4   7 21389.4 1968.78   2
   4  -4   8 35220.8 1929.23   1
   4  -4   8 30878.6 4363.09   2
   4  -4   8 36215.7 2143.78   5
   4  -4   9 30970.2 1855.89   1
   4  -4   9 28582.0 1948.47   5
   4  -4  10 7992.67 984.989   1
   4  -4  10 6429.45 3700.05   2
   4  -4  10 7242.26 1015.85   5
   4  -4  11 651.226 1345.05   2
   4  -4  11 1324.20 467.212   5
   4  -4  12 1113.89 354.433   5
   4  -4  12-1575.24 2416.65   2
   4  -4  13 1825.23 3377.74   2
  -4   3  11 3019.29 698.327   2
  -4   3  10 5745.49 943.689   2
  -4   3   9 4134.58 819.979   2
  -4   3   8 8603.24 1114.49   2
  -4   3   7 7641.82 965.665   2
   4  -3  -7 6788.27 763.733   1
   4  -3  -6 7587.35 787.848   1
  -4   3   6 7280.57 905.752   2
   4  -3  -5 162.128 42.3885   5
   4  -3  -5 126.317 64.9803   1
  -4   3   5 201.090 166.457   2
   4  -3  -4 5933.68 687.857   1
  -4   3   4 6108.50 918.388   4
  -4   3   4 6369.15 725.842   2
   4  -3  -4 5629.08 560.014   5
   4  -3  -3 1209.98 269.853   5
  -4   3   3 1013.72 313.481   4
   4  -3  -3 1152.16 308.699   1
  -4   3   3 1175.29 267.798   2
  -4   3   2 3741.54 455.263   2
  -4   3   2 3566.81 581.489   4
  -4   3   2 3297.30 416.541   3
   4  -3  -2 3230.33 516.481   1
   4  -3  -2 3246.09 456.997   5
   4  -3  -1 127.373 94.0981   5
  -4   3   1-42.5786 161.032   4
   4  -3  -1 158.607 135.006   1
  -4   3   1 5.37867 60.9193   3
  -4   3   1 53.5508 105.712   2
  -4   3   0 17524.3 1240.94   4
   4  -3   0 16810.2 1179.75   1
   4  -3   0 18154.2 1146.90   5
  -4   3   0 17255.5 701.856   2
  -4   3   0 17023.9 650.707   3
   4  -3   1 7083.29 748.612   1
  -4   3  -1 7775.28 334.466   3
   4  -3   1 7065.65 739.002   5
  -4   3  -1 8262.00 433.498   2
   4  -3   2 548.695 253.964   5
  -4   3  -2 468.622 101.977   2
   4  -3   2 402.339 153.054   1
  -4   3  -3 29209.0 823.641   2
   4  -3   3 30646.3 1622.26   1
   4  -3   3 30827.2 1633.04   5
   4  -3   3 30283.7 684.089   3
   4  -3   4 294.043 203.687   5
   4  -3   4 369.371 171.796   1
  -4   3  -4 289.675 102.402   2
   4  -3   4 171.801 68.7587   3
   4  -3   5 3471.97 561.920   5
  -4   3  -5 4261.18 480.311   2
   4  -3   5 3696.79 581.131   1
   4  -3   5 5237.28 635.442   2
   4  -3   6 0.70102 186.593   5
  -4   3  -6 184.222 66.8630   2
   4  -3   6 230.770 170.126   1
   4  -3   7 224.625 86.2699   5
   4  -3   7 497.252 208.479   1
   4  -3   8 14068.1 1139.04   1
   4  -3   8 11972.4 2157.64   2
   4  -3   8 13614.1 1234.83   5
   4  -3   9 5298.57 722.401   1
   4  -3   9 5598.56 812.586   5
   4  -3   9 4178.85 1093.54   2
   4  -3  10 11492.5 1223.00   5
   4  -3  10 9930.45 1717.85   2
   4  -3  10 10417.9 1044.87   1
   4  -3  11 149.587 72.4646   5
   4  -3  11 1109.55 477.730   2
   4  -3  12 3567.43 727.215   5
   4  -3  12 2876.48 934.785   2
   4  -3  13 1298.38 695.230   2
  -4   2  12 6404.95 1160.77   2
  -4   2  11 13540.2 1550.52   2
  -4   2  10 3481.72 745.051   2
  -4   2   9 9017.65 1116.83   2
  -4   2   8 25224.5 1748.11   2
   4  -2  -8 25138.3 1363.46   1
  -4   2   7 29109.8 1785.08   2
   4  -2  -7 33950.6 1555.26   1
  -4   2   6 6940.82 825.210   2
   4  -2  -6 8208.91 540.573   5
   4  -2  -6 7479.73 722.803   1
   4  -2  -5 10620.1 846.351   1
  -4   2   5 10807.6 950.439   2
   4  -2  -5 11074.8 681.115   5
   4  -2  -4 46.2146 66.4215   5
   4  -2  -4 238.220 139.966   1
  -4   2   4 9.51918 91.2235   2
  -4   2   3 8900.02 706.674   2
   4  -2  -3 9201.28 785.638   1
  -4   2   3 8014.64 933.446   4
   4  -2  -3 8647.64 654.831   5
   4  -2  -2-42.8290 62.3958   5
  -4   2   2 94.7494 172.671   4
  -4   2   2 32.2252 46.2043   3
  -4   2   2-4.72217 31.9140   2
   4  -2  -2-54.2981 46.8802   1
  -4   2   1 14741.2 681.227   2
  -4   2   1 14474.6 1147.15   4
   4  -2  -1 14980.0 920.506   5
   4  -2  -1 13819.5 982.117   1
  -4   2   1 13833.3 692.125   3
  -4   2   0 43057.1 902.008   2
   4  -2   0 42302.2 1639.82   5
   4  -2   0 41458.8 1712.24   1
  -4   2   0 42970.8 1000.79   3
  -4   2   0 38590.1 1763.97   4
   4  -2   1 70550.5 2168.36   5
  -4   2  -1 66746.6 2339.74   4
   4  -2   1 66111.9 2173.56   1
   4  -2   2 22003.1 1247.97   5
   4  -2   2 20907.9 1232.77   1
   4  -2   3 14975.4 1064.00   5
  -4   2  -3 15239.5 532.294   2
   4  -2   3 15608.9 1072.74   1
  -4   2  -4 47964.3 1245.83   2
   4  -2   4 45662.9 1111.60   3
   4  -2   4 46177.6 1842.77   1
   4  -2   4 44756.4 1875.89   5
  -4   2  -5 119334. 2326.22   2
   4  -2   5 111874. 2909.36   1
   4  -2   5 111136. 3058.84   5
   4  -2   5 109738. 4467.51   2
  -4   2  -6 91626.0 2393.03   2
   4  -2   6 87222.4 2600.18   1
   4  -2   6 89011.1 2808.74   5
   4  -2   7 124725. 3462.79   5
   4  -2   7 125934. 3174.65   1
   4  -2   8 46535.3 2001.51   2
   4  -2   8 45577.2 2157.12   5
   4  -2   8 44184.3 1923.49   1
   4  -2   9 2215.47 504.258   5
   4  -2   9 2277.01 482.078   2
   4  -2   9 2189.68 430.742   1
   4  -2  10 38340.1 1865.37   1
   4  -2  10 37065.4 2090.83   2
   4  -2  10 38134.6 2137.90   5
   4  -2  11 19083.8 1650.42   2
   4  -2  11 20049.0 1615.02   5
   4  -2  12 21264.5 1918.39   2
   4  -2  12 22191.4 1768.23   5
   4  -2  13 764.945 503.576   2
   4  -2  14 2138.50 912.982   2
  -4   1  12 8840.40 1341.67   2
  -4   1  11 6446.96 1030.43   2
  -4   1  10 46222.2 2674.04   2
  -4   1   9 13500.8 1340.24   2
   4  -1  -8 3163.31 411.862   1
  -4   1   8 2517.61 501.585   2
  -4   1   7 7152.06 867.135   2
   4  -1  -7 8118.95 685.330   1
   4  -1  -6 6481.64 601.698   1
  -4   1   6 6438.91 762.360   2
   4  -1  -6 6317.65 378.844   5
  -4   1   6 6127.26 622.043   1
  -4   1   5 13209.5 997.440   2
   4  -1  -5 15652.1 926.550   1
   4  -1  -5 15055.2 680.818   5
  -4   1   4 4399.24 531.843   2
   4  -1  -4 4137.72 481.002   1
   4  -1  -4 4140.74 386.749   5
  -4   1   3 11781.8 777.874   2
   4  -1  -3 11158.9 775.571   2
   4  -1  -3 13237.8 879.114   1
   4  -1  -3 11562.4 692.752   5
  -4   1   2 13209.1 700.604   2
  -4   1   2 13291.1 1095.55   4
   4  -1  -2 12650.3 728.329   2
   4  -1  -2 13457.0 880.444   1
   4  -1  -2 12989.5 774.685   5
  -4   1   1 6163.38 717.568   4
   4  -1  -1 6349.80 556.468   5
   4  -1  -1 6265.27 627.857   1
  -4   1   1 6403.62 409.252   2
   4  -1   0 96.4551 85.3562   5
   4  -1   0 298.993 160.067   1
  -4   1   0 142.347 93.9126   4
  -4   1   0 208.406 62.9599   3
  -4   1   0 271.903 102.158   2
   4  -1   1 3513.42 435.534   5
  -4   1  -1 4396.66 554.205   4
   4  -1   1 3699.03 490.288   1
   4  -1   2 1792.09 331.988   5
   4  -1   2 1655.99 320.932   1
   4  -1   3 16561.0 1047.46   5
   4  -1   3 17330.3 1061.51   1
   4  -1   3 15877.4 1165.46   2
   4  -1   4 2492.88 251.215   2
   4  -1   4 2258.01 411.700   5
   4  -1   4 2255.11 263.193   3
   4  -1   4 2409.78 392.228   1
   4  -1   5 11542.7 942.128   5
   4  -1   5 12214.5 770.790   3
   4  -1   5 11039.4 878.246   1
   4  -1   5 11185.4 626.334   2
   4  -1   6 27592.8 1316.68   3
   4  -1   6 24141.4 1044.29   2
   4  -1   6 27832.2 1409.75   1
   4  -1   6 25332.2 1448.29   5
   4  -1   7 3276.39 427.189   2
   4  -1   7 3339.43 502.891   1
   4  -1   7 3950.57 595.215   5
   4  -1   8 190.180 137.026   5
   4  -1   8 159.798 109.215   1
   4  -1   8-57.8763 92.8434   2
   4  -1   9-131.268 86.1347   5
   4  -1   9 279.769 172.347   1
   4  -1   9 152.242 151.530   2
   4  -1  10 18556.6 1384.21   2
   4  -1  10 21241.7 1323.87   1
   4  -1  10 21291.6 1540.39   5
   4  -1  11 4874.72 773.793   5
   4  -1  11 4748.51 784.575   2
   4  -1  12 11997.9 1285.50   2
   4  -1  12 15847.6 1415.02   5
   4  -1  13 572.345 340.479   2
   4  -1  14 3848.63 803.353   2
  -4   0  12 1086.70 509.443   2
  -4   0  11 12725.1 1460.42   2
  -4   0  10 8917.72 1194.30   2
  -4   0   9 51230.6 2640.68   2
   4   0  -8 10631.5 654.400   1
  -4   0   8 9400.23 1045.54   2
  -4   0   7 16979.2 1288.60   2
   4   0  -7 20176.2 935.589   1
  -4   0   6 13004.6 1068.12   2
   4   0  -6 15135.1 829.004   1
   4   0  -6 14695.1 475.106   5
   4   0  -5 30929.2 1207.78   1
   4   0  -5 30816.7 895.191   5
  -4   0   4 37123.6 1440.35   1
  -4   0   4 33402.6 1464.86   2
   4   0  -4 36187.6 1327.65   1
   4   0  -4 35202.6 1099.76   5
   4   0  -3 58261.7 1505.57   5
  -4   0   3 55163.0 1774.78   1
   4   0  -3 58700.1 1854.52   2
   4   0  -3 58357.8 1721.01   1
  -4   0   3 61139.6 1856.57   2
   4   0  -2 363.330 119.726   5
  -4   0   2 411.681 158.183   1
  -4   0   2 533.819 233.748   4
  -4   0   2 352.574 114.181   2
   4   0  -2 312.036 122.468   2
  -4   0   1 846.683 283.804   4
  -4   0   1 333.721 156.064   2
  -4   0   1 629.224 198.706   1
   4   0  -1 810.629 152.807   2
   4   0  -1 858.212 233.614   1
  -4   0   0-8.93452 90.2923   1
  -4   0   0 116.280 149.989   4
  -4   0   0 188.677 61.8769   2
   4   0   0 51.3920 25.2574   2
   4   0   0 59.4348 24.0581   1
   4   0   1 262.508 23.9348   4
  -4   0  -1 302.675 62.8705   3
  -4   0  -2 37841.2 813.675   3
   4   0   2 34632.1 1423.13   1
   4   0   3 168479. 1914.24   2
   4   0   3 169024. 1799.36   3
   4   0   4 31275.1 1081.12   2
   4   0   4 31783.0 1080.93   3
   4   0   4 30520.3 1386.80   1
   4   0   5 17498.7 1186.73   5
   4   0   5 16787.5 888.368   2
   4   0   5 15837.4 936.254   3
   4   0   5 16295.8 1029.00   1
   4   0   6 34347.3 1708.38   5
   4   0   6 33292.7 1402.40   2
   4   0   6 35416.3 1579.82   3
   4   0   6 31538.6 1472.25   1
   4   0   7 87727.0 2772.40   5
   4   0   7 80779.8 2425.46   2
   4   0   7 84154.3 2467.08   1
   4   0   8 58746.4 2264.11   2
   4   0   8 59778.4 2114.04   1
   4   0   8 60066.7 2374.35   5
   4   0   9 133651. 3668.15   2
   4   0   9 138154. 3319.30   1
   4   0   9 143959. 3755.59   5
   4   0  10 29485.6 1836.78   2
   4   0  10 32073.3 1609.22   1
   4   0  10 32338.3 1831.06   5
   4   0  11 6394.65 912.566   2
   4   0  11 7280.11 912.254   5
   4   0  12 16871.8 1579.10   2
   4   0  12 20464.2 1578.46   5
   4   0  13 4409.80 822.452   2
   4   0  14 14930.3 1653.67   2
  -4  -1  12 23518.4 2506.33   2
  -4  -1  11 9124.06 1425.88   2
  -4  -1  10 14867.0 1618.76   2
  -4  -1   9 2139.16 600.787   2
  -4  -1   8 66832.8 3103.66   2
  -4  -1   7 37495.8 2176.40   2
   4   1  -7 34802.0 1098.22   1
   4   1  -6 23105.0 964.736   1
   4   1  -6 22714.2 665.306   5
  -4  -1   5 10758.7 1034.62   2
   4   1  -5 9184.37 631.764   1
  -4  -1   4-10.8204 124.982   2
   4   1  -4 142.851 103.320   1
   4   1  -3 14759.2 913.283   2
  -4  -1   3 11733.2 1205.67   2
   4   1  -3 11959.5 753.481   1
   4   1  -2 6354.27 525.438   2
  -4  -1   2 5020.15 1490.49   2
   4   1  -2 5933.05 545.403   1
   4   1  -1 31674.1 1007.72   2
  -4  -1   1 32426.6 1478.01   4
   4   1  -1 31336.2 1281.87   1
  -4  -1   1 35093.1 1992.02   2
  -4  -1   0 35556.2 1462.94   4
  -4  -1   0 33909.2 951.804   3
   4   1   0 33361.9 1348.60   1
  -4  -1  -1 41621.8 1524.47   4
  -4  -1  -1 42215.5 1035.21   3
   4   1   1 42048.5 1668.58   2
   4   1   1 40299.3 1526.26   4
   4   1   1 38694.7 1478.67   1
   4   1   2 21993.4 1099.15   4
  -4  -1  -2 20369.7 728.255   3
   4   1   2 20023.2 645.589   3
   4   1   2 21333.0 1117.72   1
  -4  -1  -3 20244.2 900.487   3
   4   1   3 18317.8 746.225   3
   4   1   3 17701.7 1048.90   1
   4   1   4 8639.04 574.374   2
  -4  -1  -4 9743.94 663.242   3
   4   1   4 8859.09 627.635   3
   4   1   4 8396.15 734.916   1
   4   1   5 1004.56 249.402   1
   4   1   5 643.255 185.640   3
   4   1   5 968.003 227.026   2
   4   1   6 8940.13 781.313   2
   4   1   6 7271.03 730.960   3
   4   1   6 8203.00 763.272   1
   4   1   7 4501.92 628.085   2
   4   1   7 4906.65 591.911   1
   4   1   8 4716.83 693.892   2
   4   1   8 4368.07 571.220   1
   4   1   9 8967.06 913.785   5
   4   1   9 8783.91 1013.58   2
   4   1   9 8240.23 808.453   1
   4   1  10 6698.08 832.489   5
   4   1  10 6596.21 910.020   2
   4   1  10 7099.44 745.921   1
   4   1  11 131.075 96.0946   1
   4   1  11 230.348 184.875   2
   4   1  11 197.866 181.408   5
   4   1  12 2648.93 549.167   5
   4   1  12 3057.24 704.376   2
   4   1  13 2526.29 676.862   2
   4   1  14 13008.0 1519.06   2
  -4  -2  12 8999.36 2015.18   2
  -4  -2  11 2844.16 1072.55   2
  -4  -2  10 2303.94 861.108   2
  -4  -2   9 10306.3 1681.41   2
  -4  -2   8 21578.9 2367.83   2
   4   2  -7 120469. 1957.34   1
   4   2  -7 113871. 1527.93   5
  -4  -2   6 24034.6 2499.74   2
   4   2  -6 20549.8 902.612   1
  -4  -2   5 40312.4 3488.26   2
   4   2  -5 42725.8 1367.28   1
  -4  -2   4 8756.16 1998.50   2
   4   2  -4 11661.3 726.409   1
  -4  -2   3 13674.2 2952.09   2
   4   2  -3 27644.3 1173.02   1
   4   2  -2 28617.0 1195.79   2
   4   2  -2 28721.8 1241.79   1
  -4  -2   2 28819.8 2350.11   2
  -4  -2   1 128489. 2799.91   4
   4   2  -1 133396. 2716.13   1
  -4  -2   1 129778. 2315.24   2
  -4  -2   0 8417.66 663.834   4
   4   2   0 7088.93 1677.31   2
  -4  -2   0 8118.46 505.572   3
   4   2   1 229.630 89.6382   2
  -4  -2  -1 201.812 69.1729   4
   4   2   1 171.460 85.4488   4
  -4  -2  -1 117.820 81.4496   3
   4   2   2 10072.1 700.245   4
  -4  -2  -2 9306.92 599.421   3
   4   2   2 8819.56 528.671   3
  -4  -2  -3 8294.35 598.154   3
   4   2   3 8788.88 608.060   3
  -4  -2  -4 18630.3 1080.90   3
   4   2   4 16567.9 956.980   3
  -4  -2  -5 71961.3 2304.40   3
   4   2   5 67760.4 2142.20   3
   4   2   6 57198.6 2062.47   1
   4   2   6 50816.2 1839.20   2
  -4  -2  -6 54882.4 2062.75   3
   4   2   7 22437.9 1318.82   1
   4   2   7 21082.6 1313.72   2
   4   2   8 35776.6 1904.61   2
   4   2   8 37335.1 1731.81   1
   4   2   9 14063.2 1302.25   2
   4   2   9 14414.6 1090.62   1
   4   2  10 45399.4 2491.82   2
   4   2  10 45308.6 1908.35   1
   4   2  11 88181.2 2936.34   5
   4   2  11 86930.0 3567.12   2
   4   2  11 85579.3 2561.84   1
   4   2  12 21437.1 1459.94   5
   4   2  12 20451.6 1773.01   2
   4   2  13 7252.15 1116.36   2
   4   2  14 8875.10 1305.58   2
  -4  -3  12 1861.92 1246.12   2
  -4  -3  11 2853.94 1925.33   2
  -4  -3  10 19651.1 4158.20   2
  -4  -3   9 14120.0 3610.42   2
  -4  -3   8 26988.3 5107.11   2
  -4  -3   7 4482.20 2545.14   2
   4   3  -7 2708.86 312.293   1
   4   3  -6 35149.4 1390.35   5
   4   3  -6 34693.8 1190.66   1
  -4  -3   5 19652.7 4773.88   2
   4   3  -5 30438.0 1200.24   1
   4   3  -4 77259.7 1995.76   1
  -4  -3   4 43993.4 5026.06   2
  -4  -3   3 31026.1 2413.47   2
  -4  -3   2 123.320 104.267   2
  -4  -3   1 1393.71 262.157   4
   4   3  -1 1358.75 1308.61   2
  -4  -3   1 900.821 216.345   3
  -4  -3   0 11523.7 702.800   4
  -4  -3   0 10840.5 657.811   3
   4   3   1 27930.7 1073.83   4
  -4  -3  -1 31490.3 1211.60   3
   4   3   1 31292.2 1195.58   3
   4   3   2 2305.74 310.611   4
   4   3   2 1752.76 268.379   3
  -4  -3  -2 2354.24 355.900   3
  -4  -3  -3 10774.5 760.441   3
   4   3   3 11291.4 755.894   3
  -4  -3  -4 33247.5 1457.30   3
  -4  -3  -5 17874.1 1210.50   3
  -4  -3  -6 3046.74 537.828   3
   4   3   7 4369.76 614.326   2
  -4  -3  -7 4983.88 722.889   3
   4   3   8 3506.48 579.930   2
   4   3   9 4652.11 731.316   2
   4   3  10 143.263 92.5236   1
   4   3  10 164.894 19.2439   2
   4   3  11 4210.38 583.981   1
   4   3  11 5532.15 931.055   2
   4   3  12 11472.7 1387.12   2
   4   3  13 830.769 388.742   2
   4   3  14-85.8349 340.559   2
  -4  -4  12-376.394 2075.76   2
  -4  -4  11 1031.68 2990.37   2
  -4  -4  10 14201.0 7642.99   2
  -4  -4   9 19037.4 8815.89   2
  -4  -4   8 21605.3 9358.61   2
  -4  -4   7-1484.72 221.831   2
   4   4  -7 514.785 142.883   1
   4   4  -6 28047.8 1197.48   1
   4   4  -6 27453.5 1378.72   5
  -4  -4   5 100265. 6083.18   2
  -4  -4   4 73622.1 3565.20   2
  -4  -4   3 65316.9 2411.63   2
  -4  -4   2 15968.7 1067.01   3
  -4  -4   1 13347.5 793.198   4
  -4  -4   1 13029.1 847.392   3
  -4  -4   0 34810.9 1099.57   4
  -4  -4   0 30754.2 1267.11   3
  -4  -4  -1 60425.4 1870.24   3
   4   4   2 18525.7 790.998   4
  -4  -4  -2 19152.9 1121.11   3
   4   4   3 2249.98 300.414   4
  -4  -4  -3 1376.56 302.965   3
  -4  -4  -4 1098.33 294.169   3
  -4  -4  -5 1870.23 395.016   3
  -4  -4  -6 6971.84 844.841   3
  -4  -4  -7 15754.1 1355.83   3
   4   4   8 20247.9 1527.40   2
  -4  -4  -8 19902.8 1579.94   3
   4   4   9 32607.7 2022.42   2
   4   4  10 34424.9 2220.28   2
   4   4  11 3045.98 698.872   2
   4   4  12 26124.8 2121.85   2
   4   4  13 21580.1 2057.35   2
   4   4  14 16436.2 1880.77   2
  -4  -5  11 545.111 555.556   2
  -4  -5  10 3319.96 2257.02   2
  -4  -5   9 9.31104 1029.38   2
  -4  -5   8 24141.5 4466.69   2
  -4  -5   7 24812.0 3277.03   2
  -4  -5   6 19320.8 2219.75   2
  -4  -5   5 8888.88 1174.00   2
  -4  -5   4 15908.2 1241.28   2
  -4  -5   3 45726.5 2005.98   3
  -4  -5   2 22394.9 1256.38   3
  -4  -5   1 61627.4 1549.37   4
  -4  -5   1 55854.9 1889.73   3
  -4  -5   0 178.816 84.1648   4
  -4  -5   0 353.916 182.288   3
  -4  -5  -1 1101.32 274.553   3
   4   5   2 4865.27 353.305   4
  -4  -5  -2 5372.69 657.379   3
   4   5   3 19567.1 777.314   4
  -4  -5  -3 19978.4 1271.01   3
  -4  -5  -4 2432.96 429.276   3
  -4  -5  -5 8794.95 919.032   3
  -4  -5  -6 39667.0 2060.71   3
  -4  -5  -7 6207.19 870.948   3
  -4  -5  -8 173.336 171.291   3
   4   5   9 8446.71 1150.02   2
  -4  -5  -9 6703.60 982.625   3
   4   5  10 2346.60 707.397   2
   4   5  11 3020.30 738.812   2
   4   5  12 258.276 330.693   2
   4   5  13 3395.38 917.564   2
   4   5  14 9518.80 1545.03   2
  -4  -6  11 527.296 202.288   2
  -4  -6  10 2559.93 812.236   2
  -4  -6   9 589.840 487.896   2
  -4  -6   8 11143.8 1791.95   2
  -4  -6   7 14114.2 1712.71   2
  -4  -6   6 22868.9 1794.41   2
  -4  -6   5 3938.84 650.509   2
  -4  -6   4 27257.1 1659.06   3
  -4  -6   3 49025.4 2058.96   3
  -4  -6   2 54521.2 2093.55   3
  -4  -6   1 140862. 2050.66   4
  -4  -6   1 131339. 3166.45   3
  -4  -6   0 13402.7 992.568   3
  -4  -6  -1 5292.35 654.816   3
  -4  -6  -2 18372.0 1283.53   3
   4   6   3 50726.3 1042.90   4
  -4  -6  -3 50705.4 2205.12   3
  -4  -6  -4 13084.4 1159.79   3
  -4  -6  -5 2468.00 496.889   3
  -4  -6  -6 238.156 235.903   3
  -4  -6  -7 2734.66 605.817   3
  -4  -6  -8 1798.56 474.762   3
  -4  -6  -9 12170.8 1335.45   3
   4   6  10 8037.08 1319.83   2
   4   6  11 25326.4 2583.19   2
   4   6  12 21158.4 2495.62   2
   4   6  13 14326.4 2151.64   2
  -4  -7  10 2620.70 853.592   2
  -4  -7   9 378.191 336.107   2
  -4  -7   8 18477.4 1819.29   2
  -4  -7   7 403.497 152.099   2
  -4  -7   6 24561.8 1660.95   2
  -4  -7   6 33966.1 2165.40   3
  -4  -7   5 13772.0 1283.78   3
  -4  -7   4 28554.0 1730.00   3
  -4  -7   3 3161.92 555.505   3
  -4  -7   2 20379.7 1368.16   3
  -4  -7   1 28142.4 700.243   4
  -4  -7   1 29734.0 1658.45   3
  -4  -7   0 6544.86 770.078   3
  -4  -7  -1 35812.3 1841.61   3
  -4  -7  -2-24.4515 113.362   3
  -4  -7  -3 11210.9 1092.46   3
   4   7   4 9176.73 471.532   4
  -4  -7  -4 8858.03 1009.18   3
  -4  -7  -5 13198.6 1300.31   3
  -4  -7  -6 2741.74 610.217   3
  -4  -7  -7 10720.0 1233.24   3
  -4  -7  -8 11726.5 1355.04   3
  -4  -7  -9 5377.86 947.866   3
   4   7  10 19666.1 2628.99   2
  -4  -7 -10 7335.06 1098.14   3
   4   7  11 13855.6 2323.50   2
   4   7  12-739.723 977.898   2
   4   7  13 5264.50 1461.00   2
  -4  -8  10 1116.62 535.103   2
  -4  -8   9 21.4628 208.654   2
  -4  -8   9-311.770 369.970   3
  -4  -8   8 6924.57 1048.50   3
  -4  -8   8 5221.47 837.710   2
  -4  -8   7 289.322 180.989   3
  -4  -8   6 12191.6 1272.79   3
  -4  -8   5 6339.60 868.100   3
  -4  -8   4 17394.8 1394.73   3
  -4  -8   3 6605.35 843.953   3
  -4  -8   2 41662.8 1041.76   4
  -4  -8   2 40281.3 2088.14   3
  -4  -8   1 18993.7 1431.20   3
  -4  -8   0 40384.1 2058.64   3
  -4  -8  -1 95180.8 3223.12   3
  -4  -8  -2 19768.0 1515.64   3
  -4  -8  -3 15126.2 1366.94   3
  -4  -8  -4 8997.32 1100.63   3
  -4  -8  -5 18074.4 1635.70   3
  -4  -8  -6 5212.57 872.309   3
  -4  -8  -7 12121.7 1406.07   3
  -4  -8  -8 1177.26 463.684   3
  -4  -8  -9 1089.99 442.869   3
  -4  -8 -10 631.148 382.472   3
   4   8  11 6370.10 1888.92   2
   4   8  12 11221.8 2553.74   2
  -4  -9   9 3357.78 805.237   3
  -4  -9   8 2013.92 541.463   3
  -4  -9   7 1758.04 535.116   3
  -4  -9   6 25155.5 1851.83   3
  -4  -9   5 2355.41 503.323   3
  -4  -9   4 24398.4 1751.59   3
  -4  -9   3 4906.53 805.537   3
  -4  -9   2 17816.0 1482.03   3
  -4  -9   1 3084.92 615.726   3
  -4  -9   0 40053.5 2206.95   3
  -4  -9  -1 11508.4 1203.11   3
  -4  -9  -2 908.351 352.253   3
  -4  -9  -3 13079.2 1327.61   3
  -4  -9  -4 749.765 233.826   3
  -4  -9  -5 7528.49 1104.08   3
  -4  -9  -6 2684.92 705.608   3
  -4  -9  -7 8460.64 1221.31   3
  -4  -9  -8 7709.11 1194.28   3
  -4  -9  -9 2878.60 749.936   3
  -4  -9 -10 2687.78 692.550   3
  -4  -9 -11 2715.44 752.244   3
   4   9  11 10019.4 2286.99   2
  -4 -10   8 84.2515 257.435   3
  -4 -10   7 2412.42 633.677   3
  -4 -10   6 9689.80 1201.80   3
  -4 -10   5-35.8963 208.724   3
  -4 -10   4 13669.9 1387.00   3
  -4 -10   3 8057.18 1099.54   3
  -4 -10   2 15870.9 1502.27   3
  -4 -10   1 1568.95 500.063   3
  -4 -10   0 41854.5 2434.76   3
  -4 -10  -1 15928.5 1503.20   3
  -4 -10  -2 38265.5 2328.26   3
  -4 -10  -3 21190.3 1791.03   3
  -4 -10  -4 13729.8 1514.36   3
  -4 -10  -5 14381.0 1588.20   3
  -4 -10  -6 13506.7 1601.06   3
  -4 -10  -7 1966.45 623.114   3
  -4 -10  -8 2856.73 767.503   3
  -4 -10  -9 2954.16 816.569   3
  -4 -10 -10 199.970 225.978   3
  -4 -11   6 4081.20 836.952   3
  -4 -11   5 2572.44 665.017   3
  -4 -11   4 12376.7 1416.34   3
  -4 -11   3 2881.80 738.998   3
  -4 -11   2 22099.1 1921.70   3
  -4 -11   1 4323.96 820.005   3
  -4 -11   0 704.612 308.216   3
  -4 -11  -1 2193.45 607.714   3
  -4 -11  -2 33797.8 2314.07   3
  -4 -11  -3 11098.4 1374.74   3
  -4 -11  -4 1066.31 451.996   3
  -4 -11  -5 6537.53 1141.29   3
  -4 -11  -6 12.0072 215.507   3
  -4 -11  -7 8741.03 1353.27   3
  -4 -11  -8 1615.13 670.403   3
  -4 -11  -9 4285.05 927.335   3
  -4 -12   4 8042.14 1205.09   3
  -4 -12   3 539.392 223.205   3
  -4 -12   2 13038.2 1551.71   3
  -4 -12   1 4369.30 924.842   3
  -4 -12   0 6012.50 1033.18   3
  -4 -12  -1 1001.71 485.435   3
  -4 -12  -2 23168.7 2042.22   3
  -4 -12  -3 16254.5 1762.01   3
  -4 -12  -4 18085.8 1854.82   3
  -4 -12  -5 6851.80 1189.12   3
  -4 -12  -6 7045.24 1230.93   3
  -4 -12  -7 5948.27 1191.35   3
  -4 -13   1 180.542 135.033   3
  -4 -13   0 15898.7 1794.02   3
  -4 -13  -1 1685.69 639.079   3
  -4 -13  -2 1247.88 512.940   3
  -4 -13  -3 470.313 278.524   3
  -5  10   2 1628.11 657.876   6
  -5  10   1 140.061 202.876   6
   5 -10  -1-28.6792 290.167   1
  -5  10   0 10152.4 1751.95   6
   5 -10   0 7789.73 1282.46   5
   5 -10   0 8954.17 1463.04   1
  -5  10  -1 8760.04 1564.51   6
   5 -10   1 7397.97 1374.86   1
   5 -10   1 9369.69 1395.71   5
   5 -10   2 10543.1 1618.99   1
  -5  10  -2 12350.5 1921.67   6
   5 -10   2 11915.3 1599.49   5
  -5  10  -3 13829.0 2045.30   6
   5 -10   3 13477.7 1801.34   1
   5 -10   3 14350.9 1789.82   5
  -5  10  -4 28181.6 2869.26   6
   5 -10   4 29579.7 2589.99   5
   5 -10   4 27485.8 2574.99   1
  -5   9   4 5025.08 965.094   4
  -5   9   4 6246.70 1400.59   6
   5  -9  -3 3681.04 895.241   1
  -5   9   3 5228.99 1038.06   4
  -5   9   3 6788.34 1392.53   6
   5  -9  -2 301.939 95.7471   1
   5  -9  -2 879.472 390.776   5
   5  -9  -1 1566.74 530.912   5
   5  -9  -1 1261.67 472.253   1
   5  -9   0 4500.61 890.203   5
   5  -9   0 5384.01 1075.69   1
   5  -9   1 90.2486 308.918   5
   5  -9   1 79.2558 150.367   1
   5  -9   2 9204.73 1372.09   5
   5  -9   2 8912.28 1414.83   1
   5  -9   3 1972.06 666.600   1
   5  -9   3 2724.05 779.248   5
   5  -9   4-161.466 225.449   1
   5  -9   4 274.819 295.868   5
   5  -9   5 98.7194 171.322   1
   5  -9   5 159.519 255.967   5
   5  -9   6 1688.23 614.433   5
   5  -9   6 1463.33 576.012   1
  -5   9  -6 2258.92 882.807   6
   5  -9   7-22.9517 427.172   5
   5  -9   7 365.049 198.114   1
  -5   9  -7-267.764 157.746   6
  -5   8   6 4438.93 893.883   4
  -5   8   6 7799.92 1606.77   6
  -5   8   5 5564.89 997.430   4
   5  -8  -5 6267.50 1050.88   1
   5  -8  -4 2450.62 668.652   1
  -5   8   4 2841.15 754.323   4
  -5   8   3 8097.13 1214.51   4
   5  -8  -3 7279.67 1051.07   5
   5  -8  -3 9302.37 1279.92   1
   5  -8  -2 3027.87 647.995   5
  -5   8   2 2943.88 735.940   4
   5  -8  -2 2896.90 621.552   1
   5  -8  -1 8215.86 1152.63   5
   5  -8  -1 8884.29 1297.70   1
   5  -8   0 146.557 155.678   5
   5  -8   0 228.636 306.715   1
   5  -8   1 1576.57 543.222   5
   5  -8   1 1196.65 450.463   1
   5  -8   2 12358.8 1562.82   1
   5  -8   2 13113.7 1502.12   5
   5  -8   3 5576.13 1003.52   5
   5  -8   3 6191.67 1055.30   1
   5  -8   4 8772.06 1313.72   1
   5  -8   4 8141.78 1248.37   5
   5  -8   5 25147.8 2205.61   1
   5  -8   5 25868.5 2208.90   5
   5  -8   6 41857.3 2858.18   5
   5  -8   6 40604.3 2812.80   1
   5  -8   7 33898.6 2639.57   5
   5  -8   7 32974.1 2547.28   1
  -5   8  -8 27299.9 2615.22   6
   5  -8   8 27856.2 2390.41   5
   5  -8   8 26800.6 2315.26   1
  -5   8  -9 19413.5 2248.44   6
   5  -8   9 18772.2 2019.61   5
   5  -8   9 19730.6 2050.18   1
  -5   7   7 14987.6 1816.41   4
  -5   7   7 23665.8 2692.06   6
  -5   7   6 6923.69 1170.90   4
   5  -7  -6 6657.65 1068.75   1
  -5   7   5 11640.8 1499.75   4
   5  -7  -5 13267.9 1482.43   1
  -5   7   4 9122.07 1292.48   4
   5  -7  -4 9742.01 1104.96   5
   5  -7  -4 9756.45 1289.32   1
   5  -7  -3 3959.27 720.842   5
   5  -7  -3 4416.04 835.017   1
  -5   7   3 4471.37 878.254   4
   5  -7  -2 9182.63 1222.43   1
  -5   7   2 7811.61 1111.63   4
   5  -7  -2 8600.00 1058.98   5
   5  -7  -1 4045.22 748.525   5
   5  -7  -1 4424.26 865.355   1
   5  -7   0 978.508 364.878   1
   5  -7   0 1780.65 516.190   5
   5  -7   1 3628.10 789.453   1
   5  -7   1 3421.39 730.944   5
   5  -7   2 1651.52 469.621   5
   5  -7   2 2151.66 586.666   1
   5  -7   3 743.416 375.973   5
   5  -7   3 757.912 399.855   1
   5  -7   4 11346.7 1395.96   5
   5  -7   4 10250.2 1305.81   1
   5  -7   5 2555.78 682.656   5
   5  -7   5 2623.84 697.835   1
   5  -7   6 147.340 181.185   5
   5  -7   6-19.4702 113.262   1
   5  -7   7 275.617 312.458   5
   5  -7   7-68.2288 204.837   1
   5  -7   8 1743.75 555.067   5
   5  -7   8 1624.40 537.544   1
   5  -7   9-49.5319 195.107   5
   5  -7   9 80.6192 184.906   1
   5  -7  10 1416.78 448.859   5
   5  -7  10 1233.88 524.583   1
  -5   7 -10 1167.05 509.403   6
  -5   6   8 6994.91 1086.82   2
  -5   6   8 8708.32 1396.23   4
  -5   6   7 2543.13 731.469   4
  -5   6   7 3865.87 787.141   2
   5  -6  -7 4493.57 796.012   1
  -5   6   6 8987.61 1149.57   2
  -5   6   6 8906.16 1348.81   4
   5  -6  -6 8978.50 1145.61   1
  -5   6   5 14321.5 1607.58   4
  -5   6   5 15914.6 1414.23   2
   5  -6  -5 15664.4 1312.02   5
   5  -6  -5 14253.7 1459.51   1
  -5   6   4 12110.6 1439.60   4
  -5   6   4 13555.7 1230.68   2
   5  -6  -4 12553.6 1176.62   5
   5  -6  -4 13085.9 1350.02   1
   5  -6  -3 21263.3 1742.80   1
  -5   6   3 19804.9 1367.44   2
  -5   6   3 20364.2 1814.37   4
   5  -6  -3 21023.9 1521.73   5
   5  -6  -2 1976.53 479.751   5
  -5   6   2 1881.98 476.248   4
   5  -6  -2 2615.02 591.322   1
  -5   6   2 1567.23 360.013   2
   5  -6  -1 218.417 79.1004   5
  -5   6   1 442.050 190.286   4
   5  -6  -1 498.822 206.800   1
  -5   6   1 379.121 166.700   2
   5  -6   0 3609.91 665.107   5
   5  -6   0 3377.02 714.302   1
   5  -6   1 24130.7 1887.30   1
   5  -6   1 22754.8 1076.51   3
   5  -6   1 24013.3 1775.60   5
   5  -6   2 89.1030 148.051   5
   5  -6   2 28.5679 79.9400   1
   5  -6   2 155.985 64.3744   3
   5  -6   3 3738.23 716.539   5
   5  -6   3 5053.65 469.671   3
   5  -6   3 4732.63 828.417   1
   5  -6   4 15766.5 1504.90   1
   5  -6   4 15269.6 1517.15   5
   5  -6   5 4664.82 848.722   5
   5  -6   5 6271.92 947.892   1
   5  -6   6 5050.68 899.084   5
   5  -6   6 4852.80 857.786   1
   5  -6   7 20863.5 1777.93   1
   5  -6   7 17734.9 1700.69   5
   5  -6   8 31372.1 2210.88   1
   5  -6   8 29625.0 2235.43   5
   5  -6   9 60978.2 3193.05   1
   5  -6   9 57517.5 3228.80   5
   5  -6  10 38093.2 2579.13   1
   5  -6  10 35086.9 2608.42   5
   5  -6  11 12241.7 1549.97   5
  -5   5   9 2970.25 868.840   4
  -5   5   9 2813.35 693.257   2
  -5   5   8 5694.19 1199.34   4
  -5   5   8 4360.53 844.876   2
  -5   5   7 18585.2 1680.51   2
   5  -5  -7 18217.0 1560.05   1
  -5   5   7 19535.7 2097.32   4
  -5   5   6 19134.7 1581.47   2
  -5   5   6 18409.9 1942.70   4
   5  -5  -6 18346.5 1535.58   1
   5  -5  -5 20535.8 1598.48   1
  -5   5   5 20342.7 1561.11   2
  -5   5   5 19731.1 1910.31   4
   5  -5  -5 19532.3 1354.35   5
   5  -5  -4 6993.31 931.728   1
  -5   5   4 6120.85 1014.32   4
  -5   5   4 6766.82 841.278   2
   5  -5  -4 6280.39 782.322   5
   5  -5  -3 18602.7 1513.90   1
  -5   5   3 19385.7 1720.70   4
  -5   5   3 20104.3 1327.11   2
   5  -5  -3 20687.8 1433.60   5
   5  -5  -2 25626.7 1789.91   1
  -5   5   2 23869.8 1858.68   4
  -5   5   2 24041.6 1308.36   2
   5  -5  -2 25477.0 1594.38   5
   5  -5  -1 13168.4 1265.27   1
  -5   5   1 13054.6 1320.50   4
  -5   5   1 12089.4 817.706   2
   5  -5  -1 12300.6 1126.23   5
   5  -5   0 6441.23 900.209   1
  -5   5   0 4997.61 797.761   4
   5  -5   0 5390.91 777.478   5
   5  -5   1 3104.79 622.563   5
   5  -5   1 1698.81 447.432   1
   5  -5   2 414.038 235.990   5
   5  -5   2 193.602 68.9141   1
   5  -5   2 303.761 93.6861   3
   5  -5   3 4556.14 753.453   5
   5  -5   3 3999.03 337.208   3
   5  -5   3 4515.28 740.316   1
   5  -5   4-0.93912 50.4657   5
   5  -5   4-23.5370 112.955   1
   5  -5   4 246.861 76.3184   3
   5  -5   5 122.428 58.3813   1
   5  -5   5 60.4850 37.5873   3
   5  -5   6 3658.13 721.066   5
   5  -5   6 3073.58 345.363   3
   5  -5   6 2973.91 592.263   1
   5  -5   7 330.949 214.395   5
   5  -5   7 362.736 124.423   1
   5  -5   7 157.574 74.6500   3
   5  -5   8 92.6548 31.3126   5
   5  -5   8 129.618 73.7059   1
   5  -5   8-41.6961 52.0432   3
   5  -5   8 51.7267 113.003   2
   5  -5   9 3004.59 695.190   5
   5  -5   9 3749.54 625.870   2
   5  -5   9 3394.32 715.012   1
   5  -5  10 1559.09 552.601   5
   5  -5  10 1564.40 491.811   2
   5  -5  10 1477.23 463.205   1
   5  -5  11 556.453 282.903   5
   5  -5  11 303.774 191.070   2
   5  -5  12 550.585 217.779   5
  -5   4  10 2751.32 746.846   2
  -5   4   9 1872.98 530.012   2
  -5   4   8 10024.6 1206.30   2
   5  -4  -8 8186.35 994.653   1
  -5   4   7 16210.2 1481.22   2
  -5   4   7 20636.2 2133.57   4
   5  -4  -7 17563.3 1428.21   1
   5  -4  -6 26649.6 1765.40   1
  -5   4   6 26463.6 1753.61   2
  -5   4   6 28859.5 2405.66   4
   5  -4  -6 26497.4 1393.85   5
   5  -4  -5 7175.74 889.977   1
  -5   4   5 6807.77 857.394   2
  -5   4   5 7024.48 1104.93   4
   5  -4  -5 6734.13 703.807   5
   5  -4  -4 16454.5 1327.82   1
  -5   4   4 18138.2 1267.95   2
  -5   4   4 17411.8 1675.76   4
   5  -4  -4 17932.8 1206.30   5
   5  -4  -3 36691.7 1953.09   1
  -5   4   3 34850.9 1626.10   2
  -5   4   3 38155.3 2360.68   4
   5  -4  -3 34548.5 1736.68   5
   5  -4  -2 33569.3 1893.23   1
  -5   4   2 35961.5 2174.93   4
  -5   4   2 35498.2 1511.70   2
  -5   4   2 33170.0 1436.00   3
   5  -4  -2 33592.2 1706.18   5
   5  -4  -1 41117.6 2111.63   1
  -5   4   1 43222.9 2291.65   4
  -5   4   1 43324.7 1479.76   2
  -5   4   1 45225.5 1479.42   3
   5  -4  -1 42516.5 1960.60   5
  -5   4   0 5815.07 831.141   4
   5  -4   0 6720.16 852.253   1
  -5   4   0 6322.70 469.348   2
  -5   4   0 5671.28 398.934   3
   5  -4   0 5651.49 742.085   5
   5  -4   1 687.638 222.097   5
  -5   4  -1 554.882 208.111   2
   5  -4   1 260.187 198.134   1
   5  -4   2 554.840 199.793   5
  -5   4  -2 584.384 110.816   2
   5  -4   2 625.765 256.083   1
   5  -4   3 7439.29 928.940   1
  -5   4  -3 8061.04 437.275   2
   5  -4   3 7835.44 929.956   5
   5  -4   4 1434.22 425.676   5
   5  -4   4 1167.97 137.035   3
  -5   4  -4 1267.42 216.458   2
   5  -4   4 1075.75 338.222   1
   5  -4   5 3992.01 704.027   5
   5  -4   5 4902.37 352.549   3
   5  -4   5 3939.61 682.630   1
   5  -4   6 26900.4 1762.47   1
   5  -4   6 26552.6 948.692   3
   5  -4   6 24325.7 1741.42   5
   5  -4   7 20633.7 1631.91   5
   5  -4   7 21682.1 1609.08   1
   5  -4   7 22985.8 1239.68   2
   5  -4   8 5544.84 874.679   5
   5  -4   8 5764.97 837.316   1
   5  -4   9 19654.4 1562.82   1
   5  -4   9 19725.8 1724.64   5
   5  -4   9 23118.6 3108.88   2
   5  -4  10 17089.6 1523.28   1
   5  -4  10 15539.9 4026.61   2
   5  -4  10 16618.3 1632.54   5
   5  -4  11 82980.5 3817.79   5
   5  -4  11 85069.6 11966.8   2
   5  -4  12 32483.1 8025.93   2
   5  -4  12 46750.1 2951.00   5
   5  -4  13 9252.76 4758.63   2
  -5   3  10 8474.91 1198.17   2
  -5   3   9 9417.07 1170.84   2
  -5   3   8 16984.7 1518.52   2
   5  -3  -8 14669.6 1211.25   1
   5  -3  -7 3187.67 575.521   1
  -5   3   7 2533.85 556.159   2
  -5   3   6 4705.89 677.440   2
   5  -3  -6 4783.84 670.749   1
   5  -3  -6 5962.14 586.338   5
  -5   3   5 29436.2 1641.86   2
  -5   3   5 32870.2 2362.54   4
   5  -3  -5 29946.2 1677.86   1
   5  -3  -5 31327.2 1416.11   5
   5  -3  -4 22843.0 1442.97   1
  -5   3   4 23844.9 1371.54   2
  -5   3   4 26274.3 2037.89   4
   5  -3  -4 23413.4 1265.60   5
  -5   3   3 21182.3 1167.98   2
   5  -3  -3 21971.9 1433.81   1
  -5   3   3 22254.8 1755.38   4
   5  -3  -3 22873.9 1270.84   5
  -5   3   2 24695.8 1124.00   2
  -5   3   2 24351.7 1754.62   4
   5  -3  -2 24017.1 1498.63   1
  -5   3   2 20893.4 1072.47   3
   5  -3  -2 23595.1 1336.78   5
  -5   3   1 23835.8 951.270   2
  -5   3   1 21201.9 1551.98   4
   5  -3  -1 22025.1 1454.85   1
  -5   3   1 22102.2 970.604   3
   5  -3  -1 20225.6 1272.60   5
  -5   3   0 5720.85 769.948   4
  -5   3   0 6205.59 388.464   2
   5  -3   0 6702.86 794.961   1
  -5   3   0 5961.51 367.904   3
   5  -3   0 5901.35 715.275   5
   5  -3   1 18803.8 1331.22   1
   5  -3   1 17686.0 1240.88   5
   5  -3   2 4746.02 681.547   1
   5  -3   2 4970.47 678.976   5
   5  -3   3 2233.90 509.770   5
   5  -3   3 2063.86 447.811   1
  -5   3  -4 12911.8 570.882   2
   5  -3   4 12326.2 1110.83   1
   5  -3   4 11999.7 1098.49   5
   5  -3   5 334.676 97.5367   3
  -5   3  -5 300.081 117.789   2
   5  -3   5 248.461 59.1692   3
   5  -3   5 181.572 163.867   1
   5  -3   6 290.047 292.055   5
   5  -3   6 157.999 83.7356   2
   5  -3   6 182.196 107.681   3
  -5   3  -6 60.2506 18.4875   2
   5  -3   6 48.4360 84.3940   1
   5  -3   7-248.848 245.451   5
   5  -3   7-810.426 1055.62   2
   5  -3   7-22.0959 28.6847   3
   5  -3   7-177.964 166.794   1
   5  -3   8 3982.72 707.709   5
   5  -3   8 1222.65 3208.77   2
   5  -3   8 3715.47 653.294   1
   5  -3   9 1585.75 478.887   5
   5  -3   9 1899.26 446.051   1
   5  -3  10 1377.16 509.918   5
   5  -3  10-69.9089 1035.56   2
   5  -3  10 736.652 307.797   1
   5  -3  11 1842.46 553.655   5
   5  -3  11-75.0194 635.745   2
   5  -3  12 3359.85 754.908   5
   5  -3  12 4239.83 1645.37   2
   5  -3  13 703.580 920.238   2
  -5   2  11 3985.58 835.625   2
  -5   2  10 2104.88 563.785   2
  -5   2   9 766.236 344.959   2
   5  -2  -8 1049.11 347.179   1
  -5   2   8 3214.84 592.555   2
   5  -2  -7 222.293 65.8094   1
  -5   2   7-97.2162 54.1904   2
   5  -2  -6 10229.1 916.384   1
  -5   2   6 9025.53 937.031   2
   5  -2  -6 10176.5 667.342   5
  -5   2   5 15566.0 1121.98   2
   5  -2  -5 16010.4 1158.07   1
   5  -2  -5 16318.6 916.878   5
  -5   2   4 38750.0 1648.93   2
   5  -2  -4 44983.7 1916.09   1
  -5   2   4 42120.7 2497.55   4
   5  -2  -4 43473.1 1565.64   5
  -5   2   3 33298.0 1379.95   2
  -5   2   3 34084.4 2117.75   4
   5  -2  -3 36650.9 1721.22   1
   5  -2  -3 36175.4 1477.04   5
  -5   2   2 32441.3 1183.57   2
  -5   2   2 34181.5 2022.53   4
   5  -2  -2 34680.9 1682.19   1
  -5   2   2 35913.5 1529.06   3
   5  -2  -2 33578.1 1483.77   5
  -5   2   1 52313.9 1236.91   2
  -5   2   1 54179.2 2444.54   4
   5  -2  -1 57998.6 2189.56   1
  -5   2   1 52969.6 1430.29   3
   5  -2  -1 53358.9 1951.58   5
  -5   2   0 66189.4 1019.27   2
  -5   2   0 59513.5 2464.13   4
   5  -2   0 63444.9 2306.19   1
  -5   2   0 63731.9 1232.53   3
   5  -2   0 63622.5 2167.56   5
  -5   2  -1 112696. 3389.95   4
   5  -2   1 113963. 3144.35   1
   5  -2   1 115281. 3020.99   5
   5  -2   2 34376.1 1725.89   1
   5  -2   2 34486.9 1692.14   5
   5  -2   3 9996.24 945.323   1
   5  -2   3 11258.8 979.495   5
   5  -2   4 323.904 168.380   5
   5  -2   4 785.851 239.464   1
   5  -2   5 8461.69 508.803   3
   5  -2   5 8827.86 895.960   1
   5  -2   5 7967.46 891.030   5
   5  -2   5 6638.12 1076.74   2
   5  -2   6 7843.19 635.448   3
   5  -2   6 7800.77 842.623   1
   5  -2   6 7292.77 1442.48   2
   5  -2   6 6940.73 849.856   5
   5  -2   7 6239.90 885.188   2
   5  -2   7 5701.94 626.836   3
   5  -2   7 6332.23 763.541   1
   5  -2   7 5744.00 797.807   5
   5  -2   8 25116.3 1598.83   1
   5  -2   8 25409.5 1732.20   5
   5  -2   9 9121.49 1029.49   2
   5  -2   9 8394.94 931.942   1
   5  -2   9 8494.07 1026.80   5
   5  -2  10 12463.6 1228.07   2
   5  -2  10 11568.7 1115.88   1
   5  -2  10 11019.8 1219.92   5
   5  -2  11 34019.6 1974.62   1
   5  -2  11 36384.5 2317.31   5
   5  -2  12 7253.45 1159.21   2
   5  -2  12 6001.74 979.252   5
   5  -2  13 55949.2 3603.08   2
   5  -2  14 47266.4 3804.74   2
  -5   1  11 3050.77 754.148   2
  -5   1  10 2321.85 621.485   2
  -5   1   9 2732.17 640.979   2
  -5   1   8 5638.96 811.408   2
   5  -1  -7 16471.2 1055.58   1
  -5   1   7 13692.1 1258.25   2
   5  -1  -6 72843.1 1614.75   5
   5  -1  -6 72035.8 2272.19   1
  -5   1   5 11177.4 948.652   2
   5  -1  -5 11209.7 891.001   1
   5  -1  -5 12050.6 730.464   5
  -5   1   4 8140.50 754.740   2
   5  -1  -4 8969.08 797.983   1
   5  -1  -4 9101.17 659.583   5
  -5   1   3 37045.0 1413.74   2
  -5   1   3 36307.0 2111.30   4
   5  -1  -3 35295.0 1603.35   1
   5  -1  -3 36624.3 1397.23   5
  -5   1   2 47809.5 1416.45   2
  -5   1   2 48652.7 2310.71   4
   5  -1  -2 47123.1 1873.60   1
   5  -1  -2 47028.1 1666.90   5
  -5   1   1 37029.7 1956.19   4
   5  -1  -1 38711.4 1691.20   1
   5  -1  -1 38170.1 1567.35   5
  -5   1   0 56832.3 2299.60   4
  -5   1   0 60226.9 1301.49   3
   5  -1   0 55997.5 2062.84   1
   5  -1   0 53079.6 1893.05   5
   5  -1   1 19922.1 1206.47   5
  -5   1  -1 23883.2 1455.78   4
   5  -1   1 20586.8 1254.78   1
   5  -1   2 6124.26 679.128   5
   5  -1   2 4676.59 620.151   1
   5  -1   3 22135.3 1317.85   5
   5  -1   3 21071.9 1296.54   1
   5  -1   4 37965.3 1827.48   5
   5  -1   4 41202.8 720.484   3
   5  -1   4 37492.9 1769.99   1
   5  -1   4 39213.1 1675.03   2
   5  -1   5 6226.38 436.004   2
   5  -1   5 5714.41 741.721   5
   5  -1   5 6274.98 457.399   3
   5  -1   5 6292.52 728.613   1
   5  -1   6 3793.42 592.304   5
   5  -1   6 3604.97 442.889   3
   5  -1   6 3302.97 371.311   2
   5  -1   6 4150.60 579.135   1
   5  -1   7 216.522 128.725   5
   5  -1   7 18.7362 89.5018   1
   5  -1   7-40.2350 63.2776   2
   5  -1   7 42.3430 50.5927   3
   5  -1   8 152.980 147.910   5
   5  -1   8 204.822 178.658   1
   5  -1   8-7.62213 68.1503   2
   5  -1   9 670.141 275.037   5
   5  -1   9 720.898 243.445   1
   5  -1   9 420.538 221.605   2
   5  -1  10 214.392 228.704   5
   5  -1  10 77.0585 87.5668   1
   5  -1  10 77.9422 49.3139   2
   5  -1  11 1793.88 422.372   1
   5  -1  11 1686.18 480.352   5
   5  -1  11 2171.99 493.976   2
   5  -1  12 5007.70 851.682   5
   5  -1  12 3097.83 643.404   2
   5  -1  13 376.698 249.160   2
   5  -1  14 4042.22 894.862   2
  -5   0  11 2167.83 718.733   2
  -5   0  10 1962.03 619.406   2
  -5   0   9 4102.22 797.399   2
  -5   0   8 1316.13 436.780   2
  -5   0   7-57.2629 185.041   2
   5   0  -7 45.3825 67.3430   1
  -5   0   6 7232.88 881.778   2
   5   0  -6 8920.05 749.872   1
   5   0  -6 8357.79 505.729   5
  -5   0   5 6823.92 776.674   2
   5   0  -5 6512.22 649.266   1
   5   0  -5 5983.28 484.302   5
  -5   0   4 5259.60 685.858   2
   5   0  -4 4946.11 573.434   1
   5   0  -4 4110.40 439.151   5
   5   0  -3 1492.14 263.440   5
  -5   0   3 1438.30 398.302   4
   5   0  -3 1523.88 317.652   1
  -5   0   3 2513.46 476.094   2
   5   0  -2 46525.6 1629.81   5
  -5   0   2 45776.6 2160.72   4
   5   0  -2 46178.9 1514.21   2
   5   0  -2 44003.2 1721.49   1
   5   0  -1 51738.8 1812.87   5
  -5   0   1 50988.9 2192.59   4
   5   0  -1 50206.1 1352.83   2
   5   0  -1 49059.8 1848.83   1
  -5   0   0 26132.8 1507.88   4
   5   0   0 24635.1 770.912   2
   5   0   0 26113.1 1356.53   1
  -5   0  -1 47151.7 1962.33   4
  -5   0  -1 47363.5 942.421   3
   5   0   1 44217.7 1781.62   1
  -5   0  -2 61319.8 1049.45   3
   5   0   2 60646.7 2130.30   1
   5   0   3 69113.0 996.248   2
   5   0   3 68687.6 997.354   3
   5   0   3 68765.3 2271.07   1
   5   0   4 39618.3 1035.31   2
   5   0   4 39677.7 991.018   3
   5   0   4 36557.1 1689.41   1
   5   0   5 59023.6 2360.27   5
   5   0   5 55732.4 1490.03   2
   5   0   5 54281.0 1480.77   3
   5   0   5 55924.1 2120.94   1
   5   0   6 4758.50 698.397   5
   5   0   6 3760.69 444.897   2
   5   0   6 4318.49 492.876   3
   5   0   6 4514.62 610.214   1
   5   0   7 614.287 206.928   5
   5   0   7 1368.84 312.629   2
   5   0   7 1024.32 272.173   1
   5   0   8 6750.36 870.646   5
   5   0   8 6194.34 688.961   2
   5   0   8 6729.31 782.580   1
   5   0   9 4984.91 771.269   5
   5   0   9 4841.27 665.571   2
   5   0   9 4950.77 691.372   1
   5   0  10 8862.56 979.390   2
   5   0  10 11315.5 1069.79   1
   5   0  10 9251.50 1068.72   5
   5   0  11 1828.01 477.439   5
   5   0  11 1406.22 354.371   1
   5   0  11 1794.94 441.861   2
   5   0  12 11237.1 1240.76   2
   5   0  12 10484.2 1172.44   5
   5   0  13 30061.9 2181.76   2
   5   0  14 2955.75 705.439   2
  -5  -1  11 8327.55 1580.65   2
  -5  -1  10 767.126 588.972   2
  -5  -1   9 8445.05 1384.36   2
  -5  -1   8 1861.67 700.709   2
   5   1  -7 2786.41 382.922   1
  -5  -1   7 3099.84 762.366   2
   5   1  -6 285.348 125.383   1
   5   1  -6 346.361 100.867   5
  -5  -1   6 538.296 155.150   2
   5   1  -5 11042.7 679.182   5
   5   1  -5 10557.9 787.567   1
   5   1  -4 101737. 2484.99   1
  -5  -1   4 102721. 4897.28   2
   5   1  -3 19285.9 1091.13   1
  -5  -1   3 12709.8 2237.82   2
   5   1  -2 7961.88 655.638   2
  -5  -1   2 8980.61 896.020   4
   5   1  -2 7883.98 717.203   1
   5   1  -1 32990.5 1137.48   2
  -5  -1   1 36835.4 1805.58   4
   5   1  -1 36368.5 1569.57   1
   5   1   0 51156.1 1179.82   2
  -5  -1   0 58694.7 2117.72   4
  -5  -1   0 54238.9 1288.49   3
   5   1   0 55536.4 1957.97   1
   5   1   1 21275.1 1195.08   2
  -5  -1  -1 20856.2 1246.74   4
  -5  -1  -1 20182.2 780.037   3
   5   1   1 20478.6 1194.69   1
  -5  -1  -2 24101.7 825.424   3
   5   1   2 23687.9 1321.43   1
  -5  -1  -3 20964.9 902.142   3
   5   1   3 19611.0 700.717   3
   5   1   3 20106.8 1235.56   1
   5   1   4 5521.74 469.714   2
  -5  -1  -4 7167.89 558.881   3
   5   1   4 6823.06 498.752   3
   5   1   4 6270.41 714.271   1
   5   1   5 1853.11 367.242   1
   5   1   5 1623.71 287.259   3
   5   1   5 1664.85 281.103   2
   5   1   6 19883.4 1177.16   2
   5   1   6 17304.7 1062.02   3
   5   1   6 20693.8 1324.48   1
   5   1   7 8630.30 848.668   2
   5   1   7 7727.13 830.668   1
   5   1   8 2103.37 422.491   1
   5   1   8 1962.51 428.082   2
   5   1   9 890.759 280.597   1
   5   1   9 717.811 325.224   5
   5   1   9 1147.30 406.568   2
   5   1  10 25.2506 98.7826   5
   5   1  10 122.142 152.075   2
   5   1  10 154.630 129.487   1
   5   1  11 803.848 293.199   5
   5   1  11 758.377 318.386   2
   5   1  11 608.596 192.307   1
   5   1  12 2803.78 576.442   5
   5   1  12 3334.84 682.906   2
   5   1  13 172.910 158.521   2
   5   1  14-108.400 168.782   2
  -5  -2  11 4576.14 1755.94   2
  -5  -2  10 399.654 579.424   2
  -5  -2   9 611.749 465.601   2
  -5  -2   8 1468.25 787.055   2
   5   2  -7 1973.93 326.988   1
   5   2  -7 1328.31 190.081   5
  -5  -2   7 2244.23 856.522   2
   5   2  -6 1704.23 299.720   1
  -5  -2   6 1408.88 229.765   2
  -5  -2   5 139.566 674.527   2
   5   2  -5 933.042 212.464   1
  -5  -2   4 12333.7 3367.51   2
   5   2  -4 18678.9 1046.73   1
   5   2  -3 41488.5 1636.63   1
  -5  -2   3 26541.9 3285.51   2
  -5  -2   2 16222.8 1190.35   4
   5   2  -2 15281.0 1011.01   1
   5   2  -1 17026.0 898.808   2
  -5  -2   1 19188.0 1207.80   4
   5   2  -1 16827.2 1082.41   1
   5   2   0 38725.9 2385.14   2
  -5  -2   0 40757.1 1680.87   4
  -5  -2   0 38546.8 1189.25   3
   5   2   0 40944.4 1712.95   1
   5   2   1 48868.0 1920.19   1
  -5  -2  -1 50406.5 1806.19   4
  -5  -2  -1 52683.6 1432.87   3
   5   2   1 48989.5 2469.65   2
  -5  -2  -2 37474.2 1275.91   3
   5   2   2 37660.4 1206.51   3
   5   2   3 79558.5 2518.85   1
  -5  -2  -3 78705.2 1880.38   3
   5   2   3 78610.0 1712.45   3
   5   2   4 40280.1 1835.85   1
  -5  -2  -4 44844.6 1665.85   3
   5   2   4 42482.9 1459.99   3
   5   2   5 8733.29 869.072   1
  -5  -2  -5 11317.1 906.274   3
   5   2   5 10906.7 822.887   3
   5   2   6 17965.8 1271.55   1
   5   2   6 16440.2 1036.73   2
  -5  -2  -6 17379.5 1145.38   3
   5   2   7 99590.5 3066.00   1
   5   2   7 93329.2 2748.27   2
   5   2   8 8998.66 933.730   2
   5   2   8 9692.51 962.741   1
   5   2   9 447.200 251.497   2
   5   2   9 338.724 173.883   1
   5   2  10 1756.13 385.279   1
   5   2  10 1647.46 427.137   2
   5   2  11 5448.67 758.344   5
   5   2  11 5064.81 849.106   2
   5   2  11 6027.00 753.218   1
   5   2  12 3825.26 691.364   5
   5   2  12 3596.93 742.126   2
   5   2  13 1752.78 552.100   2
   5   2  14 4698.96 895.559   2
  -5  -3  11 2435.46 1774.28   2
  -5  -3  10 17745.4 5817.15   2
  -5  -3   9 11665.3 5535.15   2
  -5  -3   8-541.507 1562.42   2
  -5  -3   7 19875.9 8659.60   2
   5   3  -7 9042.84 674.639   1
   5   3  -6 1311.27 260.897   1
  -5  -3   6 51.4222 1339.96   2
  -5  -3   5 7370.96 2638.24   2
   5   3  -5 8073.88 682.489   1
  -5  -3   4 2998.29 877.041   2
   5   3  -4 4119.47 510.705   1
  -5  -3   3 6839.22 945.693   2
   5   3  -3 4784.89 580.864   1
   5   3  -2 40487.8 1694.00   1
  -5  -3   2 38300.3 1769.33   4
  -5  -3   2 38129.5 1554.86   2
  -5  -3   1 32957.9 1523.86   4
  -5  -3   1 31329.0 1296.89   3
  -5  -3   0 74830.0 2103.68   4
  -5  -3   0 69242.8 1781.55   3
  -5  -3  -1 44113.8 1559.13   4
  -5  -3  -1 44416.1 1502.96   3
   5   3   2 27530.2 1278.32   4
  -5  -3  -2 30307.1 1310.33   3
   5   3   2 28294.3 1138.17   3
   5   3   3 10048.4 781.868   4
  -5  -3  -3 11112.4 783.952   3
   5   3   3 9575.30 681.558   3
  -5  -3  -4 29932.7 1386.14   3
  -5  -3  -5 20064.9 1258.01   3
  -5  -3  -6 2021.64 424.272   3
  -5  -3  -7 550.860 263.924   3
   5   3   7 749.930 230.020   2
   5   3   8 1917.68 436.938   1
   5   3   8 1413.48 382.383   2
   5   3   9 748.522 268.614   1
   5   3   9 382.537 126.405   2
   5   3  10 331.581 101.131   1
   5   3  10 596.982 276.434   2
   5   3  11 1188.60 322.134   1
   5   3  11 1225.60 421.258   2
   5   3  12-204.349 129.714   5
   5   3  12-260.261 286.019   2
   5   3  13 432.340 55.0633   2
   5   3  14 833.227 399.125   2
  -5  -4  11-1043.20 4192.01   2
  -5  -4  10-2064.81 3661.78   2
  -5  -4   9 25198.8 10700.4   2
  -5  -4   8 1118.05 2221.49   2
   5   4  -7 1056.68 234.968   1
  -5  -4   7 1700.70 1838.37   2
  -5  -4   6 839.091 931.429   2
   5   4  -6 218.360 127.988   1
   5   4  -5 169.384 112.300   1
  -5  -4   5 136.440 218.763   2
  -5  -4   4 823.076 378.741   2
  -5  -4   3 1769.76 377.468   2
  -5  -4   2 6817.02 719.996   4
  -5  -4   2 6695.54 702.521   3
  -5  -4   1 67971.5 2094.46   4
  -5  -4   1 62160.5 1932.46   3
  -5  -4   0 29676.9 1234.24   4
  -5  -4   0 30180.3 1309.94   3
  -5  -4  -1 31682.7 1377.28   3
   5   4   2 26839.8 1156.48   4
  -5  -4  -2 28340.8 1403.51   3
   5   4   3 102377. 2335.10   4
  -5  -4  -3 100030. 2677.04   3
   5   4   4 44918.3 1679.70   4
  -5  -4  -4 39043.1 1714.03   3
  -5  -4  -5 61040.8 2292.45   3
  -5  -4  -6 37078.3 1933.62   3
  -5  -4  -7 20375.0 1509.18   3
   5   4   8 4862.24 745.213   2
  -5  -4  -8 5028.99 764.200   3
   5   4   9 52321.0 2546.02   2
   5   4  10 15286.6 1416.36   2
   5   4  11 6267.21 836.600   1
   5   4  11 7377.38 1063.11   2
   5   4  12 468.262 275.089   2
   5   4  13 4538.20 944.054   2
   5   4  14 1862.58 632.681   2
  -5  -5  11 41877.0 6866.89   2
  -5  -5  10 33982.2 6004.76   2
  -5  -5   9 14560.9 3414.42   2
  -5  -5   8 17574.2 3117.04   2
  -5  -5   7 7514.61 1586.67   2
   5   5  -7 6151.34 601.532   1
   5   5  -6 4221.01 540.478   1
  -5  -5   6 5252.79 1013.70   2
  -5  -5   5 23357.7 1801.84   2
  -5  -5   4 1524.90 361.334   2
  -5  -5   3 15934.6 1202.16   3
  -5  -5   2 13072.7 927.536   4
  -5  -5   2 12379.6 984.959   3
  -5  -5   1 916.095 222.242   4
  -5  -5   1 555.285 200.003   3
  -5  -5   0 4455.60 433.268   4
  -5  -5   0 4863.32 559.485   3
  -5  -5  -1 25407.8 1367.58   3
  -5  -5  -2 101941. 2866.60   3
   5   5   3 41737.6 1383.12   4
  -5  -5  -3 43045.8 1926.10   3
   5   5   4 46213.6 1596.60   4
  -5  -5  -4 43612.3 1993.74   3
  -5  -5  -5 6544.92 774.581   3
  -5  -5  -6 25373.6 1644.21   3
  -5  -5  -7 15313.1 1367.66   3
  -5  -5  -8 20556.4 1629.10   3
  -5  -5  -9 51.5095 97.1187   3
   5   5   9 240.289 240.168   2
   5   5  10-427.649 422.246   2
   5   5  11 446.917 292.768   2
   5   5  12 3326.11 847.436   2
   5   5  13 305.129 366.687   2
  -5  -6  10-30.5170 596.014   2
  -5  -6   9 280.557 410.996   2
  -5  -6   8 206.123 168.202   2
  -5  -6   7 4358.71 934.849   2
  -5  -6   6 3917.63 677.532   2
  -5  -6   5 4218.03 652.746   2
  -5  -6   4 502.995 164.422   3
  -5  -6   3 266.685 161.046   3
  -5  -6   2 124.336 76.1709   4
  -5  -6   2 347.621 198.893   3
  -5  -6   1 1510.07 266.241   4
  -5  -6   1 1222.61 295.577   3
  -5  -6   0 390.241 128.337   4
  -5  -6   0 190.360 164.136   3
  -5  -6  -1 12854.3 1043.84   3
  -5  -6  -2 16510.2 1231.68   3
   5   6   3 43488.9 1236.87   4
  -5  -6  -3 41608.4 2033.22   3
   5   6   4 16533.6 845.265   4
  -5  -6  -4 16258.5 1313.51   3
  -5  -6  -5 56464.9 2516.08   3
  -5  -6  -6 15375.6 1356.51   3
  -5  -6  -7 40416.2 2302.39   3
  -5  -6  -8 29274.9 2026.99   3
  -5  -6  -9 13523.3 1427.82   3
  -5  -6 -10-108.619 118.147   3
   5   6  10 792.551 526.167   2
   5   6  11 20082.7 2333.25   2
   5   6  12 15845.7 2159.53   2
   5   6  13 12673.8 1991.60   2
  -5  -7  10 14172.8 1896.59   2
  -5  -7   9 46898.3 3150.01   2
  -5  -7   8 66603.8 3341.45   2
  -5  -7   7 14730.0 1457.62   2
  -5  -7   6 14112.1 1392.10   3
  -5  -7   5 3476.37 602.674   3
  -5  -7   4 12073.3 1166.36   3
  -5  -7   3 15274.1 1266.40   3
  -5  -7   2 2633.18 357.340   4
  -5  -7   2 2175.44 441.483   3
  -5  -7   1 7012.19 475.429   4
  -5  -7   1 7511.11 858.852   3
  -5  -7   0 5452.47 713.201   3
  -5  -7  -1 2389.78 485.161   3
  -5  -7  -2-6.34189 36.6852   3
  -5  -7  -3 4781.93 744.161   3
  -5  -7  -4 24720.9 1711.41   3
  -5  -7  -5 24194.3 1778.63   3
  -5  -7  -6 22393.5 1746.36   3
  -5  -7  -7 1587.26 452.456   3
  -5  -7  -8 7619.61 1062.47   3
  -5  -7  -9 4610.16 860.788   3
   5   7  10 46319.4 4735.82   2
  -5  -7 -10 14917.7 1585.70   3
   5   7  11 3233.03 1470.15   2
   5   7  12 156.486 601.651   2
  -5  -8   9-288.907 318.944   3
  -5  -8   9 384.672 220.740   2
  -5  -8   8 870.557 400.931   3
  -5  -8   7 203.304 166.143   3
  -5  -8   6-56.3468 179.820   3
  -5  -8   5 93.5229 133.699   3
  -5  -8   4 866.223 321.886   3
  -5  -8   3 1032.02 342.005   3
  -5  -8   2 5151.75 432.975   4
  -5  -8   2 4925.27 753.860   3
  -5  -8   1 340.382 223.089   3
  -5  -8   0 2279.68 474.416   3
  -5  -8  -1 10070.1 1067.16   3
  -5  -8  -2 286.172 181.151   3
  -5  -8  -3 59.2610 126.165   3
  -5  -8  -4 6182.10 923.903   3
  -5  -8  -5 61942.1 3037.17   3
  -5  -8  -6 11236.1 1361.02   3
  -5  -8  -7 28092.0 2139.33   3
  -5  -8  -8 6784.18 1079.29   3
  -5  -8  -9 36141.1 2529.83   3
  -5  -8 -10 14712.1 1634.19   3
   5   8  11 40626.9 5666.00   2
  -5  -8 -11 9816.38 1350.06   3
   5   8  12-1177.60 1083.27   2
  -5  -9   8 16186.1 1627.76   3
  -5  -9   7 25725.3 2013.07   3
  -5  -9   6 45878.8 2548.69   3
  -5  -9   5 21399.3 1703.08   3
  -5  -9   4 21440.6 1702.36   3
  -5  -9   3 1783.63 500.084   3
  -5  -9   2 4464.48 757.931   3
  -5  -9   1 5318.45 784.445   3
  -5  -9   0 2162.77 547.430   3
  -5  -9  -1 2254.33 529.545   3
  -5  -9  -2 12023.9 1277.43   3
  -5  -9  -3 11064.3 1224.26   3
  -5  -9  -4 509.916 266.488   3
  -5  -9  -5 2058.70 618.816   3
  -5  -9  -6 11508.6 1427.38   3
  -5  -9  -7 8540.49 1257.51   3
  -5  -9  -8 6171.83 1104.89   3
  -5  -9  -9 1987.32 668.796   3
  -5  -9 -10 5590.02 1030.22   3
  -5  -9 -11-109.496 94.8369   3
   5   9  11-812.566 767.981   2
  -5 -10   7-137.064 284.483   3
  -5 -10   6 1867.94 560.350   3
  -5 -10   5 5783.72 911.852   3
  -5 -10   4 2633.95 662.770   3
  -5 -10   3 239.950 142.361   3
  -5 -10   2 203.886 244.480   3
  -5 -10   1 4314.72 801.908   3
  -5 -10   0 12320.3 1340.53   3
  -5 -10  -1 812.348 344.004   3
  -5 -10  -2 226.705 161.743   3
  -5 -10  -3 9780.43 1221.04   3
  -5 -10  -4 410.025 257.319   3
  -5 -10  -5 933.790 437.766   3
  -5 -10  -6 88.3662 158.439   3
  -5 -10  -7 25786.8 2321.35   3
  -5 -10  -8 8512.23 1357.96   3
  -5 -10  -9 21998.0 2234.23   3
  -5 -10 -10 5516.99 1067.88   3
  -5 -11   6 24580.3 2084.73   3
  -5 -11   5 14372.8 1568.71   3
  -5 -11   4 37228.3 2519.83   3
  -5 -11   3 24180.5 2067.32   3
  -5 -11   2 37033.4 2571.89   3
  -5 -11   1 2733.12 708.094   3
  -5 -11   0 10139.7 1311.89   3
  -5 -11  -1 366.693 223.922   3
  -5 -11  -2 1444.29 497.401   3
  -5 -11  -3 148.490 297.686   3
  -5 -11  -4 1562.39 542.981   3
  -5 -11  -5 9330.29 1357.23   3
  -5 -11  -6 5682.15 1104.52   3
  -5 -11  -7 3489.51 823.723   3
  -5 -11  -8 3867.80 979.724   3
  -5 -12   4 669.995 368.498   3
  -5 -12   3 3596.46 763.728   3
  -5 -12   2 5631.15 1023.64   3
  -5 -12   1-110.479 173.802   3
  -5 -12   0 388.717 437.938   3
  -5 -12  -1 4240.92 917.913   3
  -5 -12  -2 7634.70 1196.01   3
  -5 -12  -3-116.994 224.354   3
  -5 -12  -4 674.821 394.675   3
  -5 -12  -5 5960.87 1137.72   3
  -5 -12  -6 1693.11 597.240   3
  -5 -13  -1 2311.05 697.845   3
  -5 -13  -2 13305.6 1669.22   3
   6  -9  -2 6305.10 1200.02   1
   6  -9  -2 6956.62 1167.60   5
   6  -9  -1 1526.02 488.890   5
   6  -9  -1 1466.99 487.383   1
   6  -9   0 9667.00 1362.04   5
   6  -9   0 8965.56 1479.01   1
   6  -9   1 12987.4 1765.76   1
   6  -9   1 11706.3 1508.11   5
   6  -9   2 7211.37 1249.84   5
   6  -9   2 6649.38 1252.81   1
   6  -9   3-182.502 215.354   5
   6  -9   3-62.1518 209.311   1
   6  -9   4 5071.75 1061.06   5
   6  -9   4 4363.09 1031.89   1
   6  -9   5 925.491 511.023   5
   6  -9   5 408.043 270.677   1
   6  -8  -4 753.817 428.897   1
  -6   8   4 1244.65 551.137   4
  -6   8   3 6463.81 1172.08   4
   6  -8  -3 5573.72 1046.47   1
   6  -8  -3 7218.08 1082.09   5
   6  -8  -2 734.224 375.665   5
   6  -8  -2 1086.25 355.152   1
   6  -8  -1 11733.5 1388.10   5
   6  -8  -1 13509.6 1680.00   1
   6  -8   0 9524.33 1377.06   1
   6  -8   0 8225.27 1205.75   5
   6  -8   1 1975.34 633.368   5
   6  -8   1 2248.08 702.109   1
   6  -8   2 28794.2 2470.26   1
   6  -8   2 30864.0 2415.86   5
   6  -8   3 6014.84 1081.69   5
   6  -8   3 5768.49 1113.68   1
   6  -8   4 6273.60 1124.88   5
   6  -8   4 6186.51 1095.09   1
   6  -8   5 77.8839 312.926   5
   6  -8   5-220.032 240.992   1
   6  -8   6 10753.6 1498.37   1
   6  -8   6 10872.7 1521.22   5
   6  -8   7 184.261 271.260   5
   6  -8   7 367.846 263.361   1
   6  -8   8 1203.65 472.829   5
   6  -8   8 1014.08 495.868   1
   6  -7  -6 777.191 435.584   1
  -6   7   6 427.822 140.674   4
   6  -7  -5 3127.77 733.789   1
  -6   7   5 5095.33 1005.00   4
   6  -7  -4 3938.75 768.809   5
   6  -7  -4 4033.93 865.018   1
  -6   7   4 3082.26 738.651   4
   6  -7  -3 5809.39 889.799   5
  -6   7   3 6252.12 1125.60   4
   6  -7  -3 6284.10 1003.64   1
   6  -7  -2 1121.68 408.923   5
  -6   7   2 616.955 195.250   4
   6  -7  -2 651.099 345.363   1
   6  -7  -1 39054.6 2606.41   1
   6  -7  -1 39555.4 2451.55   5
   6  -7   0 12017.1 1469.33   1
   6  -7   0 11160.5 1316.50   5
   6  -7   1 2596.07 667.479   5
   6  -7   1 2949.70 742.355   1
   6  -7   2 17521.6 1779.41   1
   6  -7   2 17033.4 1704.63   5
   6  -7   3 8643.54 1253.36   1
   6  -7   3 9331.19 1277.67   5
   6  -7   4 18316.7 1846.41   1
   6  -7   4 22179.8 1966.58   5
   6  -7   5 2037.44 614.813   5
   6  -7   5 2537.77 621.168   1
   6  -7   6 6914.26 1157.48   1
   6  -7   6 6832.54 1177.48   5
   6  -7   7 3360.47 810.802   5
   6  -7   7 3786.40 880.673   1
   6  -7   8 10667.8 1433.28   1
   6  -7   8 10406.1 1482.33   5
   6  -7   9 295.698 215.684   5
   6  -7   9 3.68739 102.562   1
   6  -6  -7 5830.72 963.423   1
  -6   6   7 6515.47 1287.41   4
   6  -6  -6 755.373 330.763   1
  -6   6   6 1328.46 577.899   4
  -6   6   5 7728.63 1281.34   4
   6  -6  -5 7406.11 934.744   5
   6  -6  -5 8032.41 1133.39   1
   6  -6  -4 4185.91 736.013   5
  -6   6   4 4607.79 996.962   4
   6  -6  -4 4338.99 829.000   1
   6  -6  -3 7781.08 1116.68   1
   6  -6  -3 8493.69 998.921   5
  -6   6   3 8090.18 1205.11   4
   6  -6  -2 670.479 247.576   5
  -6   6   2 621.412 275.470   4
   6  -6  -2 1371.94 522.896   1
   6  -6  -1 15133.6 1553.93   1
  -6   6   1 14930.2 1594.04   4
   6  -6  -1 15865.3 1445.80   5
   6  -6   0 11680.5 1342.31   1
   6  -6   0 9638.64 1156.22   5
   6  -6   1 6400.87 1023.57   1
   6  -6   1 6241.51 951.211   5
   6  -6   2 6162.39 921.836   5
   6  -6   2 7705.60 1134.80   1
   6  -6   3 7354.64 1100.94   1
   6  -6   3 8118.03 1114.67   5
   6  -6   4 51148.8 2883.01   1
   6  -6   4 52409.7 2909.48   5
   6  -6   5 1842.65 560.980   5
   6  -6   5 3103.17 688.377   1
   6  -6   6 18859.4 1770.03   1
   6  -6   6 18405.5 1788.63   5
   6  -6   7 234.491 288.147   5
   6  -6   7 220.771 335.258   1
   6  -6   8 6662.60 1111.62   5
   6  -6   8 6247.49 1083.84   1
   6  -6   9 544.632 327.743   5
   6  -6   9 11.8330 79.9049   1
   6  -6  10 6872.44 1137.25   1
   6  -6  10 7296.66 1223.85   5
  -6   5   8 4355.83 1006.36   4
  -6   5   7 8928.19 1480.16   4
   6  -5  -7 9570.91 1167.05   1
   6  -5  -6 2353.32 604.702   1
  -6   5   6 2132.71 712.338   4
   6  -5  -5 10782.4 1260.08   1
  -6   5   5 8920.69 1350.58   4
   6  -5  -5 9736.30 1001.75   5
   6  -5  -4 53.9790 222.552   5
  -6   5   4-98.8741 264.589   4
   6  -5  -4 12.4419 139.859   1
   6  -5  -3 15980.2 1471.59   1
  -6   5   3 16151.4 1687.36   4
   6  -5  -3 16826.4 1356.21   5
   6  -5  -2 1488.51 418.842   5
  -6   5   2 1863.50 581.985   4
   6  -5  -2 1205.22 365.139   1
   6  -5  -1 13890.0 1379.02   1
  -6   5   1 13952.6 1459.21   4
   6  -5  -1 13742.1 1271.51   5
   6  -5   0 1432.13 471.743   1
   6  -5   0 1986.78 494.265   5
   6  -5   1 58162.3 2872.29   1
   6  -5   1 57718.7 2726.67   5
   6  -5   2 2881.97 633.109   5
   6  -5   2 2321.54 578.019   1
   6  -5   3 18589.6 1632.03   1
   6  -5   3 18953.1 1636.24   5
   6  -5   4 19572.2 1672.40   1
   6  -5   4 20700.4 1735.15   5
   6  -5   5 3269.05 700.181   5
   6  -5   5 3796.31 751.041   1
   6  -5   6 14001.1 1431.61   1
   6  -5   6 13838.6 1434.49   5
   6  -5   7 7660.47 1083.21   1
   6  -5   7 8376.27 1175.53   5
   6  -5   8 17882.0 1657.94   1
   6  -5   8 14208.2 1567.25   5
   6  -5   9 2053.51 612.926   5
   6  -5   9 1988.41 586.962   1
   6  -5  10 4422.70 856.930   1
   6  -5  10 5143.62 981.316   5
   6  -5  11 472.099 257.801   5
  -6   4   9 2288.74 798.140   4
  -6   4   9 1339.70 433.886   2
  -6   4   8 1852.02 689.277   4
  -6   4   8 2009.54 565.625   2
  -6   4   7 6265.94 873.923   2
  -6   4   7 7084.27 1323.30   4
   6  -4  -7 6722.46 920.763   1
   6  -4  -6 17631.8 1500.44   1
  -6   4   6 15195.3 1318.98   2
   6  -4  -5 17970.9 1492.32   1
  -6   4   5 16996.8 1293.18   2
  -6   4   5 16970.9 1891.15   4
   6  -4  -5 18452.9 1267.44   5
   6  -4  -4 1445.96 354.925   5
  -6   4   4 1323.19 500.115   4
   6  -4  -4 1818.52 447.877   1
  -6   4   4 1854.58 416.548   2
   6  -4  -3 11226.0 1170.60   1
  -6   4   3 11170.2 866.957   2
  -6   4   3 11511.5 1383.86   4
   6  -4  -3 11959.3 1076.56   5
   6  -4  -2 585.771 223.768   5
  -6   4   2 101.752 195.884   4
   6  -4  -2 966.344 366.030   1
  -6   4   2 599.535 189.082   2
  -6   4   1 22850.3 952.483   2
  -6   4   1 21997.3 1791.93   4
   6  -4  -1 20067.0 1572.10   1
   6  -4  -1 23061.0 1550.31   5
   6  -4   0-68.5787 148.698   5
  -6   4   0-125.340 181.858   4
   6  -4   0-43.6966 61.5773   1
   6  -4   1 30749.9 1964.57   1
   6  -4   1 28276.3 1813.19   5
   6  -4   2 33208.5 2046.25   1
   6  -4   2 35062.7 2015.17   5
   6  -4   3 13096.8 1270.48   1
   6  -4   3 14090.6 1323.59   5
   6  -4   4 8962.51 1055.03   1
   6  -4   4 8752.87 1071.81   5
   6  -4   5 17540.5 1511.89   1
   6  -4   5 16245.6 1480.07   5
   6  -4   6 43884.7 2424.07   1
   6  -4   6 43730.0 2474.80   5
   6  -4   7 5829.82 893.867   5
   6  -4   7 5706.82 882.646   1
   6  -4   8 39470.8 2359.04   1
   6  -4   8 36497.4 2380.43   5
   6  -4   9-93.2411 131.908   5
   6  -4   9 382.370 329.255   1
   6  -4  10 5155.00 939.679   5
   6  -4  10 3010.94 694.784   1
   6  -4  11 374.342 302.449   5
   6  -4  12 11010.0 1521.22   5
  -6   3   9 10081.3 1251.07   2
  -6   3   8 2629.82 883.214   4
  -6   3   8 1998.66 458.991   2
   6  -3  -7 5223.46 752.652   1
  -6   3   7 4830.54 732.782   2
  -6   3   7 5725.95 1247.56   4
  -6   3   6 2076.06 661.421   4
   6  -3  -6 1457.99 396.561   1
  -6   3   6 859.350 320.379   2
  -6   3   5 4443.68 622.943   2
   6  -3  -5 5633.60 795.680   1
  -6   3   5 5539.41 1076.28   4
   6  -3  -5 4631.48 595.720   5
   6  -3  -4 2080.79 404.066   5
  -6   3   4 2072.22 604.547   4
   6  -3  -4 2706.64 541.699   1
  -6   3   4 2374.25 418.031   2
   6  -3  -3 3406.04 531.922   5
  -6   3   3 3116.13 690.629   4
  -6   3   3 2618.79 385.905   2
   6  -3  -3 3020.09 576.102   1
   6  -3  -2 872.916 277.195   5
  -6   3   2 653.278 317.421   4
  -6   3   2 837.637 185.576   2
   6  -3  -2 596.202 268.178   1
  -6   3   1 19681.2 768.073   2
  -6   3   1 20297.9 1665.41   4
   6  -3  -1 19818.8 1490.40   1
   6  -3  -1 22720.5 1436.10   5
  -6   3   0 3440.56 271.750   2
   6  -3   0 2840.98 527.293   5
  -6   3   0 3163.52 648.622   4
   6  -3   0 2995.73 585.218   1
   6  -3   1 32077.5 1899.71   1
   6  -3   1 34731.0 1886.05   5
   6  -3   2 5970.62 803.953   1
   6  -3   2 6450.66 785.129   5
   6  -3   3 41502.7 2187.23   1
   6  -3   3 43276.3 2202.22   5
   6  -3   4 3770.81 690.869   5
   6  -3   4 4266.92 690.373   1
   6  -3   5 58463.8 2616.84   1
   6  -3   5 52974.9 2544.95   5
   6  -3   6 10520.6 1126.54   1
   6  -3   6 9544.90 365.275   3
   6  -3   6 10251.9 1130.90   5
   6  -3   7 3701.74 695.020   5
   6  -3   7 4735.66 548.623   2
   6  -3   8 10525.0 1165.16   1
   6  -3   8 10027.3 1182.57   5
   6  -3   8 13328.8 1891.50   2
   6  -3   9 5985.65 943.934   5
   6  -3   9 6808.76 959.924   1
   6  -3   9 7929.81 2624.44   2
   6  -3  10 18021.2 1563.92   1
   6  -3  10 24913.7 9125.15   2
   6  -3  10 17026.4 1683.34   5
   6  -3  11-189.225 326.319   5
   6  -3  11-283.505 233.683   1
   6  -3  12 1529.29 539.782   5
   6  -3  13 4214.72 882.797   5
  -6   2  10 1379.79 490.488   2
  -6   2   9 726.330 326.264   2
  -6   2   8 10661.8 1169.27   2
   6  -2  -7 2545.85 499.325   1
  -6   2   7 2696.00 510.050   2
  -6   2   6 836.760 398.596   4
  -6   2   6 811.005 267.468   2
  -6   2   5 2602.70 673.953   4
  -6   2   5 3140.32 516.006   2
   6  -2  -5 3688.72 609.236   1
   6  -2  -5 3608.32 490.927   5
  -6   2   4 18208.2 1111.21   2
   6  -2  -4 19578.1 1371.99   1
  -6   2   4 22331.8 1955.56   4
   6  -2  -4 20829.0 1210.53   5
  -6   2   3 25613.4 1219.05   2
  -6   2   3 25842.1 1990.92   4
   6  -2  -3 27318.2 1634.65   1
   6  -2  -3 26936.2 1398.10   5
  -6   2   2 5844.45 517.890   2
  -6   2   2 3855.83 721.492   4
   6  -2  -2 5297.42 728.498   1
  -6   2   2 5159.15 604.363   3
   6  -2  -2 5985.68 668.967   5
  -6   2   1 4269.48 484.948   2
   6  -2  -1 4056.58 553.947   5
  -6   2   1 3655.71 692.561   4
  -6   2   1 3808.30 391.568   3
   6  -2  -1 3556.00 579.771   1
   6  -2   0 2027.08 459.533   1
   6  -2   0 2064.02 438.536   5
  -6   2   0 1721.32 453.054   4
  -6   2   0 2053.44 211.380   3
   6  -2   1 31636.2 1708.65   5
  -6   2  -1 35439.9 2107.22   4
   6  -2   1 31482.3 1793.26   1
   6  -2   2 97.3867 154.734   5
   6  -2   2 58.5685 142.221   1
   6  -2   3 15930.0 1293.70   1
   6  -2   3 16940.5 1316.59   5
   6  -2   4 44372.5 2173.91   1
   6  -2   4 45291.3 2191.25   5
   6  -2   5 21508.3 1519.04   1
   6  -2   5 19747.2 1498.42   5
   6  -2   6 32240.8 1888.42   1
   6  -2   6 30828.9 900.500   3
   6  -2   6 29594.4 1881.15   5
   6  -2   7 20575.4 1546.53   1
   6  -2   7 19378.4 1575.38   5
   6  -2   8 26287.7 1768.45   1
   6  -2   8 25594.7 1884.71   5
   6  -2   8 28679.7 3178.79   2
   6  -2   9 12951.3 1630.11   2
   6  -2   9 13660.4 1318.61   1
   6  -2   9 12920.6 1375.36   5
   6  -2  10 51874.2 3236.76   2
   6  -2  10 49577.1 2553.14   1
   6  -2  10 46661.6 2711.23   5
   6  -2  11 2492.33 663.775   5
   6  -2  11 1995.88 571.799   2
   6  -2  11 2339.75 537.521   1
   6  -2  12 4063.63 778.530   5
   6  -2  12 4732.66 1070.99   2
   6  -2  13 2112.84 526.012   5
   6  -2  13 2258.92 871.837   2
  -6   1  10 14434.0 1724.40   2
  -6   1   9 28742.7 2204.93   2
  -6   1   8 24388.0 1856.48   2
  -6   1   7 6581.68 888.196   2
   6  -1  -7 6698.89 753.879   1
  -6   1   6 8865.60 984.697   2
   6  -1  -6 9381.65 916.217   1
  -6   1   5 23180.5 1517.63   2
  -6   1   5 24533.0 2132.73   4
   6  -1  -5 22833.4 1425.36   1
   6  -1  -5 22049.5 1122.34   5
  -6   1   4 11809.6 1023.50   2
  -6   1   4 10347.3 1315.47   4
   6  -1  -4 10172.2 962.682   1
   6  -1  -4 9917.88 797.672   5
   6  -1  -3 234.668 132.408   1
   6  -1  -3 281.884 145.798   5
  -6   1   3 272.861 112.472   4
  -6   1   3 324.062 225.220   2
   6  -1  -2 2871.13 446.804   5
   6  -1  -2 1980.38 414.186   1
  -6   1   2 2656.82 577.823   4
  -6   1   2 2658.87 545.016   2
   6  -1  -1 2493.73 435.584   5
   6  -1  -1 2206.31 422.690   1
  -6   1   1 2380.79 532.638   4
   6  -1   0 774.238 253.572   5
  -6   1   0 902.950 312.818   4
   6  -1   0 942.287 298.498   1
  -6   1   0 623.281 131.382   3
   6  -1   1 12454.3 1036.39   5
  -6   1  -1 14188.0 1277.82   4
   6  -1   1 12230.6 1078.59   1
   6  -1   2 8862.31 882.387   5
   6  -1   2 9140.82 933.151   1
   6  -1   3 65621.3 2524.63   5
   6  -1   3 64692.2 2512.59   1
   6  -1   4 4563.74 686.396   5
   6  -1   4 4312.37 676.124   1
   6  -1   5 16344.9 1329.23   5
   6  -1   5 18494.9 1378.25   1
   6  -1   5 17182.6 477.969   3
   6  -1   5 15411.7 1774.27   2
   6  -1   6 15476.8 749.488   3
   6  -1   6 13771.3 1212.49   1
   6  -1   6 16983.6 1371.90   5
   6  -1   7 72251.3 1921.33   2
   6  -1   7 69748.7 2783.33   1
   6  -1   7 73991.1 3028.90   5
   6  -1   8 5013.04 567.621   2
   6  -1   8 4332.65 743.536   5
   6  -1   8 4182.33 678.594   1
   6  -1   9 8382.99 813.978   2
   6  -1   9 9703.65 1057.69   1
   6  -1   9 9898.18 1175.20   5
   6  -1  10 11951.7 1060.96   2
   6  -1  10 12820.8 1257.55   1
   6  -1  10 13514.4 1412.94   5
   6  -1  11 2145.13 552.170   1
   6  -1  11 1616.96 493.956   5
   6  -1  11 1256.41 365.380   2
   6  -1  12 11560.7 1238.05   2
   6  -1  12 14073.5 1509.62   5
   6  -1  13 1342.41 433.722   5
   6  -1  13 1742.67 516.456   2
  -6   0  10 44.5765 234.202   2
  -6   0   9 297.294 253.995   2
  -6   0   8 3367.62 791.097   2
   6   0  -7 3274.38 506.571   1
  -6   0   7 4853.81 942.809   2
   6   0  -6 14344.5 1070.88   1
   6   0  -6 14460.4 795.029   5
   6   0  -5 675.334 207.632   5
  -6   0   5 950.750 376.514   2
   6   0  -5 1283.06 326.677   1
  -6   0   4 6629.30 1006.71   4
   6   0  -4 5564.04 669.787   1
  -6   0   4 5169.04 975.698   2
   6   0  -4 5932.66 605.115   5
   6   0  -3 16530.4 1040.03   5
  -6   0   3 18704.1 1585.79   4
   6   0  -3 17802.3 1192.24   1
   6   0  -2 11856.2 903.048   5
  -6   0   2 12272.6 1214.26   4
   6   0  -2 10003.1 730.537   2
   6   0  -2 10644.1 950.282   1
   6   0  -1 14949.7 1059.62   5
  -6   0   1 14166.5 1266.81   4
   6   0  -1 13562.0 753.584   2
   6   0  -1 14336.8 1110.38   1
   6   0   0 16743.0 1167.05   5
  -6   0   0 16768.0 1326.46   4
   6   0   0 13849.6 603.499   2
   6   0   0 17128.9 1219.44   1
  -6   0   0 14617.1 639.022   3
   6   0   1 14883.5 1135.19   5
  -6   0  -1 18846.0 1360.37   4
  -6   0  -1 17156.9 633.475   3
   6   0   1 16394.5 1212.31   1
   6   0   2 4108.83 597.943   5
  -6   0  -2 4065.91 270.696   3
   6   0   2 3830.33 574.578   1
   6   0   3 13199.1 1143.02   5
   6   0   3 12424.2 1085.42   1
   6   0   4 8203.69 923.708   5
   6   0   4 6212.41 304.612   2
   6   0   4 7576.26 360.336   3
   6   0   4 6427.71 770.435   1
   6   0   5 11358.8 1072.90   5
   6   0   5 9771.39 533.404   2
   6   0   5 10962.0 553.812   3
   6   0   5 10363.1 1018.81   1
   6   0   6 27363.2 1790.90   5
   6   0   6 25640.9 1054.19   2
   6   0   6 28763.1 1152.88   3
   6   0   6 27872.9 1676.30   1
   6   0   7 6513.76 881.030   5
   6   0   7 5813.54 560.542   2
   6   0   7 5874.52 613.044   3
   6   0   7 6001.44 822.446   1
   6   0   8 89598.5 3441.53   5
   6   0   8 88313.1 3158.81   1
   6   0   9 12636.1 1310.47   5
   6   0   9 11197.4 952.105   2
   6   0   9 12161.9 1178.17   1
   6   0  10 17506.9 1336.74   2
   6   0  10 22242.3 1641.37   1
   6   0  10 20213.4 1685.51   5
   6   0  11 1053.84 356.555   5
   6   0  11 1362.14 409.572   1
   6   0  11 685.917 306.675   2
   6   0  12 31415.8 2007.43   2
   6   0  12 33484.5 2243.59   5
   6   0  13 6617.65 1014.60   2
   6   0  13 6353.08 988.773   5
   6   0  14 7347.83 1106.59   2
  -6  -1  10 3997.35 1318.53   2
  -6  -1   9 23413.0 3200.66   2
  -6  -1   8 13984.0 2421.90   2
  -6  -1   7 72163.3 5537.63   2
   6   1  -7 79017.4 2333.20   1
  -6  -1   6 24991.1 3464.93   2
   6   1  -6 25027.9 1357.49   1
   6   1  -6 23634.9 1028.55   5
   6   1  -5 8388.34 670.173   5
   6   1  -5 8922.76 814.832   1
   6   1  -4 25704.4 1264.01   5
  -6  -1   4 25955.9 1946.13   4
   6   1  -4 24930.8 1397.63   1
  -6  -1   3 54753.3 2637.41   4
   6   1  -3 52284.7 2010.42   1
   6   1  -2 11659.2 857.855   2
  -6  -1   2 12728.7 1234.87   4
   6   1  -2 12542.9 997.331   1
  -6  -1   2 14611.9 1441.00   2
   6   1  -1 166.375 146.898   1
   6   1  -1-29.1609 69.9235   2
  -6  -1   1-42.6176 58.5790   2
   6   1   0 14748.2 692.398   2
  -6  -1   0 14474.5 1172.72   4
  -6  -1   0 14791.4 713.424   3
   6   1   0 16702.7 1187.05   1
   6   1   1 6273.69 384.971   2
  -6  -1  -1 6767.59 792.065   4
  -6  -1  -1 6743.04 494.247   3
   6   1   1 5863.02 721.086   1
   6   1   2 1184.09 315.231   1
   6   1   2 844.525 291.182   2
  -6  -1  -2 1212.73 196.391   3
  -6  -1  -3 7407.63 542.419   3
   6   1   3 5981.16 733.104   1
   6   1   3 6285.82 380.772   2
   6   1   4 516.225 230.186   1
  -6  -1  -4 742.038 166.120   3
   6   1   4 631.288 159.618   2
   6   1   4 702.817 136.663   3
   6   1   5 83147.9 2074.98   2
   6   1   5 79708.9 1867.81   3
   6   1   5 80240.8 2815.60   1
   6   1   6 10181.2 789.963   2
   6   1   6 9151.55 717.308   3
   6   1   6 8699.47 938.769   1
   6   1   7 15637.9 1094.02   2
   6   1   7 14173.1 1220.09   1
   6   1   8 1591.83 392.919   1
   6   1   8 1092.18 404.281   5
   6   1   8 1660.42 402.150   2
   6   1   9 51026.6 2603.61   5
   6   1   9 44863.2 2156.31   2
   6   1   9 44316.6 2267.19   1
   6   1  10 3475.65 672.626   5
   6   1  10 4503.99 742.278   2
   6   1  10 3988.21 657.807   1
   6   1  11 18075.7 1556.01   5
   6   1  11 16834.1 1509.15   2
   6   1  11 19729.0 1521.84   1
   6   1  12 702.350 328.202   5
   6   1  12 1135.78 349.116   2
   6   1  13 512.010 328.049   5
   6   1  13 150.442 153.355   2
   6   1  14 5002.58 936.731   2
  -6  -2  10 8196.57 3316.34   2
  -6  -2   9 104.982 797.818   2
  -6  -2   8-115.402 1456.00   2
   6   2  -7 473.194 184.290   1
  -6  -2   7-2281.33 2475.38   2
   6   2  -6 626.193 240.002   1
  -6  -2   6 591.445 2236.32   2
  -6  -2   5 2820.89 2424.89   2
   6   2  -5 1071.81 255.059   1
  -6  -2   4 1820.87 962.077   2
   6   2  -4 3447.73 508.296   1
   6   2  -3 672.523 245.716   1
  -6  -2   3 1048.64 361.461   4
  -6  -2   3 113.076 171.648   2
  -6  -2   2 25217.5 1626.32   4
   6   2  -2 23873.2 1388.02   1
  -6  -2   2 25632.6 1361.05   2
   6   2  -1 16589.3 895.990   2
  -6  -2   1 17620.2 1304.76   4
  -6  -2   1 16645.1 936.604   3
   6   2  -1 16420.3 1176.72   1
  -6  -2   0 1430.21 339.446   4
   6   2   0 1602.63 286.946   2
  -6  -2   0 1615.07 260.769   3
   6   2   0 1238.19 312.387   1
  -6  -2  -1 21071.5 1296.26   4
  -6  -2  -1 20622.1 963.844   3
   6   2   1 18645.0 1305.40   1
  -6  -2  -2 19317.5 941.510   3
   6   2   2 21756.1 1310.56   2
  -6  -2  -3 30023.4 1190.48   3
   6   2   3 31841.3 1152.97   3
   6   2   4 772.355 281.408   1
  -6  -2  -4 424.596 169.083   3
   6   2   4 437.375 131.377   3
  -6  -2  -5 33301.0 1581.75   3
   6   2   5 30087.6 1259.27   3
   6   2   5 30056.8 1751.58   1
   6   2   6 19036.9 1097.69   2
  -6  -2  -6 18873.9 1197.05   3
   6   2   6 18782.9 1413.83   1
   6   2   7 8405.99 804.496   2
   6   2   7 10576.4 1063.95   1
   6   2   8 7411.75 850.650   2
   6   2   8 6379.66 847.100   1
   6   2   9 16087.7 1353.67   2
   6   2   9 15204.5 1326.52   1
   6   2  10 92823.2 3448.86   2
   6   2  10 91115.4 3277.55   1
   6   2  11 5072.59 796.409   5
   6   2  11 5467.22 880.145   2
   6   2  11 5720.58 810.167   1
   6   2  12 20226.8 1623.19   5
   6   2  12 18429.5 1643.25   2
   6   2  13 266.033 202.795   5
   6   2  13 281.090 315.195   2
   6   2  14 16310.8 1707.21   2
  -6  -3  10 30406.7 11550.2   2
  -6  -3   9 24449.9 12297.5   2
  -6  -3   8 25301.5 14091.6   2
  -6  -3   7 47932.9 13090.2   2
  -6  -3   6 12474.5 3785.77   2
   6   3  -6 17625.1 1100.47   1
   6   3  -5 117773. 2894.70   1
  -6  -3   5 107358. 6810.86   2
   6   3  -4 12553.0 974.399   1
  -6  -3   4 16280.6 1782.55   2
  -6  -3   3 23988.9 1631.14   4
   6   3  -3 22294.9 1340.22   1
  -6  -3   3 27048.7 1600.73   2
  -6  -3   2 18878.2 1368.37   4
  -6  -3   2 20298.3 1273.00   3
   6   3  -2 18282.4 1257.40   1
  -6  -3   1 57353.6 2249.03   4
   6   3  -1 57718.9 2265.13   1
   6   3   0 7925.62 853.961   1
  -6  -3   0 8187.25 779.565   4
  -6  -3   0 7996.68 647.656   3
   6   3   1 5104.66 695.260   1
  -6  -3  -1 4795.76 583.573   4
  -6  -3  -1 4476.91 499.830   3
  -6  -3  -2 3583.07 453.393   3
   6   3   2 3087.38 560.739   1
   6   3   2 3109.32 390.560   2
   6   3   3 5710.71 772.601   1
  -6  -3  -3 5188.50 543.448   3
  -6  -3  -4 167.496 127.991   3
   6   3   4 330.289 235.981   1
  -6  -3  -5 6508.48 737.140   3
   6   3   5 6681.09 845.165   1
  -6  -3  -6 654.733 284.512   3
   6   3   6 267.246 81.3702   1
   6   3   7 50513.5 2397.03   1
  -6  -3  -7 46721.2 2209.86   3
   6   3   8 8497.86 887.529   2
   6   3   8 10396.9 1125.03   1
   6   3   9 15958.5 1299.42   2
   6   3   9 19252.9 1514.55   1
   6   3  10 1734.67 431.890   1
   6   3  10 1841.87 482.234   2
   6   3  11 15062.7 1433.18   2
   6   3  11 14769.5 1321.42   1
   6   3  12 4105.13 745.663   5
   6   3  12 3086.58 703.584   2
   6   3  13 11837.2 1403.40   2
   6   3  14 510.530 248.503   2
  -6  -4  10-1435.84 452.556   2
  -6  -4   9 1610.46 1080.59   2
  -6  -4   8 11951.8 3290.02   2
  -6  -4   7 600.338 218.671   2
   6   4  -6 16.0108 89.4557   1
  -6  -4   6-529.545 681.966   2
  -6  -4   5 2428.55 701.456   2
   6   4  -5 1272.79 297.569   1
  -6  -4   4 2376.00 525.961   2
   6   4  -4 1987.06 422.378   1
  -6  -4   3 782.456 281.899   4
   6   4  -3 651.310 217.315   1
  -6  -4   3 219.410 100.113   2
  -6  -4   2 447.301 214.112   4
   6   4  -2 445.991 174.188   1
  -6  -4   2 236.591 123.134   3
  -6  -4   1 276.509 130.967   4
  -6  -4   1 100.485 104.382   3
  -6  -4   0 30344.7 1404.46   4
  -6  -4   0 29211.9 1346.95   3
  -6  -4  -1-0.23130 45.4909   3
  -6  -4  -2 2.35777 42.5052   3
  -6  -4  -3 4485.36 579.173   3
  -6  -4  -4 3532.99 509.375   3
  -6  -4  -5 7922.70 833.990   3
  -6  -4  -6 217.878 204.231   3
  -6  -4  -7 14263.3 1279.92   3
   6   4   8 26203.5 1690.02   2
  -6  -4  -8 27938.4 1862.70   3
   6   4   9 6639.82 918.115   1
   6   4   9 6551.39 877.218   2
   6   4  10 3886.42 663.062   1
   6   4  10 3143.39 645.582   2
   6   4  11 11547.5 1291.16   2
   6   4  11 11939.8 1218.66   1
   6   4  12 46917.6 2788.26   2
   6   4  12 46347.0 2356.22   1
   6   4  13 4985.87 915.188   2
  -6  -5  10 14415.0 3039.53   2
  -6  -5   9 8088.81 2009.27   2
  -6  -5   8 24173.1 3030.25   2
  -6  -5   7 51657.2 3619.45   2
   6   5  -6 29418.8 1519.23   1
  -6  -5   6 35184.2 2514.22   2
   6   5  -5 35805.3 1767.03   1
  -6  -5   5 33403.9 1966.28   2
  -6  -5   4 28862.4 1843.72   3
  -6  -5   4 19529.5 1329.36   2
  -6  -5   3 99213.1 3105.95   4
  -6  -5   3 101953. 3122.45   3
  -6  -5   2 32146.9 1630.67   4
  -6  -5   2 29013.1 1531.93   3
  -6  -5   1 64681.8 2111.90   4
  -6  -5   1 55600.2 2027.99   3
  -6  -5   0 10402.3 772.260   4
  -6  -5   0 10469.4 865.424   3
  -6  -5  -1 23129.3 1340.49   3
  -6  -5  -2 28284.6 1541.14   3
   6   5   3 11469.9 866.538   4
  -6  -5  -3 12851.6 1063.75   3
  -6  -5  -4 2.31314 123.621   3
  -6  -5  -5 729.693 275.220   3
  -6  -5  -6 1138.61 374.739   3
  -6  -5  -7 13352.5 1260.00   3
  -6  -5  -8-41.2460 74.1232   3
   6   5   9 15679.1 1593.92   2
  -6  -5  -9 12289.5 1326.90   3
   6   5  10 2534.28 695.543   2
   6   5  11 19728.4 1599.59   1
   6   5  11 22221.4 1962.30   2
   6   5  12 2744.57 604.596   1
   6   5  12 4110.25 896.045   2
   6   5  13 5673.50 1133.47   2
  -6  -6   9 319.457 412.871   2
  -6  -6   8 746.813 434.183   2
  -6  -6   7 5226.77 947.756   2
   6   6  -6 5769.54 729.650   1
  -6  -6   6 4636.35 797.104   2
  -6  -6   5 355.102 286.972   3
  -6  -6   4 1665.32 433.104   3
  -6  -6   3 588.309 244.824   4
  -6  -6   3 655.501 220.805   3
  -6  -6   2 11692.2 934.551   4
  -6  -6   2 11294.0 1012.21   3
  -6  -6   1 2192.16 348.144   4
  -6  -6   1 2107.65 440.647   3
  -6  -6   0 104.941 26.8311   4
  -6  -6   0 159.163 177.801   3
  -6  -6  -1 1606.43 374.496   3
  -6  -6  -2 18853.4 1351.49   3
   6   6   3 525.722 161.070   4
  -6  -6  -3 291.353 183.960   3
   6   6   4 3126.95 438.742   4
  -6  -6  -4 2915.86 561.844   3
  -6  -6  -5-127.870 85.2636   3
  -6  -6  -6 259.564 205.497   3
  -6  -6  -7 7952.11 1009.03   3
  -6  -6  -8 1170.87 347.285   3
  -6  -6  -9 216.313 235.891   3
   6   6  10 21151.7 2384.56   2
  -6  -6 -10 13218.6 1458.66   3
   6   6  11 6804.24 1363.47   2
   6   6  12 10242.4 1699.20   2
   6   6  13 1872.42 761.193   2
  -6  -7   9 4288.44 855.006   2
  -6  -7   8 2993.66 706.838   2
  -6  -7   7 3249.36 732.349   3
  -6  -7   7 1785.76 423.834   2
  -6  -7   6 7573.97 1027.24   3
  -6  -7   5 54975.0 2601.86   3
  -6  -7   4 17575.2 1431.56   3
  -6  -7   3 52831.9 2083.03   4
  -6  -7   3 50911.4 2326.57   3
  -6  -7   2 26536.1 1298.05   4
  -6  -7   2 24218.6 1595.96   3
  -6  -7   1 61512.8 1699.23   4
  -6  -7   1 53029.8 2338.89   3
  -6  -7   0 13115.8 1115.23   3
  -6  -7  -1 102437. 3230.16   3
  -6  -7  -2 16467.8 1346.03   3
  -6  -7  -3 11765.6 1152.14   3
  -6  -7  -4 6990.89 942.694   3
  -6  -7  -5 7750.38 1024.78   3
  -6  -7  -6 4788.19 831.761   3
  -6  -7  -7 2249.02 568.905   3
  -6  -7  -8 97.9651 146.194   3
  -6  -7  -9 15166.2 1563.44   3
  -6  -7 -10 1169.14 428.988   3
   6   7  10 1484.03 854.254   2
   6   7  11 5430.39 1700.13   2
   6   7  12-242.518 441.506   2
  -6  -8   8 8647.13 1298.92   3
  -6  -8   7 536.681 317.315   3
  -6  -8   6 2676.51 601.786   3
  -6  -8   5 6860.19 958.236   3
  -6  -8   4 479.020 217.732   3
  -6  -8   3 1308.56 290.872   4
  -6  -8   3 446.362 188.304   3
  -6  -8   2 2591.60 362.803   4
  -6  -8   2 3909.25 664.613   3
  -6  -8   1 178.674 191.492   3
  -6  -8   0 6769.86 874.853   3
  -6  -8  -1-210.716 149.639   3
  -6  -8  -2 4493.33 719.600   3
  -6  -8  -3 5830.25 861.557   3
  -6  -8  -4 2348.31 525.839   3
  -6  -8  -5 106.358 119.983   3
  -6  -8  -6 6971.39 1084.25   3
  -6  -8  -7 1162.58 449.826   3
  -6  -8  -8 1111.52 419.361   3
  -6  -8  -9 6874.38 1123.83   3
  -6  -8 -10 4701.57 947.274   3
  -6  -8 -11 305.255 291.854   3
   6   8  11 4586.10 2033.05   2
  -6  -9   7 6699.46 1036.37   3
  -6  -9   6 3014.74 666.208   3
  -6  -9   5 2546.56 613.697   3
  -6  -9   4 3231.86 654.737   3
  -6  -9   3 41578.0 2379.26   3
  -6  -9   2 14920.7 1426.79   3
  -6  -9   1 70579.5 3085.27   3
  -6  -9   0 15742.8 1471.42   3
  -6  -9  -1 33489.0 2129.89   3
  -6  -9  -2 6554.43 935.882   3
  -6  -9  -3 92081.0 3595.75   3
  -6  -9  -4 8501.56 1125.24   3
  -6  -9  -5 14314.3 1516.61   3
  -6  -9  -6 850.742 408.744   3
  -6  -9  -7 2688.26 734.165   3
  -6  -9  -8 1336.87 587.175   3
  -6  -9  -9 3350.39 815.827   3
  -6  -9 -10 413.997 179.890   3
  -6  -9 -11 7545.44 1268.18   3
   6   9  11 40681.7 6913.23   2
  -6 -10   6 1105.75 375.797   3
  -6 -10   5 359.353 80.7359   3
  -6 -10   4 6251.76 991.303   3
  -6 -10   3 595.612 292.180   3
  -6 -10   2 270.567 181.875   3
  -6 -10   1 3226.19 712.266   3
  -6 -10   0 1530.23 477.557   3
  -6 -10  -1 822.277 350.017   3
  -6 -10  -2 1072.13 386.328   3
  -6 -10  -3 2163.84 572.587   3
  -6 -10  -4 11948.0 1414.92   3
  -6 -10  -5 1910.65 596.928   3
  -6 -10  -6 30.5666 74.6003   3
  -6 -10  -7 307.124 202.018   3
  -6 -10  -8 2358.59 706.053   3
  -6 -10  -9 152.987 42.6296   3
  -6 -11   5 2926.15 669.280   3
  -6 -11   4 8000.08 1203.96   3
  -6 -11   3 8937.87 1296.02   3
  -6 -11   2 318.510 121.998   3
  -6 -11   1 21756.2 1978.50   3
  -6 -11   0 15585.8 1635.22   3
  -6 -11  -1 62245.4 3271.40   3
  -6 -11  -2 7312.03 1105.68   3
  -6 -11  -3 22132.8 1948.04   3
  -6 -11  -4 7230.23 1167.01   3
  -6 -11  -5 41020.3 2838.34   3
  -6 -11  -6 2786.20 741.571   3
  -6 -11  -7 16309.3 1933.88   3
  -6 -11  -8 1510.39 592.837   3
  -6 -12   2 2346.26 632.357   3
  -6 -12   1 209.464 310.547   3
  -6 -12   0 436.947 392.423   3
  -6 -12  -1-12.4981 99.2081   3
  -6 -12  -2 245.738 222.173   3
  -6 -12  -3 751.327 413.443   3
  -6 -12  -4 911.722 497.327   3
  -6 -12  -5-97.5190 171.548   3
  -6 -12  -6 8885.44 1445.34   3
   7  -8  -2 23609.9 2036.27   5
   7  -8  -2 24831.5 2282.98   1
   7  -8  -1 4267.32 902.672   5
   7  -8  -1 3711.77 923.786   1
   7  -8   0 10336.7 1465.05   1
   7  -8   0 7945.38 1242.37   5
   7  -8   1 4489.89 933.491   5
   7  -8   1 4462.06 1006.57   1
   7  -8   2 29271.2 2536.40   1
   7  -8   2 29679.9 2442.01   5
   7  -8   3 1301.58 499.485   5
   7  -8   3 1640.62 638.697   1
   7  -8   4 6000.66 1133.35   5
   7  -8   4 5857.12 1123.94   1
   7  -8   5 3136.52 794.118   5
   7  -8   5 2289.18 729.208   1
  -7   7   4 4909.63 984.422   4
   7  -7  -4 3828.64 853.489   1
   7  -7  -3 2651.48 628.805   5
  -7   7   3 3748.07 907.821   4
   7  -7  -3 2421.64 667.692   1
   7  -7  -2 3026.59 709.706   5
  -7   7   2 2539.21 735.649   4
   7  -7  -2 3258.44 769.592   1
   7  -7  -1 2154.91 602.408   5
   7  -7  -1 1937.82 589.168   1
   7  -7   0 82.3360 92.6991   5
   7  -7   0 305.801 288.183   1
   7  -7   1 66.3432 38.7473   5
   7  -7   1 199.978 249.757   1
   7  -7   2 14646.1 1719.17   1
   7  -7   2 16632.2 1747.05   5
   7  -7   3 2216.15 642.044   5
   7  -7   3 2145.84 671.377   1
   7  -7   4 5098.11 972.660   5
   7  -7   4 4047.12 917.674   1
   7  -7   5-189.125 344.520   5
   7  -7   5 97.2116 341.362   1
   7  -7   6 6923.75 1203.12   5
   7  -7   6 10194.1 1446.82   1
   7  -7   7 591.465 355.475   5
   7  -7   7 623.593 350.591   1
   7  -7   8 19489.3 2056.79   1
   7  -7   8 21964.2 2192.29   5
  -7   6   5 12872.2 1753.02   4
   7  -6  -5 11931.0 1459.28   1
   7  -6  -4 1003.06 355.721   5
  -7   6   4 2151.65 748.385   4
   7  -6  -4 1776.46 587.593   1
   7  -6  -3 1356.50 452.885   5
  -7   6   3 2079.85 664.689   4
   7  -6  -3 1031.16 446.303   1
   7  -6  -2 9860.32 1303.85   1
  -7   6   2 10179.7 1441.90   4
   7  -6  -2 10023.6 1194.37   5
   7  -6  -1 7984.28 1179.43   1
   7  -6  -1 6861.24 997.274   5
   7  -6   0 36052.6 2521.69   1
   7  -6   0 33476.9 2248.78   5
   7  -6   1 12205.8 1478.76   1
   7  -6   1 10244.5 1275.38   5
   7  -6   2 19442.4 1856.19   1
   7  -6   2 22028.0 1875.15   5
   7  -6   3 331.663 168.407   5
   7  -6   3 512.122 331.605   1
   7  -6   4 29955.2 2340.13   1
   7  -6   4 31143.4 2338.90   5
   7  -6   5 2634.47 712.519   5
   7  -6   5 2877.24 743.079   1
   7  -6   6 13745.8 1608.28   1
   7  -6   6 12468.6 1591.05   5
   7  -6   7 6378.29 1124.33   5
   7  -6   7 6335.05 1100.43   1
   7  -6   8 3348.96 818.738   5
   7  -6   8 3837.60 875.010   1
   7  -6   9 5310.06 1082.09   5
   7  -6   9 4912.30 984.039   1
   7  -5  -6 9439.34 1249.41   1
  -7   5   6 10514.4 1654.81   4
   7  -5  -5 9918.41 1256.67   1
  -7   5   5 9331.33 1473.00   4
   7  -5  -4 7679.58 1101.12   1
  -7   5   4 8789.13 1400.04   4
   7  -5  -4 7444.29 954.286   5
  -7   5   3-74.0453 180.234   4
   7  -5  -3-7.84283 119.360   1
   7  -5  -2 12812.3 1403.52   1
  -7   5   2 11385.7 1432.88   4
   7  -5  -2 12554.3 1258.09   5
   7  -5  -1 3299.31 662.086   5
  -7   5   1 4351.22 902.261   4
   7  -5  -1 3833.42 736.681   1
   7  -5   0 9071.72 1206.39   1
   7  -5   0 8625.64 1071.20   5
   7  -5   1 14572.8 1481.51   1
   7  -5   1 14254.2 1431.18   5
   7  -5   2-69.3253 170.377   5
   7  -5   2-133.595 150.064   1
   7  -5   3 17.6556 152.124   5
   7  -5   3 11.5278 85.5450   1
   7  -5   4 8247.06 1132.49   1
   7  -5   4 9359.53 1203.30   5
   7  -5   5 6410.27 1020.54   5
   7  -5   5 6767.08 1014.87   1
   7  -5   6 25764.9 2090.73   1
   7  -5   6 27579.2 2123.08   5
   7  -5   7 54.8826 171.292   5
   7  -5   7-40.1328 231.423   1
   7  -5   8 9370.08 1272.61   1
   7  -5   8 7896.61 1234.63   5
   7  -5   9 40.0155 309.345   5
   7  -5   9 370.863 318.715   1
   7  -5  10 32390.9 2507.01   1
   7  -5  10 28790.2 2495.47   5
  -7   4   7 2683.38 838.223   4
  -7   4   6 2874.85 802.249   4
   7  -4  -6 2273.64 573.891   1
   7  -4  -5 8690.55 1106.42   1
  -7   4   5 11361.5 1610.73   4
   7  -4  -4 3579.14 620.058   5
  -7   4   4 2648.59 794.431   4
   7  -4  -4 3532.23 716.436   1
   7  -4  -3 10287.9 1209.48   1
  -7   4   3 9981.88 1370.29   4
   7  -4  -3 11591.8 1128.47   5
   7  -4  -2 6669.93 980.296   1
  -7   4   2 8392.89 1229.49   4
   7  -4  -2 7764.37 935.522   5
  -7   4   1 5669.58 1025.88   4
   7  -4  -1 5550.39 877.400   1
   7  -4  -1 6171.80 860.261   5
  -7   4   0 7749.59 1156.11   4
   7  -4   0 7417.96 1017.56   1
   7  -4   0 6373.70 901.309   5
   7  -4   1 2870.82 583.597   5
   7  -4   1 3311.16 700.698   1
   7  -4   2 35461.3 2253.69   1
   7  -4   2 34963.7 2163.45   5
   7  -4   3 33934.1 2233.13   1
   7  -4   3 35382.5 2196.70   5
   7  -4   4 40674.1 2431.92   1
   7  -4   4 40998.6 2419.60   5
   7  -4   5 117.496 63.7246   5
   7  -4   5 244.737 162.555   1
   7  -4   6 23040.1 1885.37   1
   7  -4   6 21636.7 1845.61   5
   7  -4   7 4302.72 820.582   5
   7  -4   7 2931.18 707.073   1
   7  -4   8 19504.7 1786.04   1
   7  -4   8 17534.1 1746.15   5
   7  -4   9 4746.37 924.442   5
   7  -4   9 4856.01 894.647   1
   7  -4  10 5295.61 1019.75   5
   7  -4  10 6881.56 1117.18   1
   7  -4  11 5291.40 1059.52   5
   7  -4  11 7208.10 1133.74   1
  -7   3   8 498.454 271.164   4
  -7   3   7 10443.7 1753.83   4
   7  -3  -6 9506.11 1109.88   1
  -7   3   6 11312.4 1720.82   4
  -7   3   5-207.595 396.971   4
   7  -3  -5 840.172 364.387   1
   7  -3  -4 46836.7 2447.49   1
  -7   3   4 49431.0 3211.90   4
   7  -3  -4 49649.1 2173.10   5
  -7   3   3 19137.0 1905.05   4
   7  -3  -3 18439.1 1525.92   1
   7  -3  -3 19292.0 1381.19   5
   7  -3  -2 3383.96 581.636   5
  -7   3   2 3592.48 802.980   4
   7  -3  -2 4066.19 668.950   1
   7  -3  -1 429.118 256.000   5
  -7   3   1 807.020 352.494   4
   7  -3  -1 640.899 299.015   1
  -7   3   0 36567.3 2392.89   4
   7  -3   0 34774.8 2105.54   1
   7  -3   0 34381.9 1952.38   5
   7  -3   1 2690.14 549.630   5
   7  -3   1 3167.65 644.479   1
   7  -3   2 8891.88 1048.65   1
   7  -3   2 11152.8 1148.51   5
   7  -3   3 24625.5 1803.77   1
   7  -3   3 24935.1 1778.51   5
   7  -3   4 1533.31 444.522   5
   7  -3   4 1233.51 430.694   1
   7  -3   5 345.332 166.713   5
   7  -3   5 679.674 259.808   1
   7  -3   6 555.717 280.763   5
   7  -3   6 769.707 342.797   1
   7  -3   7 7004.70 1002.66   1
   7  -3   7 7385.84 1065.54   5
   7  -3   8 30232.0 2129.25   1
   7  -3   8 29767.5 2224.67   5
   7  -3   9 1012.22 420.421   5
   7  -3   9 819.825 361.820   1
   7  -3  10 8762.97 1187.35   1
   7  -3  10 9367.59 1323.57   5
   7  -3  11-213.524 309.446   5
   7  -3  11 285.227 338.321   1
   7  -3  12 13259.3 1651.81   5
  -7   2   8 15131.4 2129.53   4
  -7   2   7 7131.70 1007.76   2
  -7   2   7 9869.59 1686.64   4
   7  -2  -6 4633.45 741.402   1
  -7   2   6 3971.69 963.259   4
  -7   2   6 3908.38 716.273   2
   7  -2  -5 487.257 177.555   5
  -7   2   5 753.769 445.470   4
  -7   2   5 642.983 259.497   2
   7  -2  -5 380.805 253.113   1
   7  -2  -4 1270.27 332.301   5
  -7   2   4 1521.96 548.375   4
  -7   2   4 2412.54 498.917   2
   7  -2  -4 1777.66 449.881   1
  -7   2   3 26442.0 1726.11   2
  -7   2   3 22959.0 1989.54   4
   7  -2  -3 21265.6 1562.39   1
   7  -2  -3 21123.1 1360.51   5
   7  -2  -2 1062.50 335.940   5
  -7   2   2 1403.81 523.758   4
   7  -2  -2 1506.24 437.830   1
  -7   2   1 4751.71 832.613   4
   7  -2  -1 5047.36 704.477   5
   7  -2  -1 4553.94 752.071   1
  -7   2   0 18426.4 1640.43   4
   7  -2   0 18079.9 1449.99   1
   7  -2   0 18247.9 1383.97   5
   7  -2   1 4599.16 699.954   5
   7  -2   1 4731.97 761.612   1
   7  -2   2 9512.69 1094.38   1
   7  -2   2 9513.20 1025.58   5
   7  -2   3 1605.04 420.052   5
   7  -2   3 1739.36 483.026   1
   7  -2   4 21581.6 1623.26   1
   7  -2   4 21226.3 1618.35   5
   7  -2   5 16566.9 1446.01   1
   7  -2   5 15564.5 1419.10   5
   7  -2   6 53578.3 2646.45   1
   7  -2   6 53511.6 2700.10   5
   7  -2   7 247.180 162.067   1
   7  -2   7 277.436 179.276   5
   7  -2   8 14946.0 1456.11   1
   7  -2   8 16623.7 1633.68   5
   7  -2   9 3908.01 723.847   1
   7  -2   9 2701.19 658.177   5
   7  -2  10 18428.3 1671.72   1
   7  -2  10 17017.6 1732.64   5
   7  -2  11 1948.62 594.361   5
   7  -2  11 1422.56 503.119   1
   7  -2  12 5675.91 1055.44   5
  -7   1   9 9772.74 1550.02   2
  -7   1   8 3316.39 964.271   4
  -7   1   8 3300.45 885.923   2
  -7   1   7 5757.53 1312.96   4
  -7   1   7 6250.08 1115.54   2
  -7   1   6 2328.61 712.885   4
  -7   1   6 1596.21 497.784   2
   7  -1  -6 2847.25 546.246   1
  -7   1   5 16316.4 1854.02   2
  -7   1   5 17764.0 1923.57   4
   7  -1  -5 16953.6 1354.74   1
   7  -1  -5 16801.4 1096.12   5
  -7   1   4 11969.2 1723.98   2
  -7   1   4 13504.9 1612.05   4
   7  -1  -4 11246.5 1114.91   1
   7  -1  -4 11864.2 941.990   5
   7  -1  -3 1913.11 441.402   1
   7  -1  -3 2034.85 404.192   5
  -7   1   3 1717.13 522.351   4
  -7   1   3 1066.18 771.433   2
  -7   1   2 94967.7 3803.01   4
   7  -1  -2 90682.4 3122.08   1
  -7   1   2 88303.2 7260.10   2
   7  -1  -2 91120.8 2798.72   5
  -7   1   1 26375.9 1925.10   4
   7  -1  -1 26134.1 1690.46   1
  -7   1   1 29274.1 982.622   2
   7  -1  -1 26824.4 1569.81   5
  -7   1   0 8598.91 1098.46   4
   7  -1   0 8350.45 967.751   1
  -7   1   0 8786.50 434.629   3
   7  -1   0 8092.84 895.201   5
   7  -1   1 1304.44 383.830   5
  -7   1  -1 1091.33 355.893   4
   7  -1   1 1333.30 385.138   1
   7  -1   2 15839.2 1311.89   5
   7  -1   2 17224.4 1405.76   1
   7  -1   3 1661.96 402.684   5
   7  -1   3 1663.02 426.977   1
   7  -1   4 13144.8 1243.48   5
   7  -1   4 11853.1 1155.62   1
   7  -1   5 21360.0 1584.96   1
   7  -1   5 19487.6 1563.23   5
   7  -1   6 1029.58 384.964   5
   7  -1   6 723.940 298.092   2
   7  -1   6 1212.20 348.516   1
   7  -1   7 4238.41 766.133   5
   7  -1   7 4201.68 750.369   1
   7  -1   7 4503.15 755.121   2
   7  -1   8 507.128 309.778   5
   7  -1   8 494.196 254.223   1
   7  -1   8 512.998 169.983   2
   7  -1   9 5553.25 719.310   2
   7  -1   9 4197.27 823.523   5
   7  -1   9 3968.35 730.520   1
   7  -1  10 31472.5 2183.84   1
   7  -1  10 31253.0 2306.18   5
   7  -1  11 3122.33 685.524   1
   7  -1  11 2706.96 636.542   5
   7  -1  12 9920.42 1317.72   5
   7  -1  13 502.184 367.584   5
  -7   0   9 4870.48 1475.17   2
  -7   0   8 11862.9 2284.03   2
  -7   0   7 2209.46 744.641   2
  -7   0   6 15439.5 1886.06   4
   7   0  -6 14629.0 1212.32   1
  -7   0   6 12211.7 2584.75   2
  -7   0   5 8897.89 1294.00   4
   7   0  -5 7399.01 853.604   1
  -7   0   5 5587.70 1967.74   2
   7   0  -5 8154.49 734.407   5
  -7   0   4 11871.9 1425.24   4
   7   0  -4 10382.2 1010.28   1
   7   0  -4 11740.9 929.103   5
   7   0  -3 201.225 161.535   5
   7   0  -3 214.253 127.692   1
  -7   0   3 745.192 406.670   4
  -7   0   3-462.801 1229.91   2
   7   0  -2 3764.91 554.467   5
  -7   0   2 1997.57 492.576   4
   7   0  -2 2391.49 373.390   2
   7   0  -2 3759.51 615.244   1
  -7   0   2 4574.97 730.728   2
   7   0  -1 3688.02 564.960   5
  -7   0   1 4079.51 768.981   4
   7   0  -1 3518.38 364.931   2
   7   0  -1 3694.11 612.017   1
   7   0   0 915.023 278.769   5
  -7   0   0 891.006 348.454   4
   7   0   0 985.535 325.297   1
  -7   0   0 791.455 163.317   3
   7   0   1 1609.48 393.014   5
  -7   0  -1 1052.45 363.788   4
  -7   0  -1 1297.38 194.262   3
   7   0   1 1630.58 443.356   1
   7   0   2 18223.2 1396.14   5
   7   0   2 18795.3 1424.66   1
   7   0   3 13416.2 1214.57   5
   7   0   3 12824.1 1157.68   1
   7   0   4 18643.5 1490.74   5
   7   0   4 17125.5 1372.56   1
   7   0   5 3980.11 256.629   2
   7   0   5 4029.02 693.369   5
   7   0   5 4138.16 662.800   1
   7   0   6 10019.1 1160.97   5
   7   0   6 9517.90 549.416   2
   7   0   6 9957.66 533.936   3
   7   0   6 9459.55 1079.56   1
   7   0   7 10995.4 1272.50   5
   7   0   7 9736.10 654.654   2
   7   0   7 10714.5 1145.74   1
   7   0   8 44557.3 1664.25   2
   7   0   8 48835.9 2544.80   1
   7   0   9 5028.16 592.491   2
   7   0   9 4679.75 853.972   5
   7   0   9 4146.68 739.624   1
   7   0  10 9183.39 887.224   2
   7   0  10 11073.0 1265.08   1
   7   0  10 9521.00 1239.23   5
   7   0  11 7555.89 880.899   2
   7   0  11 7831.91 1069.65   1
   7   0  11 7624.95 1087.22   5
   7   0  12 10491.3 1178.79   2
   7   0  12 12630.4 1441.51   5
   7   0  13 3227.50 676.573   5
  -7  -1   9 2207.15 1923.35   2
  -7  -1   8 8572.09 3815.23   2
  -7  -1   7 16992.4 6087.93   2
  -7  -1   6 5642.24 1112.62   4
   7   1  -6 5012.78 687.714   1
  -7  -1   6 7426.06 5098.03   2
  -7  -1   5 8792.25 1274.66   4
  -7  -1   5 7869.67 4805.04   2
   7   1  -5 8059.15 846.363   1
   7   1  -5 8031.69 718.454   5
   7   1  -4 11331.2 909.944   5
  -7  -1   4 13113.9 1486.14   4
   7   1  -4 11117.9 1023.25   1
   7   1  -3 10850.3 951.708   5
  -7  -1   3 10294.7 1233.18   4
   7   1  -3 9696.70 962.464   1
  -7  -1   3 13730.9 1676.52   2
  -7  -1   2 27649.6 1947.17   4
   7   1  -2 29238.4 1655.11   1
  -7  -1   2 29713.3 1422.94   2
  -7  -1   1 6266.65 883.774   4
   7   1  -1 5930.93 561.696   2
  -7  -1   1 6150.39 565.031   3
   7   1  -1 6318.15 806.670   1
   7   1   0 131408. 2297.47   2
  -7  -1   0 119234. 3752.34   4
  -7  -1   0 115080. 2177.56   3
   7   1   0 127092. 3587.75   1
   7   1   1 25450.3 840.007   2
  -7  -1  -1 28671.0 1766.23   4
  -7  -1  -1 28899.7 1074.76   3
   7   1   1 25265.1 1623.92   1
  -7  -1  -2 79701.5 1672.00   3
   7   1   2 76947.2 2855.13   1
   7   1   3 4719.41 534.960   2
  -7  -1  -3 4973.34 440.520   3
   7   1   3 4443.48 700.767   1
   7   1   4 13580.8 635.835   2
  -7  -1  -4 13640.7 702.849   3
   7   1   4 12898.8 1181.03   1
   7   1   4 12704.2 555.084   2
   7   1   5 3232.02 592.269   1
   7   1   5 3291.46 373.861   2
   7   1   5 2910.55 300.419   3
   7   1   6 19795.3 1048.29   2
   7   1   6 17924.3 890.018   3
   7   1   6 17164.7 1419.96   1
   7   1   7 13809.5 1422.22   5
   7   1   7 12412.8 899.615   2
   7   1   7 12241.9 1248.64   1
   7   1   8 573.448 172.615   5
   7   1   8 930.543 256.732   2
   7   1   8 596.946 310.765   1
   7   1   9 6389.88 994.421   5
   7   1   9 5506.39 717.276   2
   7   1   9 5680.90 859.074   1
   7   1  10 848.921 359.940   5
   7   1  10 786.445 319.666   2
   7   1  10 736.735 326.176   1
   7   1  11 2968.28 676.896   5
   7   1  11 2778.05 626.902   1
   7   1  11 2536.09 544.402   2
   7   1  12 12286.9 1279.39   2
   7   1  12 13768.5 1362.29   1
   7   1  12 11412.4 1340.83   5
   7   1  13 1903.98 552.371   5
   7   1  13 1760.79 492.638   2
  -7  -2   9 1046.12 4620.54   2
  -7  -2   8 39236.5 18194.9   2
  -7  -2   7 29684.0 13220.2   2
  -7  -2   6 29545.7 7247.30   2
   7   2  -6 30863.0 1638.55   1
  -7  -2   5 14704.6 1605.78   4
  -7  -2   5 12081.2 2659.19   2
   7   2  -5 15364.4 1166.46   1
  -7  -2   4 9489.07 1163.32   4
   7   2  -4 8037.69 856.302   1
  -7  -2   4 9808.52 1519.04   2
  -7  -2   3 6062.06 903.515   4
   7   2  -3 6921.48 786.628   1
  -7  -2   3 6466.11 835.025   2
  -7  -2   2 17288.8 1483.13   4
   7   2  -2 16133.4 1242.27   1
  -7  -2   2 12709.2 850.056   2
  -7  -2   1 10682.0 1093.99   4
  -7  -2   1 9794.42 736.477   3
   7   2  -1 10843.6 1048.72   1
   7   2   0 6822.90 567.792   2
  -7  -2   0 9570.11 979.261   4
  -7  -2   0 8028.16 624.980   3
   7   2   0 7591.37 905.973   1
  -7  -2  -1 1055.32 360.217   4
   7   2   1 1185.70 229.812   2
   7   2   1 720.943 190.976   1
  -7  -2  -1 740.022 186.746   3
   7   2   2 213.178 401.333   2
   7   2   2 337.518 196.141   1
  -7  -2  -2 277.742 130.386   3
   7   2   3 1105.85 294.283   2
  -7  -2  -3 843.391 200.290   3
   7   2   3 504.213 227.023   1
  -7  -2  -4 13982.3 933.423   3
   7   2   4 12868.7 750.605   3
   7   2   4 11433.8 1108.29   1
  -7  -2  -5 11937.5 899.806   3
   7   2   5 10759.6 692.903   3
   7   2   5 9404.87 1048.88   1
   7   2   6 12805.1 877.597   2
  -7  -2  -6 13175.9 955.823   3
   7   2   6 15014.8 1340.86   1
   7   2   7 3852.97 530.909   2
   7   2   7 2743.02 584.809   1
   7   2   8 10038.0 969.469   2
   7   2   8 9422.41 1086.07   1
   7   2   9 5607.78 800.033   2
   7   2   9 4961.41 809.448   1
   7   2  10 21781.7 1829.94   5
   7   2  10 25666.8 1804.13   2
   7   2  10 22790.9 1780.51   1
   7   2  11 5743.31 954.933   5
   7   2  11 5949.13 907.760   2
   7   2  11 5547.90 870.702   1
   7   2  12 9046.24 1160.77   5
   7   2  12 9927.69 1207.62   2
   7   2  12 9332.65 1099.82   1
   7   2  13 1164.70 405.236   5
   7   2  13 1270.44 471.938   2
  -7  -3   9 6940.11 3736.94   2
  -7  -3   8 10029.9 3725.34   2
  -7  -3   7 1815.93 298.943   2
  -7  -3   6-628.430 642.643   2
   7   3  -6 379.480 170.698   1
  -7  -3   5 11315.0 1360.60   4
   7   3  -5 10339.1 936.244   1
   7   3  -4 126.307 68.2449   1
  -7  -3   4 428.320 245.298   4
  -7  -3   4 493.745 344.495   2
  -7  -3   3 15343.1 1432.87   4
   7   3  -3 13025.3 1102.51   1
  -7  -3   3 11926.0 957.910   2
  -7  -3   2 25489.7 1753.25   4
  -7  -3   2 27265.1 1461.83   3
   7   3  -2 26542.6 1640.20   1
  -7  -3   1 2973.17 559.008   4
  -7  -3   1 2957.35 438.674   3
   7   3  -1 3712.16 624.686   1
  -7  -3   0 15116.4 1199.53   4
  -7  -3   0 13784.9 906.683   3
   7   3   0 15767.7 1313.98   1
  -7  -3  -1 5074.86 690.117   4
   7   3   1 3997.77 1109.84   2
  -7  -3  -1 4198.53 491.806   3
   7   3   1 4531.41 714.214   1
  -7  -3  -2 94302.7 2525.13   3
   7   3   2 90163.5 3209.50   1
  -7  -3  -3 23536.6 1237.67   3
   7   3   3 22905.4 1104.00   2
   7   3   3 24370.7 1675.08   1
  -7  -3  -4 119122. 2951.27   3
   7   3   4 126697. 3910.16   1
  -7  -3  -5 2856.86 492.250   3
   7   3   5 2697.22 596.658   1
  -7  -3  -6 29531.0 1675.68   3
   7   3   6 26696.5 1845.40   1
   7   3   7 5595.67 645.827   2
  -7  -3  -7 6019.36 776.267   3
   7   3   7 7096.45 938.838   1
   7   3   8 12398.2 1037.73   2
   7   3   8 14947.8 1429.20   1
   7   3   9 5851.94 776.760   2
   7   3   9 5690.57 886.840   1
   7   3  10 5942.69 840.979   2
   7   3  10 5134.51 840.386   1
   7   3  11 4980.70 810.726   2
   7   3  11 5194.96 872.381   1
   7   3  12 3752.91 762.821   5
   7   3  12 3801.58 719.977   1
   7   3  12 3597.07 751.676   2
   7   3  13 1306.99 452.603   5
   7   3  13 1017.71 454.500   2
  -7  -4   9-808.078 1008.13   2
  -7  -4   8 22821.9 3310.38   2
  -7  -4   7 3355.45 1129.39   2
   7   4  -6 12284.2 1015.62   1
  -7  -4   6 15441.3 1808.97   2
   7   4  -5 11223.9 998.893   1
  -7  -4   5 12376.3 1317.59   2
  -7  -4   4 53518.5 2704.81   4
   7   4  -4 54083.6 2259.77   1
  -7  -4   4 46823.2 2144.28   2
  -7  -4   3 15039.2 1353.36   4
  -7  -4   3 13508.2 1142.95   3
   7   4  -3 15123.5 1232.43   1
  -7  -4   2 7748.09 914.420   4
  -7  -4   2 7589.85 777.135   3
   7   4  -2 7475.44 880.149   1
  -7  -4   1 5206.05 684.432   4
   7   4  -1 5053.99 722.520   1
  -7  -4   1 3815.47 508.131   3
   7   4   0 13253.5 1214.98   1
  -7  -4   0 13057.2 1038.95   4
  -7  -4   0 11107.2 877.572   3
   7   4   1 7303.69 933.298   1
  -7  -4  -1 7581.69 748.475   3
   7   4   2 10309.4 1112.34   1
  -7  -4  -2 12168.6 973.558   3
   7   4   3 407.506 248.988   1
  -7  -4  -3 230.406 180.298   3
   7   4   4 105.884 197.333   1
  -7  -4  -4 57.4044 43.8733   3
   7   4   5 4913.30 805.492   1
  -7  -4  -5 4691.08 665.785   3
   7   4   6 6652.71 970.580   1
  -7  -4  -6 6899.70 847.620   3
   7   4   7 206.128 171.655   1
  -7  -4  -7 298.442 195.899   3
   7   4   8 6488.05 949.958   1
   7   4   8 6035.36 802.964   2
  -7  -4  -8 7058.38 942.637   3
   7   4   9 5182.43 766.674   2
   7   4   9 4964.86 870.278   1
   7   4  10 7659.29 982.663   2
   7   4  10 8759.35 1138.54   1
   7   4  11 598.234 295.421   1
   7   4  11 169.605 55.0701   2
   7   4  12 8082.26 1152.57   2
   7   4  12 7473.67 1004.11   1
   7   4  13 252.720 209.767   5
   7   4  13 188.038 200.900   2
  -7  -5   9 770.307 528.613   2
  -7  -5   8 13362.4 1928.37   2
  -7  -5   7 5492.65 1027.36   2
   7   5  -6 21109.2 1377.20   1
  -7  -5   6 17474.7 1562.41   2
  -7  -5   5 3041.90 601.664   2
   7   5  -5 4032.54 649.984   1
  -7  -5   4 1697.66 476.706   4
   7   5  -4 1454.40 396.844   1
  -7  -5   4 1369.20 343.787   3
   7   5  -3 5059.81 761.908   1
  -7  -5   3 5196.63 790.079   4
  -7  -5   3 4338.23 639.463   3
  -7  -5   2 91.4437 84.3182   4
  -7  -5   2 135.907 67.0468   3
  -7  -5   1 20578.5 1322.93   4
  -7  -5   1 18180.1 1234.62   3
  -7  -5   0 23912.5 1338.33   4
  -7  -5   0 22475.7 1359.07   3
  -7  -5  -1 2544.10 447.917   3
  -7  -5  -2 32735.3 1726.86   3
  -7  -5  -3 1138.88 319.827   3
  -7  -5  -4 16513.3 1280.18   3
  -7  -5  -5 22223.8 1534.15   3
  -7  -5  -6 117416. 3695.86   3
  -7  -5  -7 339.303 166.340   3
  -7  -5  -8 14095.4 1365.19   3
   7   5   9 7166.10 1082.62   1
   7   5   9 7042.08 1038.19   2
  -7  -5  -9 7688.42 1050.21   3
   7   5  10 6000.90 1002.13   1
   7   5  10 7920.66 1120.50   2
   7   5  11 2492.38 681.730   1
   7   5  11 3540.89 795.694   2
   7   5  12 4310.18 805.968   1
   7   5  12 6109.79 1051.97   2
   7   5  13 3655.11 885.148   2
  -7  -6   8 8069.22 1199.07   2
  -7  -6   7 716.734 454.126   2
  -7  -6   6 18656.4 1725.28   3
  -7  -6   6 13551.6 1288.36   2
   7   6  -5 1800.76 432.858   1
  -7  -6   5 957.121 335.585   3
   7   6  -4 13066.3 1210.95   1
  -7  -6   4 13670.6 1273.51   4
  -7  -6   4 12868.2 1190.36   3
  -7  -6   3 510.656 264.179   4
  -7  -6   3 386.473 192.539   3
  -7  -6   2 48214.9 2118.17   4
  -7  -6   2 44085.4 2059.97   3
  -7  -6   1 18350.1 1168.03   4
  -7  -6   1 18717.0 1319.38   3
  -7  -6   0 13134.3 939.935   4
  -7  -6   0 11508.8 1031.33   3
  -7  -6  -1 263.583 192.359   3
  -7  -6  -2 5210.30 728.231   3
  -7  -6  -3 2307.79 465.382   3
  -7  -6  -4 7480.73 908.481   3
  -7  -6  -5 643.774 266.285   3
  -7  -6  -6 318.796 220.725   3
  -7  -6  -7 21870.0 1735.19   3
  -7  -6  -8 2474.16 629.613   3
  -7  -6  -9 310.094 231.093   3
  -7  -6 -10 3060.95 704.350   3
   7   6  10 4899.60 1092.60   2
   7   6  11 4020.61 808.108   1
   7   6  11 7015.72 1285.18   2
   7   6  12 3466.02 770.450   1
   7   6  12 4283.95 1018.44   2
  -7  -7   8 14953.0 1742.94   3
  -7  -7   7 471.676 381.767   3
  -7  -7   6 8430.30 1140.15   3
  -7  -7   5 1067.48 333.928   4
  -7  -7   5 1236.80 413.487   3
  -7  -7   4 24209.4 1631.30   4
  -7  -7   4 20474.7 1562.99   3
  -7  -7   3 6749.59 790.960   4
  -7  -7   3 5609.04 826.059   3
  -7  -7   2 384.755 130.533   4
  -7  -7   2 343.343 165.532   3
  -7  -7   1 360.721 197.435   4
  -7  -7   1 412.818 233.048   3
  -7  -7   0 8322.55 935.118   3
  -7  -7  -1 17576.3 1390.91   3
  -7  -7  -2 29417.5 1835.07   3
  -7  -7  -3 1493.66 408.753   3
  -7  -7  -4 54745.5 2672.12   3
  -7  -7  -5-107.181 190.539   3
  -7  -7  -6 16380.1 1556.47   3
  -7  -7  -7 9698.72 1205.77   3
  -7  -7  -8 70834.7 3370.32   3
  -7  -7  -9 529.755 330.875   3
  -7  -7 -10 19239.5 1831.58   3
   7   7  11 6008.52 1787.33   2
   7   7  12 6421.36 1718.34   2
  -7  -8   7 5334.64 942.321   3
  -7  -8   6 7730.04 1071.82   3
  -7  -8   5 2300.95 578.916   3
  -7  -8   4 13219.8 1315.90   3
  -7  -8   3 1226.15 343.515   3
  -7  -8   2 15548.4 1405.38   3
  -7  -8   1 1689.77 444.565   3
  -7  -8   0 25594.3 1777.11   3
  -7  -8  -1 23468.4 1687.51   3
  -7  -8  -2 14943.4 1359.49   3
  -7  -8  -3 251.626 91.8579   3
  -7  -8  -4 4681.18 827.595   3
  -7  -8  -5 1464.32 501.751   3
  -7  -8  -6 1500.59 481.975   3
  -7  -8  -7 4105.50 822.171   3
  -7  -8  -8 1908.63 584.861   3
  -7  -8  -9 12922.1 1565.95   3
  -7  -8 -10 1912.54 605.164   3
  -7  -8 -11 750.336 379.371   3
   7   8  11 8523.52 3119.24   2
  -7  -9   6 31164.1 2230.63   3
  -7  -9   5 276.980 212.183   3
  -7  -9   4 6994.47 994.450   3
  -7  -9   3-71.8496 180.817   3
  -7  -9   2 25631.1 1917.64   3
  -7  -9   1 5600.97 879.303   3
  -7  -9   0 3554.93 729.026   3
  -7  -9  -1 155.171 143.744   3
  -7  -9  -2 3760.69 739.550   3
  -7  -9  -3 9939.86 1220.24   3
  -7  -9  -4 20157.4 1763.87   3
  -7  -9  -5 929.823 378.389   3
  -7  -9  -6 32383.6 2436.10   3
  -7  -9  -7 150.032 63.5301   3
  -7  -9  -8 25254.4 2242.27   3
  -7  -9  -9 2914.77 757.537   3
  -7  -9 -10 19105.2 2008.16   3
  -7 -10   5 7146.60 1110.33   3
  -7 -10   4 5676.73 974.404   3
  -7 -10   3 6524.16 1051.76   3
  -7 -10   2 8175.32 1144.09   3
  -7 -10   1 825.910 350.274   3
  -7 -10   0 15314.9 1575.84   3
  -7 -10  -1 1588.68 465.410   3
  -7 -10  -2 8897.49 1180.88   3
  -7 -10  -3 1382.35 453.191   3
  -7 -10  -4 10597.7 1345.70   3
  -7 -10  -5 1172.01 476.507   3
  -7 -10  -6 3918.99 878.315   3
  -7 -10  -7 1391.24 615.684   3
  -7 -10  -8 124.932 146.952   3
  -7 -10  -9 4983.06 1044.27   3
  -7 -11   3 55.5847 29.7570   3
  -7 -11   2 9212.80 1306.37   3
  -7 -11   1 679.017 334.189   3
  -7 -11   0 3050.43 735.828   3
  -7 -11  -1 1112.65 420.359   3
  -7 -11  -2 8949.80 1236.36   3
  -7 -11  -3 479.072 315.290   3
  -7 -11  -4 4037.06 874.594   3
  -7 -11  -5 2282.47 656.801   3
  -7 -11  -6 9640.24 1438.63   3
  -7 -11  -7 328.503 448.918   3
  -7 -12   0 3460.54 858.095   3
  -7 -12  -1 15.1518 112.186   3
  -7 -12  -2 10037.0 1403.50   3
  -7 -12  -3-17.9033 309.871   3
  -7 -12  -4 2769.22 749.804   3
   8  -7  -1 1372.27 504.510   5
   8  -7  -1 1703.24 523.286   1
   8  -7   0 3378.95 727.576   5
   8  -7   0 2607.97 697.106   1
   8  -7   1 5859.31 1057.08   5
   8  -7   1 6443.66 1158.40   1
   8  -7   2-32.1474 143.877   5
   8  -7   2-322.341 312.919   1
   8  -7   3 4688.33 977.977   5
   8  -7   3 4880.25 1052.45   1
   8  -7   4 427.934 185.107   5
   8  -7   4 808.061 525.370   1
   8  -7   5-104.217 212.585   5
   8  -7   5 245.294 76.8592   1
   8  -6  -3 13726.9 1622.49   1
  -8   6   3 11865.1 1696.54   4
   8  -6  -3 13043.2 1441.08   5
   8  -6  -2 1292.56 459.677   5
  -8   6   2 1872.25 620.690   4
   8  -6  -2 905.760 467.636   1
   8  -6  -1 2557.48 638.080   5
   8  -6  -1 3293.95 770.476   1
   8  -6   0 1934.12 588.461   5
   8  -6   0 3273.25 821.861   1
   8  -6   1 4877.74 908.628   5
   8  -6   1 6076.68 1066.66   1
   8  -6   2 116.958 99.9006   5
   8  -6   2 29.1862 90.3732   1
   8  -6   3 4920.51 964.830   5
   8  -6   3 4789.07 979.071   1
   8  -6   4 501.698 282.242   5
   8  -6   4 311.702 79.8361   1
   8  -6   5 4351.28 925.949   5
   8  -6   5 3882.27 883.016   1
   8  -6   6 239.332 121.067   5
   8  -6   6 1092.11 457.248   1
   8  -6   7 18561.5 1994.93   1
   8  -6   7 19820.9 2010.98   5
   8  -5  -4 9493.52 1291.84   1
  -8   5   4 10596.2 1585.64   4
  -8   5   3 1490.86 547.475   4
   8  -5  -3 1265.00 489.697   1
   8  -5  -2 11069.4 1415.34   1
  -8   5   2 11402.2 1594.86   4
   8  -5  -2 10910.5 1246.69   5
   8  -5  -1 1037.64 353.548   5
  -8   5   1 601.501 168.740   4
   8  -5  -1 884.797 451.301   1
   8  -5   0-139.179 164.530   5
   8  -5   0 80.6314 186.143   1
   8  -5   1 4521.64 848.283   5
   8  -5   1 3817.67 780.158   1
   8  -5   2 5023.89 938.016   1
   8  -5   2 6030.04 1011.16   5
   8  -5   3 14636.5 1607.09   1
   8  -5   3 13901.0 1535.68   5
   8  -5   4 698.157 380.962   5
   8  -5   4 712.950 425.877   1
   8  -5   5 8295.13 1244.84   1
   8  -5   5 8910.47 1267.03   5
   8  -5   6-143.813 158.374   5
   8  -5   6 564.412 415.553   1
   8  -5   7 3005.49 693.759   5
   8  -5   7 3529.82 861.588   1
   8  -5   8 4491.90 978.336   5
   8  -5   8 4127.83 918.554   1
   8  -5   9-93.5470 156.389   5
   8  -5   9-366.895 349.680   1
  -8   4   6 3959.48 1070.63   4
   8  -4  -6 3164.02 714.122   1
   8  -4  -5 14300.6 1542.02   1
  -8   4   5 13789.0 1914.41   4
  -8   4   4 2174.69 687.531   4
   8  -4  -4 1719.55 472.767   1
   8  -4  -3 20640.4 1822.43   1
  -8   4   3 20885.1 2167.65   4
   8  -4  -3 19550.6 1565.69   5
  -8   4   2 4186.24 921.420   4
   8  -4  -2 5163.34 903.955   1
   8  -4  -2 5487.79 860.413   5
  -8   4   1 28476.6 2361.10   4
   8  -4  -1 26060.4 2026.27   1
   8  -4  -1 25635.8 1876.09   5
   8  -4   0 2316.90 546.281   5
   8  -4   0 2670.36 660.334   1
   8  -4   1 1723.37 491.019   5
   8  -4   1 1631.47 561.303   1
   8  -4   2 2258.89 605.041   5
   8  -4   2 2434.12 654.926   1
   8  -4   3 2732.81 638.486   5
   8  -4   3 2406.34 653.731   1
   8  -4   4-31.6721 66.0666   5
   8  -4   4 495.217 329.141   1
   8  -4   5 6120.75 1003.60   5
   8  -4   5 5080.75 890.974   1
   8  -4   6 2020.24 552.072   5
   8  -4   6 2484.24 635.993   1
   8  -4   7 12112.3 1455.08   1
   8  -4   7 13500.6 1605.14   5
   8  -4   8-14.0751 106.341   5
   8  -4   8 30.9026 204.807   1
   8  -4   9 8990.83 1328.07   1
   8  -4   9 8634.11 1331.17   5
   8  -4  10 252.450 242.256   5
   8  -4  10 551.760 321.879   1
  -8   3   6 3490.20 955.813   4
   8  -3  -6 2540.71 622.738   1
  -8   3   5 1066.03 390.432   4
   8  -3  -5 1316.98 506.335   1
   8  -3  -4 15085.6 1478.00   1
  -8   3   4 14367.7 1813.78   4
   8  -3  -4 14204.0 1237.67   5
  -8   3   3 6816.40 1199.20   4
   8  -3  -3 6224.08 918.074   1
   8  -3  -3 6787.94 877.794   5
  -8   3   2 11729.4 1545.43   4
   8  -3  -2 12385.5 1359.38   1
   8  -3  -2 13603.6 1278.90   5
  -8   3   1 9448.26 1339.97   4
   8  -3  -1 9938.95 1190.98   1
   8  -3  -1 8347.01 1021.47   5
   8  -3   0 4613.46 765.119   5
  -8   3   0 5370.93 1023.70   4
   8  -3   0 5276.87 888.327   1
   8  -3   1 510.618 234.295   5
   8  -3   1 852.336 339.822   1
   8  -3   2 1857.05 517.013   5
   8  -3   2 805.719 393.718   1
   8  -3   3 7921.02 1105.34   1
   8  -3   3 8351.51 1097.58   5
   8  -3   4 1208.61 417.947   5
   8  -3   4 1027.88 409.006   1
   8  -3   5 20211.9 1787.75   1
   8  -3   5 22106.2 1851.65   5
   8  -3   6 2438.04 630.301   5
   8  -3   6 1883.73 527.293   1
   8  -3   7 8329.74 1136.56   1
   8  -3   7 8053.24 1199.58   5
   8  -3   8 20.6361 226.766   5
   8  -3   8 789.608 438.910   1
   8  -3   9 10751.2 1399.75   1
   8  -3   9 10794.5 1481.99   5
   8  -3  10 933.934 457.616   5
   8  -3  10 932.927 395.904   1
   8  -3  11 713.170 448.412   5
   8  -3  11 1123.47 479.195   1
  -8   2   7 2357.38 878.320   4
  -8   2   6-93.0100 65.5999   4
   8  -2  -6 463.935 267.581   1
   8  -2  -5 30831.6 2083.71   1
  -8   2   5 36870.5 3035.69   4
   8  -2  -4 3165.46 551.658   5
  -8   2   4 3702.66 932.552   4
   8  -2  -4 3981.68 720.550   1
  -8   2   3 44762.7 2998.83   4
   8  -2  -3 43480.0 2438.88   1
   8  -2  -3 45575.8 2199.75   5
   8  -2  -2 3605.99 649.191   5
  -8   2   2 3415.69 797.786   4
   8  -2  -2 4218.08 739.457   1
  -8   2   1 32765.9 2386.72   4
   8  -2  -1 31365.8 2046.66   1
   8  -2  -1 31294.7 1874.85   5
  -8   2   0 7664.92 1161.10   4
   8  -2   0 6103.10 913.801   1
   8  -2   0 6061.37 836.355   5
   8  -2   1 50781.6 2637.40   1
   8  -2   1 51114.2 2498.33   5
   8  -2   2 2599.89 612.973   1
   8  -2   2 2774.56 596.887   5
   8  -2   3 12107.3 1293.61   1
   8  -2   3 12608.9 1297.14   5
   8  -2   4 5009.55 806.461   5
   8  -2   4 4244.47 779.549   1
   8  -2   5 462.718 254.633   5
   8  -2   5 394.480 73.8612   1
   8  -2   6-94.6067 160.713   1
   8  -2   6-537.487 361.480   5
   8  -2   7 2659.91 655.829   1
   8  -2   7 3035.82 694.811   5
   8  -2   8 1350.96 464.818   1
   8  -2   8 777.624 425.375   5
   8  -2   9 22134.3 1946.05   1
   8  -2   9 23465.2 2087.86   5
   8  -2  10 2456.19 702.229   5
   8  -2  10 3277.51 787.460   1
   8  -2  11 10652.3 1392.06   1
   8  -2  11 12869.3 1638.50   5
  -8   1   7 10201.8 1761.51   4
   8  -1  -6 22866.5 1704.69   1
  -8   1   6 27861.5 2789.28   4
  -8   1   5 3532.03 903.934   4
   8  -1  -5 2434.51 547.406   1
  -8   1   4 4675.36 994.275   4
   8  -1  -4 4031.01 709.559   1
   8  -1  -4 4011.53 612.922   5
   8  -1  -3 346.792 80.1342   5
  -8   1   3 418.810 165.426   4
   8  -1  -3 451.689 244.531   1
  -8   1   2 12376.0 1455.53   4
   8  -1  -2 11534.5 1195.19   1
   8  -1  -2 11948.7 1104.61   5
  -8   1   1 14007.5 1473.56   4
   8  -1  -1 11244.7 1181.73   1
   8  -1  -1 11319.6 1099.73   5
  -8   1   0 40864.2 2546.79   4
   8  -1   0 37966.1 2216.63   1
   8  -1   0 37575.8 2070.02   5
   8  -1   1 21617.7 1694.54   1
   8  -1   1 21265.4 1554.46   5
   8  -1   2 47.9001 251.158   5
   8  -1   2 305.215 335.860   1
   8  -1   3 2149.71 532.115   5
   8  -1   3 2223.05 554.376   1
   8  -1   4 9411.57 1124.96   1
   8  -1   4 8138.18 1032.26   5
   8  -1   5 9594.60 1162.28   1
   8  -1   5 11833.7 1291.56   5
   8  -1   6-113.881 64.3986   5
   8  -1   6 345.351 274.998   1
   8  -1   7 34799.5 2270.95   1
   8  -1   7 35637.5 2399.83   5
   8  -1   8 982.306 321.782   5
   8  -1   8 1049.70 431.239   1
   8  -1   9 4214.06 886.920   5
   8  -1   9 3547.01 695.970   1
   8  -1  10-30.8874 114.172   5
   8  -1  10 68.6435 65.6858   1
   8  -1  11 16841.5 1726.79   1
   8  -1  11 17577.4 1875.19   5
   8  -1  12 369.308 346.213   5
  -8   0   8 1544.37 455.907   4
  -8   0   7 5410.74 1264.55   4
  -8   0   6 1740.89 605.244   4
   8   0  -6 1797.46 459.285   1
  -8   0   5 10207.9 1529.11   4
   8   0  -5 8627.69 1011.20   1
   8   0  -4 171.555 188.270   1
   8   0  -4 54.3306 19.8203   5
  -8   0   4-84.2232 104.643   4
  -8   0   3 13360.7 1579.42   4
   8   0  -3 12359.4 1177.95   1
   8   0  -3 12145.6 1047.88   5
   8   0  -2 321.117 179.115   5
   8   0  -2 59.8691 84.6613   1
  -8   0   2-12.4977 145.984   4
   8   0  -1 95635.1 3160.23   5
  -8   0   1 93443.5 3794.04   4
   8   0  -1 88256.7 3285.79   1
   8   0   0 14877.5 1274.80   5
  -8   0   0 15559.0 1502.95   4
   8   0   0 12848.9 1275.66   1
   8   0   1 28256.4 1813.12   5
   8   0   1 30864.0 1960.68   1
   8   0   2 412.958 188.911   5
   8   0   2 673.946 309.076   1
   8   0   3 60610.7 2760.78   5
   8   0   3 55113.1 2653.93   1
   8   0   4 4823.79 789.438   5
   8   0   4 3559.28 700.109   1
   8   0   5 35850.2 2233.42   5
   8   0   5 36651.7 2213.43   1
   8   0   6 4050.22 792.984   5
   8   0   6 4188.95 764.442   1
   8   0   7 965.887 423.003   5
   8   0   7 424.849 132.684   1
   8   0   8 646.809 391.647   5
   8   0   8 134.235 242.111   1
   8   0   9 327.243 93.3303   5
   8   0   9 1073.63 480.279   1
   8   0  10-66.2298 62.6674   5
   8   0  10 539.308 293.493   1
   8   0  11 6792.58 1053.90   1
   8   0  11 8083.57 1236.40   5
   8   0  12 7594.43 1130.16   1
   8   0  12 8801.38 1269.89   5
  -8  -1   8 105.447 162.023   4
  -8  -1   8 4097.69 4553.35   2
  -8  -1   7 1830.09 694.683   4
  -8  -1   7 286.625 2191.80   2
  -8  -1   6 12.4119 180.903   4
   8   1  -6 4.74261 92.2899   1
  -8  -1   5 18879.1 2031.87   4
   8   1  -5 17301.9 1378.33   1
  -8  -1   5 15295.3 2722.56   2
   8   1  -4 44672.5 1959.62   5
  -8  -1   4 46411.8 2987.80   4
   8   1  -4 47312.5 2264.89   1
   8   1  -3 4190.89 639.752   5
  -8  -1   3 3625.87 747.489   4
   8   1  -3 3911.92 668.349   1
  -8  -1   3 4825.43 652.301   2
   8   1  -2 4064.95 641.558   5
  -8  -1   2 5113.88 902.472   4
   8   1  -2 3321.15 622.046   1
  -8  -1   2 4839.89 612.768   3
   8   1  -1 404.854 176.950   5
  -8  -1   1 629.621 307.385   4
   8   1  -1 9.70347 132.465   1
  -8  -1   1 379.522 129.679   3
  -8  -1   0 9213.00 1098.15   4
  -8  -1   0 8428.85 634.293   3
   8   1   0 9883.78 1079.74   1
  -8  -1  -1 11993.4 720.003   3
   8   1   1 11044.6 1162.70   1
  -8  -1  -2 42516.0 1272.35   3
   8   1   2 46689.2 2414.20   1
   8   1   3 19653.7 1561.32   1
   8   1   4 429.409 201.150   1
   8   1   5 7567.69 1001.90   1
   8   1   6 3909.03 376.293   2
   8   1   6 3577.51 754.009   5
   8   1   6 3994.63 749.258   1
   8   1   7 17081.4 1651.94   5
   8   1   7 16231.1 1508.24   1
   8   1   8 4227.63 862.915   5
   8   1   8 4484.55 817.758   1
   8   1   9 35850.5 2492.90   5
   8   1   9 37170.6 2402.13   1
   8   1  10 690.877 372.717   5
   8   1  10 174.199 179.816   1
   8   1  11 7594.30 1165.76   5
   8   1  11 7800.01 1161.42   1
   8   1  12 4662.45 923.793   5
   8   1  12 4370.95 825.376   1
  -8  -2   8 3201.36 967.329   4
  -8  -2   8 2805.98 1763.82   2
  -8  -2   7 205.123 181.912   4
  -8  -2   7-1504.49 1396.41   2
  -8  -2   6 7505.04 1326.31   4
  -8  -2   6 9024.98 1965.33   2
  -8  -2   5 7928.90 1280.24   4
   8   2  -5 7751.51 907.901   1
  -8  -2   5 9043.34 1416.01   2
   8   2  -4 1599.95 400.996   5
  -8  -2   4 1324.42 449.212   4
  -8  -2   4 2009.23 477.761   2
   8   2  -4 1151.02 348.920   1
  -8  -2   3 26428.6 2042.57   4
   8   2  -3 25014.6 1645.00   1
  -8  -2   3 22602.9 1314.48   2
  -8  -2   2 115.917 213.378   4
   8   2  -2-72.7983 122.726   1
  -8  -2   2 197.409 150.118   3
  -8  -2   1 8914.82 1075.33   4
  -8  -2   1 8224.10 709.691   3
   8   2  -1 8412.10 988.071   1
   8   2   0 5108.42 785.675   1
  -8  -2   0 4125.62 708.951   4
  -8  -2   0 4285.56 489.417   3
  -8  -2  -1 90396.1 2286.55   3
   8   2   1 81530.5 3166.64   1
  -8  -2  -2 37299.0 1442.93   3
   8   2   2 38928.2 2192.33   1
  -8  -2  -3 35008.3 1387.94   3
   8   2   3 33173.6 2071.58   1
   8   2   4 750.009 306.544   1
  -8  -2  -4 1059.94 256.568   3
   8   2   5 12115.0 757.049   2
  -8  -2  -5 13464.3 930.935   3
   8   2   5 14266.9 1351.52   1
   8   2   6 4171.01 495.461   2
   8   2   6 4486.34 799.299   1
   8   2   7 56368.8 2077.99   2
   8   2   7 53362.2 2780.32   1
   8   2   8 4572.53 652.227   2
   8   2   8 3677.29 745.643   1
   8   2   9-79.8490 174.573   5
   8   2   9-84.1751 169.757   2
   8   2  10 708.369 389.384   1
   8   2  10 652.451 284.980   5
   8   2  10 513.463 241.094   2
   8   2  11 17.0972 200.655   5
   8   2  11-0.46374 112.221   2
   8   2  11 310.608 285.600   1
   8   2  12 796.205 373.728   5
   8   2  12 447.679 190.187   1
  -8  -3   8 12326.3 2626.49   2
  -8  -3   7 5146.66 1063.48   4
  -8  -3   7 5232.68 1263.60   2
  -8  -3   6 46.6225 154.875   2
   8   3  -6-14.3504 37.1880   1
  -8  -3   5 6768.65 1152.71   4
   8   3  -5 6044.41 782.012   1
  -8  -3   5 8220.06 1098.52   2
  -8  -3   4 801.766 343.906   4
  -8  -3   4 481.106 220.758   2
   8   3  -4 903.093 338.025   1
  -8  -3   3 18641.4 1703.27   4
  -8  -3   3 18846.2 1364.15   3
   8   3  -3 16889.4 1369.94   1
  -8  -3   2 31116.8 2071.92   4
  -8  -3   2 27274.4 1460.06   3
   8   3  -2 29096.7 1826.23   1
  -8  -3   1 8739.45 1035.53   4
  -8  -3   1 7595.77 726.422   3
   8   3  -1 8376.38 1010.09   1
  -8  -3   0 12998.0 1195.69   4
  -8  -3   0 12999.1 939.480   3
   8   3   0 13806.9 1279.09   1
   8   3   1 1892.41 454.714   1
  -8  -3  -1 1804.67 334.560   3
  -8  -3  -2 522.518 192.498   3
   8   3   2 280.410 56.7525   1
  -8  -3  -3 3254.70 474.047   3
   8   3   3 3308.61 674.987   1
  -8  -3  -4 28909.7 1495.64   3
   8   3   4 29562.8 2009.59   1
  -8  -3  -5 9090.27 894.399   3
   8   3   5 8651.50 1096.78   1
  -8  -3  -6 172.337 134.195   3
   8   3   6-129.689 152.117   1
   8   3   7 7318.12 755.203   2
  -8  -3  -7 7941.87 846.139   3
   8   3   7 8316.65 1093.81   1
   8   3   8 295.888 188.006   1
   8   3   8 680.291 234.341   2
   8   3   9 21691.9 1514.05   2
   8   3   9 22627.2 1909.23   1
   8   3  10 1872.03 546.183   1
   8   3  10 1450.12 417.602   2
   8   3  11 16227.0 1467.33   2
   8   3  11 15641.3 1580.27   1
   8   3  12-105.617 186.355   1
   8   3  12 82.5924 88.2823   5
   8   3  12 254.857 252.107   2
  -8  -4   8 23500.9 2534.48   2
  -8  -4   7 285.713 339.648   4
  -8  -4   7 393.760 311.154   2
  -8  -4   6 2126.29 635.826   4
  -8  -4   6 2149.13 575.882   2
  -8  -4   5 1294.79 486.713   4
  -8  -4   5 622.605 306.522   2
   8   4  -5 848.848 301.052   1
  -8  -4   4 22227.9 1861.46   4
  -8  -4   4 22867.7 1649.00   3
   8   4  -4 22498.3 1581.75   1
  -8  -4   3 6996.20 1001.27   4
  -8  -4   3 7248.49 841.025   3
   8   4  -3 7982.66 965.917   1
  -8  -4   2 1559.73 437.832   4
   8   4  -2 1274.97 350.246   1
  -8  -4   2 740.491 237.363   3
  -8  -4   1 46301.5 2294.73   4
  -8  -4   1 42876.8 1856.34   3
   8   4  -1 49793.5 2505.75   1
  -8  -4   0 182.109 171.182   4
   8   4   0 48.1863 136.055   1
  -8  -4   0 491.237 206.170   3
  -8  -4  -1 26709.9 1491.00   3
   8   4   1 22224.5 1728.03   1
  -8  -4  -2 12572.3 1040.35   3
   8   4   2 11099.5 1236.15   1
  -8  -4  -3 81858.1 2648.07   3
   8   4   3 79849.9 3385.34   1
  -8  -4  -4 25641.9 1511.02   3
   8   4   4 26086.8 1961.23   1
  -8  -4  -5 49844.6 2201.76   3
   8   4   5 51086.4 2812.29   1
  -8  -4  -6 58.6729 184.806   3
   8   4   6 258.977 160.415   1
  -8  -4  -7 9020.58 1027.38   3
   8   4   7 7554.73 1101.14   1
   8   4   8-116.745 157.499   1
  -8  -4  -8 89.3152 223.595   3
   8   4   8 291.151 200.139   2
   8   4   9 31204.1 1871.61   2
   8   4   9 32646.9 2345.61   1
   8   4  10 2827.93 625.193   2
   8   4  10 3281.80 726.523   1
   8   4  11 677.287 310.959   1
   8   4  11 904.047 353.027   2
   8   4  12 1674.94 497.776   1
   8   4  12 1963.51 579.872   2
  -8  -5   8 3649.11 866.325   2
  -8  -5   7 177.307 235.499   4
  -8  -5   7 84.9684 248.682   2
  -8  -5   6 7014.74 1116.15   4
  -8  -5   6 6016.27 881.365   2
  -8  -5   5 1974.86 569.744   4
   8   5  -5 2048.51 460.266   1
  -8  -5   5 1845.60 460.167   3
  -8  -5   4 454.788 326.560   4
   8   5  -4 337.245 126.586   1
  -8  -5   4 660.872 332.393   3
  -8  -5   3 16671.8 1500.12   4
  -8  -5   3 13971.7 1203.05   3
   8   5  -3 15705.4 1395.07   1
  -8  -5   2 727.069 256.812   4
   8   5  -2 1156.04 358.859   1
  -8  -5   2 596.277 239.376   3
   8   5  -1 15573.4 1428.33   1
  -8  -5   1 14042.5 1187.93   4
  -8  -5   1 13981.0 1139.56   3
   8   5   0 10306.4 1153.95   1
  -8  -5   0 9465.17 933.163   4
  -8  -5   0 10114.2 946.705   3
   8   5   1 4939.72 808.754   1
  -8  -5  -1 5641.94 718.083   3
   8   5   2 38342.9 2363.05   1
  -8  -5  -2 38630.9 1936.04   3
   8   5   3 8620.62 1131.11   1
  -8  -5  -3 9001.34 950.992   3
  -8  -5  -4 415.024 263.046   3
   8   5   4 729.997 387.233   1
   8   5   5 1640.95 520.517   1
  -8  -5  -5 2470.96 513.945   3
   8   5   6 23849.0 2004.92   1
  -8  -5  -6 19452.8 1522.09   3
   8   5   7 344.098 314.304   1
  -8  -5  -7 722.170 380.157   3
  -8  -5  -8 1843.08 488.648   3
   8   5   8 1880.43 583.437   1
   8   5   9 11066.6 1411.55   1
   8   5   9 9709.95 1151.12   2
  -8  -5  -9 10313.4 1236.92   3
   8   5  10 2359.09 618.190   1
   8   5  10 2643.05 640.994   2
   8   5  11 18455.4 1746.12   2
   8   5  11 17271.3 1744.34   1
   8   5  12 95.7412 104.611   2
   8   5  12-7.28529 67.4861   1
  -8  -6   7 6035.89 1047.08   4
  -8  -6   7 5508.09 988.641   3
  -8  -6   6 20668.8 1890.41   4
  -8  -6   6 19152.3 1716.34   3
  -8  -6   5 6134.82 1012.61   4
   8   6  -5 6078.27 870.312   1
  -8  -6   5 4520.82 768.014   3
  -8  -6   4 5313.83 862.209   4
   8   6  -4 4144.01 704.598   1
  -8  -6   4 3523.01 661.680   3
  -8  -6   3 1421.47 390.871   4
   8   6  -3 817.253 345.044   1
  -8  -6   3 675.053 273.487   3
   8   6  -2 19402.5 1597.92   1
  -8  -6   2 20550.3 1476.90   4
  -8  -6   2 18730.9 1412.31   3
  -8  -6   1 624.200 220.635   4
   8   6  -1 432.626 145.057   1
  -8  -6   1 792.822 298.505   3
  -8  -6   0 3163.06 578.515   3
  -8  -6  -1 24071.3 1584.10   3
  -8  -6  -2 26.6493 98.8830   3
  -8  -6  -3 21325.5 1555.00   3
  -8  -6  -4 11355.9 1173.80   3
  -8  -6  -5 57770.8 2710.95   3
  -8  -6  -6 8859.80 1075.53   3
  -8  -6  -7 33901.5 2196.30   3
  -8  -6  -8 286.155 222.419   3
   8   6   9 12921.0 1590.61   1
  -8  -6  -9 12880.8 1406.04   3
   8   6  10 164.771 216.200   1
  -8  -6 -10 68.7890 165.797   3
   8   6  10-4.53290 261.201   2
   8   6  11 9126.86 1332.88   1
   8   6  11 12338.7 1651.30   2
   8   6  12 140.408 135.578   1
   8   6  12 160.055 319.348   2
  -8  -7   6 2759.69 643.311   4
  -8  -7   6 2862.41 689.042   3
  -8  -7   5 1744.00 466.182   4
  -8  -7   5 1514.42 480.770   3
   8   7  -5 2329.02 544.746   1
   8   7  -4 9098.69 1107.71   1
  -8  -7   4 9772.50 1109.08   4
  -8  -7   4 7508.82 976.329   3
  -8  -7   3 1919.83 428.586   4
  -8  -7   3 1362.48 400.346   3
  -8  -7   2 1401.94 360.160   4
  -8  -7   2 1767.40 440.272   3
  -8  -7   1 20929.8 1312.89   4
  -8  -7   1 18279.5 1472.08   3
  -8  -7   0 345.584 236.087   3
  -8  -7  -1 14417.3 1292.86   3
  -8  -7  -2 3505.87 640.420   3
  -8  -7  -3 3666.22 681.360   3
  -8  -7  -4 16203.6 1467.06   3
  -8  -7  -5 14774.8 1464.99   3
  -8  -7  -6 2593.79 607.188   3
  -8  -7  -7 5047.83 890.122   3
  -8  -7  -8 3781.88 788.756   3
  -8  -7  -9 314.232 229.841   3
   8   7  10 14653.4 2250.95   2
  -8  -7 -10 5707.68 992.719   3
  -8  -7 -11 5249.08 1008.93   3
   8   7  11 6045.41 1100.69   1
  -8  -8   6 3070.55 687.062   3
   8   8  -5 667.331 289.900   1
  -8  -8   5 507.731 238.662   3
  -8  -8   4 11862.5 1285.61   3
  -8  -8   3 3401.57 689.119   3
  -8  -8   2 16301.4 1472.39   3
  -8  -8   1 210.609 92.4110   3
  -8  -8   0 9989.77 1183.06   3
  -8  -8  -1 4297.26 741.312   3
  -8  -8  -2 5365.35 845.035   3
  -8  -8  -3 3221.31 632.514   3
  -8  -8  -4 319.893 218.308   3
  -8  -8  -5 23417.5 1942.63   3
  -8  -8  -6 5089.67 942.420   3
  -8  -8  -7 23509.9 2070.72   3
  -8  -8  -8 453.491 305.549   3
  -8  -8  -9 16552.7 1774.12   3
  -8  -8 -10 2112.45 633.399   3
  -8  -9   5 521.547 270.140   3
  -8  -9   4 6121.57 990.129   3
  -8  -9   3 4366.80 837.466   3
  -8  -9   2 1641.31 502.988   3
  -8  -9   1 2950.62 715.170   3
  -8  -9   0 2116.59 563.207   3
  -8  -9  -1 15246.3 1489.99   3
  -8  -9  -2 858.696 362.790   3
  -8  -9  -3 14049.6 1476.92   3
  -8  -9  -4 351.601 146.944   3
  -8  -9  -5 5867.96 1024.38   3
  -8  -9  -6 3375.15 802.981   3
  -8  -9  -7 7076.14 1194.66   3
  -8  -9  -8 358.490 301.595   3
  -8  -9  -9 275.703 100.509   3
  -8 -10   3 680.656 342.651   3
  -8 -10   2 5232.15 914.018   3
  -8 -10   1 1642.22 568.269   3
  -8 -10   0 18870.3 1796.52   3
  -8 -10  -1 912.742 399.214   3
  -8 -10  -2 12635.5 1414.02   3
  -8 -10  -3 7523.19 1095.11   3
  -8 -10  -4 3348.09 772.975   3
  -8 -10  -5 1529.44 507.905   3
  -8 -10  -6 1760.95 635.756   3
  -8 -10  -7 12845.8 1730.90   3
  -8 -10  -8 639.937 235.606   3
  -8 -11   1 2660.56 684.145   3
  -8 -11   0 528.185 322.744   3
  -8 -11  -1 12145.7 1521.66   3
  -8 -11  -2 429.725 179.879   3
  -8 -11  -3 5431.51 992.466   3
  -8 -11  -4 1116.43 484.860   3
  -8 -11  -5 12044.4 1546.18   3
  -8 -11  -6 3591.13 918.865   3
   9  -6   2 17951.0 1989.30   1
   9  -6   2 18643.0 1916.58   5
   9  -6   3 53.2790 260.966   5
   9  -6   3 197.483 176.069   1
   9  -5  -2 610.235 305.384   5
  -9   5   2 1161.51 458.965   4
   9  -5  -2 488.780 267.586   1
   9  -5  -1 1865.95 575.971   5
   9  -5  -1 2337.05 640.458   1
   9  -5   0-112.848 144.707   5
   9  -5   0 163.833 45.4133   1
   9  -5   1 26142.4 2275.27   1
   9  -5   1 29004.9 2250.35   5
   9  -5   2 1232.46 484.475   5
   9  -5   2 1045.00 410.760   1
   9  -5   3 7064.63 1165.99   5
   9  -5   3 8038.89 1272.78   1
   9  -5   4-306.872 156.477   5
   9  -5   4-97.6646 201.389   1
   9  -5   5 5610.78 1070.03   5
   9  -5   5 4387.93 940.081   1
   9  -5   6 29.4811 167.600   5
   9  -5   6 402.862 294.285   1
   9  -5   7 11501.2 1571.86   1
   9  -5   7 10970.6 1481.01   5
   9  -4  -3 0.51823 210.805   5
  -9   4   3-78.3710 346.110   4
   9  -4  -3 143.175 185.506   1
   9  -4  -2 2319.25 569.906   5
  -9   4   2 3632.20 911.632   4
   9  -4  -2 1891.75 533.993   1
   9  -4  -1 3.30823 112.507   5
  -9   4   1 500.496 391.853   4
   9  -4  -1 47.0991 257.982   1
   9  -4   0 9161.25 1312.53   1
   9  -4   0 9228.61 1219.19   5
   9  -4   1 2157.93 624.230   5
   9  -4   1 2075.62 523.317   1
   9  -4   2 41205.7 2769.49   1
   9  -4   2 36189.0 2464.38   5
   9  -4   3-48.8505 198.509   5
   9  -4   3 351.513 299.177   1
   9  -4   4 20522.3 1951.02   1
   9  -4   4 21651.1 1987.74   5
   9  -4   5 377.281 316.793   5
   9  -4   5 153.579 254.292   1
   9  -4   6 37573.3 2725.99   1
   9  -4   6 39343.2 2772.00   5
   9  -4   7 913.501 314.901   5
   9  -4   7 479.342 404.263   1
   9  -4   8 23406.8 2222.27   1
   9  -4   8 25259.5 2323.79   5
  -9   3   4 578.469 436.182   4
   9  -3  -4 108.838 133.326   1
   9  -3  -3 2281.66 545.304   5
  -9   3   3 1986.53 714.306   4
   9  -3  -3 2030.89 602.879   1
  -9   3   2 5728.67 1122.55   4
   9  -3  -2 4641.34 841.983   1
   9  -3  -2 5057.52 828.959   5
  -9   3   1 31397.8 2594.85   4
   9  -3  -1 28469.8 2167.44   1
   9  -3  -1 28100.7 1998.31   5
   9  -3   0 1743.76 531.306   5
   9  -3   0 1397.44 462.277   1
   9  -3   1 7694.58 1121.58   1
   9  -3   1 6349.58 987.210   5
   9  -3   2 149.141 172.476   5
   9  -3   2 215.549 137.001   1
   9  -3   3 20882.7 1900.78   1
   9  -3   3 21320.5 1854.99   5
   9  -3   4 75.3709 155.629   5
   9  -3   4-40.0970 110.887   1
   9  -3   5 16024.3 1665.22   1
   9  -3   5 17159.7 1701.46   5
   9  -3   6 358.582 267.480   5
   9  -3   6 483.611 360.775   1
   9  -3   7 2003.45 669.451   5
   9  -3   7 1593.12 520.034   1
   9  -3   8 503.881 388.635   5
   9  -3   8 200.648 113.669   1
   9  -3   9 8255.50 1317.96   1
   9  -3   9 8323.56 1371.74   5
  -9   2   5 982.360 697.197   4
   9  -2  -5 545.286 328.893   1
  -9   2   4 4468.18 1133.84   4
   9  -2  -4 4074.73 782.619   1
   9  -2  -3 492.409 276.670   5
  -9   2   3 214.597 308.760   4
   9  -2  -3 169.957 139.883   1
   9  -2  -2 693.987 326.252   5
  -9   2   2 853.400 411.570   4
   9  -2  -2 679.741 277.978   1
   9  -2  -1 789.550 360.896   5
  -9   2   1 833.646 353.204   4
   9  -2  -1 1294.82 454.670   1
   9  -2   0 12478.2 1401.75   1
   9  -2   0 12900.8 1318.96   5
   9  -2   1 624.942 370.299   1
   9  -2   1 286.689 332.101   5
   9  -2   2 8901.19 1212.47   1
   9  -2   2 8136.12 1089.10   5
   9  -2   3 453.714 284.314   1
   9  -2   3 285.091 358.415   5
   9  -2   4 60806.3 3183.34   1
   9  -2   4 61622.7 3120.79   5
   9  -2   5 1475.65 525.943   1
   9  -2   5 1015.48 448.024   5
   9  -2   6 32088.8 2356.80   1
   9  -2   6 34427.8 2479.32   5
   9  -2   7-346.416 391.054   1
   9  -2   7-205.901 120.523   5
   9  -2   8 35070.5 2560.76   1
   9  -2   8 33554.2 2600.93   5
   9  -2   9 2936.61 768.071   1
   9  -2   9 2777.29 752.181   5
   9  -2  10 37199.0 2774.66   1
   9  -2  10 40761.7 3004.15   5
  -9   1   6 1000.46 460.067   4
  -9   1   5 11028.9 1712.22   4
   9  -1  -5 9438.68 1169.52   1
  -9   1   4 1069.96 483.848   4
   9  -1  -4 237.918 166.086   1
   9  -1  -3 17.8976 102.416   5
  -9   1   3 299.988 87.5513   4
   9  -1  -3-125.375 167.194   1
   9  -1  -2 668.258 277.479   5
  -9   1   2 528.531 166.257   4
   9  -1  -2 353.456 252.723   1
   9  -1  -1 910.797 346.487   1
   9  -1  -1 923.064 346.763   5
  -9   1   0 7003.55 1133.22   4
   9  -1   0 7377.77 1064.78   1
   9  -1   0 6789.58 935.419   5
   9  -1   1 14963.1 1521.25   1
   9  -1   1 13400.4 1340.22   5
   9  -1   2 792.257 406.559   5
   9  -1   2 1370.80 469.802   1
   9  -1   3 30399.0 2193.07   1
   9  -1   3 28985.7 2054.18   5
   9  -1   4 645.117 273.487   5
   9  -1   4 768.016 379.423   1
   9  -1   5 8596.02 1161.95   1
   9  -1   5 9355.97 1200.14   5
   9  -1   6-121.688 31.5348   5
   9  -1   6-87.8002 258.349   1
   9  -1   7 23910.2 2024.41   1
   9  -1   7 24404.5 2068.48   5
   9  -1   8 620.796 377.999   5
   9  -1   8 605.059 402.345   1
   9  -1   9 3346.83 826.386   5
   9  -1   9 3275.03 785.189   1
   9  -1  10 738.878 430.239   5
   9  -1  10 509.791 338.507   1
   9  -1  11 1651.75 611.867   1
   9  -1  11 1411.26 533.353   5
  -9   0   6 6887.31 1423.99   4
  -9   0   5 2199.17 829.304   4
   9   0  -5 1255.93 385.545   1
  -9   0   4 3013.73 876.308   4
   9   0  -4 2196.05 555.349   1
   9   0  -3 1214.99 456.020   1
   9   0  -3 819.146 274.196   5
  -9   0   3 840.437 403.596   4
   9   0  -2 337.154 173.178   5
   9   0  -2 223.104 133.868   1
   9   0  -1-81.4243 146.952   5
   9   0  -1-258.842 270.804   1
  -9   0   1 189.744 181.980   4
   9   0   0 1998.60 522.180   5
  -9   0   0 2221.18 661.848   4
   9   0   0 2296.88 564.823   1
   9   0   1 1266.66 408.456   5
   9   0   1 1103.65 394.245   1
   9   0   2 21150.8 1725.38   5
   9   0   2 19975.1 1711.35   1
   9   0   3 2111.41 549.811   5
   9   0   3 2523.65 635.394   1
   9   0   4 9409.53 1202.80   5
   9   0   4 8676.03 1148.13   1
   9   0   5 1220.01 416.337   5
   9   0   5 1717.01 488.353   1
   9   0   6 53576.4 3022.77   5
   9   0   6 48826.6 2822.25   1
   9   0   7 34.5832 109.586   5
   9   0   7-27.1398 83.8747   1
   9   0   8 46686.9 2978.08   5
   9   0   8 45479.5 2800.94   1
   9   0   9-431.879 460.805   5
   9   0   9-206.505 308.320   1
   9   0  10 30622.1 2420.45   1
   9   0  10 28652.1 2435.03   5
   9   0  11 247.780 175.767   5
   9   0  11 225.836 184.957   1
  -9  -1   6 1662.59 613.585   4
  -9  -1   5 26202.9 2532.48   4
   9   1  -5 23590.4 1754.87   1
   9   1  -4 223.543 184.289   5
   9   1  -4 512.439 214.814   1
  -9  -1   4 585.960 437.494   4
   9   1  -3 33621.1 1933.83   5
  -9  -1   3 36481.9 2654.69   4
   9   1  -3 31843.5 2046.24   1
   9   1  -2 1309.21 409.107   5
  -9  -1   2 1153.74 473.260   4
   9   1  -2 1337.55 465.050   1
   9   1  -1 259.398 203.315   5
  -9  -1   1 586.172 253.160   4
   9   1   0-145.227 265.054   5
  -9  -1   0 72.8025 190.762   4
   9   1   0-110.882 199.504   1
   9   1   1 619.941 294.230   5
   9   1   1 219.277 149.605   1
   9   1   2 1841.34 490.271   5
   9   1   2 1516.47 492.966   1
   9   1   3 3077.28 701.481   5
   9   1   3 2694.27 587.912   1
   9   1   4 2054.24 567.383   5
   9   1   4 1175.79 411.509   1
   9   1   5 32807.3 2319.04   5
   9   1   5 29776.2 2133.70   1
   9   1   6 1207.48 484.400   5
   9   1   6 804.979 365.360   1
   9   1   7 6648.35 1119.23   5
   9   1   7 9409.52 1260.05   1
   9   1   8 288.467 152.172   5
   9   1   8 313.706 292.114   1
   9   1   9 10088.1 1393.18   5
   9   1   9 9991.75 1334.86   1
   9   1  10 60.7172 79.4039   5
   9   1  10 478.102 262.518   1
   9   1  11 8996.80 1280.49   1
   9   1  11 8265.37 1265.96   5
  -9  -2   6 264.973 336.963   4
   9   2  -5-135.090 73.4328   1
  -9  -2   5 213.986 284.364   4
   9   2  -4 4662.60 672.767   5
  -9  -2   4 5265.50 997.157   4
   9   2  -4 4042.74 718.277   1
   9   2  -3 3087.19 605.062   5
  -9  -2   3 3585.62 792.520   4
   9   2  -3 2460.98 557.900   1
  -9  -2   3 3095.45 539.754   3
  -9  -2   2 8026.42 1179.05   4
   9   2  -2 8525.15 1054.94   1
  -9  -2   1-33.3837 156.558   4
   9   2  -1 426.078 278.634   1
  -9  -2   0 4.33392 56.8529   4
   9   2   0 206.606 134.701   1
   9   2   1 1718.72 469.341   1
   9   2   2 777.502 260.671   1
   9   2   3-120.871 81.0436   1
   9   2   4 5796.46 929.718   1
   9   2   5 1569.21 499.435   1
   9   2   6 24443.4 1963.92   1
   9   2   7 4271.55 831.318   1
   9   2   8 24754.1 2206.20   5
   9   2   8 22451.3 1966.95   1
   9   2   9 1137.97 608.721   5
   9   2   9 1048.65 424.923   1
   9   2  10 49005.7 3101.98   5
   9   2  10 48632.1 2997.42   1
   9   2  11-397.695 339.128   5
   9   2  11 230.215 264.285   1
   9   2  12 21674.4 2038.13   5
   9   2  12 20125.4 1898.81   1
  -9  -3   6 31.0587 336.403   4
  -9  -3   5 56950.5 3462.40   4
   9   3  -5 51990.9 2521.57   1
  -9  -3   4 377.728 239.625   4
   9   3  -4 353.809 226.215   1
  -9  -3   4 131.259 145.568   3
  -9  -3   3 27118.7 2144.08   4
  -9  -3   3 26533.6 1592.67   3
   9   3  -3 25580.0 1817.20   1
  -9  -3   2 1116.39 413.501   4
  -9  -3   2 742.393 271.735   3
   9   3  -2 657.232 323.364   1
  -9  -3   1 31347.3 2139.01   4
  -9  -3   1 27054.0 1468.22   3
   9   3  -1 32533.2 2111.58   1
  -9  -3   0 1298.60 430.449   4
   9   3   0 1522.57 464.263   1
  -9  -3   0 1305.63 315.786   3
   9   3   1 2057.37 532.641   1
  -9  -3  -1 2228.23 400.831   3
   9   3   2 224.994 116.034   1
  -9  -3  -2-16.9598 77.4331   3
   9   3   3 2310.38 599.960   1
   9   3   4 1707.99 452.238   1
   9   3   5 103.689 216.154   1
   9   3   6 119.078 169.850   1
   9   3   7 21896.7 1909.83   1
   9   3   8 3283.55 746.142   1
   9   3   9 7508.10 1182.91   1
   9   3  10 502.495 335.056   1
   9   3  11 2426.54 693.097   1
   9   3  11 2800.57 739.961   5
   9   3  12 159.407 70.9557   1
  -9  -4   6 4647.08 1055.22   4
  -9  -4   6 3158.60 629.012   2
  -9  -4   5-282.059 169.240   4
   9   4  -5-220.177 231.514   1
  -9  -4   5 309.497 254.419   3
  -9  -4   4 2010.04 661.560   4
  -9  -4   4 2637.75 555.722   3
   9   4  -4 3092.90 635.532   1
   9   4  -3 725.105 294.744   1
  -9  -4   3 347.991 229.498   4
  -9  -4   3 797.041 275.051   3
  -9  -4   2 2339.73 597.227   4
   9   4  -2 2001.93 490.125   1
  -9  -4   2 2221.34 457.591   3
  -9  -4   1 2798.76 556.300   4
   9   4  -1 2673.94 615.076   1
  -9  -4   1 2430.53 475.912   3
  -9  -4   0 21560.8 1654.37   4
  -9  -4   0 22113.1 1395.31   3
   9   4   0 19242.9 1685.97   1
  -9  -4  -1 6128.73 735.031   3
   9   4   1 5735.80 932.896   1
   9   4   2 373.132 299.770   1
  -9  -4  -2 16.5445 43.1942   3
   9   4   3 2893.92 648.942   1
  -9  -4  -3 2834.70 502.319   3
   9   4   4 632.448 349.095   1
  -9  -4  -4 533.806 194.407   3
   9   4   5 2051.67 626.130   1
  -9  -4  -5 1346.54 363.554   3
   9   4   6 436.006 238.771   1
  -9  -4  -6 1031.66 278.679   3
   9   4   7 255.925 183.797   2
   9   4   7 214.658 221.644   1
   9   4   8 25683.7 1576.92   2
   9   4   8 32252.1 2459.49   1
   9   4   9 3469.52 823.122   1
   9   4  10 17785.8 1842.31   1
   9   4  11 97.5707 206.032   1
  -9  -5   6 1566.27 540.020   4
  -9  -5   6 1188.23 407.041   3
  -9  -5   5 38956.1 2699.86   4
  -9  -5   5 37070.7 2248.38   3
   9   5  -5 39220.8 2204.02   1
   9   5  -4 256.118 195.160   1
  -9  -5   4-49.3881 164.847   3
  -9  -5   3 55309.0 2917.53   4
  -9  -5   3 49289.6 2369.13   3
   9   5  -3 55861.3 2806.39   1
  -9  -5   2-89.1936 245.904   4
   9   5  -2 80.7595 170.752   1
  -9  -5   2-164.399 203.730   3
  -9  -5   1 48698.9 2451.14   4
  -9  -5   1 41034.9 2047.33   3
   9   5  -1 47661.2 2655.93   1
   9   5   0 1866.19 476.909   1
  -9  -5   0 2219.03 479.009   3
  -9  -5  -1 10956.2 1076.95   3
   9   5   1 11462.4 1338.74   1
  -9  -5  -2 2786.96 540.288   3
   9   5   2 2553.90 634.622   1
  -9  -5  -3 11727.7 1115.78   3
   9   5   3 11777.4 1416.80   1
   9   5   4 2441.41 693.380   1
  -9  -5  -4 2335.99 507.025   3
   9   5   5 6324.48 1069.24   1
  -9  -5  -5 6732.73 862.616   3
  -9  -5  -6 2567.21 547.548   3
   9   5   6 2479.27 683.869   1
  -9  -5  -7 1572.82 463.178   3
   9   5   7 1201.91 545.877   1
   9   5   8 1671.32 598.466   1
  -9  -5  -8 1059.28 332.761   3
   9   5   8 1476.83 411.678   2
   9   5   9 7799.26 1000.64   2
  -9  -5  -9 7770.03 1077.14   3
   9   5   9 8381.07 1325.19   1
   9   5  10 1851.48 565.682   1
   9   5  11 9338.23 1359.46   1
  -9  -6   6 57.3259 171.104   4
  -9  -6   6 46.3681 129.810   3
  -9  -6   5 921.642 409.988   4
  -9  -6   5 239.951 44.5611   3
  -9  -6   4 611.194 285.427   4
   9   6  -4 347.854 160.938   1
  -9  -6   4 778.496 330.589   3
   9   6  -3 231.605 236.960   1
  -9  -6   3 507.358 293.816   4
  -9  -6   3 81.5902 176.327   3
  -9  -6   2 11121.5 1178.53   4
  -9  -6   2 10498.1 1116.64   3
   9   6  -2 11536.4 1315.59   1
  -9  -6   1 76.4364 121.501   4
  -9  -6   1 110.076 130.937   3
   9   6   0 1528.39 489.643   1
  -9  -6   0 1155.31 358.455   3
  -9  -6  -1 2147.75 474.000   3
   9   6   1 1903.49 539.566   1
   9   6   2 22909.7 1989.31   1
  -9  -6  -2 23357.0 1651.51   3
  -9  -6  -3 6330.33 877.991   3
   9   6   3 5495.44 945.911   1
  -9  -6  -4 3406.10 647.327   3
   9   6   4 3290.67 742.783   1
   9   6   5 10351.5 1383.39   1
  -9  -6  -5 9772.04 1154.32   3
   9   6   6 1433.31 651.920   1
  -9  -6  -6 1632.04 466.497   3
   9   6   7 4565.73 978.841   1
  -9  -6  -7 4270.41 811.710   3
  -9  -6  -8 113.055 262.674   3
   9   6   8-131.417 236.415   1
   9   6   9 1530.63 471.301   1
  -9  -6  -9 1402.22 529.981   3
   9   6   9 1249.88 514.549   2
   9   6  10 10877.6 1400.14   2
  -9  -6 -10 9872.91 1291.11   3
   9   6  10 12259.6 1643.13   1
   9   6  11 2640.38 751.773   1
   9   6  11 3455.28 806.217   2
  -9  -7   5 48436.4 2721.37   3
   9   7  -4 2870.37 664.621   1
  -9  -7   4 1421.52 424.308   3
  -9  -7   3 34910.9 2195.68   3
   9   7  -3 37504.9 2403.04   1
   9   7  -2 227.706 173.012   1
  -9  -7   2 356.750 147.739   3
   9   7  -1 45271.3 2668.44   1
  -9  -7   1 42266.5 2359.17   3
   9   7   0 52.8497 262.063   1
  -9  -7   0 36.2606 129.078   3
  -9  -7  -1 51849.4 2577.24   3
  -9  -7  -2 583.189 299.783   3
  -9  -7  -3 6010.18 904.745   3
  -9  -7  -4 4853.23 823.241   3
  -9  -7  -5 10551.4 1259.17   3
  -9  -7  -6 1276.92 497.710   3
  -9  -7  -7 29.2368 181.641   3
  -9  -7  -8 2992.38 731.097   3
   9   7   8 2232.36 736.149   1
   9   7   9 5551.16 1098.90   1
  -9  -7  -9 5582.73 988.675   3
   9   7  10 964.994 436.102   1
  -9  -7 -10 257.788 143.905   3
   9   7  10 1178.89 613.512   2
   9   8  -4 2742.86 657.161   1
  -9  -8   4 2764.45 655.185   3
   9   8  -3 1644.82 498.156   1
  -9  -8   3 1266.86 452.357   3
  -9  -8   2 275.064 120.601   3
  -9  -8   1-96.0210 192.384   3
  -9  -8   0 7895.70 1041.65   3
  -9  -8  -1 185.022 174.111   3
  -9  -8  -2 5346.34 859.988   3
  -9  -8  -3 57.1883 91.4548   3
  -9  -8  -4 1880.09 526.492   3
  -9  -8  -5 407.168 228.087   3
  -9  -8  -6 12422.9 1509.21   3
  -9  -8  -7 8184.21 1247.16   3
  -9  -8  -8 5460.33 990.819   3
  -9  -8  -9 1443.24 546.852   3
  -9  -9   3 34369.6 2347.86   3
  -9  -9   2 204.203 200.182   3
  -9  -9   1 40597.9 2552.67   3
  -9  -9   0 2064.90 570.099   3
  -9  -9  -1 23538.5 1928.65   3
  -9  -9  -2 724.647 375.809   3
  -9  -9  -3 39928.2 2534.57   3
  -9  -9  -4 326.948 229.949   3
  -9  -9  -5 3100.05 784.465   3
  -9  -9  -6 8680.13 1306.48   3
  -9  -9  -7 3414.09 826.620   3
  -9  -9  -8 1001.44 396.991   3
  -9 -10   1 375.871 279.966   3
  -9 -10   0 1111.12 494.000   3
  -9 -10  -1 244.305 247.894   3
  -9 -10  -2 4305.97 867.202   3
  -9 -10  -3 1340.13 492.383   3
  -9 -10  -4 12152.5 1482.94   3
  -9 -10  -5-53.6272 75.8362   3
  -9 -10  -6 488.657 319.290   3
  10  -4   1 1076.17 362.131   5
  10  -4   1 1202.86 520.190   1
  10  -4   2 1762.81 594.773   5
  10  -4   2 1771.62 559.817   1
  10  -4   3 2990.95 769.575   5
  10  -4   3 2187.21 655.360   1
  10  -4   4 2417.98 700.620   5
  10  -4   4 2159.05 706.194   1
  10  -4   5 5317.66 1053.22   5
  10  -4   5 4261.99 912.800   1
  10  -3  -1-501.778 361.796   5
  10  -3  -1 659.459 396.715   1
  10  -3   0 23717.7 2166.44   1
  10  -3   0 24154.6 2022.76   5
  10  -3   1 271.128 114.595   5
  10  -3   1 976.704 404.169   1
  10  -3   2 6876.20 1079.33   5
  10  -3   2 6171.60 1083.42   1
  10  -3   3 579.927 308.129   5
  10  -3   3 400.582 354.398   1
  10  -3   4 2622.25 715.756   5
  10  -3   4 1892.95 626.097   1
  10  -3   5 526.825 343.742   5
  10  -3   5-106.788 147.338   1
  10  -3   6-79.7177 219.432   5
  10  -3   6 344.393 369.505   1
  10  -3   7 5007.79 1032.59   5
  10  -3   7 4331.47 948.296   1
 -10   2   3 702.066 375.178   4
  10  -2  -3-409.168 372.944   1
  10  -2  -2 1916.06 522.579   5
 -10   2   2 1583.28 462.192   4
  10  -2  -2 1807.00 572.422   1
  10  -2  -1 1085.25 405.734   5
 -10   2   1 1243.04 553.264   4
  10  -2  -1 1373.30 477.983   1
  10  -2   0 4784.49 844.328   5
  10  -2   0 4114.84 871.348   1
  10  -2   1 5351.18 951.912   5
  10  -2   1 4925.89 921.551   1
  10  -2   2 532.093 298.815   5
  10  -2   2 252.258 260.904   1
  10  -2   3-36.5265 105.756   1
  10  -2   3 193.918 322.584   5
  10  -2   4 1283.59 533.906   1
  10  -2   4 1633.09 549.672   5
  10  -2   5 4621.01 929.996   1
  10  -2   5 5327.80 930.282   5
  10  -2   6 1949.35 547.137   1
  10  -2   6 1139.14 416.917   5
  10  -2   7 1011.01 439.147   1
  10  -2   7 1300.18 579.887   5
  10  -2   8-148.237 134.995   1
  10  -2   8-161.594 176.009   5
 -10   1   3 2123.69 721.659   4
  10  -1  -3 1432.56 482.697   1
 -10   1   2 56514.1 3591.73   4
  10  -1  -2 51938.9 2945.34   1
  10  -1  -2 50525.2 2636.32   5
  10  -1  -1-476.424 336.301   1
  10  -1  -1 166.237 231.981   5
 -10   1   1-225.104 387.487   4
  10  -1   0 20888.3 1878.57   1
  10  -1   0 19364.5 1670.83   5
  10  -1   1 346.379 324.704   1
  10  -1   1 160.762 184.023   5
  10  -1   2 30143.4 2331.43   1
  10  -1   2 28595.9 2153.07   5
  10  -1   3 337.037 182.831   5
  10  -1   3-236.597 300.792   1
  10  -1   4 8279.61 1230.50   1
  10  -1   4 9440.70 1293.94   5
  10  -1   5-179.024 292.883   5
  10  -1   5-199.215 171.740   1
  10  -1   6 558.477 229.868   5
  10  -1   6 1148.34 499.104   1
  10  -1   7 481.396 270.553   5
  10  -1   7 462.880 173.085   1
  10  -1   8 1728.75 585.190   5
  10  -1   8 1146.79 430.980   1
  10  -1   9 16.3644 92.9095   5
  10  -1   9-218.855 161.668   1
 -10   0   4 1951.71 707.120   4
  10   0  -4 1062.01 458.876   1
  10   0  -3 1601.31 507.840   1
  10   0  -3 189.314 261.508   5
 -10   0   3 1435.37 607.626   4
  10   0  -2 1219.78 431.836   1
  10   0  -2 697.925 315.882   5
 -10   0   2 361.792 204.111   4
  10   0  -1 426.340 269.103   5
  10   0  -1-73.0279 752.621   1
 -10   0   1 697.137 408.186   4
  10   0   0 1706.79 480.553   5
  10   0   0 2841.49 706.185   1
  10   0   1 553.688 281.516   5
  10   0   1 365.167 252.374   1
  10   0   2 1770.57 459.156   5
  10   0   2 2839.74 702.768   1
  10   0   3 9243.18 1212.39   5
  10   0   3 9578.58 1254.81   1
  10   0   4 854.359 386.388   5
  10   0   4 332.353 230.315   1
  10   0   5-35.1897 227.580   5
  10   0   5 426.144 291.215   1
  10   0   6 502.208 401.103   5
  10   0   6 27.2147 36.0816   1
  10   0   7 754.493 416.821   5
  10   0   7 983.498 395.812   1
  10   0   8 914.387 466.507   5
  10   0   8 1078.93 477.042   1
  10   0   9 984.878 476.125   5
  10   0   9 733.562 431.233   1
  10   0  10 2284.90 736.045   5
  10   0  10 1165.59 530.855   1
 -10  -1   4 18818.5 2133.74   4
  10   1  -4 17825.3 1638.01   1
  10   1  -3 415.045 105.517   5
  10   1  -3 597.291 342.147   1
 -10  -1   3 627.632 327.035   4
 -10  -1   2 36370.2 2724.27   4
  10   1  -2 32357.2 2237.90   1
  10   1  -2 31595.5 2062.09   5
  10   1  -1 387.838 311.456   5
 -10  -1   1 243.502 239.172   4
  10   1  -1 173.296 122.669   1
  10   1   0 74443.3 3307.05   5
 -10  -1   0 84587.9 4092.30   4
  10   1   0 76871.7 3531.79   1
  10   1   1 4713.49 852.750   5
  10   1   1 4590.45 902.723   1
  10   1   2 40887.8 2553.82   5
  10   1   2 41668.2 2653.76   1
  10   1   3 354.650 267.882   5
  10   1   3 57.1897 173.693   1
  10   1   4 18887.4 1809.14   5
  10   1   4 18453.1 1766.71   1
  10   1   5 310.539 260.378   5
  10   1   5-73.8769 166.028   1
  10   1   6 13633.8 1593.89   5
  10   1   6 11087.2 1392.74   1
  10   1   7-182.304 111.160   5
  10   1   7 56.1038 160.161   1
  10   1   8 601.096 340.750   5
  10   1   8 242.245 207.749   1
  10   1   9 805.245 351.205   5
  10   1   9 800.496 446.977   1
  10   1  10-114.632 305.026   5
  10   1  10 272.317 280.992   1
 -10  -2   5 399.814 374.484   4
  10   2  -4 1405.97 434.786   1
 -10  -2   4 2198.34 705.096   4
  10   2  -3 55.5144 116.249   5
 -10  -2   3-38.2772 254.782   4
  10   2  -3-119.609 153.021   1
  10   2  -2 39.3788 83.3148   5
  10   2  -2-60.4006 242.850   1
  10   2  -1 139.204 249.967   5
 -10  -2   1 454.665 307.244   4
  10   2  -1 96.0930 150.555   1
  10   2   0-84.4714 232.311   5
 -10  -2   0 335.169 174.028   4
  10   2   0-103.276 44.8546   1
  10   2   1 9169.32 1243.13   1
  10   2   2 72.2889 217.884   1
  10   2   3 941.036 497.642   1
  10   2   4 145.853 141.554   1
  10   2   5 11750.6 1455.12   1
  10   2   6 2659.92 711.112   5
  10   2   6 2338.77 673.282   1
  10   2   7 1086.06 491.890   5
  10   2   7 1436.44 529.645   1
  10   2   8 645.795 437.786   5
  10   2   8 528.167 315.667   1
  10   2   9 1041.45 512.327   5
  10   2   9 1018.19 432.538   1
  10   2  10 291.197 231.556   5
  10   2  10 410.523 408.693   1
 -10  -3   5 81.6898 189.082   4
 -10  -3   4 2856.39 698.295   4
  10   3  -4 2513.64 589.544   1
  10   3  -3 35.7526 203.837   5
 -10  -3   3 211.092 252.497   4
  10   3  -3-196.804 178.128   1
 -10  -3   2 28230.9 2271.08   4
  10   3  -2 27890.4 2062.14   1
 -10  -3   1 2089.66 566.209   4
  10   3  -1 2214.16 599.850   1
  10   3   0 35610.5 2419.00   1
  10   3   1-184.878 178.407   1
  10   3   2 71857.0 3465.33   1
  10   3   3 16041.9 1679.82   1
  10   3   4 77368.7 3709.39   1
  10   3   5-19.5527 221.765   1
  10   3   6 20154.3 1953.64   1
  10   3   7 2945.19 737.174   1
  10   3   8 13762.7 1620.66   1
  10   3   9-243.269 237.272   1
  10   3  10 638.568 379.244   1
  10   3  10 1357.29 621.266   5
 -10  -4   4 4158.73 886.858   4
  10   4  -4 4298.75 802.814   1
 -10  -4   3 888.803 412.238   4
  10   4  -3 1195.19 446.362   1
  10   4  -2 98.9892 142.723   1
 -10  -4   2 133.663 55.2944   4
  10   4  -1 344.655 264.604   1
 -10  -4   1 898.859 347.544   4
  10   4   0 975.344 402.171   1
  10   4   1 1425.48 516.720   1
  10   4   2 297.082 144.719   1
  10   4   3 9701.31 1327.94   1
  10   4   4 939.781 460.237   1
  10   4   5 2265.21 661.579   1
  10   4   6-330.297 267.873   1
  10   4   7 4950.90 975.993   1
  10   4   8-296.337 268.210   1
  10   4   9 4190.08 919.446   1
  10   4  10 261.231 264.978   1
 -10  -5   4 5408.90 974.877   4
 -10  -5   4 3327.18 658.162   3
  10   5  -4 4726.80 884.005   1
  10   5  -3 124.274 107.172   1
 -10  -5   3 23.0456 234.348   4
 -10  -5   3-125.189 40.6546   3
 -10  -5   2 1104.48 426.820   4
  10   5  -2 1795.34 544.619   1
 -10  -5   2 1338.02 409.010   3
 -10  -5   1 446.086 274.250   4
  10   5  -1 412.706 346.366   1
 -10  -5   1 199.690 136.703   3
 -10  -5   0 22973.9 1628.91   3
  10   5   0 22869.4 1984.78   1
  10   5   1 280.923 206.571   1
  10   5   2 33255.6 2454.91   1
  10   5   3 335.494 330.650   1
  10   5   4 35257.3 2617.22   1
  10   5   5 3413.64 805.489   1
  10   5   6 69804.0 3863.58   1
  10   5   7 3953.16 940.222   1
  10   5   8 18892.6 2033.15   1
  10   5   9 810.525 432.793   1
  10   5  10 5112.45 1046.05   1
 -10  -6   4 412.282 310.214   4
  10   6  -4 617.207 291.739   1
 -10  -6   4 1023.17 415.339   3
 -10  -6   3 5.76208 55.0667   4
  10   6  -3-105.460 268.183   1
 -10  -6   3-278.894 251.613   3
 -10  -6   2 1729.97 462.651   4
  10   6  -2 1483.73 457.648   1
 -10  -6   2 1262.50 369.625   3
  10   6  -1 1214.52 422.717   1
 -10  -6   1 1712.75 478.190   4
 -10  -6   1 1415.71 452.947   3
  10   6   0-350.954 250.411   1
 -10  -6   0-156.941 51.1136   3
  10   6   1 2339.49 670.046   1
 -10  -6  -1 2831.98 598.710   3
  10   6   2 316.113 309.974   1
 -10  -6  -2-2.77336 163.889   3
 -10  -6  -3 176.101 93.8207   3
  10   6   3-245.807 279.366   1
 -10  -6  -4 641.818 302.311   3
  10   6   4 253.780 353.925   1
  10   6   5 3831.93 903.282   1
  10   6   6 2723.85 819.084   1
  10   6   7 11221.6 1645.38   1
  10   6   8-359.146 323.541   1
  10   6   9 1206.29 634.832   1
 -10  -7   3-64.4673 148.704   3
  10   7  -3 614.234 339.693   1
  10   7  -2 2843.44 701.502   1
 -10  -7   2 3710.36 729.948   3
  10   7  -1 755.991 343.257   1
 -10  -7   1 376.124 214.452   3
 -10  -7   0 9447.49 1152.72   3
  10   7   0 8647.45 1235.52   1
  10   7   1 865.443 433.117   1
 -10  -7  -1 663.884 311.889   3
  10   7   2 14505.1 1694.83   1
 -10  -7  -2 14450.1 1434.05   3
 -10  -7  -3 1964.39 502.152   3
  10   7   3 2553.01 687.787   1
  10   7   4 49418.7 3312.08   1
 -10  -7  -4 45360.1 2609.86   3
  10   7   5 1570.80 592.963   1
 -10  -7  -5 1920.68 507.067   3
  10   7   6 18198.6 2101.04   1
 -10  -7  -6 16797.7 1648.85   3
 -10  -7  -7 665.588 288.272   3
  10   7   7 529.500 242.276   1
  10   7   8 38002.4 3157.47   1
  10   7   9 4639.91 1147.10   1
  10   8  -2 229.069 367.158   1
 -10  -8   2 236.818 248.494   3
  10   8  -1 719.799 390.050   1
 -10  -8   1 1360.29 460.678   3
  10   8   0-116.435 217.981   1
 -10  -8   0-197.041 225.219   3
  10   8   1 3848.40 885.439   1
 -10  -8  -1 1723.27 512.662   3
 -10  -8  -2 472.628 372.246   3
  10   8   2-197.151 178.373   1
 -10  -8  -3 1446.96 461.555   3
 -10  -8  -4 199.479 178.880   3
 -10  -8  -5 87.5344 104.479   3
 -10  -8  -6 340.352 190.826   3
  10   8   7 1720.11 720.421   1
 -10  -8  -7 815.165 380.405   3
 -10  -9   0-96.5932 96.3563   3
 -10  -9  -1 790.434 328.603   3
 -10  -9  -2 9917.22 1270.77   3
 -10  -9  -3 302.878 213.318   3
 -10  -9  -4 10219.8 1375.66   3
 -10  -9  -5 5158.80 1003.87   3
 -10  -9  -6 28675.0 2416.25   3
  11  -2   3 71.5949 86.1614   5
  11  -2   3 334.797 295.165   1
  11  -1   0 806.470 392.709   5
  11  -1   0 859.011 409.132   1
  11  -1   1 15292.1 1746.79   1
  11  -1   1 16428.7 1701.85   5
  11  -1   2-224.974 141.553   1
  11  -1   2 314.625 222.419   5
  11  -1   3 6598.95 1180.39   1
  11  -1   3 5702.01 1028.04   5
  11  -1   4 3829.96 863.216   5
  11  -1   4 3727.35 827.521   1
  11  -1   5 14964.0 1731.36   1
  11  -1   5 17422.8 1882.76   5
  11  -1   6 7106.98 1260.16   5
  11  -1   6 5536.09 1125.80   1
 -11   0   1 18242.2 2065.48   4
  11   0  -1 16243.3 1751.92   1
  11   0  -1 17156.6 1660.81   5
  11   0   0 1496.88 473.241   5
  11   0   0 1758.70 602.372   1
  11   0   1 3900.47 822.987   5
  11   0   1 5071.72 989.052   1
  11   0   2 188.925 217.288   5
  11   0   2 37.8291 369.561   1
  11   0   3 16165.5 1799.95   1
  11   0   3 15758.6 1710.03   5
  11   0   4 1430.69 535.948   5
  11   0   4 523.552 265.958   1
  11   0   5 3226.02 790.387   5
  11   0   5 3289.67 837.899   1
  11   0   6 982.598 380.946   5
  11   0   6 1229.84 366.635   1
  11   0   7-32.5706 258.112   5
  11   0   7 104.138 185.019   1
  11   1  -2 1243.58 378.859   5
  11   1  -2 1797.46 606.678   1
 -11  -1   2 627.990 318.894   4
  11   1  -1 61.0534 178.364   5
 -11  -1   1 460.650 348.903   4
  11   1  -1 143.093 116.401   1
  11   1   0 718.792 400.177   5
  11   1   0 243.081 215.530   1
  11   1   1 474.518 336.664   5
  11   1   1 387.465 135.850   1
  11   1   2 271.761 57.2456   5
  11   1   2-31.5902 191.837   1
  11   1   3 18621.7 1847.95   5
  11   1   3 21699.2 2056.05   1
  11   1   4 1917.42 593.391   5
  11   1   4 2502.37 696.837   1
  11   1   5 17178.5 1858.57   5
  11   1   5 17826.3 1899.76   1
  11   1   6 5161.93 1055.91   5
  11   1   6 5089.16 1008.05   1
  11   1   7 9335.81 1430.79   5
  11   1   7 10415.3 1485.38   1
  11   1   8 2049.63 691.936   5
  11   1   8 3313.49 889.527   1
  11   2  -2 3333.00 714.793   5
 -11  -2   2 3391.43 873.511   4
  11   2  -2 3305.67 787.387   1
  11   2  -1 591.171 325.903   5
 -11  -2   1 375.737 286.673   4
  11   2  -1 634.225 335.646   1
  11   2   0 2404.55 674.512   5
  11   2   0 2289.80 682.325   1
  11   2   1 12443.0 1502.27   5
  11   2   1 13025.7 1570.99   1
  11   2   2 403.370 348.247   5
  11   2   2 790.278 353.086   1
  11   2   3 2920.10 691.100   5
  11   2   3 2694.08 685.003   1
  11   2   4 814.327 370.551   5
  11   2   4 1342.29 428.431   1
  11   2   5 5613.27 1059.21   5
  11   2   5 4884.80 982.525   1
  11   2   6-104.788 270.370   5
  11   2   6 150.992 232.124   1
  11   2   7 3952.90 941.153   5
  11   2   7 5190.73 1033.71   1
  11   2   8 2333.72 725.281   5
  11   2   8 1537.78 568.288   1
  11   3  -2 15096.3 1552.93   5
 -11  -3   2 15305.6 1769.59   4
  11   3  -2 13261.9 1521.19   1
  11   3  -1 10367.9 1338.38   5
 -11  -3   1 10870.7 1490.86   4
  11   3  -1 11077.6 1412.30   1
  11   3   0 2040.24 614.771   1
  11   3   1 2004.89 598.333   1
  11   3   2 215.810 173.039   1
  11   3   3 426.898 360.633   1
  11   3   4 1141.31 527.471   1
  11   3   5 12181.9 1565.99   1
  11   3   6 3732.85 889.510   1
  11   3   7 16410.1 1903.83   1
  11   3   8 10266.1 1573.79   5
  11   3   8 10232.6 1504.34   1
 -11  -4   2 4214.66 882.889   4
  11   4  -2 3972.47 802.715   1
 -11  -4   1 2640.66 736.925   4
  11   4  -1 1817.80 628.064   1
  11   4   0 2014.54 662.175   1
  11   4   1 3002.76 771.474   1
  11   4   2 8073.60 1237.53   1
  11   4   3 4487.09 951.911   1
  11   4   4 262.633 122.805   1
  11   4   5 7090.91 1198.87   1
  11   4   6 794.215 269.968   1
  11   4   7 619.298 459.475   1
  11   4   8 604.223 409.673   1
  11   5  -1 3186.62 758.996   1
  11   5   0 8489.94 1248.36   1
  11   5   1 8342.84 1268.85   1
  11   5   2 4596.30 1020.28   1
  11   5   3 5503.25 1071.50   1
  11   5   4 707.652 400.838   1
  11   5   5 1391.58 611.994   1
  11   5   6 83.3281 284.394   1
  11   5   7 3563.98 933.239   1
  11   5   8 2050.60 729.369   1
  11   6  -1 1305.77 445.997   1
  11   6   0 5093.09 954.613   1
  11   6   1 787.881 461.185   1
  11   6   2 3058.72 771.534   1
  11   6   3 6646.95 1177.95   1
  11   6   4 5194.45 1103.39   1
  11   6   5 1308.38 604.230   1
  11   6   6 1399.93 596.735   1
  11   6   7 7263.45 1375.70   1
  11   7   0 4128.19 893.878   1
  11   7   1 7854.68 1268.20   1
  11   7   2 5565.86 1114.85   1
  11   7   3 2706.47 791.330   1
  11   7   4 2060.91 680.705   1
  11   7   5 11159.0 1703.66   1
  11   7   6-71.4978 41.8967   1
   0   0   0    0.00    0.00   0
TITL f1 in P-1
REM P-1 (#2 in standard setting)
CELL 0.71073   9.167004  10.256098  11.477281  86.7091  77.0838  76.2889
ZERR    2.00   0.000467   0.000516   0.000579   0.0041   0.0043   0.0044
LATT  1
SFAC C N O S Br
UNIT 24.00 16.00 16.00 4.00 8.00
TREF
HKLF 4
END
;
_shelx_hkl_checksum              1957
loop_
_space_group_symop_operation_xyz
'x, y, z'
'-x, -y, -z'
loop_
_atom_site_label
_atom_site_type_symbol
_atom_site_fract_x
_atom_site_fract_y
_atom_site_fract_z
_atom_site_U_iso_or_equiv
_atom_site_adp_type
_atom_site_occupancy
_atom_site_site_symmetry_order
_atom_site_calc_flag
Br3 Br 0.54807(4) 0.98094(4) 0.77280(4) 0.01254(11) Uani 1 1 d
Br2 Br 0.89959(4) 0.53045(4) 0.73397(4) 0.01298(11) Uani 1 1 d
Br4 Br 0.49020(4) 0.53826(4) 1.21215(3) 0.01198(11) Uani 1 1 d
Br1 Br 0.85028(4) 0.96420(4) 0.28814(4) 0.01311(11) Uani 1 1 d
S2 S 0.17753(11) 0.72543(11) 0.93965(9) 0.0135(2) Uani 1 1 d
S1 S 0.48869(10) 0.76620(11) 0.55441(10) 0.0131(2) Uani 1 1 d
O4 O 1.1889(3) 0.8069(3) 0.2769(3) 0.0175(7) Uani 1 1 d
O8 O 0.7427(3) 0.6892(3) 1.2204(3) 0.0196(7) Uani 1 1 d
N2 N 1.1472(3) 0.8265(3) 0.3842(3) 0.0121(8) Uani 1 1 d
N8 N 0.7705(4) 0.6747(3) 1.1133(3) 0.0123(7) Uani 1 1 d
O1 O 1.1817(3) 0.6702(3) 0.6737(3) 0.0175(7) Uani 1 1 d
O7 O 0.8954(3) 0.6273(3) 1.0492(3) 0.0190(7) Uani 1 1 d
N6 N 0.2685(3) 0.6538(3) 1.0393(3) 0.0121(7) Uani 1 1 d
O3 O 1.2124(3) 0.8778(3) 0.4449(3) 0.0182(7) Uani 1 1 d
O6 O 0.8171(3) 0.9200(3) 1.0074(3) 0.0188(7) Uani 1 1 d
O2 O 1.2654(3) 0.5826(3) 0.4967(3) 0.0181(7) Uani 1 1 d
O5 O 0.8718(3) 0.8470(3) 0.8246(3) 0.0161(7) Uani 1 1 d
N4 N 0.6108(3) 0.6800(3) 0.6266(3) 0.0098(7) Uani 1 1 d
N3 N 0.5950(3) 0.8410(3) 0.4573(3) 0.0141(8) Uani 1 1 d
N5 N 0.2916(3) 0.8147(3) 0.8697(3) 0.0115(7) Uani 1 1 d
N7 N 0.7929(4) 0.8627(3) 0.9260(3) 0.0111(7) Uani 1 1 d
C9 C 0.6399(4) 0.7147(4) 1.0514(3) 0.0095(8) Uani 1 1 d
N1 N 1.1656(3) 0.6467(3) 0.5756(3) 0.0113(7) Uani 1 1 d
C2 C 1.0046(4) 0.7858(4) 0.4473(4) 0.0091(8) Uani 1 1 d
C10 C 0.5155(4) 0.6617(4) 1.0873(3) 0.0097(8) Uani 1 1 d
C3 C 1.0131(4) 0.6994(4) 0.5466(4) 0.0105(8) Uani 1 1 d
C8 C 0.6545(4) 0.8045(4) 0.9543(3) 0.0087(8) Uani 1 1 d
C11 C 0.3974(4) 0.6995(4) 1.0212(3) 0.0096(8) Uani 1 1 d
C1 C 0.8709(4) 0.8403(4) 0.4120(3) 0.0094(8) Uani 1 1 d
C5 C 0.7471(4) 0.7080(4) 0.5752(3) 0.0101(8) Uani 1 1 d
C12 C 0.4122(4) 0.7914(4) 0.9232(4) 0.0103(8) Uani 1 1 d
C6 C 0.7383(4) 0.8005(4) 0.4781(3) 0.0107(9) Uani 1 1 d
C4 C 0.8891(4) 0.6554(4) 0.6106(3) 0.0090(8) Uani 1 1 d
C7 C 0.5418(4) 0.8479(4) 0.8916(3) 0.0117(9) Uani 1 1 d
loop_
_atom_site_aniso_label
_atom_site_aniso_U_11
_atom_site_aniso_U_22
_atom_site_aniso_U_33
_atom_site_aniso_U_23
_atom_site_aniso_U_13
_atom_site_aniso_U_12
Br3 0.0158(2) 0.0106(2) 0.0108(2) 0.00495(16) -0.00239(16) -0.00389(15)
Br2 0.0150(2) 0.0126(2) 0.0123(2) 0.00664(17) -0.00550(16) -0.00411(15)
Br4 0.01291(19) 0.0123(2) 0.0097(2) 0.00511(16) -0.00193(15) -0.00253(15)
Br1 0.0144(2) 0.0143(2) 0.0111(2) 0.00651(17) -0.00430(16) -0.00418(15)
S2 0.0111(5) 0.0168(5) 0.0137(6) 0.0047(4) -0.0046(4) -0.0048(4)
S1 0.0078(4) 0.0165(5) 0.0154(6) 0.0044(4) -0.0031(4) -0.0041(4)
O4 0.0158(14) 0.0234(17) 0.0111(17) -0.0002(13) 0.0022(12) -0.0050(12)
O8 0.0222(15) 0.0276(18) 0.0119(17) 0.0028(14) -0.0085(13) -0.0077(13)
N2 0.0083(15) 0.0113(18) 0.016(2) 0.0057(15) -0.0026(14) -0.0021(13)
N8 0.0135(16) 0.0098(18) 0.015(2) 0.0035(15) -0.0048(14) -0.0035(13)
O1 0.0173(14) 0.0284(18) 0.0083(16) -0.0010(14) -0.0056(12) -0.0051(13)
O7 0.0100(13) 0.0213(17) 0.0221(18) 0.0021(14) -0.0005(12) 0.0000(12)
N6 0.0094(15) 0.0160(18) 0.0109(19) 0.0048(15) -0.0023(13) -0.0042(13)
O3 0.0146(14) 0.0238(17) 0.0223(18) 0.0041(14) -0.0088(13) -0.0125(12)
O6 0.0213(15) 0.0186(17) 0.0194(18) -0.0045(14) -0.0050(13) -0.0083(12)
O2 0.0106(13) 0.0180(16) 0.0243(18) -0.0030(14) -0.0040(12) 0.0002(12)
O5 0.0157(14) 0.0197(16) 0.0115(17) 0.0016(13) 0.0030(12) -0.0075(12)
N4 0.0115(15) 0.0098(17) 0.0092(18) 0.0021(14) -0.0038(13) -0.0036(13)
N3 0.0101(16) 0.0158(19) 0.015(2) 0.0052(15) -0.0018(14) -0.0027(13)
N5 0.0104(15) 0.0143(18) 0.0103(19) 0.0041(14) -0.0024(13) -0.0047(13)
N7 0.0121(16) 0.0102(17) 0.0102(19) 0.0029(14) -0.0016(14) -0.0022(13)
C9 0.0086(17) 0.011(2) 0.007(2) 0.0013(16) -0.0012(15) 0.0020(15)
N1 0.0076(15) 0.0105(17) 0.015(2) 0.0049(15) -0.0032(14) 0.0000(13)
C2 0.0063(17) 0.010(2) 0.011(2) -0.0028(16) 0.0004(15) -0.0035(14)
C10 0.0097(17) 0.011(2) 0.006(2) 0.0032(16) -0.0005(15) -0.0012(15)
C3 0.0123(18) 0.011(2) 0.009(2) -0.0001(16) -0.0045(16) -0.0009(15)
C8 0.0094(17) 0.0060(19) 0.009(2) -0.0003(16) 0.0018(15) -0.0029(14)
C11 0.0112(18) 0.011(2) 0.003(2) 0.0025(16) 0.0024(15) -0.0008(15)
C1 0.0128(18) 0.0070(19) 0.010(2) -0.0002(16) -0.0051(15) -0.0034(14)
C5 0.0096(17) 0.009(2) 0.008(2) -0.0008(16) 0.0012(15) 0.0029(15)
C12 0.0128(18) 0.0069(19) 0.010(2) 0.0012(16) -0.0009(16) -0.0012(15)
C6 0.0115(18) 0.010(2) 0.009(2) -0.0022(16) -0.0032(15) 0.0021(15)
C4 0.0115(18) 0.010(2) 0.007(2) 0.0017(16) -0.0043(15) -0.0038(15)
C7 0.0128(18) 0.012(2) 0.007(2) 0.0019(17) 0.0003(16) 0.0011(15)
loop_
_atom_type_symbol
_atom_type_description
_atom_type_scat_dispersion_real
_atom_type_scat_dispersion_imag
_atom_type_scat_source
C C 0.0033 0.0016 'International Tables Vol C Tables 4.2.6.8 and 6.1.1.4'
Br Br -0.2901 2.4595 'International Tables Vol C Tables 4.2.6.8 and 6.1.1.4'
N N 0.0061 0.0033 'International Tables Vol C Tables 4.2.6.8 and 6.1.1.4'
O O 0.0106 0.0060 'International Tables Vol C Tables 4.2.6.8 and 6.1.1.4'
S S 0.1246 0.1234 'International Tables Vol C Tables 4.2.6.8 and 6.1.1.4'
loop_
_exptl_crystal_face_index_h
_exptl_crystal_face_index_k
_exptl_crystal_face_index_l
_exptl_crystal_face_perp_dist
_exptl_oxdiff_crystal_face_indexfrac_h
_exptl_oxdiff_crystal_face_indexfrac_k
_exptl_oxdiff_crystal_face_indexfrac_l
_exptl_oxdiff_crystal_face_x
_exptl_oxdiff_crystal_face_y
_exptl_oxdiff_crystal_face_z
1 -12 -8 0.0493 0.7103 -11.9797 -7.6979 0.1546 -0.2269 0.9616
-11 -7 3 0.0933 -11.2937 -6.5293 3.3822 0.5388 -0.7835 -0.3096
10 11 0 0.0494 10.2608 10.8238 -0.1178 -0.5639 0.8209 -0.0906
3 -9 -11 0.0366 2.5152 -8.6656 -10.7262 0.1552 0.1054 0.9822
-7 5 -13 0.0758 -6.6774 5.2208 -12.8196 0.8185 0.5625 -0.1169
-2 8 11 0.0660 -2.2130 8.4020 11.2429 -0.1904 -0.1296 -0.9731
6 -3 15 0.0807 6.0000 -3.0000 15.0000 -0.8384 -0.5675 -0.1152
1 5 15 0.0538 1.0000 5.0000 15.0000 -0.5118 -0.3441 -0.7794
-13 -2 -4 0.0867 -13.0000 -2.0000 -4.0000 0.8890 -0.3238 -0.3575
-2 -14 0 0.0697 -2.0000 -14.0000 0.0000 0.0658 -0.7153 0.6549
1 14 1 0.0674 1.0000 14.0000 1.0000 -0.0379 0.6446 -0.7394
loop_
_geom_angle_atom_site_label_1
_geom_angle_atom_site_label_2
_geom_angle_atom_site_label_3
_geom_angle
N5 S2 N6 101.39(17)
N3 S1 N4 101.63(17)
O4 N2 O3 125.5(4)
O4 N2 C2 117.6(3)
O3 N2 C2 116.8(3)
O8 N8 O7 126.7(3)
O8 N8 C9 117.8(3)
O7 N8 C9 115.5(3)
C11 N6 S2 106.0(3)
C5 N4 S1 106.0(3)
C6 N3 S1 106.1(3)
C12 N5 S2 106.5(3)
O6 N7 O5 126.4(4)
O6 N7 C8 116.3(3)
O5 N7 C8 117.2(3)
C10 C9 N8 119.6(3)
C10 C9 C8 122.7(3)
C8 C9 N8 117.7(3)
O1 N1 O2 125.8(3)
O1 N1 C3 118.1(3)
O2 N1 C3 116.1(3)
C3 C2 N2 117.8(3)
C1 C2 N2 118.9(3)
C1 C2 C3 123.1(4)
C9 C10 Br4 125.2(3)
C9 C10 C11 116.9(4)
C11 C10 Br4 117.8(3)
C2 C3 N1 117.9(4)
C4 C3 N1 119.4(3)
C4 C3 C2 122.6(3)
C9 C8 N7 118.3(3)
C7 C8 N7 118.9(4)
C7 C8 C9 122.5(4)
N6 C11 C10 126.1(4)
N6 C11 C12 113.6(3)
C10 C11 C12 120.3(4)
C2 C1 Br1 125.1(3)
C2 C1 C6 116.1(3)
C6 C1 Br1 118.8(3)
N4 C5 C6 113.2(3)
N4 C5 C4 126.0(4)
C4 C5 C6 120.8(4)
N5 C12 C11 112.5(4)
N5 C12 C7 126.7(4)
C7 C12 C11 120.8(3)
N3 C6 C1 125.8(4)
N3 C6 C5 113.0(4)
C1 C6 C5 121.2(3)
C3 C4 Br2 123.7(3)
C3 C4 C5 116.1(3)
C5 C4 Br2 120.2(3)
C8 C7 Br3 123.7(3)
C8 C7 C12 116.7(4)
C12 C7 Br3 119.6(3)
loop_
_geom_bond_atom_site_label_1
_geom_bond_atom_site_label_2
_geom_bond_distance
Br3 C7 1.874(4)
Br2 C4 1.857(4)
Br4 C10 1.868(4)
Br1 C1 1.863(4)
S2 N6 1.607(3)
S2 N5 1.603(4)
S1 N4 1.607(3)
S1 N3 1.597(4)
O4 N2 1.218(4)
O8 N8 1.209(4)
N2 O3 1.223(4)
N2 C2 1.486(5)
N8 O7 1.220(4)
N8 C9 1.490(5)
O1 N1 1.212(4)
N6 C11 1.342(5)
O6 N7 1.218(4)
O2 N1 1.225(4)
O5 N7 1.222(4)
N4 C5 1.346(5)
N3 C6 1.352(5)
N5 C12 1.348(5)
N7 C8 1.491(5)
C9 C10 1.351(5)
C9 C8 1.407(5)
N1 C3 1.479(4)
C2 C3 1.407(6)
C2 C1 1.360(5)
C10 C11 1.426(5)
C3 C4 1.366(5)
C8 C7 1.364(5)
C11 C12 1.429(5)
C1 C6 1.417(6)
C5 C6 1.425(5)
C5 C4 1.425(5)
C12 C7 1.411(6)
