#------------------------------------------------------------------------------
#$Date: 2019-11-24 07:54:51 +0200 (Sun, 24 Nov 2019) $
#$Revision: 237196 $
#$URL: file:///home/coder/svn-repositories/cod/cif/1/55/44/1554403.cif $
#------------------------------------------------------------------------------
#
# This file is available in the Crystallography Open Database (COD),
# http://www.crystallography.net/
#
# All data on this site have been placed in the public domain by the
# contributors.
#
data_1554403
loop_
_publ_author_name
'Dutta, Soumya'
'Mondal, Manas'
'Ghosh, Tubai'
'Saha, Amit'
_publ_section_title
;
 Unprecedented thiocarbamidation of nitroarenes: a facile one-pot route to
 unsymmetrical thioureas
;
_journal_issue                   1
_journal_name_full               'Organic Chemistry Frontiers'
_journal_page_first              70
_journal_paper_doi               10.1039/C8QO00752G
_journal_volume                  6
_journal_year                    2019
_chemical_formula_sum            'C14 H18 N2 O S'
_chemical_formula_weight         262.36
_space_group_crystal_system      triclinic
_space_group_IT_number           2
_space_group_name_Hall           '-P 1'
_space_group_name_H-M_alt        'P -1'
_atom_sites_solution_hydrogens   geom
_audit_creation_method           SHELXL-2016/6
_audit_update_record
;
2018-07-19 deposited with the CCDC.
2018-11-16 downloaded from the CCDC.
;
_cell_angle_alpha                80.823(5)
_cell_angle_beta                 83.934(4)
_cell_angle_gamma                78.863(4)
_cell_formula_units_Z            2
_cell_length_a                   5.5091(7)
_cell_length_b                   7.2665(8)
_cell_length_c                   16.992(2)
_cell_measurement_reflns_used    3535
_cell_measurement_temperature    99(2)
_cell_measurement_theta_max      27.08
_cell_measurement_theta_min      2.89
_cell_volume                     656.90(14)
_computing_cell_refinement       'Bruker SAINT'
_computing_data_collection       'Bruker APEX2'
_computing_data_reduction        'Bruker SAINT'
_computing_molecular_graphics    'Bruker SHELXTL'
_computing_publication_material  'Bruker SHELXTL'
_computing_structure_refinement  'SHELXL-2016/6 (Sheldrick, 2016)'
_computing_structure_solution    'SHELXT 2014/5 (Sheldrick, 2014)'
_diffrn_ambient_temperature      99(2)
_diffrn_measured_fraction_theta_full 0.995
_diffrn_measured_fraction_theta_max 0.995
_diffrn_measurement_device_type  'Bruker APEX-II CCD'
_diffrn_measurement_method       '\f and \w scans'
_diffrn_radiation_type           MoK\a
_diffrn_radiation_wavelength     0.71073
_diffrn_reflns_av_R_equivalents  0.0640
_diffrn_reflns_av_unetI/netI     0.0675
_diffrn_reflns_Laue_measured_fraction_full 0.995
_diffrn_reflns_Laue_measured_fraction_max 0.995
_diffrn_reflns_limit_h_max       6
_diffrn_reflns_limit_h_min       -6
_diffrn_reflns_limit_k_max       8
_diffrn_reflns_limit_k_min       -8
_diffrn_reflns_limit_l_max       20
_diffrn_reflns_limit_l_min       -19
_diffrn_reflns_number            6348
_diffrn_reflns_point_group_measured_fraction_full 0.995
_diffrn_reflns_point_group_measured_fraction_max 0.995
_diffrn_reflns_theta_full        24.999
_diffrn_reflns_theta_max         24.999
_diffrn_reflns_theta_min         2.436
_exptl_absorpt_coefficient_mu    0.236
_exptl_crystal_colour            White
_exptl_crystal_density_diffrn    1.326
_exptl_crystal_description       Niddle
_exptl_crystal_F_000             280.0
_refine_diff_density_max         1.099
_refine_diff_density_min         -1.166
_refine_diff_density_rms         0.102
_refine_ls_extinction_method     none
_refine_ls_goodness_of_fit_ref   1.091
_refine_ls_hydrogen_treatment    constr
_refine_ls_matrix_type           full
_refine_ls_number_parameters     164
_refine_ls_number_reflns         2310
_refine_ls_number_restraints     42
_refine_ls_restrained_S_all      1.178
_refine_ls_R_factor_all          0.1205
_refine_ls_R_factor_gt           0.1014
_refine_ls_shift/su_max          0.000
_refine_ls_shift/su_mean         0.000
_refine_ls_structure_factor_coef Fsqd
_refine_ls_weighting_details
'w=1/[\s^2^(Fo^2^)+(0.1231P)^2^+2.4644P] where P=(Fo^2^+2Fc^2^)/3'
_refine_ls_weighting_scheme      calc
_refine_ls_wR_factor_gt          0.2704
_refine_ls_wR_factor_ref         0.2926
_reflns_Friedel_coverage         0.000
_reflns_number_gt                1873
_reflns_number_total             2310
_reflns_threshold_expression     'I > 2\s(I)'
_cod_data_source_file            c8qo00752g2.cif
_cod_data_source_block           SOUMYA_a
_cod_database_code               1554403
_shelx_shelxl_version_number     2016/6
_shelx_space_group_comment
;
The symmetry employed for this shelxl refinement is uniquely defined
by the following loop, which should always be used as a source of
symmetry information in preference to the above space-group names.
They are only intended as comments.
;
_shelx_res_file
;
TITL SOUMYA_a.res in P-1
    SOUMYA_a.res
    created by SHELXL-2016/6 at 14:12:37 on 18-Jul-2018
CELL  0.71073   5.5091   7.2665  16.9921   80.823   83.934   78.863
ZERR    8.000   0.0007   0.0008   0.0022    0.005    0.004    0.004
LATT 1
SFAC C  H  N  O  S
UNIT 8  8  8  8  8
OMIT -2 50
L.S. 10
ACTA
BOND $H
FMAP 2
PLAN 20
DFIX 1.54 0.02 C2 C3  C6 C5
DFIX 1.54 0.02 C3 C2  C5 C6
DELU 0.01 C6 C5
DELU 0.01 C2 C3
SIMU 0.04 C6 C5
SIMU 0.04 C3 C2
ISOR 0.1 C3 C2
ISOR 0.1 C6 C5
TEMP -173.940
WGHT    0.123100    2.464400
FVAR       1.48793
S1    5    0.740591    0.267420    0.184282    11.00000    0.05805    0.04272 =
         0.06850   -0.02729    0.00342   -0.02374
O1    4    0.704367    0.305476    0.589538    11.00000    0.02744    0.02885 =
         0.06247   -0.01161   -0.01348    0.00323
N1    3    0.674971    0.506456    0.292746    11.00000    0.04114    0.02866 =
         0.05099   -0.01114   -0.01324   -0.00846
AFIX  43
H1    2    0.582658    0.605710    0.311242    11.00000   -1.20000
AFIX   0
C12   1    0.801301    0.370203    0.423469    11.00000    0.02217    0.01828 =
         0.05613   -0.01003   -0.00899   -0.00353
AFIX  43
H12   2    0.639861    0.419279    0.445013    11.00000   -1.20000
AFIX   0
C11   1    0.981108    0.271421    0.475268    11.00000    0.02008    0.01709 =
         0.06712   -0.01188   -0.01199   -0.00334
C13   1    0.916240    0.248464    0.562685    11.00000    0.02483    0.01475 =
         0.06633   -0.00834   -0.01611   -0.00319
C7    1    0.856498    0.396813    0.341571    11.00000    0.03148    0.02068 =
         0.05946   -0.01114   -0.00973   -0.01096
C14   1    1.111778    0.150878    0.617708    11.00000    0.02831    0.02662 =
         0.07822   -0.00120   -0.02172   -0.00449
AFIX 137
H14A  2    1.061176    0.182191    0.671738    11.00000   -1.50000
H14B  2    1.268967    0.193104    0.598682    11.00000   -1.50000
H14C  2    1.133122    0.013495    0.618702    11.00000   -1.50000
AFIX   0
C10   1    1.215682    0.195850    0.442134    11.00000    0.02354    0.02232 =
         0.08372   -0.01419   -0.01253   -0.00317
AFIX  43
H10   2    1.338770    0.126648    0.476012    11.00000   -1.20000
AFIX   0
C8    1    1.093954    0.324215    0.309860    11.00000    0.03344    0.03379 =
         0.07234   -0.02025   -0.00086   -0.01695
AFIX  43
H8    2    1.135309    0.345206    0.253842    11.00000   -1.20000
AFIX   0
C9    1    1.268268    0.221651    0.360548    11.00000    0.02346    0.03204 =
         0.08532   -0.02306    0.00062   -0.00707
AFIX  43
H9    2    1.427198    0.168035    0.338646    11.00000   -1.20000
AFIX   0
C1    1    0.628113    0.473054    0.218681    11.00000    0.06324    0.03375 =
         0.06142   -0.01442   -0.01921   -0.01996
N2    3    0.479505    0.617062    0.178004    11.00000    0.14578    0.03956 =
         0.08195   -0.02557   -0.07414   -0.00314
C4    1    0.214685    0.926780    0.075494    11.00000    0.09191    0.04860 =
         0.04087    0.00209   -0.02578   -0.02895
AFIX  23
H4A   2    0.036343    0.984124    0.076133    11.00000   -1.20000
H4B   2    0.301932    0.995989    0.029648    11.00000   -1.20000
AFIX   0
C5    1    0.312602    0.952633    0.151136    11.00000    0.18031    0.04107 =
         0.09371   -0.01903   -0.09454   -0.00163
AFIX  23
H5A   2    0.402966    1.060245    0.138156    11.00000   -1.20000
H5B   2    0.167718    0.992138    0.188252    11.00000   -1.20000
AFIX   0
C3    1    0.243367    0.728963    0.063330    11.00000    0.32555    0.05241 =
         0.10457   -0.01012   -0.14237   -0.03626
AFIX  23
H3A   2    0.075057    0.696760    0.071782    11.00000   -1.20000
H3B   2    0.296590    0.725025    0.006030    11.00000   -1.20000
AFIX   0
C2    1    0.394319    0.584041    0.104770    11.00000    0.33329    0.07855 =
         0.16106   -0.06594   -0.18342    0.02837
AFIX  23
H2A   2    0.542274    0.545043    0.068743    11.00000   -1.20000
H2B   2    0.305841    0.475387    0.117807    11.00000   -1.20000
AFIX   0
C6    1    0.461734    0.809357    0.191417    11.00000    0.37398    0.04820 =
         0.15457   -0.04191   -0.19937    0.03229
AFIX  23
H15A  2    0.412398    0.812763    0.248979    11.00000   -1.20000
H15B  2    0.631492    0.838641    0.181805    11.00000   -1.20000
AFIX   0
HKLF 4




REM  SOUMYA_a.res in P-1
REM R1 =  0.1014 for    1873 Fo > 4sig(Fo)  and  0.1205 for all    2310 data
REM    164 parameters refined using     42 restraints

END

WGHT      0.1276      2.5024

REM Highest difference peak  1.099,  deepest hole -1.166,  1-sigma level  0.102
Q1    1   0.3194  0.8065  0.2148  11.00000  0.05    1.10
Q2    1   0.5112  0.8479  0.1628  11.00000  0.05    0.94
Q3    1   0.2510  0.6069  0.1260  11.00000  0.05    0.90
Q4    1   0.4272  0.6432  0.0763  11.00000  0.05    0.85
Q5    1   0.3864  0.6913  0.0597  11.00000  0.05    0.75
Q6    1   0.4262  0.9192  0.1427  11.00000  0.05    0.50
Q7    1   0.2922  1.0918  0.1594  11.00000  0.05    0.48
Q8    1   0.0812  0.6153  0.1402  11.00000  0.05    0.41
Q9    1   0.4162  0.4509  0.0999  11.00000  0.05    0.39
Q10   1   0.6102  0.9274  0.1179  11.00000  0.05    0.38
Q11   1   0.6405  0.3498  0.2028  11.00000  0.05    0.34
Q12   1   0.1369  0.8624  0.2210  11.00000  0.05    0.32
Q13   1   0.5727  0.6645  0.0274  11.00000  0.05    0.30
Q14   1   0.5380  0.7917  0.2450  11.00000  0.05    0.28
Q15   1   0.1676  0.7487  0.1599  11.00000  0.05    0.28
Q16   1   0.2813  1.1891 -0.0544  11.00000  0.05    0.27
Q17   1   0.1267  0.7265  0.0158  11.00000  0.05    0.27
Q18   1   0.9769  0.1699  0.1583  11.00000  0.05    0.27
Q19   1   0.5067  0.8370  0.2445  11.00000  0.05    0.27
Q20   1   0.9408  0.6963  0.1841  11.00000  0.05    0.26
;
_shelx_res_checksum              74370
_shelx_hkl_file
;
  -1   0   0   39.70    4.10
  -1   0   0   42.00    4.70
   1   0   0   43.60    4.80
   1   0   0   42.00    4.90
  -2   0   0 3737.03  302.57
  -2   0   0 3093.29  304.07
  -3   0   0   88.29   10.40
  -3   0   0   89.29   10.90
   3   0   0   68.49    8.40
   3   0   0   91.39    9.20
   3   0   0   75.89   10.20
  -4   0   0  150.98   19.20
  -4   0   0  196.88   16.70
   4   0   0  136.19   18.40
   4   0   0  163.78   16.50
   4   0   0  182.18   17.80
   4   0   0  153.98   19.50
  -5   0   0  157.38   14.50
   5   0   0  103.99   17.30
  -6   0   0   33.30    5.90
   6   0   0   41.40   15.50
   6  -1   0   36.00   12.80
  -6   1   0   43.80    7.50
   5  -1   0    0.70    3.10
   5  -1   0    4.30    4.00
  -5   1   0    5.90    2.60
   4  -1   0   16.90    5.50
   4  -1   0   21.60    6.00
  -4   1   0    7.90    2.50
  -4   1   0   14.00    4.90
   3  -1   0  102.99   13.40
   3  -1   0   95.79   11.80
   3  -1   0  141.09   14.50
  -3   1   0  114.39   11.80
  -3   1   0  146.89   14.30
   2  -1   0  106.19   11.50
   2  -1   0   90.39   10.90
  -2   1   0   87.09    9.80
  -2   1   0  119.29   11.30
  -2   1   0  113.49   11.50
  -2   1   0   90.39   10.10
   1  -1   0 1846.72  165.08
  -1   1   0 1757.02  164.98
  -1   1   0 1959.30  164.78
   0  -1   0 2105.19  196.28
   0  -1   0 2367.96  196.28
   0  -1   0 2329.37  196.38
   0   1   0 2082.39  196.28
  -1  -1   0 7836.22  692.23
  -2  -1   0  225.08   24.50
  -2  -1   0  268.97   22.90
  -2  -1   0  266.07   24.00
   2   1   0  263.57   23.20
   2   1   0  219.08   23.60
   2   1   0  243.68   24.70
  -3  -1   0  547.15   58.89
  -3  -1   0  708.13   60.99
  -3  -1   0  603.14   57.49
   3   1   0  754.32   57.79
   3   1   0  576.94   59.09
  -4  -1   0  253.27   21.60
  -4  -1   0  194.68   23.20
   4   1   0  238.58   24.00
   4   1   0  238.08   21.50
   4   1   0  170.28   23.90
   5   1   0   55.89    7.20
   5   1   0   50.89   11.80
  -6  -1   0   12.60    3.90
   6   1   0   16.70    7.70
  -7  -1   0   -2.60    3.40
   7   1   0   -3.30    5.20
   6  -2   0   59.19   13.30
  -6   2   0   62.49    8.70
   5  -2   0   31.10    8.60
   5  -2   0   43.80   10.70
  -5   2   0   40.20    6.80
   4  -2   0  645.54   58.89
   4  -2   0  625.14   59.29
  -4   2   0  568.64   57.79
  -4   2   0  592.24   55.89
   3  -2   0   52.19    7.70
   3  -2   0   48.50    7.10
   3  -2   0   33.40    5.30
  -3   2   0   33.70    5.30
  -3   2   0   46.40    8.40
  -3   2   0   47.90    8.90
  -3   2   0   38.80    6.40
   2  -2   0  454.65   40.80
   2  -2   0  458.05   39.10
   2  -2   0  457.65   40.00
  -2   2   0  426.96   40.40
  -2   2   0  409.96   39.10
  -2   2   0  357.16   39.20
   1  -2   0  234.78   21.90
   1  -2   0  241.78   21.90
   1  -2   0  218.18   22.60
  -1   2   0  261.47   22.10
  -1   2   0  224.48   22.50
   0  -2   0 5051.19  437.16
   0  -2   0 4720.63  436.96
   0   2   0 5063.69  436.96
  -1  -2   0 7980.90  812.82
   1   2   0 9999.00  814.32
   1   2   0 9656.53  813.92
  -2  -2   0  415.66   39.70
  -2  -2   0  422.16   38.80
  -2  -2   0  450.05   37.90
   2   2   0  366.96   39.40
  -3  -2   0   35.60    5.80
  -3  -2   0   29.60    6.70
  -3  -2   0   44.80    5.20
   3   2   0   43.20    4.90
  -4  -2   0  516.15   45.20
  -4  -2   0  418.66   46.60
   4   2   0  509.75   45.00
   4   2   0  510.05   49.20
  -5  -2   0   57.09    7.10
   5   2   0   44.90   10.10
   5   2   0   45.20    6.50
  -6  -2   0  200.78   21.00
   6   2   0  213.88   26.60
  -7  -2   0    3.60    3.90
   7   2   0    6.80    6.60
   6  -3   0   -2.80    5.40
  -6   3   0   -2.50    3.00
   5  -3   0   34.20    9.00
  -5   3   0   40.60    6.90
   4  -3   0  410.06   44.80
   4  -3   0  367.56   41.10
  -4   3   0  425.66   39.70
   3  -3   0   25.10    6.30
   3  -3   0   25.10    5.50
  -3   3   0   21.80    4.60
  -3   3   0   24.80    5.00
  -3   3   0   15.30    3.80
   2  -3   0   24.90    3.90
   2  -3   0   21.00    5.40
  -2   3   0   21.10    5.00
  -2   3   0   26.10    4.40
   1  -3   0  184.98   19.30
   1  -3   0  211.68   18.30
  -1   3   0  189.58   19.10
  -1   3   0  190.48   18.70
   0  -3   0  225.68   21.30
   0  -3   0  241.18   21.50
   0  -3   0  234.38   21.80
   0   3   0  222.28   21.10
   0   3   0  229.08   21.50
  -1  -3   0  170.18   18.40
   1   3   0  185.48   17.60
   1   3   0  201.28   18.20
   1   3   0  185.68   18.20
  -2  -3   0    4.30    1.70
  -2  -3   0    6.50    2.80
   2   3   0    3.00    1.70
   2   3   0   13.40    3.90
  -3  -3   0   42.70    5.70
  -3  -3   0   32.50    5.00
   3   3   0   43.80    7.50
  -4  -3   0  135.59   15.30
  -4  -3   0  120.59   12.90
   4   3   0  108.19   15.80
  -5  -3   0   97.39   11.90
   5   3   0  103.09   11.70
   5   3   0  126.49   16.90
  -6  -3   0   -0.50    2.50
   6   3   0    2.50    5.30
   5  -4   0  107.99   15.30
  -5   4   0  125.79   14.20
   4  -4   0   78.19   12.30
   4  -4   0   62.09    9.40
  -4   4   0   62.89    9.20
  -4   4   0   49.50    8.30
   3  -4   0 1651.03  151.08
   3  -4   0 1606.44  148.89
  -3   4   0 1702.33  148.89
   2  -4   0  172.38   17.20
   2  -4   0  178.28   19.20
  -2   4   0  191.48   21.10
  -2   4   0  164.58   17.60
   1  -4   0  667.83   65.59
   1  -4   0  806.02   64.99
   1  -4   0  697.73   66.49
  -1   4   0  700.33   66.39
  -1   4   0  740.73   66.19
   0  -4   0  586.24   53.69
   0  -4   0  574.24   53.89
   0  -4   0  553.34   53.59
   0   4   0  598.14   53.99
   0   4   0  652.73   53.39
   1   4   0 1435.26  131.29
   1   4   0 1505.55  131.69
  -2  -4   0  872.71   74.49
  -2  -4   0  844.02   71.09
   2   4   0  706.53   72.29
   2   4   0  760.62   73.59
  -3  -4   0   21.80    6.50
  -3  -4   0   29.60    4.80
   3   4   0   43.30    5.80
   3   4   0   51.69    9.80
  -4  -4   0  309.87   27.90
  -4  -4   0  291.87   28.20
   4   4   0  269.97   27.10
   4   4   0  258.97   30.50
  -5  -4   0   55.39    8.10
   5   4   0   61.69   13.60
  -6  -4   0   35.10    6.80
   6   4   0   39.90   12.40
   5  -5   0    2.10    4.40
  -5   5   0    8.10    5.00
  -5   5   0    1.50    3.70
   4  -5   0   62.99    8.90
  -4   5   0   45.00    8.80
  -4   5   0   44.60    9.30
   3  -5   0  543.95   53.79
   3  -5   0  562.24   56.89
  -3   5   0  650.53   55.29
   2  -5   0   -4.40    2.10
  -2   5   0   -1.00    1.70
  -2   5   0   -2.00    2.40
   1  -5   0  546.35   44.60
  -1   5   0  426.26   43.40
  -1   5   0  437.56   43.50
   0  -5   0   37.80    5.30
   0  -5   0   40.80    5.30
   0   5   0   43.60    5.90
   0   5   0   50.79    5.20
  -1  -5   0  561.84   53.09
  -1  -5   0  514.25   53.59
   1   5   0  661.13   53.39
  -2  -5   0  357.86   34.60
   2   5   0  369.76   33.90
   2   5   0  350.16   32.60
   2   5   0  298.07   32.80
  -3  -5   0  325.07   28.80
  -3  -5   0  301.37   34.00
   3   5   0  346.27   30.20
   3   5   0  261.67   31.70
  -4  -5   0   51.99    7.40
   4   5   0   70.79   11.60
  -5  -5   0  183.48   20.00
   5   5   0  178.48   24.00
   6   5   0   -2.30    5.60
  -4   6   0   -1.80    3.00
  -4   6   0   -1.20    2.70
  -3   6   0   71.49   10.50
  -2   6   0   40.80    8.40
  -1   6   0    3.50    2.20
  -1   6   0    4.30    2.50
   0  -6   0  102.69   10.80
   0   6   0  111.49   12.20
  -1  -6   0  277.97   26.90
   1   6   0  261.57   26.30
   2   6   0  345.57   33.50
   2   6   0  354.26   34.30
   3   6   0  282.67   30.40
   3   6   0  353.16   33.00
  -4  -6   0  360.96   36.20
   4   6   0  418.76   37.70
  -5  -6   0  110.59   14.40
   5   6   0  149.69   16.20
   5   6   0  172.18   21.10
   6   6   0   23.60    6.60
   6   6   0   24.90   10.20
  -3   7   0   28.00    7.30
  -2   7   0  304.77   30.90
  -1   7   0  323.07   34.20
  -1   7   0  441.76   39.10
   0   7   0    1.20    2.30
  -1  -7   0   67.49    9.20
   1   7   0   67.89    9.30
  -2  -7   0  174.68   20.30
   2   7   0  181.48   19.10
   3   7   0   22.00    6.20
   3   7   0    6.00    4.90
   4   7   0   11.80    6.00
   4   7   0   17.40    4.80
   5   7   0  180.88   21.60
   5   7   0  229.78   26.40
  -2   8   0    5.50    3.60
  -1   8   0   24.50    6.00
  -1   8   0   47.70    8.70
   0   8   0   59.29    9.50
  -1  -8   0  221.78   20.50
   1   8   0  178.08   21.20
  -2  -8   0   -0.90    4.00
   2   8   0    1.10    3.30
   3   8   0   91.09   12.20
   4   8   0   24.60    6.40
   4   8   0   23.10    8.40
   0   9   0  262.37   27.80
   1   9   0   14.60    4.90
   2   9   0   31.60    6.90
   2   9  -1   13.00    5.90
   1   9  -1   76.49   11.60
   0   9  -1    3.90    3.20
   4   8  -1   15.90    5.50
   3   8  -1   60.29    9.80
   2   8  -1   41.60    8.20
   1   8  -1  163.08   19.10
  -1  -8   1  185.98   18.90
   0   8  -1   15.80    4.50
  -1   8  -1   73.59   10.80
  -2   8  -1   53.79   10.80
   5   7  -1   41.30    8.10
   5   7  -1   20.00    8.60
   4   7  -1   19.00    7.30
   4   7  -1   31.70    7.00
   3   7  -1  133.19   19.30
   2   7  -1   63.59    8.70
  -2  -7   1   51.39   10.70
   1   7  -1   58.19    8.30
  -1  -7   1   53.89    8.40
   0   7  -1   14.30    4.00
  -1   7  -1   -6.40    2.50
  -1   7  -1    1.20    3.60
  -2   7  -1   23.80    6.70
  -3   7  -1  119.69   15.30
   6   6  -1   23.70    9.10
   6   6  -1   33.30    7.30
   5   6  -1   79.19   15.00
   5   6  -1  110.19   13.00
   4   6  -1   13.90    6.10
   4   6  -1   17.70    5.00
  -4  -6   1   11.10    3.10
   3   6  -1  145.79   16.40
   3   6  -1  160.38   18.50
   2   6  -1  152.78   16.40
  -2  -6   1  158.78   18.20
   1   6  -1  232.28   23.60
  -1  -6   1  246.38   24.50
   0   6  -1  213.38   19.00
   0   6  -1  187.68   20.40
   0  -6   1  187.68   19.50
   0  -6   1  210.08   20.00
  -1   6  -1   83.29    9.80
  -1   6  -1   83.29   10.40
   1  -6   1   81.49   10.30
  -2   6  -1   66.69    9.50
   2  -6   1   63.79   10.00
  -3   6  -1   46.40    9.30
   3  -6   1   53.09   10.70
   3  -6   1   40.80    5.70
  -4   6  -1    4.80    3.60
  -4   6  -1   10.20    4.00
   4  -6   1   11.10    4.00
   6   5  -1   -0.60    6.10
  -5  -5   1    5.20    4.40
   4   5  -1   69.29   12.00
   4   5  -1   68.99    9.20
  -4  -5   1   64.89    8.60
   3   5  -1  140.29   17.70
   3   5  -1  158.58   15.90
   2   5  -1  340.17   35.50
   2   5  -1  396.16   37.00
  -2  -5   1  408.76   38.00
   1   5  -1   76.89    9.10
   1   5  -1   81.19   11.00
  -1  -5   1   80.49   10.00
   0   5  -1   47.40    5.60
   0   5  -1   33.50    5.40
   0  -5   1   33.00    6.20
   0  -5   1   32.70    4.90
  -1   5  -1  875.01   75.99
  -1   5  -1  694.53   75.59
   1  -5   1  915.91   74.99
   1  -5   1  845.82   76.59
   1  -5   1  828.32   74.59
  -2   5  -1  730.53   63.49
  -2   5  -1  732.03   62.89
   2  -5   1  700.73   64.09
   2  -5   1  570.64   61.39
  -3   5  -1  665.23   69.89
   3  -5   1  846.02   72.89
   3  -5   1  773.02   69.69
  -4   5  -1   63.29    8.90
  -4   5  -1   48.30    8.70
   4  -5   1   38.60    8.20
   4  -5   1   67.89   13.50
  -5   5  -1   37.20    7.60
  -5   5  -1   41.00    9.30
   5  -5   1   54.69   10.00
   6   4  -1   11.10    7.80
  -6  -4   1    7.20    4.00
   5   4  -1  154.88   22.40
  -5  -4   1  189.08   18.90
   4   4  -1  147.59   19.30
  -4  -4   1  149.19   17.00
  -4  -4   1  171.48   16.80
   3   4  -1   10.00    2.80
   3   4  -1   13.60    5.00
  -3  -4   1    8.90    3.20
  -3  -4   1   11.10    4.10
   2   4  -1  185.08   20.90
   2   4  -1  213.88   21.20
  -2  -4   1  218.88   19.10
  -2  -4   1  185.58   21.30
   1   4  -1  293.27   29.10
   1   4  -1  302.17   28.40
  -1  -4   1  316.27   29.60
  -1  -4   1  301.87   28.40
   0   4  -1   12.20    2.80
   0   4  -1   12.20    2.30
   0  -4   1    8.90    2.30
   0  -4   1   11.50    2.40
   0  -4   1    6.50    2.30
  -1   4  -1  279.27   31.00
   1  -4   1  370.56   32.00
   1  -4   1  338.97   30.50
   1  -4   1  336.67   30.90
   2  -4   1  432.26   42.90
   2  -4   1  502.25   45.00
  -3   4  -1  488.25   41.40
   3  -4   1  433.46   43.20
   3  -4   1  378.96   41.00
  -4   4  -1   -2.60    2.70
  -4   4  -1    2.30    2.20
   4  -4   1    0.00    3.30
   4  -4   1   -1.20    3.70
  -5   4  -1   18.30    5.20
   5  -4   1   19.90    6.50
   5  -4   1   27.90   10.10
   6   3  -1   -2.50    6.10
  -6  -3   1    3.80    3.40
   5   3  -1    0.30    3.40
  -5  -3   1   -1.00    2.50
   4   3  -1   -2.90    2.10
   4   3  -1    0.70    1.60
  -4  -3   1    1.10    2.10
   3   3  -1  643.44   60.19
  -3  -3   1  654.63   63.19
  -3  -3   1  574.84   60.59
  -3  -3   1  782.12   60.89
   2   3  -1   22.40    5.10
   2   3  -1   10.60    2.80
   2   3  -1   18.20    3.50
  -2  -3   1   16.50    3.10
  -2  -3   1   15.50    4.00
  -2  -3   1   14.90    3.20
   1   3  -1  189.78   20.60
   1   3  -1  231.88   21.00
   1   3  -1  237.68   20.30
  -1  -3   1  195.28   21.10
  -1  -3   1  215.38   19.40
   0   3  -1  337.47   33.10
   0  -3   1  407.76   33.20
   0  -3   1  378.76   33.10
   0  -3   1  321.07   33.00
  -1   3  -1    4.30    2.10
  -1   3  -1    5.90    2.10
   1  -3   1    4.70    1.50
   1  -3   1    4.80    2.10
   1  -3   1    6.60    1.90
  -2   3  -1  264.37   27.90
  -2   3  -1  276.17   28.80
   2  -3   1  287.07   29.40
   2  -3   1  354.56   28.90
  -3   3  -1  811.12   80.99
  -3   3  -1  883.91   81.29
   3  -3   1  837.62   83.19
   3  -3   1 1033.60   82.79
  -4   3  -1  804.62   87.39
  -4   3  -1 1016.40   86.99
   4  -3   1  910.81   89.79
   4  -3   1 1084.69   89.99
  -5   3  -1    5.90    2.90
   5  -3   1    5.90    4.60
   5  -3   1    0.20    4.40
  -6   3  -1   28.90    5.90
   6  -3   1   26.50    8.50
   6   2  -1   -3.90    4.20
  -6  -2   1   -2.10    2.80
   5   2  -1  130.49   18.90
  -5  -2   1  154.28   15.60
   4   2  -1    5.90    2.10
   4   2  -1   13.10    4.50
  -4  -2   1    8.80    2.70
  -4  -2   1    5.50    3.50
   3   2  -1  133.59   16.00
   3   2  -1  142.79   13.50
  -3  -2   1  140.39   13.70
  -3  -2   1  134.49   16.60
  -3  -2   1  123.99   14.50
   2   2  -1 1142.39   94.59
  -2  -2   1 1069.49   94.69
  -2  -2   1  958.50   94.89
   1   2  -1  436.06   38.20
   1   2  -1  433.76   38.70
   1   2  -1  396.66   37.70
  -1  -2   1  409.76   38.10
   0   2  -1  242.78   20.20
   0   2  -1  224.98   20.40
   0  -2   1  196.68   20.20
  -1   2  -1 1355.16  111.49
   1  -2   1 1347.07  111.59
   1  -2   1 1151.58  111.29
   1  -2   1 1144.09  111.99
  -2   2  -1   76.79   10.00
  -2   2  -1   97.29    9.50
  -2   2  -1   87.89    9.70
   2  -2   1   91.69   10.00
   2  -2   1   83.99   10.50
   2  -2   1   83.49    9.10
  -3   2  -1 1064.59   87.89
  -3   2  -1  837.22   85.99
  -3   2  -1  874.21   87.89
   3  -2   1 1091.19   88.59
   3  -2   1  815.62   85.99
   3  -2   1 1086.89   89.19
  -4   2  -1  383.76   37.70
   4  -2   1  404.16   40.50
   4  -2   1  418.86   41.10
  -5   2  -1   47.20    6.60
   5  -2   1   45.40   10.60
   5  -2   1   33.80    9.00
  -6   2  -1   23.10    5.30
   6  -2   1   18.10    6.60
   6   1  -1    1.80    4.90
  -6  -1   1    0.60    3.20
   5   1  -1   -1.90    1.90
   5   1  -1    4.00    4.90
  -5  -1   1    3.80    2.60
   4   1  -1   62.99   10.10
   4   1  -1   58.09    6.60
  -4  -1   1   36.00    7.80
  -4  -1   1   45.90    6.20
   3   1  -1  528.55   46.10
   3   1  -1  583.84   49.40
  -3  -1   1  514.75   46.10
  -3  -1   1  458.25   48.50
  -3  -1   1  443.26   47.30
   2   1  -1 5782.82  512.55
  -2  -1   1 5633.24  514.45
  -2  -1   1 5975.60  513.65
   0   1  -1 1019.70   85.49
   0   1  -1  945.01   85.29
   0  -1   1  994.20   85.29
   0  -1   1  890.01   85.29
  -1   1  -1 1042.00   94.69
  -1   1  -1  985.40   94.19
   1  -1   1 1162.08   94.69
   1  -1   1 1044.20   94.79
  -2   1  -1  847.32   69.79
  -2   1  -1  804.72   71.09
   2  -1   1  676.53   70.79
   2  -1   1  766.02   71.09
   2  -1   1  784.02   69.89
  -3   1  -1  391.66   38.30
  -3   1  -1  471.45   40.80
   3  -1   1  465.75   41.10
   3  -1   1  354.26   38.60
   3  -1   1  428.46   40.80
  -4   1  -1  242.18   29.30
  -4   1  -1  318.37   27.30
   4  -1   1  331.87   30.90
   4  -1   1  252.57   29.80
  -5   1  -1   59.29    7.20
   5  -1   1   44.40   10.90
   5  -1   1   46.70   10.70
   6  -1   1   19.30   12.30
   6   0  -1   -2.50    4.40
  -6   0   1   -0.70    2.60
   5   0  -1   17.10    7.30
  -5   0   1   18.10    4.00
   4   0  -1   37.50    5.50
   4   0  -1   43.80    9.10
  -4   0   1   46.00    9.60
  -4   0   1   35.30    5.20
   3   0  -1   21.20    5.80
   3   0  -1   23.60    5.80
   3   0  -1   18.10    3.40
   3   0  -1   14.70    3.10
  -3   0   1   13.70    3.90
  -3   0   1   13.10    4.30
  -3   0   1   10.80    2.70
   2   0  -1   19.90    2.90
   2   0  -1   15.20    3.80
   2   0  -1   19.80    2.70
   2   0  -1   18.60    4.30
  -2   0   1   25.00    5.00
  -2   0   1   17.80    2.60
  -2   0   1   14.10    3.70
   1   0  -1 4957.20  462.55
  -1   0   1 5270.67  462.65
  -1   0   1 5456.45  462.55
  -1   0  -1 2294.87  230.58
  -1   0  -1 2776.72  230.58
   1   0   1 2791.32  230.58
   1   0   1 2539.15  230.68
  -2   0  -1    0.30    1.40
  -2   0  -1    0.00    1.00
  -2   0  -1    1.30    0.80
   2   0   1   -0.50    1.00
   2   0   1    2.40    1.10
   2   0   1    0.20    0.70
   2   0   1    0.20    1.10
  -3   0  -1   83.39   12.10
  -3   0  -1  107.29   10.40
  -3   0  -1   81.99   11.80
   3   0   1  128.29   11.50
   3   0   1   98.39   12.40
   3   0   1  121.39   10.70
  -4   0  -1   -2.00    1.80
  -4   0  -1   -0.30    1.10
   4   0   1    0.50    2.30
   4   0   1   -1.70    2.20
  -5   0  -1    1.30    2.10
   5   0   1   -1.70    3.00
   5   0   1   -1.20    3.60
  -6   0  -1   -4.70    2.10
   6   0   1   -0.70    5.30
   6  -1  -1  117.19   25.30
  -6   1   1  116.19   13.40
   5  -1  -1   53.79   11.90
  -5   1   1   59.69    7.80
   4  -1  -1   13.90    5.20
   4  -1  -1   14.90    5.80
  -4   1   1   15.00    5.40
   3  -1  -1   91.49    9.10
   3  -1  -1   78.99   10.60
   3  -1  -1   84.39   10.70
  -3   1   1   80.99    8.80
  -3   1   1   64.19    9.90
  -3   1   1   85.19   11.60
   2  -1  -1   21.60    4.40
   2  -1  -1   23.90    5.20
   2  -1  -1   21.80    3.30
  -2   1   1   23.00    4.00
  -2   1   1   17.70    4.50
  -2   1   1   23.80    3.40
  -2   1   1   27.50    3.40
   1  -1  -1  111.79   10.20
   1  -1  -1  107.79    9.70
   1  -1  -1  101.99   10.50
  -1   1   1  104.79   10.10
  -1   1   1   88.49    9.70
  -1   1   1   90.59   10.30
   0  -1  -1   35.00    3.50
   0   1   1   32.00    3.40
   0   1   1   41.80    3.60
  -1  -1  -1  403.66   41.50
  -1  -1  -1  530.65   42.50
  -1  -1  -1  486.25   41.30
   1   1   1  400.56   41.50
   1   1   1  443.46   42.30
   1   1   1  516.75   41.30
  -2  -1  -1 1552.14  130.19
  -2  -1  -1 1399.06  128.99
   2   1   1 1483.25  130.09
   2   1   1 1418.76  127.79
   2   1   1 1357.26  128.89
  -3  -1  -1   19.40    5.00
  -3  -1  -1   22.00    5.50
  -3  -1  -1   12.60    2.50
   3   1   1   14.50    4.00
   3   1   1   17.40    2.50
   3   1   1   14.00    4.20
  -4  -1  -1  256.97   28.30
  -4  -1  -1  344.67   31.60
   4   1   1  348.37   33.20
   4   1   1  286.67   28.50
   4   1   1  334.27   31.60
  -5  -1  -1   54.99    7.00
   5   1   1   45.00   11.10
   5   1   1   71.39   12.60
  -6  -1  -1   22.00    4.90
   6   1   1   25.90    8.90
  -7  -1  -1   49.90    8.20
   7   1   1   62.79   14.00
  -6   2   1   58.19    8.80
   5  -2  -1   28.50    8.00
  -5   2   1   35.70    6.30
   4  -2  -1   71.79   11.70
   4  -2  -1   97.99   12.80
  -4   2   1   91.29    9.70
  -4   2   1   64.89   10.60
   3  -2  -1   38.60    7.40
   3  -2  -1   18.50    5.40
   3  -2  -1   30.20    4.50
  -3   2   1   22.50    4.40
  -3   2   1   29.10    6.20
  -3   2   1   43.60    8.50
  -3   2   1   31.10    5.70
   2  -2  -1   73.49    8.00
   2  -2  -1   75.79    9.60
   2  -2  -1   72.99    8.70
  -2   2   1   68.39    8.50
  -2   2   1   87.89    8.60
  -2   2   1   78.79    8.30
  -2   2   1   77.59    9.50
   1  -2  -1   18.10    2.80
   1  -2  -1   18.80    2.70
   1  -2  -1   20.80    4.10
  -1   2   1   22.20    4.00
  -1   2   1   24.20    2.80
  -1   2   1   28.70    3.10
   0  -2  -1 6518.05  534.05
   0   2   1 5575.14  534.15
  -1  -2  -1 8665.83  766.42
  -2  -2  -1   20.80    4.50
  -2  -2  -1   17.60    3.10
  -2  -2  -1   23.40    2.90
   2   2   1   17.30    4.40
   2   2   1   20.00    2.80
   2   2   1   22.10    3.30
  -3  -2  -1   80.99   11.40
  -3  -2  -1  109.49    9.40
  -3  -2  -1   69.89    9.90
   3   2   1   80.79   11.60
   3   2   1   93.19   10.50
   3   2   1   93.09    9.10
  -4  -2  -1    9.30    3.60
  -4  -2  -1    1.50    1.60
   4   2   1    8.80    4.40
   4   2   1    4.60    3.60
   4   2   1    3.50    1.70
  -5  -2  -1  307.37   26.30
   5   2   1  266.07   27.90
   5   2   1  221.38   29.80
  -6  -2  -1    1.40    2.80
   6   2   1    8.30    5.00
  -7  -2  -1    3.70    3.90
   7   2   1    0.60    5.50
   6  -3  -1  130.69   19.40
  -6   3   1  138.79   15.70
   5  -3  -1   27.90    7.50
  -5   3   1   15.80    4.60
   4  -3  -1  174.98   18.20
  -4   3   1  121.89   15.90
  -4   3   1  159.38   17.30
  -4   3   1  145.79   16.10
   3  -3  -1   11.30    3.80
   3  -3  -1   14.20    5.00
  -3   3   1   15.20    4.00
  -3   3   1   11.60    3.50
  -3   3   1   16.10    4.20
   2  -3  -1  538.45   48.40
   2  -3  -1  505.05   49.70
  -2   3   1  519.85   49.40
  -2   3   1  491.55   48.10
  -2   3   1  563.24   48.10
   1  -3  -1   26.00    5.10
   1  -3  -1   25.20    3.50
  -1   3   1   23.20    3.90
  -1   3   1   24.10    3.60
   0  -3  -1 2282.57  185.18
   0  -3  -1 2086.79  184.58
   0   3   1 1886.41  184.68
  -1  -3  -1 1915.31  164.98
   1   3   1 1976.60  163.98
   1   3   1 1623.64  163.08
  -2  -3  -1  417.06   37.60
  -2  -3  -1  341.27   35.00
   2   3   1  410.36   35.60
  -3  -3  -1    0.10    1.10
  -3  -3  -1    0.20    2.20
  -3  -3  -1   -0.40    1.30
   3   3   1    1.60    1.30
   3   3   1    1.80    2.10
  -4  -3  -1  529.25   47.30
  -4  -3  -1  492.05   48.50
  -5  -3  -1    8.80    3.20
   5   3   1   18.50    7.10
   5   3   1    2.90    2.30
  -6  -3  -1  125.49   14.70
   6   3   1  152.58   20.90
   5  -4  -1   27.30    7.30
   4  -4  -1   13.80    4.50
  -4   4   1    8.70    3.20
  -4   4   1    5.40    2.90
   3  -4  -1    7.50    3.20
   3  -4  -1    8.50    4.60
  -3   4   1   13.20    3.90
  -3   4   1   18.70    4.80
   2  -4  -1  107.59   13.20
   2  -4  -1  103.59   10.90
   2  -4  -1  128.09   13.20
  -2   4   1  101.69   11.60
  -2   4   1  103.39   13.80
   1  -4  -1   68.99    8.20
  -1   4   1   62.09    7.60
  -1   4   1   57.29    7.20
   0  -4  -1   27.80    3.40
   0   4   1   28.50    3.50
   0   4   1   25.80    4.60
  -1  -4  -1   35.00    5.20
   1   4   1   24.90    4.40
  -2  -4  -1 2258.77  215.98
   2   4   1 2510.45  214.28
   2   4   1 2447.66  214.58
  -3  -4  -1  183.28   18.90
  -3  -4  -1  161.48   21.30
   3   4   1  236.98   24.00
   3   4   1  214.48   19.40
  -4  -4  -1    3.20    3.00
   4   4   1   12.60    3.00
   4   4   1   10.60    5.40
   5   4   1  185.08   23.80
  -6  -4  -1   23.50    5.10
   6   4   1   13.00    7.40
   5  -5  -1    1.90    4.60
  -5   5   1    1.20    3.40
   4  -5  -1    9.30    4.10
  -4   5   1   10.00    4.30
  -4   5   1    6.70    3.60
   3  -5  -1  250.97   26.10
  -3   5   1  315.37   28.10
  -2   5   1  131.29   14.80
  -2   5   1  143.99   15.80
  -1   5   1    4.60    2.10
  -1   5   1   -2.20    1.90
   0  -5  -1  322.27   33.90
   0   5   1  402.36   34.00
   0   5   1  354.76   32.80
  -1  -5  -1   52.19    7.00
  -1  -5  -1   55.99    6.70
   1   5   1   45.30    6.40
  -2  -5  -1 1331.07  122.69
   2   5   1 1351.16  121.99
   2   5   1 1321.57  121.29
   2   5   1 1371.26  120.89
  -3  -5  -1    2.10    1.20
  -3  -5  -1   -1.40    3.40
   3   5   1    3.80    2.40
   3   5   1    1.80    2.50
   3   5   1   10.00    4.30
  -4  -5  -1  550.34   51.79
   4   5   1  578.74   56.19
  -5  -5  -1   46.80    7.80
   5   5   1   39.90   12.40
   6   5   1   18.90    7.80
  -4   6   1   22.10    6.20
  -4   6   1   33.30    7.40
  -3   6   1    8.90    3.90
  -2   6   1  229.28   23.60
  -1   6   1    1.30    2.30
  -1   6   1    2.10    2.40
   0   6   1    0.70    2.00
   0   6   1    0.80    2.10
  -1  -6  -1   35.00    6.10
   1   6   1   52.19    6.50
  -2  -6  -1   36.00    7.70
   2   6   1   38.70    6.20
   2   6   1   43.00    7.10
   3   6   1  144.99   17.20
   3   6   1  191.88   19.80
   4   6   1   25.70    5.60
   4   6   1   20.30    7.10
  -5  -6  -1   -1.10    3.30
   5   6   1   -4.10    4.70
   5   6   1   -3.10    3.10
   6   6   1   -0.40    6.30
  -3   7   1   66.89   11.80
  -2   7   1  707.23   66.39
  -1   7   1  112.99   14.80
  -1   7   1  143.09   14.20
   0   7   1  109.89   13.00
  -1  -7  -1   56.49    7.50
   1   7   1   50.29    7.80
  -2  -7  -1   78.69   14.80
   2   7   1   61.49    9.10
   3   7   1   -2.50    2.50
   3   7   1    2.60    3.30
   4   7   1  156.18   19.90
   4   7   1  162.18   18.00
   5   7   1   -2.10    5.20
   5   7   1   12.80    4.60
  -2   8   1   15.50    5.50
  -1   8   1  378.26   33.00
  -1   8   1  279.37   30.20
   0   8   1    1.20    3.10
  -1  -8  -1   43.00    7.10
   1   8   1   56.69    8.40
  -2  -8  -1    0.70    4.20
   2   8   1    0.80    3.00
   3   8   1   30.40    7.00
   4   8   1    1.50    4.60
   4   8   1   -1.40    3.40
   0   9   1   12.40    5.10
   1   9   1   -2.20    2.90
   2   9   1    5.10    4.00
   1   9  -2   23.50    5.50
   4   8  -2   -5.90    3.90
   3   8  -2   27.00    6.90
   2   8  -2   -0.90    3.30
   1   8  -2   30.50    6.00
  -1  -8   2   25.20    6.70
   0   8  -2    0.20    2.90
  -1   8  -2   30.30    6.30
  -2   8  -2   -1.70    2.60
   5   7  -2   -5.80    5.10
   5   7  -2   -1.20    3.70
   4   7  -2   50.59    8.90
   4   7  -2   51.89   11.20
   3   7  -2   96.59   15.60
   2   7  -2  157.18   16.10
  -2  -7   2  114.99   19.60
   1   7  -2   69.39    8.90
  -1  -7   2   50.69    8.60
   0   7  -2    8.00    3.60
   0  -7   2   20.10    3.90
   0  -7   2   11.90    3.90
  -1   7  -2   -1.90    2.40
   1  -7   2   -3.30    2.70
  -2   7  -2   -0.50    2.60
   2  -7   2    1.40    3.40
  -3   7  -2   12.70    6.40
   3  -7   2   15.50    7.00
   5   6  -2  118.99   13.50
   5   6  -2  115.29   16.80
  -5  -6   2   80.99   12.90
   4   6  -2   27.00    7.80
   4   6  -2   22.10    5.40
  -4  -6   2   17.10    4.20
   3   6  -2  128.49   15.80
   3   6  -2  120.99   14.10
   2   6  -2    6.80    3.00
  -2  -6   2   14.20    5.30
   1   6  -2   20.20    4.50
  -1  -6   2   22.30    5.40
   0  -6   2 1121.69   96.09
   0  -6   2  996.70   95.39
  -1   6  -2   -0.30    2.30
  -1   6  -2    4.30    2.60
   1  -6   2   -2.40    2.40
   1  -6   2   -1.30    2.90
  -2   6  -2    2.20    2.70
   2  -6   2    1.90    3.60
   2  -6   2    3.60    1.90
  -3   6  -2    1.20    2.90
   3  -6   2    0.80    2.50
   3  -6   2    2.10    3.80
  -4   6  -2    1.20    2.50
  -4   6  -2   -1.20    2.70
   4  -6   2   -3.80    3.50
   4  -6   2    4.80    5.10
   6   5  -2   62.19   13.80
   5   5  -2   25.40    9.10
   4   5  -2   87.39   10.90
   4   5  -2   95.99   13.80
  -4  -5   2   81.69   10.50
   3   5  -2   65.99    8.20
   3   5  -2   74.09   10.70
  -3  -5   2   54.19    7.30
   2   5  -2   50.99    7.70
   2   5  -2   63.99    6.90
  -2  -5   2   41.00    5.30
   1   5  -2   -2.00    1.20
  -1  -5   2    0.80    2.20
  -1  -5   2   -0.40    1.20
   0   5  -2  135.19   12.40
   0  -5   2  103.09   11.50
   0  -5   2   98.09   11.60
  -1   5  -2   32.00    5.70
  -1   5  -2   33.40    5.90
   1  -5   2   26.60    4.30
   1  -5   2   35.60    6.60
  -2   5  -2  170.68   18.00
  -2   5  -2  179.28   17.70
   2  -5   2  162.28   18.50
   2  -5   2  150.48   16.70
  -3   5  -2  125.29   14.80
   3  -5   2  122.99   14.30
   3  -5   2  131.49   16.40
  -4   5  -2    8.10    3.80
  -4   5  -2   19.00    5.20
   4  -5   2   15.50    8.80
   4  -5   2   14.30    5.70
  -5   5  -2   27.00    8.00
  -5   5  -2   31.10    6.50
   5  -5   2   24.60    9.40
   5  -5   2   13.40    6.10
   6   4  -2   89.19   18.40
  -6  -4   2  101.59   12.80
   5   4  -2  152.28   21.10
  -5  -4   2  170.78   17.90
   4   4  -2   36.50    9.70
  -4  -4   2   46.60    7.70
  -4  -4   2   67.89    8.10
   3   4  -2   92.59   10.80
   3   4  -2   87.49   10.70
   3   4  -2  126.99   14.00
  -3  -4   2  105.59   11.50
  -3  -4   2   96.79   11.00
  -3  -4   2   93.39   13.20
   2   4  -2   46.60    7.10
   2   4  -2   33.80    6.30
   2   4  -2   50.29    5.80
  -2  -4   2   36.30    6.80
   1   4  -2  183.98   22.40
  -1  -4   2  171.48   18.50
  -1  -4   2  192.28   17.90
  -1  -4   2  229.58   20.20
   0   4  -2   19.40    3.50
   0   4  -2   19.90    4.00
   0  -4   2   16.80    3.30
   0  -4   2   13.00    3.20
   0  -4   2   12.90    3.00
  -1   4  -2  318.77   27.90
  -1   4  -2  294.47   27.80
   1  -4   2  295.57   27.50
   1  -4   2  253.67   28.00
  -2   4  -2  194.18   19.90
  -2   4  -2  209.48   20.80
   2  -4   2  198.98   20.00
   2  -4   2  187.98   21.10
  -3   4  -2   61.29    8.40
   3  -4   2   56.89   11.10
  -4   4  -2   27.20    5.80
  -4   4  -2   25.90    6.00
   4  -4   2   20.10    7.30
   4  -4   2   23.60    6.10
  -5   4  -2    1.00    2.50
   5  -4   2    0.10    4.90
   5  -4   2   -1.30    3.90
   6   3  -2  346.27   35.50
  -6  -3   2  252.17   28.60
   5   3  -2   78.69   14.60
  -5  -3   2  113.69   12.20
   4   3  -2  928.51   74.39
   4   3  -2  770.32   77.69
  -4  -3   2  751.72   75.39
  -4  -3   2  799.62   74.49
   3   3  -2   43.00    5.50
   3   3  -2   30.20    7.10
  -3  -3   2   39.40    5.90
  -3  -3   2   34.50    5.50
  -3  -3   2   41.30    7.20
   2   3  -2  120.49   14.20
   2   3  -2  127.19   12.70
   2   3  -2  116.69   12.80
  -2  -3   2  132.49   13.20
  -2  -3   2  139.59   14.80
   1   3  -2   23.90    3.10
   1   3  -2   20.50    3.80
  -1  -3   2   19.90    4.20
  -1  -3   2   21.20    2.50
  -1  -3   2   12.50    2.90
   0   3  -2  767.82   61.19
   0  -3   2  699.63   61.69
   0  -3   2  627.74   61.29
   0  -3   2  630.04   61.29
  -1   3  -2  177.48   16.10
  -1   3  -2  161.98   16.30
   1  -3   2  170.58   15.90
   1  -3   2  140.89   16.40
  -2   3  -2  196.08   18.40
   2  -3   2  159.88   17.50
   2  -3   2  164.38   18.40
  -3   3  -2 1103.29   96.89
   3  -3   2 1167.68   98.29
   3  -3   2  920.51   98.19
  -4   3  -2  190.78   21.30
   4  -3   2  232.58   24.10
   4  -3   2  219.88   24.80
  -5   3  -2   -1.90    1.80
   5  -3   2    2.40    4.00
   5  -3   2    0.90    4.10
  -6   3  -2    7.20    3.30
   6  -3   2    1.80    7.30
   6  -3   2    9.90    7.50
   6   2  -2  183.88   25.00
  -6  -2   2  189.88   20.00
   5   2  -2   45.20   10.90
  -5  -2   2   42.00    7.40
   4   2  -2   12.20    3.00
   4   2  -2   12.10    5.20
  -4  -2   2   12.90    4.80
   3   2  -2 2392.96  217.68
   3   2  -2 2356.86  220.38
  -3  -2   2 2695.43  218.08
  -3  -2   2 2356.56  218.88
  -3  -2   2 2434.96  221.48
   2   2  -2    0.60    1.00
   2   2  -2    0.70    1.80
  -2  -2   2    0.30    1.00
  -2  -2   2    1.40    1.50
  -2  -2   2    0.70    1.50
   1   2  -2 3944.81  408.56
   1   2  -2 5319.77  408.46
   1   2  -2 4387.56  407.76
  -1  -2   2 4530.35  408.26
  -1  -2   2 4889.61  409.06
   0   2  -2   69.59    6.60
   0   2  -2   69.09    6.80
   0  -2   2   65.59    6.70
   0  -2   2   61.29    6.70
  -1   2  -2 1130.19   97.39
  -1   2  -2 1003.40   96.79
   1  -2   2 1018.80   97.49
   1  -2   2 1183.88   96.89
  -2   2  -2  463.25   41.20
  -2   2  -2  440.36   40.10
   2  -2   2  426.56   41.30
   2  -2   2  475.55   41.10
   2  -2   2  374.16   39.60
  -3   2  -2  109.19   13.80
  -3   2  -2  126.59   13.80
  -3   2  -2   98.69   12.10
   3  -2   2  141.59   15.10
   3  -2   2  135.49   14.60
   3  -2   2  117.69   12.60
  -4   2  -2  192.98   20.00
  -4   2  -2  165.38   17.70
   4  -2   2  200.28   21.00
   4  -2   2  144.69   20.10
  -5   2  -2   60.09    7.50
   5  -2   2   42.60   10.30
  -6   2  -2   11.90    4.00
   6  -2   2   26.00    8.60
   6   1  -2   48.00   12.70
  -6  -1   2   26.70    5.60
  -5  -1   2  161.18   17.00
   4   1  -2  110.99   14.00
  -4  -1   2   87.69   13.70
  -4  -1   2   86.79   10.30
   3   1  -2 1490.45  156.98
   3   1  -2 1717.43  159.78
  -3  -1   2 1821.02  160.18
  -3  -1   2 1897.61  159.18
  -3  -1   2 1907.01  157.48
   2   1  -2    3.90    1.40
   2   1  -2   12.40    3.60
  -2  -1   2    0.70    1.50
  -2  -1   2    1.30    1.10
  -2  -1   2    3.70    2.60
   1   1  -2   14.60    2.40
   1   1  -2   19.40    3.70
  -1  -1   2   21.30    3.40
  -1  -1   2   18.30    2.60
   0   1  -2   47.20    4.70
   0   1  -2   54.29    5.00
   0  -1   2   45.00    4.60
   0  -1   2   44.70    4.80
  -1   1  -2   21.80    3.10
   1  -1   2   32.20    3.50
   1  -1   2   19.80    3.50
   1  -1   2   23.30    3.40
  -2   1  -2 1145.49  104.69
  -2   1  -2 1291.67  104.89
   2  -1   2 1023.60  104.59
   2  -1   2 1173.38  104.99
  -3   1  -2   15.80    5.50
  -3   1  -2   13.90    3.80
  -3   1  -2   10.00    2.30
   3  -1   2    9.00    3.20
   3  -1   2   12.30    4.40
   3  -1   2    3.40    2.90
  -4   1  -2  354.16   37.10
  -4   1  -2  382.06   34.40
   4  -1   2  346.67   37.60
   4  -1   2  394.96   38.10
   5  -1   2  204.38   22.60
   5  -1   2  160.28   21.60
  -6   1  -2    2.50    2.60
   6  -1   2    2.90    4.50
   6   0  -2   45.70   11.50
  -6   0   2   51.99    7.80
   5   0  -2   56.69   11.60
  -5   0   2   39.10    7.00
   4   0  -2   82.29    9.00
   4   0  -2   86.49   11.70
   4   0  -2   88.79    9.10
  -4   0   2   55.69    8.50
  -4   0   2   61.39   11.60
   3   0  -2  237.88   29.10
   3   0  -2  314.77   27.60
  -3   0   2  251.17   29.20
  -3   0   2  340.07   29.80
  -3   0   2  317.37   27.50
   2   0  -2  384.46   37.70
   2   0  -2  480.65   39.70
  -2   0   2  417.26   39.40
  -2   0   2  417.46   39.00
  -2   0   2  388.56   37.70
   1   0  -2 2254.07  194.18
   1   0  -2 2130.29  194.78
   0   0  -2  413.86   36.80
  -1   0  -2 1184.28   95.29
   1   0   2  954.10   94.89
   1   0   2 1052.19   95.19
  -2   0  -2   68.89    8.50
  -2   0  -2   80.69    9.00
  -2   0  -2   62.19    7.00
   2   0   2   70.39    7.80
   2   0   2   94.19    9.10
   2   0   2   86.09    9.30
  -3   0  -2  810.72   69.49
  -3   0  -2  868.31   67.09
  -3   0  -2  876.81   70.29
   3   0   2  649.83   68.99
   3   0   2  646.44   69.49
   3   0   2  635.24   67.59
  -4   0  -2  386.76   32.40
  -4   0  -2  327.67   35.60
   4   0   2  328.27   36.00
   4   0   2  338.87   35.30
  -5   0  -2  909.21   77.39
   5   0   2  783.02   80.99
  -6   0  -2   -3.20    2.30
   6   0   2    2.70    4.70
   6   0   2    4.20    5.20
  -6   1   2    8.40    4.00
   5  -1  -2  103.09   14.10
  -5   1   2   67.69    9.40
   4  -1  -2   40.70    8.40
  -4   1   2   26.60    6.90
  -4   1   2   34.10    5.10
   3  -1  -2  913.21   89.49
   3  -1  -2 1047.30   91.89
  -3   1   2  952.50   91.59
  -3   1   2 1078.19   89.89
   2  -1  -2   19.10    4.20
   2  -1  -2   21.90    3.30
   2  -1  -2   23.50    3.50
  -2   1   2   22.40    3.40
  -2   1   2   21.20    4.90
  -2   1   2   27.80    3.60
  -2   1   2   27.70    4.40
   1  -1  -2   78.69    7.60
  -1   1   2   86.09    8.30
  -1   1   2   68.19    8.80
  -1   1   2   82.09    8.00
  -1   1   2   79.19    7.70
  -1  -1  -2  778.62   71.59
  -1  -1  -2  776.12   70.89
   1   1   2  827.32   70.49
   1   1   2  796.42   71.69
  -2  -1  -2  394.16   33.70
  -2  -1  -2  348.97   31.50
  -2  -1  -2  289.17   32.20
   2   1   2  327.27   33.40
   2   1   2  357.56   32.60
   2   1   2  368.86   31.20
  -3  -1  -2   69.19    8.50
  -3  -1  -2   47.80    7.10
  -3  -1  -2   59.09    5.70
   3   1   2   49.20    5.70
   3   1   2   42.50    7.00
   3   1   2   49.99    8.00
  -4  -1  -2   61.49    8.50
   4   1   2   54.19   10.00
   4   1   2   56.69    9.60
   4   1   2   47.10    6.10
  -5  -1  -2   61.99    7.30
   5   1   2   67.89   12.50
   5   1   2   47.50   11.20
  -6  -1  -2   65.29    7.80
   6   1   2   43.40   11.50
  -7  -1  -2   15.10    4.80
   7   1   2    4.40    6.20
   6  -2  -2   46.70   12.50
  -6   2   2   75.79    9.90
   5  -2  -2   38.10    9.30
  -5   2   2   53.69    7.40
   4  -2  -2  718.93   67.59
  -4   2   2  661.93   66.89
  -4   2   2  742.53   65.19
   3  -2  -2  220.98   19.90
   3  -2  -2  192.88   20.70
  -3   2   2  205.48   20.70
  -3   2   2  173.98   19.30
  -3   2   2  190.88   21.20
  -3   2   2  194.68   19.50
   2  -2  -2  771.32   74.19
   2  -2  -2  749.23   73.29
  -2   2   2  934.31   74.19
  -2   2   2  860.21   74.39
  -2   2   2  842.12   73.69
  -2   2   2  751.12   74.89
   1  -2  -2 2978.30  249.28
   1  -2  -2 2892.01  249.38
  -1   2   2 2657.13  249.38
  -1   2   2 2746.43  249.48
  -1   2   2 2807.82  250.37
   0   2   2 2044.80  177.18
   0   2   2 1960.20  177.48
  -2  -2  -2 1250.87  111.49
  -2  -2  -2 1298.37  110.39
   2   2   2 1149.39  109.19
   2   2   2 1221.18  111.49
  -3  -2  -2  788.42   76.49
  -3  -2  -2  735.43   79.19
  -3  -2  -2  832.82   77.99
   3   2   2  968.50   78.49
   3   2   2 1001.10   80.59
   3   2   2  828.32   76.39
  -4  -2  -2   76.09    9.90
  -4  -2  -2   80.69    8.00
   4   2   2   59.89   11.60
   4   2   2   72.49    7.60
   4   2   2   45.80   10.60
  -5  -2  -2  210.58   23.80
   5   2   2  264.07   29.50
   5   2   2  264.17   27.40
   5   2   2  277.37   24.20
  -6  -2  -2   18.50    4.30
   6   2   2   12.80    3.70
   6   2   2   19.70    7.70
  -7  -2  -2    5.90    4.50
   7   2   2   21.70    9.30
   6  -3  -2   62.09   13.20
  -6   3   2   77.79   10.40
   5  -3  -2    2.10    4.10
  -5   3   2   -1.80    1.80
   4  -3  -2   16.40    5.40
  -4   3   2   21.30    5.40
  -4   3   2   21.40    4.60
  -4   3   2   21.60    5.60
   3  -3  -2  500.85   45.60
   3  -3  -2  474.75   45.80
  -3   3   2  440.66   45.20
  -3   3   2  522.25   46.10
   2  -3  -2  110.99   10.20
   2  -3  -2   94.99   10.00
  -2   3   2   77.69   10.90
  -2   3   2   96.99    9.90
  -2   3   2   87.29   10.00
   1  -3  -2  822.82   72.19
  -1   3   2  823.12   73.09
  -1   3   2  764.52   72.19
   0   3   2 4096.09  367.66
   0   3   2 4210.58  367.46
  -1  -3  -2   78.29    8.20
   1   3   2   64.39    7.90
   1   3   2   70.29    7.40
  -2  -3  -2  543.15   57.09
  -2  -3  -2  637.24   59.49
   2   3   2  629.84   57.39
   2   3   2  711.13   57.79
   2   3   2  683.43   59.79
  -3  -3  -2  110.19   13.70
   3   3   2  152.38   13.50
   3   3   2  142.19   16.40
   3   3   2  144.09   14.30
  -4  -3  -2  213.68   22.60
  -4  -3  -2  229.58   21.30
   4   3   2  206.68   24.80
   4   3   2  219.28   22.70
  -5  -3  -2    7.40    2.80
   5   3   2    5.70    2.90
   5   3   2    3.90    4.30
  -6  -3  -2   14.40    4.10
   6   3   2   15.20    8.10
   6   3   2   13.50    4.30
  -7  -3  -2    3.10    3.80
   7   3   2   -2.50    5.80
   5  -4  -2    1.60    4.60
  -5   4   2    0.50    2.70
   4  -4  -2   98.69   12.30
  -4   4   2  110.99   12.40
  -4   4   2   95.99   11.70
  -4   4   2   78.79   11.40
   3  -4  -2    3.20    2.60
  -3   4   2    2.60    2.40
  -3   4   2   11.90    3.80
   2  -4  -2  306.27   32.60
  -2   4   2  400.46   33.40
  -1   4   2  338.27   28.10
  -1   4   2  252.27   28.00
   0  -4  -2  300.37   27.20
   0   4   2  311.87   27.40
   0   4   2  264.17   26.70
  -1  -4  -2 6246.67  609.94
   1   4   2 7219.48  609.94
   1   4   2 7204.38  609.64
  -2  -4  -2 4784.12  400.96
   2   4   2 5063.39  400.96
   2   4   2 3803.72  398.76
   2   4   2 4365.26  398.76
  -3  -4  -2  240.08   22.30
  -3  -4  -2  231.28   25.30
   3   4   2  231.58   22.60
  -4  -4  -2  284.67   29.30
   4   4   2  321.87   29.60
   5   4   2  111.49   16.10
   5   4   2   90.79   10.50
   6   4   2    5.30    5.90
   5  -5  -2   13.50    5.90
  -5   5   2    5.90    3.90
   4  -5  -2   18.30    4.50
  -4   5   2    9.30    6.30
  -4   5   2    6.70    3.30
   3  -5  -2    6.20    2.00
  -3   5   2    6.20    3.50
  -3   5   2   14.60    4.70
  -2   5   2  111.39   11.70
  -2   5   2   85.69   11.90
  -1   5   2  365.36   34.80
   0  -5  -2   25.70    4.30
   0   5   2   28.10    4.50
   0   5   2   27.70    3.70
  -1  -5  -2  374.86   33.60
   1   5   2  330.77   33.10
   1   5   2  353.96   32.90
  -2  -5  -2   68.59    9.60
   2   5   2   66.19    8.70
   2   5   2   73.19    9.70
   2   5   2   74.99    8.60
  -3  -5  -2  198.28   23.40
  -3  -5  -2  194.18   19.20
   3   5   2  243.18   21.30
   3   5   2  204.18   21.10
   3   5   2  232.98   23.90
  -4  -5  -2   33.30    5.20
   4   5   2   49.99   10.60
   4   5   2   36.20    7.10
  -5  -5  -2    0.70    3.00
   5   5   2   -1.80    4.00
   6   5   2   16.60    7.60
  -4   6   2  164.68   18.80
  -4   6   2  157.88   18.90
  -3   6   2   33.50    7.00
  -3   6   2   35.40    7.30
  -2   6   2  348.97   34.10
  -1   6   2   47.00    7.60
  -1   6   2   32.70    5.70
   0   6   2  748.73   67.29
  -1  -6  -2  144.69   15.20
   1   6   2  150.08   15.60
  -2  -6  -2 1166.98  106.69
   2   6   2 1158.88  105.89
   3   6   2   56.19    9.70
   3   6   2   49.60    7.50
   4   6   2   57.39    8.30
   4   6   2   41.70   10.40
  -5  -6  -2    5.10    3.30
   5   6   2    8.90    4.50
   5   6   2    4.00    6.70
   6   6   2   29.80   10.80
  -3   7   2  186.58   21.00
  -2   7   2   24.30    5.20
  -1   7   2   20.60    5.50
  -1   7   2   33.60    5.80
   0   7   2   -1.10    2.10
  -1  -7  -2   90.19    9.60
   1   7   2   75.39   10.40
  -2  -7  -2    2.60    3.70
   2   7   2    3.50    3.20
   3   7   2   15.20    5.60
   4   7   2   -1.60    2.80
   4   7   2   -1.80    4.20
   5   7   2    1.50    3.60
   5   7   2   -3.10    5.40
  -2   8   2  335.77   34.10
  -1   8   2   74.79   10.90
  -1   8   2   67.49    9.50
   0   8   2   61.59    9.80
   1   8   2    4.40    3.20
  -2  -8  -2  186.38   19.50
   2   8   2  168.38   19.40
   3   8   2    1.40    3.40
   3   8   2    3.50    3.90
   4   8   2   78.39   13.30
   4   8   2   77.79   11.50
   0   9   2    8.70    5.40
   1   9   2    7.90    3.90
   2   9   2   15.20    5.40
   3   9   2   49.99    9.20
   4   8  -3   -3.90    3.30
   3   8  -3  113.39   14.40
   2   8  -3   14.30    5.30
   1   8  -3   46.90    9.40
  -1  -8   3   45.80    8.50
   0  -8   3   31.60    6.90
  -1   8  -3    3.30    3.20
  -2   8  -3   -2.10    3.40
   5   7  -3   72.29   15.00
   5   7  -3   91.39   12.30
   4   7  -3   26.80    6.00
   3   7  -3  444.76   44.90
   2   7  -3    1.20    3.20
   1   7  -3    2.80    3.00
  -1  -7   3   -6.10    4.10
   0   7  -3   49.40    8.60
   0  -7   3   34.20    5.60
   0  -7   3   26.80    6.00
  -1   7  -3   -2.00    2.70
   1  -7   3   -1.00    1.60
   1  -7   3   -3.30    2.70
  -2   7  -3   16.90    4.40
   2  -7   3   28.20    7.10
  -3   7  -3   -1.50    3.10
   3  -7   3   -2.80    4.40
   5   6  -3   40.90   10.60
   5   6  -3   43.60    7.30
  -5  -6   3   20.90    7.60
   4   6  -3   24.90    5.50
   4   6  -3   25.60    7.80
  -4  -6   3   24.20    4.60
   3   6  -3   15.10    4.50
  -3  -6   3   24.90    3.20
   2   6  -3  482.05   42.60
  -2  -6   3  410.86   44.20
   1   6  -3    9.10    3.80
  -1  -6   3   10.80    2.60
  -1  -6   3   11.00    4.20
   0   6  -3  620.84   68.89
   0  -6   3  876.81   69.19
   0  -6   3  763.42   69.29
  -1   6  -3   20.70    4.50
  -1   6  -3   11.20    3.30
   1  -6   3   23.40    5.40
   1  -6   3   10.10    3.40
   1  -6   3   14.70    3.50
  -2   6  -3   81.49   10.50
   2  -6   3   73.49    9.10
   2  -6   3   73.19   11.10
  -3   6  -3   50.99    9.50
   3  -6   3   23.80    7.10
   3  -6   3   28.50    6.00
  -4   6  -3    9.40    4.60
   4  -6   3    9.90    4.90
   4  -6   3   12.00    6.40
   6   5  -3    2.70    5.80
  -6  -5   3    6.80    4.20
   5   5  -3   57.39   12.00
   5   5  -3   68.09    9.60
  -5  -5   3   57.39   10.40
   4   5  -3   18.90    5.10
   4   5  -3   24.60    7.50
  -4  -5   3   16.70    4.90
   3   5  -3  571.74   47.90
   3   5  -3  477.15   49.70
  -3  -5   3  481.25   47.10
   2   5  -3  343.97   31.10
  -2  -5   3  296.07   32.90
  -2  -5   3  329.57   29.70
   1   5  -3  504.85   42.60
  -1  -5   3  398.56   41.30
  -1  -5   3  477.65   43.70
   0   5  -3  119.99   12.90
   0  -5   3  106.99   12.30
   0  -5   3  131.19   13.10
  -1   5  -3 1319.17  114.69
   1  -5   3 1217.68  114.99
  -2   5  -3  133.19   14.50
  -2   5  -3  116.69   13.80
   2  -5   3  110.19   14.50
   2  -5   3  129.99   13.80
  -3   5  -3   32.10    6.10
   3  -5   3   30.00    7.80
   3  -5   3   24.00    6.30
  -4   5  -3   37.00    7.80
  -4   5  -3   28.80    6.20
   4  -5   3   48.60    9.40
   4  -5   3   70.69   17.80
  -5   5  -3    1.30    3.10
  -5   5  -3   10.50    5.20
   5  -5   3   -2.00    5.20
   5  -5   3   -1.70    4.80
   6   4  -3   35.60    9.80
  -6  -4   3   28.20    6.60
   5   4  -3    7.50    5.50
  -5  -4   3    7.20    3.70
   4   4  -3   18.20    6.50
  -4  -4   3   11.00    3.80
  -4  -4   3   19.70    5.10
   3   4  -3    0.10    2.60
   3   4  -3    2.20    2.00
  -3  -4   3    0.20    2.40
  -3  -4   3    2.50    2.00
   2   4  -3  361.56   35.60
   2   4  -3  396.06   36.20
   2   4  -3  392.76   37.30
   1   4  -3   50.29    6.70
   1   4  -3   42.10    5.90
  -1  -4   3   64.19    7.50
  -1  -4   3   49.10    5.40
  -1  -4   3   45.50    6.00
   0   4  -3 1662.83  148.39
   0  -4   3 1660.23  148.59
   1  -4   3 1071.99  102.29
   1  -4   3 1209.08  103.39
  -2   4  -3  445.66   44.70
  -2   4  -3  541.55   44.60
   2  -4   3  432.96   44.30
  -3   4  -3    3.10    2.90
   3  -4   3    2.40    3.50
   3  -4   3    1.10    2.70
  -4   4  -3   64.59    9.00
   4  -4   3   56.19   12.70
   4  -4   3   77.79   11.10
  -5   4  -3   11.50    3.80
   5  -4   3    7.80    5.60
   5  -4   3   -2.00    5.00
   6   3  -3  132.99   19.40
  -6  -3   3   97.59   13.10
   5   3  -3   12.70    6.20
  -5  -3   3   26.70    5.90
   4   3  -3   11.50    5.60
  -4  -3   3    8.30    3.30
  -4  -3   3    5.20    3.80
   3   3  -3  682.13   59.09
   3   3  -3  736.93   62.19
  -3  -3   3  533.55   59.29
   2   3  -3  106.99    9.20
   2   3  -3   78.59   10.40
   2   3  -3   89.39    9.40
  -2  -3   3   60.79   10.00
   1   3  -3  683.93   66.19
   1   3  -3  782.92   65.69
  -1  -3   3  696.13   66.69
  -1  -3   3  739.43   65.19
  -1  -3   3  737.03   65.59
   0   3  -3   16.20    2.40
   0   3  -3   10.40    2.50
   0   3  -3   15.80    3.40
   0  -3   3   10.50    2.40
   0  -3   3   13.00    2.60
  -1   3  -3   65.09    7.90
  -1   3  -3   75.29    7.90
   1  -3   3   72.79    7.60
   1  -3   3   62.39    8.20
  -2   3  -3   69.09    8.70
   2  -3   3   72.49    8.60
   2  -3   3   50.19    7.30
   2  -3   3   81.29    9.50
  -3   3  -3    4.10    2.30
   3  -3   3    5.60    3.20
   3  -3   3    4.50    2.60
  -4   3  -3  262.47   26.50
   4  -3   3  279.47   29.30
   4  -3   3  270.87   29.90
  -5   3  -3   67.89    8.30
   5  -3   3   42.40   10.30
   5  -3   3   53.49   12.30
  -6   3  -3   42.70    7.70
   6  -3   3   42.80   12.60
   6  -3   3   33.40   10.70
   6   2  -3   35.30   10.70
  -6  -2   3   21.50    5.50
   5   2  -3   48.50   12.00
   4   2  -3  308.27   30.30
  -4  -2   3  329.97   32.30
  -3  -2   3  784.02   69.29
  -3  -2   3  675.33   67.09
  -3  -2   3  729.83   66.29
   2   2  -3  958.30   78.29
  -2  -2   3  787.02   77.89
  -2  -2   3  799.72   76.39
   1   2  -3  357.86   29.80
   1   2  -3  315.67   30.10
  -1  -2   3  318.87   30.90
  -1  -2   3  310.37   30.20
   0   2  -3  851.11   78.29
   0   2  -3  994.90   78.39
   0   2  -3  893.71   78.79
   0  -2   3  842.82   78.39
   0  -2   3  806.42   78.19
  -1   2  -3   27.60    3.70
   1  -2   3   38.20    4.70
   1  -2   3   26.70    3.70
  -2   2  -3   73.79    9.10
   2  -2   3   71.99    9.60
   2  -2   3   78.49    9.30
   2  -2   3   77.69    8.30
  -3   2  -3    5.00    2.40
  -3   2  -3    2.20    3.00
   3  -2   3    9.90    3.80
   3  -2   3   13.20    4.50
   3  -2   3    6.00    2.00
  -4   2  -3  277.57   26.40
  -4   2  -3  268.57   28.50
   4  -2   3  252.97   29.20
   4  -2   3  303.27   30.30
  -5   2  -3   -1.10    1.90
   5  -2   3   -1.70    2.70
   5  -2   3    1.20    3.30
  -6   2  -3   22.30    5.10
   6  -2   3   25.60   10.10
   6  -2   3   35.00   10.00
   6   1  -3   60.99   13.50
  -6  -1   3   83.89   10.40
   5   1  -3   23.90    7.40
   4   1  -3  242.78   22.00
   4   1  -3  255.67   25.60
  -4  -1   3  180.28   21.50
   3   1  -3   57.19    8.70
   3   1  -3   46.70    6.30
  -3  -1   3   46.30    7.40
  -3  -1   3   63.79    6.80
  -3  -1   3   55.79    8.60
   2   1  -3 1221.78  127.09
   2   1  -3 1523.75  129.09
  -2  -1   3 1545.15  127.49
   1   1  -3 4633.74  413.56
  -1  -1   3 4391.76  412.76
  -1  -1   3 4977.00  413.66
   0   1  -3 2506.95  219.08
   0  -1   3 2643.44  219.08
   0  -1   3 2001.50  218.58
   0  -1   3 2750.12  219.08
  -1   1  -3 1638.64  153.18
  -1   1  -3 1646.54  152.68
   1  -1   3 1875.21  152.78
  -2   1  -3    1.50    1.30
  -2   1  -3    0.20    1.20
  -2   1  -3    2.60    1.90
   2  -1   3    2.50    1.20
   2  -1   3   -0.10    1.40
   2  -1   3    1.80    1.50
  -3   1  -3   55.59    8.30
  -3   1  -3   74.19    6.70
  -3   1  -3   46.70    7.60
   3  -1   3   61.89    7.20
   3  -1   3   40.90    8.50
  -4   1  -3  823.72   83.29
  -4   1  -3  793.62   79.89
   4  -1   3  931.21   83.99
   4  -1   3 1041.10   84.99
  -5   1  -3  583.54   57.39
   5  -1   3  628.04   62.09
   5  -1   3  694.33   63.19
  -6   1  -3    6.10    3.00
   6  -1   3    4.10    5.00
   6  -1   3   15.00    8.00
   6   0  -3   -5.20    5.40
  -6   0   3    1.10    2.80
   5   0  -3   -2.70    3.50
  -5   0   3   -2.40    1.80
   4   0  -3   90.59   12.00
   4   0  -3  121.99   12.40
   4   0  -3  113.29   15.00
  -4   0   3  126.39   12.50
   3   0  -3  815.82   74.89
   3   0  -3  717.23   72.49
  -3   0   3  922.61   75.99
  -3   0   3  690.43   74.29
  -3   0   3  883.41   72.69
   2   0  -3  687.53   68.89
   2   0  -3  807.82   67.79
   2   0  -3  753.12   67.39
  -2   0   3  784.62   68.89
  -2   0   3  726.23   67.59
   0   0  -3 2271.57  200.38
   0   0   3 2260.37  200.38
  -1   0  -3 1142.09   99.79
   1   0   3 1047.90  100.19
   1   0   3 1195.68  101.19
  -2   0  -3 1143.39   99.69
  -2   0  -3 1263.27  102.09
  -2   0  -3 1066.89  101.29
   2   0   3 1182.78  102.19
   2   0   3 1145.49  101.69
   2   0   3  958.40  100.39
  -3   0  -3  197.88   19.00
  -3   0  -3  168.58   15.90
  -3   0  -3  177.08   18.20
   3   0   3  165.18   18.90
   3   0   3  155.98   16.80
   3   0   3  160.78   18.20
  -4   0  -3 1153.08   98.09
   4   0   3 1141.49  102.69
   4   0   3  985.20  101.09
  -5   0  -3  245.28   24.20
   5   0   3  246.48   29.10
   5   0   3  282.47   29.10
  -6   0  -3   15.90    3.90
   6   0   3   23.00    7.50
   6   0   3   21.50    8.70
   6  -1  -3    3.80    8.20
  -6   1   3    0.00    3.20
   5  -1  -3    7.10    4.80
  -5   1   3    6.80    2.80
   4  -1  -3    9.70    2.90
   4  -1  -3   13.70    5.20
  -4   1   3   14.60    3.70
  -4   1   3    3.80    3.20
   3  -1  -3   48.40    6.30
   3  -1  -3   52.59    6.70
   3  -1  -3   55.19    8.20
  -3   1   3   72.39    7.00
  -3   1   3   40.30    8.20
  -3   1   3   52.39    8.00
   2  -1  -3  605.14   48.80
   2  -1  -3  503.55   48.00
   2  -1  -3  606.24   49.80
  -2   1   3  468.85   49.50
  -2   1   3  560.44   48.60
  -2   1   3  458.05   49.20
   1  -1  -3 1771.92  152.68
   1  -1  -3 1769.52  152.78
   1  -1  -3 1685.93  152.08
  -1   1   3 1525.15  152.48
  -1   1   3 1720.93  152.18
  -1   1   3 1833.22  152.98
   0   1   3 1067.29   95.19
   0   1   3 1076.19   94.89
  -1  -1  -3 2253.67  190.18
  -1  -1  -3 2054.19  189.38
   1   1   3 2105.59  190.18
  -2  -1  -3  601.34   61.19
  -2  -1  -3  691.03   59.19
  -2  -1  -3  742.33   60.79
   2   1   3  633.64   61.59
   2   1   3  668.03   59.09
   2   1   3  652.93   60.69
  -3  -1  -3  500.75   42.50
  -3  -1  -3  435.66   43.10
   3   1   3  456.95   42.50
   3   1   3  361.36   42.80
   3   1   3  464.55   40.10
  -4  -1  -3   11.80    2.30
  -4  -1  -3    3.60    3.60
   4   1   3    7.20    3.60
   4   1   3    8.30    2.10
   4   1   3   11.50    4.50
  -5  -1  -3  861.71   78.49
   5   1   3  882.51   84.39
  -6  -1  -3  108.59   13.00
   6   1   3  145.99   19.90
   6   1   3  148.89   22.50
  -7  -1  -3   48.40    7.70
   7   1   3   56.59   14.90
   6  -2  -3    3.20    5.90
  -6   2   3    2.80    3.00
   5  -2  -3   14.60    5.80
  -5   2   3   14.70    4.10
   4  -2  -3   39.10    8.50
  -4   2   3   34.30    5.90
  -4   2   3   22.30    6.40
   3  -2  -3   61.09    9.10
  -3   2   3   76.99    8.40
  -3   2   3   52.59    9.30
  -3   2   3   75.39    9.50
  -3   2   3   87.69   10.10
   2  -2  -3   59.39    6.60
   2  -2  -3   66.89    7.50
  -2   2   3   57.59    8.00
  -2   2   3   43.90    7.00
  -2   2   3   57.79    7.10
  -2   2   3   78.29    7.10
   1  -2  -3   73.79    7.30
  -1   2   3   75.09    7.40
  -1   2   3   75.69    8.40
  -1   2   3   59.19    7.60
  -1   2   3   79.09    7.60
   0  -2  -3  318.07   28.50
   0   2   3  306.97   28.50
   0   2   3  318.97   28.40
  -1  -2  -3 2521.55  201.68
   1   2   3 2243.98  200.58
   1   2   3 2030.20  201.48
  -2  -2  -3   16.60    4.10
  -2  -2  -3   15.00    3.40
   2   2   3   12.60    3.70
   2   2   3   13.70    2.10
   2   2   3   18.30    3.30
  -3  -2  -3  852.61   74.79
  -3  -2  -3  762.32   72.69
  -3  -2  -3  814.72   71.29
   3   2   3  810.92   74.79
   3   2   3  744.83   72.79
  -4  -2  -3  255.07   25.10
  -4  -2  -3  226.18   22.60
   4   2   3  232.88   22.40
   4   2   3  266.27   27.30
  -5  -2  -3  611.54   54.49
   5   2   3  562.54   54.19
   5   2   3  578.44   59.99
   5   2   3  644.44   58.39
   6   2   3   21.60    7.80
   6   2   3   26.20    9.60
  -7  -2  -3   -0.20    3.90
   7   2   3   10.60    8.20
   6  -3  -3    0.90    5.70
  -6   3   3    5.00    3.90
   5  -3  -3    4.30    4.30
  -5   3   3    0.30    2.70
   4  -3  -3    7.20    4.40
  -4   3   3    8.90    3.40
  -4   3   3    4.30    3.60
   3  -3  -3    8.90    3.50
   3  -3  -3    8.00    2.70
  -3   3   3   10.40    3.50
  -3   3   3   11.60    3.30
  -3   3   3    9.70    3.40
   2  -3  -3    1.20    1.30
   2  -3  -3   -2.30    1.10
  -2   3   3   -0.10    1.40
  -2   3   3    0.90    1.20
  -2   3   3   -0.50    1.70
  -2   3   3   -1.00    1.10
   1  -3  -3  690.63   59.79
  -1   3   3  647.14   59.79
  -1   3   3  650.03   60.79
   0  -3  -3  309.67   27.70
   0   3   3  292.57   27.70
   0   3   3  301.67   27.80
  -1  -3  -3  735.53   69.29
   1   3   3  790.52   69.59
   1   3   3  772.02   68.09
   1   3   3  767.22   68.79
  -2  -3  -3  997.40   83.59
  -2  -3  -3  992.10   85.89
   2   3   3  893.31   83.69
   2   3   3  957.10   83.89
   2   3   3  833.72   85.49
  -3  -3  -3  397.46   37.80
  -3  -3  -3  378.36   42.80
   3   3   3  432.06   38.30
   3   3   3  406.66   40.40
  -4  -3  -3   89.49   10.80
   4   3   3   89.49   11.00
   4   3   3   59.59   12.80
   4   3   3   97.69    9.20
  -5  -3  -3  332.77   31.10
   5   3   3  291.37   35.70
   5   3   3  331.57   33.70
   5   3   3  342.37   30.60
   6   3   3   39.70   11.00
   6   3   3   58.99    7.30
   7   3   3   -3.30    5.90
   5  -4  -3   -5.20    4.00
  -5   4   3   -1.50    2.80
   4  -4  -3   31.10    6.60
  -4   4   3   21.00    5.40
  -4   4   3   20.60    5.00
  -4   4   3   13.00    4.10
   3  -4  -3   -0.50    1.70
  -3   4   3   -0.10    2.00
  -3   4   3   -0.80    1.50
  -3   4   3    0.40    1.60
   2  -4  -3    1.30    1.60
  -2   4   3   -3.90    2.10
  -2   4   3    0.70    1.90
   1  -4  -3  224.78   19.30
  -1   4   3  183.88   19.20
  -1   4   3  169.18   18.40
   0  -4  -3  166.88   16.10
   0   4   3  173.68   16.00
   0   4   3  153.68   16.00
  -1  -4  -3 5408.06  435.86
   1   4   3 4627.24  433.76
   1   4   3 4672.73  434.16
  -2  -4  -3  891.51   82.49
   2   4   3  832.02   82.39
   2   4   3  994.50   81.09
   2   4   3  864.21   80.99
  -3  -4  -3   18.30    4.60
  -3  -4  -3   16.10    3.20
   3   4   3   15.30    3.20
  -4  -4  -3   -0.90    2.10
   4   4   3    0.50    3.20
   4   4   3   -0.60    1.40
   5   4   3   44.50    5.90
   5   4   3   35.70    9.20
   6   4   3   14.80    7.80
   5  -5  -3  161.68   19.40
  -5   5   3  195.48   20.40
   4  -5  -3    1.20    2.80
  -4   5   3   -0.50    2.40
  -4   5   3    0.10    3.70
  -3   5   3   53.39    9.10
  -3   5   3   48.00    8.60
  -2   5   3  101.89   11.70
  -2   5   3  101.59   12.80
  -1   5   3   84.99   11.20
  -1   5   3  116.99   11.40
   0  -5  -3  268.27   25.00
   0   5   3  267.77   25.10
   0   5   3  247.88   24.30
  -1  -5  -3   29.40    4.90
   1   5   3   39.50    5.20
   1   5   3   36.20    4.80
  -2  -5  -3  459.85   43.30
   2   5   3  389.56   41.80
   2   5   3  506.65   43.60
   2   5   3  445.06   41.80
  -3  -5  -3   92.39   12.40
  -3  -5  -3   97.69    8.60
   3   5   3   65.89    9.80
   3   5   3   81.69   10.40
   3   5   3  107.49   13.20
  -4  -5  -3   48.30    6.60
   4   5   3   66.19   10.90
   4   5   3   57.89    7.20
  -5  -5  -3   82.79   10.00
   5   5   3   58.39   13.60
   6   5   3   15.30    6.80
  -4   6   3    0.30    2.50
  -4   6   3    3.00    3.20
  -3   6   3    9.00    4.20
  -2   6   3   36.40    7.80
  -1   6   3   28.40    5.60
  -1   6   3   20.10    4.40
   0   6   3    9.60    3.70
   0   6   3    9.00    2.70
  -1  -6  -3  506.95   48.30
   1   6   3  546.35   49.00
  -2  -6  -3  866.51   71.69
   2   6   3  766.92   70.89
   2   6   3  670.53   69.89
   3   6   3  155.38   18.70
   3   6   3  155.88   16.60
  -4  -6  -3   36.80    4.20
   4   6   3   19.40    6.70
   4   6   3   47.10    7.40
  -5  -6  -3   -5.30    2.50
   5   6   3    0.80    7.00
   5   6   3    6.70    3.60
   6   6   3  106.09   21.00
  -3   7   3    2.90    3.10
  -3   7   3   -0.90    2.90
  -2   7   3    3.70    2.90
  -1   7   3   26.80    5.30
  -1   7   3   22.90    5.80
   0   7   3   30.40    6.50
  -1  -7  -3   -3.00    2.50
   1   7   3   -1.00    2.10
  -2  -7  -3   55.69    8.80
   2   7   3   65.89    8.50
   2   7   3   60.29    8.60
   3   7   3  160.28   20.20
   3   7   3  226.58   22.30
   4   7   3  252.27   26.60
   4   7   3  267.47   29.50
   5   7   3  212.28   24.30
   5   7   3  259.87   29.30
  -2   8   3   74.89   11.30
  -1   8   3   36.90    6.80
   0   8   3   -5.40    2.60
   1   8   3    9.90    3.40
   2   8   3   30.10    6.00
   3   8   3    7.20    4.10
   3   8   3   -3.50    3.90
   4   8   3  168.68   20.10
   4   8   3  140.29   17.60
   0   9   3  104.39   14.30
   1   9   3   31.10    7.80
   2   9   3    6.60    4.70
   3   9   3   13.00    5.50
   3   8  -4   31.00    6.20
   2   8  -4   -0.30    3.10
   1   8  -4   -3.20    2.70
  -1  -8   4   -4.90    6.70
   0   8  -4    7.60    5.20
   0  -8   4   -7.70    5.20
   0  -8   4   -0.30    3.40
  -1   8  -4   20.60    5.40
   1  -8   4   22.50    5.70
   4   7  -4  223.48   23.40
  -4  -7   4  217.58   21.70
   3   7  -4   -0.60    3.20
   2   7  -4   19.40    5.10
   1   7  -4   46.60    8.40
  -1  -7   4   49.80    8.80
   0   7  -4    5.30    4.00
   0  -7   4    8.40    3.20
   0  -7   4    8.80    4.20
  -1   7  -4   10.50    5.00
  -1   7  -4   36.40    7.40
   1  -7   4   15.80    4.10
   1  -7   4   16.80    4.70
   1  -7   4   20.50    5.70
  -2   7  -4    5.30    3.30
   2  -7   4    4.00    4.70
   2  -7   4    3.40    3.20
  -3   7  -4   -3.00    3.30
   3  -7   4   -5.50    3.40
   5   6  -4   32.20    6.70
   5   6  -4   21.80    9.30
   4   6  -4    8.80    5.80
   4   6  -4    8.80    3.60
  -4  -6   4    9.20    3.80
   3   6  -4  340.27   35.70
  -3  -6   4  355.56   34.90
  -3  -6   4  415.86   34.40
   2   6  -4    4.00    2.40
  -2  -6   4    0.30    1.10
  -1  -6   4  410.46   36.50
  -1  -6   4  375.06   38.70
   0   6  -4  117.39   14.30
   0  -6   4  140.39   14.70
   0  -6   4  130.09   14.10
  -1   6  -4   -1.30    2.60
  -1   6  -4    0.90    2.60
   1  -6   4    0.70    2.30
   1  -6   4   -0.40    2.20
  -2   6  -4   24.20    7.50
   2  -6   4   10.40    4.70
   2  -6   4   13.10    4.00
  -3   6  -4    3.20    3.50
   3  -6   4   -3.20    4.40
   3  -6   4    9.90    4.10
  -4   6  -4    9.00    3.70
   4  -6   4   20.10    6.10
   4  -6   4   42.50   11.10
   6   5  -4    6.20    7.10
   6   5  -4   -0.90    4.20
  -6  -5   4    2.40    3.90
   5   5  -4    1.60    6.00
   5   5  -4    8.80    4.00
  -5  -5   4    8.80    3.40
   4   5  -4   26.60    7.90
   4   5  -4   19.20    4.70
   3   5  -4   28.40    7.00
   3   5  -4   33.60    5.60
  -3  -5   4   18.70    4.30
   2   5  -4   42.10    6.20
  -2  -5   4   47.10    8.40
  -2  -5   4   45.70    5.40
   1   5  -4   57.09    6.80
  -1  -5   4   44.70    5.80
  -1  -5   4   45.90    7.30
   0  -5   4  635.04   58.29
  -1   5  -4  158.78   15.70
  -1   5  -4  157.68   15.40
   1  -5   4  117.89   15.40
  -2   5  -4  109.69   12.80
   2  -5   4  116.59   12.80
   2  -5   4   94.29   13.30
  -3   5  -4   12.70    4.80
   3  -5   4    8.70    3.90
   3  -5   4    6.10    4.90
  -4   5  -4   29.50    7.50
   4  -5   4   34.20    8.10
   4  -5   4   36.80   10.40
   6   4  -4    4.70    5.80
  -6  -4   4   -1.10    3.70
   5   4  -4   12.10    6.30
  -5  -4   4    7.40    3.70
   4   4  -4  168.78   19.90
  -4  -4   4  182.78   17.50
  -4  -4   4  121.99   16.50
   3   4  -4   31.40    5.40
   3   4  -4   47.90    9.40
  -3  -4   4   29.20    5.90
  -3  -4   4   53.19    6.80
   2   4  -4   36.70    6.20
   2   4  -4   45.10    5.70
  -2  -4   4   24.40    6.60
   1   4  -4    0.40    2.00
   1   4  -4    0.00    1.00
  -1  -4   4   -1.00    1.90
  -1  -4   4   -0.30    1.00
  -1  -4   4   -1.00    1.70
   0   4  -4  180.88   17.70
   0   4  -4  184.58   18.90
   0   4  -4  198.18   18.30
   0  -4   4  162.38   18.30
   0  -4   4  200.88   18.20
  -1   4  -4  183.58   16.10
  -1   4  -4  160.28   15.80
   1  -4   4  140.69   16.10
   1  -4   4  132.29   15.20
  -2   4  -4   24.70    5.40
  -2   4  -4   20.10    4.60
   2  -4   4   20.70    6.00
   2  -4   4   19.30    4.90
  -3   4  -4   27.70    6.10
   3  -4   4   46.50    9.90
   3  -4   4   37.90    8.00
  -4   4  -4    0.60    1.90
   4  -4   4   -5.40    2.50
   4  -4   4    1.00    3.20
  -5   4  -4   -3.30    2.30
   5  -4   4   -5.50    4.20
   5  -4   4   -2.20    4.00
   6   3  -4    2.40    5.80
  -6  -3   4    0.90    3.50
   5   3  -4   -0.50    3.80
  -5  -3   4    5.60    3.60
   4   3  -4  123.09   17.50
  -4  -3   4  151.48   16.40
   3   3  -4   94.19   11.90
   3   3  -4   81.59    9.30
  -3  -3   4   87.19   10.00
  -3  -3   4   65.59   12.00
  -3  -3   4   75.69    9.80
   2   3  -4   51.19    7.20
   2   3  -4   47.40    6.20
   2   3  -4   39.40    5.20
  -2  -3   4   37.50    5.80
  -2  -3   4   43.00    6.90
   1   3  -4  390.36   32.90
   1   3  -4  348.47   33.50
  -1  -3   4  346.97   32.60
  -1  -3   4  341.27   34.10
   0   3  -4   -0.10    1.30
   0   3  -4    0.40    1.10
   0   3  -4    0.40    1.10
   0  -3   4    0.30    0.90
   0  -3   4   -1.30    1.10
  -1   3  -4   57.19    6.80
  -1   3  -4   55.09    6.50
   1  -3   4   43.10    6.80
   1  -3   4   59.69    6.40
  -2   3  -4   34.90    5.10
   2  -3   4   33.80    6.90
   2  -3   4   31.10    6.10
   2  -3   4   20.40    4.60
  -3   3  -4   12.30    4.10
   3  -3   4   10.00    3.90
   3  -3   4   14.50    5.20
  -4   3  -4   95.69   11.80
  -4   3  -4   94.99   10.70
   4  -3   4   90.39   13.10
   4  -3   4   78.69   15.30
  -5   3  -4   20.30    4.50
   5  -3   4    9.30    5.60
   5  -3   4    9.70    6.70
  -6   3  -4   28.40    5.60
   6  -3   4   30.10    9.50
   6  -3   4   13.90    8.60
   6   2  -4    1.90    5.50
  -6  -2   4    0.00    3.20
   4   2  -4    1.90    4.00
  -4  -2   4    4.10    2.50
   3   2  -4  433.86   42.60
  -3  -2   4  429.26   41.20
   2   2  -4   18.60    4.80
   2   2  -4   10.50    2.50
  -2  -2   4   17.90    4.50
  -2  -2   4    6.50    2.30
   1   2  -4  473.65   44.50
  -1  -2   4  485.05   44.70
  -1  -2   4  506.65   45.50
   0   2  -4    4.40    1.70
   0   2  -4    4.10    1.40
   0   2  -4    6.20    1.60
   0  -2   4    1.60    0.90
   0  -2   4    3.10    1.40
  -1   2  -4  428.46   33.80
  -1   2  -4  389.46   34.20
   1  -2   4  332.77   34.20
   1  -2   4  316.37   33.40
  -2   2  -4 1219.78  102.29
   2  -2   4 1136.09  100.99
   2  -2   4 1135.79  102.29
   2  -2   4 1011.20  102.29
  -3   2  -4   36.30    6.20
  -3   2  -4   26.90    6.30
   3  -2   4   36.00    7.40
   3  -2   4   22.50    6.40
  -4   2  -4    7.90    2.60
   4  -2   4   10.00    4.80
   4  -2   4    5.60    4.00
  -5   2  -4    5.50    2.50
   5  -2   4    7.40    5.60
   5  -2   4    1.80    4.90
  -6   2  -4    4.90    2.80
   6  -2   4    6.10    6.30
   6  -2   4    3.70    5.90
   6   1  -4    1.70    5.10
  -6  -1   4    0.90    3.30
   5   1  -4  164.28   22.10
  -5  -1   4  193.88   19.30
   4   1  -4  110.69   12.10
   4   1  -4   93.39   13.60
  -4  -1   4   84.49   10.60
   3   1  -4   13.60    4.90
   3   1  -4    6.80    2.10
  -3  -1   4    7.20    2.30
  -3  -1   4   13.70    4.60
  -3  -1   4    8.50    3.10
   2   1  -4 1635.94  147.19
   2   1  -4 1752.72  145.79
  -2  -1   4 1451.35  146.99
  -2  -1   4 1693.33  145.89
   1   1  -4   61.69    5.20
   1   1  -4   41.30    5.50
  -1  -1   4   49.20    6.40
  -1  -1   4   51.69    5.80
   0   1  -4  945.51   82.39
   0   1  -4  827.92   82.69
   0  -1   4  976.10   82.39
   0  -1   4  873.71   82.79
   0  -1   4 1012.60   82.89
  -1   1  -4    0.90    1.10
  -1   1  -4    0.50    0.80
   1  -1   4    2.40    1.10
   1  -1   4    0.40    1.20
  -2   1  -4 1128.29   90.49
   2  -1   4  880.21   91.09
   2  -1   4  905.31   91.29
   2  -1   4 1094.49   90.19
  -3   1  -4  242.68   19.90
  -3   1  -4  202.98   21.80
  -3   1  -4  200.68   21.70
   3  -1   4  208.28   20.50
   3  -1   4  179.78   22.10
  -4   1  -4  522.55   41.80
   4  -1   4  428.46   45.40
   4  -1   4  386.36   44.60
  -5   1  -4  274.97   25.30
   5  -1   4  245.58   29.50
   5  -1   4  266.77   30.40
  -6   1  -4   16.60    4.00
   6  -1   4    9.90    6.60
   6  -1   4   17.20    7.30
   6   0  -4   31.70   10.10
  -6   0   4   27.90    6.50
  -5   0   4  243.58   24.50
   4   0  -4  121.99   11.40
   4   0  -4   77.89   13.10
  -4   0   4   94.39   11.10
   3   0  -4    0.10    2.40
   3   0  -4   -0.60    1.20
   3   0  -4   -0.50    1.20
  -3   0   4   -2.30    1.50
  -3   0   4    0.30    1.30
  -3   0   4    1.90    2.30
   2   0  -4  779.32   77.59
   2   0  -4  865.51   76.59
   2   0  -4  923.61   76.19
  -2   0   4  827.92   76.49
   1   0  -4  694.43   56.99
  -1   0   4  552.64   57.39
  -1   0   4  654.13   56.89
   0   0  -4 2785.82  245.28
   0   0   4 2760.62  245.38
  -1   0  -4  654.23   57.39
  -1   0  -4  717.63   58.59
   1   0   4  653.03   58.49
   1   0   4  570.44   57.89
  -2   0  -4  211.98   20.50
  -2   0  -4  259.27   23.00
  -2   0  -4  227.48   22.30
   2   0   4  229.28   23.00
   2   0   4  191.48   22.20
   2   0   4  255.97   21.70
  -3   0  -4  639.44   67.49
  -3   0  -4  770.52   65.39
   3   0   4  735.53   68.29
   3   0   4  781.82   69.29
  -4   0  -4   52.19    5.40
   4   0   4   39.20    8.10
   4   0   4   40.00    9.30
  -5   0  -4    0.10    1.50
   5   0   4    5.50    4.30
   5   0   4   -5.50    3.40
  -6   0  -4    1.80    2.60
   6   0   4    8.00    5.70
   6   0   4   -1.10    4.40
   6  -1  -4    2.10    6.70
   5  -1  -4  101.09   13.90
  -5   1   4   74.39   10.30
   4  -1  -4  420.56   42.40
   4  -1  -4  398.86   44.90
  -4   1   4  532.45   43.40
  -4   1   4  491.45   46.60
   3  -1  -4  195.58   19.90
   3  -1  -4  203.48   19.20
   3  -1  -4  168.48   20.80
  -3   1   4  224.58   21.80
  -3   1   4  190.38   19.50
  -3   1   4  220.28   21.70
   2  -1  -4 1310.67  122.69
   2  -1  -4 1334.37  123.49
   2  -1  -4 1448.66  122.09
  -2   1   4 1227.88  123.59
  -2   1   4 1388.86  123.79
  -2   1   4 1513.05  122.79
   1  -1  -4   71.19    6.60
   1  -1  -4   68.39    7.30
  -1   1   4   65.99    7.20
  -1   1   4   70.89    6.70
   0  -1  -4    4.30    1.20
   0   1   4    5.10    1.30
   0   1   4    4.50    0.90
  -1  -1  -4    9.00    2.00
   1   1   4    5.70    1.00
   1   1   4    5.00    1.80
   1   1   4    7.70    1.90
  -2  -1  -4 1499.75  136.39
  -2  -1  -4 1688.93  135.79
   2   1   4 1586.54  136.89
   2   1   4 1288.87  135.49
  -3  -1  -4   -1.20    1.20
  -3  -1  -4   -1.00    1.30
  -3  -1  -4   -0.30    0.90
   3   1   4    2.40    2.20
   3   1   4   -1.00    1.50
  -4  -1  -4  877.81   72.79
  -4  -1  -4  771.22   68.69
   4   1   4  728.93   73.39
   4   1   4  696.53   71.79
  -5  -1  -4  780.92   66.39
   5   1   4  724.73   70.69
   5   1   4  682.13   71.99
  -6  -1  -4   63.19    7.70
   6   1   4   57.69   11.60
   6   1   4   68.09   15.20
  -7  -1  -4   21.40    7.20
   7   1   4   12.40   10.40
   7   1   4   25.90    9.70
   6  -2  -4    5.50   10.40
  -6   2   4   10.60    4.40
   5  -2  -4  190.08   23.40
  -5   2   4  201.18   20.70
   4  -2  -4   27.90    7.10
  -4   2   4   40.70    8.60
  -4   2   4   38.60    6.60
   3  -2  -4  164.28   16.80
   3  -2  -4  153.68   14.90
  -3   2   4  149.19   16.60
  -3   2   4  123.09   16.70
  -3   2   4  174.68   15.80
  -3   2   4  131.79   15.10
   2  -2  -4  350.66   32.50
   2  -2  -4  336.37   31.60
  -2   2   4  404.76   32.70
  -2   2   4  368.76   32.90
  -2   2   4  302.27   33.20
  -2   2   4  313.17   31.70
   1  -2  -4 2420.36  202.48
  -1   2   4 2243.08  202.48
  -1   2   4 2201.08  202.88
  -1   2   4 2277.77  203.28
   0  -2  -4  109.59   10.70
   0   2   4  118.89   10.80
   1   2   4 3001.00  271.57
   1   2   4 3111.29  270.57
  -2  -2  -4   89.49    8.80
  -2  -2  -4   85.59   10.00
   2   2   4   77.99    7.90
   2   2   4   83.19   10.20
   2   2   4   78.09    8.90
  -3  -2  -4  332.67   33.10
  -3  -2  -4  343.77   31.20
   3   2   4  328.77   33.10
   3   2   4  315.87   29.30
   3   2   4  304.07   31.30
  -4  -2  -4   17.30    4.70
  -4  -2  -4   26.00    3.80
   4   2   4   19.50    5.40
   4   2   4   23.30    6.90
   4   2   4   18.30    3.00
  -5  -2  -4   76.89    7.70
   5   2   4   61.19    7.30
   5   2   4   53.99   12.00
   5   2   4   64.99   10.60
  -6  -2  -4  333.47   30.50
   6   2   4  338.77   35.30
   6   2   4  287.07   36.60
  -7  -2  -4   -8.60    3.80
   5  -3  -4   -2.20    3.30
  -5   3   4    0.00    2.10
   4  -3  -4  134.49   16.30
  -4   3   4  116.39   14.20
  -4   3   4   98.09   12.80
   3  -3  -4   68.19    9.70
   3  -3  -4   74.49    8.90
  -3   3   4   82.79    9.50
  -3   3   4  103.09   10.30
  -3   3   4   75.69   10.00
   2  -3  -4 1039.80   82.89
   2  -3  -4  910.81   82.69
  -2   3   4  874.31   86.19
  -2   3   4  793.12   83.89
  -2   3   4  954.70   84.89
  -2   3   4  933.71   82.89
   1  -3  -4 2189.48  199.38
  -1   3   4 2383.16  199.58
  -1   3   4 2218.38  199.08
  -1   3   4 2195.28  200.68
   0  -3  -4  980.00   91.09
   0   3   4 1086.89   91.29
   0   3   4  998.10   90.89
  -1  -3  -4  423.86   41.70
   1   3   4  409.96   40.30
   1   3   4  466.45   39.60
  -2  -3  -4   61.29    8.10
  -2  -3  -4   67.29    6.40
   2   3   4   46.20    7.70
   2   3   4   58.69    6.60
   2   3   4   60.79    6.60
  -3  -3  -4   31.30    4.40
  -3  -3  -4   29.10    6.10
   3   3   4   27.70    6.70
   3   3   4   28.70    5.30
   3   3   4   22.30    3.50
   4   3   4  238.38   22.40
   4   3   4  256.97   25.30
   4   3   4  173.88   19.50
   5   3   4   88.19    9.30
   5   3   4   99.09   12.70
   5   3   4   78.59   14.30
   6   3   4  100.49   14.50
   6   3   4   98.49   17.20
   6   3   4   89.09   10.10
   7   3   4   33.40   11.00
   5  -4  -4   35.10    8.10
  -5   4   4   29.20    7.00
   4  -4  -4    7.70    3.80
  -4   4   4    7.30    3.50
  -4   4   4    3.00    2.90
  -4   4   4    4.90    2.80
   3  -4  -4  281.27   25.70
  -3   4   4  292.87   26.10
  -3   4   4  225.28   25.90
  -3   4   4  262.57   26.90
   2  -4  -4    5.60    1.80
  -2   4   4    5.10    1.40
  -2   4   4    6.70    2.30
  -2   4   4    5.50    3.20
  -2   4   4    4.50    2.40
   1  -4  -4  664.03   59.49
  -1   4   4  645.14   60.49
  -1   4   4  656.13   59.49
   0  -4  -4  530.55   55.19
   0   4   4  697.43   55.59
   0   4   4  608.44   56.09
  -1  -4  -4  705.43   66.59
   1   4   4  772.32   66.39
   1   4   4  724.83   66.89
  -2  -4  -4  446.16   42.90
   2   4   4  442.16   43.20
   2   4   4  459.35   41.60
  -3  -4  -4  115.69   14.50
  -3  -4  -4  123.29   11.80
   3   4   4  112.39   11.90
   3   4   4  113.39   12.20
  -4  -4  -4    0.10    2.20
   4   4   4   -0.30    2.00
   4   4   4    2.60    3.50
   4   4   4   -0.60    1.50
   5   4   4   14.50    7.10
   5   4   4   20.10    5.70
   6   4   4  152.38   15.00
   6   4   4  132.49   21.10
  -5   5   4   10.00    3.40
  -4   5   4   22.60    5.50
  -4   5   4   44.10   10.30
  -3   5   4   20.80    5.50
  -3   5   4   18.90    4.60
  -2   5   4  221.28   23.10
  -2   5   4  210.18   21.50
  -1   5   4  229.28   22.80
  -1   5   4  227.18   23.00
   0  -5  -4   85.79    9.10
   0   5   4   75.89    9.10
   0   5   4   82.39    9.70
  -1  -5  -4   17.10    3.60
   1   5   4   16.60    3.60
   1   5   4   17.50    3.70
  -2  -5  -4   19.90    5.00
   2   5   4   18.30    3.30
   2   5   4    9.60    3.80
  -3  -5  -4    6.80    3.80
  -3  -5  -4    5.90    1.60
   3   5   4    5.50    2.80
   3   5   4    7.10    4.00
   3   5   4    3.80    2.30
  -4  -5  -4   47.50    5.80
   4   5   4   30.50    5.90
   4   5   4   60.49   10.20
  -5  -5  -4    9.70    3.70
   5   5   4    2.00    5.10
   5   5   4    5.20    2.80
   6   5   4   14.90    7.00
  -4   6   4   15.70    5.10
  -4   6   4    8.30    4.00
  -3   6   4  185.18   21.40
  -3   6   4  201.68   21.70
  -2   6   4   52.19    8.90
  -1   6   4  129.99   14.90
  -1   6   4  147.89   15.20
   0   6   4   17.30    4.30
   1   6   4  209.78   21.80
   1   6   4  226.68   20.90
  -2  -6  -4  693.73   68.29
   2   6   4  824.02   68.79
   2   6   4  693.53   67.49
  -3  -6  -4 1836.42  167.98
   3   6   4 1901.91  167.28
   3   6   4 1768.82  164.68
  -4  -6  -4    0.80    2.00
   4   6   4    3.20    2.90
   4   6   4   10.30    5.00
  -5  -6  -4  224.98   21.60
   5   6   4  205.98   33.20
   6   6   4    4.20    6.70
  -3   7   4   18.70    5.60
  -3   7   4   30.60    7.60
  -2   7   4    1.50    3.10
  -1   7   4   55.89    8.00
  -1   7   4   66.99    9.20
   0   7   4   62.59    8.00
   0   7   4   74.39    9.30
   1   7   4   29.90    6.20
  -2  -7  -4  377.06   35.70
   2   7   4  355.26   35.20
   2   7   4  364.66   35.40
   3   7   4   42.00    8.50
   3   7   4   34.40    7.00
   4   7   4  227.38   26.60
   4   7   4  227.18   23.90
   5   7   4    6.30    4.10
   5   7   4   -5.20    4.40
  -2   8   4   43.60    8.80
  -1   8   4  133.89   16.00
  -1   8   4  180.78   18.10
   0   8   4   10.90    4.70
   1   8   4  147.19   16.70
  -2  -8  -4   15.20    4.50
   2   8   4   26.80    6.30
   3   8   4  875.01   87.19
   3   8   4 1009.80   87.19
   4   8   4  237.48   24.60
   4   8   4  216.18   26.00
   0   9   4   36.00    8.10
   1   9   4    4.80    3.60
   2   9   4   33.30    7.50
   3   9   4  107.69   14.40
   3   8  -5   38.40    7.90
   2   8  -5    1.30    2.70
   1   8  -5   -0.90    4.20
   0   8  -5    4.20    3.90
   0  -8   5    0.50    3.90
  -1   8  -5   26.00    7.00
   1  -8   5   24.80    5.40
   1  -8   5   27.50    6.80
   4   7  -5   15.00    5.10
  -4  -7   5   17.90    3.80
   3   7  -5   -0.80    3.60
   2   7  -5  221.68   24.00
   1   7  -5   31.60    6.80
  -1  -7   5   49.70    5.90
   0  -7   5  104.39   13.70
   0  -7   5  114.09   12.70
  -1   7  -5   29.50    6.10
   1  -7   5   21.00    5.10
   1  -7   5   26.80    5.20
   1  -7   5   25.20    6.10
  -2   7  -5    8.80    3.70
   2  -7   5   -4.70    4.50
   2  -7   5   -0.40    3.00
   2  -7   5   10.10    4.90
  -3   7  -5   -2.70    3.50
   3  -7   5   -5.30    4.60
   3  -7   5   -2.80    3.90
   5   6  -5    6.10    5.80
   5   6  -5   12.20    5.40
   4   6  -5    1.50    3.50
  -4  -6   5   -6.10    5.40
   3   6  -5    0.90    2.80
  -3  -6   5    2.80    2.10
  -3  -6   5   -1.90    3.00
   2   6  -5   -4.80    2.20
  -2  -6   5    0.10    1.50
   1   6  -5  280.07   26.80
  -1  -6   5  274.27   25.80
  -1  -6   5  255.57   27.80
   0   6  -5   16.40    4.90
   0  -6   5   31.80    5.90
   0  -6   5   26.60    7.30
  -1   6  -5   49.99    7.00
  -1   6  -5   27.60    6.10
   1  -6   5   39.30    6.70
   1  -6   5   33.10    7.00
  -2   6  -5   13.00    6.70
   2  -6   5   18.60    6.50
   2  -6   5   28.00    6.20
  -3   6  -5   16.90    4.50
   3  -6   5   26.60    6.60
   3  -6   5   27.40    8.00
  -4   6  -5   78.09   13.00
   4  -6   5   41.30    8.70
   4  -6   5   34.30   10.10
   5   5  -5   35.70   11.30
   5   5  -5   44.80    7.50
  -5  -5   5   29.70    6.70
   4   5  -5   40.90    9.90
   4   5  -5   55.69    7.60
  -4  -5   5   41.90    7.70
  -4  -5   5   43.30    8.20
   3   5  -5   64.29    8.40
   2   5  -5  271.87   27.40
  -2  -5   5  296.87   26.80
   1   5  -5    7.90    2.70
  -1  -5   5   11.50    4.60
  -1  -5   5    9.10    2.60
   0   5  -5   69.29    8.00
   0  -5   5   44.50    7.10
   0  -5   5   61.19    8.10
  -1   5  -5    9.40    4.00
   1  -5   5   11.70    3.90
  -2   5  -5   59.49    8.10
   2  -5   5   49.40    9.70
   2  -5   5   45.20    7.30
  -3   5  -5   13.80    5.70
   3  -5   5    4.70    4.60
  -4   5  -5    1.20    2.80
   4  -5   5   -4.80    3.20
   4  -5   5   -3.70    4.00
   6   4  -5   56.99   13.80
  -6  -4   5   97.39   12.20
   5   4  -5   11.60    6.70
  -5  -4   5   23.40    5.90
   4   4  -5  109.69   15.50
   4   4  -5  106.09   12.20
  -4  -4   5  106.79   13.20
   3   4  -5   56.99    7.20
   3   4  -5   63.19    9.80
  -3  -4   5   48.70    7.80
   2   4  -5    0.40    1.60
  -2  -4   5    0.60    1.40
  -2  -4   5    0.30    2.20
   1   4  -5  310.27   29.30
   1   4  -5  296.97   30.10
  -1  -4   5  310.17   29.10
  -1  -4   5  332.37   31.00
   0   4  -5   46.90    8.50
   0   4  -5   44.20    6.40
   0  -4   5   44.20    5.80
  -1   4  -5  259.37   24.80
  -1   4  -5  284.97   25.10
   1  -4   5  228.98   25.20
   1  -4   5  245.88   24.50
  -2   4  -5   82.79    9.50
  -2   4  -5   69.59    9.40
   2  -4   5   70.89   10.10
   2  -4   5   65.99    9.30
  -3   4  -5  166.48   17.30
   3  -4   5  138.49   18.50
   3  -4   5  160.88   19.60
  -4   4  -5    3.70    3.00
   4  -4   5    8.90    5.00
   4  -4   5    5.00    3.70
  -5   4  -5   54.79    8.10
   5  -4   5   52.19   11.70
   5  -4   5   38.80   11.40
   6   3  -5   23.90    8.90
  -6  -3   5   15.30    5.60
   5   3  -5  241.18   26.90
  -5  -3   5  183.18   21.50
   4   3  -5   99.29   14.40
  -4  -3   5   97.79   11.90
   3   3  -5  454.35   40.00
  -3  -3   5  402.96   40.80
   2   3  -5 1795.22  148.39
   2   3  -5 1700.73  147.49
  -2  -3   5 1528.65  150.08
  -2  -3   5 1576.04  151.28
   1   3  -5 1871.91  159.38
   1   3  -5 1819.82  160.08
  -1  -3   5 1903.61  159.28
  -1  -3   5 1658.93  160.08
  -1  -3   5 1947.01  161.08
  -1  -3   5 1544.75  158.98
   0   3  -5  820.62   68.99
   0   3  -5  692.43   67.99
   0  -3   5  768.22   68.39
   0  -3   5  747.73   67.89
  -1   3  -5   34.60    5.00
  -1   3  -5   44.80    5.60
   1  -3   5   40.60    5.10
   1  -3   5   32.20    6.40
  -2   3  -5  253.37   23.60
  -2   3  -5  203.48   22.40
   2  -3   5  267.47   23.80
   2  -3   5  254.97   25.70
   2  -3   5  192.98   22.10
  -3   3  -5   84.69    9.80
   3  -3   5   59.09   11.60
   3  -3   5   74.39   10.50
  -4   3  -5   51.39    8.80
  -4   3  -5   59.89    7.70
   4  -3   5   61.79   12.40
   4  -3   5   58.49   10.30
  -5   3  -5   24.60    5.20
   5  -3   5   26.80    8.40
   5  -3   5   22.00    7.40
   6   2  -5    3.50    4.60
   5   2  -5    4.20    5.00
  -5  -2   5    1.40    2.70
   4   2  -5  465.45   47.50
  -4  -2   5  480.05   44.80
   3   2  -5   16.20    5.60
   3   2  -5    6.40    2.30
  -3  -2   5   10.50    3.40
  -3  -2   5    6.80    3.20
   2   2  -5 1132.09   99.89
   2   2  -5 1095.59   98.19
   2   2  -5  986.80   97.39
  -2  -2   5 1167.98   98.59
   1   2  -5 1033.10   87.39
  -1  -2   5  921.91   88.19
   0   2  -5 1498.65  121.79
   0   2  -5 1420.26  122.29
   0  -2   5 1398.26  122.09
   0  -2   5 1160.98  121.49
  -1   2  -5 6642.54  548.05
  -1   2  -5 6494.75  548.65
  -1   2  -5 6082.89  548.15
   1  -2   5 5563.14  547.75
  -2   2  -5  813.72   70.69
  -2   2  -5  817.12   71.59
   2  -2   5  798.42   70.39
   2  -2   5  689.63   71.39
   2  -2   5  770.02   71.89
  -3   2  -5  193.28   17.20
   3  -2   5  161.78   18.30
   3  -2   5  121.39   17.60
  -4   2  -5   43.20    5.70
   4  -2   5   42.80    8.90
   4  -2   5   32.90    8.30
  -5   2  -5   53.29    6.80
   5  -2   5   47.00   11.20
   5  -2   5   44.80   14.60
  -6   2  -5    0.00    2.60
   6  -2   5   10.90    6.50
   6  -2   5   -4.90    3.80
   6   1  -5   50.39   11.30
  -6  -1   5   30.60    8.20
   5   1  -5   86.19   14.00
   4   1  -5   23.50    7.50
  -4  -1   5   24.80    4.90
   3   1  -5  284.77   26.60
  -3  -1   5  303.67   29.20
  -3  -1   5  262.67   27.80
  -3  -1   5  260.17   26.70
   2   1  -5  179.08   18.10
   2   1  -5  206.38   19.90
  -2  -1   5  188.08   18.30
  -2  -1   5  179.88   19.60
   1   1  -5 2253.57  206.48
   1   1  -5 2156.68  205.68
  -1  -1   5 2544.95  207.68
  -1  -1   5 2359.66  206.68
   0   1  -5  192.08   19.10
   0   1  -5  186.08   19.50
   0  -1   5  228.38   19.20
   0  -1   5  214.98   19.70
   0  -1   5  233.28   19.80
  -1   1  -5 1374.76  120.49
  -1   1  -5 1143.19  120.49
  -1   1  -5 1438.76  121.29
   1  -1   5 1505.05  121.59
   1  -1   5 1324.97  120.49
  -2   1  -5 1154.28  109.19
  -2   1  -5 1240.58  108.49
   2  -1   5 1353.96  110.19
   2  -1   5 1090.09  109.39
  -3   1  -5   88.19    9.50
  -3   1  -5  108.99   12.00
   3  -1   5  112.19   12.80
   3  -1   5   76.49   10.10
   3  -1   5  112.89   12.90
  -4   1  -5  124.19   11.20
   4  -1   5   84.89   14.00
   4  -1   5  107.99   14.50
  -5   1  -5   -0.60    1.40
   5  -1   5    1.30    3.50
   5  -1   5    1.00    3.80
   6  -1   5    6.50    6.00
   6  -1   5   19.90    6.70
   6   0  -5   53.19   12.80
  -6   0   5   69.69   14.30
   5   0  -5   12.30    6.00
  -5   0   5    9.00    3.50
   4   0  -5   92.89   12.50
   4   0  -5   66.89    8.90
  -4   0   5   84.79    9.60
   3   0  -5    9.90    4.10
   3   0  -5   14.70    2.90
   3   0  -5   12.90    3.20
  -3   0   5   15.70    4.80
  -3   0   5   13.10    3.00
   2   0  -5   97.69   11.40
   2   0  -5   87.59   10.40
   2   0  -5   90.59   10.20
  -2   0   5  103.09   10.30
  -2   0   5  120.49   12.00
   1   0  -5   25.80    3.20
  -1   0   5   22.80    3.80
  -1   0   5   20.90    3.00
   0   0  -5 2174.58  187.18
   0   0   5 2050.39  187.18
  -1   0  -5 2602.34  218.08
  -1   0  -5 2391.16  216.98
   1   0   5 2516.75  217.48
   1   0   5 2592.94  217.08
   1   0   5 2167.58  217.88
  -2   0  -5 4084.39  364.56
   2   0   5 4481.95  365.76
   2   0   5 3668.03  364.66
   2   0   5 4195.08  363.86
  -3   0  -5    4.70    2.50
  -3   0  -5    6.50    3.70
  -3   0  -5    7.80    1.40
   3   0   5    7.90    3.60
   3   0   5    3.50    2.60
   3   0   5    7.30    2.50
  -4   0  -5  220.68   18.90
   4   0   5  208.48   23.80
   4   0   5  165.88   22.00
  -5   0  -5   51.69    5.70
   5   0   5   39.10    9.90
   5   0   5   50.39   10.50
  -6   0  -5    0.50    2.40
   6   0   5   -0.10    4.50
   6   0   5    1.00    4.60
   6  -1  -5   -1.80    5.40
  -6   1   5   -1.40    3.20
   5  -1  -5  333.07   33.50
  -5   1   5  278.07   29.70
   4  -1  -5  111.79   12.70
   4  -1  -5  144.49   16.30
  -4   1   5  117.59   13.30
   3  -1  -5  512.75   42.20
   3  -1  -5  466.55   43.30
   3  -1  -5  403.06   40.70
  -3   1   5  448.46   43.40
  -3   1   5  416.56   43.10
   2  -1  -5   74.59    8.70
   2  -1  -5   66.49    7.00
  -2   1   5   59.49    8.40
  -2   1   5   77.29    7.90
   1  -1  -5  472.95   46.40
   1  -1  -5  480.25   45.50
  -1   1   5  458.85   46.20
  -1   1   5  575.94   45.90
  -1   1   5  565.14   46.90
   0  -1  -5  814.22   73.49
   0   1   5  819.22   72.89
   0   1   5  833.62   73.39
  -1  -1  -5 1930.71  148.69
   1   1   5 1584.74  149.29
   1   1   5 1619.14  148.59
   1   1   5 1550.54  147.69
  -2  -1  -5 1292.97  119.99
  -2  -1  -5 1371.96  121.09
   2   1   5 1334.07  120.39
   2   1   5 1357.06  121.39
  -3  -1  -5   34.10    6.40
  -3  -1  -5   21.00    7.80
   3   1   5   25.80    6.10
   3   1   5   28.00    7.00
  -4  -1  -5   28.50    3.50
   4   1   5   24.70    7.10
   4   1   5   37.10    8.90
  -5  -1  -5  273.97   23.80
   5   1   5  214.28   28.80
   5   1   5  261.57   28.40
  -6  -1  -5  146.09   15.30
   6   1   5  161.98   22.60
   6   1   5  172.98   20.80
   6  -2  -5    4.70    6.10
  -6   2   5   -0.30    3.00
   5  -2  -5  109.09   14.90
  -5   2   5   87.59   11.60
   4  -2  -5   56.99   10.50
  -4   2   5   47.00    7.00
  -4   2   5   45.10    9.30
   3  -2  -5   22.50    5.40
   3  -2  -5   20.60    3.70
  -3   2   5   14.40    3.50
  -3   2   5   24.60    5.70
   2  -2  -5 2591.04  229.48
   2  -2  -5 2749.12  230.68
  -2   2   5 2320.87  230.28
  -2   2   5 2502.75  229.68
  -2   2   5 2520.95  230.88
  -2   2   5 2857.31  232.08
   1  -2  -5   41.50    4.30
  -1   2   5   38.50    5.00
  -1   2   5   38.20    4.30
  -1   2   5   37.00    4.80
   0   2   5 3578.84  312.37
   0   2   5 3486.35  312.97
   1   2   5  131.59   12.20
   1   2   5  121.39   13.10
  -2  -2  -5 1048.00   89.99
  -2  -2  -5 1015.20   91.39
   2   2   5  990.20   90.29
   2   2   5  978.40   88.99
   2   2   5  977.40   91.69
  -3  -2  -5   37.50    6.20
  -3  -2  -5   46.20    8.00
   3   2   5   43.20    7.90
   3   2   5   54.69    7.30
   3   2   5   53.99    4.90
  -4  -2  -5    9.30    3.50
   4   2   5   10.70    1.90
   4   2   5    6.50    4.30
   4   2   5    6.80    3.90
  -5  -2  -5  284.57   24.70
   5   2   5  230.78   28.10
   5   2   5  261.47   30.50
  -6  -2  -5   92.69   10.10
   6   2   5   94.09   14.50
   7   2   5   11.20    7.20
   7   2   5   -8.30    5.60
   5  -3  -5   57.49   10.70
  -5   3   5   34.40    6.80
   4  -3  -5  131.49   18.70
  -4   3   5  117.09   14.00
  -4   3   5  127.69   15.40
   3  -3  -5   75.59    9.80
   3  -3  -5  112.79   11.40
  -3   3   5   91.99   10.40
  -3   3   5   89.19   11.30
   2  -3  -5  224.98   21.00
  -2   3   5  195.58   21.80
  -2   3   5  225.98   21.30
  -2   3   5  237.28   21.90
   1  -3  -5  589.24   50.69
  -1   3   5  519.75   50.49
  -1   3   5  583.44   50.69
  -1   3   5  561.94   51.99
  -1   3   5  547.45   51.49
   0  -3  -5  869.91   76.29
   0   3   5  843.92   76.29
   0   3   5  844.42   76.39
   1   3   5 1035.50   97.29
   1   3   5 1139.79   95.99
   1   3   5 1056.49   96.29
  -2  -3  -5    2.50    1.80
  -2  -3  -5    5.10    1.60
   2   3   5    5.90    2.80
   2   3   5    1.60    1.40
  -3  -3  -5  302.87   35.60
  -3  -3  -5  408.16   34.20
   3   3   5  308.97   36.30
   3   3   5  401.36   34.80
   3   3   5  373.96   33.00
  -4  -3  -5   30.30    5.70
   4   3   5   40.90    7.20
   4   3   5   23.70    3.50
   4   3   5   31.30    7.70
   5   3   5   14.60    2.60
   5   3   5   10.80    5.00
   5   3   5    6.30    5.00
   6   3   5  654.83   64.69
   6   3   5  669.73   68.19
   5  -4  -5   11.10    5.40
  -5   4   5    6.30    4.00
   4  -4  -5    1.30    2.60
  -4   4   5    1.20    2.90
  -4   4   5   -1.20    2.10
  -4   4   5   -0.20    2.30
  -3   4   5    1.70    2.20
  -3   4   5   -0.20    1.70
  -3   4   5   -0.40    1.90
   2  -4  -5  396.46   35.20
  -2   4   5  356.16   35.50
  -2   4   5  368.86   36.20
  -2   4   5  380.06   37.30
  -2   4   5  384.46   34.70
   1  -4  -5  212.48   20.70
  -1   4   5  221.08   20.80
  -1   4   5  216.58   22.00
   0  -4  -5  431.56   41.30
   0   4   5  474.35   41.80
   0   4   5  451.65   41.40
   1   4   5   37.70    5.40
   1   4   5   49.40    4.80
   1   4   5   44.70    5.90
  -2  -4  -5  794.52   70.19
   2   4   5  724.33   68.69
   2   4   5  812.62   70.69
   2   4   5  710.43   67.99
  -3  -4  -5   -2.90    1.70
  -3  -4  -5   -1.00    1.30
   3   4   5   -1.00    1.40
   3   4   5   -1.80    1.20
   3   4   5   -1.40    2.00
  -4  -4  -5  356.96   31.50
   4   4   5  339.57   32.20
   4   4   5  287.87   30.00
   4   4   5  330.07   35.10
   5   4   5   30.30    9.80
   5   4   5   26.60    6.70
   5   4   5   21.70    3.80
   6   4   5  667.03   61.39
   6   4   5  697.03   69.99
  -4   5   5    9.70    3.60
  -4   5   5    5.60    3.40
  -3   5   5    4.30    3.40
  -3   5   5    3.60    3.00
  -2   5   5   52.09    8.60
  -2   5   5   58.09    8.10
  -2   5   5   52.29    7.50
  -1   5   5   14.40    4.00
  -1   5   5   12.10    4.20
   0  -5  -5  444.86   39.50
   0   5   5  405.76   39.40
   1   5   5  535.25   49.40
   1   5   5  539.55   49.60
  -2  -5  -5  197.28   20.50
   2   5   5  181.38   20.60
   2   5   5  205.98   19.50
  -3  -5  -5 1132.09   98.19
   3   5   5 1046.00   94.39
   3   5   5 1052.09   98.19
   3   5   5  945.61   95.29
   3   5   5 1103.99   95.59
  -4  -5  -5  150.28   15.00
   4   5   5  149.49   19.20
  -5  -5  -5   46.10    7.40
   5   5   5   51.09    6.20
   5   5   5   33.80   10.50
   6   5   5  107.19   18.20
  -4   6   5   -3.40    3.50
  -4   6   5    1.40    3.10
  -3   6   5   26.20    6.60
  -3   6   5   34.50    7.60
  -2   6   5   13.50    4.20
  -1   6   5  113.79   12.50
  -1   6   5  104.09   12.50
   0   6   5  161.08   15.40
   0   6   5  131.09   14.40
   1   6   5    4.90    1.90
   1   6   5    2.40    2.50
  -2  -6  -5 1064.99   99.79
   2   6   5 1075.39   99.19
   2   6   5 1144.29  100.29
  -3  -6  -5   79.59   13.20
   3   6   5   92.99   11.10
   3   6   5  106.09   13.50
   4   6   5  305.97   29.00
   4   6   5  266.87   31.60
   6   6   5  183.38   25.80
  -3   7   5    2.80    3.60
  -3   7   5    2.40    3.60
  -2   7   5   -1.80    2.70
  -1   7   5   37.30    7.50
  -1   7   5   58.89    8.40
   0   7   5   33.10    6.60
   0   7   5   31.30    6.60
   1   7   5  285.37   28.20
  -2  -7  -5    9.00    3.60
   2   7   5   11.20    4.00
   2   7   5   14.30    4.40
   3   7   5  401.56   40.60
   3   7   5  420.46   41.30
   4   7   5   22.70    7.50
   4   7   5   41.10    7.70
   5   7   5  121.69   20.20
   5   7   5  185.78   18.70
  -2   8   5    0.30    3.40
  -1   8   5   -4.20    3.70
  -1   8   5   -4.40    3.30
   0   8   5   19.30    4.70
   1   8   5    9.10    3.30
   2   8   5  217.08   22.90
   3   8   5  839.22   75.69
   3   8   5  784.52   75.99
   4   8   5   35.00    9.00
   4   8   5   39.60    8.30
   0   9   5   13.00    6.00
   1   9   5  183.08   20.40
   2   9   5   11.30    4.20
   3   9   5    9.20    4.20
   3   8  -6    0.40    4.10
   2   8  -6   39.70    8.10
   1   8  -6   12.50    4.90
   0   8  -6    3.20    4.80
   0  -8   6    0.90    3.60
  -1   8  -6   38.70    8.60
   1  -8   6   62.19   10.10
   1  -8   6   38.80    7.80
   4   7  -6    7.00    4.70
  -4  -7   6    3.70    3.30
   3   7  -6   48.80    7.70
  -3  -7   6   46.40    5.90
  -3  -7   6   37.20    6.50
  -2  -7   6    2.20    1.90
  -1  -7   6   95.99   10.90
   0   7  -6    0.50    3.30
   0  -7   6   -3.10    4.70
   0  -7   6   -0.20    2.80
  -1   7  -6   37.20    7.30
   1  -7   6   23.90    6.70
   1  -7   6   37.40    7.70
  -2   7  -6   -1.80    2.50
   2  -7   6    2.30    3.90
   2  -7   6    0.00    3.40
   5   6  -6   74.89   10.90
   4   6  -6   -3.20    2.80
  -4  -6   6    1.10    4.60
   3   6  -6   43.20    6.80
  -3  -6   6   38.60    5.80
   2   6  -6   71.39    8.70
  -2  -6   6   58.99    7.50
   1   6  -6   86.99   10.20
  -1  -6   6   72.49    9.20
   0  -6   6   46.30    6.60
   0  -6   6   27.00    6.90
  -1   6  -6    6.30    3.70
  -1   6  -6    0.20    3.50
   1  -6   6    1.70    3.60
   1  -6   6    2.70    3.40
  -2   6  -6  202.88   22.10
   2  -6   6  186.88   22.40
   2  -6   6  227.98   23.60
  -3   6  -6    1.00    2.20
   3  -6   6    1.70    4.70
   3  -6   6    0.40    3.40
   5   5  -6    6.60    3.40
   5   5  -6    4.50    6.60
  -5  -5   6   -1.80    3.40
   4   5  -6   12.90    4.00
  -4  -5   6    8.90    5.30
  -4  -5   6   10.80    3.80
   3   5  -6   99.59   11.50
   2   5  -6  122.69   14.00
  -2  -5   6  141.99   13.70
   1   5  -6    1.40    2.60
  -1  -5   6    0.40    1.70
   0   5  -6  437.16   43.60
   0  -5   6  466.65   43.90
   0  -5   6  503.35   46.20
  -1   5  -6   80.29    9.70
  -1   5  -6   77.89    9.40
   1  -5   6   65.09    9.70
  -2   5  -6    3.00    2.40
   2  -5   6    0.70    2.10
   2  -5   6    0.80    2.80
  -3   5  -6    3.80    4.40
   3  -5   6    8.90    4.10
   3  -5   6    4.30    3.90
  -4   5  -6    6.80    3.80
   4  -5   6   17.40    6.80
   4  -5   6    9.00    4.90
   6   4  -6   47.60   12.40
  -6  -4   6   47.70    9.90
   5   4  -6   26.50    5.90
   5   4  -6   15.80    7.40
   4   4  -6  415.06   43.30
   4   4  -6  458.15   39.60
  -4  -4   6  368.46   40.30
   3   4  -6   11.60    3.20
  -3  -4   6    5.80    3.30
  -2  -4   6  532.15   47.40
  -2  -4   6  452.35   52.99
   1   4  -6   80.29    8.60
  -1  -4   6   80.99    8.60
  -1  -4   6   71.59    8.50
  -1  -4   6   64.49    9.90
   0   4  -6    2.90    2.20
   0   4  -6    5.80    2.50
   0  -4   6    5.90    2.40
   0  -4   6    4.30    1.90
  -1   4  -6   57.59    7.90
  -1   4  -6   48.20    7.20
  -1   4  -6   41.20    6.40
  -2   4  -6   43.80    6.80
   2  -4   6   45.30    6.90
   2  -4   6   39.70    8.50
  -3   4  -6   23.20    5.10
   3  -4   6   33.40    8.50
   3  -4   6   35.30    8.00
  -4   4  -6   13.30    4.90
   4  -4   6   10.20    4.90
   4  -4   6   13.70    6.50
   5  -4   6   48.40   12.10
   5  -4   6   52.49   11.30
   6   3  -6   11.10    7.10
  -6  -3   6   12.10    5.60
   5   3  -6    7.90    5.60
  -5  -3   6   22.90    6.50
   4   3  -6  165.78   19.30
  -4  -3   6  135.29   16.30
   3   3  -6  463.65   43.30
   3   3  -6  429.66   39.70
  -3  -3   6  400.46   40.90
   2   3  -6  498.65   41.10
   2   3  -6  437.16   41.70
  -2  -3   6  451.45   42.20
  -2  -3   6  391.26   43.10
   1   3  -6   59.69    6.60
   1   3  -6   62.09    8.40
  -1  -3   6   57.29    6.50
  -1  -3   6   62.29    7.50
  -1  -3   6   64.09    6.80
  -1  -3   6   47.30    7.50
   0   3  -6    7.50    2.40
   0   3  -6    6.10    2.20
   0  -3   6    8.70    2.60
   0  -3   6    7.20    1.80
  -1   3  -6   49.10    6.70
  -1   3  -6   58.29    6.90
  -1   3  -6   39.30    6.00
   1  -3   6   57.49    6.30
   1  -3   6   47.50    7.10
  -2   3  -6    6.30    2.30
  -2   3  -6    5.90    2.90
   2  -3   6    7.20    3.10
   2  -3   6    3.50    2.30
   2  -3   6    5.40    3.30
  -3   3  -6   60.29    8.10
   3  -3   6   63.49    9.30
   3  -3   6   40.50    9.00
  -4   3  -6   22.00    4.60
  -4   3  -6   28.80    6.90
   4  -3   6   23.70    7.50
   4  -3   6   29.40    8.20
  -5   3  -6   74.69    9.00
   5  -3   6   83.59   15.80
   5  -3   6   50.29   11.70
   6   2  -6    9.80    7.60
  -6  -2   6    3.70    4.10
   5   2  -6   54.39   11.90
   4   2  -6   75.59   12.10
  -4  -2   6   72.59    9.60
   3   2  -6   45.80    7.70
   3   2  -6   43.80    8.90
  -3  -2   6   39.50    6.30
   2   2  -6  234.08   23.70
  -2  -2   6  293.77   25.20
   1   2  -6  179.28   17.80
   1   2  -6  194.38   17.20
  -1  -2   6  166.48   18.70
  -1  -2   6  193.98   18.30
   0   2  -6  290.07   24.10
   0   2  -6  240.88   23.30
   0  -2   6  240.18   23.30
   0  -2   6  240.88   24.00
   0  -2   6  260.77   24.00
  -1   2  -6  361.16   29.20
  -1   2  -6  276.17   28.60
  -1   2  -6  327.57   29.40
   1  -2   6  295.37   28.60
   1  -2   6  294.77   29.60
  -2   2  -6    2.10    1.90
   2  -2   6    4.80    3.10
   2  -2   6    2.50    2.30
  -3   2  -6   56.89    8.40
   3  -2   6   87.79   11.70
   3  -2   6   65.09    9.90
  -4   2  -6   45.00    5.90
   4  -2   6   38.20    9.30
   4  -2   6   47.40   10.60
  -5   2  -6   31.60    5.30
   5  -2   6   28.70    8.80
   5  -2   6   42.00   10.60
  -6   2  -6    0.30    2.50
   6  -2   6    4.00    5.80
   6  -2   6    3.20    4.90
   6   1  -6   11.00    6.70
  -6  -1   6   11.30    5.20
   5   1  -6   -1.80    4.50
  -5  -1   6   -2.70    2.30
   4   1  -6   47.00    9.90
  -4  -1   6   34.60    6.80
   3   1  -6    1.40    2.50
  -3  -1   6    0.10    1.80
  -3  -1   6    0.70    1.60
   2   1  -6  248.48   20.20
  -2  -1   6  201.78   20.00
  -2  -1   6  166.08   20.80
   1   1  -6  841.62   72.39
   1   1  -6  818.22   73.29
  -1  -1   6  806.62   73.39
  -1  -1   6  786.12   74.29
   0   1  -6  238.58   22.40
   0   1  -6  218.58   21.90
   0  -1   6  247.48   21.90
   0  -1   6  263.77   22.70
   0  -1   6  240.68   22.50
  -1   1  -6   75.19    7.70
  -1   1  -6   62.49    6.80
  -1   1  -6   53.49    6.90
   1  -1   6   66.29    7.60
   1  -1   6   61.49    6.60
  -2   1  -6  601.34   54.69
  -2   1  -6  639.64   54.59
  -2   1  -6  665.83   55.69
   2  -1   6  516.85   54.19
   2  -1   6  620.54   56.19
   2  -1   6  559.84   55.69
  -3   1  -6  381.96   35.90
   3  -1   6  337.87   36.20
   3  -1   6  367.86   39.90
   3  -1   6  373.36   34.50
  -4   1  -6  131.49   12.70
   4  -1   6  122.79   16.40
   4  -1   6  129.99   17.10
  -5   1  -6   32.20    4.20
   5  -1   6   18.00    7.00
   5  -1   6   32.50    9.00
  -6   1  -6   76.89    8.30
   6  -1   6   50.79   13.10
   6  -1   6   75.39   15.90
   6   0  -6   -2.40    6.20
  -6   0   6    7.70    4.30
   5   0  -6   98.69   14.60
  -5   0   6   87.69   11.40
   4   0  -6  120.79   11.90
   4   0  -6  113.19   15.00
  -4   0   6   87.99   11.80
   3   0  -6   17.60    3.80
   3   0  -6   11.50    2.50
  -3   0   6   16.70    4.70
  -3   0   6   13.90    4.60
  -3   0   6   13.60    3.40
   2   0  -6   78.39   10.20
   2   0  -6  103.69    9.70
  -2   0   6  120.39   10.80
  -2   0   6  100.09   11.80
   1   0  -6  436.96   42.50
  -1   0   6  483.45   43.50
  -1   0   6  483.05   42.60
   0   0  -6   81.09    8.30
   0   0   6   85.59    8.30
  -1   0  -6   49.50    5.50
  -1   0  -6   41.30    4.40
   1   0   6   40.90    5.40
   1   0   6   40.70    4.50
   1   0   6   48.50    5.10
  -2   0  -6 1483.75  129.19
   2   0   6 1237.38  129.09
   2   0   6 1510.75  128.29
   2   0   6 1513.65  130.19
  -3   0  -6  154.88   15.40
   3   0   6  116.89   13.80
   3   0   6  147.89   16.80
  -4   0  -6   30.00    3.30
   4   0   6   18.10    5.90
   4   0   6   34.50    8.10
   5   0   6    0.40    3.70
   5   0   6   -1.80    3.50
  -6   0  -6    6.00    2.60
   6   0   6    4.10    5.80
   6   0   6   -2.20    4.80
   6  -1  -6    0.50    5.30
  -6   1   6   -0.60    3.40
   5  -1  -6    8.80    5.20
  -5   1   6   15.00    4.40
   4  -1  -6   16.80    5.80
   4  -1  -6   12.20    3.20
  -4   1   6   11.00    3.60
   3  -1  -6  196.38   20.00
   3  -1  -6  236.88   22.90
   3  -1  -6  226.58   21.60
  -3   1   6  204.78   21.00
  -3   1   6  207.08   24.00
   2  -1  -6  125.09   12.00
   2  -1  -6  115.29   10.70
  -2   1   6  100.79   11.40
  -2   1   6  101.39   12.30
   1  -1  -6   18.60    3.40
  -1   1   6   24.40    3.70
   0  -1  -6  183.98   16.50
   0   1   6  164.08   16.20
  -1  -1  -6  122.99   10.60
  -1  -1  -6   95.39    9.60
   1   1   6   93.89   10.30
  -2  -1  -6   95.19    9.80
   2   1   6   93.59   10.00
   2   1   6   70.19   10.20
  -3  -1  -6    5.60    2.20
  -3  -1  -6    3.40    2.60
   3   1   6    0.10    2.00
   3   1   6    0.90    2.20
   4   1   6   40.40    8.70
   4   1   6   53.99   11.20
   5   1   6   48.80   12.10
   5   1   6   53.89   11.60
   6   1   6   89.89   15.30
   6   1   6   54.49   11.80
   6  -2  -6   -1.60    5.30
  -6   2   6    4.50    3.60
   5  -2  -6   -2.80    3.80
  -5   2   6    4.10    2.70
   4  -2  -6   93.89   12.80
  -4   2   6   88.79   11.00
   3  -2  -6   69.49    8.50
   3  -2  -6   49.99    6.30
  -3   2   6   43.70    6.80
  -3   2   6   55.49    8.10
   2  -2  -6   62.09    6.70
  -2   2   6   70.69    7.80
  -2   2   6   66.49    6.90
  -2   2   6   65.59    9.60
  -2   2   6   52.59    7.70
  -1   2   6   70.29    7.90
  -1   2   6   69.79    7.00
  -1   2   6   70.59    7.80
   0   2   6    1.70    1.10
   0   2   6    2.80    0.90
   1   2   6    4.90    1.30
   1   2   6    5.10    1.90
   1   2   6    7.10    1.90
  -2  -2  -6  979.60   85.19
  -2  -2  -6  999.10   83.69
   2   2   6  786.02   84.89
   2   2   6  946.51   84.09
  -3  -2  -6    4.90    2.20
  -3  -2  -6    3.30    2.40
   3   2   6    3.50    2.30
   3   2   6    3.00    3.00
  -4  -2  -6  222.98   23.30
   4   2   6  216.68   23.90
   4   2   6  236.88   26.10
   5   2   6   92.69   12.50
   5   2   6   74.79   13.50
   6   2   6   56.89   13.60
   6   2   6   44.40   13.80
   5  -3  -6    3.40    4.20
  -5   3   6    1.40    2.80
   4  -3  -6   83.09   11.50
  -4   3   6   85.69   10.70
  -4   3   6   77.99   11.50
   3  -3  -6  177.88   17.10
  -3   3   6  155.18   18.50
  -3   3   6  186.78   18.40
   2  -3  -6   18.70    3.40
  -2   3   6   28.10    6.30
  -2   3   6   17.70    4.30
  -2   3   6   21.30    3.80
  -2   3   6   24.60    4.20
   1  -3  -6  134.19   12.30
  -1   3   6  123.79   13.20
  -1   3   6  124.19   12.30
  -1   3   6  120.79   12.50
   0  -3  -6   81.19    7.60
   0   3   6   64.89    7.40
   1   3   6    0.70    1.20
   1   3   6    0.50    0.90
   1   3   6    1.60    1.10
  -2  -3  -6   25.10    5.20
  -2  -3  -6   32.50    3.80
   2   3   6   21.80    5.50
   2   3   6   25.70    3.90
  -3  -3  -6   32.50    7.10
  -3  -3  -6   28.70    4.10
   3   3   6   17.60    2.90
   3   3   6   33.70   10.00
   3   3   6   25.10    5.20
  -4  -3  -6  450.35   43.00
   4   3   6  464.65   46.40
   4   3   6  445.66   40.80
   5   3   6  295.07   31.40
   5   3   6  231.98   27.20
   6   3   6  435.66   47.80
  -5   4   6    8.20    3.50
  -4   4   6  169.68   19.00
  -4   4   6  144.49   19.40
  -3   4   6  116.59   13.40
  -3   4   6  118.49   12.70
  -3   4   6  105.49   12.60
   2  -4  -6   25.70    4.60
  -2   4   6   22.40    3.70
  -2   4   6   28.30    5.80
  -2   4   6   22.50    6.30
   1  -4  -6  120.19   12.60
  -1   4   6  138.19   12.90
  -1   4   6  119.99   13.90
  -1   4   6  126.59   13.70
   0  -4  -6  100.99    9.90
   0   4   6   95.59    9.90
   0   4   6   88.99    9.50
   1   4   6   -0.30    0.90
   1   4   6   -0.40    1.10
   1   4   6    1.30    1.50
  -2  -4  -6 1073.09   92.49
   2   4   6 1101.19   91.59
   2   4   6  945.91   90.49
   2   4   6  922.41   92.59
  -3  -4  -6   87.29   12.30
  -3  -4  -6  110.69   10.50
   3   4   6   93.89   11.00
   3   4   6   97.39   10.30
   3   4   6  110.39   13.80
  -4  -4  -6   70.79    8.50
   4   4   6   66.89   11.50
   4   4   6   83.99    9.60
   4   4   6   57.19    7.10
   5   4   6  195.88   24.80
   5   4   6  195.68   21.40
   5   4   6  186.78   18.00
   6   4   6   17.40    8.40
   6   4   6   25.90    6.60
   6   4   6    9.60    2.90
  -4   5   6   -2.90    2.10
  -4   5   6   -1.60    2.10
  -4   5   6    3.50    3.00
  -3   5   6   79.19   10.10
  -3   5   6   86.19   11.10
  -2   5   6  129.99   13.80
  -2   5   6  123.59   14.50
   1  -5  -6  231.78   24.80
  -1   5   6  238.68   25.50
  -1   5   6  292.17   24.90
   0  -5  -6  516.85   51.19
   0   5   6  526.05   51.49
   0   5   6  640.74   51.59
   1   5   6   42.60    5.40
   1   5   6   35.30    5.30
   1   5   6   35.70    4.20
  -2  -5  -6  171.08   17.50
   2   5   6  175.08   18.20
   2   5   6  164.68   16.40
   2   5   6  141.59   15.70
  -3  -5  -6  300.77   30.60
   3   5   6  276.77   27.70
   3   5   6  334.17   29.00
   3   5   6  293.87   28.20
   3   5   6  274.17   30.90
  -4  -5  -6    8.70    2.70
   4   5   6    1.50    2.70
   4   5   6    4.70    2.50
   4   5   6   12.50    2.90
  -5  -5  -6   56.79    8.50
   5   5   6   52.19    6.90
   5   5   6   66.79    9.00
   5   5   6   70.29   13.70
   6   5   6  247.38   31.40
  -4   6   6    8.40    4.50
  -4   6   6   17.10    4.90
  -3   6   6   81.29   13.20
  -3   6   6  135.39   13.90
  -2   6   6    9.40    3.70
  -2   6   6    4.30    3.00
  -1   6   6    4.00    2.50
  -1   6   6    3.80    3.00
   0   6   6   90.29    9.60
   0   6   6   71.79    9.40
   1   6   6  220.48   21.90
   1   6   6  217.78   21.00
  -2  -6  -6  117.09   13.60
   2   6   6  106.19   13.60
   2   6   6  127.49   13.10
   3   6   6  147.39   18.90
   3   6   6  172.98   17.30
   4   6   6   59.99    9.40
   4   6   6   84.19   12.60
  -5  -6  -6   42.80    6.30
   5   6   6   24.40   10.30
   6   6   6   -7.50    6.70
  -3   7   6   26.50    6.70
  -3   7   6   18.50    6.60
  -2   7   6   40.40    8.50
  -2   7   6   73.89    9.90
  -1   7   6   56.99    8.80
   0   7   6  238.98   25.10
   0   7   6  261.57   24.10
   1   7   6  163.68   17.30
   2   7   6  202.28   20.50
   2   7   6  184.38   20.10
   3   7   6  161.18   20.20
   3   7   6  179.88   20.10
   4   7   6  132.09   16.20
   4   7   6  156.08   19.50
   5   7   6    0.90    4.80
  -2   8   6   17.30    5.10
  -2   8   6   13.40    5.20
  -1   8   6  106.59   13.70
   0   8   6   50.29    8.30
   1   8   6   44.10    8.40
   2   8   6    7.30    3.10
   2   8   6    6.30    3.50
   3   8   6    6.70    3.70
   3   8   6    3.40    3.90
   4   8   6   57.49   11.50
   4   8   6   36.20    7.40
   0   9   6  179.38   20.70
   1   9   6    2.20    2.80
   2   9   6    5.10    4.00
   3   9   6   -4.60    3.70
   3   9   6    6.80    4.60
   2   8  -7   25.10    6.60
   1   8  -7    0.60    3.90
  -1  -8   7    1.80    3.60
   0   8  -7   39.80    7.40
   0  -8   7   31.70    6.90
   4   7  -7   37.40    7.80
  -4  -7   7   43.50    7.70
   3   7  -7   23.40    5.30
  -3  -7   7   17.10    6.20
  -3  -7   7   19.80    4.30
   2   7  -7    9.00    4.60
  -2  -7   7   13.60    3.70
   1   7  -7   42.80    8.20
  -1  -7   7   58.89    7.70
   0   7  -7   28.90    6.40
   0  -7   7   26.30    6.50
  -1   7  -7    8.70    3.90
   1  -7   7    2.60    3.90
  -2   7  -7   -0.70    3.50
   2  -7   7    0.50    3.10
   2  -7   7    1.40    4.00
   5   6  -7   72.19   11.30
   4   6  -7    5.20    3.80
   3   6  -7   74.49   10.00
  -3  -6   7   81.09    9.40
   2   6  -7   -1.50    2.70
  -2  -6   7    5.80    2.80
   1   6  -7  117.79   12.90
  -1  -6   7  101.99   12.10
   0   6  -7   10.20    3.80
  -1   6  -7   87.89   10.50
   1  -6   7   62.69    9.80
   1  -6   7   60.79    9.80
  -2   6  -7   76.19   10.90
   2  -6   7   75.19   10.60
   2  -6   7   70.89   13.10
  -3   6  -7    2.30    2.70
   3  -6   7    2.80    4.00
   5   5  -7  212.18   22.40
  -5  -5   7  199.78   23.40
   4   5  -7  324.17   33.90
  -4  -5   7  398.46   36.80
   3   5  -7   62.29    8.30
   2   5  -7   88.29   10.30
  -2  -5   7   91.29   10.20
   1   5  -7   -0.50    1.80
  -1  -5   7    0.40    1.90
   0   5  -7   14.50    3.60
   0  -5   7    9.30    3.40
   0  -5   7    9.10    3.90
  -1   5  -7    8.60    3.80
  -1   5  -7    9.10    3.20
   1  -5   7   13.00    4.50
  -2   5  -7   -0.50    2.50
   2  -5   7    1.60    2.50
   2  -5   7    2.60    3.30
  -3   5  -7   -0.90    3.10
   3  -5   7    1.80    2.90
   3  -5   7    4.50    3.90
  -4   5  -7    9.90    4.80
   4  -5   7   13.80    5.20
   4  -5   7    3.50    5.90
   6   4  -7   -1.00    4.00
   6   4  -7    4.60    5.50
  -6  -4   7   -1.90    3.90
   5   4  -7  268.97   31.30
   5   4  -7  272.57   26.60
  -5  -4   7  247.98   27.80
   4   4  -7   63.49    8.10
  -4  -4   7   46.20    8.70
   3   4  -7  217.78   20.30
  -3  -4   7  182.78   21.30
  -2  -4   7    1.00    2.50
   1   4  -7   74.29    7.70
  -1  -4   7   43.70    6.80
  -1  -4   7   55.89    7.20
  -1  -4   7   66.39    8.80
   0   4  -7   96.79    9.90
   0  -4   7   86.89    9.50
   0  -4   7   74.29    9.90
  -1   4  -7   48.90    6.60
  -1   4  -7   42.50    6.80
  -2   4  -7   96.49   11.80
   2  -4   7  112.49   13.90
   2  -4   7   94.19   12.90
  -3   4  -7    6.50    2.80
   3  -4   7   12.20    5.40
   3  -4   7   12.60    5.10
  -4   4  -7    0.00    2.50
   4  -4   7    1.10    4.20
   4  -4   7   -6.50    3.10
  -5   4  -7   26.50    6.10
   5  -4   7   28.10    9.30
   5  -4   7   27.70    9.50
   6   3  -7   32.20   10.10
  -6  -3   7   48.60    9.40
   5   3  -7   20.50    8.00
  -5  -3   7   21.00    5.90
   4   3  -7  357.26   37.90
  -4  -3   7  354.66   35.20
   3   3  -7   26.20    4.20
  -3  -3   7   19.80    5.10
   2   3  -7   40.20    5.40
  -2  -3   7   50.39    6.80
   1   3  -7   98.29   11.40
   1   3  -7  125.09   12.50
  -1  -3   7  135.99   12.10
  -1  -3   7  122.79   13.10
  -1  -3   7  100.59   13.50
  -1  -3   7  112.19   11.50
   0   3  -7   69.59    8.40
   0   3  -7   74.89   11.00
   0  -3   7   83.59    8.40
   0  -3   7   84.19    9.20
  -1   3  -7  156.88   16.70
  -1   3  -7  155.38   16.30
  -1   3  -7  179.18   17.10
  -2   3  -7   89.89   10.60
  -2   3  -7  101.49   11.50
  -2   3  -7  101.79   10.80
   2  -3   7   88.59   11.50
   2  -3   7   81.29   11.70
  -3   3  -7    7.40    3.10
   3  -3   7    9.70    4.40
   3  -3   7    8.50    5.00
   4  -3   7   46.90   10.50
   4  -3   7   66.39   13.20
  -5   3  -7   27.00    5.40
   5  -3   7   21.70    7.30
   5  -3   7   29.80    8.90
   6   2  -7   23.40    8.50
  -6  -2   7    6.40    4.70
  -5  -2   7   68.19   10.00
   4   2  -7   47.00   10.80
  -4  -2   7   51.59    7.90
   3   2  -7    0.50    2.90
  -3  -2   7   -0.60    2.00
   2   2  -7  131.29   13.10
   2   2  -7  128.69   14.00
  -2  -2   7  139.29   15.90
  -2  -2   7  156.58   15.10
   1   2  -7   21.70    4.10
   1   2  -7   25.60    3.30
  -1  -2   7   23.50    4.90
  -1  -2   7   32.60    4.60
   0   2  -7    1.00    1.00
   0   2  -7    1.10    1.10
   0  -2   7    1.00    1.50
   0  -2   7    1.80    1.20
   0  -2   7    0.00    1.20
  -1   2  -7  469.05   45.70
  -1   2  -7  574.94   46.70
  -1   2  -7  502.35   46.00
   1  -2   7  464.25   46.60
  -2   2  -7   42.90    5.80
  -2   2  -7   35.70    5.70
  -2   2  -7   48.20    6.50
   2  -2   7   29.20    7.90
   2  -2   7   36.20    6.10
   2  -2   7   35.70    6.20
  -3   2  -7    9.60    2.90
   3  -2   7   11.00    4.40
   3  -2   7   12.60    5.20
  -4   2  -7   29.30    4.50
   4  -2   7   23.90    7.70
   4  -2   7   24.80    7.10
  -5   2  -7    0.40    1.60
   5  -2   7   -0.70    4.10
   5  -2   7    9.50    5.30
   6  -2   7   44.60   12.40
   6  -2   7   57.69   13.00
   6   1  -7   95.89   16.00
  -6  -1   7   92.19   12.70
   5   1  -7    1.00    5.20
  -5  -1   7    2.30    2.60
   4   1  -7  210.88   22.40
  -4  -1   7  161.58   18.90
   3   1  -7    2.30    2.80
  -3  -1   7   -0.60    1.30
  -2  -1   7  265.97   21.90
  -2  -1   7  172.08   23.20
   1   1  -7  658.23   56.69
   1   1  -7  644.94   57.69
  -1  -1   7  542.65   58.49
  -1  -1   7  698.83   58.09
   0   1  -7  815.22   77.49
   0   1  -7  887.71   77.09
   0  -1   7  945.11   77.89
   0  -1   7  958.90   77.99
   0  -1   7  733.13   76.89
  -1   1  -7   18.40    3.20
  -1   1  -7   18.80    3.60
  -1   1  -7   13.20    2.50
   1  -1   7   16.40    2.70
   1  -1   7   18.70    4.10
  -2   1  -7  104.59   10.70
  -2   1  -7  126.69   12.20
  -2   1  -7   88.19   10.80
   2  -1   7  117.09   10.90
   2  -1   7   98.99   12.20
   2  -1   7   86.19   11.70
   3  -1   7   73.19   10.80
   3  -1   7   57.79    9.90
   3  -1   7   93.49    9.30
  -4   1  -7   81.39    7.50
   4  -1   7   48.60   10.40
   4  -1   7   59.99   11.10
  -5   1  -7    1.90    1.60
   5  -1   7    4.50    3.90
   5  -1   7    0.00    3.50
  -6   1  -7   17.80    3.70
   6  -1   7   14.80    8.50
   6  -1   7   33.60   10.10
   6   0  -7   -3.40    4.90
  -6   0   7   -0.40    3.80
   5   0  -7   90.09   14.50
  -5   0   7   86.99   11.40
   4   0  -7   19.90    6.10
   4   0  -7   16.00    5.40
  -4   0   7   14.80    4.20
   3   0  -7  400.46   38.20
   3   0  -7  473.05   41.90
  -3   0   7  422.36   39.40
  -3   0   7  390.56   41.30
   2   0  -7   69.09    8.80
   2   0  -7   86.29    7.90
  -2   0   7   95.89    9.30
  -2   0   7   67.49    9.80
   1   0  -7  422.26   37.40
  -1   0   7  449.46   37.50
  -1   0   7  348.47   38.00
   0   0  -7   17.90    2.60
   0   0   7   15.90    2.90
  -1   0  -7  475.65   39.90
  -1   0  -7  435.16   38.70
   1   0   7  403.56   38.90
   1   0   7  427.26   39.80
   1   0   7  416.36   38.80
  -2   0  -7  467.15   40.50
   2   0   7  366.16   39.20
   2   0   7  420.06   40.60
   2   0   7  479.45   41.60
  -3   0  -7  241.88   22.40
   3   0   7  248.98   24.00
   3   0   7  193.98   20.80
   3   0   7  184.38   22.30
   4   0   7   28.20    8.10
   4   0   7   17.10    6.00
   5   0   7   -0.20    3.50
   5   0   7    5.90    4.70
   6   0   7    4.20    4.90
   6   0   7   26.40    8.50
   6  -1  -7    9.20    5.80
  -6   1   7    7.30    3.80
   5  -1  -7   15.40    6.00
  -5   1   7    8.20    3.90
   4  -1  -7  233.88   25.00
   4  -1  -7  205.18   21.40
  -4   1   7  239.88   22.90
   3  -1  -7  113.79   13.70
   3  -1  -7  102.09   10.40
  -3   1   7  120.09   11.80
  -3   1   7   80.99   12.30
   2  -1  -7 1065.09   95.39
  -2   1   7 1082.39   97.49
  -2   1   7 1059.09   96.29
   1  -1  -7   24.90    3.60
  -1   1   7   27.30    4.30
  -1   1   7   15.20    3.10
   0  -1  -7 3292.47  283.57
   0   1   7 3106.09  283.27
  -1  -1  -7 3004.10  291.37
   1   1   7 3453.35  291.37
   1   1   7 3427.36  292.27
  -2  -1  -7 2340.07  198.28
   2   1   7 2104.19  198.48
  -3  -1  -7   46.70    6.90
   3   1   7   55.19    8.70
   3   1   7   44.90    7.50
   4   1   7   58.39   11.60
   4   1   7   80.29   12.00
   5   1   7   95.59   13.80
   5   1   7   87.69   15.10
   6   1   7    3.00    5.50
   6   1   7   -3.00    3.50
   6  -2  -7   11.70    6.60
  -6   2   7   20.50    5.80
   5  -2  -7   24.10    8.20
  -5   2   7   10.20    3.70
   4  -2  -7   78.89   10.80
   4  -2  -7   57.09    7.70
  -4   2   7   58.79    8.50
   3  -2  -7  168.18   17.40
  -3   2   7  205.58   19.00
   2  -2  -7  496.65   43.70
   2  -2  -7  483.75   45.20
  -2   2   7  469.05   43.90
  -2   2   7  458.65   45.40
  -2   2   7  514.45   45.10
   1  -2  -7  388.36   33.60
  -1   2   7  387.56   34.70
  -1   2   7  363.16   33.60
  -1   2   7  350.66   34.70
   0   2   7  186.98   18.00
   0   2   7  189.88   17.30
   1   2   7  794.02   72.69
   1   2   7  829.32   71.59
   1   2   7  762.32   71.09
  -2  -2  -7  202.28   17.70
   2   2   7  171.18   17.90
   2   2   7  160.58   18.90
  -3  -2  -7 4379.96  367.56
  -3  -2  -7 4225.08  365.56
   3   2   7 3578.54  365.76
   3   2   7 4279.47  368.26
   4   2   7  107.19   14.50
   4   2   7   82.99   12.00
   5   2   7  354.66   37.80
   5   2   7  318.77   34.80
   6   2   7   -0.60    5.70
   6   2   7   -1.40    5.20
   5  -3  -7   -1.40    4.50
  -5   3   7    4.90    3.30
  -4   3   7  186.88   19.20
  -4   3   7  168.68   20.00
   3  -3  -7  282.87   25.40
  -3   3   7  267.57   27.20
  -3   3   7  241.68   25.60
  -3   3   7  275.57   26.70
   2  -3  -7  119.79   11.50
  -2   3   7  118.09   12.70
  -2   3   7   96.79   13.20
  -2   3   7  127.99   11.90
  -2   3   7  103.29   12.40
   1  -3  -7  229.68   20.10
  -1   3   7  202.08   20.50
  -1   3   7  209.08   20.00
  -1   3   7  216.38   21.20
   0   3   7 1198.18  107.69
   0   3   7 1220.18  108.49
   1   3   7   16.60    3.00
   1   3   7   16.40    2.60
   1   3   7   10.00    3.20
  -2  -3  -7  329.87   27.20
   2   3   7  279.47   29.20
   2   3   7  257.37   27.30
  -3  -3  -7   67.39    8.10
  -3  -3  -7   68.79    9.80
   3   3   7   79.09   11.10
   3   3   7   62.89    8.50
   3   3   7   67.19    6.70
  -4  -3  -7  242.58   23.50
   4   3   7  197.48   23.70
   4   3   7  256.67   27.10
   5   3   7    4.70    3.50
   5   3   7    2.60    3.90
   6   3   7    0.50    4.50
   6   3   7    5.90    5.30
  -5   4   7    3.90    3.10
  -4   4   7  185.28   20.10
  -4   4   7  180.98   20.50
  -3   4   7   21.90    4.70
  -3   4   7   28.50    6.10
  -3   4   7   22.00    5.30
   2  -4  -7  231.08   21.30
  -2   4   7  222.18   22.60
  -2   4   7  186.08   24.10
  -2   4   7  248.58   22.40
  -2   4   7  206.68   22.40
   1  -4  -7  317.17   29.50
  -1   4   7  334.07   29.30
  -1   4   7  295.57   29.50
  -1   4   7  316.17   30.60
  -1   4   7  321.17   31.20
   0  -4  -7  296.57   27.10
   0   4   7  286.17   27.20
   0   4   7  289.27   27.10
   1   4   7  762.72   69.79
   1   4   7  739.33   68.69
   1   4   7  781.32   68.39
   2   4   7   22.00    3.70
   2   4   7   25.50    5.90
  -3  -4  -7  434.56   42.00
  -3  -4  -7  463.45   39.20
   3   4   7  394.76   38.70
   3   4   7  378.16   39.80
   3   4   7  463.65   43.10
   4   4   7  237.78   22.10
   4   4   7  173.58   19.00
   4   4   7  240.48   25.20
   5   4   7    0.20    2.90
   5   4   7   -3.40    2.80
   6   4   7    3.60    5.90
   6   4   7    4.60    4.70
  -4   5   7   29.80    6.50
  -4   5   7   48.00    8.90
  -4   5   7   37.70    6.20
  -3   5   7  316.17   37.10
  -3   5   7  421.16   36.20
  -2   5   7    5.20    2.50
  -2   5   7    6.30    3.20
   1  -5  -7  541.85   47.50
  -1   5   7  513.75   47.50
  -1   5   7  505.55   48.80
  -1   5   7  491.25   48.50
   0  -5  -7  204.78   20.00
   0   5   7  196.68   20.40
   0   5   7  212.08   20.10
   1   5   7   81.29    9.40
   1   5   7   85.19    9.80
   1   5   7   85.29    8.50
   2   5   7  203.08   20.80
   2   5   7  176.38   18.70
   2   5   7  189.78   18.00
  -3  -5  -7  190.58   20.40
   3   5   7  193.28   21.30
   3   5   7  165.88   17.70
   3   5   7  173.58   17.70
  -4  -5  -7   96.99   10.40
   4   5   7   97.09   14.00
   4   5   7   95.59   10.10
   4   5   7   90.49   11.20
  -5  -5  -7   11.00    6.20
   5   5   7    3.40    5.00
   5   5   7    9.80    2.50
   5   5   7    7.50    4.00
   6   5   7   75.89   12.30
   6   5   7   70.19   16.10
  -4   6   7   22.20    5.70
  -3   6   7    4.30    3.10
  -3   6   7   12.20    4.00
  -2   6   7   20.40    6.00
  -2   6   7   11.10    4.20
  -1   6   7   56.89    7.80
  -1   6   7   55.49    9.10
   0   6   7  732.53   66.29
   0   6   7  711.73   66.09
   1   6   7   82.39    9.50
   1   6   7  103.39    9.20
   1   6   7   95.69   10.30
   1   6   7   90.09   10.70
   2   6   7  755.42   70.69
   2   6   7  788.32   72.09
   3   6   7   40.30    7.00
   3   6   7   30.50    7.80
   3   6   7   27.60    6.60
   4   6   7  462.55   44.50
   4   6   7  449.46   40.70
   4   6   7  367.26   39.00
   5   6   7   87.99   16.30
   5   6   7   45.20    7.00
   6   6   7   17.20    8.30
  -3   7   7   91.09   11.70
  -3   7   7   59.69   12.00
  -2   7   7   -3.10    2.00
  -1   7   7  121.09   14.80
  -1   7   7  134.69   14.80
   0   7   7   13.50    3.20
   0   7   7   -0.20    2.60
   1   7   7   24.50    5.60
   2   7   7  103.59   13.10
   2   7   7  123.09   13.30
   3   7   7   70.29   11.70
   3   7   7  105.99   15.30
   4   7   7   85.89   13.40
   4   7   7   70.69   10.40
   5   7   7   79.09   10.90
   5   7   7   51.29   12.60
  -2   8   7   29.60    7.60
  -2   8   7   24.70    7.80
  -1   8   7   44.80    9.10
   0   8   7  159.38   17.80
   1   8   7    5.00    3.80
   2   8   7   37.50    6.80
   2   8   7   33.10    6.00
   3   8   7   32.90    6.80
   3   8   7   44.70    8.90
   4   8   7   14.90    6.60
   4   8   7   13.20    5.20
   0   9   7   -0.70    4.00
   1   9   7    3.40    3.00
   2   9   7  130.39   15.70
  -1  -8   8   38.70    7.50
   3   7  -8   38.90    7.80
  -3  -7   8   32.00    6.10
   2   7  -8   24.00    5.30
  -2  -7   8   17.50    4.80
   1   7  -8  467.15   45.00
   0   7  -8   -6.10    3.00
   0  -7   8    4.40    3.40
  -1   7  -8    9.60    5.10
   1  -7   8   11.50    4.90
  -2   7  -8    5.70    4.60
   2  -7   8    4.50    3.90
   2  -7   8   11.10    5.90
   4   6  -8   -0.90    4.90
   3   6  -8    2.20    3.30
  -3  -6   8    4.90    3.10
   2   6  -8   45.20    7.20
  -2  -6   8   39.90    6.60
   1   6  -8   21.10    5.70
  -1  -6   8   28.50    6.80
   0   6  -8   85.39   10.70
   0  -6   8   69.19    9.90
  -1   6  -8    4.70    3.50
   1  -6   8    6.10    3.50
  -2   6  -8   -4.50    2.20
   2  -6   8    2.40    3.70
   2  -6   8   -3.60    2.50
  -3   6  -8    6.70    4.10
   3  -6   8   19.20    6.70
   3  -6   8   17.20    6.50
   5   5  -8  370.96   36.30
  -5  -5   8  347.97   37.20
   4   5  -8    4.30    3.60
  -4  -5   8    9.00    5.40
   3   5  -8   30.20    5.50
  -3  -5   8   28.10    6.20
   2   5  -8   18.40    4.10
  -2  -5   8   35.90    6.10
   1   5  -8   99.79   11.80
  -1  -5   8  111.69   12.10
   0   5  -8    1.40    2.70
   0  -5   8    3.70    2.90
  -1   5  -8   84.99   10.80
   1  -5   8   87.59   11.60
  -2   5  -8   83.29   10.80
   2  -5   8   73.79   11.30
   2  -5   8   77.29   11.00
  -3   5  -8   13.70    5.30
   3  -5   8   11.90    4.70
   3  -5   8    3.60    4.60
  -4   5  -8   -0.10    4.10
   4  -5   8   -1.70    4.30
   4  -5   8    3.10    5.10
   5   4  -8   46.40    7.70
  -5  -4   8   44.60    9.40
   4   4  -8    9.60    3.40
  -4  -4   8   15.30    5.50
   3   4  -8   16.80    4.20
  -3  -4   8   23.10    6.10
   2   4  -8   99.19   12.00
  -2  -4   8  119.49   11.80
  -2  -4   8   94.59   12.60
   1   4  -8  160.28   18.10
  -1  -4   8  133.39   14.60
  -1  -4   8  156.78   15.40
   0   4  -8  111.59   11.70
   0  -4   8   99.69   12.00
  -1   4  -8   45.50    7.60
  -1   4  -8   48.40    6.60
   1  -4   8   31.10    6.90
  -2   4  -8   26.50    5.50
   2  -4   8   25.40    6.30
   2  -4   8   47.00    9.10
  -3   4  -8  481.45   45.80
   3  -4   8  471.05   47.70
  -4   4  -8    5.50    3.30
   4  -4   8   -2.90    3.50
   4  -4   8   10.00    5.40
  -5   4  -8   39.80    7.30
   5  -4   8   45.50   11.80
   6   3  -8    2.70    5.50
  -6  -3   8    2.00    4.50
   5   3  -8   68.89   15.20
  -5  -3   8   96.39   12.30
   4   3  -8  518.75   48.80
  -4  -3   8  540.85   50.69
   3   3  -8   39.10    5.20
  -3  -3   8   24.30    5.60
   2   3  -8   11.10    2.70
  -2  -3   8   14.50    4.20
   1   3  -8  452.45   44.80
   1   3  -8  501.35   46.00
  -1  -3   8  510.35   46.40
  -1  -3   8  429.06   46.70
  -1  -3   8  564.84   45.70
  -1  -3   8  502.75   44.80
   0   3  -8  111.19   12.00
   0  -3   8  101.99   11.10
   0  -3   8  113.69   12.00
  -1   3  -8  598.44   54.99
  -2   3  -8  145.69   13.50
   2  -3   8   90.49   13.70
  -3   3  -8  148.19   16.90
  -3   3  -8  163.38   16.50
   3  -3   8  174.88   18.90
   3  -3   8  131.59   18.20
   4  -3   8   27.10    7.60
   4  -3   8   28.20    7.90
  -5   3  -8   16.60    4.10
   5  -3   8   22.60    7.80
   5  -3   8   16.10    6.70
   6   2  -8    0.50    5.00
  -6  -2   8   -5.60    3.60
   5   2  -8    0.30    4.80
  -5  -2   8    0.50    5.80
  -4  -2   8   38.60    7.80
   3   2  -8   28.40    4.30
  -3  -2   8   16.50    4.90
   2   2  -8  342.67   31.10
   2   2  -8  288.17   31.90
  -2  -2   8  363.76   34.50
  -2  -2   8  378.26   33.00
   1   2  -8   54.99    6.00
  -1  -2   8   63.09    7.30
  -1  -2   8   52.09    8.40
   0   2  -8  824.92   85.69
   0   2  -8 1025.60   85.29
   0  -2   8 1030.70   86.29
   0  -2   8  852.01   84.99
   0  -2   8 1041.30   86.29
  -1   2  -8    0.20    1.20
  -1   2  -8   -1.80    1.70
  -1   2  -8    0.30    1.30
   1  -2   8    1.10    1.80
   1  -2   8    1.80    1.50
  -2   2  -8   15.30    4.20
  -2   2  -8   23.40    4.10
   2  -2   8   20.10    4.10
   2  -2   8   21.50    5.40
  -3   2  -8   30.30    6.40
  -3   2  -8   50.49    6.30
   3  -2   8   49.60   10.50
   3  -2   8   53.89    8.30
  -4   2  -8  162.98   17.30
   4  -2   8  206.58   22.20
   4  -2   8  175.78   21.50
  -5   2  -8   25.60    4.30
   5  -2   8   21.80    8.20
   5  -2   8   20.80    7.60
  -6   2  -8   44.50    6.60
   6  -2   8   43.80   11.10
   6  -2   8   67.99   14.90
   6   1  -8   -2.50    4.90
  -6  -1   8   -1.60    4.00
   5   1  -8    3.50    7.80
  -5  -1   8    2.80    3.50
   4   1  -8  140.99   18.30
   4   1  -8  139.29   14.50
  -3  -1   8   12.90    3.50
   2   1  -8   20.70    4.10
   2   1  -8   23.70    2.90
  -2  -1   8   22.90    4.50
  -2  -1   8   21.40    5.20
   1   1  -8 1458.95  130.49
   0   1  -8   36.70    4.50
   0   1  -8   28.50    3.80
   0  -1   8   36.40    4.70
   0  -1   8   36.90    3.90
   0  -1   8   40.90    5.00
  -1   1  -8  998.30   78.89
  -1   1  -8  829.92   77.69
  -1   1  -8  929.41   77.69
   1  -1   8  784.62   77.39
   1  -1   8  797.92   78.59
  -2   1  -8  128.39   13.70
  -2   1  -8  118.79   11.90
   2  -1   8  148.39   16.60
   2  -1   8  119.49   12.40
   2  -1   8  114.09   14.10
  -3   1  -8  219.28   19.60
   3  -1   8  186.28   22.20
  -4   1  -8   29.70    3.60
   4  -1   8   23.40    6.70
   4  -1   8   25.20    6.60
  -5   1  -8    5.50    1.70
   5  -1   8   -0.80    6.30
   5  -1   8    6.50    4.60
   6  -1   8   36.50   10.60
   6  -1   8   47.20   11.50
   6   0  -8   14.70    7.40
  -6   0   8    3.30    4.10
   5   0  -8    1.80    4.90
  -5   0   8   -0.60    3.10
   4   0  -8   12.00    5.10
   4   0  -8   16.10    3.30
  -4   0   8   14.60    4.30
   3   0  -8   89.79    9.50
  -3   0   8   99.19   10.80
  -2   0   8  362.76   36.30
  -2   0   8  369.56   35.80
   1   0  -8   -1.40    0.80
  -1   0   8    0.60    1.00
   0   0  -8 3957.30  359.46
   0   0   8 3982.70  359.56
   0   0   8 4240.28  359.86
   1   0   8   81.39    9.60
   1   0   8   93.09    8.80
   1   0   8   87.99    8.80
  -2   0  -8  553.04   46.30
  -2   0  -8  538.15   44.10
   2   0   8  455.55   45.00
   2   0   8  464.95   46.30
   2   0   8  445.86   46.80
  -3   0  -8    1.40    2.70
   3   0   8    2.80    1.90
   3   0   8   -2.00    1.80
   3   0   8    0.70    1.90
   4   0   8  377.46   40.00
   4   0   8  415.16   41.60
   5   0   8    6.30    4.70
   5   0   8    3.80    4.90
   6   0   8   38.70   11.70
   6   0   8   39.00   10.50
   6  -1  -8   -9.40    4.60
  -6   1   8   -0.70    3.40
   5  -1  -8    2.90    4.70
  -5   1   8    2.00    3.50
   4  -1  -8   18.00    6.00
   4  -1  -8   16.80    3.80
  -4   1   8    9.30    3.30
   3  -1  -8   91.29    9.10
  -3   1   8   97.89   12.30
  -3   1   8   74.39   10.00
   2  -1  -8   28.20    5.20
   2  -1  -8   33.80    3.60
  -2   1   8   36.30    5.20
  -2   1   8   27.60    5.70
   1  -1  -8  673.23   64.09
  -1   1   8  737.63   63.99
   0  -1  -8 2223.08  183.28
   0   1   8 1898.91  182.88
  -1  -1  -8 2190.68  178.98
   1   1   8 2020.50  179.78
   1   1   8 1844.52  178.78
   2   1   8  245.88   24.00
   2   1   8  214.78   22.60
   3   1   8  864.91   70.69
   3   1   8  631.24   66.69
   4   1   8   60.69   10.00
   4   1   8   72.29   11.90
   5   1   8  346.67   35.00
   5   1   8  251.67   31.10
   6   1   8   31.10   11.00
   6   1   8   22.70    7.40
   5  -2  -8   -2.30    4.20
  -5   2   8    0.40    2.80
   4  -2  -8   54.19    7.60
  -4   2   8   78.09    9.20
   3  -2  -8   -2.40    1.30
  -3   2   8   -2.30    1.10
  -3   2   8    4.40    2.90
   2  -2  -8   37.50    6.30
   2  -2  -8   54.89    5.50
  -2   2   8   51.49    6.50
  -2   2   8   49.00    7.00
  -2   2   8   47.70    5.50
   1  -2  -8    5.80    1.30
   1  -2  -8    1.50    1.40
  -1   2   8    5.70    2.40
  -1   2   8    5.40    1.30
  -1   2   8    2.90    1.50
   0   2   8  491.55   46.20
   0   2   8  522.05   45.50
   1   2   8   -0.50    1.10
   1   2   8    1.50    0.90
  -2  -2  -8  687.23   56.59
   2   2   8  556.64   56.59
   2   2   8  608.84   58.29
   3   2   8  140.79   15.60
   4   2   8   49.99   11.10
   4   2   8   50.09    8.30
   5   2   8    2.80    4.10
   5   2   8    5.60    5.70
   6   2   8   72.29   16.70
   6   2   8   82.79   13.20
  -5   3   8    8.60    3.70
  -4   3   8   27.70    6.30
   3  -3  -8   17.90    4.20
  -3   3   8   29.40    5.00
  -3   3   8   12.90    4.30
  -3   3   8   35.10    6.70
   2  -3  -8   25.00    3.70
  -2   3   8   20.70    4.60
  -2   3   8   25.00    4.20
  -2   3   8   31.00    5.90
   1  -3  -8  177.18   16.80
  -1   3   8  184.08   17.70
  -1   3   8  174.58   16.80
   0   3   8  421.96   37.80
   0   3   8  392.96   36.80
   1   3   8   99.89    9.60
   1   3   8   79.99   10.50
   1   3   8   96.49    9.40
   1   3   8   89.09    9.50
   2   3   8   15.00    3.50
   2   3   8    8.90    3.80
  -3  -3  -8   86.69   11.60
  -3  -3  -8   87.79    9.70
   3   3   8   96.99   12.70
   3   3   8   73.39   10.20
  -4  -3  -8  105.69   11.40
   4   3   8   90.59   12.10
   4   3   8   75.39   13.20
   5   3   8  134.89   19.00
   5   3   8  113.99   15.50
   6   3   8   45.50   10.20
   6   3   8   50.09   13.20
  -5   4   8   48.90    9.00
  -4   4   8   24.00    5.90
  -4   4   8   23.40    5.60
  -3   4   8   12.20    3.50
  -3   4   8   12.50    3.70
  -3   4   8    4.00    2.80
   2  -4  -8   78.69    8.50
  -2   4   8   64.29    8.60
  -2   4   8   64.59    8.40
  -2   4   8   86.79    9.80
   1  -4  -8    0.80    1.40
  -1   4   8   -1.80    1.00
  -1   4   8   -0.40    2.00
  -1   4   8    1.20    1.60
   0   4   8  269.67   27.40
   0   4   8  274.87   25.60
   0   4   8  275.27   26.10
   1   4   8  489.45   46.30
   1   4   8  536.95   46.20
   1   4   8  493.85   47.60
   2   4   8  833.62   74.09
   2   4   8  753.22   71.49
  -3  -4  -8  315.07   30.50
  -3  -4  -8  301.47   26.80
   3   4   8  245.38   27.30
   3   4   8  294.57   30.50
   3   4   8  266.87   26.10
  -4  -4  -8  102.39   12.10
   4   4   8  123.59   11.20
   4   4   8   91.89   15.10
   5   4   8    3.90    3.30
   5   4   8   -2.60    3.80
   6   4   8   -4.10    4.60
   6   4   8   -6.90    3.70
  -4   5   8    7.80    5.40
  -4   5   8    9.00    4.40
  -4   5   8    3.20    3.60
  -3   5   8   31.20    5.50
  -3   5   8   46.10    8.10
  -2   5   8    3.60    2.50
  -2   5   8    2.00    2.50
   1  -5  -8  150.28   15.60
  -1   5   8  181.78   16.10
  -1   5   8  136.59   16.80
  -1   5   8  144.79   16.60
   0   5   8  206.68   20.10
   0   5   8  216.88   20.60
   1   5   8   54.59    6.90
   1   5   8   53.19    6.10
   1   5   8   54.79    7.30
   2   5   8  952.80   79.49
   2   5   8  845.32   76.99
   2   5   8  764.32   76.29
   3   5   8  938.01   93.89
   3   5   8 1032.80   93.69
   3   5   8 1173.58   98.09
  -4  -5  -8   -1.20    2.10
   4   5   8    6.60    3.00
   4   5   8    0.20    1.60
   4   5   8    1.60    4.00
   5   5   8   88.69    9.40
   5   5   8  132.29   28.20
   6   5   8    5.70    5.10
   6   5   8    0.30    6.20
  -3   6   8   40.50    7.10
  -3   6   8   34.90    7.60
  -2   6   8   27.70    6.20
  -1   6   8    6.10    3.20
  -1   6   8    5.80    3.70
  -1   6   8   20.20    4.80
   0   6   8    9.20    2.80
   0   6   8   14.30    3.90
   1   6   8  122.09   13.40
   1   6   8  129.99   13.00
   1   6   8  131.09   12.40
   1   6   8  118.99   13.50
   2   6   8   65.09    9.50
   2   6   8   64.89    8.40
   2   6   8   64.49    6.90
   3   6   8  240.38   23.50
   3   6   8  266.87   25.20
   3   6   8  238.78   27.30
   3   6   8  260.97   24.90
   4   6   8  106.69   11.20
   4   6   8  120.69   14.30
   4   6   8   79.69   10.70
  -5  -6  -8   29.10    5.90
   5   6   8   39.70   11.00
   5   6   8   38.50    5.70
   5   6   8   34.20    7.80
  -3   7   8   -2.90    2.90
  -3   7   8    9.60    3.90
  -2   7   8   24.00    6.50
  -1   7   8   81.89   11.70
  -1   7   8  101.99   12.60
   0   7   8   23.20    4.80
   0   7   8   25.60    5.70
   1   7   8   35.40    6.50
   2   7   8   36.50    6.90
   2   7   8   23.60    5.80
   3   7   8    0.20    3.60
   4   7   8   64.19    8.90
   4   7   8   37.50    9.80
   5   7   8  116.79   14.90
   5   7   8  124.89   18.70
  -1   8   8   30.80    7.20
  -1   8   8   39.00    7.30
   0   8   8   18.30    5.00
   0   8   8   27.90    4.60
   1   8   8   14.50    4.50
   2   8   8    5.40    3.30
   2   8   8    3.30    3.40
   3   8   8   27.00    7.20
   3   8   8   30.10    6.80
   4   8   8    7.50    5.20
   4   8   8    2.30    3.10
   1   9   8  235.48   24.90
   2   9   8  129.69   15.80
   3   7  -9    4.20    4.30
  -3  -7   9    9.20    4.10
   2   7  -9   77.09   11.50
  -2  -7   9   87.69   10.90
   1   7  -9   63.39    9.40
  -1  -7   9   46.50    7.90
   0   7  -9   29.20    6.00
   0  -7   9   17.80    5.60
  -1   7  -9   -3.00    3.10
   1  -7   9   -1.60    4.20
   4   6  -9  -11.30    7.30
  -4  -6   9   -2.80    3.50
   3   6  -9   14.80    4.70
  -3  -6   9   15.50    4.80
   2   6  -9    8.30    3.80
  -2  -6   9   19.30    4.50
   1   6  -9   21.10    5.10
  -1  -6   9   26.60    5.60
   0   6  -9    6.30    3.60
   0  -6   9   11.30    4.30
   1  -6   9    7.60    3.80
  -2   6  -9   12.20    5.10
   2  -6   9    5.40    3.90
   2  -6   9   -0.60    3.80
  -3   6  -9    6.20    5.60
   3  -6   9    4.40    4.60
   3  -6   9    4.40    4.00
   5   5  -9   -2.20    4.30
  -5  -5   9    3.10    4.60
   4   5  -9   -4.40    3.00
  -4  -5   9   -3.20    4.00
   3   5  -9    1.80    3.30
  -3  -5   9    9.10    4.70
  -3  -5   9    1.70    2.90
   2   5  -9    5.90    3.00
  -2  -5   9    7.00    3.20
   1   5  -9   46.20    7.10
  -1  -5   9   51.49    7.50
   0   5  -9  180.38   17.80
   0  -5   9  154.48   18.00
  -1   5  -9  189.18   17.80
   1  -5   9  132.79   17.70
  -2   5  -9   57.39    8.70
   2  -5   9   58.89   10.60
   2  -5   9   47.50    8.70
  -3   5  -9    0.60    2.50
   3  -5   9    3.80    3.60
  -4   5  -9    9.60    5.10
   4  -5   9    0.50    5.20
   4  -5   9    8.00    5.30
   5   4  -9   28.40    5.90
  -5  -4   9   22.40    6.50
   4   4  -9   10.30    3.80
  -4  -4   9    9.90    4.60
   3   4  -9   43.90    6.10
  -3  -4   9   28.10    6.20
   2   4  -9   21.70    4.90
  -2  -4   9   36.70    5.50
  -2  -4   9   28.60    6.70
   1   4  -9    7.50    3.40
  -1  -4   9    3.10    2.30
  -1  -4   9    5.10    3.20
   0   4  -9   32.30    5.80
   0  -4   9   34.80    5.40
   0  -4   9   28.00    6.20
  -1   4  -9   38.60    6.30
   1  -4   9   43.30    8.30
  -2   4  -9   98.49   11.80
   2  -4   9   94.99   13.10
  -3   4  -9   -0.40    3.10
   3  -4   9    8.60    4.20
   3  -4   9    4.40    3.40
  -4   4  -9    3.90    3.80
   4  -4   9    1.10    4.20
   4  -4   9    0.10    4.50
   5   3  -9   19.30    4.60
  -5  -3   9   11.60    5.10
   4   3  -9   52.49    7.00
  -4  -3   9   35.60    7.80
   3   3  -9  370.16   31.70
  -3  -3   9  291.77   33.10
   2   3  -9   -1.50    1.40
  -2  -3   9   -0.80    1.60
   1   3  -9  104.49   10.00
  -1  -3   9   75.49   10.70
  -1  -3   9  113.79   10.90
  -1  -3   9   82.49    9.60
   0   3  -9   15.30    3.20
   0   3  -9    9.00    2.90
   0  -3   9   21.40    5.20
   0  -3   9   14.10    3.10
  -1   3  -9   43.50    6.60
  -1   3  -9   54.99   10.30
   1  -3   9   28.90    7.00
   1  -3   9   46.10    5.90
  -2   3  -9    6.60    2.60
  -2   3  -9    2.00    2.00
   2  -3   9    3.50    2.60
  -3   3  -9   19.50    4.80
  -3   3  -9   20.80    5.80
   3  -3   9   21.90    6.50
   3  -3   9   29.10    7.80
  -4   3  -9   15.00    5.10
   4  -3   9   10.30    8.20
   4  -3   9    8.90    4.40
  -5   3  -9   -0.40    2.50
   5  -3   9   -6.10    4.00
   5  -3   9    1.60    5.30
  -6  -2   9   -5.20    3.50
  -5  -2   9   37.60    8.00
   3   2  -9  200.48   19.10
   2   2  -9  188.28   17.80
  -2  -2   9  192.88   19.60
   1   2  -9   61.69    6.70
   1   2  -9   71.29    7.80
  -1  -2   9   49.10    8.70
  -1  -2   9   87.99    9.40
   0   2  -9   46.10    5.60
   0   2  -9   47.10    6.00
   0  -2   9   43.70    6.40
   0  -2   9   49.00    6.50
   0  -2   9   57.99    5.70
  -1   2  -9   15.00    4.00
  -1   2  -9    9.40    2.70
  -1   2  -9   15.20    3.10
   1  -2   9   15.10    3.00
  -2   2  -9   36.10    5.60
  -2   2  -9   42.30    5.30
   2  -2   9   31.50    7.30
   2  -2   9   35.30    5.40
   3  -2   9  163.18   20.70
   3  -2   9  203.48   21.50
  -4   2  -9   80.39    8.90
   4  -2   9   63.09   11.70
   4  -2   9   70.89   12.00
  -5   2  -9   35.10    5.50
  -5   2  -9   50.69    7.00
   5  -2   9   38.60   11.10
   5  -2   9   50.89   16.10
   6   1  -9   -2.70    5.40
  -6  -1   9    3.10    4.20
  -5  -1   9    7.90    4.10
   4   1  -9    0.00    2.10
  -4  -1   9   -0.10    2.20
  -3  -1   9  808.72   74.39
  -2  -1   9  271.77   26.50
   1   1  -9  438.36   42.40
  -1  -1   9  483.95   42.90
   0   1  -9   17.00    2.50
   0   1  -9   20.40    3.50
   0  -1   9   18.50    3.40
   0  -1   9   18.10    3.60
   0  -1   9   16.00    2.40
  -1   1  -9   49.40    5.70
  -1   1  -9   46.60    7.50
  -1   1  -9   47.20    5.40
   1  -1   9   40.80    5.30
   1  -1   9   45.10    5.50
   1  -1   9   46.40    6.50
  -2   1  -9   49.60    6.60
  -2   1  -9   42.10    4.80
   2  -1   9   41.10    5.30
   2  -1   9   27.20    6.40
  -3   1  -9  187.18   18.00
   3  -1   9  186.48   21.50
   3  -1   9  201.08   21.50
  -4   1  -9   22.80    3.10
   4  -1   9   30.00    8.30
   4  -1   9   25.30    7.80
   5  -1   9   -1.90    3.50
   5  -1   9   -3.50    3.70
   6  -1   9   70.99   16.40
  -6   0   9    1.10    4.10
  -5   0   9   66.39    9.90
   4   0  -9   87.19    9.80
  -4   0   9  100.29   11.60
   3   0  -9  559.34   51.29
  -3   0   9  582.54   53.09
   2   0  -9   14.20    3.90
  -2   0   9   22.90    6.00
  -2   0   9   20.50    4.20
   1   0  -9  433.86   43.10
  -1   0   9  506.75   43.40
   0   0  -9  108.19   10.90
   0   0   9  100.69   10.90
   0   0   9  115.69   11.40
  -1   0  -9    2.40    1.10
   1   0   9    2.00    1.00
   1   0   9    1.60    2.00
   1   0   9    1.20    1.20
  -2   0  -9  613.64   51.59
   2   0   9  563.14   56.09
   2   0   9  536.75   52.39
   2   0   9  593.94   56.29
   3   0   9  217.18   24.60
   3   0   9  251.87   23.00
   3   0   9  228.08   25.40
   4   0   9  118.59   15.80
   4   0   9  125.69   17.10
   5   0   9   53.69   12.40
   5   0   9   39.80   11.10
   6   0   9   20.10    7.30
   6   0   9    8.60    5.70
  -5   1   9   49.00    9.00
   4  -1  -9   11.50    3.00
  -4   1   9    8.60    3.10
   3  -1  -9  110.79   10.40
  -3   1   9  103.69   11.90
  -3   1   9   82.29   14.40
   2  -1  -9  207.48   22.20
  -2   1   9  250.97   25.20
  -2   1   9  221.08   22.00
   1  -1  -9    2.10    1.50
  -1   1   9    0.90    1.30
   0  -1  -9  406.16   35.40
   0   1   9  360.26   35.00
  -1  -1  -9   24.00    3.20
   1   1   9   21.60    4.10
   1   1   9   23.60    3.00
  -2  -1  -9   34.30    5.20
   2   1   9   29.30    6.00
   2   1   9   29.70    6.70
  -3  -1  -9   75.59    9.50
   3   1   9   76.69    8.70
   3   1   9   69.09    9.90
   3   1   9   66.79   10.70
   4   1   9   29.10    7.30
   4   1   9   35.10    9.30
   5   1   9   59.39   14.60
   5   1   9   74.79   14.40
   6   1   9   10.70    7.30
   6   1   9   22.00    7.40
  -5   2   9   22.30    5.90
   4  -2  -9   -3.00    2.40
  -4   2   9    3.70    2.80
   3  -2  -9  226.28   21.80
  -3   2   9  234.48   23.50
  -3   2   9  241.38   25.00
   2  -2  -9    8.30    1.90
  -2   2   9   11.70    3.80
  -2   2   9    9.70    3.00
  -1   2   9  189.18   18.60
   0   2   9   16.00    2.10
   0   2   9   16.40    3.20
   1   2   9  544.75   47.60
   1   2   9  495.15   46.80
  -2  -2  -9  114.09   11.00
   2   2   9   91.19    9.10
   2   2   9  106.79   12.40
   2   2   9   87.59   10.80
  -3  -2  -9   64.99    7.80
   3   2   9   39.80    9.10
   3   2   9   50.79    8.70
   4   2   9    6.40    4.50
   4   2   9   27.60    7.00
   5   2   9   57.09   11.90
   5   2   9   43.80    9.90
   6   2   9    6.60    6.00
   6   2   9    7.70    5.10
  -5   3   9    4.70    2.90
  -4   3   9   54.49   11.10
   3  -3  -9   37.20    5.20
  -3   3   9   32.90    6.60
   2  -3  -9  258.27   24.80
  -2   3   9  270.17   25.00
  -2   3   9  289.17   26.80
  -2   3   9  249.88   26.10
   1  -3  -9   85.89    8.80
  -1   3   9   84.39    9.90
  -1   3   9   91.59    8.90
  -1   3   9   91.19   10.10
   0   3   9  209.68   19.30
   0   3   9  202.58   20.20
   1   3   9 2080.39  188.98
   1   3   9 2158.38  189.08
   1   3   9 2143.79  190.58
   1   3   9 2113.79  188.58
   2   3   9   61.09    6.10
   2   3   9   51.59    7.10
   2   3   9   55.29    8.50
   3   3   9    8.00    3.20
   3   3   9    4.70    3.30
   4   3   9    9.30    4.10
   4   3   9   11.50    5.60
   5   3   9   26.70    6.50
   5   3   9   25.50    8.60
   6   3   9    9.00    8.60
   6   3   9    3.80    5.60
  -4   4   9    5.00    3.40
  -4   4   9    4.00    4.00
  -3   4   9   96.09   11.70
  -3   4   9   94.89   10.60
  -3   4   9   80.89   11.30
  -2   4   9    6.30    3.00
  -2   4   9    6.30    3.10
  -2   4   9    4.50    2.50
   1  -4  -9  624.04   52.39
  -1   4   9  571.84   52.29
  -1   4   9  495.35   52.49
  -1   4   9  626.34   53.99
   0   4   9   -0.80    1.20
   0   4   9    1.00    1.40
   0   4   9    1.70    1.30
   1   4   9 1835.92  164.68
   1   4   9 1979.20  163.18
   1   4   9 1724.33  163.48
   1   4   9 1779.12  162.98
   2   4   9 1399.86  126.49
   2   4   9 1368.46  124.09
  -3  -4  -9    1.50    1.90
   3   4   9    3.80    2.50
   3   4   9    2.90    1.50
   3   4   9    6.20    4.10
  -4  -4  -9  535.65   46.60
   4   4   9  516.65   47.80
   4   4   9  419.86   49.90
   5   4   9   64.59   14.80
   5   4   9   47.40    9.90
   6   4   9   24.40    8.50
   6   4   9   35.30    9.20
  -4   5   9    5.80    3.40
  -4   5   9    2.30    3.90
  -3   5   9   27.80    5.70
  -3   5   9   20.20    4.40
  -3   5   9   18.90    5.20
  -2   5   9  198.78   19.50
  -2   5   9  194.28   18.80
  -2   5   9  185.78   20.70
   1  -5  -9    3.40    2.20
  -1   5   9    1.10    1.40
  -1   5   9    3.50    2.40
  -1   5   9   -1.60    2.50
  -1   5   9    0.20    1.10
   0   5   9  322.47   30.40
   0   5   9  319.37   29.30
   0   5   9  290.47   29.30
   1   5   9  377.06   38.70
   1   5   9  437.86   37.50
   1   5   9  400.66   37.80
   2   5   9 1463.75  126.69
   2   5   9 1424.26  126.39
   2   5   9 1339.57  128.79
   3   5   9  472.25   44.90
   3   5   9  418.26   40.50
   3   5   9  435.86   41.40
   4   5   9   63.09    7.60
   4   5   9   81.99    9.70
   5   5   9   94.89   18.70
   5   5   9   83.69   11.70
   6   5   9    4.20    4.80
   6   5   9   -3.60    5.50
  -3   6   9   82.19   11.80
  -3   6   9   80.99   10.80
  -2   6   9    7.60    3.50
  -2   6   9   14.20    4.00
  -1   6   9   98.49   12.70
  -1   6   9   97.89   12.40
  -1   6   9   98.09   11.30
   0   6   9   13.40    3.70
   0   6   9   21.10    4.50
   1   6   9  144.59   16.40
   1   6   9  173.58   15.60
   1   6   9  156.78   16.60
   2   6   9   23.90    6.40
   2   6   9   30.10    4.10
   2   6   9   36.20    5.50
   3   6   9   52.49    7.60
   3   6   9   59.29    7.10
   3   6   9   81.89   11.30
   3   6   9   55.79    8.10
   4   6   9  171.38   21.50
   4   6   9  145.59   16.50
   4   6   9  184.58   17.60
  -5  -6  -9  545.55   46.20
   5   6   9  449.26   44.90
   5   6   9  491.65   47.40
  -2   7   9  381.66   40.10
  -2   7   9  428.26   41.00
  -1   7   9    5.00    3.80
  -1   7   9    0.50    2.90
   0   7   9   50.09    7.80
   0   7   9   47.50    7.40
   1   7   9   12.20    3.90
   1   7   9   17.40    2.90
   1   7   9   12.30    3.70
   2   7   9  108.69   12.80
   2   7   9  112.49   13.70
   3   7   9   -1.70    3.10
   4   7   9   70.69   14.20
   4   7   9   63.99    9.30
   5   7   9    4.30    5.80
   5   7   9   13.70    4.70
  -1   8   9  138.09   18.50
  -1   8   9  164.68   17.70
   0   8   9   -6.00    2.80
   1   8   9  185.48   19.90
   2   8   9   -5.30    2.70
   2   8   9   -3.10    3.00
   3   8   9  229.28   26.10
   3   8   9  288.97   28.20
   4   8   9   16.10    4.90
   4   8   9   29.10    8.70
   1   9   9    6.90    4.10
   2   7 -10   -6.30    3.60
  -2  -7  10   -4.10    3.40
   1   7 -10   90.89   12.20
  -1  -7  10   78.39   11.80
   0   7 -10   26.90    6.10
   0  -7  10   20.60    6.10
  -1   7 -10    6.60    4.10
   1  -7  10   10.00    5.00
   4   6 -10   -3.50    6.70
  -4  -6  10   -2.10    3.60
   3   6 -10   12.40    4.50
  -3  -6  10   13.40    4.70
   2   6 -10   -3.80    2.80
  -2  -6  10   -3.00    2.90
   1   6 -10   10.10    3.70
  -1  -6  10    3.50    4.10
   0   6 -10  188.38   19.80
   0  -6  10  177.78   20.10
  -1   6 -10    4.00    3.60
   1  -6  10   -0.70    3.50
  -2   6 -10    6.10    3.70
   2  -6  10   13.30    5.00
   2  -6  10   18.50    6.60
  -3   6 -10   -1.30    3.20
   4   5 -10   36.60    6.70
  -4  -5  10   25.70    6.60
   3   5 -10    4.30    2.70
  -3  -5  10    0.40    3.00
  -3  -5  10   -1.10    3.10
   2   5 -10   53.49    7.50
  -2  -5  10   53.89    7.90
   1   5 -10   71.99    9.60
  -1  -5  10   79.79   10.10
   0   5 -10  443.46   39.90
   0  -5  10  393.06   40.50
  -1   5 -10   11.40    4.50
   1  -5  10    3.90    3.50
  -2   5 -10    4.50    3.60
   2  -5  10    3.60    3.00
   2  -5  10    0.60    3.20
  -3   5 -10    3.10    3.70
   3  -5  10   -1.30    3.40
   3  -5  10   -0.40    3.90
  -4   5 -10    5.60    3.80
   4  -5  10    7.20    5.90
   5   4 -10   -7.10    3.40
  -5  -4  10    0.00    4.30
   4   4 -10   -2.00    2.60
  -4  -4  10    2.60    3.70
   3   4 -10   44.50    6.60
  -3  -4  10   42.40    8.70
   2   4 -10   40.50    6.80
  -2  -4  10   42.40    8.80
  -2  -4  10   48.70    6.90
   1   4 -10  140.79   13.40
  -1  -4  10  122.49   13.70
  -1  -4  10  110.79   12.80
   0   4 -10   11.80    3.40
   0  -4  10   10.00    3.90
   0  -4  10    8.60    3.60
  -1   4 -10   70.59    9.00
   1  -4  10   65.39   10.00
  -2   4 -10   94.39   11.00
   2  -4  10   71.39   11.50
  -3   4 -10    9.50    3.60
   3  -4  10   13.80    4.90
   3  -4  10    8.30    4.80
  -4   4 -10    2.60    4.30
   4  -4  10    5.30    5.40
   4  -4  10   10.00    6.00
   5   3 -10   -1.50    3.00
  -5  -3  10    2.90    3.80
   4   3 -10  253.47   24.60
   3   3 -10   59.19    6.80
  -3  -3  10   41.00    7.60
   2   3 -10  208.38   19.40
  -2  -3  10  190.68   21.20
   1   3 -10   25.10    4.20
  -1  -3  10   18.90    4.90
  -1  -3  10   30.40    5.30
   0   3 -10  688.53   63.69
   0  -3  10  735.93   63.49
   0  -3  10  680.03   64.69
  -1   3 -10  321.07   29.70
  -1   3 -10  287.27   29.10
   1  -3  10  266.57   30.10
   1  -3  10  343.77   29.00
  -2   3 -10    4.80    2.50
  -2   3 -10    7.10    3.40
   2  -3  10   12.10    5.60
  -3   3 -10   48.80    8.30
  -3   3 -10   59.79    8.10
   3  -3  10   55.09   11.20
   3  -3  10   63.29   10.20
  -4   3 -10   28.40    5.80
   4  -3  10   12.30    6.60
   4  -3  10   28.20    7.90
  -5   3 -10    9.70    3.20
   5  -3  10    2.80    5.10
   5  -3  10   11.90    6.40
  -5  -2  10   31.80    7.10
   4   2 -10   -3.60    2.00
  -4  -2  10   -3.00    2.50
   3   2 -10   55.49    6.70
  -3  -2  10   57.69    9.60
   2   2 -10   24.10    3.50
  -2  -2  10   27.30    5.20
   1   2 -10  196.38   22.40
   1   2 -10  231.98   21.50
  -1  -2  10  249.97   23.40
  -1  -2  10  252.87   22.80
   0   2 -10   -0.40    1.30
   0   2 -10    1.20    1.50
   0  -2  10    1.90    1.90
   0  -2  10   -1.20    1.70
   0  -2  10    3.00    1.50
  -1   2 -10  429.06   40.80
  -1   2 -10  435.96   40.60
   1  -2  10  456.25   42.10
   1  -2  10  442.46   40.40
  -2   2 -10   33.20    6.00
  -2   2 -10   30.60    5.10
   2  -2  10   30.80    7.40
   2  -2  10   33.60    5.30
  -3   2 -10    3.70    2.40
   3  -2  10    4.50    4.30
   3  -2  10    1.40    3.30
  -4   2 -10   37.50    5.60
   4  -2  10   34.30    9.30
   4  -2  10   21.40    7.30
  -5   2 -10    3.50    3.80
  -5   2 -10    4.50    2.30
   5  -2  10    0.10    4.60
   5  -2  10    5.50    5.40
  -5  -1  10   30.10    7.20
   4   1 -10  255.87   25.20
  -4  -1  10  284.67   27.50
  -3  -1  10  892.31   81.99
  -2  -1  10   34.20    6.20
   1   1 -10  285.87   27.10
  -1  -1  10  280.07   30.40
   0   1 -10  413.56   38.20
   0   1 -10  426.06   39.00
   0  -1  10  392.66   38.80
   0  -1  10  399.16   39.20
   0  -1  10  490.55   39.90
  -1   1 -10   14.20    2.80
  -1   1 -10   16.70    3.20
   1  -1  10   12.10    2.90
   1  -1  10   10.10    2.30
   1  -1  10   13.10    3.80
  -2   1 -10  573.44   49.90
   2  -1  10  524.25   52.09
  -3   1 -10  496.15   41.20
   3  -1  10  438.56   44.70
   3  -1  10  407.96   44.80
   4  -1  10    0.10    2.80
   4  -1  10    2.20    3.00
   5  -1  10    4.20    5.20
   5  -1  10   -1.50    4.90
   6  -1  10    4.50    6.70
   6  -1  10   -0.60    4.70
  -5   0  10    1.80    3.00
   4   0 -10  146.69   15.20
  -4   0  10  168.78   17.40
  -3   0  10   17.40    3.90
  -2   0  10   48.70    6.40
  -2   0  10   43.50    7.80
   1   0 -10   18.30    5.00
  -1   0  10   17.30    3.40
   0   0 -10  192.08   18.70
   0   0  10  194.48   19.20
   0   0  10  199.68   18.90
  -1   0 -10  356.16   31.20
   1   0  10  376.46   31.10
   1   0  10  317.57   31.20
   1   0  10  302.07   32.10
  -2   0 -10   32.10    3.90
  -2   0 -10   45.60    7.50
   2   0  10   33.30    7.00
   2   0  10   48.10    8.20
   2   0  10   33.50    4.90
   3   0  10   86.29   10.30
   3   0  10   64.89   10.90
   3   0  10   76.29   10.80
   4   0  10  243.58   27.60
   4   0  10  232.58   26.30
   5   0  10  101.09   16.60
   6   0  10   40.00   11.00
   6   0  10   51.69   11.50
  -5   1  10   81.29   11.30
   4  -1 -10    0.70    1.90
  -4   1  10    1.90    2.50
  -2   1  10   22.20    4.60
  -2   1  10   26.20    6.10
   1  -1 -10   34.20    5.20
  -1   1  10   28.70    4.50
   0  -1 -10   69.49    7.80
   0   1  10   70.89    7.70
  -1  -1 -10 1336.17  111.69
   1   1  10 1302.47  111.49
   1   1  10 1228.48  111.29
   1   1  10 1132.39  112.29
   2   1  10  353.66   32.40
   2   1  10  341.97   34.80
   3   1  10  240.58   24.20
   3   1  10  213.68   24.90
   4   1  10  192.88   22.00
   4   1  10  151.48   19.50
   5   1  10   47.40    9.70
   5   1  10   42.70   11.30
   6   1  10   12.70    6.10
   6   1  10    7.80    6.60
  -5   2  10    3.50    3.10
   4  -2 -10   66.49    8.20
  -4   2  10   70.99   10.10
   3  -2 -10    0.30    1.60
  -3   2  10    1.80    2.10
  -3   2  10    5.20    3.90
  -2   2  10    2.30    2.20
   1  -2 -10  677.83   58.19
  -1   2  10  579.74   58.29
   0   2  10   -0.60    1.00
   1   2  10  204.78   19.60
   1   2  10  215.88   20.50
   2   2  10  791.52   67.99
   2   2  10  739.63   65.79
   2   2  10  677.33   70.39
  -3  -2 -10   52.79    6.90
   3   2  10   30.50    6.80
   3   2  10   45.20   10.00
   4   2  10   33.90    9.30
   4   2  10   43.30    9.30
   5   2  10  129.19   16.80
   5   2  10  113.39   19.20
   6   2  10   23.60    9.00
   6   2  10   36.00    9.60
  -5   3  10    7.60    4.10
  -4   3  10    8.30    4.00
   3  -3 -10  253.57   23.20
  -3   3  10  231.98   25.70
   2  -3 -10   -0.50    1.50
  -2   3  10    0.80    1.60
  -2   3  10   -0.10    2.10
  -2   3  10    2.40    2.10
  -1   3  10  332.57   30.30
  -1   3  10  325.67   30.10
  -1   3  10  289.57   28.50
   0   3  10 1342.07  114.89
   0   3  10 1219.38  113.69
   1   3  10  285.87   28.50
   1   3  10  279.87   26.70
   1   3  10  287.57   27.00
   1   3  10  287.57   26.40
   2   3  10  236.48   23.90
   2   3  10  250.57   22.60
   3   3  10  113.49   13.70
   3   3  10  113.59   15.20
   4   3  10  157.78   20.00
   4   3  10  144.39   17.40
   5   3  10    1.60    3.80
   6   3  10   -3.00    3.70
   6   3  10    6.30    5.00
  -4   4  10    5.50    3.30
   3  -4 -10    0.20    2.60
  -3   4  10   -2.70    1.80
  -3   4  10    2.10    2.90
  -3   4  10   -0.80    2.10
   2  -4 -10   29.40    4.80
  -2   4  10   35.30    5.40
  -2   4  10   29.10    5.90
  -2   4  10   32.60    6.70
   1  -4 -10   69.89    8.60
  -1   4  10   93.19    8.90
  -1   4  10   82.09   10.00
  -1   4  10   77.89    9.40
   0   4  10  265.07   25.50
   0   4  10  285.97   26.80
   1   4  10  793.02   67.99
   1   4  10  742.83   69.59
   1   4  10  730.63   68.19
   1   4  10  730.53   67.69
   2   4  10   90.69    9.90
   2   4  10  103.39   14.30
   2   4  10   91.19   10.50
   3   4  10  139.49   13.60
   3   4  10  159.68   18.50
   3   4  10  130.59   15.30
   4   4  10   50.69    9.40
   4   4  10   49.99   12.00
   5   4  10   68.79   15.30
   5   4  10  101.19   13.10
   6   4  10    1.50    6.00
   6   4  10   19.90    7.20
  -4   5  10    0.00    2.70
  -3   5  10   25.80    5.60
  -3   5  10   24.20    6.40
  -3   5  10   20.20    5.00
  -2   5  10   12.20    4.30
  -2   5  10   20.70    4.20
  -2   5  10   25.40    4.90
   1  -5 -10  115.39   13.20
  -1   5  10  136.19   15.50
  -1   5  10  118.79   14.30
  -1   5  10  137.49   13.50
   0   5  10   17.20    4.80
   0   5  10   14.80    3.70
   0   5  10   16.80    4.30
   1   5  10  242.08   24.60
   1   5  10  254.97   23.20
   1   5  10  228.68   23.80
   1   5  10  237.88   23.30
   2   5  10  321.57   30.60
   2   5  10  313.97   30.50
   2   5  10  333.57   33.50
   3   5  10  217.68   23.50
   3   5  10  180.58   19.90
   4   5  10  125.69   16.60
   4   5  10   95.29   12.60
   4   5  10   95.79   10.20
   5   5  10   54.59   11.90
   5   5  10   45.80    9.00
   6   5  10  116.69   20.30
   6   5  10  132.79   17.40
  -3   6  10   34.80    8.80
  -3   6  10   66.29    8.70
  -2   6  10   44.90    7.20
  -1   6  10   12.80    3.50
  -1   6  10    7.90    4.10
   0   6  10   58.89    9.50
   0   6  10   34.10    6.90
   0   6  10   43.50    6.30
   0   6  10   41.80    5.00
   1   6  10   11.60    3.90
   1   6  10   10.30    3.00
   1   6  10    8.10    2.90
   2   6  10   26.40    4.70
   2   6  10   27.90    5.70
   2   6  10   28.50    7.10
   3   6  10   59.19    7.10
   3   6  10   45.40    9.90
   3   6  10   40.70    7.10
   4   6  10  550.74   52.29
   4   6  10  508.15   54.99
   4   6  10  566.74   51.19
   5   6  10    3.70    5.70
   5   6  10    1.40    3.70
   5   6  10    4.90    3.30
  -2   7  10    7.20    4.20
  -1   7  10   65.69    9.30
  -1   7  10   68.59   12.00
   0   7  10    5.70    4.00
   0   7  10    3.50    3.00
   0   7  10   14.60    4.60
   1   7  10  296.17   30.10
   1   7  10  306.77   30.00
   1   7  10  302.37   30.80
   1   7  10  361.26   29.70
   2   7  10   -4.50    2.20
   2   7  10    0.30    2.70
   3   7  10    3.20    4.30
   3   7  10    1.10    3.90
   4   7  10    4.70    5.80
   4   7  10    0.10    1.80
   4   7  10    1.00    2.70
   5   7  10  101.09   12.60
   5   7  10   71.69   15.30
  -1   8  10    3.20    3.90
  -1   8  10    0.50    3.30
   0   8  10   67.49   10.50
   0   8  10   79.99   13.20
   1   8  10    8.40    4.00
   2   8  10  217.18   22.20
   2   8  10  212.88   22.60
   3   8  10  119.39   14.90
   3   8  10   92.89   12.70
   4   8  10   47.10    8.80
   4   8  10   43.30   10.90
   2   7 -11    3.80    4.10
  -2  -7  11   -2.00    3.90
   1   7 -11   13.30    5.40
  -1  -7  11    9.40    5.20
   0   7 -11   -1.20    4.30
   0  -7  11    6.00    4.40
   3   6 -11   -0.50    3.70
  -3  -6  11    2.70    4.20
  -2  -6  11   30.60    6.50
   1   6 -11   18.20    5.60
  -1  -6  11   24.30    6.10
   0   6 -11  108.59   13.40
  -1   6 -11   -0.10    3.30
   1  -6  11    2.70    4.10
  -2   6 -11    8.90    4.50
   2  -6  11    4.50    3.90
   2  -6  11   15.80    6.30
   4   5 -11    4.10    3.90
  -4  -5  11   -5.20    3.70
   3   5 -11   49.50    7.90
  -3  -5  11   61.49   11.50
  -3  -5  11   61.79    8.90
   2   5 -11    6.00    3.40
  -2  -5  11    7.10    3.80
   1   5 -11  187.48   21.40
  -1  -5  11  248.88   22.90
   0   5 -11  189.08   19.90
   0  -5  11  195.38   21.00
  -1   5 -11   60.69    9.40
   1  -5  11   78.29   11.30
   2  -5  11    5.30    4.60
  -3   5 -11   -3.40    2.90
   3  -5  11    0.50    4.20
   3  -5  11   -2.10    3.50
   5   4 -11   -4.50    3.30
  -5  -4  11   -8.90    3.30
   4   4 -11   61.09    8.30
  -4  -4  11   60.89   11.40
   3   4 -11    3.90    2.90
  -3  -4  11    4.00    4.50
   2   4 -11  129.09   14.20
  -2  -4  11  148.89   15.20
  -2  -4  11  129.79   16.10
   1   4 -11   28.40    5.00
  -1  -4  11   21.90    5.40
   0   4 -11  278.97   27.00
   0  -4  11  278.17   28.20
  -1   4 -11  226.98   20.80
   1  -4  11  170.68   21.50
  -2   4 -11  220.88   22.20
   2  -4  11  199.78   23.50
  -3   4 -11   -1.40    4.80
   3  -4  11   -4.90    4.10
   3  -4  11   -1.70    3.50
   4  -4  11   25.80   12.50
   4  -4  11   37.60   10.30
   5   3 -11    4.10    3.60
  -5  -3  11    3.90    4.30
   4   3 -11   -3.90    2.60
  -4  -3  11    1.50    3.20
   3   3 -11   45.00    6.20
  -3  -3  11   49.10    9.00
   2   3 -11    0.50    1.70
  -2  -3  11    5.90    3.40
   1   3 -11   60.79    7.60
  -1  -3  11   82.69    9.10
  -1  -3  11   61.19    9.00
   0   3 -11  161.58   15.90
   0  -3  11  128.59   16.60
   0  -3  11  179.88   15.80
  -1   3 -11  188.48   18.00
  -1   3 -11  170.18   19.10
   1  -3  11  174.18   17.50
   1  -3  11  165.08   19.10
  -2   3 -11    1.20    2.40
  -2   3 -11   -0.80    2.80
   2  -3  11   -3.20    2.70
  -3   3 -11    6.60    3.70
  -3   3 -11   -3.70    3.30
   3  -3  11   -2.50    3.60
   3  -3  11    1.70    3.40
  -4   3 -11    1.60    4.50
   4  -3  11    5.20    4.70
   4  -3  11    8.90    5.50
  -5   3 -11   17.50    4.50
   5  -3  11   13.20    7.70
   5  -3  11   20.80    7.80
   5   2 -11    6.30    3.40
  -5  -2  11    3.60    3.70
   4   2 -11   58.39    7.20
   3   2 -11   41.10    5.10
  -3  -2  11   34.50    7.10
   2   2 -11  105.99    9.80
  -2  -2  11   80.29   11.40
   1   2 -11    3.70    1.60
  -1  -2  11    4.40    2.20
  -1  -2  11    6.40    2.90
   0   2 -11   81.89    9.00
   0   2 -11   70.79    8.10
   0  -2  11   77.79    9.40
   0  -2  11   76.89    9.40
  -1   2 -11   -2.70    1.80
  -1   2 -11   -0.30    1.60
   1  -2  11    2.30    1.80
   1  -2  11    1.00    2.30
  -2   2 -11  122.79   12.90
  -2   2 -11  119.79   13.60
   2  -2  11  133.09   13.50
  -3   2 -11    4.50    2.50
   3  -2  11    1.10    2.80
   3  -2  11    7.40    3.60
  -4   2 -11    2.00    2.90
   4  -2  11   11.80    6.70
   4  -2  11    4.40    3.70
  -5   2 -11   -1.00    3.70
   5  -2  11    6.50    5.60
   5  -2  11   -1.40    4.50
   5   1 -11   -3.50    3.80
  -5  -1  11   -0.80    3.60
   4   1 -11   78.69    8.70
  -4  -1  11   74.09   10.50
  -3  -1  11    2.30    2.30
  -2  -1  11    6.20    2.60
   1   1 -11   15.00    3.10
  -1  -1  11    9.00    3.10
   0   1 -11   83.49    9.00
   0   1 -11   76.79    8.10
   0  -1  11   81.29    9.20
   0  -1  11   84.09    8.90
   0  -1  11   76.99    9.30
  -1   1 -11  197.68   18.80
   1  -1  11  183.78   19.00
   1  -1  11  201.18   18.60
   1  -1  11  199.38   20.20
  -2   1 -11   52.09    5.70
   2  -1  11   33.70    7.70
   2  -1  11   50.49    6.80
  -3   1 -11   -1.20    1.40
   3  -1  11    4.20    3.40
   3  -1  11    2.10    2.60
   4  -1  11    2.50    3.70
   4  -1  11   -0.70    3.40
   5  -1  11   11.00    6.00
   5  -1  11   12.00    6.40
   5   0 -11    5.00    3.80
  -5   0  11    6.90    3.70
   4   0 -11   57.89    6.80
  -3   0  11    2.90    2.70
  -2   0  11   20.50    4.20
   1   0 -11  228.98   21.20
  -1   0  11  198.88   21.00
   0   0 -11  198.68   19.90
   0   0  11  214.68   20.10
  -1   0 -11  224.18   19.40
   1   0  11  204.18   19.40
   1   0  11  190.48   20.30
   1   0  11  192.48   18.90
  -2   0 -11   17.20    2.80
   2   0  11   16.30    3.40
   2   0  11   13.60    4.30
   3   0  11  153.18   18.40
   3   0  11  165.08   19.20
   4   0  11  315.27   37.70
   4   0  11  407.96   37.90
   5   0  11    8.70    5.90
   5   0  11   10.80    6.20
   6   0  11   -2.30    6.30
   6   0  11   13.30    6.00
  -5   1  11   15.80    4.90
   4  -1 -11    0.20    1.90
  -4   1  11    1.80    2.80
  -3   1  11    2.20    2.10
  -2   1  11  422.26   41.40
   1  -1 -11   76.99    9.20
  -1   1  11   78.59    9.00
   0  -1 -11    2.20    1.40
   0   1  11    2.30    1.60
  -1  -1 -11  228.68   22.50
   1   1  11  242.38   22.40
   1   1  11  250.27   22.20
   1   1  11  229.48   24.90
  -2  -1 -11   27.40    5.70
   2   1  11   12.40    4.00
   2   1  11   16.90    5.00
   2   1  11   17.40    3.50
   2   1  11   18.20    2.40
   3   1  11   34.20    7.90
   3   1  11   35.50    7.70
   3   1  11   29.90    5.50
   4   1  11  178.68   22.00
   4   1  11  214.38   24.10
   5   1  11   43.30   10.50
   5   1  11   54.69   14.80
   6   1  11   -6.70    4.70
   6   1  11    0.40    5.60
  -5   2  11   12.20    5.30
   4  -2 -11   97.29   10.80
  -4   2  11   96.89   12.40
   3  -2 -11   39.90    5.30
  -3   2  11   53.69    7.30
  -2   2  11  570.34   57.19
  -2   2  11  642.44   56.39
   1  -2 -11   10.30    2.70
   0  -2 -11  352.36   33.60
   0   2  11  360.66   33.30
   1   2  11    0.80    1.70
   1   2  11   -0.20    1.00
   2   2  11   44.00    7.60
   2   2  11   40.00    6.50
   2   2  11   42.70    4.50
   3   2  11   10.10    4.00
   3   2  11    7.00    3.80
   4   2  11   33.80    8.70
   4   2  11   28.10    7.10
   5   2  11  207.28   26.30
   5   2  11  277.47   30.40
   6   2  11   14.80    6.30
   6   2  11    0.60    5.90
  -5   3  11   13.30    5.10
   4  -3 -11   10.40    3.40
  -4   3  11    5.70    3.20
   3  -3 -11    8.70    2.90
  -3   3  11    9.50    4.50
  -3   3  11    9.10    3.40
   2  -3 -11   97.39    9.30
  -2   3  11   85.59    9.20
  -2   3  11   84.19   10.60
  -1   3  11  569.64   52.79
  -1   3  11  573.14   53.19
  -1   3  11  566.64   51.19
   0   3  11   32.50    5.20
   0   3  11   39.00    4.40
   1   3  11   97.79   12.20
   1   3  11  101.49   10.10
   1   3  11  105.99   11.00
   1   3  11   93.39   10.30
   2   3  11    1.50    1.90
   2   3  11    0.20    2.10
   2   3  11   -0.30    1.00
  -3  -3 -11    5.50    2.60
   3   3  11    5.80    3.80
   3   3  11    5.40    3.20
   4   3  11   39.60    8.10
   4   3  11   15.50    6.30
   5   3  11    7.20    6.40
   5   3  11   23.30    6.60
   6   3  11   -9.10    4.80
   6   3  11   -0.90    3.70
  -4   4  11   15.50    4.40
   3  -4 -11    2.70    3.60
  -3   4  11    8.10    3.90
  -3   4  11    6.70    2.90
  -3   4  11    7.30    3.30
   2  -4 -11  221.68   20.30
  -2   4  11  216.58   20.40
  -2   4  11  190.58   21.60
  -2   4  11  214.68   22.00
  -1   4  11  367.16   36.60
  -1   4  11  400.16   37.20
  -1   4  11  395.96   35.60
   0   4  11   50.39    7.60
   0   4  11   70.79    7.20
   1   4  11 1095.49  100.09
   1   4  11 1129.49  100.79
   1   4  11 1111.89  102.39
   1   4  11 1133.79  100.59
   2   4  11    9.00    4.60
   2   4  11    7.20    2.90
   2   4  11    6.30    2.10
   3   4  11   14.20    4.50
   3   4  11   11.20    2.40
   3   4  11   21.70    7.60
   4   4  11  129.39   18.40
   4   4  11  132.89   15.80
   5   4  11    8.60    4.90
   5   4  11    9.20    5.60
   6   4  11    8.90    6.40
   6   4  11    3.70    4.90
  -4   5  11   -2.30    2.30
  -3   5  11   60.19    8.10
  -3   5  11   58.59    8.20
  -2   5  11    3.10    2.50
  -2   5  11   -2.10    1.90
  -2   5  11    2.20    2.50
  -1   5  11  122.09   13.60
  -1   5  11   96.39   12.10
  -1   5  11  139.19   13.60
   0   5  11   46.80    9.60
   0   5  11   48.20    7.20
   0   5  11   49.20    6.80
   1   5  11  340.17   34.50
   1   5  11  353.86   32.90
   1   5  11  352.36   33.60
   1   5  11  354.06   32.90
   2   5  11  508.35   47.50
   2   5  11  522.55   47.70
   2   5  11  512.35   47.70
   2   5  11  514.95   50.29
   3   5  11  149.29   14.60
   3   5  11  137.69   15.60
   3   5  11  147.79   18.60
   4   5  11   42.10    7.80
   4   5  11   38.70    4.40
   4   5  11   42.20    9.70
   4   5  11   24.10    4.10
   5   5  11   33.40    9.50
   5   5  11   31.60    7.50
   6   5  11    1.60    6.10
   6   5  11    0.80    4.70
  -3   6  11   14.60    4.40
  -3   6  11    9.70    4.80
  -2   6  11   94.39   11.20
  -2   6  11   86.09   12.20
  -1   6  11   99.09   11.10
  -1   6  11   86.49   11.80
   0   6  11   60.69    8.50
   0   6  11   54.99    7.00
   0   6  11   60.49    7.70
   1   6  11   21.40    4.70
   1   6  11   22.80    5.30
   1   6  11   25.40    5.30
   1   6  11   18.00    4.00
   2   6  11   23.50    4.60
   2   6  11   20.60    6.00
   2   6  11   16.30    3.90
   3   6  11   69.09   13.20
   3   6  11   68.49    9.00
   3   6  11   69.19    9.10
   4   6  11   15.30    3.60
   4   6  11   20.70    5.10
   4   6  11   14.10    6.40
   4   6  11   13.20    4.90
   5   6  11   31.40    7.10
   5   6  11   33.40   10.10
  -2   7  11   28.90    8.10
  -2   7  11   36.00    7.00
  -1   7  11  161.58   20.90
  -1   7  11  214.38   20.30
   0   7  11   16.30    4.80
   0   7  11   10.90    6.40
   0   7  11   17.20    4.60
   1   7  11  125.09   13.10
   1   7  11  130.29   15.20
   1   7  11  150.48   14.60
   1   7  11  109.99   13.40
   1   7  11  129.89   13.90
   2   7  11  154.58   16.60
   2   7  11  159.28   15.30
   2   7  11  136.39   19.00
   3   7  11   94.89   13.80
   3   7  11   99.09   10.50
   3   7  11   98.69   12.20
   4   7  11   11.50    3.60
   4   7  11   17.00    6.60
   4   7  11   14.90    4.60
  -1   8  11   37.10    7.20
  -1   8  11   41.50    9.00
   0   8  11   62.19    9.20
   0   8  11   67.59   11.80
   0   8  11   62.99   10.20
   1   8  11   74.89    7.90
   1   8  11   65.79    9.80
   1   8  11   69.09   10.20
   2   8  11   63.39    9.40
   2   8  11   58.49    9.30
   3   8  11    5.10    4.00
   3   8  11    1.50    3.10
   3   6 -12   20.50    5.40
  -3  -6  12   20.20    6.50
   2   6 -12   14.40    5.30
  -2  -6  12   17.70    5.50
   1   6 -12   25.30    6.00
  -1  -6  12   24.20    6.40
   0   6 -12    3.20    5.30
   0  -6  12    0.10    4.40
  -1   6 -12    0.90    3.90
   1  -6  12    7.90    4.60
  -2   6 -12   -7.60    3.50
   2  -6  12   -1.90    6.10
   2  -6  12    6.90    4.50
   4   5 -12    5.70    4.20
  -4  -5  12   -3.40    4.70
   3   5 -12   61.19    8.90
  -3  -5  12   76.09   11.20
  -3  -5  12   66.59   10.00
   2   5 -12    0.10    3.30
  -2  -5  12    4.10    4.20
   1   5 -12    2.10    2.90
  -1  -5  12   -2.60    2.50
   0   5 -12   10.40    4.30
   0  -5  12    6.50    4.30
  -1   5 -12  101.69   12.20
   1  -5  12   84.69   12.90
  -2   5 -12    5.50    3.60
  -3   5 -12   -3.90    3.30
   3  -5  12    6.70    4.80
   4   4 -12   24.70    5.40
  -4  -4  12   31.00    8.10
   3   4 -12   -1.60    2.70
  -3  -4  12   -1.00    3.20
   2   4 -12   -1.00    2.40
  -2  -4  12    7.90    3.70
  -2  -4  12   -0.80    2.70
   1   4 -12    1.30    2.50
  -1  -4  12    1.60    3.10
   0   4 -12   19.60    4.50
  -1   4 -12   49.80    7.80
   1  -4  12   53.19   10.50
  -2   4 -12    4.90    3.10
   2  -4  12    5.70    4.20
  -3   4 -12    0.40    3.60
   3  -4  12   13.80    5.90
   3  -4  12    0.90    4.10
   4  -4  12    5.60    5.70
   4  -4  12   17.00    7.40
   5   3 -12   -0.60    3.50
  -5  -3  12    3.30    4.80
  -4  -3  12   74.79   11.50
   3   3 -12   13.80    3.10
  -3  -3  12   13.90    5.40
   2   3 -12   13.70    3.10
  -2  -3  12   14.30    5.10
   1   3 -12    7.50    2.40
  -1  -3  12    5.50    2.80
  -1  -3  12   11.90    4.20
   0   3 -12  121.09   13.70
   0  -3  12  124.59   15.00
   0  -3  12  155.78   14.10
  -1   3 -12  257.77   25.80
   1  -3  12  241.78   27.10
   1  -3  12  290.27   25.80
  -2   3 -12    2.40    2.80
  -2   3 -12    4.30    4.10
   2  -3  12   10.20    5.30
  -3   3 -12   -2.10    4.00
  -3   3 -12    7.70    3.80
   3  -3  12    6.50    3.70
   3  -3  12    8.60    4.60
  -4   3 -12   -7.50    4.60
   4  -3  12   -4.90    3.10
   4  -3  12   -0.60    3.60
   5   2 -12   15.30    3.90
  -5  -2  12   19.30    6.30
   4   2 -12   -1.90    2.10
  -4  -2  12    4.30    4.00
  -3  -2  12   58.59    9.00
  -2  -2  12   -0.20    2.20
   1   2 -12  127.39   13.20
  -1  -2  12  168.48   15.30
  -1  -2  12  125.29   15.00
   0   2 -12    2.70    1.70
   0  -2  12    1.70    2.10
   0  -2  12    2.10    2.30
  -1   2 -12    1.60    1.90
  -1   2 -12   -0.50    2.10
   1  -2  12    5.70    3.50
   1  -2  12    6.70    2.30
  -2   2 -12  141.19   15.10
  -2   2 -12  163.78   16.10
   2  -2  12  139.49   17.50
  -3   2 -12   -2.60    2.20
   3  -2  12    0.70    2.90
   3  -2  12    0.30    2.70
  -4   2 -12   -0.60    2.40
   4  -2  12    1.50    3.40
   4  -2  12    7.60    4.50
   5  -2  12   12.20    7.60
   5  -2  12   12.30    5.40
  -5  -1  12    0.80    4.20
  -4  -1  12   34.70    6.80
  -3  -1  12    5.30    2.90
  -2  -1  12  176.98   18.70
  -1  -1  12   28.40    5.50
   0   1 -12  242.88   24.60
   0  -1  12  263.67   25.40
   0  -1  12  270.47   26.30
  -1   1 -12  372.46   32.90
   1  -1  12  297.57   32.90
   1  -1  12  385.86   34.60
   1  -1  12  360.66   32.50
  -2   1 -12 2115.09  175.38
   2  -1  12 2037.70  175.78
   2  -1  12 1746.33  177.58
  -3   1 -12  290.97   24.80
   3  -1  12  261.97   28.60
   3  -1  12  233.08   28.60
   4  -1  12   29.60   11.20
   4  -1  12   30.50    9.40
   5  -1  12    1.60    4.10
   5  -1  12   -1.60    3.40
  -5   0  12   -1.50    3.70
  -4   0  12   17.90    5.20
  -3   0  12    0.80    2.40
  -2   0  12    4.80    2.20
   1   0 -12  162.08   16.20
  -1   0  12  145.49   15.80
   0   0 -12   70.69    8.40
   0   0  12   72.39    8.60
   0   0  12   79.49    9.10
  -1   0 -12  231.38   20.30
   1   0  12  216.28   19.80
   1   0  12  203.78   20.30
   1   0  12  192.28   21.20
  -2   0 -12   20.50    3.00
   2   0  12   20.70    3.90
   2   0  12   17.90    4.60
   3   0  12  827.72   71.89
   3   0  12  687.43   71.99
   4   0  12  108.49   15.10
   4   0  12   74.89   13.00
   5   0  12   -2.90    3.90
   5   0  12    3.10    3.20
   6   0  12   12.40    8.10
   6   0  12    1.90    5.90
  -5   1  12    6.60    3.60
  -4   1  12   24.20    5.40
  -3   1  12   99.29   11.90
  -2   1  12  506.75   47.50
   1  -1 -12   94.69   11.20
  -1   1  12   86.99   10.10
   0  -1 -12  232.08   22.10
   0   1  12  233.38   22.30
   0   1  12  212.98   21.70
  -1  -1 -12  238.88   22.70
   1   1  12  228.08   23.60
   1   1  12  243.58   22.60
   1   1  12  245.18   22.20
   2   1  12  490.15   47.90
   2   1  12  445.96   44.10
   2   1  12  529.55   45.00
   2   1  12  500.75   46.60
   3   1  12   41.10    7.80
   3   1  12   49.40   10.40
   4   1  12   64.69   11.60
   4   1  12   39.80    9.70
   5   1  12    6.30    4.80
   5   1  12   -4.20    3.40
   6   1  12    5.30    5.80
   6   1  12   -0.50    4.20
  -5   2  12    0.90    3.70
   4  -2 -12    0.80    2.40
  -4   2  12    1.20    3.10
  -3   2  12  118.19   13.70
  -2   2  12   31.30    5.60
  -2   2  12   32.40    8.10
  -1   2  12  357.06   33.90
   0   2  12  149.39   15.10
   1   2  12   50.89    6.80
   1   2  12   50.19    5.90
   2   2  12   84.39   12.30
   2   2  12   99.49    9.30
   3   2  12    4.60    3.20
   3   2  12    8.60    4.00
   4   2  12   11.50    5.30
   4   2  12   19.40    6.40
   5   2  12   15.60    8.00
   5   2  12   19.00    6.90
   6   2  12    7.00    6.30
   6   2  12   26.10    9.30
   4  -3 -12   55.79    8.40
  -4   3  12   59.29    9.00
   3  -3 -12   21.20    3.60
  -3   3  12    9.70    3.20
  -2   3  12  819.52   77.79
  -2   3  12  855.01   77.09
  -1   3  12  783.72   71.79
   0   3  12  847.22   80.29
   0   3  12  964.70   81.89
   1   3  12   10.90    2.60
   1   3  12    9.60    3.20
   1   3  12    8.90    2.40
   2   3  12  473.85   50.39
   2   3  12  642.74   53.49
   2   3  12  533.35   48.90
   3   3  12   41.80    8.20
   3   3  12   37.60    8.60
   4   3  12   52.09   10.50
   4   3  12   54.89   12.00
   5   3  12   56.19   11.00
   5   3  12   48.80   12.50
   6   3  12   -5.40    4.40
   6   3  12   10.40    5.30
  -4   4  12   -1.40    2.20
   3  -4 -12   73.69    8.50
  -3   4  12   76.49   10.00
  -3   4  12   53.29    9.70
   2  -4 -12  167.68   15.70
  -2   4  12  161.18   15.70
  -2   4  12  153.48   17.40
  -2   4  12  149.09   17.70
  -1   4  12   -0.20    2.30
  -1   4  12   -0.90    1.60
   0   4  12  256.67   25.60
   0   4  12  305.37   27.20
   1   4  12 1155.98  100.19
   1   4  12 1166.88  101.19
   1   4  12 1117.29  100.99
   1   4  12 1025.20  102.39
   2   4  12   51.19    7.70
   2   4  12   53.59    9.30
   2   4  12   63.19    6.90
   3   4  12  492.65   47.60
   3   4  12  472.15   41.90
   3   4  12  430.56   44.20
   4   4  12    5.10    4.70
   4   4  12    3.60    3.50
   5   4  12   10.20    5.60
   5   4  12   17.90    7.60
   6   4  12   91.99   13.80
   6   4  12   65.49   15.20
  -3   5  12   29.90    5.70
  -3   5  12   36.60    6.60
  -3   5  12   30.70    7.30
   2  -5 -12  251.17   23.80
  -2   5  12  244.38   25.70
  -2   5  12  230.38   24.40
  -2   5  12  249.97   23.80
  -1   5  12  192.58   20.80
  -1   5  12  200.78   20.00
   0   5  12   37.70    6.40
   0   5  12   47.90    6.80
   1   5  12   71.99    9.90
   1   5  12   68.99    8.20
   1   5  12   71.59    8.80
   2   5  12  670.13   63.69
   2   5  12  731.43   66.99
   2   5  12  689.13   64.59
   2   5  12  709.63   64.99
   3   5  12   -0.50    1.60
   3   5  12   -1.20    2.10
   3   5  12   -3.90    2.90
   4   5  12  306.97   31.50
   4   5  12  313.07   35.40
   5   5  12    2.00    5.30
   5   5  12   -3.10    3.50
  -3   6  12   27.50    5.50
  -3   6  12   26.20    6.50
  -2   6  12   11.00    5.30
  -2   6  12   22.50    4.80
  -1   6  12    6.20    2.90
  -1   6  12   -8.20    3.80
   0   6  12   65.59    8.50
   0   6  12   74.89    9.90
   1   6  12  178.18   19.80
   1   6  12  179.28   18.60
   1   6  12  179.38   18.60
   1   6  12  207.18   19.90
   2   6  12   61.49    8.20
   2   6  12   67.29    8.50
   2   6  12   63.79   10.10
   2   6  12   62.09    8.10
   3   6  12  221.28   26.50
   3   6  12  224.68   23.30
   3   6  12  271.87   23.30
   3   6  12  214.98   23.30
   4   6  12   61.79    7.50
   4   6  12   67.79   13.90
   4   6  12   67.39    9.20
   4   6  12   48.30    7.10
   4   6  12   60.49    9.00
   5   6  12   44.00    8.30
   5   6  12   33.80   10.60
  -2   7  12   33.30    6.60
  -2   7  12   21.90    6.50
  -1   7  12  100.69   11.60
  -1   7  12   76.39   11.90
   0   7  12   49.99    7.80
   0   7  12   44.70    8.50
   0   7  12   39.10   11.10
   1   7  12    4.80    2.80
   1   7  12   11.80    3.50
   1   7  12   10.80    4.10
   1   7  12    9.80    3.70
   2   7  12  293.67   31.00
   2   7  12  336.87   30.50
   2   7  12  288.57   29.50
   2   7  12  292.27   28.60
   3   7  12   52.39   11.50
   3   7  12   53.59    7.40
   3   7  12   57.99    8.60
   4   7  12   91.49   11.50
   4   7  12   75.09   10.20
   4   7  12  101.19   15.50
   0   8  12   20.20    5.50
   0   8  12   15.10    4.60
   0   8  12   22.80    6.70
   1   8  12   63.49    7.40
   1   8  12   66.29    9.20
   1   8  12   35.90    8.50
   2   8  12   96.49   13.00
   2   8  12  119.29   13.40
   3   8  12  247.68   24.90
   3   8  12  229.48   26.40
   2   6 -13    4.40    4.10
  -2  -6  13    3.60    4.40
   1   6 -13   26.80    6.00
  -1  -6  13   31.40    7.40
   0   6 -13    3.60    4.40
   0  -6  13   -2.90    4.00
  -1   6 -13    7.50    5.40
   1  -6  13   10.90    4.70
   3   5 -13   22.50    5.30
  -3  -5  13   22.00    6.50
  -3  -5  13   23.50    6.30
   2   5 -13   21.50    5.20
  -2  -5  13   17.00    5.90
   1   5 -13   14.90    4.50
  -1  -5  13    7.40    4.20
   0   5 -13   -3.20    3.30
   0  -5  13   -1.80    3.70
  -1   5 -13   -1.70    3.20
   1  -5  13    0.40    4.40
  -2   5 -13   -3.10    3.60
   2  -5  13    6.10    5.20
  -3   5 -13    0.00    4.10
   3  -5  13    0.60    4.40
   4   4 -13   18.10    5.00
  -4  -4  13   16.00    6.30
   3   4 -13    6.70    3.60
  -3  -4  13    5.20    3.70
   2   4 -13   20.70    4.30
  -2  -4  13   16.40    5.30
  -2  -4  13   17.10    5.00
   1   4 -13    5.10    3.10
  -1  -4  13    2.60    3.80
   0   4 -13   -0.50    2.70
   0  -4  13    0.40    3.30
  -1   4 -13   -1.60    3.10
   1  -4  13    8.20    4.00
  -2   4 -13    3.20    3.00
   2  -4  13   -1.70    3.50
  -3   4 -13    2.40    3.20
   3  -4  13    3.00    4.20
   3  -4  13   -2.30    4.40
   4   3 -13   -5.60    2.70
  -4  -3  13   -6.40    3.50
   3   3 -13   88.09    9.60
   2   3 -13    2.60    2.20
  -2  -3  13    3.10    3.00
  -2  -3  13    4.90    4.00
   1   3 -13   26.20    4.40
  -1  -3  13   17.90    5.60
  -1  -3  13   36.80    6.50
   0   3 -13  136.89   14.00
   0  -3  13  128.69   15.40
  -1   3 -13   19.90    4.60
   1  -3  13   24.80    6.70
  -2   3 -13   -3.80    2.50
   2  -3  13    4.80    4.20
  -3   3 -13   24.90    8.30
   3  -3  13   28.70    8.40
   4  -3  13   -0.20    4.10
   4  -3  13    1.90    4.90
  -5  -2  13   -3.20    4.40
  -4  -2  13   19.10    6.10
  -3  -2  13   -4.60    2.70
  -2  -2  13   37.00    6.80
  -1  -2  13  124.89   14.60
  -1  -2  13  143.19   15.30
   0   2 -13  146.89   13.90
   0  -2  13  127.79   15.20
   0  -2  13  137.39   15.20
  -1   2 -13 1072.99   93.49
  -1   2 -13 1011.80   93.29
   1  -2  13 1196.38   95.59
   1  -2  13  882.01   92.89
  -2   2 -13   17.40    5.40
   2  -2  13   14.10    5.20
  -3   2 -13   67.79    8.60
   3  -2  13   78.59   12.10
   3  -2  13   69.09   11.50
   4  -2  13    4.50    4.50
   4  -2  13    6.10    4.60
   5  -2  13    9.30    7.10
   5  -2  13   31.40    9.30
   5   1 -13   -4.60    2.90
  -5  -1  13   -0.70    4.40
  -4  -1  13    5.10    3.90
  -3  -1  13    7.10    3.60
  -2  -1  13   17.60    5.00
  -1  -1  13   54.39    7.80
   0   1 -13  154.68   16.70
   0  -1  13  167.18   17.50
   0  -1  13  175.58   17.30
  -1   1 -13  787.72   71.49
   1  -1  13  851.21   73.19
   1  -1  13  731.23   71.59
  -2   1 -13  160.88   14.60
   2  -1  13  127.39   14.80
   2  -1  13  156.28   17.30
  -3   1 -13    0.40    1.80
   3  -1  13    6.10    4.70
   3  -1  13    2.80    3.40
   4  -1  13    0.90    3.20
   5  -1  13    1.90    4.80
   5  -1  13   -5.20    3.30
  -5   0  13   10.80    5.20
  -4   0  13   12.70    4.70
  -3   0  13    3.30    2.30
  -2   0  13   37.60    7.10
  -1   0  13   10.70    3.40
   0   0 -13   24.40    4.70
   0   0  13   35.80    5.60
  -1   0 -13   94.89   10.00
   1   0  13   86.49   11.20
   1   0  13  103.39   10.30
   1   0  13   92.49    9.60
  -2   0 -13  257.67   23.30
   2   0  13  245.78   24.10
   2   0  13  240.98   25.70
   3   0  13    4.90    3.90
   3   0  13    5.20    3.70
   4   0  13   42.90   11.00
   4   0  13   35.10    8.60
   5   0  13   23.90    7.10
   5   0  13   19.60    7.70
  -5   1  13   11.90    5.60
  -4   1  13   10.10    4.00
  -3   1  13  122.99   14.30
  -2   1  13    8.80    3.40
  -1   1  13   18.70    4.40
   0  -1 -13   24.20    4.80
   0   1  13   18.80    4.20
   0   1  13   25.90    4.70
  -1  -1 -13  203.68   18.80
   1   1  13  202.48   19.90
   1   1  13  197.48   18.60
   1   1  13  172.48   18.00
  -2  -1 -13  357.46   31.80
   2   1  13  331.87   34.00
   2   1  13  416.36   36.50
   2   1  13  332.47   32.30
   2   1  13  321.37   31.60
   3   1  13   30.40    7.50
   3   1  13   48.90    9.70
   4   1  13    1.70    3.70
   4   1  13   13.10    5.40
   5   1  13    3.80    5.10
   6   1  13   21.30    7.80
   6   1  13   24.20    9.80
  -4   2  13  117.59   14.60
  -3   2  13   -0.50    2.10
  -2   2  13  386.76   37.20
  -1   2  13   16.30    4.20
   0  -2 -13  206.38   20.70
   0   2  13  206.98   20.50
   1   2  13   11.40    2.40
   1   2  13    5.90    2.90
   2   2  13  153.68   13.90
   2   2  13  140.69   17.40
   2   2  13  135.39   15.90
   3   2  13    9.90    5.40
   3   2  13    7.60    3.90
   4   2  13   -1.40    3.00
   4   2  13    3.30    4.20
   5   2  13    8.00    5.00
   5   2  13   12.00    5.90
   6   2  13   30.40    9.40
   6   2  13   27.20   10.90
  -4   3  13    1.20    2.90
  -3   3  13   15.20    4.50
  -2   3  13  187.98   19.80
  -1   3  13   32.50    6.00
  -1   3  13   27.30    5.90
   0   3  13   16.70    3.70
   1   3  13  119.89   12.20
   1   3  13  125.09   12.70
   1   3  13  127.89   13.50
   2   3  13    3.00    1.50
   2   3  13   11.50    4.00
   2   3  13    2.80    3.10
   3   3  13   10.60    4.70
   3   3  13    9.30    3.90
   4   3  13  134.19   19.50
   4   3  13  155.88   18.00
   5   3  13    0.10    4.10
   5   3  13   12.30    5.00
   6   3  13   -4.90    3.70
   6   3  13    7.30    5.90
  -4   4  13   17.30    5.40
   3  -4 -13    0.80    4.00
  -3   4  13   -0.20    2.30
  -2   4  13    2.90    2.80
  -2   4  13    3.80    3.20
  -2   4  13   -0.80    1.70
  -1   4  13    7.30    2.30
  -1   4  13    4.50    3.70
  -1   4  13    5.70    3.30
   0   4  13  131.19   13.80
   0   4  13  123.89   12.50
   1   4  13   52.79    9.30
   1   4  13   68.39    8.30
   1   4  13   78.79    8.10
   1   4  13   75.29    8.90
   2   4  13  135.49   17.20
   2   4  13  153.28   14.10
   2   4  13  137.69   15.30
   2   4  13  131.79   14.30
   3   4  13    4.20    3.20
   3   4  13    0.50    3.10
   3   4  13    3.50    1.10
   4   4  13  176.28   23.10
   4   4  13  176.28   20.10
   5   4  13   71.99   16.50
   5   4  13   98.19   13.40
  -3   5  13   -2.20    2.50
  -3   5  13   -3.30    2.40
  -2   5  13    0.40    2.90
  -2   5  13    0.90    2.60
  -2   5  13    9.60    3.40
  -1   5  13  108.09   12.80
  -1   5  13  121.79   13.70
   0   5  13  313.17   30.10
   0   5  13  300.07   29.80
   0   5  13  291.07   28.60
   1   5  13   20.20    4.10
   1   5  13   15.70    5.30
   1   5  13   18.70    4.00
   1   5  13   20.10    4.50
   2   5  13    1.20    2.30
   2   5  13    1.70    1.80
   2   5  13   -0.90    3.10
   2   5  13    2.50    2.50
   3   5  13  114.49   12.60
   3   5  13  102.49   15.10
   3   5  13   92.49   10.50
   4   5  13   13.40    4.20
   4   5  13    1.90    4.80
   5   5  13   71.29   11.40
   5   5  13   61.69   15.40
  -2   6  13    3.50    3.60
  -2   6  13    0.80    3.10
  -1   6  13   60.89    8.50
  -1   6  13   87.99    9.40
  -1   6  13   66.69    8.30
  -1   6  13   77.99   10.40
   0   6  13  378.86   33.80
   0   6  13  366.86   35.40
   0   6  13  327.17   34.20
   1   6  13   25.70    5.80
   1   6  13   25.30    6.10
   1   6  13   27.50    5.20
   1   6  13   18.70    4.60
   2   6  13   92.19   12.00
   2   6  13   97.29   11.20
   2   6  13   88.29   10.80
   2   6  13   95.99   13.20
   3   6  13   27.60    5.20
   3   6  13   30.80    6.20
   3   6  13   27.20    7.80
   3   6  13   23.30    4.70
   4   6  13   49.99    8.70
   4   6  13   32.40   10.10
   4   6  13   55.39    6.30
   4   6  13   38.30    6.00
   4   6  13   53.49    8.10
   5   6  13   29.20    6.80
   5   6  13   23.80    9.20
  -1   7  13   -2.20    3.10
  -1   7  13    5.30    3.60
   0   7  13   17.90    5.90
   1   7  13  410.46   38.40
   1   7  13  382.86   37.40
   1   7  13  399.06   37.10
   1   7  13  360.46   36.80
   2   7  13    8.40    4.30
   2   7  13    6.20    3.60
   2   7  13   -0.20    2.60
   2   7  13    3.70    2.80
   3   7  13   77.39   13.10
   3   7  13   77.79   10.30
   3   7  13   71.19    9.80
   3   7  13   95.59   10.70
   4   7  13    4.10    3.00
   4   7  13    0.50    3.90
   0   8  13  231.38   24.20
   0   8  13  244.08   23.30
   0   8  13  206.88   25.20
   1   8  13  160.28   17.80
   1   8  13  128.09   15.90
   1   8  13  149.59   15.20
   2   8  13  321.87   31.00
   2   8  13  331.27   33.00
   2   8  13  358.16   34.10
   3   8  13    5.10    3.30
   1   6 -14   -3.40    4.20
  -1  -6  14    8.70    7.10
   0   6 -14    3.50    4.50
   0  -6  14   -0.30    5.10
   3   5 -14   12.10    4.60
  -3  -5  14    2.10    4.40
  -3  -5  14   13.10    6.30
   2   5 -14    5.10    3.80
   1   5 -14   -2.40    3.30
  -1  -5  14    3.60    4.30
   0   5 -14    1.20    3.70
   0  -5  14   -0.40    3.70
  -1   5 -14    6.80    4.90
   1  -5  14    4.10    5.40
  -2   5 -14   -1.50    4.20
   2  -5  14    6.30    4.10
   4   4 -14   53.99    8.10
  -4  -4  14   56.19   10.40
   3   4 -14    5.50    4.10
  -3  -4  14   -3.90    4.00
  -3  -4  14    7.10    4.70
   2   4 -14   88.39   12.00
  -2  -4  14   77.29   12.50
  -2  -4  14   97.89   12.10
   1   4 -14    3.50    3.00
  -1  -4  14   -0.90    3.40
   0   4 -14   -2.60    2.80
   0  -4  14   -1.90    2.80
  -1   4 -14    7.50    3.70
   1  -4  14    8.40    5.10
  -2   4 -14    5.40    3.80
   2  -4  14   -4.10    4.30
  -3   4 -14   -5.90    3.00
   3  -4  14    2.10    4.30
   3  -4  14   -5.20    3.00
   4   3 -14   -1.80    3.00
  -4  -3  14    5.80    4.10
  -3  -3  14   27.40    7.30
   2   3 -14   17.40    3.40
  -2  -3  14   16.60    5.20
  -2  -3  14   20.70    6.50
   1   3 -14  154.28   15.60
  -1  -3  14  181.38   17.80
  -1  -3  14  135.09   17.40
   0   3 -14   39.10    5.70
   0  -3  14   26.40    6.40
  -1   3 -14   27.60    5.50
   1  -3  14   14.50    5.40
  -2   3 -14   12.90    3.90
   2  -3  14    7.80    5.70
   3  -3  14    4.80    4.70
   3  -3  14    0.90    3.70
   4  -3  14    5.30    5.50
   4  -3  14    5.70    5.80
  -4  -2  14   11.00    5.40
  -3  -2  14   -0.50    3.10
  -2  -2  14   15.30    5.00
  -1  -2  14   13.10    4.70
  -1  -2  14   15.80    4.40
   0   2 -14   78.99    8.60
   0  -2  14   62.89    9.80
   0  -2  14   85.19   10.10
   1  -2  14   64.39    9.50
  -2   2 -14    8.30    3.60
   2  -2  14   15.00    5.40
  -3   2 -14   -1.10    2.60
   3  -2  14   -4.20    2.30
   3  -2  14    3.40    3.50
  -4   2 -14   -4.80    2.70
   4  -2  14   -1.80    3.90
   4  -2  14    1.00    4.30
  -4  -1  14    6.00    4.30
  -3  -1  14   50.49   14.10
  -2  -1  14   -1.10    2.40
  -1  -1  14   -3.50    2.20
  -1  -1  14    3.80    3.00
   0  -1  14   12.10    3.50
   0  -1  14   10.80    3.60
  -1   1 -14   97.29   10.30
   1  -1  14   98.39    9.80
   1  -1  14   98.79   12.10
   1  -1  14   75.89   10.80
  -2   1 -14    3.10    1.90
   2  -1  14   -0.20    2.90
   2  -1  14   -0.70    2.60
  -3   1 -14    4.10    1.90
   3  -1  14   -0.20    3.40
   3  -1  14   -0.40    3.00
   4  -1  14    9.00    5.40
   4  -1  14    6.60    5.40
   5  -1  14    8.30    5.30
   5  -1  14   -1.90    5.40
  -4   0  14   35.60    7.70
  -3   0  14   -2.30    3.10
  -2   0  14   47.30    7.40
  -1   0  14   25.40    5.50
   0   0 -14    5.70    2.30
   0   0  14    8.10    3.30
   0   0  14   11.20    3.20
  -1   0 -14    6.10    2.20
   1   0  14    1.50    2.10
   1   0  14    6.70    3.20
   1   0  14    6.80    2.50
  -2   0 -14  455.95   41.00
   2   0  14  409.66   43.00
   2   0  14  479.95   43.90
   3   0  14   20.00    7.00
   3   0  14   13.90    5.30
   4   0  14    4.40    4.60
   4   0  14    1.20    3.40
   5   0  14    2.20    4.70
   5   0  14   -1.40    5.80
  -4   1  14   42.00    8.80
  -2   1  14   45.90    7.10
  -1   1  14  129.69   14.10
   0  -1 -14   20.20    4.60
   0   1  14   24.30    4.70
   0   1  14   37.60    6.50
  -1  -1 -14    3.60    2.00
   1   1  14    2.50    1.60
   1   1  14    6.40    3.20
   1   1  14   -0.50    1.70
  -2  -1 -14  388.66   33.40
   2   1  14  375.46   33.80
   2   1  14  343.77   35.50
   2   1  14  338.17   33.10
   3   1  14   28.40    7.40
   3   1  14   28.00    7.10
   4   1  14   -0.70    3.30
   4   1  14    3.50    6.50
   5   1  14    7.50    6.40
   5   1  14   20.80    7.70
  -4   2  14   -1.50    3.30
  -3   2  14   30.30    5.80
  -2   2  14   20.50    5.20
  -1   2  14   71.39    8.90
   0  -2 -14  230.58   22.90
   0   2  14  227.18   23.00
   0   2  14  230.08   22.50
   1   2  14   18.60    3.30
   1   2  14   16.60    4.50
   1   2  14   24.80    4.00
   2   2  14   73.69   10.90
   2   2  14   66.09    8.30
   2   2  14   80.09    9.90
   2   2  14   69.59    7.40
   3   2  14  156.48   20.10
   3   2  14  167.98   18.70
   4   2  14    1.60    7.10
   4   2  14   24.00    6.90
   5   2  14   -4.70    3.70
   5   2  14    0.10    4.30
  -4   3  14    0.30    2.40
  -3   3  14   -2.00    2.00
  -2   3  14   29.80    6.20
  -1   3  14   80.19    9.90
   0   3  14   50.89    6.80
   1   3  14  150.98   13.80
   1   3  14  139.69   15.20
   1   3  14  128.29   14.10
   2   3  14   11.30    4.80
   2   3  14   13.40    4.70
   2   3  14   12.50    2.50
   3   3  14  825.22   87.19
   3   3  14 1093.69   91.39
   4   3  14   40.60   14.00
   4   3  14   47.60   10.20
   5   3  14   43.60   10.10
   5   3  14   47.40   12.60
   3  -4 -14   -4.00    3.40
  -3   4  14    0.20    2.80
  -2   4  14    5.90    4.50
  -1   4  14   -2.70    1.80
  -1   4  14   -4.00    3.10
   0   4  14   -1.60    1.70
   0   4  14   -1.00    1.40
   1   4  14   49.20    8.40
   1   4  14   44.80    6.40
   1   4  14   54.99    7.50
   1   4  14   50.89    6.30
   2   4  14   44.90    5.90
   2   4  14   39.20    6.80
   2   4  14   33.80    8.20
   2   4  14   44.00    5.50
   3   4  14   12.70    4.60
   3   4  14    9.30    4.70
   4   4  14   55.29    9.00
   4   4  14   51.19   15.40
   5   4  14   44.50    9.80
   5   4  14   19.00    8.50
  -3   5  14   30.10    7.20
  -2   5  14   47.80    9.10
  -2   5  14   49.60    9.60
  -2   5  14   59.59    7.70
  -1   5  14  475.05   42.30
  -1   5  14  438.26   44.10
   0   5  14   76.99   11.30
   0   5  14  113.69   10.80
   1   5  14    7.60    3.10
   1   5  14    2.30    2.60
   1   5  14    7.70    2.50
   1   5  14   -0.50    2.50
   2   5  14  110.19   12.60
   2   5  14  104.59   11.60
   2   5  14  100.89   14.60
   2   5  14  107.29   11.60
   3   5  14  252.57   22.70
   3   5  14  242.08   27.90
   3   5  14  221.28   23.50
   4   5  14   59.49    9.90
   4   5  14   53.29   16.20
   5   5  14    2.70    6.30
   5   5  14    2.30    4.90
  -2   6  14    6.60    3.60
  -2   6  14   26.60    4.80
  -1   6  14  292.57   24.90
  -1   6  14  240.48   26.20
  -1   6  14  251.87   24.70
  -1   6  14  217.88   24.50
   0   6  14   48.00    8.00
   0   6  14   69.39    9.20
   1   6  14   49.60    7.70
   1   6  14   58.49    7.40
   1   6  14   50.89    8.70
   1   6  14   53.99    8.00
   2   6  14   31.80    6.10
   2   6  14   51.29    7.00
   2   6  14   37.10    8.90
   3   6  14   -4.50    2.00
   3   6  14   -0.70    2.70
   3   6  14   -2.10    3.00
   3   6  14    3.50    4.40
   4   6  14   13.50    4.70
   4   6  14   16.50    3.20
   4   6  14   19.50    5.70
   4   6  14   12.80    6.80
  -1   7  14   89.89   11.40
  -1   7  14   78.69   13.50
   0   7  14  715.13   65.09
   0   7  14  759.12   63.59
   0   7  14  598.54   62.09
   1   7  14   30.40    6.10
   1   7  14   28.10    6.60
   1   7  14   30.80    6.10
   1   7  14   27.20    6.40
   2   7  14   68.79    9.60
   2   7  14   81.59   11.20
   2   7  14   62.29    9.00
   2   7  14   60.99    9.30
   3   7  14   42.20    9.60
   3   7  14   36.30    9.90
   3   7  14   36.20    6.40
   3   7  14   22.40    5.10
   4   7  14    4.70    3.40
   4   7  14   19.00    7.10
   4   7  14    3.00    4.10
   4   7  14    5.50    3.80
   1   8  14    0.40    3.30
   1   8  14    2.30    3.60
   2   8  14   25.60    6.30
   2   5 -15   -1.70    3.80
  -2  -5  15   -0.50    4.50
   1   5 -15    2.70    3.70
  -1  -5  15    6.70    5.00
   0   5 -15   13.80    5.10
   0  -5  15    9.90    5.90
  -1   5 -15   -1.50    6.30
   1  -5  15    6.30    5.20
   3   4 -15    6.50    6.30
  -3  -4  15   -3.00    3.70
  -3  -4  15   -0.60    3.90
  -2  -4  15   49.10   12.60
  -2  -4  15   30.40    9.20
   1   4 -15    6.20    3.80
  -1  -4  15   -1.50    3.30
   0   4 -15   46.90    8.00
   0  -4  15   60.99    9.60
  -1   4 -15    7.00    4.30
   1  -4  15   14.30    5.70
  -2   4 -15    6.90    4.60
   2  -4  15   -6.60    4.40
   3  -4  15    4.30    4.80
   3  -4  15    0.10    3.90
  -4  -3  15    6.20    5.70
  -3  -3  15   -4.80    3.80
  -2  -3  15   39.70    7.90
   1   3 -15   -1.80    2.50
  -1  -3  15    0.80    3.30
  -1  -3  15   -2.60    2.60
   0   3 -15   40.70    7.00
  -1   3 -15   12.50    4.20
   1  -3  15   15.10    5.30
   2  -3  15    9.00    4.70
   3  -3  15    7.30    5.50
   3  -3  15    2.70    3.40
  -4  -2  15   -6.70    3.60
  -3  -2  15   -6.30    3.10
  -2  -2  15   43.20    8.50
  -1  -2  15   57.29    8.70
  -1  -2  15   56.49    8.70
   0  -2  15    9.20    4.00
   1  -2  15  173.98   17.40
  -2   2 -15    1.10    2.90
   2  -2  15    6.40    3.80
   3  -2  15   24.70    7.90
   3  -2  15   19.30    6.60
   4  -2  15   -1.60    4.10
   4  -2  15    3.30    4.90
  -4  -1  15   16.20    5.60
  -3  -1  15   -3.30    2.90
  -2  -1  15   23.60    5.20
  -1  -1  15  112.19   12.80
  -1  -1  15  101.49   12.60
   0  -1  15   10.20    3.70
   0  -1  15    7.20    3.60
  -1   1 -15  197.18   20.60
   1  -1  15  254.27   23.20
   1  -1  15  192.08   20.90
  -2   1 -15  145.99   17.50
   2  -1  15  204.08   21.20
   2  -1  15  209.48   18.50
   3  -1  15    3.40    4.20
   4  -1  15    1.90    4.30
   4  -1  15   17.90    6.80
   5  -1  15   10.80    5.20
   5  -1  15   13.40    7.50
  -4   0  15   -3.90    3.00
  -3   0  15   19.50    5.50
  -2   0  15   23.30    5.50
  -1   0  15   94.39   11.30
   0   0  15    7.70    2.50
   0   0  15    7.60    3.50
  -1   0 -15   19.30    4.10
   1   0  15   27.90    4.10
   1   0  15   20.70    5.60
   1   0  15   26.80    4.70
  -2   0 -15    5.40    2.10
   2   0  15    3.80    3.30
   2   0  15    1.60    2.70
   3   0  15   72.49   11.80
   4   0  15   11.00    5.60
   4   0  15    3.60    3.90
   5   0  15   -2.50    4.50
   5   0  15    1.90    4.30
  -4   1  15    1.40    3.50
  -3   1  15    5.60    3.30
  -2   1  15   63.59    8.90
  -1   1  15    8.00    3.20
   0   1  15  124.49   13.90
   0   1  15  120.99   13.20
  -1  -1 -15   36.10    6.60
   1   1  15   28.60    6.10
   1   1  15   39.30    5.30
  -2  -1 -15  174.38   16.50
   2   1  15  145.59   18.40
   2   1  15  170.88   16.30
   2   1  15  179.08   17.10
   3   1  15    3.90    3.70
   3   1  15    6.10    3.90
   4   1  15    8.90    4.80
   4   1  15    6.20    5.20
   5   1  15   38.60    9.10
  -4   2  15   -6.60    3.70
  -3   2  15   19.50    4.70
  -2   2  15   15.30    4.00
  -1   2  15   95.89   11.30
   0   2  15   -3.30    1.90
   0   2  15   -2.40    1.40
   1   2  15  213.78   21.00
   1   2  15  206.18   20.20
   1   2  15  237.48   22.50
   2   2  15   38.80    8.30
   2   2  15   36.00    8.30
   2   2  15   49.30    5.40
   3   2  15  289.97   29.40
   3   2  15  270.47   31.10
   4   2  15    3.30    4.50
   4   2  15    1.00    3.50
   5   2  15   28.40    8.90
   5   2  15   51.59   11.60
  -4   3  15   -0.40    3.40
  -3   3  15   11.50    4.20
  -2   3  15    3.90    2.40
  -1   3  15   25.20    4.70
   0   3  15   51.89    6.90
   0   3  15   42.10    7.30
   1   3  15   54.19    6.00
   1   3  15   45.10    6.60
   1   3  15   49.10    7.50
   2   3  15  324.47   33.50
   2   3  15  334.27   35.70
   2   3  15  360.56   31.60
   3   3  15  353.26   32.60
   3   3  15  274.27   33.80
   4   3  15   13.40    5.40
   4   3  15   15.20    5.20
   5   3  15    6.00    4.30
   5   3  15    5.90    5.90
  -2   4  15   -2.40    2.40
  -1   4  15   48.30    7.40
   0   4  15  163.48   15.60
   0   4  15  129.79   13.60
   1   4  15  115.79   12.10
   1   4  15  110.29   14.90
   1   4  15  117.89   13.50
   1   4  15  127.99   12.80
   2   4  15   41.60    5.30
   2   4  15   39.60    5.90
   2   4  15   44.90    9.70
   2   4  15   31.70    6.80
   3   4  15   84.49   11.30
   4   4  15   99.49   13.90
   4   4  15  136.79   18.30
   5   4  15   32.60    8.90
   5   4  15   34.60   11.80
  -3   5  15   15.00    5.10
  -2   5  15   63.79   10.00
  -2   5  15   73.49    8.20
  -2   5  15   62.39   10.30
  -1   5  15   62.79   13.80
  -1   5  15   46.10    8.10
   0   5  15   16.50    4.70
   0   5  15   19.30    3.90
   0   5  15   19.00    5.30
   1   5  15   83.29   12.20
   1   5  15   85.59   10.40
   1   5  15   80.79   10.60
   1   5  15   96.89   10.00
   2   5  15   34.20    5.10
   2   5  15   36.70    6.70
   2   5  15   26.80    5.30
   2   5  15   24.80    7.20
   3   5  15  357.26   35.40
   3   5  15  347.47   33.90
   3   5  15  349.37   38.50
   3   5  15  365.86   32.90
   4   5  15   75.59   16.80
   4   5  15   81.29   11.80
   5   5  15    8.60    6.10
   5   5  15    0.40    7.30
  -2   6  15   49.90    7.30
  -2   6  15   26.80    6.90
  -1   6  15   43.40    9.80
  -1   6  15   63.89    9.40
  -1   6  15   58.19    8.30
   0   6  15   76.09   15.80
   0   6  15   86.59   14.20
   0   6  15   97.99   11.60
   1   6  15   48.20    7.00
   1   6  15   52.29    7.80
   1   6  15   57.39    8.90
   1   6  15   38.90    7.80
   2   6  15   33.80    8.60
   2   6  15   33.20    6.00
   2   6  15   40.10    7.30
   2   6  15   24.10    5.10
   3   6  15    1.30    2.70
   3   6  15   -2.00    2.30
   3   6  15   -0.30    4.10
   3   6  15    0.10    2.80
   4   6  15  135.09   15.10
   4   6  15  132.29   16.20
   4   6  15  129.49   19.90
   0   7  15   43.00    7.30
   0   7  15   58.19   10.10
   1   7  15    4.90    6.30
   1   7  15    1.70    3.60
   1   7  15    0.40    3.80
   1   7  15   -1.20    2.60
   2   7  15    2.60    3.30
   2   7  15   -4.90    2.60
   2   7  15   -0.50    2.80
   2   7  15    1.60    3.80
   3   7  15   63.09    9.30
   3   7  15   63.59    9.30
   3   7  15   75.49    9.90
   3   7  15   84.49   13.10
   1   5 -16   -8.40    4.10
  -1  -5  16   14.40    6.10
   0   5 -16    1.60    4.30
   0  -5  16   -3.90    4.20
   2   4 -16   -1.60    3.80
  -2  -4  16    6.90    4.50
  -2  -4  16   -2.20    4.30
   1   4 -16    2.10    3.60
  -1  -4  16    5.80    4.50
   0   4 -16    2.70    3.30
   0  -4  16    4.00    4.30
  -1   4 -16   -1.00    3.40
   1  -4  16   -3.60    4.00
   2  -4  16   -3.80    4.70
  -3  -3  16   16.20    5.90
  -2  -3  16   -2.20    3.50
  -2  -3  16    3.50    4.80
   1   3 -16    3.50    3.10
   0   3 -16    1.40    4.10
   0  -3  16   -3.50    3.30
  -1   3 -16   -4.10    2.90
   1  -3  16   -0.40    3.60
   2  -3  16   -4.00    4.00
   3  -3  16   24.40    7.30
   3  -3  16    7.10    5.50
  -3  -2  16   -0.50    4.10
  -2  -2  16   10.80    4.50
  -2  -2  16   15.70    5.70
  -1  -2  16   -1.30    3.20
  -1  -2  16   -0.80    3.20
   0  -2  16   81.19   11.20
   0  -2  16   76.09   10.30
   1  -2  16   -3.40    2.80
   1  -2  16    3.80    3.90
   2  -2  16   23.80    6.90
  -3   2 -16   -0.80    3.40
   3  -2  16   -3.30    3.50
   3  -2  16   -2.00    2.80
   4  -2  16    0.30    5.90
   4  -2  16   -3.50    4.50
  -4  -1  16    1.30    4.20
  -3  -1  16    7.80    4.00
  -2  -1  16   20.60    6.20
  -1  -1  16    8.80    3.80
  -1  -1  16    5.40    3.60
   0  -1  16    7.90    4.00
   0  -1  16    5.50    3.60
   1  -1  16   30.50    5.20
   1  -1  16   41.10    8.70
   1  -1  16   43.10    6.20
  -2   1 -16   13.20    3.60
   2  -1  16   17.20    5.60
   2  -1  16   23.60    8.90
  -3   1 -16   -3.50    2.00
   3  -1  16    4.20    3.90
   3  -1  16    4.00    3.20
   4  -1  16    2.30    4.20
   4  -1  16   -3.60    4.30
  -4   0  16    4.40    4.40
  -3   0  16    7.80    3.80
  -2   0  16   22.30    5.30
  -1   0  16   76.29   10.00
  -1   0  16   72.39   10.40
   0   0  16   23.40    5.00
   0   0  16   24.50    5.50
  -1   0 -16    9.40    3.30
   1   0  16   17.20    4.40
   1   0  16   10.60    3.20
   1   0  16   15.60    3.10
  -2   0 -16   -1.70    2.20
   2   0  16    5.20    3.80
   2   0  16   -4.00    2.70
   3   0  16    0.90    3.40
   3   0  16    5.40    4.20
   4   0  16   27.80    9.40
   4   0  16   33.60    9.00
   5   0  16    3.70    5.60
   5   0  16    0.40    4.20
  -4   1  16   -5.30    2.80
  -3   1  16   10.50    4.20
  -2   1  16   -0.60    2.50
  -1   1  16    6.10    2.90
   0   1  16   70.69    8.30
   0   1  16   56.29    8.80
  -1  -1 -16   39.20    6.20
   1   1  16   45.60    8.10
   1   1  16   49.90    7.60
  -2  -1 -16   26.70    4.40
   2   1  16   32.00    4.30
   2   1  16   30.00    7.10
   2   1  16   17.40    5.40
   3   1  16   23.50    6.30
   4   1  16   -5.50    3.00
   4   1  16   10.10    5.50
   5   1  16   12.40    7.90
   5   1  16   27.70    7.70
  -4   2  16   17.10    5.70
  -3   2  16    3.60    3.70
  -2   2  16    6.50    3.80
  -1   2  16    1.70    2.40
   0   2  16  100.39   12.30
   0   2  16  128.49   13.60
   1   2  16   22.10    5.80
   1   2  16   19.90    4.20
   2   2  16  125.09   17.30
   2   2  16  136.59   16.00
   2   2  16  152.58   15.20
   2   2  16  130.99   13.50
   3   2  16   27.70    9.00
   3   2  16   42.00    8.90
   4   2  16   11.90    6.40
   4   2  16   12.60    4.60
   5   2  16    1.30    4.00
   5   2  16   10.60    6.60
  -3   3  16   -1.80    3.10
  -2   3  16   19.50    5.70
  -1   3  16   20.20    4.50
   0   3  16   -2.10    2.60
   0   3  16   -2.80    1.60
   1   3  16   75.79   11.00
   1   3  16   97.79    9.40
   1   3  16   90.29   10.10
   2   3  16   84.49   12.60
   2   3  16   76.19    8.70
   2   3  16   88.49   11.20
   3   3  16    4.40    3.30
   4   3  16    4.10    5.30
   4   3  16    1.00    6.50
   5   3  16   -1.70    5.70
   5   3  16    7.80    5.60
  -3   4  16   12.00    5.00
  -2   4  16    4.20    2.90
  -1   4  16   -1.40    2.70
   0   4  16   97.39   10.90
   0   4  16   78.59   10.90
   1   4  16   19.20    4.90
   1   4  16   17.50    5.70
   1   4  16   16.10    3.80
   2   4  16   56.59    7.10
   2   4  16   51.49    6.50
   2   4  16   48.50    8.10
   2   4  16   60.49   10.50
   3   4  16   97.49   12.60
   3   4  16   91.89   14.80
   4   4  16    4.50    5.90
   4   4  16    7.10    4.70
   5   4  16    5.20    6.70
   5   4  16    9.60    5.10
  -2   5  16   -0.20    3.10
  -1   5  16  145.49   14.10
  -1   5  16  119.99   15.50
   0   5  16   10.80    4.20
   0   5  16   11.30    3.40
   0   5  16    2.20    3.70
   0   5  16    8.50    3.70
   1   5  16   41.00    6.00
   1   5  16   34.20    7.90
   1   5  16   36.90    6.50
   1   5  16   48.40    7.30
   2   5  16   61.39    7.40
   2   5  16   59.99    7.60
   2   5  16   48.50   11.10
   2   5  16   53.19    8.40
   3   5  16   12.90    4.00
   3   5  16   10.40    4.30
   3   5  16    9.20    6.00
   3   5  16   12.20    2.70
   4   5  16  150.78   17.10
   4   5  16  108.59   19.30
  -1   6  16   26.30    6.20
  -1   6  16   23.20    4.90
   0   6  16   41.80    8.40
   0   6  16   22.20    6.20
   0   6  16   29.40    6.90
   0   6  16   27.70    5.60
   1   6  16    8.50    4.10
   1   6  16    8.10    3.60
   1   6  16    6.40    4.50
   1   6  16    2.60    2.60
   2   6  16   62.29   10.80
   2   6  16   45.80    7.20
   2   6  16   54.79    8.40
   2   6  16   51.39    7.50
   3   6  16   19.20    4.20
   3   6  16   14.60    7.40
   3   6  16   14.60    5.20
   3   6  16   13.00    4.20
   4   6  16   62.29   13.80
   4   6  16   64.09    9.30
   4   6  16   62.89   10.50
   0   7  16    5.80    4.40
   0   7  16   -3.30    3.90
   0   7  16   -4.60    3.00
   1   7  16  103.69   13.10
   1   7  16   96.49   13.30
   1   7  16  117.99   12.40
   1   7  16   93.59   12.40
   2   7  16   -1.00    4.00
   2   7  16    3.00    3.20
   2   7  16   -3.70    3.10
   2   7  16   -2.10    3.90
  -2  -4  17   11.80    5.30
  -2  -4  17   -0.50    5.00
   1   4 -17    2.60    3.70
  -1  -4  17   -3.60    4.00
   0   4 -17    7.00    4.00
   0  -4  17    6.00    4.50
  -1   4 -17   -4.20    4.10
   1  -4  17   -0.20    4.10
  -3  -3  17   -5.30    3.70
  -3  -3  17    1.50    4.40
  -2  -3  17    2.70    4.40
  -2  -3  17   -1.40    3.80
  -1  -3  17   -8.00    3.10
  -1  -3  17   -2.60    3.80
   0  -3  17   13.40    5.90
   0  -3  17   13.80    5.10
   2  -3  17    5.10    5.80
   3  -3  17   25.10    8.10
  -3  -2  17   -0.40    3.90
  -2  -2  17   -2.50    3.60
  -2  -2  17   -5.20    3.00
  -1  -2  17    0.20    3.40
  -1  -2  17    3.50    4.00
   0  -2  17    7.90    3.40
   0  -2  17    7.10    4.60
   1  -2  17    1.10    3.30
   1  -2  17    7.30    3.80
   2  -2  17    3.20    4.20
   3  -2  17    0.40    4.30
   3  -2  17    1.10    3.70
  -3  -1  17   14.80    5.90
  -2  -1  17   -2.20    3.40
  -1  -1  17    6.50    4.00
  -1  -1  17    0.30    3.10
   0  -1  17   -0.30    2.90
   0  -1  17   -1.70    5.90
   1  -1  17   22.80    4.80
   1  -1  17    9.60    5.90
  -2   1 -17    0.70    2.60
   2  -1  17    1.80    3.80
  -3   1 -17   47.70    6.30
   3  -1  17   65.79   10.40
   3  -1  17   38.10    9.20
   4  -1  17   10.50    6.20
  -3   0  17   44.70    9.30
  -2   0  17   -1.90    2.80
  -1   0  17   10.90    4.00
   0   0  17   48.90    8.20
   0   0  17   49.40    8.00
   1   0  17   16.10    5.80
   1   0  17   19.20    4.20
  -2   0 -17   40.20    6.30
   2   0  17   80.19   11.90
   2   0  17   43.60    6.70
   3   0  17    1.00    4.00
   3   0  17    5.60    4.70
   4   0  17  131.69   18.20
  -3   1  17   -0.40    3.50
  -2   1  17   22.20    5.10
  -1   1  17   29.40    5.60
   0   1  17  121.49   14.60
   0   1  17  124.69   13.70
  -1  -1 -17   59.19    7.90
   1   1  17   57.49   10.40
   1   1  17   58.59    7.60
  -2  -1 -17   28.40    4.90
   2   1  17   31.30    4.70
   3   1  17   74.49   11.60
   3   1  17   81.19   13.40
   4   1  17   -1.50    3.90
  -3   2  17   16.70    5.30
  -2   2  17    0.30    2.90
  -1   2  17  129.09   14.60
   0   2  17    7.80    4.20
   0   2  17    5.40    3.00
   1   2  17   67.79    8.40
   1   2  17   74.39   10.30
   2   2  17   69.59    8.00
   2   2  17   62.09   10.50
   2   2  17   80.69   12.20
   2   2  17   78.49   12.30
   3   2  17    0.80    3.40
   3   2  17    1.30    3.60
   4   2  17    8.90    6.80
   4   2  17   18.80    6.10
   5   2  17   -5.10    5.40
  -3   3  17   23.30    6.20
  -2   3  17   46.80    8.50
  -1   3  17    4.50    3.00
   0   3  17  209.58   20.40
   0   3  17  163.78   18.90
   1   3  17    2.70    1.90
   2   3  17   62.09    7.60
   2   3  17   74.29   10.50
   2   3  17   70.89    8.50
   2   3  17   71.39   11.60
   3   3  17    0.50    3.50
   3   3  17    8.60    5.40
   4   3  17    6.10    4.80
   4   3  17    9.50    6.60
  -2   4  17   -0.20    2.70
  -1   4  17   73.89   10.50
   0   4  17    1.70    3.30
   0   4  17    5.20    2.70
   1   4  17   57.49    8.40
   1   4  17   53.39    7.00
   1   4  17   37.30    8.90
   1   4  17   49.80    6.50
   2   4  17  113.29   12.20
   2   4  17  125.59   16.70
   2   4  17  108.39   13.70
   3   4  17   -1.90    3.60
   3   4  17    2.50    3.40
   4   4  17   68.39   11.10
   4   4  17   67.49   14.80
  -2   5  17   20.90    6.00
  -1   5  17   -2.50    3.10
   0   5  17   38.20    7.20
   0   5  17   51.69    8.30
   0   5  17   37.00    8.60
   0   5  17   51.09    6.80
   1   5  17    0.40    3.00
   1   5  17    0.20    3.70
   1   5  17   -0.50    2.70
   1   5  17    0.40    2.60
   2   5  17   79.99    9.30
   2   5  17   78.19    9.10
   2   5  17   62.29   10.20
   2   5  17   87.69   13.10
   3   5  17  215.18   20.70
   3   5  17  233.28   22.10
   3   5  17  206.38   23.60
   3   5  17  222.98   27.20
   4   5  17   77.89   17.00
  -1   6  17   21.60    6.20
  -1   6  17   26.50    7.60
  -1   6  17   30.70    6.90
   0   6  17   -2.20    3.60
   0   6  17    3.60    3.30
   0   6  17    3.50    3.90
   0   6  17    5.20    3.00
   1   6  17   74.79    9.80
   1   6  17   76.09   11.60
   1   6  17   72.19    9.00
   1   6  17   54.89    9.70
   2   6  17  111.89   12.50
   2   6  17   98.19   15.50
   2   6  17  111.69   13.50
   2   6  17  110.09   12.40
   3   6  17   10.10    3.20
   3   6  17   11.80    4.90
   3   6  17    4.60    3.10
   3   6  17   19.90    8.80
   0   4 -18    6.30    4.50
  -2  -3  18   13.80    6.00
  -2  -3  18   -0.20    4.90
  -1  -3  18   -2.50    4.20
  -1  -3  18   -3.00    3.60
   0  -3  18   47.80    9.70
   1  -3  18    8.10    4.90
   2  -3  18    4.70    4.50
  -2  -2  18   21.50    6.60
  -2  -2  18   16.70    6.20
  -1  -2  18   18.20    6.00
  -1  -2  18   19.00    5.60
   0  -2  18   -2.10    2.90
   0  -2  18   -1.80    3.20
   1  -2  18    5.10    4.50
   1  -2  18   -9.90    4.20
   2  -2  18    0.70    3.50
   3  -2  18   12.90    6.90
   3  -2  18    7.00    4.60
  -3  -1  18    5.10    4.20
  -2  -1  18    4.60    4.20
  -2  -1  18    0.60    4.00
  -1  -1  18    1.70    3.60
  -1  -1  18   -1.80    3.50
   0  -1  18   -0.80    2.60
   0  -1  18    1.20    3.70
   1  -1  18   12.80    5.10
   1  -1  18    9.10    3.50
   1  -1  18   10.30    3.70
   2  -1  18    7.30    5.10
   3  -1  18    0.90    4.00
   3  -1  18    0.90    3.90
  -3   0  18   -1.70    3.70
  -2   0  18   14.30    5.00
  -1   0  18   10.00    4.40
  -1   0  18   22.00    6.00
   0   0  18   12.90    3.90
   0   0  18   11.80    5.10
   1   0  18    2.60    3.10
   1   0  18    0.20    2.20
  -2   0 -18    0.00    2.60
   2   0  18   -7.30    3.20
   2   0  18   -4.50    3.00
   3   0  18   -2.70    3.50
   3   0  18   -2.10    2.70
   4   0  18    6.60    4.10
   4   0  18    5.70    5.70
  -3   1  18    3.60    4.00
  -2   1  18    4.50    3.40
  -1   1  18   15.60    5.50
  -1   1  18   12.40    4.40
   0   1  18    5.80    3.10
   0   1  18    5.40    3.90
   1   1  18   19.90    4.40
   1   1  18   16.90    6.30
   2   1  18    0.30    2.00
   2   1  18   -0.80    5.30
   2   1  18    4.00    4.10
   3   1  18    0.90    4.10
   3   1  18    1.20    3.60
   4   1  18   43.40   12.70
   4   1  18   51.39   11.80
  -3   2  18    7.90    4.30
  -2   2  18    5.40    3.40
  -1   2  18   17.20    4.70
   0   2  18    4.10    4.00
   0   2  18    7.70    3.00
   1   2  18   -1.80    4.50
   1   2  18    8.50    3.00
   2   2  18   20.70    7.00
   2   2  18   13.10    6.20
   2   2  18   13.00    3.10
   3   2  18    0.80    2.80
   3   2  18   -2.50    3.60
   4   2  18   10.00    6.20
   4   2  18    5.40    5.50
  -2   3  18   44.50    8.00
  -1   3  18   -4.30    4.20
   0   3  18    2.40    2.70
   0   3  18    2.30    4.80
   1   3  18    2.40    2.40
   1   3  18   -4.20    3.00
   2   3  18    1.50    2.10
   2   3  18    2.90    3.10
   2   3  18    0.90    4.20
   3   3  18    1.40    4.00
   3   3  18   -0.80    3.00
   4   3  18   41.00   11.10
   4   3  18   40.30    9.20
  -2   4  18   -7.50    2.70
  -1   4  18    8.90    3.90
   0   4  18    4.20    4.30
   0   4  18    3.30    2.20
   1   4  18   25.30    7.40
   1   4  18   27.50    5.20
   1   4  18   33.70    7.00
   2   4  18   10.80    3.00
   2   4  18    1.60    4.10
   2   4  18    2.60    2.30
   2   4  18    8.10    4.00
   3   4  18   25.70    8.90
   3   4  18   17.80    6.20
   4   4  18    8.40    7.00
   4   4  18   12.30    4.80
  -1   5  18    8.50    3.90
   0   5  18    1.20    4.30
   0   5  18    4.40    4.30
   0   5  18    0.60    3.40
   1   5  18   -1.50    3.50
   1   5  18    2.60    4.10
   1   5  18    2.40    3.00
   2   5  18    1.80    4.10
   2   5  18   -3.90    4.30
   2   5  18   -4.50    2.20
   2   5  18    1.40    2.80
   3   5  18   16.00    3.20
   3   5  18   12.00    6.70
   3   5  18   16.60    4.60
   0   6  18   11.90    4.20
   0   6  18   14.90    4.70
   0   6  18    2.20    4.40
   0   6  18    9.00    5.00
   1   6  18   21.90    5.20
   1   6  18   24.50    4.70
   1   6  18    8.40    5.50
   1   6  18   28.90    7.20
   2   6  18    6.10    4.10
   2   6  18    2.00    4.10
   2   6  18    0.90    2.80
   2   6  18   -2.40    2.90
  -1  -3  19    1.80    5.00
  -1  -3  19    2.30    4.40
   0  -3  19   -5.30    3.80
   1  -3  19   -6.70    3.10
  -2  -2  19   -0.40    4.90
  -2  -2  19   -6.40    4.20
  -1  -2  19   10.20    5.20
  -1  -2  19    3.50    4.00
   0  -2  19   11.60    5.40
   0  -2  19    6.20    7.00
   1  -2  19   12.40    5.50
   2  -2  19    2.20    4.60
  -2  -1  19    2.30    4.20
  -2  -1  19    3.30    4.50
  -1  -1  19    8.00    4.70
  -1  -1  19    3.30    3.80
   0  -1  19   -1.90    3.30
   0  -1  19    4.10    3.60
   1  -1  19    8.20    4.30
   1  -1  19    0.20    3.20
   2  -1  19    8.00    5.60
   3  -1  19   25.70    7.90
   3  -1  19   22.60    7.10
  -2   0  19   25.10    6.70
  -1   0  19    2.30    3.80
  -1   0  19   -1.50    3.60
   0   0  19   19.20    5.10
   0   0  19   22.70    6.00
   1   0  19    3.10    3.60
   1   0  19    0.10    2.30
   2   0  19   -1.70    3.80
   2   0  19   -0.50    4.10
   3   0  19   33.70    8.40
   3   0  19   34.80    8.30
  -2   1  19    0.60    3.40
  -1   1  19   17.20    6.00
  -1   1  19   13.00    6.20
   0   1  19    2.20    3.00
   0   1  19   -2.00    3.10
   1   1  19    7.10    3.20
   1   1  19   15.80    5.40
  -2  -1 -19   -7.40    2.60
   2   1  19    3.90    3.70
   2   1  19    1.20    2.30
   3   1  19   -4.90    3.10
   3   1  19    1.30    4.80
   4   1  19   -5.40    5.20
  -2   2  19   10.10    4.70
  -1   2  19   -1.70    4.10
  -1   2  19   -3.00    2.70
   0   2  19    7.80    3.30
   0   2  19    8.20    5.00
   1   2  19   -6.20    3.20
   1   2  19   -0.70    2.20
   2   2  19    6.70    5.60
   2   2  19    9.60    5.00
   2   2  19   12.90    7.00
   2   2  19   11.80    2.80
   3   2  19   -0.70    3.20
   3   2  19   -1.80    4.30
   4   2  19   -4.10    5.10
   4   2  19   -6.40    3.80
  -2   3  19   -4.20    3.60
  -1   3  19    4.50    4.00
   0   3  19    3.60    3.80
   0   3  19    2.40    2.60
   1   3  19   26.60    5.20
   1   3  19   23.20    5.80
   2   3  19   11.80    5.40
   2   3  19   -6.80    3.50
   2   3  19   -0.40    2.60
   2   3  19    7.70    4.90
   3   3  19   19.40    6.10
   3   3  19   23.00    7.30
   4   3  19   46.00   10.90
   4   3  19   60.89   14.60
  -1   4  19   19.40    5.60
   0   4  19   10.40    4.20
   0   4  19    6.90    5.20
   1   4  19   18.80    5.60
   1   4  19   12.30    6.10
   1   4  19   14.30    4.10
   2   4  19   18.80    5.90
   2   4  19   23.70    4.70
   2   4  19   20.80    4.30
   2   4  19   17.70    6.60
   3   4  19    4.40    3.60
   3   4  19    5.00    6.90
   0   5  19   -0.70    3.90
   0   5  19    1.90    4.10
   0   5  19    0.70    3.00
   1   5  19   20.10    6.30
   1   5  19   23.30    5.00
   1   5  19   17.10    4.30
   1   5  19   12.60    6.60
   2   5  19  113.29   18.00
   2   5  19  120.89   15.70
   2   5  19  128.19   13.50
   2   5  19  136.29   13.90
   3   5  19   66.79    8.00
   3   5  19   34.90    8.50
   3   5  19   53.49    6.30
   3   5  19   39.40   11.80
   0  -2  20   -3.10    3.70
   0  -2  20   -3.70    3.90
   1  -2  20   10.90    5.60
  -1  -1  20   -3.60    3.50
  -1  -1  20   -0.70    3.50
   0  -1  20    9.80    5.40
   1  -1  20    3.60    3.40
   1  -1  20   10.50    5.40
  -2   0  20    2.10    5.40
  -2   0  20   -9.20    3.80
  -1   0  20    5.30    4.90
  -1   0  20    1.80    4.20
   0   0  20   25.00    5.70
   0   0  20   14.70    5.70
   1   0  20   20.90    5.20
   1   0  20   35.30    7.80
   2   0  20    2.50    4.20
   3   0  20   46.10    9.90
   3   0  20   34.30    8.80
  -2   1  20   -0.10    4.20
  -1   1  20   -1.20    3.60
   0   1  20    3.90    4.10
   0   1  20    3.50    3.80
   1   1  20    9.90    4.60
   1   1  20   14.80    3.80
   2   1  20   41.50    8.70
   2   1  20   26.10    4.90
   3   1  20   25.60    7.50
   3   1  20   13.00    8.00
  -1   2  20    9.10    4.40
  -1   2  20   10.40    5.60
   0   2  20   -5.30    3.20
   0   2  20   -3.30    3.10
   1   2  20   19.90    6.20
   1   2  20   12.30    3.50
   2   2  20   -3.00    4.30
   2   2  20    3.00    2.80
   2   2  20   -3.70    3.80
   3   2  20   -2.00    3.40
   3   2  20   -3.20    4.30
  -1   3  20    3.50    4.60
  -1   3  20    8.40    3.70
   0   3  20   25.80    6.70
   0   3  20   13.30    4.50
   1   3  20    1.20    2.80
   1   3  20   -3.90    3.40
   2   3  20   19.50    4.00
   2   3  20   11.30    5.90
   2   3  20   11.80    3.40
   2   3  20   19.90    6.50
   3   3  20   -1.00    4.60
   3   3  20    6.60    4.10
   0   4  20   -0.50    4.00
   0   4  20   -0.50    3.30
   1   4  20   73.59    9.40
   1   4  20   79.09   13.00
   1   4  20   60.79   10.70
   2   4  20    9.10    6.90
   2   4  20    2.40    2.70
   2   4  20   -3.90    2.80
   2   4  20    6.00    5.20
   3   4  20   23.40    5.00
   3   4  20   17.30    8.60
   1   5  20    6.50    5.60
   1   5  20    6.20    4.00
   1   5  20    8.70    4.90
   0  -1  21   -0.40    3.90
   0  -1  21    3.50    4.20
  -1   0  21    1.20    4.90
  -1   0  21    3.20    3.90
   0   0  21    2.80    3.60
   0   0  21    5.30    4.80
   1   0  21   -4.60    3.00
   1   0  21   -3.30    4.40
   2   0  21   11.60    6.20
  -1   1  21    0.30    3.40
  -1   1  21   -6.60    4.40
   0   1  21   -2.40    4.30
   1   1  21    3.50    4.40
   1   1  21    1.80    2.90
   2   1  21    8.20    5.10
   2   1  21    0.50    4.00
   2   1  21    1.50    2.60
  -1   2  21   -0.90    4.60
  -1   2  21    3.30    3.90
   0   2  21   -1.90    3.70
   0   2  21   -6.60    4.90
   1   2  21   -2.60    2.60
   1   2  21    0.20    3.60
   2   2  21   -4.00    2.30
   2   2  21    1.10    3.60
   2   2  21   -1.20    3.80
   0   3  21    5.70    4.50
   0   3  21    8.60    4.10
   1   3  21    9.10    3.50
   1   3  21   19.20    6.10
   2   3  21   -4.40    2.60
   2   3  21    1.10    5.10
   2   3  21   -9.20    3.80
   1   4  21    4.60    5.20
   0   0   0    0.00    0.00

_computing_structure_solution     'SHELXT 2014/5 (Sheldrick, 2014)'
;
_shelx_hkl_checksum              75159
loop_
_space_group_symop_operation_xyz
'x, y, z'
'-x, -y, -z'
loop_
_atom_site_label
_atom_site_type_symbol
_atom_site_fract_x
_atom_site_fract_y
_atom_site_fract_z
_atom_site_U_iso_or_equiv
_atom_site_adp_type
_atom_site_occupancy
_atom_site_site_symmetry_order
_atom_site_calc_flag
_atom_site_refinement_flags_posn
_atom_site_refinement_flags_adp
S1 S 0.7406(3) 0.2674(2) 0.18428(10) 0.0529(6) Uani 1 1 d . .
O1 O 0.7044(6) 0.3055(5) 0.5895(2) 0.0394(9) Uani 1 1 d . .
N1 N 0.6750(8) 0.5065(6) 0.2927(3) 0.0386(10) Uani 1 1 d . .
H1 H 0.582658 0.605710 0.311242 0.046 Uiso 1 1 calc R U
C12 C 0.8013(8) 0.3702(6) 0.4235(3) 0.0312(11) Uani 1 1 d . .
H12 H 0.639861 0.419279 0.445013 0.037 Uiso 1 1 calc R U
C11 C 0.9811(8) 0.2714(6) 0.4753(3) 0.0335(11) Uani 1 1 d . .
C13 C 0.9162(8) 0.2485(6) 0.5627(3) 0.0341(11) Uani 1 1 d . .
C7 C 0.8565(9) 0.3968(6) 0.3416(3) 0.0353(11) Uani 1 1 d . .
C14 C 1.1118(9) 0.1509(7) 0.6177(4) 0.0439(13) Uani 1 1 d . .
H14A H 1.061176 0.182191 0.671738 0.066 Uiso 1 1 calc R U
H14B H 1.268967 0.193104 0.598682 0.066 Uiso 1 1 calc R U
H14C H 1.133122 0.013495 0.618702 0.066 Uiso 1 1 calc R U
C10 C 1.2157(8) 0.1958(6) 0.4421(4) 0.0420(13) Uani 1 1 d . .
H10 H 1.338770 0.126648 0.476012 0.050 Uiso 1 1 calc R U
C8 C 1.0940(9) 0.3242(7) 0.3099(4) 0.0439(13) Uani 1 1 d . .
H8 H 1.135309 0.345206 0.253842 0.053 Uiso 1 1 calc R U
C9 C 1.2683(9) 0.2217(7) 0.3605(4) 0.0454(14) Uani 1 1 d . .
H9 H 1.427198 0.168035 0.338646 0.054 Uiso 1 1 calc R U
C1 C 0.6281(11) 0.4731(8) 0.2187(4) 0.0494(14) Uani 1 1 d . .
N2 N 0.4795(14) 0.6171(7) 0.1780(4) 0.084(2) Uani 1 1 d . .
C4 C 0.2147(14) 0.9268(9) 0.0755(3) 0.0577(17) Uani 1 1 d . .
H4A H 0.036343 0.984124 0.076133 0.069 Uiso 1 1 calc R U
H4B H 0.301932 0.995989 0.029648 0.069 Uiso 1 1 calc R U
C5 C 0.313(2) 0.9526(9) 0.1511(5) 0.100(3) Uani 1 1 d D U
H5A H 0.402966 1.060245 0.138156 0.120 Uiso 1 1 calc R U
H5B H 0.167718 0.992138 0.188252 0.120 Uiso 1 1 calc R U
C3 C 0.243(3) 0.7290(11) 0.0633(6) 0.151(6) Uani 1 1 d D U
H3A H 0.075057 0.696760 0.071782 0.182 Uiso 1 1 calc R U
H3B H 0.296590 0.725025 0.006030 0.182 Uiso 1 1 calc R U
C2 C 0.394(3) 0.5840(13) 0.1048(8) 0.182(7) Uani 1 1 d D U
H2A H 0.542274 0.545043 0.068743 0.219 Uiso 1 1 calc R U
H2B H 0.305841 0.475387 0.117807 0.219 Uiso 1 1 calc R U
C6 C 0.462(3) 0.8094(11) 0.1914(7) 0.186(7) Uani 1 1 d D U
H15A H 0.412398 0.812763 0.248979 0.223 Uiso 1 1 calc R U
H15B H 0.631492 0.838641 0.181805 0.223 Uiso 1 1 calc R U
loop_
_atom_site_aniso_label
_atom_site_aniso_U_11
_atom_site_aniso_U_22
_atom_site_aniso_U_33
_atom_site_aniso_U_23
_atom_site_aniso_U_13
_atom_site_aniso_U_12
S1 0.0581(10) 0.0427(9) 0.0685(10) -0.0273(7) 0.0034(7) -0.0237(7)
O1 0.0274(18) 0.0289(17) 0.062(2) -0.0116(16) -0.0135(16) 0.0032(13)
N1 0.041(2) 0.029(2) 0.051(3) -0.0111(18) -0.0132(19) -0.0085(17)
C12 0.022(2) 0.018(2) 0.056(3) -0.0100(19) -0.009(2) -0.0035(17)
C11 0.020(2) 0.017(2) 0.067(3) -0.012(2) -0.012(2) -0.0033(16)
C13 0.025(2) 0.015(2) 0.066(3) -0.008(2) -0.016(2) -0.0032(17)
C7 0.031(2) 0.021(2) 0.059(3) -0.011(2) -0.010(2) -0.0110(18)
C14 0.028(2) 0.027(2) 0.078(4) -0.001(2) -0.022(2) -0.0045(19)
C10 0.024(2) 0.022(2) 0.084(4) -0.014(2) -0.013(2) -0.0032(18)
C8 0.033(3) 0.034(3) 0.072(4) -0.020(2) -0.001(2) -0.017(2)
C9 0.023(2) 0.032(3) 0.085(4) -0.023(3) 0.001(2) -0.007(2)
C1 0.063(4) 0.034(3) 0.061(4) -0.014(2) -0.019(3) -0.020(3)
N2 0.146(6) 0.040(3) 0.082(4) -0.026(3) -0.074(4) -0.003(3)
C4 0.092(5) 0.049(3) 0.041(3) 0.002(3) -0.026(3) -0.029(3)
C5 0.180(9) 0.041(4) 0.094(6) -0.019(4) -0.095(6) -0.002(4)
C3 0.326(16) 0.052(4) 0.105(7) -0.010(4) -0.142(9) -0.036(7)
C2 0.333(17) 0.079(6) 0.161(10) -0.066(7) -0.183(11) 0.028(8)
C6 0.374(18) 0.048(4) 0.155(9) -0.042(5) -0.199(11) 0.032(7)
loop_
_atom_type_symbol
_atom_type_description
_atom_type_scat_dispersion_real
_atom_type_scat_dispersion_imag
_atom_type_scat_source
C C 0.0033 0.0016 'International Tables Vol C Tables 4.2.6.8 and 6.1.1.4'
H H 0.0000 0.0000 'International Tables Vol C Tables 4.2.6.8 and 6.1.1.4'
N N 0.0061 0.0033 'International Tables Vol C Tables 4.2.6.8 and 6.1.1.4'
O O 0.0106 0.0060 'International Tables Vol C Tables 4.2.6.8 and 6.1.1.4'
S S 0.1246 0.1234 'International Tables Vol C Tables 4.2.6.8 and 6.1.1.4'
loop_
_geom_angle_atom_site_label_1
_geom_angle_atom_site_label_2
_geom_angle_atom_site_label_3
_geom_angle
C1 N1 C7 126.1(4)
C1 N1 H1 116.9
C7 N1 H1 116.9
C7 C12 C11 120.9(4)
C7 C12 H12 119.6
C11 C12 H12 119.6
C10 C11 C12 118.6(5)
C10 C11 C13 122.1(4)
C12 C11 C13 119.3(4)
O1 C13 C11 120.5(4)
O1 C13 C14 120.5(5)
C11 C13 C14 119.0(4)
C12 C7 C8 119.6(5)
C12 C7 N1 118.6(4)
C8 C7 N1 121.7(5)
C13 C14 H14A 109.5
C13 C14 H14B 109.5
H14A C14 H14B 109.5
C13 C14 H14C 109.5
H14A C14 H14C 109.5
H14B C14 H14C 109.5
C9 C10 C11 120.1(5)
C9 C10 H10 120.0
C11 C10 H10 120.0
C9 C8 C7 119.6(6)
C9 C8 H8 120.2
C7 C8 H8 120.2
C10 C9 C8 121.2(5)
C10 C9 H9 119.4
C8 C9 H9 119.4
N2 C1 N1 114.2(5)
N2 C1 S1 123.3(4)
N1 C1 S1 122.5(4)
C1 N2 C6 121.8(5)
C1 N2 C2 117.6(6)
C6 N2 C2 118.2(6)
C3 C4 C5 113.9(5)
C3 C4 H4A 108.8
C5 C4 H4A 108.8
C3 C4 H4B 108.8
C5 C4 H4B 108.8
H4A C4 H4B 107.7
C6 C5 C4 120.2(6)
C6 C5 H5A 107.3
C4 C5 H5A 107.3
C6 C5 H5B 107.3
C4 C5 H5B 107.3
H5A C5 H5B 106.9
C2 C3 C4 123.8(7)
C2 C3 H3A 106.4
C4 C3 H3A 106.4
C2 C3 H3B 106.4
C4 C3 H3B 106.4
H3A C3 H3B 106.5
C3 C2 N2 117.9(7)
C3 C2 H2A 107.8
N2 C2 H2A 107.8
C3 C2 H2B 107.8
N2 C2 H2B 107.8
H2A C2 H2B 107.2
C5 C6 N2 121.8(7)
C5 C6 H15A 106.9
N2 C6 H15A 106.9
C5 C6 H15B 106.9
N2 C6 H15B 106.9
H15A C6 H15B 106.7
loop_
_geom_bond_atom_site_label_1
_geom_bond_atom_site_label_2
_geom_bond_distance
S1 C1 1.674(6)
O1 C13 1.226(6)
N1 C1 1.378(7)
N1 C7 1.407(6)
N1 H1 0.8800
C12 C7 1.383(7)
C12 C11 1.407(6)
C12 H12 0.9500
C11 C10 1.400(7)
C11 C13 1.481(8)
C13 C14 1.498(6)
C7 C8 1.398(7)
C14 H14A 0.9800
C14 H14B 0.9800
C14 H14C 0.9800
C10 C9 1.376(8)
C10 H10 0.9500
C8 C9 1.383(8)
C8 H8 0.9500
C9 H9 0.9500
C1 N2 1.342(8)
N2 C6 1.435(9)
N2 C2 1.445(9)
C4 C3 1.461(9)
C4 C5 1.497(8)
C4 H4A 0.9900
C4 H4B 0.9900
C5 C6 1.337(9)
C5 H5A 0.9900
C5 H5B 0.9900
C3 C2 1.358(10)
C3 H3A 0.9900
C3 H3B 0.9900
C2 H2A 0.9900
C2 H2B 0.9900
C6 H15A 0.9900
C6 H15B 0.9900
