#------------------------------------------------------------------------------
#$Date: 2019-11-24 08:39:55 +0200 (Sun, 24 Nov 2019) $
#$Revision: 237335 $
#$URL: file:///home/coder/svn-repositories/cod/cif/1/55/45/1554553.cif $
#------------------------------------------------------------------------------
#
# This file is available in the Crystallography Open Database (COD),
# http://www.crystallography.net/
#
# All data on this site have been placed in the public domain by the
# contributors.
#
data_1554553
loop_
_publ_author_name
'Ge, Hangming'
'Shen, Qilong'
_publ_section_title
;
 Trifluoromethyl-substituted selenium ylide: a broadly applicable
 electrophilic trifluoromethylating reagent
;
_journal_issue                   13
_journal_name_full               'Organic Chemistry Frontiers'
_journal_page_first              2205
_journal_paper_doi               10.1039/C8QO01249K
_journal_volume                  6
_journal_year                    2019
_chemical_formula_sum            'C12 H10 F3 N O6 Se'
_chemical_formula_weight         400.17
_space_group_crystal_system      triclinic
_space_group_IT_number           2
_space_group_name_Hall           '-P 1'
_space_group_name_H-M_alt        'P -1'
_atom_sites_solution_hydrogens   geom
_audit_creation_method           SHELXL-2013
_audit_update_record
;
2018-11-16 deposited with the CCDC.
2019-01-03 downloaded from the CCDC.
;
_cell_angle_alpha                66.084(14)
_cell_angle_beta                 65.463(14)
_cell_angle_gamma                64.347(15)
_cell_formula_units_Z            2
_cell_length_a                   9.809(8)
_cell_length_b                   9.877(8)
_cell_length_c                   9.925(8)
_cell_measurement_reflns_used    1502
_cell_measurement_temperature    293(2)
_cell_measurement_theta_max      48.291
_cell_measurement_theta_min      4.760
_cell_volume                     758.1(11)
_computing_cell_refinement       'Bruker SMART'
_computing_data_collection       'Bruker SMART'
_computing_data_reduction        'Bruker SHELXTL'
_computing_molecular_graphics    'Bruker SHELXTL'
_computing_publication_material  'Bruker SHELXTL'
_computing_structure_refinement  'SHELXL-2013 (Sheldrick, 2013)'
_computing_structure_solution    'Bruker SHELXTL'
_diffrn_ambient_temperature      293(2)
_diffrn_measured_fraction_theta_full 0.992
_diffrn_measured_fraction_theta_max 0.992
_diffrn_measurement_device_type  'CCD area detector'
_diffrn_measurement_method       'phi and omega scans'
_diffrn_radiation_type           MoK\a
_diffrn_radiation_wavelength     0.71073
_diffrn_reflns_av_R_equivalents  0.0283
_diffrn_reflns_av_unetI/netI     0.0622
_diffrn_reflns_Laue_measured_fraction_full 0.992
_diffrn_reflns_Laue_measured_fraction_max 0.992
_diffrn_reflns_limit_h_max       8
_diffrn_reflns_limit_h_min       -11
_diffrn_reflns_limit_k_max       8
_diffrn_reflns_limit_k_min       -11
_diffrn_reflns_limit_l_max       11
_diffrn_reflns_limit_l_min       -12
_diffrn_reflns_number            4158
_diffrn_reflns_point_group_measured_fraction_full 0.992
_diffrn_reflns_point_group_measured_fraction_max 0.992
_diffrn_reflns_theta_full        25.242
_diffrn_reflns_theta_max         25.497
_diffrn_reflns_theta_min         2.346
_exptl_absorpt_coefficient_mu    2.539
_exptl_absorpt_correction_T_max  0.7456
_exptl_absorpt_correction_T_min  0.4196
_exptl_absorpt_correction_type   multi-scan
_exptl_absorpt_process_details   sadabs
_exptl_crystal_colour            colorless
_exptl_crystal_density_diffrn    1.753
_exptl_crystal_description       prismatic
_exptl_crystal_F_000             396
_exptl_crystal_size_max          0.200
_exptl_crystal_size_mid          0.160
_exptl_crystal_size_min          0.100
_refine_diff_density_max         1.051
_refine_diff_density_min         -0.447
_refine_diff_density_rms         0.100
_refine_ls_extinction_method     none
_refine_ls_goodness_of_fit_ref   1.001
_refine_ls_hydrogen_treatment    constr
_refine_ls_matrix_type           full
_refine_ls_number_parameters     210
_refine_ls_number_reflns         2778
_refine_ls_number_restraints     0
_refine_ls_restrained_S_all      1.001
_refine_ls_R_factor_all          0.0583
_refine_ls_R_factor_gt           0.0435
_refine_ls_shift/su_max          0.001
_refine_ls_shift/su_mean         0.000
_refine_ls_structure_factor_coef Fsqd
_refine_ls_weighting_details
'w=1/[\s^2^(Fo^2^)+(0.0516P)^2^] where P=(Fo^2^+2Fc^2^)/3'
_refine_ls_weighting_scheme      calc
_refine_ls_wR_factor_gt          0.0930
_refine_ls_wR_factor_ref         0.0982
_reflns_Friedel_coverage         0.000
_reflns_number_gt                2231
_reflns_number_total             2778
_reflns_threshold_expression     'I > 2\s(I)'
_cod_data_source_file            c8qo01249k2.cif
_cod_data_source_block           cd16760
_cod_original_cell_volume        758.0(10)
_cod_database_code               1554553
_shelx_space_group_comment
; 
The symmetry employed for this shelxl refinement is uniquely defined 
by the following loop, which should always be used as a source of 
symmetry information in preference to the above space-group names. 
They are only intended as comments. 
;
_shelx_estimated_absorpt_t_min   0.631
_shelx_estimated_absorpt_t_max   0.785
_shelxl_version_number           2013-4
_shelx_res_file
; 
TITL cd16760 in P-1 
CELL 0.71073   9.8086   9.8767   9.9249  66.084  65.463  64.347 
ZERR    2.00   0.0079   0.0076   0.0076   0.014   0.014   0.015 
LATT 1 
SFAC C  H  N  O  F  Se 
UNIT 24 20 2 12 6 2 
OMIT   4   3   5 
OMIT    -1   2   1 
OMIT    -3   5   3 
OMIT    -4  -4   1 
OMIT  -3.00  51.00 
L.S. 10 
ACTA 
BOND  $H 
FMAP 2 
PLAN 20 
wpdb -1 
size 0.20 0.16 0.10 
mpla c7 > c12 
htab 
conf 
EQIV $1 -x+2, -y+1, -z+2 
HTAB C9 O2_$1 
EQIV $2 x, y+1, z 
HTAB C11 O3_$2 
EQIV $3 -x+2, -y+2, -z+1 
HTAB C12 O1_$3 
WGHT    0.051600 
FVAR       0.25385 
SE1   6    0.858011    0.912310    0.683644    11.00000    0.03621    0.02633 = 
         0.02294   -0.00695   -0.00673   -0.01210 
F1    5    0.588412    1.134083    0.613691    11.00000    0.06133    0.05131 = 
         0.06252    0.00167   -0.03061   -0.00341 
F2    5    0.533097    1.003290    0.848700    11.00000    0.03461    0.06993 = 
         0.04722   -0.02687   -0.00386   -0.01329 
F3    5    0.583461    0.901561    0.672808    11.00000    0.05180    0.08257 = 
         0.07050   -0.03731   -0.02288   -0.02172 
N1    3    0.790051    1.051459    1.262334    11.00000    0.05000    0.06073 = 
         0.03464   -0.01830   -0.00629   -0.02655 
O1    4    1.123178    0.738160    0.492030    11.00000    0.05742    0.03891 = 
         0.04169   -0.01231    0.00242   -0.02031 
O2    4    1.105592    0.496906    0.609667    11.00000    0.06224    0.03148 = 
         0.04825   -0.01733    0.00580   -0.01041 
O3    4    0.858330    0.462518    0.870474    11.00000    0.07006    0.02892 = 
         0.05802   -0.00984   -0.00001   -0.01878 
O4    4    0.705377    0.682826    0.940023    11.00000    0.04772    0.03209 = 
         0.04059   -0.00944   -0.00033   -0.01622 
O5    4    0.821683    0.941249    1.372105    11.00000    0.09690    0.08210 = 
         0.04271   -0.02076   -0.03432   -0.01432 
O6    4    0.749648    1.185771    1.259471    11.00000    0.15095    0.06906 = 
         0.04810   -0.02296   -0.02327   -0.05099 
C1    1    0.622083    0.992220    0.709645    11.00000    0.04517    0.04329 = 
         0.03160   -0.00987   -0.01159   -0.01576 
C2    1    0.916028    0.697842    0.719253    11.00000    0.04058    0.02571 = 
         0.02797   -0.00655   -0.00754   -0.01312 
C3    1    1.054582    0.649618    0.597618    11.00000    0.05132    0.02864 = 
         0.03045   -0.00760   -0.01505   -0.01125 
C4    1    1.243746    0.446397    0.487336    11.00000    0.07885    0.04525 = 
         0.06464   -0.02651    0.01291   -0.01450 
AFIX 137 
H4A   2    1.217955    0.493031    0.391674    11.00000   -1.50000 
H4B   2    1.277520    0.334692    0.510111    11.00000   -1.50000 
H4C   2    1.327317    0.477996    0.479154    11.00000   -1.50000 
AFIX   0 
C5    1    0.828901    0.601704    0.844651    11.00000    0.04525    0.03318 = 
         0.03250   -0.00687   -0.01122   -0.01436 
C6    1    0.625286    0.593478    1.082184    11.00000    0.06278    0.05794 = 
         0.04823   -0.00865    0.01757   -0.03087 
AFIX 137 
H6A   2    0.568919    0.548830    1.061454    11.00000   -1.50000 
H6B   2    0.552109    0.660350    1.147478    11.00000   -1.50000 
H6C   2    0.701218    0.511446    1.132781    11.00000   -1.50000 
AFIX   0 
C7    1    0.834426    0.949675    0.872229    11.00000    0.03392    0.03222 = 
         0.02238   -0.00734   -0.00427   -0.01643 
C8    1    0.878917    0.827893    0.994457    11.00000    0.03374    0.03225 = 
         0.03664   -0.01029   -0.01293   -0.00945 
AFIX  43 
H8    2    0.917717    0.725106    0.990073    11.00000   -1.20000 
AFIX   0 
C9    1    0.864962    0.860916    1.124288    11.00000    0.03662    0.04011 = 
         0.03271   -0.00549   -0.01106   -0.01774 
AFIX  43 
H9    2    0.894766    0.781377    1.207867    11.00000   -1.20000 
AFIX   0 
C10   1    0.805829    1.014570    1.124802    11.00000    0.03020    0.04760 = 
         0.02562   -0.01509   -0.00301   -0.02045 
C11   1    0.767749    1.138373    0.999893    11.00000    0.03863    0.03337 = 
         0.03708   -0.01225   -0.00720   -0.01538 
AFIX  43 
H11   2    0.733313    1.241172    1.002867    11.00000   -1.20000 
AFIX   0 
C12   1    0.782325    1.104964    0.870796    11.00000    0.04092    0.02861 = 
         0.02749   -0.00356   -0.00899   -0.01509 
AFIX  43 
H12   2    0.757730    1.184854    0.785161    11.00000   -1.20000 
AFIX   0 
HKLF 4 
  
REM  cd16760 in P-1 
REM R1 =  0.0435 for    2231 Fo > 4sig(Fo)  and  0.0583 for all    2778 data 
REM    210 parameters refined using      0 restraints 
  
END 
  
WGHT      0.0493      0.0000 
  
REM Instructions for potential hydrogen bonds 
HTAB C9 O2_$1 
HTAB C11 O3_$2 
HTAB C12 O1_$3 
  
REM Highest difference peak  1.051,  deepest hole -0.447,  1-sigma level  0.100 
Q1    1   0.7497  0.9725  0.6617  11.00000  0.05    1.05 
Q2    1   0.9689  0.8405  0.6934  11.00000  0.05    0.76 
Q3    1   0.8521  1.0166  0.5635  11.00000  0.05    0.75 
Q4    1   0.8533  0.9298  0.7728  11.00000  0.05    0.63 
Q5    1   0.8388  0.8182  0.7113  11.00000  0.05    0.60 
Q6    1   0.8693  0.7986  0.8067  11.00000  0.05    0.57 
Q7    1   0.9887  0.9217  0.5864  11.00000  0.05    0.57 
Q8    1   0.8796  1.0009  0.6389  11.00000  0.05    0.57 
Q9    1   0.8679  0.8939  0.5922  11.00000  0.05    0.55 
Q10   1   0.7282  0.9082  0.7894  11.00000  0.05    0.51 
Q11   1   0.8715  1.0800  0.8957  11.00000  0.05    0.40 
Q12   1   0.8532  1.0268  0.8392  11.00000  0.05    0.37 
Q13   1   0.7482  1.0380  0.8873  11.00000  0.05    0.34 
Q14   1   0.9902  0.6759  0.6638  11.00000  0.05    0.32 
Q15   1   0.6150  1.0530  0.6251  11.00000  0.05    0.32 
Q16   1   0.5809  0.9434  0.7730  11.00000  0.05    0.30 
Q17   1   0.6230  0.9285  0.8659  11.00000  0.05    0.30 
Q18   1   0.5141  1.1216  0.7074  11.00000  0.05    0.29 
Q19   1   0.8087  0.9395  1.1137  11.00000  0.05    0.29 
Q20   1   0.4965  0.5866  1.0963  11.00000  0.05    0.29 
;
_shelx_res_checksum              89415
_shelx_hkl_file
; 
   1   0   0  317.50    6.30 
  -1   0   0  314.52    6.48 
   2   0   0  230.57    5.05 
  -2   0   0  233.66    5.23 
  -3   0   0  757.51   15.51 
  -4   0   0  287.19    6.98 
  -5   0   0   -0.01    0.91 
  -6   0   0    5.30    1.60 
  -7   0   0   62.21    3.70 
  -8   0   0   17.49    2.71 
  -9   0   0    1.61    2.22 
 -10   0   0    5.39    2.67 
 -11   0   0    6.96    3.06 
 -10   0   1    1.75    2.67 
  -9   0   1   15.41    2.84 
  -8   0   1   12.67    2.59 
  -7   0   1    6.44    2.11 
  -6   0   1   31.20    2.72 
  -5   0   1   43.82    2.58 
  -4   0   1    0.30    0.88 
  -3   0   1  176.33    4.64 
   3   0  -1  182.14    3.88 
  -2   0   1    1.25    0.54 
   2   0  -1    1.68    0.35 
   2   0  -1    1.28    0.33 
  -1   0   1   53.09    1.47 
   1   0  -1   53.02    1.27 
   1   0  -1   51.62    1.31 
   0   0   1    1.47    0.22 
   0   0  -1    1.83    0.17 
   1   0   1  350.97    7.10 
  -2   0  -1  138.66    3.17 
  -3   0  -1  196.69    4.62 
  -4   0  -1  236.01    5.82 
  -5   0  -1   46.77    2.38 
  -6   0  -1   95.02    3.73 
  -7   0  -1    3.78    1.66 
  -8   0  -1   35.28    3.01 
  -9   0  -1   12.93    2.70 
 -10   0  -1    1.40    2.56 
 -11   0  -1    5.61    2.97 
 -10   0   2    2.22    2.60 
  -9   0   2    0.95    2.54 
  -8   0   2   15.77    2.94 
  -7   0   2   -0.91    1.79 
  -6   0   2    1.22    1.67 
  -5   0   2   17.80    1.99 
  -4   0   2   65.53    2.84 
   4   0  -2   68.60    2.30 
  -3   0   2    0.06    0.61 
   3   0  -2    0.12    0.43 
  -2   0   2   12.94    1.02 
   2   0  -2   11.78    0.79 
  -1   0   2   11.17    0.81 
   1   0  -2   13.19    0.66 
   0   0   2   68.49    1.86 
   0   0  -2   69.94    1.57 
   1   0   2   -0.17    0.26 
  -1   0  -2   -0.55    0.12 
   2   0   2   37.51    1.36 
   3   0   2  334.92    7.37 
  -4   0  -2    3.03    0.69 
  -5   0  -2   79.80    2.91 
  -6   0  -2   24.47    2.02 
  -7   0  -2   46.39    2.94 
  -8   0  -2   11.92    2.27 
  -9   0  -2    6.70    2.16 
 -10   0  -2   14.87    2.93 
 -11   0  -2    2.22    2.88 
 -10   0   3    3.45    2.87 
  -9   0   3    1.55    2.48 
  -8   0   3    3.42    2.45 
  -7   0   3   28.34    2.89 
  -6   0   3    0.21    1.55 
  -5   0   3    7.99    1.74 
   5   0  -3    7.19    1.24 
  -4   0   3  104.44    3.71 
   4   0  -3  102.16    3.15 
   3   0  -3   90.49    2.67 
  -2   0   3   46.62    1.91 
   2   0  -3   45.47    1.64 
  -1   0   3   28.04    1.33 
   1   0  -3   29.27    1.14 
   0   0   3  153.02    3.79 
   0   0  -3  156.75    3.22 
   1   0   3   11.37    0.86 
  -1   0  -3   11.59    0.57 
   2   0   3   46.29    1.72 
   3   0   3   52.10    1.95 
   4   0   3   75.97    2.69 
  -5   0  -3   23.92    1.52 
  -6   0  -3    2.06    1.00 
  -7   0  -3   32.13    2.46 
  -8   0  -3   15.23    2.23 
  -9   0  -3    0.37    1.89 
 -10   0  -3   -0.54    2.17 
 -11   0  -3   10.70    3.07 
  -9   0   4    0.62    2.61 
  -8   0   4    4.90    2.65 
  -7   0   4    2.75    2.13 
   5   0  -4   47.69    2.49 
  -4   0   4    7.82    1.60 
   4   0  -4   12.46    1.40 
  -3   0   4  110.07    3.70 
   3   0  -4  114.31    3.26 
  -2   0   4   30.43    1.72 
   2   0  -4   32.26    1.49 
  -1   0   4   97.98    3.00 
   1   0  -4   94.80    2.57 
   0   0   4   84.66    2.67 
   0   0  -4   82.68    2.19 
   1   0   4   92.42    2.78 
  -1   0  -4   93.84    2.25 
   2   0   4  200.32    5.03 
  -2   0  -4  207.33    4.04 
   3   0   4    0.12    0.60 
   4   0   4   23.98    1.57 
   5   0   4   14.89    1.49 
  -6   0  -4    7.27    1.30 
  -7   0  -4    0.76    1.19 
  -8   0  -4    9.98    1.90 
  -9   0  -4    1.65    1.71 
 -10   0  -4    2.24    2.21 
 -11   0  -4    1.62    2.72 
  -8   0   5    1.96    2.64 
  -7   0   5    8.30    2.84 
  -6   0   5    5.10    2.34 
  -5   0   5    8.54    2.10 
   5   0  -5    5.17    1.43 
  -4   0   5  135.83    4.72 
   4   0  -5  133.81    4.15 
  -3   0   5   19.10    1.84 
   3   0  -5   17.29    1.48 
  -2   0   5    2.65    0.96 
   2   0  -5    1.63    0.68 
  -1   0   5  105.00    3.48 
   1   0  -5  111.40    3.03 
   0   0   5  157.64    4.54 
   0   0  -5  169.02    3.84 
   1   0   5    3.23    0.79 
  -1   0  -5    4.12    0.61 
   2   0   5   63.04    2.47 
  -2   0  -5   63.25    1.84 
   3   0   5  138.65    4.09 
  -3   0  -5  131.23    3.00 
   4   0   5    1.40    0.82 
   5   0   5    0.62    0.90 
   6   0   5   46.60    2.62 
  -7   0  -5   20.96    1.99 
  -8   0  -5    2.12    1.38 
  -9   0  -5    9.68    2.26 
 -10   0  -5    7.18    2.47 
 -11   0  -5   -0.81    2.64 
  -8   0   6    4.29    2.59 
  -7   0   6   10.72    2.86 
  -6   0   6   18.08    3.12 
   6   0  -6   14.38    1.99 
  -5   0   6    3.01    2.09 
   5   0  -6    3.53    1.46 
  -4   0   6    8.64    1.92 
   4   0  -6    5.74    1.35 
  -3   0   6  144.67    4.86 
   3   0  -6  139.99    4.20 
  -2   0   6   67.33    3.05 
   2   0  -6   66.10    2.58 
  -1   0   6    4.43    1.20 
   1   0  -6    3.76    0.86 
   0   0   6   67.09    2.94 
   0   0  -6   72.09    2.38 
   1   0   6  106.72    3.62 
  -1   0  -6  111.57    2.96 
   2   0   6   80.71    3.08 
  -2   0  -6   83.84    2.37 
   3   0   6   29.30    1.93 
  -3   0  -6   29.36    1.29 
   4   0   6   91.46    3.44 
  -4   0  -6   88.57    2.38 
   5   0   6   43.34    2.51 
  -5   0  -6   43.02    1.55 
   6   0   6    1.18    1.31 
  -7   0  -6   39.86    2.58 
  -8   0  -6   21.60    2.25 
  -9   0  -6   10.79    2.28 
 -10   0  -6    7.89    2.56 
 -11   0  -6    6.05    3.07 
  -7   0   7    2.09    2.34 
  -6   0   7    0.46    2.47 
  -5   0   7   10.26    2.61 
   5   0  -7    7.77    1.82 
  -4   0   7    9.05    2.30 
   4   0  -7    7.69    1.54 
  -3   0   7    0.94    1.52 
   3   0  -7    0.67    1.05 
  -2   0   7   52.62    3.00 
   2   0  -7   49.79    2.45 
  -1   0   7  125.86    4.57 
   1   0  -7  132.33    3.87 
   0   0   7   33.21    2.43 
   0   0  -7   35.18    1.81 
   1   0   7   57.71    2.80 
  -1   0  -7   49.79    2.07 
   2   0   7  100.15    3.72 
  -2   0  -7   93.98    2.80 
   3   0   7   65.97    3.04 
  -3   0  -7   66.50    2.19 
   4   0   7    4.12    1.36 
  -4   0  -7    2.98    0.71 
   5   0   7   35.87    2.45 
  -5   0  -7   34.53    1.52 
   6   0   7   31.84    2.44 
   7   0   7   -2.01    1.33 
  -8   0  -7    3.51    1.72 
  -9   0  -7   11.43    2.13 
 -10   0  -7    1.35    2.30 
 -11   0  -7    1.03    2.79 
  -6   0   8    0.63    2.32 
  -5   0   8    1.11    2.25 
   5   0  -8    0.50    1.57 
  -4   0   8    6.56    2.37 
   4   0  -8    9.41    1.82 
  -3   0   8    2.25    2.11 
   3   0  -8    2.20    1.28 
  -2   0   8    8.27    2.04 
   2   0  -8    8.65    1.53 
  -1   0   8    1.54    1.56 
   1   0  -8    2.10    1.04 
   0   0   8    0.14    1.26 
   0   0  -8    1.32    0.93 
   1   0   8    0.52    1.25 
  -1   0  -8    0.36    0.81 
   2   0   8    0.52    1.21 
  -2   0  -8    0.91    0.77 
   3   0   8    0.34    1.22 
  -3   0  -8   -0.15    0.69 
   4   0   8   31.47    2.42 
  -4   0  -8   28.08    1.51 
   5   0   8    8.52    1.90 
   6   0   8   11.68    2.04 
   7   0   8   27.34    2.90 
  -8   0  -8    4.16    1.85 
  -9   0  -8    1.64    1.93 
 -10   0  -8    8.93    2.74 
   5   0  -9    5.64    1.95 
  -4   0   9    3.75    2.32 
   4   0  -9    0.09    1.51 
  -3   0   9    5.79    2.51 
   3   0  -9   13.08    2.00 
  -2   0   9   15.52    2.89 
   2   0  -9   19.67    2.10 
  -1   0   9    2.05    2.22 
   1   0  -9    2.68    1.28 
   0   0   9    1.39    1.64 
   0   0  -9    2.04    1.17 
   1   0   9   34.25    2.76 
  -1   0  -9   35.04    2.07 
   2   0   9    9.11    2.01 
  -2   0  -9    9.16    1.33 
   3   0   9   10.38    1.99 
  -3   0  -9    7.35    1.24 
   4   0   9   19.88    2.55 
  -4   0  -9   21.19    1.52 
   5   0   9   20.15    2.54 
   6   0   9   -0.52    1.63 
   7   0   9    6.45    2.26 
   8   0   9   18.37    2.85 
  -9   0  -9    7.23    2.34 
 -10   0  -9    1.94    2.24 
  -3   0  10    2.94    2.40 
   3   0 -10   -0.16    1.73 
  -2   0  10    9.98    2.84 
   2   0 -10   15.25    2.18 
  -1   0  10   19.66    3.17 
   1   0 -10   28.32    2.39 
   0   0  10    9.89    2.60 
   0   0 -10    8.02    1.65 
   1   0  10    2.96    2.19 
  -1   0 -10    1.01    1.15 
   2   0  10   15.18    2.71 
  -2   0 -10   17.08    1.80 
   3   0  10    6.14    2.21 
  -3   0 -10    5.11    1.21 
   4   0  10   -0.58    1.87 
   5   0  10    8.03    2.25 
   6   0  10    5.28    2.06 
   7   0  10    0.95    1.94 
   8   0  10    0.18    2.17 
  -9   0 -10    4.53    2.39 
  -1   0  11    3.87    2.41 
   1   0 -11    2.48    1.77 
   0   0  11   14.10    2.95 
   0   0 -11   20.02    2.32 
   1   0  11    8.92    2.81 
  -1   0 -11    9.94    1.83 
   2   0  11    0.21    2.18 
  -2   0 -11    0.69    1.32 
   3   0  11   10.25    2.69 
   4   0  11   12.98    2.79 
   5   0  11    0.35    2.04 
   6   0  11   11.78    2.57 
   7   0  11    5.80    2.33 
   8   0  11    0.90    2.58 
   2   0  12   11.27    2.67 
   3   0  12    5.76    2.36 
   4   0  12    8.21    2.49 
   5   0  12   11.08    2.64 
   6  -1  11    0.20    2.32 
   5  -1  11    3.91    2.28 
   4  -1  11   12.40    2.69 
   3  -1  11    7.74    2.47 
   2  -1  11    2.39    2.19 
   1  -1  11   10.39    2.72 
   0   1 -11   10.13    1.96 
   0  -1  11    5.02    2.54 
  -1  -1  11    4.87    2.58 
   8  -1  10    2.17    2.60 
   7  -1  10    7.67    2.32 
   6  -1  10    6.53    2.26 
   5  -1  10    2.51    2.07 
   4  -1  10    9.04    2.56 
   3  -1  10   11.13    2.58 
   2  -1  10    6.90    2.46 
  -1   1 -10   -1.03    1.18 
   1  -1  10    1.27    2.18 
   0   1 -10   10.05    1.72 
   0  -1  10    4.72    2.56 
   1   1 -10   14.71    2.07 
  -1  -1  10   12.52    2.79 
   2   1 -10    1.71    1.53 
  -2  -1  10    0.07    2.36 
   3   1 -10    4.08    1.99 
  -3  -1  10    7.44    2.58 
  -9   1  -9    6.07    2.63 
   8  -1   9    8.51    2.48 
   7  -1   9    2.39    2.14 
   6  -1   9    7.98    2.24 
   5  -1   9   31.84    2.92 
   4  -1   9    6.74    2.17 
   3  -1   9   10.15    2.28 
  -2   1  -9   20.73    1.64 
   2  -1   9   19.08    2.82 
  -1   1  -9   41.40    2.20 
   1  -1   9   39.95    3.27 
   0   1  -9    1.25    1.16 
   0  -1   9    3.64    2.07 
   1   1  -9   16.60    1.91 
  -1  -1   9   14.30    2.83 
   2   1  -9   35.59    2.54 
  -2  -1   9   33.33    3.39 
   3   1  -9   13.33    2.08 
  -3  -1   9    9.28    2.72 
   4   1  -9    2.05    1.75 
  -4  -1   9    3.71    2.41 
 -10   1  -8    0.32    2.51 
  -9   1  -8   -1.84    1.81 
   7  -1   8   15.08    2.65 
   6  -1   8   -0.13    1.63 
   5  -1   8    2.92    1.74 
   4  -1   8   33.43    2.65 
  -3   1  -8    2.45    0.76 
   3  -1   8    2.33    1.46 
  -2   1  -8    4.07    0.91 
   2  -1   8    4.59    1.66 
  -1   1  -8   25.88    1.71 
   1  -1   8   25.44    2.52 
   0   1  -8    2.72    1.02 
   0  -1   8    6.06    1.73 
   1   1  -8    2.18    1.08 
  -1  -1   8    4.24    1.81 
   2   1  -8    0.43    1.13 
  -2  -1   8   -1.81    1.75 
   3   1  -8   10.86    1.79 
  -3  -1   8   13.14    2.70 
   4   1  -8   10.13    1.89 
  -4  -1   8   13.33    2.62 
   5   1  -8    1.63    1.52 
  -5  -1   8    0.29    2.21 
  -6  -1   8    5.75    2.34 
 -10   1  -7    4.13    2.63 
  -9   1  -7    1.46    1.84 
  -8   1  -7    1.33    1.77 
   7  -1   7    6.85    2.15 
   6  -1   7   14.92    2.17 
   4  -1   7    0.91    1.30 
  -3   1  -7   15.85    1.11 
   3  -1   7   16.48    2.01 
  -2   1  -7   25.43    1.40 
   2  -1   7   26.82    2.25 
  -1   1  -7   19.11    1.35 
   1  -1   7   21.55    2.17 
   0   1  -7   82.93    2.83 
   0  -1   7   80.52    3.68 
   1   1  -7   25.46    1.76 
  -1  -1   7   30.57    2.52 
   2   1  -7    0.83    0.95 
  -2  -1   7    0.75    1.47 
   3   1  -7   25.22    2.04 
  -3  -1   7   29.55    2.61 
   4   1  -7   29.17    2.30 
  -4  -1   7   27.96    2.83 
   5   1  -7    3.26    1.42 
  -5  -1   7   -3.85    2.07 
  -6  -1   7   -1.74    2.17 
  -7  -1   7    3.84    2.44 
 -10   1  -6   -2.25    2.23 
  -9   1  -6    8.90    2.34 
  -8   1  -6   28.52    2.68 
   6  -1   6    2.45    1.52 
   5  -1   6   70.60    3.27 
  -4   1  -6   45.70    1.53 
   4  -1   6   49.49    2.63 
  -3   1  -6    1.46    0.54 
   3  -1   6    0.86    0.99 
  -2   1  -6   41.53    1.57 
   2  -1   6   36.90    2.26 
  -1   1  -6   65.03    2.13 
   1  -1   6   62.97    2.92 
   0   1  -6   24.09    1.38 
   0  -1   6   21.20    1.93 
   1   1  -6   14.90    1.30 
  -1  -1   6   17.64    1.91 
   2   1  -6   13.64    1.42 
  -2  -1   6   16.15    1.92 
   3   1  -6   16.22    1.68 
  -3  -1   6   19.01    2.14 
   4   1  -6    0.04    1.02 
  -4  -1   6    0.91    1.41 
   5   1  -6    1.99    1.32 
  -5  -1   6    3.18    2.06 
  -6  -1   6   10.34    2.84 
  -7  -1   6    1.41    2.50 
  -8  -1   6    2.75    2.75 
 -11   1  -5    8.85    3.30 
 -10   1  -5   10.49    2.84 
  -9   1  -5    1.41    1.91 
  -8   1  -5   17.03    2.30 
  -7   1  -5   20.14    2.13 
   6  -1   5   43.34    2.71 
   5  -1   5    5.62    1.36 
  -4   1  -5   66.46    1.77 
   4  -1   5   71.94    3.00 
  -3   1  -5   51.76    1.51 
   3  -1   5   50.83    2.46 
  -2   1  -5    1.29    0.44 
   2  -1   5    1.67    0.83 
  -1   1  -5   49.68    1.68 
   1  -1   5   53.18    2.42 
   0   1  -5   43.74    1.66 
   0  -1   5   42.02    2.22 
   1   1  -5   43.51    1.76 
  -1  -1   5   40.62    2.22 
   2   1  -5    0.54    0.65 
  -2  -1   5    0.71    0.84 
   3   1  -5   79.01    2.88 
  -3  -1   5   81.07    3.37 
   4   1  -5   70.64    2.95 
  -4  -1   5   71.50    3.45 
   5   1  -5    0.47    1.08 
  -5  -1   5    1.41    1.60 
  -6  -1   5    9.09    2.39 
  -7  -1   5   11.79    2.91 
  -8  -1   5    0.75    2.47 
  -9  -1   5    5.08    3.07 
 -11   1  -4   -1.27    2.81 
 -10   1  -4    3.59    2.56 
  -9   1  -4   19.02    2.85 
  -8   1  -4    2.34    1.77 
  -7   1  -4   10.76    1.73 
  -6   1  -4   17.26    1.77 
   5  -1   4   31.88    2.13 
   4  -1   4    2.25    0.91 
  -3   1  -4    4.49    0.43 
   3  -1   4    4.91    0.98 
  -2   1  -4  131.94    2.77 
   2  -1   4  129.46    3.84 
  -1   1  -4   28.44    1.07 
   1  -1   4   26.52    1.56 
   0   1  -4   52.63    1.66 
   0  -1   4   51.27    2.20 
   1   1  -4  272.22    5.61 
  -1  -1   4  273.17    6.62 
   2   1  -4   35.01    1.57 
  -2  -1   4   32.71    1.86 
   3   1  -4    2.48    0.75 
  -3  -1   4    1.86    0.98 
   4   1  -4   94.22    3.26 
  -4  -1   4   96.85    3.71 
   5   1  -4  115.24    3.79 
  -5  -1   4  115.68    4.51 
  -6  -1   4    7.69    2.05 
  -7  -1   4    3.11    2.24 
  -9  -1   4    4.28    2.58 
 -11   1  -3    0.60    2.97 
 -10   1  -3   -0.37    2.33 
  -9   1  -3    1.98    2.18 
  -8   1  -3   28.41    2.90 
  -7   1  -3   20.87    2.32 
  -6   1  -3   15.26    1.65 
  -5   1  -3   91.87    3.16 
   4  -1   3   74.75    2.92 
   4  -1   3   65.80    2.64 
   3  -1   3    3.73    0.80 
  -2   1  -3   58.56    1.34 
   2  -1   3   57.36    2.09 
   2  -1   3   58.82    2.15 
  -1   1  -3  179.21    3.41 
   1  -1   3  173.43    4.00 
   1  -1   3  167.17    4.34 
   0   1  -3   50.99    1.45 
   0  -1   3   49.77    1.91 
   1   1  -3    4.62    0.58 
  -1  -1   3    4.60    0.75 
   2   1  -3  248.22    5.22 
  -2  -1   3  246.10    5.96 
   3   1  -3   42.71    1.79 
  -3  -1   3   44.23    2.09 
   4   1  -3   15.56    1.36 
  -4  -1   3    8.36    1.41 
  -7  -1   3   10.36    2.40 
  -8  -1   3    0.11    2.24 
  -9  -1   3    2.78    2.69 
 -10  -1   3   -5.08    2.63 
 -11   1  -2    7.51    3.32 
 -10   1  -2   13.62    2.92 
  -9   1  -2   -0.09    1.99 
  -8   1  -2    0.91    1.83 
  -7   1  -2   32.96    2.66 
  -6   1  -2   22.98    2.10 
  -5   1  -2    8.44    1.23 
   5  -1   2    9.42    1.38 
  -4   1  -2   82.56    2.67 
   4  -1   2   81.86    3.15 
   3  -1   2  133.03    3.88 
   3  -1   2  135.67    3.68 
   2  -1   2   23.88    1.24 
   2  -1   2   24.02    1.20 
  -1   1  -2    3.02    0.26 
   1  -1   2    3.06    0.55 
   1  -1   2    1.82    0.34 
   0   1  -2  730.07   12.62 
   0  -1   2  742.38   14.73 
   0  -1   2  729.00   13.96 
   1   1  -2  228.82    4.47 
  -1  -1   2  228.30    5.17 
   2   1  -2    0.29    0.34 
  -2  -1   2    0.36    0.49 
   3   1  -2   52.97    1.87 
  -4  -1   2   45.92    2.30 
  -5  -1   2   18.24    1.89 
  -6  -1   2   -0.67    1.30 
  -7  -1   2    8.55    2.12 
  -8  -1   2   41.58    3.35 
  -9  -1   2    0.89    2.14 
 -10  -1   2    4.52    2.60 
 -11   1  -1   -2.36    2.97 
 -10   1  -1    3.49    2.89 
  -9   1  -1   17.06    2.92 
  -8   1  -1    8.25    2.12 
  -7   1  -1   -0.57    1.53 
  -6   1  -1   11.86    1.89 
  -5   1  -1    0.82    0.92 
   5  -1   1    0.15    0.66 
  -4   1  -1  112.97    3.42 
   4  -1   1  123.34    3.89 
  -3   1  -1  140.01    3.51 
   3  -1   1  135.56    3.86 
   2  -1   1    6.86    0.72 
   2  -1   1    6.96    0.66 
   1  -1   1   50.35    1.52 
   1  -1   1   51.65    1.51 
   0   1  -1  164.97    3.00 
   0  -1   1  157.62    3.58 
   1   1  -1  214.22    4.19 
  -1  -1   1  231.14    4.44 
  -1  -1   1  223.19    4.80 
   2   1  -1   22.34    0.89 
  -2  -1   1   17.00    1.04 
  -3  -1   1   10.80    1.10 
  -4  -1   1    7.91    1.20 
  -5  -1   1   38.02    2.31 
  -6  -1   1   24.41    2.41 
  -7  -1   1    5.69    1.92 
  -8  -1   1    4.62    2.16 
  -9  -1   1   28.19    3.43 
 -10  -1   1   -0.99    2.36 
 -11  -1   1    3.15    2.85 
 -10   1   0    3.01    2.74 
  -9   1   0    0.90    2.44 
  -8   1   0   24.38    3.01 
  -7   1   0   29.73    2.78 
  -6   1   0    2.97    1.56 
  -5   1   0    5.11    1.34 
   5  -1   0    5.73    1.15 
  -4   1   0   35.43    1.97 
   4  -1   0   34.64    1.93 
  -3   1   0  111.01    3.23 
   3  -1   0  111.58    3.27 
  -2   1   0    8.09    0.79 
   2  -1   0    7.73    0.48 
   2  -1   0    8.74    0.71 
   1  -1   0   28.38    1.00 
   1  -1   0   27.83    0.66 
   0  -1   0  833.91   16.64 
   0  -1   0  845.31   15.90 
  -1  -1   0   86.71    1.92 
  -1  -1   0   89.36    2.06 
  -2  -1   0  164.35    3.82 
  -3  -1   0  738.44   15.07 
  -4  -1   0   31.08    1.89 
  -5  -1   0  201.82    5.73 
  -6  -1   0   93.94    3.87 
  -7  -1   0   25.69    2.71 
  -8  -1   0   -0.44    1.71 
  -9  -1   0    5.60    2.25 
 -10  -1   0    6.24    2.55 
 -11  -1   0    2.10    2.82 
 -10   1   1    3.43    2.66 
  -9   1   1   19.38    3.30 
  -8   1   1    1.60    2.20 
  -7   1   1   51.79    3.58 
  -6   1   1   88.79    4.06 
  -5   1   1   18.09    2.03 
   5  -1  -1   14.57    1.54 
  -4   1   1   79.48    3.09 
   4  -1  -1   78.12    2.27 
   4  -1  -1   76.74    2.90 
  -3   1   1  434.01    9.64 
   3  -1  -1  441.18    8.09 
   3  -1  -1  432.84    9.29 
  -2   1   1    2.45    0.65 
   2  -1  -1    2.60    0.45 
   2  -1  -1    1.82    0.35 
  -1   1   1   37.25    1.33 
   1  -1  -1   40.29    1.18 
   1  -1  -1   37.07    0.98 
   0  -1  -1  222.10    4.43 
  -1  -1  -1  187.54    3.97 
  -1  -1  -1  191.61    3.82 
  -2  -1  -1   21.90    0.97 
  -3  -1  -1  413.45    8.85 
  -4  -1  -1  122.67    3.63 
  -5  -1  -1   27.10    1.85 
  -6  -1  -1   20.37    2.00 
  -7  -1  -1   29.96    2.61 
  -8  -1  -1   30.66    3.13 
  -9  -1  -1    1.74    2.06 
 -10  -1  -1    0.39    2.29 
 -11  -1  -1    1.18    2.64 
 -10   1   2    4.40    2.91 
  -9   1   2    2.69    2.65 
  -8   1   2   21.29    2.98 
  -7   1   2    0.46    1.83 
  -6   1   2   20.73    2.54 
  -5   1   2   60.18    3.12 
   5  -1  -2   59.35    2.31 
   5  -1  -2   60.29    2.71 
  -4   1   2   15.13    1.67 
   4  -1  -2   13.22    1.32 
   4  -1  -2   11.86    1.08 
  -3   1   2  188.53    5.05 
   3  -1  -2  192.46    4.80 
   3  -1  -2  199.69    4.26 
  -2   1   2  178.70    4.36 
   2  -1  -2  170.12    4.04 
   2  -1  -2  176.24    3.70 
  -1   1   2   46.84    1.50 
   1  -1  -2   46.05    1.31 
   1  -1  -2   44.10    1.27 
   0  -1  -2  154.69    3.13 
   0  -1  -2  166.82    3.35 
  -1  -1  -2  453.91    8.70 
   2   1   2  816.56   16.06 
  -3  -1  -2  538.26   10.90 
  -4  -1  -2   13.58    1.18 
  -5  -1  -2  195.17    5.26 
  -6  -1  -2   61.70    2.84 
  -7  -1  -2   34.27    2.54 
  -8  -1  -2   40.86    3.03 
  -9  -1  -2   15.55    2.48 
 -10  -1  -2    5.20    2.43 
 -11  -1  -2    1.83    2.62 
 -12  -1  -2    4.73    3.06 
  -9   1   3   -1.46    2.26 
  -8   1   3   13.22    2.89 
  -7   1   3   21.54    2.92 
  -6   1   3    0.10    1.67 
  -5   1   3   -0.66    1.32 
   5  -1  -3    1.05    1.06 
  -4   1   3  111.37    3.91 
   4  -1  -3  113.33    3.28 
   4  -1  -3  112.38    3.61 
  -3   1   3   10.78    1.26 
   3  -1  -3   10.43    0.99 
   3  -1  -3   10.98    0.99 
  -2   1   3    1.09    0.63 
   2  -1  -3    2.89    0.57 
   2  -1  -3    3.08    0.48 
  -1   1   3  145.76    3.59 
   1  -1  -3  143.80    3.17 
   1  -1  -3  146.94    3.20 
   0   1   3  655.67   13.55 
   0  -1  -3  711.64   13.01 
   0  -1  -3  681.90   11.96 
   1   1   3    0.11    0.26 
  -1  -1  -3    0.47    0.24 
  -1  -1  -3    0.26    0.18 
   2   1   3  192.63    4.39 
   3   1   3  518.57   10.74 
  -4  -1  -3  303.06    6.74 
  -5  -1  -3   19.42    1.46 
  -6  -1  -3   14.50    1.61 
  -7  -1  -3   93.47    3.82 
  -8  -1  -3   34.45    2.80 
  -9  -1  -3    1.31    1.68 
 -10  -1  -3   14.01    2.65 
 -11  -1  -3   18.01    3.19 
 -12  -1  -3    1.02    3.04 
  -9   1   4    0.21    2.76 
  -8   1   4    5.03    2.68 
  -7   1   4   23.73    3.20 
  -6   1   4   16.02    2.48 
   6  -1  -4   11.25    1.62 
  -5   1   4   18.54    2.37 
   5  -1  -4   17.83    1.76 
  -4   1   4    0.84    1.17 
   4  -1  -4    0.60    0.91 
   3  -1  -4  149.63    3.85 
   3  -1  -4  145.14    3.91 
  -2   1   4   32.08    1.72 
   2  -1  -4   32.63    1.27 
   2  -1  -4   29.36    1.45 
  -1   1   4   26.15    1.38 
   1  -1  -4   24.83    1.20 
   0   1   4  218.14    5.11 
   0  -1  -4  220.86    4.52 
   1   1   4   10.49    0.88 
  -1  -1  -4   10.46    0.56 
  -1  -1  -4   12.20    0.73 
   2   1   4    4.03    0.66 
   3   1   4    4.74    0.76 
   4   1   4   57.02    2.20 
  -5  -1  -4   56.30    2.22 
  -6  -1  -4    0.39    0.73 
  -7  -1  -4   21.14    2.09 
  -8  -1  -4   24.28    2.44 
  -9  -1  -4    4.94    1.98 
 -10  -1  -4   -0.62    1.90 
 -11  -1  -4    4.25    2.51 
 -12  -1  -4   -0.65    2.94 
  -8   1   5   -0.14    2.48 
  -7   1   5    0.02    2.36 
  -6   1   5    2.30    2.17 
   6  -1  -5    2.14    1.32 
  -5   1   5    1.61    1.72 
   5  -1  -5    5.31    1.34 
  -4   1   5   28.97    2.46 
   4  -1  -5   29.13    1.97 
  -3   1   5    0.01    0.93 
   3  -1  -5   -0.13    0.79 
  -2   1   5    0.62    0.80 
   2  -1  -5    0.24    0.63 
  -1   1   5  196.32    5.16 
   1  -1  -5  203.59    4.62 
   0   1   5  114.18    3.40 
   0  -1  -5  117.07    2.98 
   1   1   5   19.25    1.30 
  -1  -1  -5   18.72    1.04 
  -1  -1  -5   20.41    0.80 
   2   1   5   19.78    1.31 
  -2  -1  -5   21.68    1.03 
   3   1   5  116.90    3.49 
   4   1   5    0.82    0.72 
   5   1   5    6.62    1.20 
  -6  -1  -5   35.27    2.04 
  -7  -1  -5    6.72    1.37 
  -8  -1  -5    4.67    1.57 
  -9  -1  -5   11.74    2.28 
 -10  -1  -5    4.21    2.19 
 -11  -1  -5   -3.37    2.16 
 -12  -1  -5   -0.14    2.97 
  -8   1   6    3.52    2.63 
  -7   1   6    7.21    2.78 
  -6   1   6    5.34    2.67 
   6  -1  -6    4.04    1.58 
  -5   1   6    1.11    1.83 
   5  -1  -6    0.15    1.17 
  -4   1   6   38.13    2.77 
   4  -1  -6   35.24    2.22 
  -3   1   6   26.12    2.24 
   3  -1  -6   28.51    1.94 
  -2   1   6   12.14    1.56 
   2  -1  -6   11.99    1.28 
  -1   1   6   13.85    1.46 
   1  -1  -6   12.18    1.21 
   0   1   6  144.12    4.31 
   0  -1  -6  146.34    3.71 
   1   1   6    8.24    1.10 
  -1  -1  -6    8.51    0.89 
   2   1   6   -0.21    0.60 
  -2  -1  -6    0.17    0.49 
  -2  -1  -6    0.43    0.32 
   3   1   6  114.51    3.67 
  -3  -1  -6  118.85    2.98 
   4   1   6   77.15    2.97 
   5   1   6   10.98    1.47 
   6   1   6    3.81    1.36 
  -7  -1  -6   47.83    2.67 
  -8  -1  -6    5.88    1.52 
  -9  -1  -6   -1.18    1.44 
 -10  -1  -6   13.94    2.67 
 -11  -1  -6    2.33    2.60 
  -7   1   7    2.74    2.53 
  -6   1   7   17.43    3.32 
   6  -1  -7   16.46    2.26 
  -5   1   7   20.21    3.02 
   5  -1  -7   13.81    2.01 
  -4   1   7   -2.75    1.59 
   4  -1  -7    1.01    1.22 
  -3   1   7   29.75    2.57 
   3  -1  -7   26.88    2.03 
  -2   1   7   63.68    3.14 
   2  -1  -7   59.73    2.67 
  -1   1   7   16.79    1.91 
   1  -1  -7   14.54    1.43 
   0   1   7    0.10    0.87 
   0  -1  -7    0.36    0.68 
   1   1   7   64.21    2.80 
  -1  -1  -7   60.53    2.27 
   2   1   7  124.72    4.15 
  -2  -1  -7  130.29    3.45 
  -2  -1  -7  129.72    3.06 
   3   1   7   17.66    1.74 
  -3  -1  -7   17.47    1.21 
   4   1   7  103.37    3.75 
  -4  -1  -7  104.68    2.89 
   5   1   7   71.37    3.17 
  -5  -1  -7   69.96    2.26 
   6   1   7   25.85    2.16 
   7   1   7   20.02    2.37 
  -8  -1  -7    9.58    1.79 
  -9  -1  -7   10.25    2.15 
 -10  -1  -7   -0.69    1.99 
 -11  -1  -7    2.51    2.54 
  -6   1   8   -0.42    2.23 
   6  -1  -8    0.51    1.78 
  -5   1   8   13.50    2.96 
   5  -1  -8   16.91    2.30 
  -4   1   8   22.16    2.99 
   4  -1  -8   23.67    2.38 
  -3   1   8    6.17    1.96 
   3  -1  -8    3.49    1.34 
  -2   1   8   18.93    2.46 
   2  -1  -8   19.01    1.88 
  -1   1   8   80.70    3.75 
   1  -1  -8   82.19    3.17 
   0   1   8   19.00    2.11 
   0  -1  -8   17.56    1.62 
   1   1   8    0.93    1.06 
  -1  -1  -8    1.59    0.87 
   2   1   8    7.30    1.48 
  -2  -1  -8    5.97    1.00 
   3   1   8    7.81    1.49 
  -3  -1  -8    6.68    1.02 
   4   1   8   15.49    1.94 
  -4  -1  -8   12.24    1.20 
   5   1   8    2.83    1.31 
  -5  -1  -8    1.93    0.76 
   6   1   8   12.92    1.99 
  -6  -1  -8   11.80    1.15 
   7   1   8   23.17    2.58 
  -8  -1  -8    0.92    1.45 
  -9  -1  -8    1.74    1.78 
 -10  -1  -8   20.45    2.98 
 -11  -1  -8   -1.53    2.51 
  -5   1   9    2.97    2.23 
   5  -1  -9    0.21    1.78 
  -4   1   9    9.52    2.67 
   4  -1  -9    6.16    1.87 
  -3   1   9   16.64    2.94 
   3  -1  -9   13.71    1.94 
  -2   1   9   11.86    2.50 
   2  -1  -9   13.71    1.84 
  -1   1   9    6.84    1.98 
   1  -1  -9    3.92    1.34 
   0   1   9   51.53    3.30 
   0  -1  -9   48.82    2.56 
   1   1   9   84.68    4.01 
  -1  -1  -9   85.86    3.23 
   2   1   9    3.50    1.58 
  -2  -1  -9    2.60    1.03 
   3   1   9   44.97    2.87 
  -3  -1  -9   39.84    2.05 
   4   1   9   44.34    2.86 
  -4  -1  -9   42.61    2.05 
   5   1   9   22.31    2.32 
  -5  -1  -9   20.92    1.57 
   6   1   9    7.03    1.87 
   7   1   9   27.33    2.95 
   8   1   9   10.96    2.49 
  -9  -1  -9   -0.88    1.66 
 -10  -1  -9    4.87    2.10 
  -3   1  10    1.50    2.40 
   3  -1 -10    0.66    1.64 
  -2   1  10    8.61    2.87 
   2  -1 -10    9.24    1.89 
  -1   1  10   12.75    2.81 
   1  -1 -10   13.19    1.97 
   0   1  10    1.13    1.83 
   0  -1 -10    0.08    1.28 
   1   1  10   13.37    2.42 
  -1  -1 -10   16.44    1.89 
   2   1  10   47.49    3.19 
  -2  -1 -10   44.74    2.50 
   3   1  10    0.47    1.52 
  -3  -1 -10   -0.42    0.96 
   4   1  10    6.40    2.02 
  -4  -1 -10    6.43    1.24 
   5   1  10   18.19    2.59 
   6   1  10   10.30    2.25 
   7   1  10    0.41    1.81 
   8   1  10    1.69    2.14 
  -9  -1 -10    2.41    2.13 
  -1   1  11    5.02    2.68 
   1  -1 -11    4.60    1.84 
   0   1  11    3.92    2.54 
   0  -1 -11    5.85    1.70 
   1   1  11   -0.63    2.27 
  -1  -1 -11    2.04    1.44 
   2   1  11    1.06    2.16 
  -2  -1 -11   -0.04    1.20 
   3   1  11   10.13    2.60 
  -3  -1 -11   11.30    1.73 
   4   1  11    4.96    2.34 
  -4  -1 -11    4.96    1.38 
   5   1  11   -0.55    1.93 
   6   1  11   16.83    2.76 
   7   1  11    5.21    2.17 
   8   1  11    0.39    2.07 
  -1  -1 -12   13.55    2.19 
   2   1  12    7.43    2.70 
  -2  -1 -12    9.47    1.94 
   3   1  12    1.50    2.34 
  -3  -1 -12    0.45    1.45 
   4   1  12    6.64    2.54 
   5   1  12    6.66    2.38 
   6   1  12    2.73    2.06 
   7   1  12    9.05    2.40 
   4  -2  11    2.78    2.72 
   3  -2  11    3.22    2.52 
   2  -2  11    5.01    2.66 
   1  -2  11    7.77    2.94 
   7  -2  10    6.18    2.69 
   6  -2  10    4.51    2.29 
   5  -2  10    0.48    1.93 
   4  -2  10    6.16    2.37 
   3  -2  10   11.75    2.62 
   2  -2  10    1.11    2.02 
   1  -2  10    2.96    2.34 
   0   2 -10   10.65    1.81 
   0  -2  10    5.87    2.45 
   1   2 -10    2.91    1.60 
  -1  -2  10    8.29    2.56 
   2   2 -10    0.51    1.58 
  -2  -2  10    1.72    2.25 
   8  -2   9   -1.01    2.41 
   7  -2   9    5.84    2.16 
   6  -2   9   14.64    2.68 
   5  -2   9   19.07    2.93 
   4  -2   9   -1.09    1.90 
   3  -2   9   21.33    3.00 
   2  -2   9   20.52    2.94 
  -1   2  -9   14.34    1.56 
   1  -2   9   14.84    2.74 
   0   2  -9    5.91    1.38 
   0  -2   9    6.41    2.46 
   1   2  -9   18.45    2.01 
  -1  -2   9   16.26    3.05 
   2   2  -9   10.06    1.85 
  -2  -2   9    8.97    2.75 
   3   2  -9    0.95    1.42 
  -3  -2   9    2.10    2.31 
  -4  -2   9    4.55    2.34 
  -9   2  -8    0.71    2.18 
   7  -2   8    4.45    2.10 
   6  -2   8    0.41    1.79 
   5  -2   8    9.25    2.30 
   4  -2   8   45.36    3.22 
   3  -2   8    0.27    1.59 
   2  -2   8   11.32    2.19 
  -1   2  -8   30.68    1.87 
   1  -2   8   30.19    2.80 
   0   2  -8   10.73    1.48 
   0  -2   8   11.02    2.29 
   1   2  -8    4.60    1.30 
  -1  -2   8    2.68    1.99 
   2   2  -8    2.18    1.34 
  -2  -2   8    1.28    2.00 
   3   2  -8    2.04    1.57 
  -3  -2   8    0.56    2.21 
   4   2  -8   -0.16    1.38 
  -4  -2   8    1.25    2.18 
  -5  -2   8    2.41    2.07 
  -6  -2   8    4.36    2.76 
  -9   2  -7    0.02    2.01 
  -8   2  -7    7.31    2.19 
   7  -2   7   15.70    2.67 
   6  -2   7    3.69    1.79 
   5  -2   7    0.41    1.46 
   4  -2   7   14.87    2.20 
   3  -2   7   35.74    2.64 
  -2   2  -7    4.34    0.79 
   2  -2   7    5.23    1.58 
  -1   2  -7    1.18    0.70 
   1  -2   7    1.75    1.41 
   0   2  -7   85.46    2.94 
   0  -2   7   92.96    4.01 
   1   2  -7   24.53    1.75 
  -1  -2   7   26.95    2.53 
   2   2  -7    4.32    1.18 
  -2  -2   7    2.38    1.71 
   3   2  -7   38.48    2.44 
  -3  -2   7   33.75    3.06 
   4   2  -7   42.28    2.67 
  -4  -2   7   45.96    3.38 
  -5  -2   7   -1.73    2.13 
  -6  -2   7    5.59    2.40 
  -7  -2   7    6.21    2.89 
 -10   2  -6    1.56    2.86 
  -9   2  -6   13.80    2.79 
  -8   2  -6   11.65    2.25 
   7  -2   6    9.08    2.19 
   6  -2   6   30.71    2.57 
   5  -2   6   56.65    3.08 
   4  -2   6    1.83    1.28 
   3  -2   6   40.09    2.52 
  -2   2  -6   37.66    1.54 
   2  -2   6   41.94    2.55 
  -1   2  -6   66.43    2.22 
   1  -2   6   76.52    3.36 
   0   2  -6    6.37    0.92 
   0  -2   6    7.71    1.48 
   1   2  -6  112.45    3.42 
  -1  -2   6  118.77    4.46 
   2   2  -6   24.21    1.72 
  -2  -2   6   23.93    2.29 
   3   2  -6   14.43    1.66 
  -3  -2   6   16.98    2.22 
   4   2  -6   26.17    2.09 
  -4  -2   6   30.03    2.62 
  -5  -2   6   34.02    3.06 
  -6  -2   6   13.51    2.87 
  -7  -2   6   -2.30    2.29 
  -8  -2   6    5.47    3.02 
 -10   2  -5    3.06    2.72 
  -9   2  -5   -1.22    2.06 
  -8   2  -5   18.11    2.37 
  -7   2  -5    5.84    1.72 
   6  -2   5    2.45    1.42 
   5  -2   5   22.93    2.05 
   4  -2   5   77.53    3.34 
  -3   2  -5    3.12    0.45 
   3  -2   5    4.55    1.21 
   3  -2   5    3.33    0.94 
  -2   2  -5    1.85    0.46 
   2  -2   5    1.87    0.70 
   2  -2   5    2.31    0.99 
  -1   2  -5   18.02    1.02 
   1  -2   5   18.26    1.74 
   0   2  -5   42.14    1.66 
   0  -2   5   40.94    2.33 
   1   2  -5   -0.51    0.52 
  -1  -2   5    0.38    0.86 
   2   2  -5   14.23    1.28 
  -2  -2   5   19.08    1.87 
   3   2  -5   23.63    1.73 
  -3  -2   5   25.12    2.12 
   4   2  -5    4.02    1.18 
  -4  -2   5    4.17    1.52 
  -5  -2   5   15.29    2.32 
  -6  -2   5   16.62    2.76 
  -7  -2   5   11.43    2.76 
  -8  -2   5    0.01    2.21 
  -9  -2   5    4.72    3.06 
 -10   2  -4    5.54    2.94 
  -9   2  -4   10.74    2.67 
  -8   2  -4    0.34    1.73 
  -7   2  -4   16.15    2.07 
  -6   2  -4    9.24    1.66 
   5  -2   4   42.96    2.52 
   5  -2   4   38.53    2.62 
   4  -2   4   13.25    1.54 
   4  -2   4   13.22    1.62 
   3  -2   4    6.26    1.14 
   3  -2   4    5.62    1.09 
  -2   2  -4   58.46    1.53 
   2  -2   4   60.24    2.54 
   2  -2   4   57.23    2.32 
  -1   2  -4   38.12    1.27 
   1  -2   4   35.94    1.96 
   1  -2   4   34.43    1.57 
   0   2  -4    4.14    0.59 
   0  -2   4    1.59    0.78 
   0  -2   4    2.60    0.46 
   1   2  -4   32.69    1.45 
  -1  -2   4   29.77    1.83 
   2   2  -4   58.74    2.15 
  -2  -2   4   58.42    2.57 
   3   2  -4    0.87    0.70 
  -3  -2   4    0.82    0.92 
   4   2  -4   30.46    1.83 
  -4  -2   4   35.27    2.38 
  -5  -2   4    2.52    1.48 
  -6  -2   4   -0.69    1.62 
  -7  -2   4    1.84    2.25 
  -8  -2   4    7.76    2.74 
  -9  -2   4   -0.94    2.32 
 -10   2  -3   -1.92    2.42 
  -9   2  -3    5.71    2.57 
  -8   2  -3   24.10    2.84 
  -7   2  -3    0.43    1.45 
  -6   2  -3   12.28    1.69 
   6  -2   3   14.29    1.97 
   5  -2   3   76.11    3.59 
   4  -2   3   82.61    3.08 
   4  -2   3   85.16    3.49 
   3  -2   3   30.82    1.87 
   3  -2   3   29.16    1.72 
   2  -2   3  128.60    3.74 
   2  -2   3  123.35    3.60 
  -1   2  -3  216.61    4.17 
   1  -2   3  220.24    5.46 
   0   2  -3   89.14    2.20 
   0  -2   3   91.84    2.91 
   0  -2   3   89.80    2.34 
   1   2  -3   95.69    2.48 
  -1  -2   3   92.12    3.02 
   2   2  -3   21.84    1.23 
  -2  -2   3   19.91    1.46 
   3   2  -3   12.18    1.07 
  -3  -2   3   13.24    1.41 
  -4  -2   3    6.18    0.65 
  -5  -2   3   38.95    2.58 
  -6  -2   3   14.09    2.22 
  -7  -2   3    0.19    1.87 
  -8  -2   3   -0.59    2.10 
  -9  -2   3    1.72    2.44 
 -10  -2   3   -2.81    2.42 
 -10   2  -2    1.99    2.61 
  -9   2  -2    4.36    2.49 
  -8   2  -2   20.59    2.83 
  -7   2  -2   37.79    2.82 
  -6   2  -2    2.53    1.39 
   6  -2   2    1.94    1.27 
  -5   2  -2   20.66    1.63 
   5  -2   2   18.91    1.99 
   4  -2   2  163.26    5.02 
   3  -2   2   57.34    2.42 
   3  -2   2   52.94    2.16 
   2  -2   2    0.62    0.48 
   2  -2   2    0.23    0.50 
   1  -2   2  204.90    4.72 
   1  -2   2  207.39    4.97 
   0   2  -2  288.19    5.41 
   0  -2   2  295.12    6.01 
   1   2  -2    0.62    0.30 
  -1  -2   2    0.28    0.24 
  -1  -2   2    0.25    0.41 
  -2  -2   2  119.71    3.41 
  -2  -2   2  127.43    2.76 
  -3  -2   2  315.78    7.32 
  -3  -2   2  312.02    6.36 
  -4  -2   2   17.06    1.57 
  -5  -2   2   -0.14    0.99 
  -6  -2   2   69.56    3.57 
  -7  -2   2   48.39    3.29 
  -8  -2   2    6.61    2.25 
  -9  -2   2    4.84    2.52 
 -10  -2   2    5.67    2.74 
 -10   2  -1    2.27    2.72 
  -9   2  -1   13.92    2.95 
  -8   2  -1    0.98    2.08 
  -7   2  -1    2.50    1.83 
  -6   2  -1   48.26    2.87 
   6  -2   1   48.97    2.97 
  -5   2  -1   20.39    1.80 
   5  -2   1   18.02    1.76 
  -4   2  -1    2.62    0.83 
   4  -2   1    2.26    0.84 
   3  -2   1  126.01    3.81 
   2  -2   1    7.81    0.84 
   2  -2   1    7.96    0.79 
   1  -2   1  105.62    2.84 
   1  -2   1  109.54    2.81 
   0  -2   1   73.67    1.92 
   0  -2   1   73.26    2.06 
  -1  -2   1  223.57    4.99 
  -2  -2   1   14.83    0.68 
  -2  -2   1   14.88    0.93 
  -3  -2   1   63.66    2.25 
  -4  -2   1  164.30    4.54 
  -5  -2   1   13.09    1.52 
  -6  -2   1    0.85    1.31 
  -7  -2   1   29.73    2.83 
  -8  -2   1   30.42    2.97 
  -9  -2   1   15.99    2.83 
 -10  -2   1    3.78    2.52 
 -11  -2   1    5.22    2.86 
 -10   2   0    0.55    2.80 
  -9   2   0    9.42    2.99 
  -8   2   0   30.39    3.27 
  -7   2   0    3.66    1.98 
  -6   2   0   12.45    2.13 
   6  -2   0   10.07    1.71 
  -5   2   0   44.40    2.49 
   5  -2   0   44.78    2.55 
  -4   2   0   50.13    2.31 
   4  -2   0   50.57    2.40 
  -3   2   0   -1.09    0.53 
   3  -2   0   -0.22    0.47 
  -2   2   0  245.16    5.35 
   2  -2   0  241.18    4.38 
   2  -2   0  238.89    5.57 
   1  -2   0    2.65    0.44 
   1  -2   0    3.32    0.44 
   0  -2   0  449.52    8.83 
   0  -2   0  448.95    9.04 
  -1  -2   0    0.91    0.28 
  -1  -2   0    0.83    0.25 
  -2  -2   0  624.69   12.08 
  -2  -2   0  640.66   12.66 
  -3  -2   0 1000.00   19.84 
  -4  -2   0    7.20    1.06 
  -5  -2   0  300.63    7.44 
  -6  -2   0  180.76    5.47 
  -7  -2   0    1.07    1.41 
  -8  -2   0   23.41    2.65 
  -9  -2   0   32.92    3.17 
 -10  -2   0   16.37    3.13 
 -11  -2   0    0.99    2.56 
 -10   2   1    2.94    2.85 
  -9   2   1    0.66    2.55 
  -8   2   1    8.55    2.72 
  -7   2   1   37.85    3.22 
  -6   2   1   30.86    2.71 
   6  -2  -1   25.25    2.20 
  -5   2   1   -1.05    1.16 
   5  -2  -1    0.68    0.86 
  -4   2   1   19.29    1.81 
   4  -2  -1   18.64    1.53 
  -3   2   1   95.09    3.11 
   3  -2  -1   94.04    3.06 
  -2   2   1   22.66    1.30 
   2  -2  -1   23.35    1.22 
  -1   2   1   25.51    1.00 
   0  -2  -1  154.31    3.32 
   0  -2  -1  142.55    3.13 
  -1  -2  -1    0.94    0.26 
  -2  -2  -1  116.17    2.71 
  -2  -2  -1  119.62    2.76 
  -3  -2  -1    4.24    0.71 
  -4  -2  -1  153.38    4.22 
  -5  -2  -1   23.39    1.83 
  -6  -2  -1    9.44    1.65 
  -7  -2  -1   53.82    3.22 
  -8  -2  -1   42.86    3.15 
  -9  -2  -1    6.46    2.12 
 -10  -2  -1    9.23    2.41 
 -11  -2  -1   10.90    2.88 
 -12  -2  -1    2.13    2.93 
  -9   2   2    3.47    2.54 
  -8   2   2    7.67    2.66 
  -7   2   2    7.78    2.40 
  -6   2   2   12.14    2.29 
   6  -2  -2    6.88    1.54 
  -5   2   2   13.99    2.05 
   5  -2  -2   15.24    1.35 
   5  -2  -2   12.99    1.62 
  -4   2   2    4.46    1.42 
   4  -2  -2    2.80    0.90 
   4  -2  -2    3.14    0.76 
  -3   2   2    1.93    0.99 
   3  -2  -2    3.15    0.59 
   3  -2  -2    1.50    0.64 
  -2   2   2    2.52    0.77 
   2  -2  -2    2.63    0.55 
   2  -2  -2    2.07    0.44 
   1  -2  -2   13.15    0.79 
   1  -2  -2   12.25    0.65 
   0  -2  -2    6.95    0.46 
   0  -2  -2    9.10    0.59 
  -1  -2  -2  119.14    2.73 
  -2  -2  -2  202.10    4.33 
  -2  -2  -2  204.69    4.34 
  -3  -2  -2   11.31    0.91 
  -4  -2  -2    0.65    0.64 
  -5  -2  -2   79.70    2.93 
  -6  -2  -2    5.50    1.30 
  -7  -2  -2    0.86    1.30 
  -8  -2  -2   57.04    3.45 
  -9  -2  -2   15.84    2.49 
 -10  -2  -2   -0.08    2.04 
 -11  -2  -2    4.60    2.55 
 -12  -2  -2    3.15    2.99 
  -9   2   3    4.39    2.75 
  -8   2   3    8.76    2.85 
  -7   2   3   24.75    3.19 
  -6   2   3    1.35    1.93 
  -5   2   3   15.17    2.20 
   5  -2  -3   13.65    1.51 
   5  -2  -3   13.43    1.65 
  -4   2   3  108.69    4.00 
   4  -2  -3  120.27    3.92 
   4  -2  -3  124.44    3.39 
  -3   2   3    1.15    0.89 
   3  -2  -3    0.49    0.54 
   3  -2  -3    0.85    0.57 
  -2   2   3   34.54    1.73 
   2  -2  -3   34.66    1.51 
   2  -2  -3   34.44    1.39 
   1  -2  -3  131.51    3.16 
   1  -2  -3  126.27    2.91 
   0   2   3  189.87    4.02 
   0  -2  -3  180.13    3.72 
   0  -2  -3  180.24    3.96 
   1   2   3    4.67    0.44 
  -1  -2  -3    5.57    0.50 
   2   2   3  328.44    6.85 
  -2  -2  -3  340.62    6.79 
  -3  -2  -3  138.40    3.25 
  -4  -2  -3    1.67    0.61 
  -5  -2  -3   53.30    2.26 
  -6  -2  -3   17.48    1.68 
  -7  -2  -3   20.92    2.19 
  -8  -2  -3    0.49    1.44 
  -9  -2  -3   15.27    2.32 
 -10  -2  -3   11.70    2.48 
 -11  -2  -3    1.60    2.35 
 -12  -2  -3   -2.01    2.59 
  -9   2   4    3.49    2.69 
  -8   2   4    0.27    2.36 
  -7   2   4   30.70    3.37 
  -6   2   4   16.40    2.55 
   6  -2  -4   13.37    1.80 
  -5   2   4    5.63    1.75 
   5  -2  -4    7.95    1.40 
   5  -2  -4    7.65    1.34 
  -4   2   4   60.28    2.99 
   4  -2  -4   61.06    2.49 
   4  -2  -4   68.75    2.85 
  -3   2   4  300.96    7.31 
   3  -2  -4  289.88    6.89 
   3  -2  -4  291.60    6.34 
  -2   2   4    0.12    0.64 
   2  -2  -4    0.60    0.45 
   2  -2  -4    0.13    0.52 
  -1   2   4  153.77    3.86 
   1  -2  -4  149.95    3.51 
   1  -2  -4  147.33    3.54 
   0  -2  -4  964.37   18.16 
   0  -2  -4  955.73   16.74 
   1   2   4   47.25    1.56 
  -1  -2  -4   48.22    1.51 
  -1  -2  -4   49.99    1.49 
   2   2   4   15.68    0.89 
  -2  -2  -4   18.56    0.86 
   3   2   4  211.92    4.88 
  -5  -2  -4   46.87    1.90 
  -6  -2  -4   10.12    1.39 
  -7  -2  -4   28.79    2.22 
  -8  -2  -4   30.69    2.59 
  -9  -2  -4    0.39    1.56 
 -10  -2  -4    3.57    1.97 
 -11  -2  -4    4.13    2.32 
 -12  -2  -4    4.20    2.99 
  -8   2   5    1.78    2.61 
  -7   2   5    1.10    2.26 
  -6   2   5    8.62    2.43 
  -5   2   5    2.04    1.76 
   5  -2  -5    4.20    1.33 
  -4   2   5   11.08    1.94 
   4  -2  -5   19.84    1.69 
  -3   2   5   19.13    1.90 
   3  -2  -5   20.89    1.58 
   3  -2  -5   24.13    1.51 
  -2   2   5   15.11    1.48 
   2  -2  -5   17.20    1.11 
   2  -2  -5   18.69    1.32 
  -1   2   5   51.66    2.08 
   1  -2  -5   49.94    1.65 
   1  -2  -5   50.46    1.89 
   0   2   5    9.49    0.95 
   0  -2  -5   10.13    0.68 
   0  -2  -5   10.75    0.89 
  -1  -2  -5  154.80    3.48 
  -1  -2  -5  150.23    3.54 
  -2  -2  -5  176.72    3.98 
  -2  -2  -5  179.77    3.92 
   3   2   5  160.70    4.13 
   4   2   5  134.29    3.75 
   5   2   5  235.84    5.98 
  -6  -2  -5  122.66    3.77 
  -7  -2  -5    3.68    1.35 
  -8  -2  -5   25.82    2.44 
  -9  -2  -5   26.85    2.69 
 -10  -2  -5    2.65    2.05 
 -11  -2  -5    2.62    2.19 
 -12  -2  -5    6.47    2.92 
  -7   2   6    2.30    2.74 
  -6   2   6    0.87    2.41 
   6  -2  -6    0.69    1.38 
  -5   2   6    8.80    2.32 
   5  -2  -6    8.05    1.63 
  -4   2   6   16.52    2.28 
   4  -2  -6   11.91    1.56 
  -3   2   6    9.30    1.67 
   3  -2  -6    7.37    1.30 
  -2   2   6    0.68    0.90 
   2  -2  -6    0.24    0.80 
  -1   2   6    7.79    1.15 
   1  -2  -6    5.38    0.96 
   0   2   6  143.81    4.11 
   0  -2  -6  142.15    3.67 
   1   2   6    0.62    0.56 
  -1  -2  -6    1.17    0.37 
  -1  -2  -6    0.88    0.54 
   2   2   6   11.17    1.15 
  -2  -2  -6   11.10    0.80 
  -2  -2  -6   12.94    0.96 
   3   2   6   97.39    3.08 
  -3  -2  -6   98.83    2.67 
  -3  -2  -6   95.28    2.68 
   4   2   6   12.61    1.28 
   5   2   6    6.67    1.14 
  -6  -2  -6   39.16    2.09 
  -7  -2  -6   77.84    3.16 
  -8  -2  -6   -0.80    1.25 
  -9  -2  -6    7.88    2.00 
 -10  -2  -6   25.83    3.06 
 -11  -2  -6    2.63    2.36 
 -12  -2  -6    0.89    2.71 
  -6   2   7    7.06    2.76 
   6  -2  -7    2.12    1.71 
  -5   2   7    6.12    2.49 
   5  -2  -7    3.25    1.53 
  -4   2   7    9.62    2.01 
   4  -2  -7    7.12    1.57 
  -3   2   7   30.13    2.49 
   3  -2  -7   30.77    2.13 
  -2   2   7    8.29    1.57 
   2  -2  -7    7.07    1.30 
  -1   2   7    0.31    0.88 
   1  -2  -7    0.68    0.80 
   0   2   7   20.28    1.72 
   0  -2  -7   17.72    1.36 
   1   2   7   89.83    3.20 
  -1  -2  -7   85.91    2.77 
   2   2   7   34.73    1.95 
  -2  -2  -7   32.21    1.31 
  -2  -2  -7   33.09    1.61 
   3   2   7    3.36    1.01 
  -3  -2  -7    2.82    0.72 
  -3  -2  -7    2.61    0.58 
   4   2   7   85.21    3.16 
  -4  -2  -7   88.44    2.63 
   5   2   7   39.61    2.21 
   6   2   7   23.82    2.10 
  -7  -2  -7   27.26    2.11 
  -8  -2  -7   25.17    2.16 
  -9  -2  -7    3.66    1.86 
 -10  -2  -7    2.99    2.21 
 -11  -2  -7    9.82    2.77 
 -12  -2  -7   -0.18    2.75 
   6  -2  -8    0.98    1.84 
  -5   2   8    5.17    2.63 
   5  -2  -8    4.01    1.71 
  -4   2   8    8.81    2.41 
   4  -2  -8    7.17    1.66 
  -3   2   8   -1.69    1.34 
   3  -2  -8   -0.03    1.19 
  -2   2   8   30.44    2.58 
   2  -2  -8   28.72    2.12 
  -1   2   8   31.87    2.40 
   1  -2  -8   25.45    1.85 
   0   2   8    4.16    1.30 
   0  -2  -8    3.79    1.01 
   1   2   8   26.65    2.04 
  -1  -2  -8   26.18    1.70 
   2   2   8   36.71    2.26 
  -2  -2  -8   37.46    1.90 
   3   2   8    2.49    1.07 
  -3  -2  -8    2.58    0.82 
   4   2   8    3.58    1.21 
  -4  -2  -8    5.69    0.97 
  -4  -2  -8    4.46    0.81 
  -5  -2  -8   -0.03    0.69 
   6   2   8    7.07    1.61 
   7   2   8   23.07    2.44 
  -8  -2  -8    2.30    1.53 
  -9  -2  -8    1.71    1.60 
 -10  -2  -8   16.90    2.82 
 -11  -2  -8   -1.54    2.24 
   4  -2  -9   14.95    2.25 
  -3   2   9   10.93    2.55 
   3  -2  -9    6.29    1.69 
  -2   2   9   -0.31    1.59 
   2  -2  -9    1.18    1.25 
  -1   2   9   29.02    2.74 
   1  -2  -9   27.95    2.12 
   0   2   9   40.64    2.94 
   0  -2  -9   37.78    2.31 
   1   2   9    3.33    1.34 
  -1  -2  -9    3.09    1.07 
   2   2   9    6.96    1.56 
  -2  -2  -9    7.12    1.24 
   3   2   9   63.07    3.11 
  -3  -2  -9   63.86    2.59 
   4   2   9   29.75    2.36 
  -4  -2  -9   27.13    1.73 
   5   2   9   -0.33    1.20 
  -5  -2  -9   -0.80    0.78 
   6   2   9   46.79    2.90 
  -6  -2  -9   44.85    2.12 
   7   2   9   35.07    2.79 
  -8  -2  -9    0.20    1.51 
  -9  -2  -9    1.52    1.73 
 -10  -2  -9    6.21    2.32 
 -11  -2  -9    4.75    2.69 
   3  -2 -10   21.19    2.50 
   2  -2 -10   20.51    2.33 
   1  -2 -10    7.05    1.68 
   0   2  10   12.18    2.17 
   0  -2 -10   16.08    1.95 
   1   2  10   53.71    3.43 
  -1  -2 -10   52.90    2.76 
   2   2  10   53.70    3.20 
  -2  -2 -10   50.08    2.61 
   3   2  10    4.58    1.63 
  -3  -2 -10    3.03    1.14 
   4   2  10   25.08    2.51 
  -4  -2 -10   24.29    1.84 
   5   2  10   25.41    2.44 
  -5  -2 -10   26.08    1.81 
   6   2  10    6.06    1.79 
  -6  -2 -10    4.70    1.21 
   7   2  10   12.93    2.34 
   8   2  10    8.36    2.36 
  -9  -2 -10    2.69    1.97 
 -10  -2 -10   -1.38    1.83 
   2  -2 -11    9.23    2.18 
   1  -2 -11   19.20    2.42 
   0  -2 -11    5.14    1.72 
  -1  -2 -11    4.13    1.55 
  -2  -2 -11   26.79    2.24 
   3   2  11   31.82    2.93 
  -3  -2 -11   33.11    2.27 
   4   2  11   -0.80    1.75 
  -4  -2 -11    2.42    1.19 
   5   2  11    2.32    1.81 
  -5  -2 -11    1.67    1.14 
   6   2  11   27.85    2.81 
   7   2  11    4.27    2.13 
   8   2  11    2.41    2.18 
  -9  -2 -11    6.24    2.32 
  -1  -2 -12    9.91    2.08 
  -2  -2 -12    5.30    1.67 
  -3  -2 -12    7.90    1.74 
  -4  -2 -12   20.97    2.17 
   7   2  12    9.10    2.54 
   8   2  12    4.79    2.40 
   5  -3  10   -2.05    2.45 
   4  -3  10    2.74    2.52 
   3  -3  10    2.85    2.25 
   2  -3  10    4.83    2.33 
   1  -3  10    8.24    2.65 
   0  -3  10    6.95    2.64 
  -1  -3  10    1.40    2.79 
   7  -3   9    4.87    2.59 
   6  -3   9    4.54    2.21 
   5  -3   9    2.15    1.97 
   4  -3   9    3.72    2.16 
   3  -3   9   12.11    2.58 
   2  -3   9    2.39    2.13 
   1  -3   9   -0.42    2.04 
   0  -3   9   16.00    2.96 
   1   3  -9   14.25    1.98 
  -1  -3   9   11.63    2.80 
  -3  -3   9    4.51    2.50 
  -4  -3   9    4.76    3.09 
   7  -3   8   -2.39    1.83 
   6  -3   8    9.95    2.36 
   5  -3   8   15.67    2.59 
   4  -3   8   11.57    2.48 
   3  -3   8    4.73    2.00 
   2  -3   8    8.49    2.27 
   1  -3   8   19.96    2.78 
   0   3  -8    5.88    1.31 
   0  -3   8    5.35    2.26 
   1   3  -8   14.61    1.78 
  -1  -3   8   12.86    2.55 
   2   3  -8   13.95    1.84 
  -2  -3   8   12.94    2.77 
  -3  -3   8    4.64    2.43 
  -4  -3   8    3.85    2.34 
  -5  -3   8    2.77    2.33 
  -8   3  -7    6.04    2.34 
   7  -3   7    6.89    2.41 
   6  -3   7    0.86    1.81 
   5  -3   7    5.38    1.98 
   4  -3   7   22.31    2.73 
   3  -3   7   17.87    2.41 
   2  -3   7    3.97    1.71 
   1  -3   7    3.94    1.69 
   0   3  -7   54.25    2.39 
   0  -3   7   53.11    3.35 
   1   3  -7   10.76    1.49 
  -1  -3   7    7.73    2.11 
   2   3  -7    3.53    1.24 
  -2  -3   7    2.97    1.87 
  -3  -3   7   24.35    3.07 
  -4  -3   7   20.80    3.04 
  -5  -3   7    7.49    2.39 
  -6  -3   7   12.98    2.62 
  -9   3  -6    7.30    2.86 
  -8   3  -6    4.27    2.00 
   7  -3   6    8.95    2.44 
   6  -3   6   21.65    2.71 
   5  -3   6   15.97    2.29 
   4  -3   6    0.34    1.27 
   3  -3   6   70.58    3.52 
   2  -3   6   54.51    3.05 
  -1   3  -6    6.22    0.88 
   1  -3   6    6.54    1.58 
   0   3  -6   40.32    1.85 
   0  -3   6   37.49    2.69 
   1   3  -6   77.55    2.84 
  -1  -3   6   74.33    3.65 
   2   3  -6    8.67    1.35 
  -2  -3   6   11.55    2.03 
  -3  -3   6    1.27    1.60 
  -4  -3   6   31.22    2.81 
  -5  -3   6    7.33    2.26 
  -6  -3   6   -2.54    1.95 
  -7  -3   6    4.09    2.24 
  -8  -3   6    7.26    3.00 
  -9   3  -5    2.03    2.49 
  -8   3  -5   15.60    2.42 
  -7   3  -5    0.48    1.58 
   6  -3   5    9.07    2.08 
   5  -3   5   28.81    2.57 
   5  -3   5   25.30    2.24 
   4  -3   5   42.11    2.81 
   4  -3   5   40.71    2.57 
   3  -3   5    5.91    1.29 
   3  -3   5    4.83    1.34 
   2  -3   5   10.03    1.16 
   2  -3   5   18.45    1.82 
  -1   3  -5   84.90    2.43 
   1  -3   5   88.41    3.59 
   1  -3   5   83.87    2.92 
   0   3  -5   36.81    1.64 
   0  -3   5   38.45    2.37 
   1   3  -5   58.27    2.25 
  -1  -3   5   61.71    3.06 
   2   3  -5   31.96    1.82 
  -2  -3   5   33.21    2.37 
  -3  -3   5   34.73    2.52 
  -4  -3   5    6.52    1.67 
  -5  -3   5   21.67    2.68 
  -6  -3   5   11.02    2.61 
  -7  -3   5    5.75    2.48 
  -8  -3   5    3.71    2.46 
 -10   3  -4    0.82    2.92 
  -9   3  -4   -0.92    2.29 
  -8   3  -4    4.91    2.22 
  -7   3  -4   23.73    2.42 
  -6   3  -4   -0.31    1.23 
   6  -3   4   -0.11    1.28 
   5  -3   4    1.13    1.23 
   5  -3   4   -0.44    1.15 
   4  -3   4  101.19    3.85 
   4  -3   4  108.59    4.32 
   3  -3   4   27.26    1.95 
   3  -3   4   28.77    2.09 
   2  -3   4    0.35    0.75 
   2  -3   4    0.75    0.68 
  -1   3  -4    5.33    0.61 
   1  -3   4    5.80    1.11 
   1  -3   4    5.64    0.84 
   0   3  -4   56.72    1.87 
   0  -3   4   56.23    2.51 
   0  -3   4   55.52    1.96 
   1   3  -4   46.36    1.80 
  -1  -3   4   45.11    2.37 
  -2  -3   4   -0.85    0.65 
  -3  -3   4   54.52    2.73 
  -4  -3   4   69.24    3.23 
  -5  -3   4    3.12    1.58 
  -6  -3   4   11.77    2.29 
  -7  -3   4   34.73    3.24 
  -8  -3   4   11.44    2.78 
  -9  -3   4   -0.38    2.32 
 -10   3  -3   -2.95    2.76 
  -9   3  -3    2.00    2.44 
  -8   3  -3   -0.15    2.04 
  -7   3  -3    7.01    1.92 
   7  -3   3    4.22    1.74 
  -6   3  -3    4.03    1.43 
   6  -3   3    5.70    1.72 
   5  -3   3   27.62    2.50 
   5  -3   3   29.38    2.22 
   4  -3   3    1.84    1.00 
   4  -3   3    1.11    1.05 
   3  -3   3  126.44    4.07 
   3  -3   3  125.69    4.20 
   2  -3   3   29.22    1.79 
   2  -3   3   29.83    1.81 
   1  -3   3   71.04    2.71 
   1  -3   3   71.50    2.46 
   0  -3   3  127.25    3.29 
   0  -3   3  129.46    3.85 
  -1  -3   3   35.02    1.88 
  -1  -3   3   34.40    1.32 
  -2  -3   3   24.06    1.59 
  -2  -3   3   23.60    1.03 
  -3  -3   3    2.92    0.52 
  -3  -3   3    2.55    0.91 
  -4  -3   3   68.29    2.07 
  -4  -3   3   70.09    2.99 
  -5  -3   3   18.05    2.02 
  -6  -3   3    0.03    1.52 
  -7  -3   3    0.67    1.85 
  -8  -3   3    9.15    2.54 
  -9  -3   3    4.44    2.52 
 -10  -3   3    0.80    2.61 
 -10   3  -2   -1.63    2.74 
  -9   3  -2    9.16    2.76 
  -8   3  -2   52.06    3.67 
  -7   3  -2   13.13    2.30 
   7  -3   2   11.36    2.21 
  -6   3  -2   15.21    1.96 
   6  -3   2   15.04    2.20 
  -5   3  -2   17.90    1.75 
   5  -3   2   17.66    2.07 
   4  -3   2   99.57    3.90 
   4  -3   2  105.64    3.65 
   3  -3   2    4.57    1.01 
   3  -3   2    4.50    0.98 
   2  -3   2    1.75    0.72 
   2  -3   2    1.87    0.68 
   1  -3   2  112.94    3.21 
   1  -3   2  112.79    3.37 
   0  -3   2  167.63    3.97 
   0  -3   2  162.15    4.33 
  -1  -3   2    4.70    0.57 
  -1  -3   2    5.88    0.85 
  -2  -3   2    0.80    0.38 
  -2  -3   2    1.70    0.63 
  -3  -3   2  117.05    3.56 
  -3  -3   2  114.57    2.84 
  -4  -3   2   12.46    1.37 
  -4  -3   2    9.45    0.90 
  -5  -3   2    4.85    1.32 
  -5  -3   2    4.29    0.72 
  -6  -3   2   37.94    2.69 
  -7  -3   2    0.59    1.54 
  -8  -3   2    0.20    1.92 
  -9  -3   2    0.70    2.24 
 -10  -3   2   -1.90    2.34 
 -11  -3   2   -3.83    2.61 
 -10   3  -1    4.03    3.10 
  -9   3  -1    4.70    2.66 
  -8   3  -1    0.72    2.23 
  -7   3  -1   34.09    2.89 
   7  -3   1   37.34    3.05 
  -6   3  -1   58.20    3.19 
   6  -3   1   62.16    3.57 
  -5   3  -1    2.34    1.26 
   5  -3   1    2.90    1.14 
  -4   3  -1   34.92    1.85 
   4  -3   1   36.01    2.31 
   3  -3   1   69.38    2.81 
   3  -3   1   70.03    2.61 
   2  -3   1   72.19    2.65 
   2  -3   1   78.37    2.55 
   1  -3   1   87.72    2.64 
   1  -3   1   82.85    2.61 
   0  -3   1  161.19    4.07 
   0  -3   1  167.20    3.91 
  -1  -3   1  106.20    2.97 
  -1  -3   1  107.97    2.70 
  -2  -3   1   44.88    1.72 
  -3  -3   1   60.48    2.19 
  -4  -3   1   29.45    1.75 
  -5  -3   1    1.66    0.92 
  -6  -3   1    1.98    1.27 
  -7  -3   1   26.65    2.54 
  -8  -3   1   -0.38    1.52 
  -9  -3   1   -1.15    1.91 
 -10  -3   1    1.96    2.35 
 -11  -3   1    6.68    2.86 
  -9   3   0    3.57    2.71 
  -8   3   0    5.70    2.50 
  -7   3   0    4.15    2.07 
   7  -3   0    5.57    1.81 
  -6   3   0   15.07    2.25 
   6  -3   0   14.61    2.11 
  -5   3   0   78.91    3.38 
   5  -3   0   81.78    3.64 
  -4   3   0    3.00    1.08 
   4  -3   0    3.41    1.02 
  -3   3   0   62.35    2.22 
   3  -3   0   65.83    2.61 
   2  -3   0  169.72    4.50 
   2  -3   0  171.32    4.31 
   1  -3   0   95.05    2.79 
   1  -3   0   98.08    2.65 
   0  -3   0    3.73    0.51 
   0  -3   0    3.15    0.52 
  -1  -3   0  410.70    8.52 
  -1  -3   0  413.48    8.33 
  -2  -3   0   85.76    2.38 
  -2  -3   0   89.32    2.34 
  -3  -3   0   34.05    1.30 
  -3  -3   0   35.18    1.51 
  -4  -3   0  144.14    3.93 
  -4  -3   0  138.12    3.49 
  -5  -3   0  174.12    4.84 
  -6  -3   0  128.01    4.36 
  -7  -3   0    4.84    1.68 
  -8  -3   0   90.85    4.31 
  -9  -3   0   58.70    3.87 
 -10  -3   0   -0.99    2.07 
 -11  -3   0   10.58    3.01 
  -9   3   1   -1.66    2.56 
  -8   3   1   13.10    3.00 
  -7   3   1   11.99    2.47 
   7  -3  -1    8.22    2.02 
  -6   3   1    4.73    1.92 
   6  -3  -1    4.34    1.46 
  -5   3   1    8.27    1.88 
   5  -3  -1    8.57    1.51 
  -4   3   1  124.24    4.10 
   4  -3  -1  120.46    4.16 
   4  -3  -1  127.21    3.09 
  -3   3   1   97.20    3.16 
   3  -3  -1   98.79    2.36 
   3  -3  -1   91.94    3.22 
  -2   3   1   42.55    1.68 
   2  -3  -1   40.33    1.79 
   2  -3  -1   39.27    1.20 
   1  -3  -1  425.44    8.82 
   1  -3  -1  417.65    7.41 
   0  -3  -1   64.55    1.70 
   0  -3  -1   66.55    1.99 
  -1  -3  -1   26.71    1.15 
  -2  -3  -1  215.87    4.66 
  -2  -3  -1  211.58    4.55 
  -3  -3  -1  129.55    3.20 
  -3  -3  -1  126.16    3.13 
  -4  -3  -1   17.72    1.29 
  -5  -3  -1   20.45    1.58 
  -6  -3  -1   31.53    2.14 
  -7  -3  -1   46.88    2.84 
  -8  -3  -1    2.57    1.68 
  -9  -3  -1    5.69    1.89 
 -10  -3  -1   46.14    3.60 
 -11  -3  -1   10.05    2.96 
 -12  -3  -1   -0.84    2.86 
  -9   3   2    4.57    2.69 
  -8   3   2   -3.48    2.09 
  -7   3   2   28.91    3.32 
   7  -3  -2   25.30    2.86 
  -6   3   2   19.22    2.76 
   6  -3  -2   18.25    2.23 
  -5   3   2   11.41    2.19 
   5  -3  -2   10.14    1.60 
   5  -3  -2   10.06    1.19 
  -4   3   2   14.13    1.82 
   4  -3  -2   12.25    1.09 
   4  -3  -2   11.83    1.43 
  -3   3   2   15.90    1.62 
   3  -3  -2   16.29    1.01 
   3  -3  -2   14.32    1.29 
  -2   3   2   84.35    2.77 
   2  -3  -2   86.01    2.16 
   2  -3  -2   87.71    2.78 
  -1   3   2    0.50    0.52 
   1  -3  -2    0.58    0.41 
   1  -3  -2    0.44    0.30 
   0  -3  -2   80.83    2.30 
  -1  -3  -2   35.05    1.30 
  -2  -3  -2   37.07    1.36 
  -3  -3  -2    5.40    0.64 
  -3  -3  -2    3.20    0.48 
  -4  -3  -2   55.99    2.15 
  -5  -3  -2  150.80    4.38 
  -6  -3  -2   -0.35    1.00 
  -7  -3  -2   34.56    2.67 
  -8  -3  -2   36.86    2.95 
  -9  -3  -2    2.45    1.88 
 -10  -3  -2    1.26    2.04 
 -11  -3  -2   19.69    3.14 
 -12  -3  -2    2.22    2.64 
  -9   3   3    4.16    2.92 
  -8   3   3    9.85    3.05 
  -7   3   3    1.20    2.12 
  -6   3   3   31.64    3.08 
   6  -3  -3   23.43    2.45 
  -5   3   3   27.76    2.70 
   5  -3  -3   25.18    1.75 
   5  -3  -3   24.45    2.12 
  -4   3   3   28.83    2.36 
   4  -3  -3   29.70    1.61 
   4  -3  -3   32.70    2.05 
  -3   3   3   17.83    1.73 
   3  -3  -3   15.23    1.11 
   3  -3  -3   15.34    1.36 
  -2   3   3    5.78    0.91 
   2  -3  -3    7.83    0.92 
   2  -3  -3    8.50    0.80 
  -1   3   3   47.74    1.72 
   1  -3  -3   45.14    1.50 
   1  -3  -3   45.97    1.74 
   0  -3  -3   16.70    0.83 
   0  -3  -3   17.74    0.97 
  -1  -3  -3    4.94    0.57 
  -2  -3  -3  217.61    4.82 
  -3  -3  -3   10.26    0.76 
  -3  -3  -3   10.47    0.77 
  -4  -3  -3   -0.02    0.54 
  -5  -3  -3  130.39    3.84 
  -6  -3  -3  137.54    4.30 
  -7  -3  -3    0.72    1.15 
  -8  -3  -3   10.29    1.96 
  -9  -3  -3   31.72    2.97 
 -10  -3  -3   12.74    2.62 
 -11  -3  -3   -0.57    2.10 
 -12  -3  -3    0.32    2.56 
  -8   3   4    2.57    2.48 
  -7   3   4   24.05    3.16 
  -6   3   4    4.77    2.20 
   6  -3  -4    6.34    1.73 
   6  -3  -4    6.67    1.52 
  -5   3   4    4.71    1.88 
   5  -3  -4    2.81    1.20 
   5  -3  -4    3.75    1.27 
  -4   3   4   27.33    2.37 
   4  -3  -4   33.38    1.89 
   4  -3  -4   35.91    2.19 
  -3   3   4   47.04    2.43 
   3  -3  -4   44.56    1.91 
   3  -3  -4   44.57    1.91 
   3  -3  -4   46.41    2.19 
  -2   3   4    0.68    0.61 
   2  -3  -4    1.44    0.63 
   2  -3  -4    1.18    0.61 
  -1   3   4    3.34    0.69 
   1  -3  -4    5.55    0.71 
   1  -3  -4    5.63    0.72 
   0   3   4  129.24    3.07 
   0  -3  -4  125.53    3.21 
   0  -3  -4  124.59    3.02 
  -1  -3  -4   13.03    0.84 
  -2  -3  -4   91.99    2.51 
  -3  -3  -4  246.29    5.43 
  -4  -3  -4   35.61    1.48 
  -5  -3  -4   25.88    1.59 
  -6  -3  -4   37.77    2.15 
  -7  -3  -4   19.87    2.04 
  -8  -3  -4    5.78    1.75 
  -9  -3  -4    1.34    1.58 
 -10  -3  -4   16.58    2.60 
 -11  -3  -4    4.90    2.36 
 -12  -3  -4   -0.96    2.44 
  -7   3   5    3.24    2.59 
  -6   3   5   31.21    3.23 
   6  -3  -5   28.38    2.36 
  -5   3   5   10.22    2.22 
   5  -3  -5    9.23    1.57 
  -4   3   5    0.65    1.41 
   4  -3  -5    1.38    0.97 
   4  -3  -5    1.06    1.06 
   3  -3  -5   53.96    2.46 
   3  -3  -5   58.18    2.38 
  -2   3   5   30.20    1.92 
   2  -3  -5   32.04    1.66 
   2  -3  -5   29.47    1.63 
  -1   3   5    9.74    1.01 
   1  -3  -5   13.20    1.00 
   1  -3  -5   13.60    1.08 
   0   3   5    1.21    0.51 
   0  -3  -5    0.88    0.41 
   0  -3  -5    0.70    0.51 
   1   3   5   58.88    1.88 
  -1  -3  -5   57.15    1.89 
  -1  -3  -5   59.96    1.90 
   2   3   5   84.24    2.33 
  -2  -3  -5   83.89    2.37 
  -3  -3  -5   89.25    2.56 
   4   3   5    0.11    0.23 
  -5  -3  -5   80.37    2.56 
  -6  -3  -5   17.21    1.59 
  -7  -3  -5   26.94    2.11 
  -8  -3  -5   22.14    2.37 
  -9  -3  -5   15.68    2.35 
 -10  -3  -5    2.43    1.92 
 -11  -3  -5    5.25    2.41 
 -12  -3  -5    1.75    2.51 
  -6   3   6    3.22    2.51 
   6  -3  -6   -0.23    1.45 
  -5   3   6   10.52    2.37 
   5  -3  -6   10.78    1.81 
  -4   3   6   23.38    2.62 
   4  -3  -6   25.56    1.96 
  -3   3   6   11.41    1.75 
   3  -3  -6   11.21    1.46 
  -2   3   6   55.88    2.57 
   2  -3  -6   60.01    2.31 
   2  -3  -6   59.12    2.45 
   1  -3  -6   63.60    2.35 
   1  -3  -6   61.01    2.14 
   0   3   6   38.16    1.80 
   0  -3  -6   37.30    1.54 
   0  -3  -6   36.45    1.71 
   1   3   6   86.34    2.68 
  -1  -3  -6   86.03    2.58 
  -1  -3  -6   80.60    2.41 
   2   3   6  136.44    3.59 
  -2  -3  -6  139.71    3.46 
  -2  -3  -6  132.65    3.41 
   3   3   6  101.91    2.96 
  -3  -3  -6   98.22    2.79 
   4   3   6    0.14    0.31 
  -4  -3  -6    0.75    0.51 
   5   3   6   67.37    2.59 
  -6  -3  -6  107.41    3.41 
  -7  -3  -6   20.84    1.93 
  -8  -3  -6   11.66    1.97 
  -9  -3  -6   11.93    2.16 
 -10  -3  -6   24.56    2.96 
 -11  -3  -6   -1.86    1.95 
 -12  -3  -6    1.94    2.40 
   6  -3  -7    0.55    1.59 
   5  -3  -7    0.14    1.45 
  -4   3   7   23.82    2.61 
   4  -3  -7   16.02    1.93 
  -3   3   7   24.31    2.40 
   3  -3  -7   22.49    1.93 
  -2   3   7    6.22    1.30 
   2  -3  -7    5.33    1.22 
  -1   3   7   37.13    2.12 
   1  -3  -7   38.31    2.06 
   1   3   7   23.05    1.58 
  -1  -3  -7   23.97    1.21 
  -1  -3  -7   23.21    1.48 
   2   3   7   45.88    2.02 
  -2  -3  -7   39.82    1.85 
  -2  -3  -7   48.02    1.76 
  -3  -3  -7   73.23    2.41 
  -3  -3  -7   65.47    2.24 
   4   3   7  106.92    3.41 
  -4  -3  -7  109.44    3.19 
   5   3   7   10.52    1.33 
  -7  -3  -7  147.69    4.57 
  -8  -3  -7   52.95    2.97 
  -9  -3  -7    2.10    1.66 
 -10  -3  -7   18.75    2.83 
 -11  -3  -7   20.83    3.09 
 -12  -3  -7    1.38    2.52 
   5  -3  -8    6.49    1.83 
   4  -3  -8    2.01    1.55 
   3  -3  -8    8.08    1.62 
  -2   3   8   15.09    1.98 
   2  -3  -8   13.65    1.72 
  -1   3   8    7.55    1.52 
   1  -3  -8    6.99    1.32 
   0   3   8    0.43    0.86 
   0  -3  -8    0.12    0.81 
  -1  -3  -8   20.64    1.55 
   3   3   8   -0.26    0.80 
  -3  -3  -8    0.51    0.54 
  -3  -3  -8    0.54    0.72 
   4   3   8   19.71    1.63 
  -4  -3  -8   21.93    1.41 
  -4  -3  -8   21.63    1.45 
   5   3   8   15.13    1.59 
  -5  -3  -8   15.38    1.33 
   6   3   8    0.76    1.19 
  -7  -3  -8   -0.16    1.15 
  -8  -3  -8    3.89    1.47 
  -9  -3  -8    5.70    1.96 
 -10  -3  -8    9.84    2.42 
 -11  -3  -8   -1.99    2.00 
 -12  -3  -8    1.19    2.69 
   4  -3  -9    5.17    1.73 
   3  -3  -9    0.42    1.41 
   2  -3  -9    3.65    1.47 
   1  -3  -9   15.86    1.84 
   0  -3  -9    6.16    1.30 
   1   3   9   -0.07    0.95 
  -1  -3  -9    1.64    0.98 
   2   3   9   11.54    1.61 
  -2  -3  -9   13.72    1.47 
   3   3   9   63.19    2.95 
  -3  -3  -9   65.85    2.62 
   4   3   9    9.28    1.57 
  -4  -3  -9    9.50    1.30 
  -5  -3  -9    4.05    0.90 
  -5  -3  -9    4.42    1.03 
   6   3   9   47.15    2.72 
  -6  -3  -9   41.08    2.07 
  -6  -3  -9   42.63    2.28 
   7   3   9   20.80    2.42 
  -8  -3  -9    1.41    1.49 
  -9  -3  -9    9.99    1.99 
 -10  -3  -9    7.68    2.31 
 -11  -3  -9    0.01    2.30 
   3  -3 -10    8.75    2.05 
   2  -3 -10    4.26    1.65 
   1  -3 -10   -0.15    1.19 
   0  -3 -10   35.79    2.46 
  -1  -3 -10   11.76    1.64 
  -2  -3 -10    2.65    1.18 
   3   3  10   29.76    2.43 
  -3  -3 -10   26.65    1.93 
   4   3  10   41.65    2.76 
  -4  -3 -10   42.34    2.23 
   5   3  10   15.64    1.99 
  -5  -3 -10   18.18    1.63 
   6   3  10   -0.47    1.31 
  -6  -3 -10    0.53    0.97 
   7   3  10   29.84    2.61 
  -7  -3 -10   27.94    1.91 
  -8  -3 -10   11.21    2.06 
  -9  -3 -10    1.25    1.68 
 -10  -3 -10    0.18    1.87 
 -11  -3 -10    1.04    2.52 
   2  -3 -11   12.81    2.28 
   1  -3 -11   10.30    2.06 
   0  -3 -11    1.27    1.43 
  -1  -3 -11   19.52    2.19 
  -2  -3 -11   24.57    2.27 
  -3  -3 -11    1.13    1.18 
  -4  -3 -11   13.18    1.74 
  -5  -3 -11    6.11    1.42 
  -6  -3 -11   17.33    1.87 
   8   3  11    5.61    2.36 
  -9  -3 -11    8.95    2.30 
 -10  -3 -11    2.80    2.06 
   0  -3 -12    7.53    2.08 
  -1  -3 -12    3.89    1.70 
  -2  -3 -12    0.54    1.43 
  -3  -3 -12   18.48    2.12 
  -4  -3 -12   14.42    1.93 
  -5  -3 -12    1.95    1.31 
  -6  -3 -12    6.18    1.57 
   2  -4  10    1.55    2.64 
   1  -4  10    2.79    2.75 
   4  -4   9    6.56    2.38 
   3  -4   9    4.38    2.30 
   2  -4   9    1.71    2.06 
   1  -4   9    6.80    2.42 
   0  -4   9   14.14    2.89 
  -1  -4   9    9.32    2.67 
  -2  -4   9    1.93    2.49 
  -3  -4   9    5.05    3.00 
   7  -4   8   -0.59    2.50 
   6  -4   8   10.37    2.82 
   5  -4   8    2.44    2.10 
   4  -4   8    4.23    2.09 
   3  -4   8    9.90    2.49 
   2  -4   8    8.25    2.40 
   1  -4   8   -0.80    2.01 
   0  -4   8    3.73    2.43 
  -1  -4   8   17.37    3.02 
  -2  -4   8    6.50    2.43 
  -3  -4   8   -0.02    2.20 
  -4  -4   8    6.20    2.62 
  -5  -4   8    4.80    2.98 
   7  -4   7    3.21    2.46 
   6  -4   7    1.18    2.11 
   5  -4   7   11.40    2.43 
   4  -4   7    3.07    2.01 
   3  -4   7    0.77    1.69 
   2  -4   7   10.77    2.20 
   1  -4   7    4.34    1.98 
   0  -4   7    5.61    2.05 
  -1  -4   7    8.78    2.26 
  -2  -4   7   13.96    2.73 
  -3  -4   7   12.31    2.72 
  -4  -4   7    1.53    2.12 
  -5  -4   7    7.87    2.41 
  -6  -4   7   11.52    3.06 
  -8   4  -6   -0.78    1.99 
   6  -4   6   11.03    2.51 
   5  -4   6    0.64    1.72 
   4  -4   6   18.24    2.30 
   4  -4   6   19.66    2.62 
   3  -4   6   91.96    4.23 
   3  -4   6   95.30    4.18 
   2  -4   6    9.89    1.91 
   1  -4   6   13.44    2.20 
   0  -4   6   41.99    3.01 
  -1  -4   6   45.48    3.06 
  -2  -4   6    2.48    1.73 
  -3  -4   6   13.11    2.40 
  -4  -4   6   37.09    3.21 
  -5  -4   6    5.29    2.25 
  -6  -4   6    4.53    2.18 
  -7  -4   6    4.20    2.27 
  -8   4  -5    4.64    2.10 
  -7   4  -5    0.79    1.72 
   6  -4   5   16.18    2.55 
   6  -4   5   14.29    2.46 
   5  -4   5   15.99    2.26 
   5  -4   5   11.13    2.09 
   4  -4   5    5.61    1.71 
   3  -4   5   23.67    2.29 
   3  -4   5   22.54    2.36 
   2  -4   5   63.72    3.18 
   2  -4   5   52.64    2.75 
   1  -4   5   37.03    2.12 
   1  -4   5   38.13    2.64 
   0  -4   5    0.29    1.15 
  -2  -4   5   52.20    3.11 
  -3  -4   5   23.89    2.29 
  -4  -4   5    2.63    1.62 
  -5  -4   5   36.60    2.98 
  -6  -4   5    4.63    2.29 
  -7  -4   5    0.45    2.04 
  -8  -4   5    4.82    2.54 
  -9   4  -4   -0.53    2.75 
  -8   4  -4    3.24    2.29 
  -7   4  -4   17.08    2.44 
   7  -4   4   14.49    2.64 
  -6   4  -4   -0.52    1.44 
   6  -4   4   -0.05    1.45 
   5  -4   4   -0.93    1.29 
   5  -4   4   -0.66    1.25 
   4  -4   4   37.66    2.81 
   4  -4   4   33.47    2.43 
   3  -4   4   10.56    1.65 
   3  -4   4    7.59    1.49 
   2  -4   4    0.86    0.97 
   2  -4   4    1.35    0.88 
   1  -4   4   19.73    1.91 
   0  -4   4  125.66    4.34 
   0  -4   4  126.21    3.65 
  -1  -4   4    4.39    1.22 
  -1  -4   4    3.71    0.66 
  -2  -4   4   19.53    1.94 
  -3  -4   4   24.28    2.07 
  -4  -4   4   52.51    2.96 
  -5  -4   4   -0.05    1.35 
  -6  -4   4   18.49    2.61 
  -7  -4   4   11.02    2.66 
  -8  -4   4    4.35    2.42 
  -9  -4   4    3.10    2.63 
  -9   4  -3    0.76    2.54 
  -8   4  -3   -1.83    2.16 
  -7   4  -3   14.90    2.41 
   7  -4   3   11.31    2.54 
  -6   4  -3    6.10    1.66 
   6  -4   3    5.00    1.89 
   5  -4   3    2.58    1.50 
   5  -4   3    0.19    1.34 
   4  -4   3    2.29    1.26 
   4  -4   3    2.56    1.22 
   3  -4   3   84.05    3.32 
   3  -4   3   79.97    3.46 
   2  -4   3    5.12    1.13 
   2  -4   3    5.00    1.05 
   1  -4   3   18.17    1.47 
   1  -4   3   16.52    1.50 
   0  -4   3   82.46    3.13 
  -1  -4   3  139.72    3.63 
  -1  -4   3  141.37    4.36 
  -2  -4   3   13.86    1.00 
  -2  -4   3   15.64    1.59 
  -3  -4   3   64.45    2.87 
  -3  -4   3   66.31    2.11 
  -4  -4   3   62.04    2.97 
  -5  -4   3    9.63    1.70 
  -6  -4   3   -1.56    1.32 
  -7  -4   3    9.04    2.27 
  -8  -4   3   10.92    2.66 
  -9  -4   3    1.14    2.41 
 -10  -4   3    2.46    2.74 
  -9   4  -2   12.14    3.14 
  -8   4  -2   12.68    2.75 
  -7   4  -2    6.94    2.34 
   7  -4   2    6.96    2.14 
  -6   4  -2   59.37    3.13 
   6  -4   2   55.87    3.71 
  -5   4  -2   24.77    2.10 
   5  -4   2   27.10    2.55 
   4  -4   2   18.24    1.91 
   4  -4   2   13.76    1.87 
   3  -4   2  116.49    3.90 
   3  -4   2  124.56    4.26 
   2  -4   2  102.79    3.48 
   2  -4   2  108.10    3.64 
   1  -4   2   79.84    2.87 
   1  -4   2   77.02    2.74 
   0  -4   2   -0.12    0.63 
   0  -4   2    0.51    0.49 
  -1  -4   2  112.14    3.09 
  -2  -4   2   42.70    1.63 
  -2  -4   2   43.79    2.06 
  -3  -4   2  138.31    4.16 
  -3  -4   2  141.21    3.52 
  -4  -4   2   32.21    1.50 
  -4  -4   2   33.05    2.02 
  -5  -4   2   77.58    3.21 
  -5  -4   2   74.43    2.48 
  -6  -4   2   52.96    2.96 
  -6  -4   2   49.53    2.12 
  -7  -4   2    3.33    1.72 
  -8  -4   2    4.94    2.20 
  -9  -4   2   11.04    2.85 
 -10  -4   2    0.30    2.57 
  -9   4  -1    3.12    2.73 
  -8   4  -1    4.35    2.45 
   8  -4   1    3.01    1.91 
  -7   4  -1   19.80    2.79 
   7  -4   1   22.43    2.91 
  -6   4  -1    2.23    1.70 
   6  -4   1    2.81    1.53 
  -5   4  -1    0.61    1.28 
   5  -4   1   -0.10    1.11 
  -4   4  -1   44.58    2.27 
   4  -4   1   52.86    2.87 
   3  -4   1   61.97    2.63 
   3  -4   1   59.54    2.79 
   2  -4   1   23.87    1.53 
   2  -4   1   22.94    1.62 
   1  -4   1   51.37    2.14 
   1  -4   1   54.26    2.16 
   0  -4   1  176.40    4.41 
   0  -4   1  176.87    4.54 
  -1  -4   1    4.15    0.71 
  -1  -4   1    4.83    0.69 
  -2  -4   1    0.20    0.41 
  -2  -4   1   -0.04    0.47 
  -3  -4   1   21.92    1.43 
  -3  -4   1   17.21    1.10 
  -4  -4   1   40.53    1.62 
  -5  -4   1   -0.74    0.87 
  -5  -4   1    0.04    0.47 
  -6  -4   1   27.27    1.65 
  -6  -4   1   28.21    2.27 
  -7  -4   1   35.22    1.95 
  -8  -4   1    2.45    1.68 
  -9  -4   1    3.51    2.15 
 -10  -4   1    5.14    2.62 
 -11  -4   1   -0.54    2.76 
  -9   4   0    2.17    2.68 
  -8   4   0    2.78    2.42 
   8  -4   0    3.65    2.11 
  -7   4   0    6.99    2.49 
   7  -4   0    8.42    2.10 
  -6   4   0   24.37    2.72 
   6  -4   0   23.03    2.56 
  -5   4   0   46.08    2.74 
   5  -4   0   42.41    2.84 
  -4   4   0    0.80    1.03 
   4  -4   0    0.37    0.90 
  -3   4   0   26.54    1.55 
   3  -4   0   26.23    1.86 
   2  -4   0   64.69    2.59 
   2  -4   0   68.21    2.45 
   1  -4   0   70.70    2.54 
   1  -4   0   75.13    2.39 
   0  -4   0   35.85    1.47 
   0  -4   0   34.16    1.59 
  -1  -4   0  154.38    3.82 
  -1  -4   0  158.59    3.90 
  -2  -4   0   28.62    1.31 
  -2  -4   0   26.27    1.25 
  -3  -4   0    5.25    0.67 
  -3  -4   0    4.90    0.76 
  -4  -4   0   50.60    2.07 
  -4  -4   0   46.82    1.78 
  -5  -4   0    6.32    1.14 
  -5  -4   0   10.14    1.00 
  -6  -4   0   30.72    2.24 
  -6  -4   0   47.73    2.02 
  -7  -4   0   24.20    2.32 
  -8  -4   0   45.05    3.11 
  -9  -4   0    2.60    1.96 
 -10  -4   0    4.98    2.41 
 -11  -4   0   20.96    3.49 
  -9   4   1   -1.11    2.86 
  -8   4   1   21.85    3.39 
   8  -4  -1   13.94    2.67 
  -7   4   1   -0.94    2.11 
   7  -4  -1    0.82    1.65 
  -6   4   1    0.90    1.85 
   6  -4  -1    0.49    1.29 
  -5   4   1   55.56    3.12 
   5  -4  -1   59.06    3.23 
  -4   4   1  138.69    4.46 
   4  -4  -1  136.96    4.72 
   4  -4  -1  140.53    3.30 
  -3   4   1   -0.80    0.83 
   3  -4  -1   -0.21    0.41 
   3  -4  -1    0.63    0.70 
  -2   4   1   21.82    1.25 
   2  -4  -1   20.44    1.45 
   2  -4  -1   21.89    0.87 
   1  -4  -1  290.73    5.27 
   1  -4  -1  288.16    6.66 
   1  -4  -1  284.99    6.38 
   0  -4  -1  206.20    4.72 
   0  -4  -1  218.19    5.12 
  -1  -4  -1    5.98    0.55 
  -1  -4  -1    6.05    0.72 
  -2  -4  -1  216.25    4.96 
  -2  -4  -1  215.18    4.76 
  -3  -4  -1  224.60    5.07 
  -3  -4  -1  217.17    4.97 
  -4  -4  -1    2.02    0.66 
  -4  -4  -1    3.50    0.62 
  -5  -4  -1   25.94    1.45 
  -5  -4  -1   26.49    1.67 
  -6  -4  -1   17.30    1.69 
  -7  -4  -1   27.45    2.41 
  -8  -4  -1   -0.51    1.47 
  -9  -4  -1    1.45    1.77 
 -10  -4  -1   23.34    3.16 
 -11  -4  -1    1.59    2.44 
 -12  -4  -1    0.54    2.81 
  -8   4   2    3.24    2.64 
  -7   4   2   24.80    3.29 
   7  -4  -2   18.56    2.69 
  -6   4   2   -0.49    2.04 
   6  -4  -2   -3.39    1.10 
  -5   4   2    2.83    1.77 
   5  -4  -2    1.77    1.25 
  -4   4   2   62.87    3.00 
   4  -4  -2   57.60    2.06 
   4  -4  -2   58.79    2.95 
  -3   4   2   18.09    1.74 
   3  -4  -2   19.33    1.11 
   3  -4  -2   21.40    1.62 
  -2   4   2    1.01    0.58 
   2  -4  -2    4.19    0.83 
   2  -4  -2    2.81    0.47 
  -1   4   2   27.45    1.34 
   1  -4  -2   26.48    1.46 
   0  -4  -2   40.79    1.69 
  -1  -4  -2  100.00    2.84 
  -2  -4  -2  106.49    2.95 
  -3  -4  -2  215.23    5.03 
  -3  -4  -2  220.07    4.75 
  -4  -4  -2   49.27    1.79 
  -4  -4  -2   47.82    1.83 
  -5  -4  -2    9.21    1.17 
  -5  -4  -2    8.04    0.91 
  -6  -4  -2   25.45    1.86 
  -7  -4  -2   44.42    2.63 
  -8  -4  -2    8.05    1.93 
  -9  -4  -2   -0.59    1.50 
 -10  -4  -2   13.50    2.54 
 -11  -4  -2   21.64    3.37 
 -12  -4  -2   -1.23    2.73 
  -8   4   3    2.39    2.55 
  -7   4   3    5.26    2.45 
   7  -4  -3    5.16    2.05 
  -6   4   3   25.11    2.93 
   6  -4  -3   17.92    2.47 
  -5   4   3   10.12    2.17 
   5  -4  -3    8.62    1.35 
   5  -4  -3    6.97    1.62 
  -4   4   3   -0.23    1.37 
   4  -4  -3   -0.06    0.92 
   4  -4  -3    0.56    0.77 
  -3   4   3   22.87    2.06 
   3  -4  -3   21.27    1.28 
   3  -4  -3   22.05    1.69 
  -2   4   3   44.37    2.14 
   2  -4  -3   51.07    1.72 
   2  -4  -3   52.07    2.22 
  -1   4   3  112.11    3.31 
   1  -4  -3  124.75    3.51 
   1  -4  -3  122.04    2.83 
   0  -4  -3  162.26    4.11 
   0  -4  -3  160.15    3.47 
  -1  -4  -3   90.97    2.69 
  -2  -4  -3  136.24    3.53 
  -3  -4  -3   -0.37    0.34 
  -4  -4  -3   60.56    2.01 
  -4  -4  -3   60.25    2.10 
  -5  -4  -3   88.52    2.97 
  -5  -4  -3   86.36    2.78 
  -6  -4  -3   41.90    2.45 
  -7  -4  -3   52.08    2.93 
  -8  -4  -3   39.95    2.91 
  -9  -4  -3   28.13    2.87 
 -10  -4  -3   -0.58    1.81 
 -11  -4  -3   12.98    2.75 
 -12  -4  -3    8.66    2.81 
  -7   4   4    9.91    2.77 
   7  -4  -4    8.79    2.25 
  -6   4   4    1.61    1.95 
   6  -4  -4    2.44    1.62 
  -5   4   4   26.35    2.85 
   5  -4  -4   29.29    2.49 
   5  -4  -4   24.29    1.93 
  -4   4   4   37.67    2.90 
   4  -4  -4   44.34    2.57 
   4  -4  -4   40.05    2.05 
  -3   4   4    9.86    1.54 
   3  -4  -4    9.58    1.10 
   3  -4  -4    9.14    1.29 
  -2   4   4   21.14    1.70 
   2  -4  -4   18.96    1.22 
   2  -4  -4   19.56    1.41 
  -1   4   4   93.91    2.69 
   1  -4  -4   86.34    2.88 
   1  -4  -4   92.62    2.55 
   0  -4  -4  114.28    2.84 
   0  -4  -4  114.22    3.23 
  -1  -4  -4   17.35    1.11 
  -2  -4  -4  202.94    4.82 
  -3  -4  -4  247.19    5.66 
  -4  -4  -4   25.66    1.36 
  -4  -4  -4   24.74    1.25 
  -5  -4  -4   11.02    1.20 
  -5  -4  -4    9.26    0.99 
  -6  -4  -4  153.73    4.48 
  -7  -4  -4   16.55    1.89 
  -8  -4  -4    6.02    1.71 
  -9  -4  -4   15.23    2.34 
 -10  -4  -4   27.69    3.06 
 -11  -4  -4   -0.77    2.21 
 -12  -4  -4    1.01    2.38 
   6  -4  -5   28.38    2.36 
  -5   4   5   -0.22    1.64 
   5  -4  -5   -0.92    1.09 
   5  -4  -5    0.44    1.30 
  -4   4   5   28.23    2.57 
   4  -4  -5   28.85    1.97 
   4  -4  -5   27.35    2.16 
  -3   4   5   76.26    3.12 
   3  -4  -5   80.68    3.19 
   3  -4  -5   78.66    2.81 
   2  -4  -5   17.32    1.41 
   2  -4  -5   15.63    1.31 
  -1   4   5   11.87    1.22 
   1  -4  -5   11.65    1.13 
   1  -4  -5   11.28    1.05 
   0  -4  -5   25.97    1.36 
   0  -4  -5   26.45    1.45 
  -1  -4  -5   36.78    1.63 
  -1  -4  -5   33.81    1.48 
  -2  -4  -5   33.43    1.55 
  -3  -4  -5   10.02    0.95 
  -4  -4  -5   47.42    1.91 
  -4  -4  -5   49.57    1.67 
  -5  -4  -5   49.94    2.09 
  -5  -4  -5   50.51    2.05 
  -6  -4  -5   25.26    1.81 
  -7  -4  -5  110.28    3.92 
  -8  -4  -5   40.53    2.71 
  -9  -4  -5   15.58    2.23 
 -10  -4  -5   14.35    2.46 
 -11  -4  -5   17.41    2.93 
 -12  -4  -5    2.03    2.61 
   6  -4  -6    1.19    1.55 
   5  -4  -6   13.58    1.86 
   4  -4  -6   15.91    1.75 
  -3   4   6    1.85    1.27 
   3  -4  -6    1.03    1.04 
   3  -4  -6    0.27    0.83 
  -2   4   6   46.46    2.39 
   2  -4  -6   52.50    2.32 
   2  -4  -6   53.73    2.39 
  -1   4   6   20.70    1.52 
   1  -4  -6   21.77    1.47 
   1  -4  -6   21.68    1.50 
   0   4   6    4.90    0.78 
   0  -4  -6    4.69    0.91 
   0  -4  -6    5.31    0.86 
  -1  -4  -6    5.21    0.77 
  -1  -4  -6    5.64    0.86 
  -2  -4  -6   30.48    1.50 
  -2  -4  -6   28.43    1.44 
  -3  -4  -6   23.31    1.31 
   4   4   6    8.57    0.90 
  -4  -4  -6    9.13    0.97 
  -5  -4  -6   30.51    1.70 
  -5  -4  -6   31.10    1.50 
  -6  -4  -6   13.03    1.43 
  -7  -4  -6    6.54    1.43 
  -8  -4  -6   17.75    2.13 
  -9  -4  -6   15.94    2.31 
 -10  -4  -6   11.42    2.32 
 -11  -4  -6    5.01    2.25 
 -12  -4  -6   -0.57    2.16 
   6  -4  -7   -1.27    1.52 
   5  -4  -7    7.76    1.73 
   4  -4  -7   13.22    1.83 
   3  -4  -7   10.72    1.61 
   2  -4  -7   -0.45    0.95 
  -1   4   7   49.78    2.35 
   1  -4  -7   45.17    2.20 
   0   4   7   35.81    1.88 
   0  -4  -7   36.73    1.93 
   0  -4  -7   34.09    1.67 
  -1  -4  -7   14.19    1.11 
  -1  -4  -7   13.04    1.30 
  -2  -4  -7   60.64    2.25 
  -2  -4  -7   56.69    2.12 
   3   4   7   55.47    2.07 
  -3  -4  -7   55.15    2.09 
  -3  -4  -7   57.94    2.13 
   4   4   7   14.31    1.19 
  -4  -4  -7   14.25    1.17 
   5   4   7    2.11    0.84 
  -5  -4  -7    1.53    0.68 
  -6  -4  -7   27.37    1.65 
  -6  -4  -7   27.85    1.79 
  -7  -4  -7   32.01    2.10 
  -8  -4  -7    0.23    1.33 
  -9  -4  -7    1.49    1.69 
 -10  -4  -7   27.89    3.02 
 -11  -4  -7   12.08    2.60 
 -12  -4  -7   -0.67    2.17 
   5  -4  -8    2.69    1.62 
   4  -4  -8    6.30    1.67 
   3  -4  -8   17.98    2.04 
   2  -4  -8   20.86    1.99 
   1  -4  -8    3.66    1.16 
   0  -4  -8   29.52    1.88 
  -1  -4  -8   46.43    2.19 
   2   4   8   21.44    1.59 
  -2  -4  -8   23.71    1.61 
  -2  -4  -8   22.65    1.40 
   3   4   8   22.29    1.58 
  -3  -4  -8   26.16    1.61 
  -3  -4  -8   22.74    1.45 
   4   4   8   44.37    2.12 
  -4  -4  -8   44.81    2.02 
  -4  -4  -8   49.25    2.06 
   5   4   8   41.30    2.05 
  -5  -4  -8   42.68    2.04 
  -6  -4  -8    0.46    0.80 
  -7  -4  -8   18.05    1.65 
  -8  -4  -8   18.60    2.06 
  -9  -4  -8   -0.78    1.57 
 -10  -4  -8   -0.15    1.77 
 -11  -4  -8   -0.89    1.95 
 -12  -4  -8   -0.67    2.29 
   4  -4  -9    5.43    1.78 
   3  -4  -9    3.40    1.54 
   2  -4  -9   16.50    1.98 
   1  -4  -9   14.09    1.81 
   0  -4  -9    3.21    1.18 
  -1  -4  -9    5.68    1.21 
  -2  -4  -9   54.17    2.49 
  -3  -4  -9   19.38    1.59 
  -4  -4  -9   15.16    1.50 
  -5  -4  -9   31.35    1.80 
  -5  -4  -9   31.80    1.86 
   6   4   9   51.86    2.71 
  -6  -4  -9   55.13    2.53 
  -7  -4  -9    2.73    1.10 
  -7  -4  -9    1.50    1.34 
  -8  -4  -9   21.57    2.18 
  -9  -4  -9   42.30    3.08 
 -10  -4  -9    8.12    2.37 
 -11  -4  -9    1.83    2.33 
 -12  -4  -9    6.04    2.83 
   3  -4 -10   12.08    2.24 
   2  -4 -10   -0.54    1.43 
   1  -4 -10   12.63    1.96 
   0  -4 -10   29.85    2.25 
  -1  -4 -10    2.95    1.25 
  -2  -4 -10    0.63    1.07 
  -3  -4 -10   46.58    2.46 
  -4  -4 -10   19.39    1.79 
  -5  -4 -10    0.50    0.96 
  -6  -4 -10   18.60    1.76 
  -7  -4 -10   36.14    2.41 
  -8  -4 -10    2.40    1.30 
  -9  -4 -10    0.73    1.53 
 -10  -4 -10   14.41    2.72 
 -11  -4 -10   10.06    2.77 
   1  -4 -11    1.07    1.56 
   0  -4 -11    1.98    1.54 
  -1  -4 -11   12.48    1.85 
  -2  -4 -11    7.13    1.56 
  -3  -4 -11   -0.03    1.12 
  -4  -4 -11   18.14    1.94 
  -5  -4 -11   14.51    1.78 
  -6  -4 -11   11.57    1.61 
  -7  -4 -11    4.84    1.35 
  -8  -4 -11    8.67    1.56 
   0  -4 -12    1.19    1.65 
  -1  -4 -12    0.22    1.57 
  -2  -4 -12    4.91    1.59 
  -3  -4 -12    6.30    1.64 
  -4  -4 -12    0.63    1.25 
  -5  -4 -12    0.47    1.18 
  -6  -4 -12   12.24    1.73 
  -7  -4 -12   20.39    2.10 
  -4  -4 -13   10.64    2.06 
  -5  -4 -13    0.37    1.42 
  -6  -4 -13    5.66    1.67 
   3  -5   9    4.17    2.71 
   2  -5   9    5.26    2.76 
   1  -5   9    5.53    2.83 
   0  -5   9   -0.42    2.56 
  -1  -5   9    0.77    2.64 
   5  -5   8    1.38    2.56 
   4  -5   8    0.25    2.36 
   3  -5   8    6.50    2.60 
   2  -5   8    1.97    2.33 
   1  -5   8   -0.44    2.19 
   0  -5   8    5.45    2.39 
  -1  -5   8   10.55    2.67 
  -2  -5   8    2.61    2.13 
  -4  -5   8    7.89    3.05 
   6  -5   7    1.02    2.42 
   5  -5   7    8.76    2.51 
   4  -5   7   -0.10    1.99 
   3  -5   7    2.22    2.10 
   2  -5   7    9.25    2.49 
   1  -5   7    5.66    2.36 
   0  -5   7    0.97    2.15 
  -1  -5   7    4.10    2.46 
  -2  -5   7   14.71    2.96 
  -3  -5   7    8.24    2.56 
  -4  -5   7    0.48    2.11 
  -5  -5   7    7.08    2.67 
  -7   5  -6    2.95    2.33 
   6  -5   6    2.11    2.30 
   5  -5   6    2.53    1.93 
   5  -5   6    0.98    1.83 
   4  -5   6    9.75    2.13 
   4  -5   6    9.46    2.21 
   3  -5   6    4.23    1.96 
   2  -5   6    1.53    1.73 
   1  -5   6   23.36    2.85 
   0  -5   6   32.48    3.02 
  -1  -5   6    5.27    2.13 
  -2  -5   6   35.79    3.10 
  -3  -5   6   39.38    3.39 
  -4  -5   6   12.38    2.75 
  -5  -5   6    4.96    2.38 
  -6  -5   6   10.86    2.60 
  -7  -5   6    9.86    3.02 
  -7   5  -5    3.28    2.10 
   6  -5   5    7.91    2.37 
   6  -5   5    8.23    2.53 
   5  -5   5    4.94    1.97 
   5  -5   5    6.74    2.05 
   4  -5   5    0.70    1.43 
   4  -5   5    0.21    1.57 
   3  -5   5   16.45    2.33 
   3  -5   5   19.24    2.27 
   2  -5   5   21.12    2.34 
   2  -5   5   16.90    1.95 
   1  -5   5    5.07    1.62 
   0  -5   5   10.08    1.89 
  -1  -5   5   25.69    2.42 
  -2  -5   5    9.68    1.95 
  -3  -5   5   11.24    2.26 
  -4  -5   5   22.11    2.80 
  -5  -5   5   29.38    2.94 
  -6  -5   5   -0.10    2.00 
  -7  -5   5    5.39    2.54 
  -8  -5   5    6.07    2.91 
  -8   5  -4    8.72    2.73 
  -7   5  -4    3.77    1.94 
   7  -5   4    4.19    2.19 
  -6   5  -4    9.37    2.16 
   6  -5   4    9.45    2.39 
   5  -5   4   11.53    2.26 
   5  -5   4   14.26    2.37 
   4  -5   4   20.78    2.40 
   4  -5   4   20.36    2.44 
   3  -5   4    3.08    1.42 
   3  -5   4    1.59    1.26 
   2  -5   4   24.97    2.18 
   2  -5   4   20.84    2.10 
   1  -5   4   71.41    3.40 
   1  -5   4   74.80    3.12 
   0  -5   4   23.04    2.28 
   0  -5   4   22.69    1.69 
  -1  -5   4    9.37    1.68 
  -2  -5   4   36.73    2.59 
  -3  -5   4   23.03    2.37 
  -4  -5   4    3.07    1.55 
  -5  -5   4   18.72    2.53 
  -6  -5   4   22.89    2.93 
  -7  -5   4    4.75    2.38 
  -8  -5   4   -0.33    2.34 
  -9  -5   4    3.43    3.02 
  -8   5  -3   -0.50    2.44 
   8  -5   3    0.63    1.96 
  -7   5  -3   10.13    2.40 
   7  -5   3   10.81    2.61 
  -6   5  -3    4.25    1.77 
   6  -5   3    4.02    1.95 
   5  -5   3    0.49    1.47 
   5  -5   3    1.40    1.60 
   4  -5   3    5.81    1.68 
   4  -5   3    6.93    1.66 
   3  -5   3   45.99    2.89 
   3  -5   3   46.80    2.68 
   2  -5   3   -0.30    0.97 
   2  -5   3   -0.47    0.80 
   1  -5   3    6.12    1.33 
   1  -5   3    5.74    1.12 
   0  -5   3  128.38    4.36 
   0  -5   3  131.51    3.94 
  -1  -5   3   51.57    2.20 
  -1  -5   3   73.21    3.03 
  -2  -5   3    4.59    1.26 
  -2  -5   3    4.49    0.80 
  -3  -5   3   37.59    1.74 
  -3  -5   3   40.63    2.47 
  -4  -5   3   50.06    2.83 
  -5  -5   3   17.41    2.19 
  -6  -5   3   20.78    2.50 
  -7  -5   3   18.60    2.81 
  -8  -5   3    1.27    2.38 
  -9  -5   3   -0.31    2.47 
 -10  -5   3    3.92    3.02 
  -8   5  -2    8.70    2.81 
   8  -5   2    5.55    2.33 
  -7   5  -2   -0.32    2.00 
   7  -5   2    2.51    1.89 
  -6   5  -2   35.12    2.57 
   6  -5   2   35.13    3.24 
  -5   5  -2   19.39    2.14 
   5  -5   2   19.42    2.49 
   4  -5   2    0.50    1.24 
   4  -5   2   -0.64    1.14 
   3  -5   2   80.41    3.62 
   3  -5   2   82.00    3.34 
   2  -5   2   27.24    2.06 
   2  -5   2   27.91    1.94 
   1  -5   2    2.22    0.90 
   1  -5   2    1.94    0.81 
   0  -5   2    3.04    0.80 
   0  -5   2    2.60    0.92 
  -1  -5   2  103.76    3.53 
  -1  -5   2  109.16    3.25 
  -2  -5   2   66.42    2.80 
  -3  -5   2   11.51    1.42 
  -3  -5   2    8.93    0.99 
  -4  -5   2   47.41    1.97 
  -4  -5   2   49.62    2.54 
  -5  -5   2   51.47    2.76 
  -5  -5   2   48.99    2.11 
  -6  -5   2   42.13    2.77 
  -7  -5   2    4.45    1.82 
  -8  -5   2   20.36    2.88 
  -9  -5   2    7.08    2.68 
 -10  -5   2   -2.95    2.51 
  -8   5  -1    4.83    2.72 
   8  -5   1    4.85    2.32 
  -7   5  -1    7.70    2.47 
   7  -5   1    7.35    2.23 
  -6   5  -1   -1.96    1.87 
   6  -5   1    1.17    1.65 
  -5   5  -1    6.09    1.50 
   5  -5   1    7.86    1.83 
  -4   5  -1   57.85    2.70 
   4  -5   1   60.52    3.31 
   3  -5   1   36.67    2.44 
   3  -5   1   32.16    2.12 
   2  -5   1   31.56    1.85 
   2  -5   1   28.01    2.01 
   1  -5   1   43.47    2.17 
   1  -5   1   45.94    2.16 
   0  -5   1  110.39    3.44 
   0  -5   1  106.57    3.38 
  -1  -5   1    5.15    0.85 
  -1  -5   1    5.61    0.98 
  -2  -5   1   22.30    1.52 
  -2  -5   1   23.63    1.38 
  -3  -5   1  105.61    3.40 
  -3  -5   1  106.31    3.13 
  -4  -5   1   43.55    2.19 
  -4  -5   1   46.00    1.94 
  -5  -5   1   27.68    1.55 
  -5  -5   1   23.49    1.87 
  -6  -5   1   23.20    2.06 
  -6  -5   1   23.38    1.59 
  -7  -5   1   26.72    2.45 
  -7  -5   1   25.40    1.79 
  -8  -5   1   -0.39    1.84 
  -8  -5   1   -0.58    0.95 
  -9  -5   1    0.92    2.14 
 -10  -5   1    6.33    2.74 
 -11  -5   1    1.73    2.99 
  -8   5   0    0.26    2.40 
   8  -5   0   -0.57    1.97 
  -7   5   0   12.20    2.72 
   7  -5   0   12.76    2.64 
  -6   5   0    0.89    1.91 
   6  -5   0    0.99    1.49 
  -5   5   0    3.65    1.76 
   5  -5   0    5.24    1.55 
  -4   5   0   20.58    1.99 
   4  -5   0   18.59    2.03 
  -3   5   0   38.50    1.96 
   3  -5   0   38.57    2.44 
   2  -5   0    2.94    0.92 
   2  -5   0    3.97    0.99 
   1  -5   0   25.14    1.49 
   1  -5   0   24.71    1.67 
   0  -5   0  153.83    4.10 
   0  -5   0  153.34    4.25 
  -1  -5   0  161.32    4.30 
  -1  -5   0  165.26    4.25 
  -2  -5   0    7.14    0.92 
  -2  -5   0    8.07    0.93 
  -3  -5   0   55.85    2.14 
  -3  -5   0   57.59    2.12 
  -4  -5   0  165.77    4.49 
  -4  -5   0  162.26    4.23 
  -5  -5   0   13.87    1.45 
  -5  -5   0   12.82    1.23 
  -6  -5   0    8.02    1.09 
  -6  -5   0    7.78    1.49 
  -7  -5   0   55.25    2.45 
  -8  -5   0    6.89    1.88 
  -8  -5   0   23.73    1.95 
  -9  -5   0    3.60    1.94 
  -9  -5   0    3.11    1.24 
 -10  -5   0    5.92    1.50 
 -10  -5   0    3.50    2.29 
  -8   5   1    3.16    2.79 
   8  -5  -1    3.76    2.25 
  -7   5   1   -1.80    2.17 
   7  -5  -1    1.32    2.02 
  -6   5   1   11.19    2.35 
   6  -5  -1   10.18    2.21 
  -5   5   1    9.22    2.07 
   5  -5  -1    8.52    1.79 
  -4   5   1    0.14    1.37 
   4  -5  -1    0.48    1.06 
  -3   5   1   27.26    1.84 
   3  -5  -1   26.09    2.01 
  -2   5   1   21.03    1.35 
   2  -5  -1   21.57    1.61 
   2  -5  -1   19.95    0.89 
   1  -5  -1  107.20    3.48 
   1  -5  -1  106.02    2.31 
   1  -5  -1  102.11    3.07 
   0  -5  -1   16.58    1.30 
   0  -5  -1   15.07    1.00 
  -1  -5  -1  286.74    6.30 
  -1  -5  -1  285.52    6.58 
  -2  -5  -1  225.99    5.42 
  -2  -5  -1  221.34    5.13 
  -3  -5  -1    6.67    0.86 
  -3  -5  -1    6.48    0.76 
  -4  -5  -1   65.66    2.29 
  -4  -5  -1   60.68    2.18 
  -5  -5  -1   76.75    2.78 
  -5  -5  -1   77.87    2.65 
  -6  -5  -1   31.88    1.77 
  -7  -5  -1    0.49    0.78 
  -7  -5  -1    0.41    1.11 
  -8  -5  -1   35.56    2.21 
  -8  -5  -1   35.70    2.76 
  -9  -5  -1   10.58    2.17 
 -10  -5  -1    7.48    2.34 
 -11  -5  -1    0.94    2.40 
 -12  -5  -1    4.74    3.01 
   8  -5  -2    6.97    2.42 
  -7   5   2   18.20    3.18 
   7  -5  -2   17.65    2.82 
  -6   5   2   -0.10    1.91 
   6  -5  -2   -0.65    1.38 
  -5   5   2    0.06    1.81 
   5  -5  -2    1.77    1.32 
  -4   5   2   69.60    3.31 
   4  -5  -2   74.15    3.46 
  -3   5   2   10.53    1.57 
   3  -5  -2   10.04    0.94 
   3  -5  -2   10.18    1.47 
   2  -5  -2    1.85    0.81 
   2  -5  -2    2.30    0.56 
  -1   5   2   13.53    1.14 
   1  -5  -2   13.45    0.82 
   1  -5  -2   15.30    1.30 
   0  -5  -2   34.91    1.77 
  -1  -5  -2    3.37    0.72 
  -2  -5  -2    9.00    0.99 
  -3  -5  -2   85.63    2.28 
  -3  -5  -2   83.24    2.72 
  -4  -5  -2   19.08    1.11 
  -4  -5  -2   18.89    1.29 
  -5  -5  -2    8.59    1.05 
  -5  -5  -2   11.86    1.14 
  -6  -5  -2    9.64    1.29 
  -6  -5  -2    8.83    1.08 
  -7  -5  -2   31.07    2.22 
  -7  -5  -2   32.93    2.01 
  -8  -5  -2    3.41    1.59 
  -9  -5  -2    4.21    1.81 
 -10  -5  -2   13.00    2.64 
 -11  -5  -2    0.27    2.40 
 -12  -5  -2   -0.37    2.42 
   7  -5  -3   11.71    2.47 
  -6   5   3   25.38    2.99 
   6  -5  -3   21.12    2.74 
  -5   5   3    7.56    2.28 
   5  -5  -3    7.08    1.80 
  -4   5   3    3.05    1.78 
   4  -5  -3    3.68    1.31 
   4  -5  -3    2.51    0.70 
  -3   5   3   60.62    2.82 
  -2   5   3   76.86    2.89 
   2  -5  -3   73.02    2.93 
  -1   5   3   24.36    1.51 
   1  -5  -3   24.63    1.60 
   1  -5  -3   22.77    1.15 
   0  -5  -3   99.13    3.24 
   0  -5  -3  108.14    2.58 
  -1  -5  -3   54.52    2.14 
  -2  -5  -3  254.32    5.96 
  -3  -5  -3    3.45    0.70 
  -4  -5  -3  107.05    2.77 
  -4  -5  -3  106.28    3.21 
  -5  -5  -3   25.19    1.49 
  -5  -5  -3   25.44    1.51 
  -6  -5  -3   22.17    1.55 
  -6  -5  -3   23.65    1.91 
  -7  -5  -3   35.43    2.26 
  -7  -5  -3   35.23    2.06 
  -8  -5  -3   13.97    2.01 
  -9  -5  -3   11.94    2.11 
 -10  -5  -3   -1.46    1.64 
 -11  -5  -3   10.39    2.85 
 -12  -5  -3   -0.71    2.46 
   7  -5  -4    1.42    1.98 
   6  -5  -4    3.33    1.91 
   5  -5  -4   20.10    2.42 
  -4   5   4   10.96    2.07 
   4  -5  -4   10.14    1.70 
   4  -5  -4   10.63    1.39 
  -3   5   4    5.72    1.15 
   3  -5  -4   11.43    1.58 
   3  -5  -4   10.26    1.17 
  -2   5   4   70.28    2.84 
   2  -5  -4   78.80    2.39 
   2  -5  -4   66.22    2.84 
   1  -5  -4  130.18    3.95 
   1  -5  -4  130.23    3.28 
   0  -5  -4    0.16    0.55 
   0  -5  -4    0.40    0.48 
  -1  -5  -4  100.66    3.10 
  -2  -5  -4   54.71    2.11 
  -3  -5  -4  230.79    5.55 
  -4  -5  -4   21.05    1.36 
  -5  -5  -4   41.07    1.79 
  -5  -5  -4   40.52    1.90 
  -6  -5  -4  138.74    4.19 
  -6  -5  -4  143.26    4.18 
  -7  -5  -4    3.08    0.98 
  -7  -5  -4    2.07    1.27 
  -8  -5  -4   40.32    2.75 
  -9  -5  -4   15.42    2.34 
 -10  -5  -4   11.32    2.35 
 -11  -5  -4    1.16    2.13 
 -12  -5  -4    5.30    2.50 
 -13  -5  -4    7.14    3.04 
   5  -5  -5    7.13    1.53 
   5  -5  -5    6.45    1.84 
   4  -5  -5   32.78    2.08 
   4  -5  -5   31.55    2.50 
   3  -5  -5   19.97    1.86 
   3  -5  -5   18.20    1.56 
   2  -5  -5    2.00    0.90 
   2  -5  -5    0.54    0.84 
   1  -5  -5   46.27    1.90 
   1  -5  -5   42.63    2.10 
   0  -5  -5   78.02    2.80 
   0  -5  -5   77.39    2.44 
  -1  -5  -5   18.72    1.32 
  -1  -5  -5   17.77    1.15 
  -2  -5  -5   17.83    1.26 
  -3  -5  -5  150.16    4.07 
  -4  -5  -5   32.21    1.68 
  -5  -5  -5   13.60    1.18 
  -5  -5  -5   15.78    1.29 
  -6  -5  -5    1.96    0.78 
  -6  -5  -5    2.46    1.04 
  -7  -5  -5  144.42    4.53 
  -7  -5  -5  145.73    4.51 
  -8  -5  -5    5.15    1.57 
  -9  -5  -5   -1.70    1.45 
 -10  -5  -5   48.59    3.48 
 -11  -5  -5   17.06    2.84 
 -12  -5  -5   -0.48    2.24 
 -13  -5  -5    4.69    3.00 
   5  -5  -6    4.80    1.60 
   4  -5  -6   -0.39    1.12 
   3  -5  -6    0.06    1.05 
   3  -5  -6    0.18    1.04 
   2  -5  -6   47.85    2.26 
   2  -5  -6   47.22    2.43 
   1  -5  -6   34.41    1.90 
   1  -5  -6   34.03    1.81 
   0  -5  -6    1.24    0.76 
   0  -5  -6    1.53    0.74 
  -1  -5  -6   48.37    2.00 
  -1  -5  -6   53.63    2.16 
  -2  -5  -6  117.31    3.48 
  -3  -5  -6    3.28    0.78 
  -4  -5  -6   85.98    2.90 
  -5  -5  -6   19.68    1.32 
  -5  -5  -6   17.99    1.37 
  -6  -5  -6   17.21    1.53 
  -6  -5  -6   17.19    1.49 
  -7  -5  -6   15.18    1.59 
  -7  -5  -6   15.78    1.78 
  -8  -5  -6   19.67    2.02 
  -9  -5  -6    7.40    1.84 
 -10  -5  -6   -0.85    1.74 
 -11  -5  -6   15.84    2.78 
 -12  -5  -6    2.54    2.61 
 -13  -5  -6    1.57    2.72 
   5  -5  -7    9.73    1.88 
   4  -5  -7    7.16    1.63 
   3  -5  -7    2.40    1.38 
   2  -5  -7   21.21    1.79 
   1  -5  -7   57.54    2.50 
   1  -5  -7   54.62    2.47 
   0  -5  -7    2.46    0.76 
   0  -5  -7    1.51    0.88 
  -1  -5  -7    0.25    0.76 
  -1  -5  -7    0.00    0.57 
  -2  -5  -7   58.82    2.29 
  -2  -5  -7   56.77    2.32 
  -3  -5  -7   59.36    2.36 
  -4  -5  -7    0.56    0.63 
  -5  -5  -7   32.25    1.47 
  -5  -5  -7   33.07    1.79 
  -6  -5  -7   49.52    2.38 
  -6  -5  -7   49.48    2.24 
  -7  -5  -7    6.21    1.25 
  -7  -5  -7    6.20    1.41 
  -8  -5  -7    4.73    1.60 
  -9  -5  -7   10.68    2.06 
 -10  -5  -7   27.06    2.76 
 -11  -5  -7    0.90    1.98 
 -12  -5  -7    4.45    2.38 
   5  -5  -8    1.37    1.64 
   4  -5  -8    8.01    1.76 
   3  -5  -8   15.15    1.91 
   2  -5  -8   11.53    1.69 
   1  -5  -8   12.22    1.58 
   0  -5  -8   41.49    2.21 
  -1  -5  -8   10.38    1.13 
  -1  -5  -8   12.64    1.43 
  -2  -5  -8    5.60    0.97 
  -2  -5  -8    5.27    1.11 
  -3  -5  -8   25.51    1.63 
  -3  -5  -8   26.31    1.59 
  -4  -5  -8    7.40    1.03 
  -5  -5  -8   25.36    1.68 
  -6  -5  -8    2.54    0.95 
  -7  -5  -8   29.56    2.05 
  -7  -5  -8   29.34    2.11 
  -8  -5  -8    3.31    1.15 
  -8  -5  -8    3.16    1.48 
  -9  -5  -8   -0.62    1.52 
 -10  -5  -8    3.00    1.90 
 -11  -5  -8    6.48    2.31 
 -12  -5  -8   -1.02    2.09 
   4  -5  -9    1.80    1.74 
   3  -5  -9    6.59    1.75 
   2  -5  -9   16.75    2.08 
   1  -5  -9   14.21    1.81 
   0  -5  -9    2.74    1.22 
  -1  -5  -9   12.11    1.53 
  -2  -5  -9   26.61    1.80 
  -3  -5  -9    3.32    0.99 
  -4  -5  -9   12.08    1.38 
  -4  -5  -9    8.98    1.17 
  -5  -5  -9   12.67    1.41 
  -6  -5  -9   29.64    1.94 
  -7  -5  -9    2.39    1.06 
  -8  -5  -9   13.61    1.83 
  -9  -5  -9   12.67    1.93 
 -10  -5  -9   -0.40    1.85 
 -11  -5  -9    8.67    2.47 
 -12  -5  -9    6.38    2.74 
   2  -5 -10    6.31    1.79 
   1  -5 -10   20.65    2.25 
   0  -5 -10   25.96    2.25 
  -1  -5 -10    0.87    1.21 
  -2  -5 -10   22.96    1.94 
  -3  -5 -10   67.18    2.91 
  -4  -5 -10   -0.24    0.89 
  -5  -5 -10   11.63    1.48 
  -6  -5 -10   39.72    2.28 
  -6  -5 -10   37.29    2.16 
  -7  -5 -10   19.11    1.92 
  -8  -5 -10    0.43    1.14 
  -9  -5 -10    8.27    1.86 
 -10  -5 -10   15.17    2.24 
   1  -5 -11   -0.18    1.63 
   0  -5 -11   12.13    2.00 
  -1  -5 -11   14.40    1.94 
  -2  -5 -11    3.28    1.34 
  -3  -5 -11    3.98    1.33 
  -4  -5 -11   33.70    2.27 
  -5  -5 -11    6.63    1.49 
  -6  -5 -11   -1.52    0.96 
  -7  -5 -11   25.00    2.03 
  -9  -5 -11   -0.63    1.31 
 -10  -5 -11    1.73    1.66 
  -1  -5 -12    4.61    1.76 
  -2  -5 -12   12.67    2.02 
  -3  -5 -12    3.61    1.50 
  -4  -5 -12   -0.27    1.17 
  -5  -5 -12    7.10    1.49 
  -6  -5 -12   10.74    1.72 
  -7  -5 -12    2.27    1.28 
  -8  -5 -12    3.26    1.39 
  -4  -5 -13    3.08    1.61 
  -5  -5 -13    1.83    1.45 
  -6  -5 -13    8.66    1.83 
  -7  -5 -13    5.09    1.67 
   3  -6   8    2.75    2.77 
   2  -6   8   -2.62    2.53 
   1  -6   8    2.55    2.83 
   0  -6   8    8.03    3.20 
  -1  -6   8    0.52    2.97 
  -2  -6   8    1.19    3.04 
   5  -6   7    5.05    2.81 
   3  -6   7   -0.22    2.21 
   2  -6   7    6.80    2.61 
   1  -6   7    2.82    2.26 
   0  -6   7   -0.58    2.22 
  -1  -6   7   10.26    2.97 
  -2  -6   7    6.21    2.78 
  -3  -6   7    1.57    2.59 
  -4  -6   7    5.52    3.16 
   6  -6   6   -0.69    2.43 
   5  -6   6    5.04    2.39 
   4  -6   6   15.38    2.76 
   3  -6   6    4.79    2.33 
   2  -6   6   -0.88    1.84 
   1  -6   6   19.42    2.92 
   0  -6   6   17.71    2.92 
  -1  -6   6   -1.81    1.88 
  -2  -6   6   18.77    2.97 
  -3  -6   6   21.61    3.24 
  -4  -6   6    0.40    2.43 
  -5  -6   6    8.53    2.89 
  -6  -6   6   16.83    3.57 
   6  -6   5    1.47    1.80 
   6  -6   5    2.46    2.23 
   5  -6   5    0.95    1.84 
   5  -6   5   -0.31    1.94 
   4  -6   5    8.99    2.19 
   4  -6   5    3.87    2.19 
   3  -6   5   13.91    2.20 
   3  -6   5   11.78    2.40 
   2  -6   5    6.06    2.00 
   1  -6   5    2.68    1.73 
   0  -6   5   19.68    2.67 
  -1  -6   5   28.51    2.87 
  -2  -6   5    6.53    2.07 
  -3  -6   5    9.16    2.41 
  -4  -6   5   17.78    2.92 
  -5  -6   5   20.85    3.07 
  -6  -6   5   -1.89    2.13 
  -7  -6   5   11.30    3.15 
  -7   6  -4   -0.76    1.95 
   7  -6   4    2.46    2.43 
  -6   6  -4    6.58    2.23 
   6  -6   4    8.72    2.54 
   5  -6   4    4.47    2.16 
   5  -6   4    4.71    1.97 
   4  -6   4   -1.35    1.39 
   4  -6   4    0.53    1.64 
   3  -6   4    7.65    1.91 
   3  -6   4    5.08    1.63 
   2  -6   4   11.38    2.04 
   2  -6   4   12.01    1.87 
   1  -6   4    0.15    1.29 
   1  -6   4    0.61    1.01 
   0  -6   4    5.39    1.69 
   0  -6   4    4.59    1.02 
  -1  -6   4   10.23    1.96 
  -2  -6   4   42.96    2.89 
  -3  -6   4    6.65    1.90 
  -4  -6   4   11.87    2.25 
  -5  -6   4   27.57    2.85 
  -6  -6   4   18.97    2.90 
  -7  -6   4    1.48    2.19 
  -8  -6   4    4.27    2.75 
  -7   6  -3    7.19    2.48 
   7  -6   3    7.75    2.43 
  -6   6  -3    1.35    1.76 
   6  -6   3    1.23    1.79 
   5  -6   3    9.95    2.36 
   4  -6   3    7.86    1.96 
   4  -6   3    5.66    1.89 
   3  -6   3    6.37    1.54 
   3  -6   3    6.59    1.68 
   2  -6   3    0.14    1.06 
   2  -6   3   -0.57    1.16 
   1  -6   3    9.52    1.55 
   1  -6   3   11.72    1.77 
   0  -6   3    6.47    1.54 
   0  -6   3    6.41    1.16 
  -1  -6   3    6.92    1.60 
  -1  -6   3    5.38    1.06 
  -2  -6   3   11.22    1.22 
  -2  -6   3   14.33    1.91 
  -3  -6   3   27.68    2.38 
  -4  -6   3    1.42    1.38 
  -5  -6   3    8.41    1.94 
  -6  -6   3   40.43    3.07 
  -7  -6   3   10.92    2.57 
  -8  -6   3   -1.00    2.07 
  -9  -6   3    2.97    2.82 
  -7   6  -2    5.84    2.60 
   7  -6   2    4.27    2.33 
  -6   6  -2   30.58    2.86 
   6  -6   2   27.59    3.30 
  -5   6  -2    1.42    1.62 
   5  -6   2    1.50    1.58 
   4  -6   2   18.88    2.43 
   4  -6   2   20.64    2.33 
   3  -6   2   78.79    3.86 
   3  -6   2   84.92    3.58 
   2  -6   2   29.10    2.33 
   2  -6   2   29.48    2.19 
   1  -6   2   19.30    1.79 
   1  -6   2   17.49    1.79 
   0  -6   2   60.57    2.70 
   0  -6   2   60.34    2.86 
  -1  -6   2   76.44    3.22 
  -1  -6   2   82.40    2.99 
  -2  -6   2    2.50    0.82 
  -2  -6   2    3.17    1.20 
  -4  -6   2   21.10    1.50 
  -4  -6   2   20.24    2.00 
  -5  -6   2   14.00    1.38 
  -5  -6   2   20.07    2.17 
  -6  -6   2   -1.14    1.24 
  -7  -6   2   29.75    2.79 
  -8  -6   2   15.75    2.87 
  -9  -6   2    5.90    2.76 
 -10  -6   2    2.64    2.80 
  -7   6  -1    1.66    2.36 
   7  -6   1    4.02    2.24 
  -6   6  -1    1.71    2.10 
   6  -6   1    1.92    1.94 
  -5   6  -1   16.51    2.04 
   5  -6   1   16.91    2.56 
  -4   6  -1   16.23    1.96 
   4  -6   1   12.46    2.07 
   3  -6   1    6.06    1.49 
   3  -6   1    9.13    1.67 
   2  -6   1   53.39    2.57 
   2  -6   1   51.78    2.88 
   1  -6   1   87.19    3.23 
   1  -6   1   81.37    3.35 
   0  -6   1   49.13    2.36 
   0  -6   1   46.83    2.27 
  -1  -6   1   42.65    2.13 
  -1  -6   1   40.40    2.15 
  -2  -6   1  276.52    6.63 
  -2  -6   1  270.80    6.87 
  -3  -6   1   67.76    2.77 
  -3  -6   1   59.68    2.46 
  -4  -6   1    7.32    1.24 
  -4  -6   1    7.79    1.07 
  -5  -6   1   40.58    2.39 
  -5  -6   1   34.87    1.95 
  -6  -6   1   32.40    1.89 
  -6  -6   1   32.36    2.38 
  -7  -6   1    9.02    1.39 
  -7  -6   1   18.72    2.27 
  -8  -6   1    7.98    2.31 
  -9  -6   1    6.96    2.49 
 -10  -6   1    4.60    2.70 
 -11  -6   1   -3.21    2.79 
  -7   6   0    9.23    2.75 
   7  -6   0    6.67    2.51 
  -6   6   0    3.23    2.16 
   6  -6   0    4.57    1.98 
  -5   6   0    0.93    1.73 
   5  -6   0    0.11    1.48 
  -4   6   0    9.41    1.58 
   4  -6   0    9.04    1.82 
  -3   6   0   34.46    2.06 
   3  -6   0   33.83    2.50 
   2  -6   0    3.86    1.12 
   2  -6   0    3.19    1.15 
   1  -6   0   19.66    1.75 
   1  -6   0   20.00    1.51 
   0  -6   0   20.74    1.46 
   0  -6   0   18.72    1.51 
  -1  -6   0   25.32    1.57 
  -1  -6   0   25.72    1.67 
  -2  -6   0    9.54    1.11 
  -2  -6   0   10.80    1.14 
  -3  -6   0   63.14    2.50 
  -3  -6   0   59.85    2.40 
  -4  -6   0  138.35    3.97 
  -4  -6   0  134.77    4.04 
  -5  -6   0    0.17    0.88 
  -5  -6   0    0.15    0.68 
  -6  -6   0   36.79    2.27 
  -6  -6   0   36.38    2.01 
  -7  -6   0   37.81    2.55 
  -7  -6   0   37.23    2.20 
  -8  -6   0    7.27    1.99 
  -8  -6   0   12.68    1.63 
  -9  -6   0   -0.36    1.09 
  -9  -6   0   -1.95    1.90 
 -10  -6   0    3.69    2.54 
 -11  -6   0    2.15    2.67 
   7  -6  -1    3.61    2.26 
  -6   6   1   13.58    2.66 
   6  -6  -1   11.92    2.44 
  -5   6   1    2.79    1.96 
   5  -6  -1    0.83    1.46 
  -4   6   1    0.01    1.48 
   4  -6  -1   -0.31    1.06 
  -3   6   1   29.40    2.01 
   3  -6  -1   25.28    2.19 
  -2   6   1   43.16    1.97 
   2  -6  -1   40.70    2.39 
   1  -6  -1   12.19    1.44 
   1  -6  -1   10.24    0.74 
   1  -6  -1   10.96    1.25 
   0  -6  -1    9.42    1.19 
   0  -6  -1   10.69    1.02 
  -1  -6  -1   53.27    2.30 
  -1  -6  -1   51.74    1.99 
  -2  -6  -1   83.88    2.90 
  -2  -6  -1   80.69    2.58 
  -3  -6  -1    0.47    0.63 
  -3  -6  -1   -0.47    0.47 
  -4  -6  -1   45.82    2.12 
  -4  -6  -1   46.67    1.99 
  -5  -6  -1  145.94    4.27 
  -5  -6  -1  156.70    4.31 
  -6  -6  -1   23.06    1.76 
  -6  -6  -1   22.70    1.66 
  -7  -6  -1   27.87    2.01 
  -8  -6  -1   47.85    2.60 
  -9  -6  -1    7.81    1.49 
  -9  -6  -1    4.50    1.85 
 -10  -6  -1    2.35    2.26 
 -10  -6  -1    1.13    1.25 
 -11  -6  -1    2.96    1.55 
 -11  -6  -1    4.42    2.46 
 -12  -6  -1   -0.31    2.78 
   7  -6  -2    2.61    2.14 
   6  -6  -2    8.50    2.21 
  -5   6   2   16.38    2.59 
   5  -6  -2   11.18    2.16 
  -4   6   2    4.62    1.81 
   4  -6  -2    4.76    1.51 
  -3   6   2   20.84    1.87 
   3  -6  -2   21.81    2.04 
  -2   6   2   29.40    1.71 
   2  -6  -2   35.01    2.25 
  -1   6   2   43.26    1.74 
   1  -6  -2   42.15    1.44 
   1  -6  -2   41.24    2.27 
   0  -6  -2    2.94    0.64 
   0  -6  -2    2.23    0.78 
  -1  -6  -2   61.44    2.52 
  -2  -6  -2   35.03    1.34 
  -2  -6  -2   33.64    1.90 
  -3  -6  -2   45.12    2.05 
  -3  -6  -2   41.44    1.58 
  -4  -6  -2   -0.06    0.48 
  -4  -6  -2    0.33    0.63 
  -5  -6  -2    1.27    0.71 
  -5  -6  -2    0.80    0.66 
  -6  -6  -2   52.96    2.36 
  -7  -6  -2   35.66    2.16 
  -8  -6  -2    1.44    0.98 
  -8  -6  -2    1.66    1.31 
  -9  -6  -2   15.99    1.90 
  -9  -6  -2   24.37    2.62 
 -10  -6  -2   13.99    2.54 
 -10  -6  -2    8.32    1.73 
 -11  -6  -2    1.37    2.21 
 -11  -6  -2    0.84    1.35 
 -12  -6  -2    6.90    2.80 
 -12  -6  -2    2.28    1.62 
   7  -6  -3   10.70    2.68 
   6  -6  -3    6.50    2.19 
   5  -6  -3    1.75    1.71 
   4  -6  -3   16.53    2.12 
  -3   6   3   11.03    1.46 
   3  -6  -3   20.30    1.94 
  -2   6   3   22.22    1.88 
   2  -6  -3   20.61    1.82 
   2  -6  -3   21.38    1.25 
  -1   6   3   12.41    1.33 
   1  -6  -3   11.16    1.39 
   0  -6  -3   67.86    2.76 
  -1  -6  -3   12.15    1.18 
  -2  -6  -3    2.60    0.76 
  -3  -6  -3  232.96    5.81 
  -4  -6  -3  115.09    3.54 
  -4  -6  -3  113.97    2.90 
  -5  -6  -3    0.12    0.57 
  -5  -6  -3    0.51    0.63 
  -6  -6  -3    9.90    1.23 
  -6  -6  -3    9.84    1.25 
  -7  -6  -3   59.09    2.65 
  -7  -6  -3   53.71    2.58 
  -8  -6  -3    7.19    1.36 
  -8  -6  -3    7.08    1.52 
  -9  -6  -3    0.52    1.08 
  -9  -6  -3   -0.11    1.42 
 -10  -6  -3   11.27    1.82 
 -10  -6  -3   15.24    2.66 
 -11  -6  -3    9.64    2.59 
 -11  -6  -3    7.08    1.76 
 -12  -6  -3   -1.23    2.27 
 -12  -6  -3   -0.93    1.32 
   6  -6  -4    7.94    2.31 
   5  -6  -4   12.86    2.32 
   4  -6  -4    7.91    1.79 
   3  -6  -4    4.19    0.99 
   3  -6  -4    5.52    1.48 
   2  -6  -4   59.71    2.87 
   2  -6  -4   58.43    2.12 
   1  -6  -4   30.48    1.49 
   1  -6  -4   36.68    2.12 
   0  -6  -4   11.26    0.99 
   0  -6  -4   12.57    1.35 
  -1  -6  -4   83.32    2.94 
  -2  -6  -4   34.82    1.85 
  -3  -6  -4    6.87    0.97 
  -4  -6  -4  167.15    4.57 
  -5  -6  -4   20.51    1.17 
  -5  -6  -4   19.17    1.49 
  -6  -6  -4   33.20    1.93 
  -6  -6  -4   28.52    1.74 
  -7  -6  -4   11.29    1.40 
  -7  -6  -4   13.43    1.58 
  -8  -6  -4   29.25    2.19 
  -8  -6  -4   24.35    2.43 
  -9  -6  -4    7.92    1.80 
  -9  -6  -4    6.57    1.43 
 -10  -6  -4    6.00    2.23 
 -10  -6  -4    3.17    1.41 
 -11  -6  -4   11.40    2.63 
 -12  -6  -4    3.46    2.51 
   6  -6  -5   -2.35    1.91 
   5  -6  -5   14.69    2.42 
   4  -6  -5   31.74    2.64 
   3  -6  -5   15.95    1.61 
   3  -6  -5   15.04    1.94 
   2  -6  -5    6.91    1.11 
   2  -6  -5    8.27    1.41 
   1  -6  -5  147.14    3.88 
   1  -6  -5  154.69    4.73 
   0  -6  -5  122.83    3.23 
   0  -6  -5  103.73    3.71 
  -1  -6  -5    0.42    0.62 
  -1  -6  -5    1.10    0.61 
  -2  -6  -5   28.52    1.71 
  -3  -6  -5  117.05    3.62 
  -4  -6  -5   34.64    1.85 
  -5  -6  -5    2.99    0.85 
  -6  -6  -5   21.91    1.65 
  -6  -6  -5   22.22    1.57 
  -7  -6  -5   82.04    3.24 
  -7  -6  -5   80.97    3.13 
  -8  -6  -5   -0.32    0.90 
  -8  -6  -5   -0.36    1.08 
  -9  -6  -5    0.65    1.41 
  -9  -6  -5   -0.65    0.95 
 -10  -6  -5   32.48    2.98 
 -10  -6  -5   36.59    2.65 
 -11  -6  -5   10.52    2.53 
 -12  -6  -5    1.60    2.18 
 -13  -6  -5    0.94    2.63 
   4  -6  -6    4.89    1.47 
   4  -6  -6    3.88    1.67 
   3  -6  -6    0.74    1.11 
   3  -6  -6    1.16    1.23 
   2  -6  -6   22.45    1.93 
   2  -6  -6   18.02    1.63 
   1  -6  -6    1.77    0.90 
   1  -6  -6    3.32    1.11 
   0  -6  -6   31.75    1.99 
   0  -6  -6   33.43    1.79 
  -1  -6  -6  133.44    4.11 
  -1  -6  -6  141.13    3.71 
  -2  -6  -6   74.26    2.80 
  -3  -6  -6   35.17    1.90 
  -4  -6  -6  111.16    3.56 
  -5  -6  -6   47.65    2.29 
  -6  -6  -6   12.88    1.40 
  -6  -6  -6   14.06    1.45 
  -7  -6  -6   55.76    2.71 
  -7  -6  -6   54.23    2.64 
  -8  -6  -6   20.59    2.07 
  -8  -6  -6   21.31    1.98 
  -9  -6  -6   -0.58    1.43 
  -9  -6  -6    0.12    1.12 
 -10  -6  -6    0.47    1.78 
 -10  -6  -6    0.44    1.28 
 -11  -6  -6   15.01    2.66 
 -12  -6  -6   -1.42    2.12 
 -13  -6  -6   -1.28    2.56 
   4  -6  -7    1.56    1.45 
   3  -6  -7   13.47    1.81 
   2  -6  -7   15.84    1.84 
   2  -6  -7   13.86    1.70 
   1  -6  -7    8.99    1.36 
   1  -6  -7    9.43    1.44 
   0  -6  -7   31.74    1.90 
   0  -6  -7   34.58    2.04 
  -1  -6  -7   11.91    1.29 
  -1  -6  -7   12.18    1.33 
  -2  -6  -7   43.38    2.15 
  -2  -6  -7   40.84    2.00 
  -3  -6  -7   12.66    1.27 
  -4  -6  -7   22.61    1.63 
  -5  -6  -7   38.06    2.08 
  -6  -6  -7   51.70    2.45 
  -7  -6  -7    1.83    0.98 
  -8  -6  -7   29.78    2.25 
  -8  -6  -7   27.85    2.09 
  -9  -6  -7   20.81    2.38 
  -9  -6  -7   17.45    2.10 
 -10  -6  -7    8.26    1.82 
 -10  -6  -7    6.40    2.02 
 -11  -6  -7    7.43    2.37 
 -12  -6  -7    7.49    2.74 
   4  -6  -8   15.49    2.11 
   3  -6  -8    5.76    1.57 
   2  -6  -8    1.24    1.28 
   1  -6  -8   31.02    2.11 
   0  -6  -8   21.00    1.75 
  -1  -6  -8    1.92    0.90 
  -1  -6  -8    1.10    0.92 
  -2  -6  -8    1.25    0.75 
  -2  -6  -8    0.18    0.86 
  -3  -6  -8   74.44    2.73 
  -3  -6  -8   64.24    2.69 
  -4  -6  -8    7.31    1.17 
  -5  -6  -8    0.77    0.80 
  -6  -6  -8   30.57    2.00 
  -7  -6  -8   34.51    2.26 
  -8  -6  -8    3.50    1.25 
  -9  -6  -8    0.21    1.26 
 -10  -6  -8   13.47    2.15 
 -11  -6  -8    3.58    1.81 
   3  -6  -9    7.09    1.79 
   2  -6  -9   13.31    1.91 
   1  -6  -9    0.45    1.28 
   0  -6  -9   31.70    2.19 
  -1  -6  -9   24.38    1.93 
  -2  -6  -9   16.51    1.68 
  -3  -6  -9    2.33    1.05 
  -3  -6  -9    4.74    1.09 
  -4  -6  -9   15.32    1.52 
  -4  -6  -9   16.70    1.48 
  -5  -6  -9    6.46    1.20 
  -6  -6  -9    9.19    1.43 
  -7  -6  -9   19.72    1.81 
  -8  -6  -9    6.97    1.51 
  -9  -6  -9    5.99    1.71 
 -10  -6  -9    2.35    1.73 
 -11  -6  -9   10.10    2.33 
 -12  -6  -9    5.57    2.36 
   2  -6 -10    3.71    1.69 
   1  -6 -10   14.21    2.02 
   0  -6 -10    4.89    1.46 
  -1  -6 -10    6.94    1.51 
  -2  -6 -10   36.12    2.33 
  -3  -6 -10   37.60    2.27 
  -4  -6 -10    2.40    1.07 
  -5  -6 -10   12.68    1.55 
  -5  -6 -10   14.89    1.61 
  -6  -6 -10   25.79    2.01 
  -7  -6 -10    0.49    1.00 
  -8  -6 -10   10.28    1.68 
  -9  -6 -10    7.41    1.75 
 -10  -6 -10    7.00    2.04 
 -11  -6 -10   -0.32    1.80 
   1  -6 -11    4.88    1.85 
   0  -6 -11   11.70    1.96 
  -1  -6 -11   10.01    1.85 
  -2  -6 -11    1.71    1.28 
  -3  -6 -11   21.75    2.07 
  -4  -6 -11   15.32    1.79 
  -5  -6 -11   -0.12    1.01 
  -6  -6 -11    2.10    1.26 
  -7  -6 -11   22.83    1.97 
  -8  -6 -11    2.67    1.33 
  -9  -6 -11    1.23    1.38 
 -10  -6 -11    5.32    1.90 
 -11  -6 -11    4.42    2.15 
  -1  -6 -12    5.81    1.87 
  -2  -6 -12   15.33    2.14 
  -3  -6 -12    1.03    1.35 
  -4  -6 -12    7.92    1.66 
  -5  -6 -12   14.36    1.93 
  -6  -6 -12    3.80    1.38 
  -7  -6 -12    1.04    1.28 
  -8  -6 -12    6.92    1.58 
  -4  -6 -13    1.12    1.52 
  -5  -6 -13    3.39    1.63 
  -6  -6 -13   10.39    1.92 
  -7  -6 -13    3.42    1.57 
   2  -7   7    4.11    2.74 
   1  -7   7   -1.67    2.47 
   0  -7   7   -2.35    2.61 
  -1  -7   7    3.41    2.88 
  -2  -7   7   -0.04    2.98 
  -3  -7   7    2.27    3.03 
   4  -7   6    3.76    2.53 
   3  -7   6    1.27    2.35 
   2  -7   6    8.63    2.53 
   1  -7   6    6.54    2.44 
   0  -7   6   -4.41    1.87 
  -1  -7   6    4.35    2.59 
  -2  -7   6   16.66    3.31 
  -3  -7   6    5.06    2.64 
  -4  -7   6    1.24    2.73 
  -5  -7   6   14.02    3.64 
   5  -7   5   -2.73    2.08 
   5  -7   5    1.85    1.98 
   4  -7   5    8.57    2.43 
   4  -7   5    7.75    2.42 
   3  -7   5    7.09    2.26 
   2  -7   5    1.61    1.95 
   1  -7   5    1.48    2.14 
   0  -7   5   15.48    2.75 
  -1  -7   5    3.76    2.23 
  -2  -7   5    3.59    2.30 
  -3  -7   5   26.07    3.26 
  -4  -7   5    3.47    2.55 
  -5  -7   5   -0.78    2.36 
  -6  -7   5    8.27    2.91 
  -7  -7   5   14.74    3.60 
  -6   7  -4   11.08    2.65 
   5  -7   4    8.19    2.41 
   5  -7   4    6.70    2.34 
   4  -7   4    1.20    1.86 
   4  -7   4    1.18    1.76 
   3  -7   4   26.18    2.72 
   3  -7   4   27.74    2.99 
   2  -7   4   17.65    2.28 
   2  -7   4   16.99    2.56 
   1  -7   4   13.21    2.34 
   1  -7   4   12.27    1.88 
   0  -7   4    0.42    1.75 
  -1  -7   4   19.85    2.73 
  -2  -7   4   38.55    3.17 
  -3  -7   4    1.07    1.85 
  -4  -7   4   12.53    2.64 
  -5  -7   4   16.22    2.85 
  -6  -7   4    4.18    2.53 
  -7  -7   4    2.38    2.48 
  -8  -7   4    6.28    3.04 
  -6   7  -3   -0.81    1.74 
   6  -7   3    2.76    2.08 
  -5   7  -3    5.28    2.05 
   5  -7   3    9.64    2.44 
   4  -7   3    9.72    2.27 
   4  -7   3   10.17    2.32 
   3  -7   3    1.20    1.58 
   3  -7   3    1.44    1.51 
   2  -7   3   11.14    1.95 
   2  -7   3   12.16    2.04 
   1  -7   3   35.77    2.64 
   1  -7   3   31.46    2.48 
   0  -7   3    8.86    1.79 
   0  -7   3   10.28    1.56 
  -1  -7   3    0.69    0.94 
  -1  -7   3    0.43    1.37 
  -2  -7   3   21.17    2.50 
  -3  -7   3   49.06    3.07 
  -4  -7   3    1.67    1.76 
  -5  -7   3    0.19    1.79 
  -6  -7   3   23.38    3.00 
  -7  -7   3    9.66    2.72 
  -8  -7   3    1.74    2.42 
  -9  -7   3    8.76    3.27 
  -6   7  -2    3.31    2.20 
   6  -7   2    5.07    2.14 
  -5   7  -2    0.14    1.62 
   5  -7   2   -0.30    1.64 
   4  -7   2    9.88    2.19 
   4  -7   2    9.96    2.23 
   3  -7   2   11.76    2.08 
   3  -7   2   15.71    2.21 
   2  -7   2    3.89    1.51 
   2  -7   2    4.78    1.50 
   1  -7   2   47.57    2.80 
   1  -7   2   44.51    2.72 
   0  -7   2   59.43    2.95 
   0  -7   2   54.60    2.89 
  -1  -7   2    1.03    1.19 
  -1  -7   2    1.87    1.03 
  -2  -7   2   37.73    2.59 
  -2  -7   2   37.84    2.14 
  -3  -7   2   42.19    2.68 
  -3  -7   2   41.06    2.20 
  -4  -7   2   18.32    2.22 
  -5  -7   2   -0.28    1.24 
  -6  -7   2    9.59    2.16 
  -7  -7   2   30.43    2.89 
  -8  -7   2    7.26    2.55 
  -9  -7   2    3.66    2.57 
 -10  -7   2    3.92    3.09 
  -6   7  -1   10.72    2.72 
   6  -7   1   14.10    2.81 
  -5   7  -1   14.00    2.45 
   5  -7   1   11.36    2.42 
  -4   7  -1    1.08    1.41 
   4  -7   1    0.13    1.44 
   3  -7   1    1.67    1.35 
   3  -7   1    1.53    1.50 
   2  -7   1   19.88    1.88 
   2  -7   1   19.96    2.15 
   1  -7   1   14.48    1.69 
   1  -7   1   11.66    1.68 
   0  -7   1    2.31    1.08 
   0  -7   1    2.26    1.07 
  -1  -7   1   11.92    1.51 
  -1  -7   1   13.92    1.51 
  -2  -7   1   42.31    2.29 
  -2  -7   1   40.27    2.34 
  -3  -7   1    2.36    0.88 
  -3  -7   1    2.72    1.19 
  -4  -7   1   30.50    2.00 
  -4  -7   1   33.01    2.26 
  -5  -7   1   36.58    2.45 
  -5  -7   1   38.39    2.14 
  -6  -7   1   12.07    1.95 
  -6  -7   1   11.68    1.49 
  -7  -7   1   23.64    2.61 
  -8  -7   1   27.65    3.16 
  -9  -7   1    3.57    2.43 
 -10  -7   1    3.39    2.58 
   6  -7   0   -1.16    1.67 
  -5   7   0   11.50    2.51 
   5  -7   0   13.25    2.48 
  -4   7   0   25.86    2.49 
   4  -7   0   23.60    2.67 
  -3   7   0    0.88    1.30 
   3  -7   0    0.87    1.28 
   2  -7   0    5.81    1.48 
   2  -7   0    6.50    1.41 
   1  -7   0   53.08    2.83 
   1  -7   0   50.85    2.44 
   0  -7   0    9.66    1.43 
   0  -7   0   10.10    1.29 
  -1  -7   0   10.01    1.42 
  -1  -7   0    9.37    1.22 
  -2  -7   0   28.28    1.91 
  -2  -7   0   32.00    1.88 
  -3  -7   0   51.33    2.37 
  -3  -7   0   48.62    2.36 
  -4  -7   0   -0.53    0.74 
  -4  -7   0    0.32    0.75 
  -5  -7   0   11.25    1.53 
  -5  -7   0    9.26    1.27 
  -6  -7   0   24.88    2.09 
  -6  -7   0   24.15    1.92 
  -7  -7   0   12.07    2.00 
  -7  -7   0   11.67    1.52 
  -8  -7   0    2.97    1.82 
  -8  -7   0    2.45    1.27 
  -9  -7   0   12.46    2.58 
 -10  -7   0    8.36    2.62 
 -11  -7   0   -1.64    2.54 
   6  -7  -1    5.68    2.29 
   5  -7  -1    0.33    1.61 
  -4   7   1    6.74    1.99 
   4  -7  -1    5.69    1.71 
  -3   7   1   32.52    2.41 
   3  -7  -1   32.65    2.61 
  -2   7   1   15.69    1.56 
   2  -7  -1   13.26    1.78 
   1  -7  -1   12.58    1.64 
   1  -7  -1   15.01    1.56 
   0  -7  -1   53.65    2.65 
   0  -7  -1   51.96    2.22 
  -1  -7  -1   43.95    2.03 
  -1  -7  -1   48.04    2.50 
  -2  -7  -1   27.74    1.56 
  -2  -7  -1   20.79    1.64 
  -3  -7  -1   58.03    2.31 
  -3  -7  -1   55.36    2.54 
  -4  -7  -1  122.80    3.74 
  -4  -7  -1  128.87    3.97 
  -5  -7  -1   74.26    3.00 
  -5  -7  -1   75.41    2.86 
  -6  -7  -1    6.22    1.20 
  -6  -7  -1    7.01    1.33 
  -7  -7  -1   41.30    2.42 
  -7  -7  -1   42.34    2.48 
  -8  -7  -1   29.61    2.53 
  -8  -7  -1   33.11    2.36 
  -9  -7  -1    3.18    2.08 
  -9  -7  -1    2.95    1.24 
 -10  -7  -1    5.17    2.46 
 -10  -7  -1    6.66    1.69 
 -11  -7  -1    7.18    2.79 
   6  -7  -2   12.55    2.65 
   5  -7  -2    9.11    2.23 
   4  -7  -2    4.24    1.64 
   3  -7  -2   -0.78    1.15 
   2  -7  -2   20.75    1.96 
  -1   7   2   41.90    1.90 
   1  -7  -2   46.72    2.59 
   0  -7  -2    0.56    0.82 
   0  -7  -2    0.71    0.64 
  -1  -7  -2   29.17    1.42 
  -1  -7  -2   29.52    1.98 
  -2  -7  -2   53.27    2.50 
  -2  -7  -2   58.63    1.99 
  -3  -7  -2    3.36    0.96 
  -3  -7  -2    2.99    0.66 
  -4  -7  -2   18.46    1.61 
  -4  -7  -2   20.04    1.26 
  -5  -7  -2   22.20    1.55 
  -5  -7  -2   22.95    1.80 
  -6  -7  -2   73.95    2.80 
  -6  -7  -2   71.43    2.93 
  -7  -7  -2    0.92    0.98 
  -7  -7  -2    0.51    1.16 
  -8  -7  -2    5.84    1.31 
  -8  -7  -2    2.66    1.39 
  -9  -7  -2   18.51    2.00 
  -9  -7  -2    5.12    1.72 
 -10  -7  -2    5.84    2.11 
 -10  -7  -2   14.08    1.95 
 -11  -7  -2    2.71    2.26 
 -11  -7  -2    0.42    1.35 
 -12  -7  -2    4.96    1.75 
 -12  -7  -2    1.46    2.61 
   6  -7  -3    5.02    2.26 
   5  -7  -3    8.14    2.19 
   4  -7  -3   22.14    2.55 
   3  -7  -3   19.90    2.25 
   2  -7  -3    0.80    1.02 
   1  -7  -3   27.49    1.36 
   1  -7  -3   27.17    2.11 
  -1  -7  -3    4.99    1.04 
  -2  -7  -3    7.15    1.14 
  -3  -7  -3   49.35    2.39 
  -4  -7  -3   19.62    1.65 
  -5  -7  -3   -0.20    0.55 
  -5  -7  -3    0.03    0.78 
  -6  -7  -3   28.89    1.98 
  -6  -7  -3   33.65    1.76 
  -7  -7  -3   79.18    3.28 
  -8  -7  -3    2.04    1.12 
  -8  -7  -3    1.35    1.17 
  -9  -7  -3    7.52    1.56 
  -9  -7  -3    5.05    1.71 
 -10  -7  -3   18.34    2.22 
 -10  -7  -3   23.59    2.76 
 -11  -7  -3    4.45    1.70 
 -11  -7  -3    4.53    2.30 
 -12  -7  -3    0.16    1.50 
 -12  -7  -3    0.88    2.40 
   6  -7  -4    1.43    2.11 
   5  -7  -4   -0.25    1.69 
   4  -7  -4    2.27    1.54 
   3  -7  -4   15.43    2.14 
   2  -7  -4   11.21    1.65 
   1  -7  -4    4.04    0.83 
   1  -7  -4    5.52    1.31 
   0  -7  -4   26.46    1.94 
   0  -7  -4   26.40    1.40 
  -1  -7  -4   88.97    3.33 
  -2  -7  -4   14.47    1.46 
  -3  -7  -4   30.27    1.90 
  -4  -7  -4  128.34    4.06 
  -5  -7  -4    8.84    1.27 
  -6  -7  -4    3.59    1.04 
  -6  -7  -4    2.03    0.75 
  -7  -7  -4   30.31    2.10 
  -8  -7  -4   31.45    2.41 
  -8  -7  -4   29.12    2.09 
  -9  -7  -4    7.07    1.51 
  -9  -7  -4    8.87    1.74 
 -10  -7  -4    2.96    1.70 
 -10  -7  -4    3.35    1.47 
 -11  -7  -4   18.63    2.71 
 -11  -7  -4   18.13    2.43 
 -12  -7  -4    1.48    2.28 
 -12  -7  -4    4.22    1.84 
   5  -7  -5    7.38    2.25 
   4  -7  -5    3.13    1.73 
   3  -7  -5    1.45    1.41 
   2  -7  -5   20.57    1.99 
   2  -7  -5   22.87    1.68 
   1  -7  -5   24.46    1.59 
   1  -7  -5   24.60    2.03 
   0  -7  -5   15.66    1.68 
   0  -7  -5   13.36    1.24 
  -1  -7  -5   58.49    2.68 
  -1  -7  -5   51.64    2.02 
  -2  -7  -5   56.46    2.59 
  -3  -7  -5   25.12    1.78 
  -4  -7  -5   22.13    1.71 
  -5  -7  -5   91.65    3.34 
  -6  -7  -5   40.10    2.30 
  -7  -7  -5   11.19    1.48 
  -7  -7  -5   15.04    1.41 
  -8  -7  -5   17.85    1.82 
  -8  -7  -5   15.74    1.79 
  -9  -7  -5    9.67    1.85 
  -9  -7  -5    8.58    1.66 
 -10  -7  -5   28.37    2.80 
 -10  -7  -5   24.42    2.40 
 -11  -7  -5   -1.15    1.73 
 -11  -7  -5    3.17    1.71 
 -12  -7  -5    7.28    2.15 
 -12  -7  -5    6.96    2.60 
 -13  -7  -5    7.21    2.45 
   4  -7  -6   13.53    2.39 
   3  -7  -6    4.60    1.70 
   2  -7  -6    3.99    1.20 
   2  -7  -6    3.31    1.35 
   1  -7  -6   -0.60    1.00 
   1  -7  -6    0.70    0.89 
   0  -7  -6    9.40    1.41 
   0  -7  -6    9.79    1.24 
  -1  -7  -6   20.27    1.46 
  -1  -7  -6   19.26    1.70 
  -2  -7  -6   13.94    1.47 
  -3  -7  -6   23.68    1.78 
  -4  -7  -6   89.96    3.33 
  -5  -7  -6   10.00    1.34 
  -6  -7  -6   28.08    1.98 
  -7  -7  -6   78.80    3.26 
  -8  -7  -6    7.26    1.41 
  -9  -7  -6    2.23    1.31 
 -10  -7  -6    4.11    1.59 
 -10  -7  -6    4.32    1.79 
 -11  -7  -6    9.36    2.27 
 -11  -7  -6    6.84    2.07 
 -12  -7  -6    0.32    1.74 
 -12  -7  -6    1.95    2.19 
 -13  -7  -6   -1.91    2.69 
 -13  -7  -6    0.24    2.01 
   3  -7  -7   18.62    2.01 
   2  -7  -7   23.76    1.95 
   2  -7  -7   22.91    2.21 
   1  -7  -7   12.60    1.55 
   1  -7  -7   11.44    1.67 
   0  -7  -7   29.74    2.14 
   0  -7  -7   30.95    1.93 
  -1  -7  -7   48.02    2.23 
  -1  -7  -7   48.73    2.56 
  -2  -7  -7   34.24    1.87 
  -2  -7  -7   35.48    2.15 
  -3  -7  -7    6.23    1.17 
  -4  -7  -7   24.15    1.79 
  -5  -7  -7   10.46    1.38 
  -6  -7  -7   16.81    1.67 
  -7  -7  -7    5.09    1.26 
  -8  -7  -7   28.90    2.23 
  -9  -7  -7    8.89    1.72 
 -10  -7  -7    0.20    1.42 
 -11  -7  -7   10.07    2.23 
 -12  -7  -7    7.66    2.16 
   3  -7  -8   -0.66    1.33 
   2  -7  -8    6.55    1.60 
   1  -7  -8   29.89    2.10 
   0  -7  -8   10.33    1.59 
   0  -7  -8   10.11    1.48 
  -1  -7  -8    9.88    1.38 
  -1  -7  -8    9.98    1.53 
  -2  -7  -8   36.71    2.20 
  -2  -7  -8   38.62    2.10 
  -3  -7  -8  124.92    4.12 
  -3  -7  -8  116.38    3.66 
  -4  -7  -8    0.25    0.82 
  -5  -7  -8    9.65    1.40 
  -6  -7  -8   44.37    2.42 
  -7  -7  -8   27.40    2.09 
  -8  -7  -8    0.55    1.01 
  -9  -7  -8   16.25    2.10 
 -10  -7  -8   17.54    2.35 
 -11  -7  -8    1.89    1.73 
 -12  -7  -8    0.81    2.05 
   2  -7  -9    2.59    1.46 
   1  -7  -9    1.56    1.31 
   0  -7  -9   25.39    2.09 
  -1  -7  -9    8.51    1.48 
  -2  -7  -9   -0.12    0.88 
  -2  -7  -9   -0.83    0.96 
  -3  -7  -9   36.84    2.15 
  -3  -7  -9   38.18    2.39 
  -4  -7  -9   44.83    2.28 
  -4  -7  -9   42.69    2.36 
  -5  -7  -9    2.74    1.05 
  -6  -7  -9    1.81    1.03 
  -7  -7  -9   35.38    2.40 
  -8  -7  -9    6.82    1.48 
  -9  -7  -9    6.74    1.76 
 -10  -7  -9    2.94    1.84 
 -11  -7  -9    6.94    2.21 
 -12  -7  -9    1.26    2.28 
   1  -7 -10   10.73    1.89 
   0  -7 -10    2.47    1.41 
  -1  -7 -10   19.19    2.03 
  -2  -7 -10   14.44    1.77 
  -3  -7 -10    7.96    1.52 
  -4  -7 -10   13.37    1.66 
  -5  -7 -10   22.51    1.98 
  -5  -7 -10   22.36    1.82 
  -6  -7 -10   23.80    2.00 
  -7  -7 -10    3.75    1.28 
  -8  -7 -10   28.17    2.33 
  -9  -7 -10   11.65    1.84 
 -10  -7 -10    2.81    1.75 
 -11  -7 -10    5.26    2.12 
   0  -7 -11    6.23    1.81 
  -1  -7 -11   -0.25    1.28 
  -2  -7 -11    8.31    1.68 
  -3  -7 -11   23.27    2.13 
  -4  -7 -11    4.75    1.42 
  -5  -7 -11    1.36    1.13 
  -6  -7 -11    7.03    1.51 
  -7  -7 -11   14.00    1.82 
  -8  -7 -11    0.20    1.26 
  -9  -7 -11    1.62    1.39 
 -10  -7 -11   10.76    2.04 
 -11  -7 -11    2.89    2.22 
  -2  -7 -12    3.45    1.63 
  -3  -7 -12    5.33    1.56 
  -4  -7 -12   15.86    1.98 
  -5  -7 -12   11.36    1.81 
  -6  -7 -12    3.17    1.41 
  -7  -7 -12    4.81    1.46 
  -8  -7 -12    7.29    1.59 
  -5  -7 -13    5.92    1.69 
  -6  -7 -13    8.08    1.87 
  -7  -7 -13    0.87    1.39 
   1  -8   6    1.82    2.55 
   0  -8   6   -0.35    2.33 
  -1  -8   6    4.55    2.76 
  -2  -8   6    4.64    3.03 
  -3  -8   6    1.14    2.90 
   3  -8   5   -1.93    2.00 
   2  -8   5    3.21    2.19 
   1  -8   5    5.20    2.26 
   0  -8   5    4.46    2.31 
  -1  -8   5   -0.23    2.06 
  -2  -8   5    3.12    2.45 
  -3  -8   5    7.87    2.80 
  -4  -8   5    2.59    2.51 
  -5  -8   5   -1.44    2.69 
   4  -8   4    4.42    2.35 
   4  -8   4    7.91    2.27 
   3  -8   4   13.46    2.57 
   3  -8   4   11.56    2.48 
   2  -8   4    2.16    1.92 
   2  -8   4    1.16    1.53 
   1  -8   4    1.91    1.89 
   0  -8   4   23.20    2.94 
  -1  -8   4    6.47    2.26 
  -2  -8   4    0.76    2.04 
  -3  -8   4   11.67    2.67 
  -4  -8   4   11.31    2.74 
  -5  -8   4    0.69    2.37 
  -6  -8   4    1.81    2.53 
  -7  -8   4    9.19    3.13 
  -5   8  -3   11.68    2.46 
   5  -8   3    6.09    2.52 
   4  -8   3    7.35    2.28 
   4  -8   3    6.50    2.33 
   3  -8   3    3.73    1.77 
   3  -8   3    2.20    1.87 
   2  -8   3   22.88    2.65 
   2  -8   3   20.00    2.60 
   1  -8   3   12.89    2.06 
   1  -8   3   13.54    2.28 
   0  -8   3    2.28    1.43 
   0  -8   3   -0.34    1.57 
  -1  -8   3    9.67    1.65 
  -1  -8   3   10.24    2.23 
  -2  -8   3   22.14    2.84 
  -3  -8   3    2.25    2.02 
  -4  -8   3   14.09    2.66 
  -5  -8   3   13.55    2.75 
  -6  -8   3    5.52    2.39 
  -7  -8   3   -0.15    2.24 
  -8  -8   3    6.92    2.80 
  -5   8  -2    1.43    1.95 
   5  -8   2    3.26    2.07 
   4  -8   2   15.90    2.68 
   3  -8   2   14.42    2.41 
   3  -8   2   10.46    2.26 
   2  -8   2   -0.47    1.33 
   2  -8   2   -0.04    1.47 
   1  -8   2   42.21    2.78 
   1  -8   2   38.49    2.92 
   0  -8   2   49.91    3.02 
   0  -8   2   49.12    2.94 
  -1  -8   2    7.21    1.79 
  -1  -8   2    8.63    1.56 
  -2  -8   2   10.30    1.58 
  -2  -8   2   14.93    2.19 
  -3  -8   2   67.21    3.15 
  -3  -8   2   63.18    3.38 
  -4  -8   2    7.69    2.02 
  -5  -8   2   16.50    2.59 
  -6  -8   2   14.63    2.61 
  -7  -8   2    9.97    2.55 
  -8  -8   2    6.36    2.45 
  -9  -8   2    2.65    2.63 
   5  -8   1    2.97    1.97 
  -4   8  -1    8.73    2.09 
   4  -8   1    9.78    2.35 
   3  -8   1   14.93    2.35 
   3  -8   1   14.03    2.31 
   2  -8   1   22.43    2.26 
   2  -8   1   18.39    2.30 
   1  -8   1    5.30    1.48 
   1  -8   1    4.58    1.41 
   0  -8   1   22.42    2.11 
   0  -8   1   18.95    1.97 
  -1  -8   1   41.85    2.55 
  -1  -8   1   44.48    2.64 
  -2  -8   1   66.76    3.19 
  -2  -8   1   68.60    3.16 
  -3  -8   1    4.80    1.23 
  -3  -8   1    5.59    1.45 
  -4  -8   1   59.97    3.16 
  -4  -8   1   54.09    2.69 
  -5  -8   1   93.80    3.99 
  -5  -8   1   89.08    3.55 
  -6  -8   1   11.43    2.13 
  -7  -8   1   26.81    2.72 
  -8  -8   1   36.30    3.24 
  -9  -8   1    4.77    2.51 
 -10  -8   1    0.48    2.70 
   5  -8   0    8.93    2.30 
   4  -8   0    3.54    1.78 
   3  -8   0    0.20    1.35 
   2  -8   0    3.15    1.44 
   2  -8   0    1.82    1.40 
   1  -8   0   27.38    2.33 
   1  -8   0   25.47    2.04 
   0  -8   0    0.91    1.11 
   0  -8   0    1.16    0.99 
  -1  -8   0    2.26    1.08 
  -1  -8   0    5.23    1.11 
  -2  -8   0   42.03    2.24 
  -2  -8   0   39.86    2.45 
  -3  -8   0    6.07    1.21 
  -3  -8   0    5.84    1.22 
  -4  -8   0    8.33    1.37 
  -4  -8   0    9.98    1.55 
  -5  -8   0    6.18    1.32 
  -5  -8   0    6.65    1.51 
  -6  -8   0   37.51    2.56 
  -6  -8   0   33.19    2.26 
  -7  -8   0    9.94    1.97 
  -7  -8   0    7.04    1.47 
  -8  -8   0    8.15    2.18 
  -8  -8   0    6.44    1.52 
  -9  -8   0   14.51    2.78 
 -10  -8   0    6.03    2.72 
 -11  -8   0    0.82    2.79 
   5  -8  -1    0.88    1.91 
   4  -8  -1   12.57    2.30 
   3  -8  -1    5.66    1.83 
   2  -8  -1    0.37    1.23 
   1  -8  -1   16.05    1.96 
   0  -8  -1   16.85    1.47 
   0  -8  -1   17.20    1.92 
  -1  -8  -1    0.21    0.76 
  -1  -8  -1    0.82    0.95 
  -2  -8  -1    0.30    0.67 
  -2  -8  -1   -0.24    0.84 
  -3  -8  -1   30.78    2.07 
  -3  -8  -1   35.15    1.95 
  -4  -8  -1    0.54    0.91 
  -4  -8  -1    1.30    0.86 
  -5  -8  -1    2.91    1.06 
  -5  -8  -1    3.09    1.02 
  -6  -8  -1    9.76    1.48 
  -6  -8  -1   11.79    1.58 
  -7  -8  -1   31.77    2.34 
  -7  -8  -1   31.10    2.29 
  -8  -8  -1    6.59    1.44 
  -8  -8  -1    9.15    1.93 
  -9  -8  -1    3.71    1.99 
  -9  -8  -1    2.68    1.36 
 -10  -8  -1   14.54    2.21 
 -10  -8  -1   18.01    2.92 
   5  -8  -2    1.70    2.00 
   4  -8  -2    0.54    1.52 
   3  -8  -2   22.92    2.63 
   2  -8  -2   25.69    2.38 
   1  -8  -2    0.53    1.05 
   0  -8  -2   27.65    2.20 
  -1  -8  -2   18.31    1.89 
  -2  -8  -2   25.90    1.99 
  -3  -8  -2    0.39    0.90 
  -3  -8  -2    0.07    0.60 
  -4  -8  -2   31.07    2.12 
  -4  -8  -2   34.08    1.79 
  -5  -8  -2    8.25    1.39 
  -5  -8  -2    9.69    1.19 
  -6  -8  -2    1.07    1.01 
  -6  -8  -2    0.99    0.84 
  -7  -8  -2   17.64    1.85 
  -7  -8  -2   16.96    1.80 
  -8  -8  -2    5.73    1.61 
  -8  -8  -2    2.71    1.23 
  -9  -8  -2    4.96    1.56 
  -9  -8  -2    5.42    1.88 
 -10  -8  -2   -1.19    2.05 
 -10  -8  -2    1.39    1.40 
 -11  -8  -2    2.58    2.48 
 -11  -8  -2    2.91    1.58 
 -12  -8  -2    3.80    2.87 
   5  -8  -3   15.42    2.85 
   4  -8  -3   13.34    2.42 
   3  -8  -3    6.97    1.90 
   2  -8  -3   12.71    1.92 
   1  -8  -3   77.54    3.66 
   0  -8  -3   16.46    1.83 
  -1  -8  -3   19.04    1.89 
  -2  -8  -3   57.26    2.76 
  -3  -8  -3   68.01    3.02 
  -4  -8  -3   -0.57    0.79 
  -5  -8  -3   14.51    1.61 
  -6  -8  -3   76.90    3.28 
  -6  -8  -3   73.65    2.73 
  -7  -8  -3   20.28    1.90 
  -7  -8  -3   21.34    1.72 
  -8  -8  -3    9.44    1.68 
  -8  -8  -3   13.25    1.75 
  -9  -8  -3   10.52    1.81 
  -9  -8  -3    3.56    1.68 
 -10  -8  -3    4.97    1.98 
 -10  -8  -3   10.77    1.92 
 -11  -8  -3    1.18    2.02 
 -11  -8  -3    0.84    1.47 
 -12  -8  -3    2.19    2.50 
 -12  -8  -3    3.44    1.78 
   5  -8  -4   -0.29    1.89 
   4  -8  -4    8.59    2.15 
   3  -8  -4    9.26    2.08 
   2  -8  -4   15.20    2.04 
   1  -8  -4    0.69    1.08 
   0  -8  -4   12.87    1.65 
   0  -8  -4   11.69    1.08 
  -1  -8  -4   46.95    2.65 
  -2  -8  -4    2.53    1.02 
  -3  -8  -4   45.29    2.54 
  -4  -8  -4   80.06    3.25 
  -5  -8  -4    4.69    1.17 
  -6  -8  -4   14.51    1.65 
  -7  -8  -4   81.78    3.42 
  -8  -8  -4   21.40    2.13 
  -9  -8  -4   -0.12    1.11 
  -9  -8  -4   -0.11    1.26 
 -10  -8  -4   14.71    2.15 
 -11  -8  -4   12.03    2.21 
 -11  -8  -4    7.48    2.29 
 -12  -8  -4    1.63    1.74 
 -12  -8  -4    5.32    2.54 
   4  -8  -5   -0.78    1.65 
   3  -8  -5    3.31    1.76 
   2  -8  -5   19.33    2.28 
   1  -8  -5   17.94    2.04 
   0  -8  -5    0.03    0.92 
   0  -8  -5    0.97    0.82 
  -1  -8  -5   19.06    1.38 
  -1  -8  -5   20.35    1.91 
  -2  -8  -5   95.75    3.65 
  -3  -8  -5    5.59    1.28 
  -4  -8  -5   33.16    2.15 
  -5  -8  -5   46.32    2.54 
  -6  -8  -5   12.32    1.58 
  -7  -8  -5    2.92    1.16 
  -8  -8  -5   39.88    2.64 
  -9  -8  -5   22.87    2.28 
 -10  -8  -5    6.49    1.84 
 -11  -8  -5    5.50    2.00 
 -12  -8  -5    9.24    2.24 
   4  -8  -6    5.62    2.12 
   3  -8  -6   -0.32    1.50 
   2  -8  -6    1.38    1.45 
   1  -8  -6   24.11    2.32 
   1  -8  -6   22.56    1.75 
   0  -8  -6    1.34    1.10 
   0  -8  -6    1.68    0.96 
  -1  -8  -6    0.76    1.06 
  -1  -8  -6   -0.20    0.78 
  -2  -8  -6    1.09    0.96 
  -3  -8  -6   36.77    2.39 
  -4  -8  -6   49.26    2.56 
  -5  -8  -6    4.56    1.16 
  -6  -8  -6   35.02    2.26 
  -7  -8  -6   59.82    2.95 
  -8  -8  -6    6.99    1.56 
  -9  -8  -6   15.45    2.03 
 -10  -8  -6   27.45    2.77 
 -11  -8  -6    6.75    2.01 
 -12  -8  -6    1.78    1.88 
   2  -8  -7    5.52    1.73 
   1  -8  -7   -0.70    1.00 
   1  -8  -7    1.07    1.24 
   0  -8  -7   33.34    2.51 
   0  -8  -7   37.96    2.13 
  -1  -8  -7    5.74    1.18 
  -1  -8  -7    4.12    1.30 
  -2  -8  -7    9.97    1.50 
  -2  -8  -7   12.76    1.40 
  -3  -8  -7   73.32    3.24 
  -4  -8  -7   23.36    1.89 
  -5  -8  -7    0.91    0.91 
  -6  -8  -7   10.96    1.54 
  -7  -8  -7   19.26    1.90 
  -8  -8  -7   11.47    1.81 
  -9  -8  -7    1.93    1.34 
 -10  -8  -7    1.61    1.54 
 -11  -8  -7    9.49    2.22 
 -12  -8  -7    4.12    2.07 
   2  -8  -8    8.83    1.78 
   1  -8  -8   14.29    1.77 
   0  -8  -8    0.17    1.21 
   0  -8  -8    0.41    1.08 
  -1  -8  -8   17.50    1.91 
  -1  -8  -8   17.05    1.71 
  -2  -8  -8   13.45    1.51 
  -2  -8  -8   13.75    1.74 
  -3  -8  -8    3.36    1.06 
  -3  -8  -8    2.58    1.14 
  -4  -8  -8   23.85    1.98 
  -5  -8  -8   13.10    1.60 
  -6  -8  -8   28.54    2.15 
  -7  -8  -8    0.07    0.92 
  -8  -8  -8   21.23    2.20 
  -9  -8  -8   20.30    2.23 
 -10  -8  -8    6.77    1.89 
 -11  -8  -8   -2.16    1.63 
 -12  -8  -8    0.90    2.20 
   2  -8  -9   -1.12    1.36 
   1  -8  -9    8.70    1.68 
   0  -8  -9   25.95    2.12 
  -1  -8  -9    9.46    1.56 
  -2  -8  -9    0.12    1.05 
  -2  -8  -9    0.09    1.01 
  -3  -8  -9   45.98    2.41 
  -3  -8  -9   46.24    2.61 
  -4  -8  -9   33.02    2.06 
  -4  -8  -9   31.35    2.31 
  -5  -8  -9    1.24    1.06 
  -6  -8  -9   13.49    1.75 
  -7  -8  -9   28.82    2.27 
  -8  -8  -9   -0.64    1.06 
  -9  -8  -9    1.89    1.48 
 -10  -8  -9    9.08    1.98 
 -11  -8  -9    1.07    1.99 
 -12  -8  -9    0.43    2.26 
   1  -8 -10    1.38    1.59 
   0  -8 -10    5.18    1.57 
  -1  -8 -10   26.18    2.20 
  -2  -8 -10   12.47    1.74 
  -3  -8 -10    1.02    1.16 
  -4  -8 -10   44.71    2.52 
  -4  -8 -10   45.25    2.64 
  -5  -8 -10   26.10    1.96 
  -5  -8 -10   31.21    2.24 
  -6  -8 -10    4.42    1.36 
  -7  -8 -10   15.69    1.94 
  -8  -8 -10   24.36    2.31 
  -9  -8 -10    9.39    1.87 
 -10  -8 -10    0.42    1.35 
 -11  -8 -10    9.35    2.17 
  -1  -8 -11   -0.04    1.35 
  -2  -8 -11    4.93    1.54 
  -3  -8 -11   10.74    1.78 
  -4  -8 -11   -0.30    1.10 
  -5  -8 -11   15.57    1.84 
  -6  -8 -11   22.31    1.96 
  -7  -8 -11    9.90    1.78 
  -8  -8 -11    3.89    1.50 
  -9  -8 -11   10.08    1.97 
 -10  -8 -11    9.28    2.02 
  -3  -8 -12   11.31    2.01 
  -4  -8 -12    4.32    1.60 
  -5  -8 -12    0.70    1.36 
  -6  -8 -12    1.74    1.37 
  -7  -8 -12   12.47    1.87 
   0  -9   5   -2.60    2.21 
  -1  -9   5   -3.30    2.22 
  -2  -9   5    0.43    2.71 
  -3  -9   5    5.96    3.11 
   2  -9   4   -0.83    1.97 
   1  -9   4    9.66    2.48 
   0  -9   4   12.82    2.69 
  -1  -9   4    0.45    2.03 
  -2  -9   4   -0.93    2.16 
  -3  -9   4   13.46    3.03 
  -4  -9   4    8.08    2.79 
  -5  -9   4    0.99    2.60 
  -6  -9   4    3.44    3.04 
   3  -9   3    2.08    2.16 
   3  -9   3    4.67    1.93 
   2  -9   3    6.43    2.15 
   2  -9   3    9.21    2.15 
   1  -9   3    3.68    1.90 
   1  -9   3    1.13    1.66 
   0  -9   3    1.47    1.84 
  -1  -9   3   22.26    2.88 
  -2  -9   3    9.49    2.50 
  -3  -9   3   -0.13    2.05 
  -4  -9   3    6.42    2.45 
  -5  -9   3    3.54    2.51 
  -6  -9   3    1.77    2.53 
  -7  -9   3   -1.46    2.45 
   3  -9   2    1.95    1.74 
   2  -9   2    7.49    2.00 
   2  -9   2    8.82    2.20 
   1  -9   2    9.13    2.01 
   1  -9   2    7.62    2.05 
   0  -9   2    2.13    1.64 
   0  -9   2    4.42    1.54 
  -1  -9   2    3.21    1.81 
  -1  -9   2    3.45    1.41 
  -2  -9   2   35.65    2.95 
  -2  -9   2   34.12    2.54 
  -3  -9   2   25.28    2.92 
  -4  -9   2    3.66    2.02 
  -5  -9   2   23.71    3.07 
  -6  -9   2   11.52    2.78 
  -7  -9   2    0.06    2.15 
  -8  -9   2    3.08    2.54 
   4  -9   1    8.96    2.55 
   3  -9   1   13.28    2.44 
   2  -9   1    4.04    1.77 
   1  -9   1   11.98    2.12 
   0  -9   1   32.24    2.42 
   0  -9   1   29.91    2.61 
  -1  -9   1    5.78    1.57 
  -1  -9   1    6.27    1.62 
  -2  -9   1    1.89    1.19 
  -2  -9   1    0.56    1.33 
  -3  -9   1    8.10    1.58 
  -3  -9   1   11.72    2.06 
  -4  -9   1   30.53    2.30 
  -4  -9   1   31.37    2.55 
  -5  -9   1    7.12    2.04 
  -6  -9   1    4.07    1.93 
  -7  -9   1   33.71    3.08 
  -8  -9   1   19.50    3.01 
  -9  -9   1    2.72    2.44 
   4  -9   0    2.43    1.95 
   3  -9   0    5.75    1.90 
   2  -9   0   19.20    2.53 
   1  -9   0   38.81    2.91 
   0  -9   0    2.28    1.31 
  -1  -9   0   27.85    2.35 
  -2  -9   0   36.50    2.50 
  -2  -9   0   35.45    2.37 
  -3  -9   0   19.56    2.08 
  -3  -9   0   17.76    1.97 
  -4  -9   0    2.76    1.40 
  -4  -9   0    1.58    1.14 
  -5  -9   0   20.32    2.02 
  -5  -9   0   23.32    2.38 
  -6  -9   0   16.47    2.19 
  -6  -9   0   15.53    1.90 
  -7  -9   0   -0.59    1.58 
  -7  -9   0    1.32    1.14 
  -8  -9   0   14.23    2.50 
  -9  -9   0    7.80    2.58 
 -10  -9   0    2.27    2.43 
   4  -9  -1   10.59    2.53 
   3  -9  -1    0.33    1.56 
   2  -9  -1    1.77    1.68 
   1  -9  -1   27.97    2.60 
   0  -9  -1   26.98    2.38 
  -1  -9  -1   -0.75    1.02 
  -2  -9  -1   20.61    2.09 
  -3  -9  -1   80.38    3.52 
  -4  -9  -1    8.53    1.47 
  -5  -9  -1    2.65    1.23 
  -5  -9  -1    1.22    1.15 
  -6  -9  -1   23.79    2.14 
  -6  -9  -1   22.46    2.14 
  -7  -9  -1   38.80    2.70 
  -7  -9  -1   38.58    2.57 
  -8  -9  -1    3.10    1.82 
  -8  -9  -1    0.71    1.26 
  -9  -9  -1    6.52    2.23 
  -9  -9  -1    6.01    1.69 
 -10  -9  -1   13.67    2.93 
 -11  -9  -1    0.25    2.61 
   4  -9  -2   11.43    2.56 
   3  -9  -2   12.45    2.35 
   2  -9  -2    0.11    1.33 
   1  -9  -2    2.75    1.47 
   0  -9  -2   20.63    2.25 
  -1  -9  -2    4.74    1.34 
  -2  -9  -2    9.16    1.60 
  -3  -9  -2   10.27    1.56 
  -4  -9  -2   49.30    2.75 
  -5  -9  -2    4.62    1.31 
  -6  -9  -2   -0.79    0.98 
  -7  -9  -2   23.42    2.15 
  -8  -9  -2   13.78    1.96 
  -8  -9  -2   18.32    2.07 
  -9  -9  -2    3.18    1.96 
  -9  -9  -2    3.79    1.49 
 -10  -9  -2    1.40    1.40 
 -10  -9  -2    1.89    2.09 
 -11  -9  -2    5.58    1.85 
 -11  -9  -2    5.96    2.58 
   4  -9  -3   -1.10    1.80 
   3  -9  -3   -1.25    1.51 
   2  -9  -3   13.63    2.21 
   1  -9  -3   24.15    2.43 
   0  -9  -3    1.38    1.29 
  -1  -9  -3   11.64    1.76 
  -2  -9  -3   29.58    2.25 
  -3  -9  -3   11.94    1.62 
  -4  -9  -3   24.79    2.10 
  -5  -9  -3   15.34    1.80 
  -6  -9  -3    4.02    1.21 
  -7  -9  -3    5.89    1.44 
  -8  -9  -3   13.94    1.87 
  -9  -9  -3    5.05    1.57 
 -10  -9  -3    6.12    1.87 
 -11  -9  -3    5.20    1.91 
   4  -9  -4    8.20    2.52 
   3  -9  -4    1.67    1.76 
   2  -9  -4    1.70    1.53 
   1  -9  -4   20.21    2.31 
   0  -9  -4   24.59    2.30 
  -1  -9  -4    1.20    1.21 
  -2  -9  -4    2.68    1.16 
  -3  -9  -4   22.15    1.95 
  -4  -9  -4   17.58    1.86 
  -5  -9  -4    0.01    0.93 
  -6  -9  -4    8.32    1.50 
  -7  -9  -4   24.75    2.17 
  -8  -9  -4    0.63    1.16 
  -9  -9  -4    6.83    1.74 
 -10  -9  -4    8.90    2.08 
 -11  -9  -4    2.90    1.77 
 -12  -9  -4    0.39    1.72 
   3  -9  -5   11.78    2.33 
   2  -9  -5   10.96    2.14 
   1  -9  -5    1.12    1.35 
   0  -9  -5   23.26    2.30 
  -1  -9  -5   34.53    2.58 
  -1  -9  -5   32.40    1.81 
  -2  -9  -5   17.95    1.93 
  -3  -9  -5   16.00    1.80 
  -4  -9  -5   58.45    2.98 
  -5  -9  -5   32.80    2.28 
  -6  -9  -5    1.73    1.10 
  -7  -9  -5   26.14    2.25 
  -8  -9  -5   41.25    2.69 
  -9  -9  -5    3.47    1.58 
 -10  -9  -5    5.46    1.89 
 -11  -9  -5   10.59    2.26 
 -12  -9  -5    3.67    2.00 
   3  -9  -6    2.98    1.89 
   2  -9  -6   12.68    2.23 
   1  -9  -6   34.65    2.77 
   0  -9  -6    2.90    1.12 
   0  -9  -6    4.08    1.47 
  -1  -9  -6    0.70    0.88 
  -1  -9  -6    0.32    1.18 
  -2  -9  -6   18.81    1.99 
  -3  -9  -6   16.96    1.83 
  -4  -9  -6    0.35    0.93 
  -5  -9  -6    2.41    1.08 
  -6  -9  -6   41.21    2.61 
  -7  -9  -6   30.40    2.38 
  -8  -9  -6    0.53    1.15 
  -9  -9  -6   40.62    2.99 
 -10  -9  -6   33.08    2.90 
 -11  -9  -6   -0.29    1.65 
 -12  -9  -6    7.02    2.29 
   2  -9  -7    3.46    1.77 
   1  -9  -7    0.94    1.44 
   0  -9  -7   20.41    2.29 
   0  -9  -7   25.51    1.94 
  -1  -9  -7   10.07    1.80 
  -1  -9  -7    9.93    1.40 
  -2  -9  -7    6.54    1.46 
  -2  -9  -7    4.71    1.18 
  -3  -9  -7   30.34    2.29 
  -4  -9  -7   30.78    2.26 
  -5  -9  -7   -0.54    0.88 
  -6  -9  -7   21.21    2.02 
  -7  -9  -7   16.27    1.96 
  -8  -9  -7   -0.05    1.13 
  -9  -9  -7    2.01    1.51 
 -10  -9  -7    7.21    1.95 
 -11  -9  -7    4.94    1.97 
 -12  -9  -7    1.35    2.12 
   1  -9  -8    1.06    1.54 
   0  -9  -8    6.82    1.45 
   0  -9  -8    4.07    1.55 
  -1  -9  -8   22.28    1.90 
  -1  -9  -8   24.26    2.27 
  -2  -9  -8    7.74    1.58 
  -2  -9  -8    8.51    1.42 
  -3  -9  -8   -0.57    0.85 
  -3  -9  -8    1.16    1.16 
  -4  -9  -8   22.23    2.07 
  -5  -9  -8   21.55    2.03 
  -6  -9  -8   13.19    1.81 
  -7  -9  -8    8.52    1.66 
  -8  -9  -8   18.30    2.14 
  -9  -9  -8   13.06    2.16 
 -10  -9  -8    0.96    1.63 
 -11  -9  -8    6.64    2.15 
 -12  -9  -8    9.21    2.56 
   1  -9  -9    5.74    1.68 
   0  -9  -9    1.68    1.32 
  -1  -9  -9    0.64    1.21 
  -1  -9  -9    1.61    1.39 
  -2  -9  -9    8.81    1.49 
  -2  -9  -9    6.28    1.59 
  -3  -9  -9    9.90    1.63 
  -3  -9  -9   10.41    1.58 
  -4  -9  -9   -1.12    0.93 
  -4  -9  -9   -0.51    1.09 
  -5  -9  -9   10.06    1.66 
  -6  -9  -9   21.72    2.13 
  -7  -9  -9   17.12    2.14 
  -8  -9  -9    1.72    1.42 
  -9  -9  -9   11.49    2.08 
 -10  -9  -9   11.10    2.25 
 -11  -9  -9    0.53    1.77 
   0  -9 -10    5.30    1.66 
  -1  -9 -10   14.34    1.93 
  -2  -9 -10    0.67    1.20 
  -3  -9 -10    9.06    1.59 
  -4  -9 -10   21.43    1.93 
  -4  -9 -10   23.97    2.25 
  -5  -9 -10   -0.99    1.02 
  -5  -9 -10   -0.64    1.03 
  -6  -9 -10    7.16    1.58 
  -7  -9 -10   15.29    2.01 
  -8  -9 -10   10.32    1.89 
  -9  -9 -10    0.76    1.32 
 -10  -9 -10    9.10    2.14 
 -11  -9 -10   10.91    2.51 
  -2  -9 -11    4.99    1.61 
  -3  -9 -11    1.70    1.37 
  -4  -9 -11    0.32    1.16 
  -5  -9 -11   12.25    1.77 
  -6  -9 -11    8.17    1.57 
  -6  -9 -11   10.66    1.82 
  -7  -9 -11    0.25    1.24 
  -8  -9 -11    7.73    1.81 
  -9  -9 -11    8.77    1.93 
 -10  -9 -11    1.98    1.69 
  -4  -9 -12    2.17    1.53 
  -5  -9 -12    1.09    1.39 
  -6  -9 -12   15.80    2.10 
  -7  -9 -12   10.65    1.89 
  -1 -10   3   10.04    2.61 
  -2 -10   3   -2.48    1.98 
  -3 -10   3    2.17    2.34 
  -4 -10   3   16.79    3.16 
  -5 -10   3    7.91    2.85 
   2 -10   2    5.62    2.07 
   1 -10   2    3.91    1.81 
   0 -10   2    1.29    1.64 
  -1 -10   2    8.88    1.90 
  -2 -10   2   13.95    2.52 
  -3 -10   2    2.41    2.12 
  -4 -10   2    1.15    2.14 
  -5 -10   2   16.91    2.95 
  -6 -10   2   13.95    3.03 
  -7 -10   2   -1.41    2.47 
   2 -10   1    1.96    1.68 
   1 -10   1   14.55    2.37 
   0 -10   1    8.81    1.98 
  -1 -10   1    1.42    1.37 
  -2 -10   1    8.97    1.87 
  -3 -10   1   22.78    2.27 
  -4 -10   1    7.14    1.70 
  -5 -10   1    1.87    1.89 
  -6 -10   1    7.14    2.53 
  -7 -10   1   19.83    3.13 
  -8 -10   1    6.68    2.63 
   3 -10   0    4.61    2.32 
   2 -10   0    8.77    2.24 
   1 -10   0    1.60    1.50 
   0 -10   0    8.77    1.91 
  -1 -10   0   15.12    2.13 
  -2 -10   0   11.23    1.85 
  -3 -10   0    0.81    1.24 
  -4 -10   0   28.74    2.41 
  -5 -10   0   12.77    1.78 
  -6 -10   0   -0.12    1.13 
  -8 -10   0    4.92    2.37 
  -9 -10   0    0.61    2.34 
   3 -10  -1    0.47    2.08 
   2 -10  -1    5.87    1.98 
   1 -10  -1   10.86    2.14 
   0 -10  -1    2.92    1.64 
  -1 -10  -1   14.25    2.12 
  -2 -10  -1   15.60    2.07 
  -3 -10  -1   14.67    2.01 
  -4 -10  -1    1.01    1.24 
  -5 -10  -1   16.65    1.97 
  -6 -10  -1   15.60    1.95 
  -7 -10  -1    0.19    1.17 
  -8 -10  -1    4.73    1.57 
   3 -10  -2    6.17    2.34 
   2 -10  -2    0.80    1.61 
   1 -10  -2    9.44    2.06 
   0 -10  -2   35.06    2.89 
  -1 -10  -2    9.16    1.79 
  -2 -10  -2    5.34    1.60 
  -3 -10  -2   31.60    2.54 
  -4 -10  -2   20.04    2.10 
  -5 -10  -2    1.87    1.24 
  -6 -10  -2    1.03    1.30 
  -7 -10  -2   22.51    2.27 
  -8 -10  -2    3.10    1.44 
  -9 -10  -2    2.36    1.46 
 -10 -10  -2    7.22    1.95 
   3 -10  -3   11.61    2.72 
   2 -10  -3   10.58    2.32 
   1 -10  -3    7.05    1.93 
   0 -10  -3    5.53    1.66 
  -1 -10  -3   37.35    2.80 
  -2 -10  -3   43.76    2.95 
  -3 -10  -3    6.71    1.59 
  -4 -10  -3   51.68    2.96 
  -5 -10  -3   52.38    3.03 
  -6 -10  -3   13.53    1.92 
  -7 -10  -3    1.29    1.22 
  -8 -10  -3   22.51    2.41 
  -9 -10  -3    8.35    1.93 
 -10 -10  -3    1.29    1.50 
 -11 -10  -3    4.74    1.76 
   3 -10  -4    1.52    2.11 
   2 -10  -4    8.86    2.20 
   1 -10  -4   21.95    2.57 
   0 -10  -4    3.33    1.62 
  -1 -10  -4    1.45    1.34 
  -2 -10  -4    7.96    1.81 
  -3 -10  -4   22.82    2.26 
  -4 -10  -4    7.98    1.60 
  -5 -10  -4    4.83    1.46 
  -6 -10  -4   25.46    2.30 
  -7 -10  -4   23.70    2.28 
  -8 -10  -4    0.76    1.38 
  -9 -10  -4    9.91    1.99 
 -10 -10  -4   17.69    2.45 
 -11 -10  -4    4.29    1.85 
   2 -10  -5    3.04    1.99 
   1 -10  -5    1.66    1.57 
   0 -10  -5   19.82    2.44 
  -1 -10  -5    1.18    1.33 
  -2 -10  -5    0.30    1.28 
  -3 -10  -5    7.20    1.61 
  -4 -10  -5   12.97    1.86 
  -5 -10  -5    3.89    1.43 
  -6 -10  -5    4.55    1.40 
  -7 -10  -5   23.61    2.33 
  -8 -10  -5    6.58    1.76 
  -9 -10  -5    1.56    1.49 
 -10 -10  -5   11.35    2.17 
 -11 -10  -5   14.19    2.47 
   2 -10  -6    6.71    2.17 
   1 -10  -6    5.77    1.88 
   0 -10  -6    1.41    1.49 
  -1 -10  -6   18.15    2.23 
  -2 -10  -6   29.79    2.53 
  -2 -10  -6   29.12    1.82 
  -3 -10  -6    2.33    1.25 
  -4 -10  -6   11.04    1.77 
  -5 -10  -6    5.39    1.49 
  -6 -10  -6    8.55    1.63 
  -7 -10  -6    3.68    1.48 
  -8 -10  -6   -0.30    1.31 
  -9 -10  -6    9.39    1.97 
 -10 -10  -6    5.75    1.88 
 -11 -10  -6    0.03    1.78 
   1 -10  -7    6.82    1.98 
   0 -10  -7   10.85    2.02 
  -1 -10  -7    1.32    1.31 
  -1 -10  -7    0.46    1.08 
  -2 -10  -7    5.29    1.25 
  -2 -10  -7    4.77    1.66 
  -3 -10  -7   45.21    2.91 
  -4 -10  -7    5.80    1.56 
  -5 -10  -7    6.96    1.64 
  -6 -10  -7   29.87    2.42 
  -7 -10  -7    9.27    1.82 
  -8 -10  -7    4.26    1.66 
  -9 -10  -7    5.72    1.80 
 -10 -10  -7    2.37    1.76 
 -11 -10  -7   -0.38    1.81 
   0 -10  -8   12.15    2.14 
  -1 -10  -8   13.36    2.03 
  -1 -10  -8   16.39    1.76 
  -2 -10  -8    3.83    1.55 
  -2 -10  -8    2.33    1.16 
  -3 -10  -8    2.68    1.37 
  -3 -10  -8    3.38    1.21 
  -4 -10  -8   30.17    2.54 
  -5 -10  -8    7.82    1.71 
  -6 -10  -8    3.47    1.34 
  -7 -10  -8   25.06    2.38 
  -8 -10  -8   14.37    2.15 
  -9 -10  -8    3.15    1.68 
 -10 -10  -8    7.47    2.09 
 -11 -10  -8   12.42    2.69 
  -1 -10  -9    6.54    1.78 
  -1 -10  -9    8.29    1.65 
  -2 -10  -9   16.43    2.24 
  -2 -10  -9   17.81    1.92 
  -3 -10  -9    9.58    1.80 
  -3 -10  -9    6.70    1.43 
  -4 -10  -9   -0.65    1.10 
  -4 -10  -9   -0.26    1.03 
  -5 -10  -9    8.11    1.68 
  -6 -10  -9   23.33    2.28 
  -7 -10  -9    2.95    1.50 
  -8 -10  -9    7.60    1.88 
  -9 -10  -9   15.70    2.36 
 -10 -10  -9    5.29    2.01 
 -11 -10  -9    4.88    2.35 
  -2 -10 -10    1.45    1.26 
  -3 -10 -10   13.25    1.84 
  -3 -10 -10   14.80    2.13 
  -4 -10 -10   20.57    2.27 
  -4 -10 -10   18.68    1.99 
  -5 -10 -10    1.51    1.41 
  -5 -10 -10    0.01    1.09 
  -6 -10 -10   14.64    2.08 
  -7 -10 -10   21.17    2.37 
  -8 -10 -10    3.69    1.69 
  -9 -10 -10    2.20    1.63 
 -10 -10 -10   10.22    2.31 
  -3 -10 -11    2.24    1.55 
  -4 -10 -11    1.32    1.32 
  -5 -10 -11    2.18    1.32 
  -6 -10 -11    0.05    1.24 
  -6 -10 -11    0.81    1.20 
  -7 -10 -11    0.97    1.35 
  -8 -10 -11    5.93    1.86 
  -9 -10 -11    7.32    2.09 
   0 -11   1    4.03    1.79 
  -1 -11   1    3.26    1.61 
  -2 -11   1   20.37    2.51 
   1 -11   0    0.37    1.74 
   0 -11   0    8.61    2.08 
  -1 -11   0   11.86    2.12 
  -2 -11   0    2.47    1.46 
  -3 -11   0   16.90    2.22 
  -4 -11   0   18.35    2.33 
  -5 -11   0    4.81    1.59 
   1 -11  -1   -0.08    1.80 
   0 -11  -1    2.45    1.60 
  -1 -11  -1    8.85    1.95 
  -2 -11  -1    3.27    1.59 
  -3 -11  -1    2.50    1.45 
  -4 -11  -1    7.66    1.78 
  -5 -11  -1   15.04    2.07 
  -6 -11  -1    7.69    1.67 
  -7 -11  -1    0.39    1.26 
   1 -11  -2    7.45    2.24 
   0 -11  -2    7.40    1.94 
  -1 -11  -2    1.79    1.54 
  -2 -11  -2   11.36    2.02 
  -3 -11  -2    7.20    1.87 
  -4 -11  -2    2.60    1.38 
  -5 -11  -2    4.87    1.51 
  -6 -11  -2   11.56    1.89 
  -7 -11  -2    8.94    1.93 
  -8 -11  -2   -0.12    1.32 
  -9 -11  -2    2.98    1.64 
   1 -11  -3    1.24    1.84 
   0 -11  -3   12.04    2.22 
  -1 -11  -3    9.92    2.09 
  -2 -11  -3    2.03    1.45 
  -3 -11  -3    5.44    1.67 
  -4 -11  -3   30.36    2.61 
  -5 -11  -3   11.93    1.94 
  -6 -11  -3    1.46    1.35 
  -7 -11  -3   24.00    2.57 
  -8 -11  -3   18.63    2.35 
  -9 -11  -3    1.82    1.57 
 -10 -11  -3    4.03    1.84 
   1 -11  -4   10.92    2.43 
   0 -11  -4    0.01    1.64 
  -1 -11  -4    8.28    2.02 
  -2 -11  -4   26.51    2.58 
  -3 -11  -4   13.55    2.20 
  -4 -11  -4    2.04    1.39 
  -5 -11  -4   20.05    2.29 
  -6 -11  -4   10.96    1.95 
  -7 -11  -4    6.00    1.82 
  -8 -11  -4    3.92    1.67 
  -9 -11  -4   10.61    2.15 
 -10 -11  -4    5.65    1.98 
   1 -11  -5    6.00    2.18 
   0 -11  -5   15.31    2.50 
  -1 -11  -5    2.03    1.61 
  -2 -11  -5    3.22    1.67 
  -3 -11  -5   32.73    2.81 
  -4 -11  -5   19.03    2.22 
  -5 -11  -5    0.00    1.23 
  -6 -11  -5   20.52    2.37 
  -7 -11  -5   24.45    2.43 
  -8 -11  -5    8.02    1.91 
  -9 -11  -5    1.55    1.66 
 -10 -11  -5   10.54    2.28 
 -11 -11  -5    7.34    2.34 
   0 -11  -6   10.81    2.30 
  -1 -11  -6   15.35    2.35 
  -2 -11  -6    8.83    1.99 
  -3 -11  -6    1.04    1.40 
  -4 -11  -6   26.72    2.46 
  -5 -11  -6   19.10    2.35 
  -6 -11  -6    2.25    1.43 
  -7 -11  -6    5.65    1.74 
  -8 -11  -6   12.19    2.12 
  -9 -11  -6   12.33    2.25 
 -10 -11  -6    1.86    1.71 
 -11 -11  -6    0.90    1.97 
   0 -11  -7    1.64    1.77 
  -1 -11  -7    2.04    1.68 
  -2 -11  -7    7.63    1.90 
  -3 -11  -7    8.18    1.95 
  -4 -11  -7    1.38    1.31 
  -5 -11  -7    1.43    1.43 
  -6 -11  -7   13.30    2.09 
  -7 -11  -7    4.17    1.60 
  -8 -11  -7    3.16    1.67 
  -9 -11  -7   11.42    2.26 
 -10 -11  -7   -0.69    1.63 
 -11 -11  -7    1.79    1.99 
  -1 -11  -8    0.15    1.51 
  -2 -11  -8    0.40    1.44 
  -3 -11  -8   10.73    1.61 
  -3 -11  -8   10.94    1.96 
  -4 -11  -8   12.80    2.02 
  -5 -11  -8   -0.05    1.34 
  -6 -11  -8    3.61    1.64 
  -7 -11  -8   12.84    2.08 
  -8 -11  -8    2.45    1.68 
  -9 -11  -8    1.17    1.64 
 -10 -11  -8    6.34    2.26 
  -2 -11  -9    7.63    1.96 
  -2 -11  -9   10.65    1.73 
  -3 -11  -9   -0.23    1.08 
  -3 -11  -9    1.16    1.53 
  -4 -11  -9    9.73    1.89 
  -4 -11  -9   10.94    1.64 
  -5 -11  -9   19.72    2.36 
  -6 -11  -9    3.26    1.61 
  -7 -11  -9    1.68    1.47 
  -8 -11  -9    7.00    1.90 
  -9 -11  -9    8.60    2.22 
 -10 -11  -9    1.50    2.02 
  -3 -11 -10   14.36    1.93 
  -3 -11 -10   11.95    2.21 
  -4 -11 -10    8.39    1.65 
  -4 -11 -10    6.71    1.82 
  -5 -11 -10    0.61    1.23 
  -5 -11 -10    0.45    1.34 
  -6 -11 -10   20.07    2.44 
  -7 -11 -10    8.55    1.96 
  -8 -11 -10    0.22    1.44 
  -9 -11 -10   11.65    2.49 
  -6 -11 -11   -1.20    1.40 
  -6 -11 -11   -1.02    1.27 
  -7 -11 -11    1.47    1.57 
  -3 -12   0    4.52    1.73 
  -4 -12   0    5.64    1.85 
  -2 -12  -1    3.62    1.80 
  -3 -12  -1   -0.40    1.39 
  -4 -12  -1   11.75    2.17 
  -5 -12  -1    8.18    1.90 
  -6 -12  -1   -0.51    1.29 
  -1 -12  -2    2.64    1.94 
  -2 -12  -2    7.94    2.04 
  -3 -12  -2    6.84    1.83 
  -4 -12  -2    1.31    1.50 
  -5 -12  -2   17.65    2.31 
  -6 -12  -2   12.25    2.00 
  -7 -12  -2    0.24    1.28 
  -8 -12  -2    2.34    1.61 
  -1 -12  -3    1.35    1.80 
  -2 -12  -3    6.80    1.94 
  -3 -12  -3    8.73    2.06 
  -4 -12  -3    9.54    2.02 
  -5 -12  -3    1.30    1.36 
  -6 -12  -3   10.34    1.96 
  -7 -12  -3   18.47    2.37 
  -8 -12  -3    9.81    2.15 
  -1 -12  -4   18.81    2.80 
  -2 -12  -4   16.31    2.44 
  -3 -12  -4    0.88    1.66 
  -4 -12  -4   13.31    2.21 
  -5 -12  -4    8.83    1.87 
  -6 -12  -4    1.84    1.45 
  -7 -12  -4    0.83    1.49 
  -8 -12  -4    8.71    2.11 
  -9 -12  -4    9.73    2.12 
  -1 -12  -5   -1.04    1.70 
  -2 -12  -5    4.75    1.94 
  -3 -12  -5   11.47    2.22 
  -4 -12  -5   -0.05    1.32 
  -5 -12  -5    8.25    1.89 
  -6 -12  -5   12.63    2.17 
  -7 -12  -5    2.48    1.67 
  -8 -12  -5    0.48    1.52 
  -9 -12  -5    9.86    2.19 
  -1 -12  -6    0.27    1.81 
  -2 -12  -6   -0.24    1.62 
  -3 -12  -6    3.26    1.89 
  -4 -12  -6   17.88    2.49 
  -5 -12  -6   10.74    2.11 
  -6 -12  -6    1.74    1.55 
  -7 -12  -6   23.19    2.69 
  -8 -12  -6   11.85    2.20 
  -9 -12  -6    2.03    1.81 
 -10 -12  -6    2.63    2.04 
  -2 -12  -7    4.43    1.98 
  -3 -12  -7    4.15    1.99 
  -4 -12  -7    2.41    1.71 
  -5 -12  -7   13.41    2.24 
  -6 -12  -7   13.92    2.41 
  -7 -12  -7    1.37    1.69 
  -8 -12  -7    8.57    2.05 
  -9 -12  -7   14.79    2.54 
  -3 -12  -8   13.91    2.48 
  -4 -12  -8   -0.17    1.57 
  -5 -12  -8    4.22    1.81 
  -6 -12  -8   10.56    2.28 
  -7 -12  -8   10.95    2.29 
  -8 -12  -8   -0.05    1.66 
  -9 -12  -8    2.83    2.01 
  -4 -12  -9   15.58    2.49 
  -4 -12  -9   16.60    1.96 
  -5 -12  -9    7.27    1.95 
  -6 -12  -9   -1.38    1.55 
  -7 -12  -9    5.22    2.02 
  -8 -12  -9    7.33    2.16 
  -4 -13  -4   10.65    2.37 
  -5 -13  -4    7.07    2.14 
  -6 -13  -4    0.61    1.66 
  -4 -13  -5    1.39    1.77 
  -5 -13  -5    4.69    2.03 
  -6 -13  -5    7.44    2.05 
  -7 -13  -5   -1.17    1.55 
  -5 -13  -6   -0.95    1.61 
  -6 -13  -6    7.70    2.12 
  -7 -13  -6    9.06    2.29 
  -6 -13  -7    1.68    1.78 
  -7 -13  -7    2.04    1.97 
   0   0   0    0.00    0.00 
;
_shelx_hkl_checksum              34291
loop_
_space_group_symop_operation_xyz
'x, y, z'
'-x, -y, -z'
loop_
_atom_site_label
_atom_site_type_symbol
_atom_site_fract_x
_atom_site_fract_y
_atom_site_fract_z
_atom_site_U_iso_or_equiv
_atom_site_adp_type
_atom_site_occupancy
_atom_site_site_symmetry_order
_atom_site_calc_flag
_atom_site_refinement_flags_posn
_atom_site_refinement_flags_adp
Se1 Se 0.85801(5) 0.91231(4) 0.68364(4) 0.02829(15) Uani 1 1 d . .
F1 F 0.5884(4) 1.1341(3) 0.6137(3) 0.0655(9) Uani 1 1 d . .
F2 F 0.5331(3) 1.0033(3) 0.8487(3) 0.0510(7) Uani 1 1 d . .
F3 F 0.5835(3) 0.9016(4) 0.6728(3) 0.0605(8) Uani 1 1 d . .
N1 N 0.7901(5) 1.0515(5) 1.2623(4) 0.0454(10) Uani 1 1 d . .
O1 O 1.1232(4) 0.7382(4) 0.4920(3) 0.0498(9) Uani 1 1 d . .
O2 O 1.1056(4) 0.4969(3) 0.6097(4) 0.0548(10) Uani 1 1 d . .
O3 O 0.8583(4) 0.4625(3) 0.8705(4) 0.0588(10) Uani 1 1 d . .
O4 O 0.7054(4) 0.6828(3) 0.9400(3) 0.0436(8) Uani 1 1 d . .
O5 O 0.8217(5) 0.9412(5) 1.3721(4) 0.0729(12) Uani 1 1 d . .
O6 O 0.7496(6) 1.1858(5) 1.2595(4) 0.0828(14) Uani 1 1 d . .
C1 C 0.6221(6) 0.9922(5) 0.7096(5) 0.0394(11) Uani 1 1 d . .
C2 C 0.9160(5) 0.6978(4) 0.7193(4) 0.0316(10) Uani 1 1 d . .
C3 C 1.0546(6) 0.6496(5) 0.5976(5) 0.0364(11) Uani 1 1 d . .
C4 C 1.2437(8) 0.4464(6) 0.4873(6) 0.0733(19) Uani 1 1 d . .
H4A H 1.2180 0.4930 0.3917 0.110 Uiso 1 1 calc R U
H4B H 1.2775 0.3347 0.5101 0.110 Uiso 1 1 calc R U
H4C H 1.3273 0.4780 0.4792 0.110 Uiso 1 1 calc R U
C5 C 0.8289(5) 0.6017(5) 0.8447(5) 0.0371(11) Uani 1 1 d . .
C6 C 0.6253(7) 0.5935(6) 1.0822(6) 0.0663(17) Uani 1 1 d . .
H6A H 0.5689 0.5488 1.0615 0.099 Uiso 1 1 calc R U
H6B H 0.5521 0.6604 1.1475 0.099 Uiso 1 1 calc R U
H6C H 0.7012 0.5114 1.1328 0.099 Uiso 1 1 calc R U
C7 C 0.8344(5) 0.9497(4) 0.8722(4) 0.0287(9) Uani 1 1 d . .
C8 C 0.8789(5) 0.8279(5) 0.9945(5) 0.0333(10) Uani 1 1 d . .
H8 H 0.9177 0.7251 0.9901 0.040 Uiso 1 1 calc R U
C9 C 0.8650(5) 0.8609(5) 1.1243(5) 0.0356(10) Uani 1 1 d . .
H9 H 0.8948 0.7814 1.2079 0.043 Uiso 1 1 calc R U
C10 C 0.8058(5) 1.0146(5) 1.1248(4) 0.0314(10) Uani 1 1 d . .
C11 C 0.7677(5) 1.1384(5) 0.9999(5) 0.0353(10) Uani 1 1 d . .
H11 H 0.7333 1.2412 1.0029 0.042 Uiso 1 1 calc R U
C12 C 0.7823(5) 1.1050(5) 0.8708(4) 0.0326(10) Uani 1 1 d . .
H12 H 0.7577 1.1849 0.7852 0.039 Uiso 1 1 calc R U
loop_
_atom_site_aniso_label
_atom_site_aniso_U_11
_atom_site_aniso_U_22
_atom_site_aniso_U_33
_atom_site_aniso_U_23
_atom_site_aniso_U_13
_atom_site_aniso_U_12
Se1 0.0362(3) 0.0263(2) 0.0229(2) -0.00695(15) -0.00673(17) -0.01210(17)
F1 0.061(2) 0.0513(17) 0.0625(19) 0.0017(15) -0.0306(16) -0.0034(15)
F2 0.0346(16) 0.0699(18) 0.0472(15) -0.0269(14) -0.0039(13) -0.0133(13)
F3 0.052(2) 0.083(2) 0.0705(19) -0.0373(16) -0.0229(15) -0.0217(16)
N1 0.050(3) 0.061(3) 0.035(2) -0.018(2) -0.0063(19) -0.027(2)
O1 0.057(2) 0.0389(18) 0.0417(18) -0.0123(15) 0.0024(16) -0.0203(16)
O2 0.062(2) 0.0315(17) 0.0483(19) -0.0173(14) 0.0058(17) -0.0104(16)
O3 0.070(3) 0.0289(18) 0.058(2) -0.0098(15) 0.0000(19) -0.0188(16)
O4 0.048(2) 0.0321(16) 0.0406(17) -0.0094(13) -0.0003(15) -0.0162(14)
O5 0.097(3) 0.082(3) 0.043(2) -0.021(2) -0.034(2) -0.014(2)
O6 0.151(4) 0.069(3) 0.048(2) -0.0230(19) -0.023(2) -0.051(3)
C1 0.045(3) 0.043(3) 0.032(2) -0.010(2) -0.012(2) -0.016(2)
C2 0.041(3) 0.026(2) 0.028(2) -0.0066(17) -0.0075(19) -0.0131(18)
C3 0.051(3) 0.029(2) 0.030(2) -0.0076(19) -0.015(2) -0.011(2)
C4 0.079(5) 0.045(3) 0.065(4) -0.027(3) 0.013(3) -0.014(3)
C5 0.045(3) 0.033(2) 0.033(2) -0.0069(19) -0.011(2) -0.014(2)
C6 0.063(4) 0.058(3) 0.048(3) -0.009(3) 0.018(3) -0.031(3)
C7 0.034(3) 0.032(2) 0.022(2) -0.0073(17) -0.0043(18) -0.0164(18)
C8 0.034(3) 0.032(2) 0.037(2) -0.0103(18) -0.013(2) -0.0094(19)
C9 0.037(3) 0.040(2) 0.033(2) -0.0055(19) -0.011(2) -0.018(2)
C10 0.030(3) 0.048(3) 0.026(2) -0.0151(19) -0.0030(18) -0.020(2)
C11 0.039(3) 0.033(2) 0.037(2) -0.0123(19) -0.007(2) -0.015(2)
C12 0.041(3) 0.029(2) 0.027(2) -0.0036(17) -0.0090(19) -0.0151(19)
loop_
_atom_type_symbol
_atom_type_description
_atom_type_scat_dispersion_real
_atom_type_scat_dispersion_imag
_atom_type_scat_source
C C 0.0033 0.0016 'International Tables Vol C Tables 4.2.6.8 and 6.1.1.4'
H H 0.0000 0.0000 'International Tables Vol C Tables 4.2.6.8 and 6.1.1.4'
N N 0.0061 0.0033 'International Tables Vol C Tables 4.2.6.8 and 6.1.1.4'
O O 0.0106 0.0060 'International Tables Vol C Tables 4.2.6.8 and 6.1.1.4'
F F 0.0171 0.0103 'International Tables Vol C Tables 4.2.6.8 and 6.1.1.4'
Se Se -0.0929 2.2259 'International Tables Vol C Tables 4.2.6.8 and 6.1.1.4'
loop_
_geom_angle_atom_site_label_1
_geom_angle_atom_site_label_2
_geom_angle_atom_site_label_3
_geom_angle
C2 Se1 C7 107.55(17)
C2 Se1 C1 104.85(19)
C7 Se1 C1 94.69(17)
O6 N1 O5 123.8(4)
O6 N1 C10 118.9(4)
O5 N1 C10 117.2(4)
C3 O2 C4 115.2(4)
C5 O4 C6 116.7(3)
F2 C1 F3 108.6(4)
F2 C1 F1 107.4(4)
F3 C1 F1 108.1(4)
F2 C1 Se1 114.1(3)
F3 C1 Se1 110.5(3)
F1 C1 Se1 107.9(3)
C5 C2 C3 127.0(4)
C5 C2 Se1 123.8(3)
C3 C2 Se1 109.1(3)
O1 C3 O2 121.7(4)
O1 C3 C2 124.0(4)
O2 C3 C2 114.4(4)
O2 C4 H4A 109.5
O2 C4 H4B 109.5
H4A C4 H4B 109.5
O2 C4 H4C 109.5
H4A C4 H4C 109.5
H4B C4 H4C 109.5
O3 C5 O4 121.1(4)
O3 C5 C2 126.6(4)
O4 C5 C2 112.3(3)
O4 C6 H6A 109.5
O4 C6 H6B 109.5
H6A C6 H6B 109.5
O4 C6 H6C 109.5
H6A C6 H6C 109.5
H6B C6 H6C 109.5
C8 C7 C12 122.4(4)
C8 C7 Se1 121.4(3)
C12 C7 Se1 116.0(3)
C7 C8 C9 119.2(4)
C7 C8 H8 120.4
C9 C8 H8 120.4
C10 C9 C8 117.8(4)
C10 C9 H9 121.1
C8 C9 H9 121.1
C9 C10 C11 123.5(3)
C9 C10 N1 118.4(4)
C11 C10 N1 118.0(4)
C12 C11 C10 118.4(4)
C12 C11 H11 120.8
C10 C11 H11 120.8
C11 C12 C7 118.5(4)
C11 C12 H12 120.8
C7 C12 H12 120.8
loop_
_geom_bond_atom_site_label_1
_geom_bond_atom_site_label_2
_geom_bond_distance
Se1 C2 1.858(4)
Se1 C7 1.954(4)
Se1 C1 2.033(5)
F1 C1 1.326(5)
F2 C1 1.311(5)
F3 C1 1.324(5)
N1 O6 1.201(5)
N1 O5 1.223(5)
N1 C10 1.483(5)
O1 C3 1.223(5)
O2 C3 1.338(5)
O2 C4 1.449(6)
O3 C5 1.213(5)
O4 C5 1.352(5)
O4 C6 1.434(5)
C2 C5 1.429(6)
C2 C3 1.440(6)
C4 H4A 0.9600
C4 H4B 0.9600
C4 H4C 0.9600
C6 H6A 0.9600
C6 H6B 0.9600
C6 H6C 0.9600
C7 C8 1.382(6)
C7 C12 1.387(5)
C8 C9 1.393(6)
C8 H8 0.9300
C9 C10 1.372(6)
C9 H9 0.9300
C10 C11 1.390(6)
C11 C12 1.386(5)
C11 H11 0.9300
C12 H12 0.9300
loop_
_geom_hbond_atom_site_label_D
_geom_hbond_atom_site_label_H
_geom_hbond_atom_site_label_A
_geom_hbond_distance_DH
_geom_hbond_distance_HA
_geom_hbond_distance_DA
_geom_hbond_angle_DHA
_geom_hbond_site_symmetry_A
C9 H9 O2 0.93 2.61 3.425(6) 146.9 2_767
C11 H11 O3 0.93 2.58 3.297(6) 134.1 1_565
C12 H12 O1 0.93 2.43 3.190(5) 138.6 2_776
loop_
_geom_torsion_atom_site_label_1
_geom_torsion_atom_site_label_2
_geom_torsion_atom_site_label_3
_geom_torsion_atom_site_label_4
_geom_torsion
C7 Se1 C2 C5 54.4(4)
C1 Se1 C2 C5 -45.5(4)
C7 Se1 C2 C3 -128.5(3)
C1 Se1 C2 C3 131.6(3)
C4 O2 C3 O1 -1.6(7)
C4 O2 C3 C2 179.3(5)
C5 C2 C3 O1 179.1(5)
Se1 C2 C3 O1 2.1(6)
C5 C2 C3 O2 -1.8(7)
Se1 C2 C3 O2 -178.8(3)
C6 O4 C5 O3 8.2(7)
C6 O4 C5 C2 -170.4(4)
C3 C2 C5 O3 0.9(8)
Se1 C2 C5 O3 177.4(4)
C3 C2 C5 O4 179.4(4)
Se1 C2 C5 O4 -4.0(6)
C12 C7 C8 C9 2.8(6)
Se1 C7 C8 C9 177.8(3)
C7 C8 C9 C10 0.5(6)
C8 C9 C10 C11 -3.7(6)
C8 C9 C10 N1 179.9(4)
O6 N1 C10 C9 174.5(4)
O5 N1 C10 C9 -4.5(6)
O6 N1 C10 C11 -2.1(6)
O5 N1 C10 C11 178.9(4)
C9 C10 C11 C12 3.5(7)
N1 C10 C11 C12 179.9(4)
C10 C11 C12 C7 -0.1(6)
C8 C7 C12 C11 -3.0(6)
Se1 C7 C12 C11 -178.2(3)
