#------------------------------------------------------------------------------
#$Date: 2019-11-24 14:36:19 +0200 (Sun, 24 Nov 2019) $
#$Revision: 238182 $
#$URL: file:///home/coder/svn-repositories/cod/cif/1/55/48/1554890.cif $
#------------------------------------------------------------------------------
#
# This file is available in the Crystallography Open Database (COD),
# http://www.crystallography.net/
#
# All data on this site have been placed in the public domain by the
# contributors.
#
data_1554890
loop_
_publ_author_name
'Shemet, Andrej'
'Sarlah, David'
'Carreira, Erick M.'
_publ_section_title
;
 Stereochemical studies of the opening of chloro vinyl epoxides: cyclic
 chloronium ions as intermediates.
;
_journal_issue                   8
_journal_name_full               'Organic letters'
_journal_page_first              1878
_journal_page_last               1881
_journal_paper_doi               10.1021/acs.orglett.5b00558
_journal_volume                  17
_journal_year                    2015
_chemical_absolute_configuration ad
_chemical_formula_moiety         'C13 H16 Br Cl2 N O3'
_chemical_formula_sum            'C13 H16 Br Cl2 N O3'
_chemical_formula_weight         385.08
_chemical_name_systematic
'(2R,4R,5R)-2,5-dichlorohexane-1,3-diyl bis((4-bromophenyl)carbamate)'
_space_group_crystal_system      monoclinic
_space_group_IT_number           4
_space_group_name_Hall           'P 2yb'
_space_group_name_H-M_alt        'P 1 21 1'
_atom_sites_solution_hydrogens   geom
_atom_sites_solution_primary     direct
_audit_creation_date             2013-07-04
_audit_creation_method
;
  Olex2 1.2
  (compiled Apr  9 2013 14:10:59, GUI svn.r4458)
;
_cell_angle_alpha                90
_cell_angle_beta                 107.952(4)
_cell_angle_gamma                90
_cell_formula_units_Z            2
_cell_length_a                   10.669(3)
_cell_length_b                   4.7706(14)
_cell_length_c                   15.964(5)
_cell_measurement_reflns_used    7344
_cell_measurement_temperature    100
_cell_measurement_theta_max      27.58
_cell_measurement_theta_min      2.68
_cell_volume                     773.0(4)
_computing_cell_refinement       'Bruker SAINT'
_computing_data_collection       'Bruker APEX2'
_computing_data_reduction        'Bruker SAINT'
_computing_molecular_graphics
;
O. V. Dolomanov, L. J. Bourhis, R. J. Gildea, J. A. K. Howard and H. Puschmann,
OLEX2: a complete structure solution, refinement and analysis program.
J. Appl. Cryst. (2009). 42, 339-341.
;
_computing_publication_material
;
O. V. Dolomanov, L. J. Bourhis, R. J. Gildea, J. A. K. Howard and H. Puschmann,
OLEX2: a complete structure solution, refinement and analysis program.
J. Appl. Cryst. (2009). 42, 339-341.
;
_computing_structure_refinement  'SHELXL-97 (Sheldrick, 2008)'
_computing_structure_solution    'SHELXS-97 (Sheldrick, 2008)'
_diffrn_ambient_temperature      100.0
_diffrn_detector                 'Bruker APEX2 area detector'
_diffrn_detector_area_resol_mean 8.33
_diffrn_detector_type            'CCD area detector'
_diffrn_measured_fraction_theta_full 0.978
_diffrn_measured_fraction_theta_max 0.975
_diffrn_measurement_device       'kappa-stage diffractometer'
_diffrn_measurement_device_type  'Bruker Kappa Apex2 Duo'
_diffrn_measurement_method       '\w and \f scans'
_diffrn_radiation_monochromator  'focusing graphite'
_diffrn_radiation_probe          x-ray
_diffrn_radiation_type           MoK\a
_diffrn_radiation_wavelength     0.71073
_diffrn_radiation_xray_symbol    K-L~3~
_diffrn_reflns_av_R_equivalents  0.0315
_diffrn_reflns_av_unetI/netI     0.0482
_diffrn_reflns_Laue_measured_fraction_full 0.978
_diffrn_reflns_Laue_measured_fraction_max 0.975
_diffrn_reflns_limit_h_max       13
_diffrn_reflns_limit_h_min       -13
_diffrn_reflns_limit_k_max       6
_diffrn_reflns_limit_k_min       -6
_diffrn_reflns_limit_l_max       20
_diffrn_reflns_limit_l_min       -20
_diffrn_reflns_number            13688
_diffrn_reflns_point_group_measured_fraction_full 0.980
_diffrn_reflns_point_group_measured_fraction_max 0.978
_diffrn_reflns_theta_full        25.242
_diffrn_reflns_theta_max         27.600
_diffrn_reflns_theta_min         2.007
_diffrn_source                   'sealed tube'
_diffrn_standards_number         0
_exptl_absorpt_coefficient_mu    3.010
_exptl_absorpt_correction_T_max  0.7456
_exptl_absorpt_correction_T_min  0.6172
_exptl_absorpt_correction_type   multi-scan
_exptl_absorpt_process_details
;
SADABS-2008/1 (Bruker,2008) was used for absorption correction.
wR2(int) was 0.0792 before and 0.0640 after correction.
The Ratio of minimum to maximum transmission is 0.8278.
The \l/2 correction factor is 0.0000.
;
_exptl_crystal_colour            colourless
_exptl_crystal_colour_primary    colourless
_exptl_crystal_density_diffrn    1.655
_exptl_crystal_description       needle
_exptl_crystal_F_000             388
_exptl_crystal_size_max          0.25
_exptl_crystal_size_mid          0.035
_exptl_crystal_size_min          0.02
_refine_diff_density_max         0.293
_refine_diff_density_min         -0.260
_refine_diff_density_rms         0.054
_refine_ls_abs_structure_details
;
 Flack x determined using 1323 quotients [(I+)-(I-)]/[(I+)+(I-)]
 (Parsons and Flack (2004), Acta Cryst. A60, s61).
;
_refine_ls_abs_structure_Flack   0.029(4)
_refine_ls_extinction_method     none
_refine_ls_goodness_of_fit_ref   0.899
_refine_ls_hydrogen_treatment    constr
_refine_ls_matrix_type           full
_refine_ls_number_parameters     183
_refine_ls_number_reflns         3517
_refine_ls_number_restraints     1
_refine_ls_restrained_S_all      0.899
_refine_ls_R_factor_all          0.0266
_refine_ls_R_factor_gt           0.0214
_refine_ls_shift/su_max          0.002
_refine_ls_shift/su_mean         0.000
_refine_ls_structure_factor_coef Fsqd
_refine_ls_weighting_details
;
 w=1/[\s^2^(Fo^2^)]
 where P=(Fo^2^+2Fc^2^)/3
;
_refine_ls_weighting_scheme      calc
_refine_ls_wR_factor_gt          0.0390
_refine_ls_wR_factor_ref         0.0399
_reflns_Friedel_coverage         0.792
_reflns_Friedel_fraction_full    0.984
_reflns_Friedel_fraction_max     0.982
_reflns_number_gt                3196
_reflns_number_total             3517
_reflns_threshold_expression     'I > 2\s(I)'
_cod_data_source_file            ol5b00558_si_005.cif
_cod_data_source_block           mo_ca010713_0ma
_cod_original_cell_volume        772.9(4)
_cod_database_code               1554890
_olex2_refinement_description
;
1. Fixed Uiso
 At 1.2 times of:
  All C(H) groups, All C(H,H) groups, All N(H) groups
 At 1.5 times of:
  All C(H,H,H) groups, All O(H) groups
2.a Ternary CH refined with riding coordinates:
 C3(H3A), C5(H5), C6(H6)
2.b Secondary CH2 refined with riding coordinates:
 C4(H4A,H4B), C7(H7A,H7B)
2.c Aromatic/amide H refined with riding coordinates:
 N1(H1), C9(H9), C10(H10), C12(H12), C13(H13)
2.d Idealised Me refined as rotating group:
 C1(H1A,H1B,H1C)
2.e Idealised tetrahedral OH refined as rotating group:
 O3(H3)
;
_shelx_estimated_absorpt_t_max   0.942
_shelx_estimated_absorpt_t_min   0.520
_shelx_res_file
;
TITL mo_ca010713_0ma in P2(1)
CELL 0.71073 10.6686 4.7706 15.9636 90 107.952 90
ZERR 2 0.003 0.0014 0.0046 0 0.004 0
LATT -1
SYMM -X,0.5+Y,-Z
 
SFAC C H N O Cl Br
UNIT 26 32 2 6 4 2
 
L.S. 10
PLAN  -20 0 0
SIZE 0.02 0.035 0.25
TEMP -173.15
HTAB
BOND $H
CONF
fmap 2
acta
OMIT -2 0 9
REM <HKL>D:/SMoCC_Strukturen/ca010713/work/mo_ca010713_0ma.hkl</HKL>
 
WGHT    0.000000
FVAR       0.20445
BR1   6    0.745000   -0.264750    0.483092    11.00000    0.01793    0.02017 =
         0.01742    0.00550    0.00304    0.00304
CL1   5    0.142731    1.322424    0.039567    11.00000    0.01590    0.01604 =
         0.02010   -0.00111    0.00684    0.00332
CL2   5   -0.174727    1.406529   -0.300740    11.00000    0.01335    0.03605 =
         0.02927    0.01625    0.00323    0.00313
O1    4    0.336258    0.868495    0.109688    11.00000    0.01298    0.01676 =
         0.01258    0.00462    0.00458    0.00444
O2    4    0.520767    0.623090    0.115759    11.00000    0.01280    0.02177 =
         0.01620    0.00357    0.00825    0.00430
O3    4    0.242523    1.389306   -0.123934    11.00000    0.01291    0.01971 =
         0.02492    0.00707    0.00734    0.00028
AFIX 147
H3    2    0.320828    1.344620   -0.118389    11.00000   -1.50000
AFIX   0
N1    3    0.414799    0.576076    0.220126    11.00000    0.01036    0.01706 =
         0.01372    0.00254    0.00671    0.00452
AFIX  43
H1    2    0.346027    0.638247    0.233922    11.00000   -1.20000
AFIX   0
C2    1    0.493720    0.375394    0.277765    11.00000    0.01121    0.01271 =
         0.01130    0.00132    0.00042   -0.00122
C1    1    0.024787    1.087936   -0.321756    11.00000    0.02391    0.02407 =
         0.01939    0.00293    0.00239   -0.00377
AFIX 137
H1A   2   -0.032607    0.924853   -0.325705    11.00000   -1.50000
H1B   2    0.117128    1.028746   -0.299698    11.00000   -1.50000
H1C   2    0.007507    1.172019   -0.380239    11.00000   -1.50000
AFIX   0
C3    1   -0.002399    1.300580   -0.259630    11.00000    0.00896    0.02262 =
         0.02138    0.00555    0.00313   -0.00081
AFIX  13
H3A   2    0.053458    1.469309   -0.259100    11.00000   -1.20000
AFIX   0
C4    1    0.023263    1.203566   -0.165142    11.00000    0.01521    0.02179 =
         0.01885    0.00684    0.00671    0.00208
AFIX  23
H4A   2   -0.028282    1.031111   -0.164989    11.00000   -1.20000
H4B   2   -0.007976    1.349572   -0.132236    11.00000   -1.20000
AFIX   0
C5    1    0.169152    1.144065   -0.117772    11.00000    0.01333    0.01582 =
         0.01568    0.00269    0.00671    0.00005
AFIX  13
H5    2    0.198090    0.988248   -0.149459    11.00000   -1.20000
AFIX   0
C6    1    0.191126    1.052575   -0.022924    11.00000    0.01205    0.01179 =
         0.01688   -0.00141    0.00553    0.00016
AFIX  13
H6    2    0.134447    0.884860   -0.023944    11.00000   -1.20000
AFIX   0
C7    1    0.332305    0.970208    0.023530    11.00000    0.01311    0.01703 =
         0.01559    0.00383    0.00642    0.00208
AFIX  23
H7A   2    0.360990    0.821716   -0.009858    11.00000   -1.20000
H7B   2    0.391297    1.133984    0.029055    11.00000   -1.20000
AFIX   0
C8    1    0.432434    0.683842    0.146314    11.00000    0.01281    0.01289 =
         0.01178   -0.00162    0.00213   -0.00074
C9    1    0.455917    0.299509    0.350907    11.00000    0.01218    0.01518 =
         0.01470   -0.00007    0.00585   -0.00060
AFIX  43
H9    2    0.379584    0.380814    0.359596    11.00000   -1.20000
AFIX   0
C10   1    0.529117    0.106473    0.410770    11.00000    0.01721    0.01802 =
         0.01319   -0.00142    0.00683   -0.00321
AFIX  43
H10   2    0.503084    0.055088    0.460469    11.00000   -1.20000
AFIX   0
C11   1    0.640628   -0.012032    0.398138    11.00000    0.01337    0.01300 =
         0.01513    0.00054    0.00052   -0.00046
C12   1    0.603480    0.248246    0.264149    11.00000    0.01744    0.01832 =
         0.01433    0.00419    0.00865    0.00025
AFIX  43
H12   2    0.628061    0.293280    0.213390    11.00000   -1.20000
AFIX   0
C13   1    0.676960    0.055382    0.324963    11.00000    0.01423    0.01705 =
         0.01882    0.00007    0.00729    0.00383
AFIX  43
H13   2    0.752283   -0.029945    0.316025    11.00000   -1.20000
AFIX   0
HKLF 4
 
REM  mo_ca010713_0ma in P2(1)
REM R1 =  0.0214 for    3196 Fo > 4sig(Fo)  and  0.0266 for all    3517 data
REM    183 parameters refined using      1 restraints
 
END  
     
WGHT      0.0000      0.0000 

REM Instructions for potential hydrogen bonds
EQIV $1 -x+1, y+1/2, -z
HTAB O3 O2_$1
EQIV $2 -x, y-1/2, -z
HTAB N1 Cl2_$2
HTAB C4 Cl1_$2
HTAB C6 Cl1_$2
HTAB C12 O2

REM Highest difference peak  0.293,  deepest hole -0.260,  1-sigma level  0.054
Q1    1   0.7447 -0.3972  0.4281  11.00000  0.05    0.29
Q2    1   0.6757  0.2418  0.3067  11.00000  0.05    0.28
Q3    1  -0.1823  1.2464 -0.3484  11.00000  0.05    0.27
Q4    1   0.6008  0.2598  0.2331  11.00000  0.05    0.27
Q5    1   0.7612 -0.0862  0.4457  11.00000  0.05    0.25
Q6    1   0.7411 -0.1213  0.4287  11.00000  0.05    0.25
Q7    1   0.7237 -0.0705  0.4879  11.00000  0.05    0.24
Q8    1   0.4429  0.0758  0.2400  11.00000  0.05    0.23
Q9    1   0.0049  1.2268 -0.2169  11.00000  0.05    0.23
Q10   1   0.7315 -0.4497  0.4891  11.00000  0.05    0.23
Q11   1  -0.1314  1.3490 -0.2338  11.00000  0.05    0.22
Q12   1   0.4386  0.4299  0.2440  11.00000  0.05    0.21
Q13   1   0.1676  1.1345 -0.0731  11.00000  0.05    0.21
Q14   1   0.2073  1.2356 -0.1234  11.00000  0.05    0.21
Q15   1   0.2179  1.5849 -0.1275  11.00000  0.05    0.20
Q16   1   0.4069  0.5311  0.1781  11.00000  0.05    0.20
Q17   1   0.6976 -0.5895  0.3950  11.00000  0.05    0.20
Q18   1   0.4448  0.7172  0.2346  11.00000  0.05    0.20
Q19   1   0.4652  0.2236  0.3062  11.00000  0.05    0.19
Q20   1   0.3388  0.9154  0.0750  11.00000  0.05    0.19

REM The information below was added by Olex2.
REM
REM R1 = 0.0214 for 3196 Fo > 4sig(Fo) and 0.0266 for all 13714 data
REM n/a parameters refined using n/a restraints
REM Highest difference peak 0.29, deepest hole -0.26
REM Mean Shift 0, Max Shift 0.

REM +++ Tabular Listing of Refinement Information +++
REM R1_all = 0.0266
REM R1_gt = 0.0214
REM wR_ref = 0.0399
REM GOOF = 0.899
REM Shift_max = 0
REM Shift_mean = 0
REM Reflections_all = 13714
REM Reflections_gt = 3196
REM Parameters = n/a
REM Hole = 0.29
REM Peak = -0.26
REM Flack = n/a

;
_shelx_space_group_comment
;
The symmetry employed for this shelxl refinement is uniquely defined
by the following loop, which should always be used as a source of
symmetry information in preference to the above space-group names.
They are only intended as comments.
;
_shelxl_version_number           2013-2
loop_
_space_group_symop_operation_xyz
'x, y, z'
'-x, y+1/2, -z'
loop_
_atom_site_label
_atom_site_type_symbol
_atom_site_fract_x
_atom_site_fract_y
_atom_site_fract_z
_atom_site_U_iso_or_equiv
_atom_site_adp_type
_atom_site_occupancy
_atom_site_site_symmetry_order
_atom_site_calc_flag
_atom_site_refinement_flags_posn
_atom_site_refinement_flags_adp
Br1 Br 0.74500(3) -0.26475(6) 0.48309(2) 0.01905(8) Uani 1 1 d . .
Cl1 Cl 0.14273(7) 1.32242(13) 0.03957(5) 0.01705(17) Uani 1 1 d . .
Cl2 Cl -0.17473(8) 1.40653(18) -0.30074(5) 0.0270(2) Uani 1 1 d . .
O1 O 0.33626(19) 0.8685(4) 0.10969(12) 0.0140(4) Uani 1 1 d . .
O2 O 0.52077(19) 0.6231(4) 0.11576(12) 0.0161(4) Uani 1 1 d . .
O3 O 0.2425(2) 1.3893(4) -0.12393(14) 0.0188(5) Uani 1 1 d . .
H3 H 0.3208 1.3446 -0.1184 0.028 Uiso 1 1 calc R U
N1 N 0.4148(2) 0.5761(5) 0.22013(14) 0.0130(5) Uani 1 1 d . .
H1 H 0.3460 0.6382 0.2339 0.016 Uiso 1 1 calc R U
C2 C 0.4937(3) 0.3754(6) 0.27776(18) 0.0124(6) Uani 1 1 d . .
C1 C 0.0248(3) 1.0879(7) -0.3218(2) 0.0234(8) Uani 1 1 d . .
H1A H -0.0326 0.9249 -0.3257 0.035 Uiso 1 1 calc R U
H1B H 0.1171 1.0287 -0.2997 0.035 Uiso 1 1 calc R U
H1C H 0.0075 1.1720 -0.3802 0.035 Uiso 1 1 calc R U
C3 C -0.0024(3) 1.3006(6) -0.25963(18) 0.0180(7) Uani 1 1 d . .
H3A H 0.0535 1.4693 -0.2591 0.022 Uiso 1 1 calc R U
C4 C 0.0233(3) 1.2036(7) -0.16514(16) 0.0183(6) Uani 1 1 d . .
H4A H -0.0283 1.0311 -0.1650 0.022 Uiso 1 1 calc R U
H4B H -0.0080 1.3496 -0.1322 0.022 Uiso 1 1 calc R U
C5 C 0.1692(3) 1.1441(6) -0.11777(18) 0.0144(6) Uani 1 1 d . .
H5 H 0.1981 0.9882 -0.1495 0.017 Uiso 1 1 calc R U
C6 C 0.1911(3) 1.0526(6) -0.02292(18) 0.0133(6) Uani 1 1 d . .
H6 H 0.1344 0.8849 -0.0239 0.016 Uiso 1 1 calc R U
C7 C 0.3323(3) 0.9702(6) 0.02353(18) 0.0148(6) Uani 1 1 d . .
H7A H 0.3610 0.8217 -0.0099 0.018 Uiso 1 1 calc R U
H7B H 0.3913 1.1340 0.0291 0.018 Uiso 1 1 calc R U
C8 C 0.4324(3) 0.6838(6) 0.14631(17) 0.0129(6) Uani 1 1 d . .
C9 C 0.4559(3) 0.2995(6) 0.35091(17) 0.0136(7) Uani 1 1 d . .
H9 H 0.3796 0.3808 0.3596 0.016 Uiso 1 1 calc R U
C10 C 0.5291(3) 0.1065(6) 0.41077(18) 0.0157(6) Uani 1 1 d . .
H10 H 0.5031 0.0551 0.4605 0.019 Uiso 1 1 calc R U
C11 C 0.6406(3) -0.0120(6) 0.39814(18) 0.0147(6) Uani 1 1 d . .
C12 C 0.6035(2) 0.2482(7) 0.26415(16) 0.0158(6) Uani 1 1 d . .
H12 H 0.6281 0.2933 0.2134 0.019 Uiso 1 1 calc R U
C13 C 0.6770(3) 0.0554(6) 0.32496(19) 0.0162(7) Uani 1 1 d . .
H13 H 0.7523 -0.0299 0.3160 0.019 Uiso 1 1 calc R U
loop_
_atom_site_aniso_label
_atom_site_aniso_U_11
_atom_site_aniso_U_22
_atom_site_aniso_U_33
_atom_site_aniso_U_23
_atom_site_aniso_U_13
_atom_site_aniso_U_12
Br1 0.01793(14) 0.02017(14) 0.01742(13) 0.00550(16) 0.00304(10) 0.00304(14)
Cl1 0.0159(4) 0.0160(4) 0.0201(4) -0.0011(3) 0.0068(3) 0.0033(3)
Cl2 0.0134(4) 0.0361(5) 0.0293(5) 0.0162(4) 0.0032(3) 0.0031(3)
O1 0.0130(11) 0.0168(10) 0.0126(10) 0.0046(8) 0.0046(8) 0.0044(8)
O2 0.0128(11) 0.0218(11) 0.0162(11) 0.0036(8) 0.0082(8) 0.0043(8)
O3 0.0129(11) 0.0197(11) 0.0249(12) 0.0071(9) 0.0073(9) 0.0003(8)
N1 0.0104(13) 0.0171(13) 0.0137(13) 0.0025(10) 0.0067(9) 0.0045(10)
C2 0.0112(15) 0.0127(15) 0.0113(15) 0.0013(11) 0.0004(11) -0.0012(11)
C1 0.0239(19) 0.0241(18) 0.0194(17) 0.0029(14) 0.0024(14) -0.0038(14)
C3 0.0090(15) 0.023(2) 0.0214(16) 0.0055(12) 0.0031(11) -0.0008(11)
C4 0.0152(15) 0.0218(17) 0.0188(14) 0.0068(15) 0.0067(11) 0.0021(13)
C5 0.0133(16) 0.0158(15) 0.0157(15) 0.0027(11) 0.0067(12) 0.0000(11)
C6 0.0121(15) 0.0118(14) 0.0169(16) -0.0014(12) 0.0055(12) 0.0002(11)
C7 0.0131(16) 0.0170(16) 0.0156(15) 0.0038(12) 0.0064(12) 0.0021(11)
C8 0.0128(15) 0.0129(18) 0.0118(14) -0.0016(12) 0.0021(10) -0.0007(11)
C9 0.0122(15) 0.0152(18) 0.0147(14) -0.0001(11) 0.0059(11) -0.0006(11)
C10 0.0172(16) 0.0180(15) 0.0132(15) -0.0014(12) 0.0068(12) -0.0032(12)
C11 0.0134(16) 0.0130(15) 0.0151(15) 0.0005(12) 0.0005(12) -0.0005(11)
C12 0.0174(14) 0.0183(14) 0.0143(13) 0.0042(16) 0.0086(10) 0.0003(15)
C13 0.0142(16) 0.0171(16) 0.0188(17) 0.0001(13) 0.0073(12) 0.0038(12)
loop_
_atom_type_symbol
_atom_type_description
_atom_type_scat_dispersion_real
_atom_type_scat_dispersion_imag
_atom_type_scat_source
C C 0.0033 0.0016 'International Tables Vol C Tables 4.2.6.8 and 6.1.1.4'
H H 0.0000 0.0000 'International Tables Vol C Tables 4.2.6.8 and 6.1.1.4'
N N 0.0061 0.0033 'International Tables Vol C Tables 4.2.6.8 and 6.1.1.4'
O O 0.0106 0.0060 'International Tables Vol C Tables 4.2.6.8 and 6.1.1.4'
Cl Cl 0.1484 0.1585 'International Tables Vol C Tables 4.2.6.8 and 6.1.1.4'
Br Br -0.2901 2.4595 'International Tables Vol C Tables 4.2.6.8 and 6.1.1.4'
loop_
_geom_angle_atom_site_label_1
_geom_angle_atom_site_label_2
_geom_angle_atom_site_label_3
_geom_angle
C8 O1 C7 115.4(2)
C5 O3 H3 109.5
C2 N1 H1 116.2
C8 N1 H1 116.2
C8 N1 C2 127.7(3)
C9 C2 N1 116.9(3)
C12 C2 N1 123.7(3)
C12 C2 C9 119.4(3)
H1A C1 H1B 109.5
H1A C1 H1C 109.5
H1B C1 H1C 109.5
C3 C1 H1A 109.5
C3 C1 H1B 109.5
C3 C1 H1C 109.5
Cl2 C3 H3A 108.2
C1 C3 Cl2 109.1(2)
C1 C3 H3A 108.2
C1 C3 C4 115.8(2)
C4 C3 Cl2 107.15(19)
C4 C3 H3A 108.2
C3 C4 H4A 109.0
C3 C4 H4B 109.0
C3 C4 C5 113.0(2)
H4A C4 H4B 107.8
C5 C4 H4A 109.0
C5 C4 H4B 109.0
O3 C5 C4 108.0(2)
O3 C5 H5 108.2
O3 C5 C6 112.6(2)
C4 C5 H5 108.2
C6 C5 C4 111.4(2)
C6 C5 H5 108.2
Cl1 C6 H6 107.8
C5 C6 Cl1 111.33(19)
C5 C6 H6 107.8
C7 C6 Cl1 109.08(19)
C7 C6 C5 112.8(2)
C7 C6 H6 107.8
O1 C7 C6 106.6(2)
O1 C7 H7A 110.4
O1 C7 H7B 110.4
C6 C7 H7A 110.4
C6 C7 H7B 110.4
H7A C7 H7B 108.6
O1 C8 N1 109.7(2)
O2 C8 O1 124.2(3)
O2 C8 N1 126.1(3)
C2 C9 H9 119.9
C10 C9 C2 120.3(3)
C10 C9 H9 119.9
C9 C10 H10 120.1
C9 C10 C11 119.9(3)
C11 C10 H10 120.1
C10 C11 Br1 119.7(2)
C13 C11 Br1 119.9(2)
C13 C11 C10 120.4(3)
C2 C12 H12 120.0
C13 C12 C2 119.9(3)
C13 C12 H12 120.0
C11 C13 C12 120.1(3)
C11 C13 H13 120.0
C12 C13 H13 120.0
loop_
_geom_bond_atom_site_label_1
_geom_bond_atom_site_label_2
_geom_bond_distance
Br1 C11 1.898(3)
Cl1 C6 1.799(3)
Cl2 C3 1.823(3)
O1 C7 1.447(3)
O1 C8 1.342(3)
O2 C8 1.222(3)
O3 H3 0.8400
O3 C5 1.428(3)
N1 H1 0.8800
N1 C2 1.412(3)
N1 C8 1.351(3)
C2 C9 1.395(4)
C2 C12 1.394(4)
C1 H1A 0.9800
C1 H1B 0.9800
C1 H1C 0.9800
C1 C3 1.508(4)
C3 H3A 1.0000
C3 C4 1.520(4)
C4 H4A 0.9900
C4 H4B 0.9900
C4 C5 1.533(4)
C5 H5 1.0000
C5 C6 1.523(4)
C6 H6 1.0000
C6 C7 1.511(4)
C7 H7A 0.9900
C7 H7B 0.9900
C9 H9 0.9500
C9 C10 1.382(4)
C10 H10 0.9500
C10 C11 1.387(4)
C11 C13 1.377(4)
C12 H12 0.9500
C12 C13 1.391(4)
C13 H13 0.9500
loop_
_geom_torsion_atom_site_label_1
_geom_torsion_atom_site_label_2
_geom_torsion_atom_site_label_3
_geom_torsion_atom_site_label_4
_geom_torsion
Br1 C11 C13 C12 -177.7(2)
Cl1 C6 C7 O1 60.1(2)
Cl2 C3 C4 C5 -172.4(2)
O3 C5 C6 Cl1 60.0(3)
O3 C5 C6 C7 -63.0(3)
N1 C2 C9 C10 -179.3(2)
N1 C2 C12 C13 179.1(3)
C2 N1 C8 O1 179.9(2)
C2 N1 C8 O2 0.7(5)
C2 C9 C10 C11 0.1(4)
C2 C12 C13 C11 0.6(4)
C1 C3 C4 C5 65.6(4)
C3 C4 C5 O3 54.9(3)
C3 C4 C5 C6 179.0(2)
C4 C5 C6 Cl1 -61.5(3)
C4 C5 C6 C7 175.5(2)
C5 C6 C7 O1 -175.7(2)
C7 O1 C8 O2 7.6(4)
C7 O1 C8 N1 -171.6(2)
C8 O1 C7 C6 153.4(2)
C8 N1 C2 C9 179.1(2)
C8 N1 C2 C12 -2.3(4)
C9 C2 C12 C13 -2.4(4)
C9 C10 C11 Br1 177.3(2)
C9 C10 C11 C13 -1.8(4)
C10 C11 C13 C12 1.5(4)
C12 C2 C9 C10 2.0(4)
loop_
_refln_index_h
_refln_index_k
_refln_index_l
_refln_F_squared_meas
_refln_F_squared_sigma
0 1 0 0.11 0.36
0 1 0 0.06 0.43
0 1 0 0.26 0.43
0 1 0 -0.39 0.43
0 -1 0 0.2 0.42
0 -1 0 0.09 0.43
0 -1 0 0.07 0.42
0 -1 0 -0.16 0.43
0 2 0 105.66 5.76
0 2 0 107.46 5.64
0 2 0 105.3 5.58
0 2 0 105.8 5.61
0 -2 0 92.49 5.74
0 -2 0 97.79 5.6
0 -2 0 97.23 5.9
0 -2 0 93.06 5.64
0 -2 0 94 5.54
0 3 0 -0.2 0.69
0 3 0 0.07 0.79
0 3 0 -0.15 0.77
0 3 0 0.13 0.71
0 -3 0 0.35 0.76
0 -3 0 0.2 0.76
0 -3 0 -0.26 0.7
0 -3 0 -0.66 0.76
0 -3 0 0.34 0.61
0 4 0 3.47 1.17
0 4 0 3.94 1.14
0 -4 0 0.45 1
0 -4 0 0.18 1.01
0 -4 0 0.41 1.05
0 5 0 1.22 1.25
0 5 0 0.23 1.32
0 -5 0 -1.25 1.22
0 6 0 10.96 1.84
0 -6 0 10.15 1.98
1 -6 0 -1 1.52
-1 6 0 1.3 1.4
-1 6 0 0.89 1.61
1 -5 0 3.98 1.49
1 -5 0 4.97 1.48
-1 5 0 6.03 1.38
-1 5 0 7.37 1.63
1 -4 0 -0.35 1.01
1 -4 0 0.5 1.01
-1 4 0 1.33 1.05
-1 4 0 0.26 0.98
1 -3 0 99.48 5.83
1 -3 0 102.09 6
1 -3 0 97.78 6.12
1 -3 0 97.85 5.83
-1 3 0 99.16 5.95
-1 3 0 103.91 5.8
-1 3 0 105.86 5.82
-1 3 0 103.19 5.84
1 -2 0 24.33 1.71
1 -2 0 24.66 1.78
1 -2 0 24.34 1.82
1 -2 0 25.35 1.78
-1 2 0 23.72 1.76
-1 2 0 24.77 1.69
-1 2 0 24.09 1.71
-1 2 0 23.54 1.79
-1 2 0 23.12 1.77
1 -1 0 190.79 10.26
1 -1 0 180.24 9.94
1 -1 0 187.21 10.52
1 -1 0 188.79 10.09
1 -1 0 188.12 10.25
-1 1 0 195.17 10.09
-1 1 0 181.1 9.94
-1 1 0 187.51 10.96
-1 1 0 181.44 10.24
-1 1 0 175.99 9.93
-1 0 0 26.08 1.61
1 1 0 185.1 10.19
1 1 0 175.76 9.88
1 1 0 183.71 10.04
1 1 0 187.58 10.46
-1 -1 0 184.95 9.89
-1 -1 0 177.74 10.18
-1 -1 0 193.56 10.46
-1 -1 0 187.74 9.88
-1 -1 0 181.95 10.03
1 2 0 24.43 1.82
1 2 0 23.32 1.75
1 2 0 23.04 1.8
1 2 0 23.12 1.83
-1 -2 0 24.69 1.79
-1 -2 0 23.02 1.79
-1 -2 0 23.27 1.7
-1 -2 0 23.87 1.71
-1 -2 0 24.48 1.77
1 3 0 104.51 5.7
1 3 0 100.6 5.67
1 3 0 101.36 5.83
-1 -3 0 95.92 5.95
-1 -3 0 96.41 5.8
-1 -3 0 91.83 5.64
-1 -3 0 95.37 5.61
-1 -3 0 98.57 5.69
1 4 0 0.64 1.07
1 4 0 -0.03 1.1
1 4 0 -0.63 0.93
1 4 0 -0.35 0.99
-1 -4 0 0.65 1.02
-1 -4 0 -0.25 0.99
-1 -4 0 0.75 0.99
1 5 0 6.32 1.58
1 5 0 8.4 1.6
-1 -5 0 2.93 1.38
1 6 0 0.72 1.52
-1 -6 0 0.85 1.48
2 -6 0 18.69 2.29
-2 6 0 14.22 1.92
-2 6 0 15.18 2.3
2 -5 0 5.9 1.56
2 -5 0 6.95 1.57
-2 5 0 7.16 1.32
-2 5 0 7.11 1.65
2 -4 0 42.41 3.04
2 -4 0 40.12 2.87
-2 4 0 39.9 2.73
-2 4 0 38.32 2.95
2 -3 0 10.23 1.26
2 -3 0 9.64 1.23
2 -3 0 12.49 1.35
2 -3 0 10.81 1.39
-2 3 0 10.06 1.19
-2 3 0 11.21 1.25
-2 3 0 9.54 1.2
-2 3 0 11.36 1.46
-2 2 0 71.16 4.16
-2 2 0 74.68 4.09
-2 2 0 73.01 4.17
-2 2 0 71.89 4.49
-2 2 0 71.04 4.23
2 -1 0 129.35 7.33
2 -1 0 135.74 7.34
2 -1 0 129.68 7.52
-2 1 0 134 7.91
-2 1 0 132.25 7.11
-2 1 0 134.04 7.1
-2 1 0 132.11 7.12
-2 1 0 128.74 7.09
-2 0 0 80.39 4.86
2 1 0 136.05 7.64
2 1 0 125.11 7.22
2 1 0 139.26 7.32
2 1 0 132.14 7.44
2 1 0 133.3 7.45
-2 -1 0 132.93 7.44
-2 -1 0 134.55 7.24
-2 -1 0 135.3 7.22
-2 -1 0 132.52 7.28
-2 -2 0 49.65 2.99
-2 -2 0 47.58 3.03
-2 -2 0 50.45 2.99
2 3 0 10.67 1.43
2 3 0 11.3 1.29
2 3 0 10.64 1.19
-2 -3 0 11.2 1.43
-2 -3 0 9.46 1.2
-2 -3 0 9.49 1.25
-2 -3 0 10.28 1.32
2 4 0 40.25 3.05
2 4 0 36.82 2.91
2 4 0 37.39 2.82
2 4 0 37.03 2.83
-2 -4 0 40.57 2.77
-2 -4 0 40.9 2.92
2 5 0 5.14 1.54
-2 -5 0 6.44 1.47
-2 -5 0 6.53 1.56
2 6 0 10.54 2.02
-2 -6 0 16.84 2.16
3 -6 0 1.6 1.64
-3 6 0 -0.34 1.55
3 -5 0 36.15 2.95
3 -5 0 38.76 3.13
-3 5 0 34.36 3.06
-3 5 0 34.43 2.49
3 -4 0 24.14 2.13
3 -4 0 23.38 2.26
-3 4 0 26.37 2.38
-3 4 0 26.27 2.3
-3 4 0 24.98 1.86
3 -3 0 43.58 2.81
3 -3 0 41.11 2.86
3 -3 0 43.25 2.69
-3 3 0 38.36 2.75
-3 3 0 39.37 2.75
3 -2 0 7.93 1.06
3 -2 0 7.83 0.9
3 -2 0 8.23 0.88
3 -2 0 7.61 1.03
3 -2 0 7.87 0.96
-3 2 0 7.33 0.83
-3 2 0 6.54 0.93
-3 2 0 7.78 0.9
-3 2 0 6.92 0.77
3 -1 0 151.54 8.33
3 -1 0 165.51 8.34
3 -1 0 155.49 8.55
-3 1 0 145.58 8.08
-3 1 0 147.31 8.06
-3 1 0 147.28 8.05
-3 1 0 144.23 9.04
-3 1 0 146.18 8.08
-3 0 0 32 2.21
3 1 0 146.99 8.4
3 1 0 142.87 8.39
3 1 0 154.88 8.24
3 1 0 149.91 8.62
-3 -1 0 151.22 8.15
-3 -1 0 160.86 8.15
-3 -1 0 149.47 8.15
3 2 0 7.23 0.99
3 2 0 7.41 0.87
3 2 0 6.97 0.92
3 2 0 7.25 0.95
-3 -2 0 7.89 0.94
-3 -2 0 8.11 0.9
-3 -2 0 7.82 1
-3 -2 0 8.52 0.96
3 3 0 42.54 2.88
3 3 0 40.99 2.93
3 3 0 41.36 2.82
-3 -3 0 43.92 2.81
-3 -3 0 41.45 2.85
-3 -3 0 43.34 2.88
-3 -3 0 42.97 2.72
3 4 0 24.9 2.22
3 4 0 26.2 2.45
-3 -4 0 24.9 2.09
-3 -4 0 24.12 2.26
3 5 0 34.84 2.96
3 5 0 34.28 2.94
-3 -5 0 35.26 3.05
-3 -5 0 35.15 2.78
3 6 0 0.31 1.69
-3 -6 0 1.46 1.41
4 -5 0 8.73 1.65
-4 5 0 6.44 1.63
4 -4 0 23.87 2.2
4 -4 0 23.72 2.19
-4 4 0 17.88 2.1
-4 4 0 21.51 2.25
4 -3 0 11.32 1.39
4 -3 0 12.25 1.33
4 -3 0 12.3 1.41
-4 3 0 11.65 1.43
-4 3 0 11.17 1.23
4 -2 0 104.76 5.62
4 -2 0 102.51 5.61
4 -2 0 102.82 5.76
4 -2 0 103.21 5.44
-4 2 0 94.65 5.43
-4 2 0 92.48 6.08
-4 2 0 92.54 5.43
-4 2 0 91.17 5.39
-4 2 0 90.74 5.41
4 -1 0 1.14 0.42
4 -1 0 1.47 0.47
4 -1 0 1.02 0.42
-4 1 0 2.1 0.46
-4 1 0 1.66 0.42
-4 0 0 88.11 5.48
4 1 0 2.31 0.53
4 1 0 1.54 0.58
4 1 0 1.69 0.53
-4 -1 0 0.9 0.44
-4 -1 0 0.42 0.48
-4 -1 0 1.78 0.52
4 2 0 90.25 5.34
4 2 0 90.98 5.63
4 2 0 94.18 5.5
4 2 0 87.68 5.48
4 2 0 93.5 5.37
-4 -2 0 99.49 5.33
-4 -2 0 99.06 5.48
-4 -2 0 98.55 5.35
4 3 0 10.43 1.4
4 3 0 11.94 1.46
-4 -3 0 12.41 1.55
-4 -3 0 12.41 1.43
-4 -3 0 12.89 1.32
4 4 0 20.89 2.34
4 4 0 20.45 2.16
-4 -4 0 24 2.25
-4 -4 0 24.06 2.17
-4 -4 0 25.29 2.03
4 5 0 9.34 1.73
4 5 0 8.4 1.77
-4 -5 0 9.97 1.8
-4 -5 0 9.06 1.52
5 -5 0 47.63 3.65
-5 5 0 47.73 3.58
5 -4 0 0.33 1.09
5 -4 0 -0.49 1
-5 4 0 0.04 1.05
-5 4 0 1.12 0.97
5 -3 0 11.34 1.43
5 -3 0 12.25 1.42
-5 3 0 10.58 1.25
-5 3 0 11.21 1.44
5 -2 0 0.78 0.58
5 -2 0 0.6 0.62
5 -2 0 1.17 0.56
-5 2 0 1.49 0.49
-5 2 0 1.9 0.63
-5 2 0 0.94 0.54
-5 2 0 1.04 0.52
5 -1 0 114.99 6.87
-5 1 0 133.74 7.68
5 1 0 133.27 7.37
5 1 0 134.59 7.19
5 1 0 131.96 7.18
-5 -1 0 121.59 6.93
-5 -1 0 117.43 6.95
5 2 0 0.74 0.74
5 2 0 1.35 0.67
5 2 0 1.21 0.73
5 2 0 1.47 0.66
-5 -2 0 1.3 0.61
-5 -2 0 0.99 0.67
5 3 0 11.31 1.46
5 3 0 11.25 1.51
-5 -3 0 12.24 1.58
-5 -3 0 12.15 1.5
5 4 0 0.26 1.11
5 4 0 1.14 1.15
-5 -4 0 -0.41 0.82
-5 -4 0 0.19 1
-5 -4 0 -0.05 1.11
5 5 0 46.04 3.53
5 5 0 40.99 3.51
5 5 0 45.9 3.81
-5 -5 0 49.95 3.17
-5 -5 0 49.69 3.63
6 -5 0 0.58 1.31
-6 5 0 0.65 1.19
-6 5 0 0.76 1.33
6 -4 0 56.68 3.8
6 -4 0 49.86 3.86
-6 4 0 56.86 3.72
-6 4 0 55.01 3.62
6 -3 0 14.74 1.61
6 -3 0 15.02 1.64
-6 3 0 16.25 1.6
-6 3 0 16.67 1.61
6 -2 0 92.89 5.26
6 -2 0 94.67 5.42
6 -2 0 94.72 5.27
-6 2 0 85.4 5.07
-6 2 0 89.93 5.08
-6 2 0 89.88 5.1
-6 2 0 89.01 5.1
6 -1 0 27.93 1.74
6 -1 0 28.2 1.78
6 1 0 28.39 1.85
6 1 0 29.31 1.89
6 1 0 28.94 1.86
-6 -1 0 26.13 1.82
-6 -1 0 26.3 1.82
-6 -1 0 27.75 1.75
6 2 0 90.64 5.69
6 2 0 88.94 5.53
-6 -2 0 96.53 5.38
-6 -2 0 100.78 5.38
6 3 0 18.87 1.89
-6 -3 0 15.41 1.78
-6 -3 0 15.1 1.71
6 4 0 54.06 4.02
-6 -4 0 57.98 3.82
-6 -4 0 56 3.84
6 5 0 -0.25 1.5
6 5 0 0.22 1.38
6 5 0 0.92 1.42
-6 -5 0 1.27 1.41
7 -5 0 20.4 2.41
-7 5 0 18.42 2.26
-7 5 0 20.75 2.38
7 -4 0 1.08 1.11
7 -4 0 0.91 1.23
-7 4 0 2.51 1.11
-7 4 0 3.25 1.12
7 -3 0 3.35 1.07
7 -3 0 3.64 0.97
-7 3 0 4.07 0.91
-7 3 0 4.16 1
7 -2 0 28.04 2.06
7 -2 0 28.06 1.97
-7 2 0 28.54 1.93
-7 2 0 28.59 1.93
-7 2 0 29.06 1.9
7 1 0 89.04 4.57
7 1 0 86.3 4.56
7 1 0 87.59 4.68
-7 -1 0 69.75 4.38
-7 -1 0 68.91 4.39
-7 -1 0 69.12 4.35
7 2 0 27.13 2.15
7 2 0 29.07 2.16
-7 -2 0 29.13 2.11
-7 -2 0 27.77 2.02
7 3 0 6.26 1.25
-7 -3 0 3.62 1.08
-7 -3 0 4.62 1.08
7 4 0 0.67 1.23
-7 -4 0 1.65 1.23
-7 -4 0 1.62 1.13
7 5 0 20.56 2.6
-7 -5 0 21.5 2.53
8 -4 0 14.86 1.91
8 -4 0 9.35 1.71
-8 4 0 15.07 1.91
-8 4 0 17.03 1.85
8 -3 0 1.29 1
8 -3 0 2.62 0.95
-8 3 0 3.25 0.94
-8 3 0 3.34 0.91
8 -2 0 65.57 3.99
-8 2 0 68.66 3.88
-8 2 0 66.82 3.84
8 -1 0 7.21 0.79
8 1 0 8.43 1.05
8 1 0 7.35 0.89
-8 -1 0 7.32 0.86
-8 -1 0 7.52 0.96
8 2 0 69.88 4.22
8 2 0 68.69 4.33
-8 -2 0 69.24 4.11
-8 -2 0 64.31 4.03
8 3 0 3.15 1.16
-8 -3 0 2 0.98
-8 -3 0 1.35 1.05
8 4 0 18.61 2.33
-8 -4 0 13.21 1.79
-8 -4 0 14.31 1.89
9 -4 0 1.27 1.3
9 -4 0 4 1.25
-9 4 0 1.66 1.06
-9 4 0 1.9 1.12
9 -3 0 11.43 1.46
-9 3 0 11.08 1.42
-9 3 0 10.24 1.27
9 -2 0 0.63 0.91
9 -2 0 0.84 0.7
-9 2 0 1.29 0.65
9 1 0 127.27 7.46
9 1 0 130.88 7.27
-9 -1 0 124.75 7.01
9 2 0 1.47 0.94
9 2 0 1.14 0.9
-9 -2 0 1.22 0.91
-9 -2 0 1.59 0.79
9 3 0 10.08 1.56
-9 -3 0 9.36 1.38
-9 -3 0 9.38 1.48
9 4 0 1.74 1.4
-9 -4 0 3.78 1.34
-9 -4 0 1.96 1.39
10 -4 0 6.21 1.41
10 -4 0 2.67 1.47
-10 4 0 6.8 1.27
-10 4 0 5.47 1.27
10 -3 0 1.43 1.19
10 -3 0 4.65 1.05
-10 3 0 3.92 0.97
10 -2 0 24.11 2.02
-10 2 0 29.48 1.9
10 1 0 8.84 1.1
10 1 0 8.21 1.04
-10 -1 0 9.62 1.11
10 2 0 28.49 2.28
10 2 0 31.36 2.24
-10 -2 0 22.26 2.03
-10 -2 0 26.28 2.1
10 3 0 5.09 1.38
-10 -3 0 6.03 1.27
-10 -3 0 6.73 1.38
10 4 0 8.82 1.81
-10 -4 0 7.53 1.69
-10 -4 0 8.27 1.63
11 -3 0 20.95 1.96
-11 3 0 22.66 1.86
11 1 0 11.45 1.35
-11 -1 0 11.23 1.28
11 2 0 0.77 1.03
-11 -2 0 0.96 0.89
-11 -2 0 0.61 0.95
11 3 0 21.28 2.31
-11 -3 0 20.78 2.14
-11 -3 0 20.78 2.13
12 1 0 6.68 1.09
-12 -1 0 10.64 1.28
12 2 0 6.71 1.28
-12 -2 0 3.47 1.11
-13 -1 0 14.88 1.52
-12 -2 1 14.06 1.61
12 2 -1 13.49 1.75
-11 -3 1 11.69 1.59
-11 -3 1 11.88 1.56
11 3 -1 8.35 1.57
-11 -2 1 7.85 1.15
-11 -2 1 7.33 1.14
11 2 -1 9.12 1.34
11 2 -1 8.34 1.26
11 1 -1 43.32 2.85
11 -2 -1 7.96 1.1
-11 3 1 7.92 1.06
11 -3 -1 1.8 1.22
-10 -4 1 21.67 2.34
-10 -4 1 20.77 2.4
10 4 -1 24.32 2.64
-10 -3 1 13.31 1.78
-10 -3 1 15.8 1.89
10 3 -1 17.3 2.07
-10 -2 1 59.31 3.33
-10 -2 1 57.81 3.32
10 2 -1 46.15 3.4
10 2 -1 45.24 3.48
-10 -1 1 0.72 0.57
10 1 -1 0.53 0.69
-10 3 1 16.4 1.53
10 -3 -1 14.61 1.63
-10 4 1 22.64 2.09
-10 4 1 22.13 2.06
10 -4 -1 19.35 2.15
-9 -4 1 4.66 1.36
-9 -4 1 3.8 1.43
9 4 -1 3.28 1.4
-9 -3 1 13.82 1.61
-9 -3 1 13.3 1.55
9 3 -1 8.65 1.53
-9 -2 1 8.83 1.19
-9 -2 1 9.27 1.13
9 2 -1 9.52 1.23
9 2 -1 9.99 1.29
9 1 -1 6.45 0.85
9 1 -1 6.08 0.89
9 -2 -1 5.11 0.93
-9 3 1 6.82 1.08
-9 3 1 9.89 1.16
9 -3 -1 7.63 1.3
9 -3 -1 12.19 1.45
-9 4 1 4.43 1.16
-9 4 1 3.08 1.15
9 -4 -1 1.69 1.29
9 -4 -1 2.93 1.2
-8 -5 1 6.5 1.75
8 5 -1 6.65 1.91
-8 -4 1 39.28 3.06
-8 -4 1 39.49 3.06
8 4 -1 39.07 3.26
-8 -3 1 5.76 1.18
-8 -3 1 6.51 1.18
8 3 -1 5.73 1.28
-8 -2 1 64.33 3.7
-8 -2 1 64.78 3.71
8 2 -1 55.99 3.78
8 2 -1 58.17 3.9
-8 -1 1 7.13 0.75
8 1 -1 5.41 0.79
8 1 -1 6.76 0.81
8 1 -1 6.94 0.86
-8 2 1 55.08 3.35
-8 2 1 56.15 3.34
8 -2 -1 62.14 3.61
-8 3 1 6.5 1.06
-8 3 1 5.1 0.98
8 -3 -1 6.97 1.1
8 -3 -1 4.95 1.11
-8 4 1 39.25 2.85
-8 4 1 36.53 2.75
8 -4 -1 36.39 3.04
-8 5 1 3.78 1.39
-7 -5 1 15.9 2.16
7 5 -1 16.52 2.35
-7 -4 1 1.07 1.09
-7 -4 1 0.21 1.17
7 4 -1 0.08 1.21
-7 -3 1 24.16 2.02
-7 -3 1 22.75 2.02
7 3 -1 19.38 2.12
-7 -2 1 77.71 4.33
-7 -2 1 74.58 4.29
7 2 -1 69.07 4.54
7 2 -1 71.95 4.45
-7 -1 1 128.13 6.66
-7 -1 1 126.76 6.67
-7 -1 1 135.26 6.7
7 1 -1 112.37 6.88
7 1 -1 108.61 7.05
-7 1 1 110.44 7.03
-7 2 1 71.52 4.03
-7 2 1 71.04 4.02
-7 2 1 67.84 4.01
-7 2 1 68.83 4.8
7 -2 -1 72.05 4.18
7 -2 -1 73.71 4.3
-7 3 1 18.3 1.87
-7 3 1 17.29 1.79
7 -3 -1 24.94 1.9
7 -3 -1 22.61 1.86
-7 4 1 0.51 0.97
-7 4 1 0.76 1.07
7 -4 -1 -0.08 1.05
7 -4 -1 0.64 1.18
-7 5 1 14.54 1.92
7 -5 -1 14.7 2.03
-6 -5 1 10.41 1.84
6 5 -1 6.61 1.65
6 5 -1 5.87 1.67
-6 -4 1 11.05 1.67
-6 -4 1 10.12 1.52
6 4 -1 11.56 1.77
-6 -3 1 3.81 0.99
-6 -3 1 5.15 1.08
6 3 -1 4.93 1.16
-6 -2 1 45.4 2.91
-6 -2 1 46.92 2.89
6 2 -1 46.33 3.08
6 2 -1 47.06 3
-6 -1 1 5.76 0.66
-6 -1 1 6.3 0.64
-6 -1 1 5.58 0.68
6 1 -1 5.46 0.7
6 1 -1 6.24 0.74
6 1 -1 5.91 0.71
-6 0 1 77.84 5.03
-6 1 1 6.86 1.04
-6 2 1 47.87 3.38
-6 2 1 47.13 2.81
-6 2 1 46.62 2.78
-6 2 1 44.7 2.8
-6 2 1 45.17 2.75
6 -2 -1 45.05 2.87
6 -2 -1 48.96 2.89
6 -2 -1 47.19 2.95
-6 3 1 3.92 0.93
-6 3 1 3.62 0.91
6 -3 -1 4.28 1
6 -3 -1 4.58 0.97
-6 4 1 11.56 1.56
-6 4 1 13.57 1.56
6 -4 -1 10.88 1.62
6 -4 -1 11.16 1.59
-6 5 1 10.18 1.71
6 -5 -1 8.41 1.69
-5 -5 1 4.78 1.17
-5 -5 1 6.84 1.67
5 5 -1 3.97 1.55
5 5 -1 7.74 1.59
-5 -4 1 8.6 1.14
-5 -4 1 8.32 1.48
-5 -4 1 8.9 1.42
5 4 -1 9.99 1.64
5 4 -1 7.13 1.4
-5 -3 1 126.73 7.2
-5 -3 1 122.28 7.2
5 3 -1 130.93 7.26
5 3 -1 126.85 7.43
-5 -2 1 45.8 2.76
-5 -2 1 42.92 2.75
5 2 -1 43.52 2.84
5 2 -1 45.52 2.83
5 2 -1 42.84 2.92
5 2 -1 43.91 2.73
-5 -1 1 63.24 3.37
-5 -1 1 60.19 3.32
-5 -1 1 63.74 3.37
5 1 -1 55.92 3.45
5 1 -1 55.61 3.45
5 1 -1 55.9 3.53
-5 0 1 15.36 1.54
-5 1 1 53.63 3.6
-5 2 1 43.02 2.69
-5 2 1 41.85 3.13
-5 2 1 45.91 2.73
-5 2 1 43.24 2.63
-5 2 1 43.42 2.67
5 -2 -1 46.16 2.76
5 -2 -1 45.89 2.77
5 -2 -1 45.11 2.82
-5 3 1 130.32 7.22
-5 3 1 131.84 7.23
-5 3 1 131.51 8.04
5 -3 -1 121.79 7.64
5 -3 -1 126.03 7.45
-5 4 1 7.31 1.39
-5 4 1 10.34 1.37
5 -4 -1 7.28 1.44
5 -4 -1 9.05 1.44
-5 5 1 7.44 1.59
5 -5 -1 5.56 1.57
-4 -5 1 -0.65 1.06
-4 -5 1 0.61 1.38
4 5 -1 -0.38 1.25
-4 -4 1 14.46 1.69
-4 -4 1 13.57 1.77
-4 -4 1 14.22 1.85
4 4 -1 17.35 2.06
4 4 -1 19.6 1.94
-4 -3 1 27.06 1.95
-4 -3 1 28.26 2.11
-4 -3 1 26.12 2.15
4 3 -1 26.99 2.09
4 3 -1 26.85 2.23
-4 -2 1 93.22 5.85
-4 -2 1 99 5.74
-4 -2 1 99.03 5.71
4 2 -1 102.07 5.73
4 2 -1 106.68 5.78
4 2 -1 103.65 5.89
4 2 -1 106.24 6.07
4 2 -1 104.12 5.92
-4 -1 1 17.51 1.48
-4 -1 1 15.77 1.21
-4 -1 1 16.16 1.29
-4 -1 1 17.43 1.31
4 1 -1 17.65 1.3
4 1 -1 17.56 1.32
4 1 -1 17.11 1.31
-4 0 1 482.97 28.48
-4 1 1 14.37 1.52
-4 1 1 17.58 1.17
4 -1 -1 16.28 1.15
4 -1 -1 18.01 1.17
-4 2 1 103.66 5.56
-4 2 1 104.7 5.58
-4 2 1 104.57 5.55
-4 2 1 106.28 5.59
-4 2 1 104.59 6.25
4 -2 -1 96.73 5.57
4 -2 -1 90.42 5.86
4 -2 -1 97.27 5.75
4 -2 -1 92.44 5.72
-4 3 1 25.85 2.11
-4 3 1 27.22 2.21
-4 3 1 29.03 2.1
4 -3 -1 27.38 1.97
4 -3 -1 27.33 2.13
4 -3 -1 27.15 2.15
-4 4 1 19.57 1.98
-4 4 1 20.59 2.05
4 -4 -1 13.46 1.73
4 -4 -1 12.54 1.77
-4 5 1 1.29 1.31
4 -5 -1 2.49 1.39
-3 -6 1 3.42 1.44
3 6 -1 2.91 1.77
-3 -5 1 4.7 1.32
-3 -5 1 4.53 1.52
3 5 -1 10.75 1.74
3 5 -1 8.03 1.55
-3 -4 1 4.86 1.12
-3 -4 1 4.21 1.21
3 4 -1 3.58 1.21
3 4 -1 4.33 1.17
-3 -3 1 125.89 7.2
-3 -3 1 122.73 7.2
-3 -3 1 120.23 7.4
-3 -3 1 128.47 7.27
3 3 -1 136.13 7.47
3 3 -1 134.24 7.26
3 3 -1 126.81 7.27
-3 -2 1 17.17 1.43
-3 -2 1 17.62 1.33
-3 -2 1 18.71 1.47
-3 -2 1 16.66 1.49
3 2 -1 16.8 1.54
3 2 -1 17.06 1.44
3 2 -1 14.79 1.45
3 2 -1 15.46 1.45
-3 -1 1 166.86 9.1
-3 -1 1 165.29 9.1
-3 -1 1 169.1 10.05
-3 -1 1 166.63 9.09
3 1 -1 171.58 9.38
3 1 -1 170.75 9.39
3 1 -1 171.26 9.21
3 1 -1 171.78 9.63
-3 0 1 1.19 0.52
-3 1 1 172.4 10.2
-3 1 1 166.64 9.11
-3 1 1 173.07 9.09
-3 1 1 168.43 9.11
-3 1 1 173.11 9.09
3 -1 -1 170.59 9.39
3 -1 -1 167.12 9.64
-3 2 1 16.22 1.35
-3 2 1 17.1 1.5
-3 2 1 16.95 1.44
-3 2 1 15.84 1.45
3 -2 -1 17.92 1.39
3 -2 -1 15.45 1.38
3 -2 -1 16.48 1.39
3 -2 -1 17.08 1.32
3 -2 -1 17.15 1.49
-3 3 1 134.43 7.23
-3 3 1 130.63 7.22
-3 3 1 129.11 7.85
-3 3 1 133.88 7.08
3 -3 -1 120.67 7.62
3 -3 -1 123.01 7.24
3 -3 -1 124.59 7.43
-3 4 1 5.16 0.91
-3 4 1 4.93 1.24
3 -4 -1 3.64 1.18
3 -4 -1 5.2 1.15
-3 5 1 7.87 1.65
-3 5 1 8.81 1.15
3 -5 -1 3.78 1.57
3 -5 -1 4.71 1.55
-3 6 1 0.38 1.56
3 -6 -1 4.62 1.77
-2 -6 1 14.9 2.08
2 6 -1 15.33 2.28
-2 -5 1 10.73 1.64
-2 -5 1 9.08 1.67
2 5 -1 10.68 1.75
2 5 -1 8.21 1.6
-2 -4 1 69.8 4.19
-2 -4 1 68.94 4.3
2 4 -1 63.38 4.24
2 4 -1 63.63 4.35
2 4 -1 65.01 4.2
-2 -3 1 0.67 0.76
-2 -3 1 -0.31 0.79
-2 -3 1 1.73 0.72
-2 -3 1 2.14 0.81
2 3 -1 1.32 0.81
2 3 -1 0.8 0.86
2 3 -1 0.93 0.8
2 3 -1 0.96 0.82
-2 -2 1 90.9 5.52
-2 -2 1 97.63 5.56
-2 -2 1 97.22 5.69
-2 -2 1 99.64 5.52
2 2 -1 98.45 5.84
2 2 -1 100.3 5.72
2 2 -1 99.77 5.54
2 2 -1 104 5.61
-2 -1 1 70.38 4.1
-2 -1 1 74.23 4.44
-2 -1 1 75.58 4.1
-2 -1 1 76.62 4.11
-2 -1 1 73.29 4.22
2 1 -1 76.61 4.35
2 1 -1 75.18 4.24
2 1 -1 73.56 4.15
2 1 -1 73.07 4.12
2 1 -1 73.07 4.24
-2 0 1 89.31 5.38
-2 1 1 71.02 4.01
-2 1 1 71.59 4.01
-2 1 1 71.95 3.98
-2 1 1 73.93 4.48
-2 1 1 76.76 4
2 -1 -1 75.12 4.23
2 -1 -1 68.31 4.11
2 -1 -1 73.66 4.12
-2 2 1 101.92 6.05
-2 2 1 98.53 5.53
-2 2 1 101.78 5.56
-2 2 1 100.06 5.52
-2 2 1 101.12 5.69
2 -2 -1 95.29 5.53
2 -2 -1 97.82 5.85
2 -2 -1 98.77 5.58
2 -2 -1 96.46 5.71
-2 3 1 0.79 0.67
-2 3 1 1.7 0.7
-2 3 1 0.24 0.73
-2 3 1 0.9 0.77
2 -3 -1 0.85 0.73
2 -3 -1 1.7 0.83
2 -3 -1 1.49 0.82
2 -3 -1 1.61 0.79
-2 4 1 65.11 4.3
-2 4 1 65.58 4.1
2 -4 -1 68.41 4.39
2 -4 -1 70.94 4.29
-2 5 1 9.04 1.72
-2 5 1 9.68 1.43
2 -5 -1 10.42 1.67
2 -5 -1 10.23 1.75
-2 6 1 16.39 2
-2 6 1 16.38 2.37
2 -6 -1 15.27 2.27
-1 -6 1 0.02 1.47
1 6 -1 2.5 1.56
-1 -5 1 21.82 2.25
1 5 -1 20.84 2.31
1 5 -1 22.83 2.52
-1 -4 1 4.79 1.21
-1 -4 1 5.67 1.2
-1 -4 1 7.28 1.33
1 4 -1 6.44 1.34
1 4 -1 5.36 1.12
1 4 -1 5.97 1.26
-1 -3 1 144.22 7.74
-1 -3 1 139.68 8.14
-1 -3 1 149.11 7.97
-1 -3 1 139.56 7.76
-1 -3 1 141.34 7.67
1 3 -1 130.41 7.71
1 3 -1 127.57 7.74
1 3 -1 126.44 7.92
-1 -2 1 47.21 2.97
-1 -2 1 50.05 3.03
-1 -2 1 45.07 2.87
-1 -2 1 47.74 2.85
-1 -2 1 46.14 2.89
1 2 -1 45.27 2.9
1 2 -1 45.3 2.88
1 2 -1 53.21 3.09
1 2 -1 46.88 3.01
-1 -1 1 1.45 0.49
-1 -1 1 1.45 0.42
-1 -1 1 0.95 0.48
-1 -1 1 1.05 0.5
-1 -1 1 0.99 0.46
1 1 -1 0.49 0.46
1 1 -1 0.72 0.47
1 1 -1 1.42 0.48
1 1 -1 0.99 0.49
-1 0 1 22.34 1.2
-1 0 1 21.39 1.18
-1 0 1 20.87 1.2
1 0 -1 21.47 1.23
1 0 -1 20.67 1.2
1 0 -1 21.75 1.22
-1 1 1 0.75 0.46
-1 1 1 0.56 0.37
-1 1 1 0.96 0.45
-1 1 1 1.03 0.44
1 -1 -1 0.56 0.43
1 -1 -1 0.59 0.44
1 -1 -1 1.43 0.46
1 -1 -1 1.32 0.44
1 -1 -1 0.91 0.47
-1 2 1 47.99 3.01
-1 2 1 46.17 2.89
-1 2 1 45.54 3.04
-1 2 1 46.51 2.93
1 -2 -1 48.9 2.91
1 -2 -1 49.97 3.08
1 -2 -1 49.81 3.01
1 -2 -1 50.89 2.93
-1 3 1 129.5 7.55
-1 3 1 123.74 7.72
-1 3 1 124.35 7.51
-1 3 1 126.38 8.03
1 -3 -1 138.18 7.61
1 -3 -1 145.78 8.01
1 -3 -1 144.74 7.56
1 -3 -1 142.89 7.78
-1 4 1 5.83 1.18
-1 4 1 6.99 1.38
1 -4 -1 6.65 1.25
1 -4 -1 6.8 1.33
-1 5 1 21.1 2.51
-1 5 1 22.42 2.19
1 -5 -1 23.3 2.31
1 -5 -1 21.72 2.43
-1 6 1 1.27 1.65
-1 6 1 0.5 1.39
1 -6 -1 1.57 1.61
0 -6 1 24.59 2.68
0 6 -1 28.34 2.63
0 -5 1 3.6 1.38
0 5 -1 3.09 1.47
0 5 -1 2.6 1.33
0 -4 1 72.6 4.58
0 -4 1 73.8 4.65
0 -4 1 70.49 4.73
0 4 -1 74.77 4.64
0 4 -1 75.56 4.56
0 4 -1 75.17 4.56
0 -3 1 36 2.44
0 -3 1 32.86 2.32
0 -3 1 36.19 2.46
0 -3 1 36.19 2.38
0 -3 1 32 2.45
0 3 -1 34.47 2.35
0 3 -1 33.3 2.47
0 3 -1 33.28 2.43
0 3 -1 32.39 2.4
0 -2 1 70.99 3.75
0 -2 1 66.8 3.95
0 -2 1 68.08 3.78
0 -2 1 69.32 3.88
0 -2 1 68.42 3.78
0 2 -1 59.97 3.75
0 2 -1 58.62 3.87
0 2 -1 58.88 3.78
0 2 -1 59.18 3.76
0 -1 1 86.18 4.81
0 -1 1 87.31 4.87
0 -1 1 92.76 5.09
0 -1 1 88.2 4.95
0 1 -1 87.12 4.94
0 1 -1 84.83 4.81
0 1 -1 88.67 4.87
0 1 -1 86.29 4.79
0 1 1 89.69 4.93
0 1 1 88.78 5
0 1 1 88.95 4.87
0 -1 -1 83.77 4.91
0 -1 -1 93.26 5.14
0 -1 -1 86.68 4.86
0 -1 -1 89.11 5
0 2 1 61.17 3.9
0 2 1 59.98 3.81
0 2 1 59.07 3.8
0 2 1 60.91 3.8
0 -2 -1 70.08 4
0 -2 -1 68.35 3.75
0 -2 -1 69.38 3.81
0 -2 -1 69.31 3.91
0 -2 -1 67.65 3.82
0 3 1 35.04 2.47
0 3 1 32.88 2.35
0 3 1 35.65 2.45
0 -3 -1 33.01 2.32
0 -3 -1 31.82 2.28
0 -3 -1 34.8 2.43
0 -3 -1 32.88 2.35
0 -3 -1 32.81 2.46
0 4 1 74.29 4.58
0 4 1 71.24 4.49
0 -4 -1 74.37 4.66
0 -4 -1 69.57 4.5
0 -4 -1 71.39 4.49
0 5 1 3.28 1.44
0 5 1 2.29 1.32
0 -5 -1 3.84 1.4
0 6 1 27.4 2.59
0 -6 -1 22 2.58
1 -6 1 0.22 1.54
-1 6 -1 0.13 1.63
-1 6 -1 1.75 1.39
1 -5 1 39.55 3.3
1 -5 1 38.8 3.08
-1 5 -1 40.6 2.99
-1 5 -1 41.03 3.26
1 -4 1 15.6 1.89
1 -4 1 14.17 1.78
-1 4 -1 16.5 1.95
-1 4 -1 18.36 1.79
1 -3 1 91.27 5.58
1 -3 1 90.16 5.29
1 -3 1 92.54 5.45
1 -3 1 91.26 5.31
-1 3 -1 90.57 5.27
-1 3 -1 87.23 5.41
-1 3 -1 94.16 5.28
-1 3 -1 91.88 5.32
-1 3 -1 90.56 5.3
1 -2 1 15.89 1.37
1 -2 1 16.39 1.42
1 -2 1 16.47 1.34
1 -2 1 16.78 1.43
-1 2 -1 16.25 1.44
-1 2 -1 14.21 1.44
-1 2 -1 15.15 1.3
-1 2 -1 15.09 1.43
1 -1 1 190.08 10.57
1 -1 1 178.89 10.73
1 -1 1 188.8 10.41
1 -1 1 185.21 10.73
1 -1 1 195.02 11.03
-1 1 -1 199.74 10.41
-1 1 -1 196.26 10.41
-1 1 -1 203.6 10.74
-1 1 -1 211.73 10.56
1 0 1 17.85 1.12
1 0 1 16.51 1.06
1 0 1 17.02 1.06
1 0 1 18.67 1.11
-1 0 -1 16.73 1.12
-1 0 -1 16.99 1
-1 0 -1 16.84 1.08
-1 0 -1 16.87 1.09
1 1 1 190.5 10.37
1 1 1 205.59 10.98
1 1 1 206.25 10.7
1 1 1 207.99 10.53
-1 -1 -1 180.6 10.35
-1 -1 -1 188.93 10.68
-1 -1 -1 190.66 10.96
-1 -1 -1 182.82 10.51
-1 -1 -1 185.22 10.37
1 2 1 16.74 1.52
1 2 1 14.57 1.38
1 2 1 14.15 1.46
1 2 1 16.41 1.51
-1 -2 -1 17.08 1.45
-1 -2 -1 17.02 1.4
-1 -2 -1 16.12 1.43
-1 -2 -1 17.49 1.39
-1 -2 -1 16.22 1.44
1 3 1 92.92 5.38
1 3 1 96.87 5.42
1 3 1 92.26 5.54
1 3 1 93.35 5.39
-1 -3 -1 94.28 5.66
-1 -3 -1 90.08 5.5
-1 -3 -1 91.78 5.37
-1 -3 -1 92.18 5.31
-1 -3 -1 87.86 5.35
1 4 1 17.17 1.84
1 4 1 16.55 1.96
1 4 1 17.86 1.96
-1 -4 -1 14.82 1.77
-1 -4 -1 14.01 1.82
-1 -4 -1 13.78 1.81
1 5 1 43.4 3.19
-1 -5 -1 38.48 3.08
1 6 1 0.24 1.52
-1 -6 -1 0.17 1.45
2 -6 1 9.57 1.92
-2 6 -1 10.16 1.49
-2 6 -1 9.11 2.04
2 -5 1 2.68 1.43
2 -5 1 2.13 1.37
-2 5 -1 2.37 1.37
-2 5 -1 0.8 1.1
2 -4 1 43.02 3.01
2 -4 1 46.55 3.2
-2 4 -1 43.49 3.14
-2 4 -1 40.13 2.88
-2 4 -1 43.21 3.11
2 -3 1 19.81 1.72
2 -3 1 19.15 1.76
2 -3 1 18.43 1.73
2 -3 1 20.52 1.66
-2 3 -1 19.92 1.71
-2 3 -1 20.76 1.79
-2 3 -1 19.51 1.59
-2 3 -1 18.3 1.77
2 -2 1 193.3 10.47
2 -2 1 188.13 10.13
2 -2 1 203.78 10.29
2 -2 1 197.95 10.75
-2 2 -1 183.31 10.21
-2 2 -1 176.6 10.13
-2 2 -1 175.1 10.14
-2 2 -1 176.54 10.43
2 -1 1 362.61 20.67
2 -1 1 380.52 20.37
2 -1 1 363.86 20.67
2 -1 1 395.25 21.24
-2 1 -1 376.55 20.05
-2 1 -1 378.38 20.05
-2 1 -1 378.66 20.05
-2 1 -1 380 20.05
2 0 1 18.77 1.21
2 0 1 20.03 1.28
2 0 1 19.82 1.33
2 0 1 18.04 1.2
-2 0 -1 17.81 1.23
-2 0 -1 20.1 1.25
2 1 1 393.5 20.84
2 1 1 403.15 21.4
2 1 1 386.7 20.54
2 1 1 356.48 20.2
2 1 1 378.7 20.84
-2 -1 -1 372.82 20.51
-2 -1 -1 364.97 20.21
-2 -1 -1 382.83 20.84
-2 -1 -1 376.1 20.21
2 2 1 176.32 10.19
2 2 1 181.63 10.32
2 2 1 176.68 10.78
2 2 1 179.06 10.51
-2 -2 -1 188.7 10.2
-2 -2 -1 202.21 10.2
-2 -2 -1 194.73 10.51
-2 -2 -1 198.05 10.31
2 3 1 19.46 1.77
2 3 1 19.91 1.66
2 3 1 19.52 1.78
-2 -3 -1 18.11 1.64
-2 -3 -1 18.4 1.7
-2 -3 -1 16.76 1.7
-2 -3 -1 16.37 1.54
2 4 1 42.34 3.24
2 4 1 43.02 3.12
2 4 1 38.64 3.12
2 4 1 41.65 3.09
-2 -4 -1 44.76 3.14
-2 -4 -1 48.09 3
2 5 1 2.19 1.44
-2 -5 -1 3.97 1.29
-2 -5 -1 3.14 1.43
2 6 1 7.97 1.91
-2 -6 -1 9.28 1.75
3 -6 1 2.13 1.66
-3 6 -1 2.97 1.73
3 -5 1 25.42 2.63
3 -5 1 25.71 2.4
-3 5 -1 23.01 2.52
-3 5 -1 22.5 1.94
3 -4 1 8.36 1.44
3 -4 1 9.46 1.39
-3 4 -1 9.32 1.44
-3 4 -1 11.72 1.48
-3 4 -1 9.74 1.26
3 -3 1 46.72 3.08
3 -3 1 47.49 2.89
3 -3 1 45.82 3.02
-3 3 -1 40.72 2.94
-3 3 -1 41.96 2.94
3 -2 1 8.94 1.06
3 -2 1 9.47 0.99
3 -2 1 8.4 1.1
3 -2 1 9.22 1.11
3 -2 1 9.44 1.08
-3 2 -1 8.03 0.88
-3 2 -1 7.29 0.92
-3 2 -1 8.31 1.02
3 -1 1 92.2 4.71
3 -1 1 82.68 4.56
3 -1 1 88.01 4.59
-3 1 -1 76.67 4.43
-3 1 -1 74.08 4.43
-3 1 -1 75.28 4.42
-3 1 -1 75.32 4.39
3 0 1 77.81 4.46
3 0 1 84.57 4.51
3 0 1 75.07 4.36
-3 0 -1 78.16 4.27
-3 0 -1 74.39 4.24
3 1 1 82.19 4.61
3 1 1 74.03 4.48
3 1 1 75.22 4.35
3 1 1 73.6 4.47
3 1 1 72.99 4.58
-3 -1 -1 79.35 4.36
-3 -1 -1 83.99 4.33
-3 -1 -1 83.59 4.37
3 2 1 8.11 0.94
3 2 1 7.71 1.03
3 2 1 9.28 1.01
3 2 1 8.14 1.04
-3 -2 -1 8.4 1.13
-3 -2 -1 10.12 1.22
-3 -2 -1 8.29 1.02
-3 -2 -1 8.97 1.09
3 3 1 41.96 3.08
3 3 1 39.03 2.92
3 3 1 40.91 2.98
-3 -3 -1 49.43 2.88
-3 -3 -1 48.35 3.04
-3 -3 -1 46.68 3.01
-3 -3 -1 46.83 2.94
3 4 1 10.06 1.45
3 4 1 9.04 1.55
3 4 1 10.43 1.52
-3 -4 -1 10.19 1.36
-3 -4 -1 9.58 1.51
3 5 1 25.07 2.51
-3 -5 -1 25.52 2.64
-3 -5 -1 24 2.3
3 6 1 1.91 1.72
-3 -6 -1 1.16 1.38
4 -5 1 0.66 1.33
-4 5 -1 0.98 1.17
-4 5 -1 1.14 1.33
4 -4 1 20.65 2.2
-4 4 -1 25.62 2.27
-4 4 -1 26.93 2.4
4 -3 1 0.14 0.78
4 -3 1 1.09 0.84
4 -3 1 0.53 0.86
-4 3 -1 1.15 0.82
-4 3 -1 1.55 0.74
4 -2 1 149.03 8.43
4 -2 1 144.74 8.2
4 -2 1 145.31 8.01
4 -2 1 141.14 8.19
-4 2 -1 148.21 7.93
-4 2 -1 144.85 7.95
-4 2 -1 144.07 7.95
-4 2 -1 142.86 7.92
4 -1 1 79.99 4.76
4 -1 1 82.88 4.77
4 -1 1 90.81 4.91
-4 1 -1 84.19 4.58
-4 1 -1 83.25 4.63
-4 1 -1 84.08 4.61
-4 1 -1 83.46 4.63
4 0 1 53.67 3.16
4 0 1 56.85 3.24
4 0 1 51.08 3.15
4 0 1 53.33 3.1
-4 0 -1 55.9 3.07
-4 0 -1 54.63 3.03
4 1 1 81.57 4.79
4 1 1 82.28 4.8
4 1 1 87.92 4.95
4 1 1 83.24 4.91
-4 -1 -1 84.46 4.62
-4 -1 -1 82.49 4.67
4 2 1 152.76 8.14
4 2 1 144.02 8.18
4 2 1 152.41 8.6
4 2 1 150.14 8.38
4 2 1 147.41 8.37
-4 -2 -1 140.51 8.11
-4 -2 -1 140 8.08
-4 -2 -1 149.31 8.35
4 3 1 1.07 0.87
4 3 1 0.79 0.86
-4 -3 -1 1.24 0.84
-4 -3 -1 -0.54 0.67
-4 -3 -1 0.81 0.77
4 4 1 27.41 2.4
4 4 1 24.95 2.2
-4 -4 -1 22.28 2.12
-4 -4 -1 19.2 1.97
-4 -4 -1 19.44 2.18
4 5 1 0.54 1.48
-4 -5 -1 2.43 1.43
-4 -5 -1 0.84 1.14
5 -5 1 9.07 1.74
-5 5 -1 8.06 1.6
-5 5 -1 6.29 1.57
5 -4 1 3.41 1.28
5 -4 1 3.83 1.17
-5 4 -1 2.25 1.13
-5 4 -1 2.29 1.01
5 -3 1 24.22 2.16
5 -3 1 21.25 2.07
-5 3 -1 31.12 2.16
-5 3 -1 30.59 2.14
5 -2 1 1.09 0.7
5 -2 1 0.6 0.6
5 -2 1 0.68 0.61
-5 2 -1 1.12 0.57
-5 2 -1 1.72 0.51
-5 2 -1 0.95 0.55
-5 2 -1 1.5 0.62
5 -1 1 246.91 13.18
5 -1 1 237.18 13.17
-5 1 -1 234.55 12.77
-5 1 -1 236.26 12.76
5 0 1 38.38 2.36
5 0 1 40.02 2.48
5 1 1 235.99 13.29
5 1 1 236.88 13.29
5 1 1 241.58 13.65
5 1 1 240.77 13.66
-5 -1 -1 243.86 12.9
-5 -1 -1 240.33 12.87
5 2 1 1.14 0.75
5 2 1 1.36 0.69
5 2 1 1.73 0.74
-5 -2 -1 0.55 0.66
-5 -2 -1 1.68 0.65
5 3 1 31.52 2.19
5 3 1 30.55 2.32
-5 -3 -1 22.4 2.14
-5 -3 -1 22.33 2.06
5 4 1 2.3 1.18
5 4 1 2.43 1.23
-5 -4 -1 4.18 1.17
-5 -4 -1 3.51 1.27
-5 -4 -1 4.45 0.96
5 5 1 5.62 1.63
5 5 1 8.23 1.89
5 5 1 6.18 1.78
-5 -5 -1 8.84 1.33
-5 -5 -1 7.12 1.67
6 -5 1 11.26 1.81
-6 5 -1 8.12 1.67
-6 5 -1 7.63 1.58
6 -4 1 25.28 2.44
6 -4 1 25.58 2.54
-6 4 -1 31.36 2.54
-6 4 -1 32.07 2.46
6 -3 1 5 1.04
6 -3 1 4.5 1.09
-6 3 -1 6.22 1.05
-6 3 -1 5.76 1
6 -2 1 99.35 5.84
6 -2 1 100.71 5.82
-6 2 -1 102.49 5.62
-6 2 -1 101.15 5.64
-6 2 -1 100.93 5.64
6 -1 1 21.27 1.46
6 -1 1 19.13 1.53
6 -1 1 20.95 1.43
6 0 1 154.56 8.87
6 1 1 17.16 1.47
6 1 1 17.27 1.42
6 1 1 18.06 1.51
6 1 1 16.76 1.42
-6 -1 -1 20.32 1.36
-6 -1 -1 20.52 1.44
-6 -1 -1 20.88 1.47
6 2 1 102.93 5.9
6 2 1 102.23 6.06
-6 -2 -1 100.61 5.72
-6 -2 -1 95.48 5.67
6 3 1 5.04 1.2
-6 -3 -1 5.82 1.15
-6 -3 -1 5.72 1.06
6 4 1 31.98 2.77
-6 -4 -1 28.16 2.53
-6 -4 -1 27.94 2.53
6 5 1 9.49 1.87
6 5 1 8.21 1.92
6 5 1 9.75 2.02
-6 -5 -1 9.58 1.84
7 -5 1 9.24 1.8
-7 5 -1 9.39 1.69
-7 5 -1 10.75 1.78
7 -4 1 13.84 1.68
7 -4 1 9.34 1.72
-7 4 -1 12.2 1.58
-7 4 -1 12.94 1.6
7 -3 1 18.97 1.97
7 -3 1 23.83 1.95
-7 3 -1 21.56 1.88
-7 3 -1 21.36 1.87
7 -2 1 19.41 1.7
-7 2 -1 24.37 1.64
-7 2 -1 22.31 1.68
-7 2 -1 23.23 1.72
7 0 1 5.79 0.74
7 1 1 39.36 2.55
7 1 1 39.1 2.61
7 1 1 36.84 2.64
7 1 1 38.77 2.54
-7 -1 -1 41.62 2.48
-7 -1 -1 45.06 2.45
7 2 1 24.05 1.9
7 2 1 23.31 1.91
-7 -2 -1 17.58 1.7
-7 -2 -1 20.66 1.83
7 3 1 22.09 2.24
-7 -3 -1 22.32 2.04
-7 -3 -1 24.99 2.15
7 4 1 11.75 1.92
-7 -4 -1 14.36 1.88
-7 -4 -1 15.25 1.82
7 5 1 11.35 2.16
-7 -5 -1 9.16 1.96
8 -4 1 17.02 1.97
8 -4 1 10.37 1.82
-8 4 -1 16.29 1.85
-8 4 -1 17.3 2.02
8 -3 1 11.19 1.34
8 -3 1 6.05 1.32
-8 3 -1 9.13 1.19
-8 3 -1 11.05 1.24
8 -2 1 11.53 1.5
-8 2 -1 8.82 1.01
8 1 1 32.56 2.31
8 1 1 32.6 2.4
8 1 1 31.34 2.33
-8 -1 -1 38.98 2.27
-8 -1 -1 36.02 2.18
8 2 1 9.17 1.29
8 2 1 9.09 1.22
8 3 1 11.47 1.61
-8 -3 -1 11.61 1.56
-8 -3 -1 11.39 1.45
8 4 1 18.14 2.4
-8 -4 -1 19.36 2.27
-8 -4 -1 18.67 2.21
9 -4 1 4.66 1.62
9 -4 1 13.49 1.68
-9 4 -1 10.18 1.45
-9 4 -1 10.16 1.5
9 -3 1 30.73 2.39
-9 3 -1 29.36 2.28
-9 3 -1 31.86 2.26
9 -2 1 -0.09 0.73
9 -2 1 -0.25 0.91
-9 2 -1 0.49 0.67
9 0 1 33.92 2.33
9 1 1 12.18 1.37
9 1 1 12.9 1.35
9 1 1 12.5 1.47
-9 -1 -1 14.6 1.37
-9 -1 -1 13.07 1.28
9 2 1 -0.11 0.91
9 2 1 0.28 0.92
-9 -2 -1 0.48 0.79
-9 -2 -1 -0.12 0.86
9 3 1 30.16 2.66
-9 -3 -1 32.49 2.6
-9 -3 -1 31.94 2.54
9 4 1 9.66 1.88
-9 -4 -1 13.36 1.93
-9 -4 -1 13.45 1.83
10 -3 1 6.7 1.23
-10 3 -1 10.03 1.23
10 -2 1 4.33 1.11
-10 2 -1 3.16 0.82
10 1 1 5.79 0.97
10 1 1 4.87 0.98
-10 -1 -1 3.7 0.83
10 2 1 4.83 1.2
-10 -2 -1 4.47 1.02
-10 -2 -1 4.64 1.1
10 3 1 9.24 1.6
-10 -3 -1 9.36 1.46
-10 -3 -1 9.37 1.52
11 -3 1 19.14 2.06
11 -3 1 20.95 1.88
-11 3 -1 17.5 1.76
-11 2 -1 14 1.44
11 1 1 11.49 1.46
-11 -1 -1 17.72 1.5
11 2 1 13.31 1.68
-11 -2 -1 10.4 1.41
-11 -2 -1 11.51 1.48
11 3 1 20.25 2.42
-11 -3 -1 21.88 2.17
-11 -3 -1 21.72 2.27
12 1 1 35.61 2.64
-12 -1 -1 37.07 2.5
12 2 1 13.92 1.68
-12 -2 -1 12.52 1.54
-12 -2 2 16.69 1.64
12 2 -2 12.4 1.69
12 2 -2 13.22 1.66
-11 -3 2 1.83 1.12
-11 -3 2 2.44 1.22
11 3 -2 1.41 1.21
-11 -2 2 14.05 1.5
11 2 -2 13.53 1.63
11 2 -2 13.24 1.62
-11 3 2 0.54 0.87
11 -3 -2 1.21 1.05
11 -3 -2 2.41 0.96
-10 -4 2 19.62 2.26
-10 -4 2 16.74 2.22
10 4 -2 22.65 2.51
-10 -3 2 4.44 1.27
-10 -3 2 4.3 1.16
10 3 -2 4.01 1.28
-10 -2 2 40.25 2.9
-10 -2 2 45.6 2.94
10 2 -2 46.68 3.11
10 2 -2 46.47 3.02
10 1 -2 5.15 0.85
-10 3 2 4.36 0.93
10 -3 -2 4.24 1.01
10 -3 -2 2.88 1.06
-10 4 2 20.36 1.89
-10 4 2 18.21 1.86
10 -4 -2 11.73 1.86
10 -4 -2 15.58 1.95
-9 -4 2 1.12 1.23
-9 -4 2 0.71 1.19
9 4 -2 2.04 1.35
-9 -3 2 28.91 2.49
-9 -3 2 32.03 2.55
9 3 -2 38.07 2.75
-9 -2 2 21.37 1.78
-9 -2 2 19.56 1.71
9 2 -2 20.66 1.83
9 2 -2 19.37 1.83
9 1 -2 79.38 4.73
-9 1 2 83.53 5.65
9 -2 -2 19.03 1.53
-9 3 2 36.76 2.35
-9 3 2 36.64 2.41
9 -3 -2 29.91 2.5
9 -3 -2 31.07 2.41
-9 4 2 0.2 1.03
-9 4 2 0.99 1
9 -4 -2 0.26 1.1
9 -4 -2 -0.21 1.18
-8 -5 2 2.3 1.56
8 5 -2 0.7 1.53
-8 -4 2 7.25 1.5
-8 -4 2 8.15 1.57
8 4 -2 10.68 1.8
-8 -3 2 7.52 1.28
-8 -3 2 7.88 1.26
8 3 -2 8.12 1.39
-8 -2 2 56.01 3.36
-8 -2 2 53.11 3.34
8 2 -2 52.21 3.44
8 2 -2 55.55 3.56
8 1 -2 26.78 1.85
8 1 -2 26.78 1.8
-8 0 2 71.56 4.84
-8 1 2 27.96 2.47
-8 2 2 54.95 3.12
-8 2 2 52.33 3.93
-8 2 2 54.55 3.15
8 -2 -2 52.78 3.25
8 -2 -2 53.24 3.34
-8 3 2 7.5 1.09
-8 3 2 7.18 1.04
8 -3 -2 7.14 1.14
8 -3 -2 8.64 1.22
-8 4 2 10.29 1.38
-8 4 2 10.75 1.42
8 -4 -2 5.97 1.35
8 -4 -2 6.82 1.46
-8 5 2 1.19 1.31
8 -5 -2 0.82 1.33
-7 -5 2 4.25 1.63
7 5 -2 7.87 1.93
-7 -4 2 4.98 1.37
-7 -4 2 4.08 1.24
7 4 -2 5.28 1.53
-7 -3 2 32.57 2.57
-7 -3 2 32.29 2.57
7 3 -2 41.14 2.75
-7 -2 2 10.04 1.31
-7 -2 2 11.22 1.32
7 2 -2 11.42 1.41
7 2 -2 12.39 1.36
-7 -1 2 100.22 5.39
-7 -1 2 90.83 5.36
-7 -1 2 100.16 6.22
7 1 -2 99.02 5.57
7 1 -2 99.41 5.71
-7 0 2 4.88 0.98
-7 1 2 98.09 6.3
-7 2 2 11.14 1.15
-7 2 2 12.43 1.07
-7 2 2 10.13 1.47
-7 2 2 11.27 1.16
7 -2 -2 11.92 1.15
7 -2 -2 9.98 1.15
7 -2 -2 12.09 1.12
-7 3 2 38.95 3.03
-7 3 2 38.53 2.56
-7 3 2 40.15 2.54
7 -3 -2 34.34 2.6
7 -3 -2 32.49 2.62
-7 4 2 4.96 1.21
-7 4 2 4.84 1.16
7 -4 -2 4.95 1.25
7 -4 -2 3.82 1.29
-7 5 2 6.54 1.53
7 -5 -2 5.66 1.57
-6 -5 2 0.75 1.45
6 5 -2 1.08 1.43
6 5 -2 2.35 1.53
-6 -4 2 24.83 2.24
-6 -4 2 23.9 2.27
6 4 -2 21.11 2.44
-6 -3 2 4.66 1
-6 -3 2 4.55 1.08
6 3 -2 4.77 1.12
-6 -2 2 60.37 3.81
-6 -2 2 61 3.85
6 2 -2 72.78 4.03
6 2 -2 67.01 4.09
-6 -1 2 18.79 1.37
-6 -1 2 18.04 1.36
-6 -1 2 19.37 1.71
6 1 -2 19.29 1.38
6 1 -2 20.2 1.45
6 1 -2 19.82 1.42
-6 0 2 89.97 5.71
-6 1 2 19.62 1.8
-6 2 2 65.5 4.35
-6 2 2 66.45 3.7
-6 2 2 68.51 3.73
-6 2 2 66.67 3.67
-6 2 2 68.02 3.72
6 -2 -2 58.25 3.8
6 -2 -2 58.35 3.9
6 -2 -2 63.59 3.82
-6 3 2 3.6 0.89
-6 3 2 5 0.98
-6 3 2 4.6 1.13
6 -3 -2 4.29 0.95
6 -3 -2 5.08 1.05
-6 4 2 18.92 2.03
-6 4 2 18.51 2.07
6 -4 -2 23.01 2.16
6 -4 -2 23.53 2.18
-6 5 2 0.48 1.28
6 -5 -2 2.07 1.4
-5 -5 2 31.31 2.84
-5 -5 2 28.51 2.37
5 5 -2 28.12 3
5 5 -2 27.19 2.68
-5 -4 2 2.64 0.9
-5 -4 2 2.81 1.21
-5 -4 2 3.04 1.11
5 4 -2 2.24 1.17
5 4 -2 1.15 1.13
-5 -3 2 126.37 7.14
-5 -3 2 132.28 7.23
5 3 -2 123.72 7.41
5 3 -2 121.29 7.21
-5 -2 2 35.19 2.3
-5 -2 2 35.12 2.32
-5 -2 2 34.45 2.26
5 2 -2 33.9 2.36
5 2 -2 34.65 2.42
5 2 -2 34.63 2.29
5 2 -2 32.9 2.31
5 2 -2 37.48 2.44
5 1 -2 19.37 1.4
5 1 -2 18.96 1.42
5 1 -2 20.14 1.43
-5 0 2 125.86 7.71
-5 1 2 19 1.71
-5 2 2 33.46 2.13
-5 2 2 33.8 2.21
-5 2 2 35.01 2.21
-5 2 2 33.76 2.2
-5 2 2 34.83 2.59
5 -2 -2 34.69 2.29
5 -2 -2 34.83 2.25
5 -2 -2 35.09 2.25
-5 3 2 124.41 6.95
-5 3 2 121.86 6.95
-5 3 2 117.64 7.69
5 -3 -2 126.26 7.18
5 -3 -2 124.57 7.36
-5 4 2 2.07 1.1
-5 4 2 2.46 1.06
5 -4 -2 2.48 1.12
5 -4 -2 2.69 1.19
-5 5 2 25.58 2.6
5 -5 -2 28.33 2.7
-4 -5 2 2.82 1.47
-4 -5 2 3.11 1.19
4 5 -2 3.97 1.42
-4 -4 2 34.82 2.64
-4 -4 2 35.91 2.47
-4 -4 2 35.99 2.76
4 4 -2 31.12 2.77
4 4 -2 30.84 2.64
-4 -3 2 0.8 0.89
-4 -3 2 1.99 0.82
-4 -3 2 1.62 0.72
4 3 -2 0.24 0.88
4 3 -2 1.81 0.88
4 2 -2 19.3 1.65
4 2 -2 19.51 1.59
4 2 -2 20.16 1.63
4 2 -2 18.2 1.61
4 2 -2 20.39 1.71
-4 -1 2 2.74 0.54
-4 -1 2 2.96 0.62
-4 -1 2 2.72 0.52
4 1 -2 2.39 0.54
4 1 -2 3.04 0.58
4 1 -2 2.73 0.63
-4 0 2 180.66 10.84
-4 1 2 2.62 0.46
-4 1 2 2.26 0.72
-4 1 2 2.91 0.44
4 -1 -2 2.97 0.46
4 -1 -2 3.19 0.47
4 -1 -2 2.96 0.45
-4 2 2 17.69 1.47
-4 2 2 17.96 1.49
-4 2 2 19.43 1.66
-4 2 2 16.88 1.46
-4 2 2 18.47 1.39
-4 3 2 1.09 0.82
-4 3 2 1.14 0.72
-4 3 2 1.18 0.77
4 -3 -2 0.95 0.77
4 -3 -2 0.87 0.79
4 -3 -2 0.83 0.82
-4 4 2 29.51 2.55
-4 4 2 28.48 2.53
4 -4 -2 35.26 2.73
4 -4 -2 37.21 2.67
-4 5 2 5.11 1.5
4 -5 -2 3.7 1.42
-3 -6 2 2.02 1.4
3 6 -2 2.41 1.72
-3 -5 2 12.78 1.95
-3 -5 2 14.24 1.83
3 5 -2 17.95 2.06
-3 -4 2 29.09 2.5
-3 -4 2 26.88 2.19
3 4 -2 25.78 2.46
3 4 -2 28.43 2.37
-3 -3 2 88.98 5.13
-3 -3 2 92.23 5.06
-3 -3 2 93.87 5
-3 -3 2 90.01 4.95
3 3 -2 76.01 4.99
3 3 -2 72.93 4.96
3 3 -2 80.2 5.17
-3 -2 2 65.97 3.76
-3 -2 2 64.81 3.83
-3 -2 2 65.45 3.78
-3 -2 2 67.42 3.92
3 2 -2 62.38 3.82
3 2 -2 66.05 4.05
3 2 -2 63.9 3.97
3 2 -2 65.1 3.84
-3 -1 2 127.3 6.29
-3 -1 2 131.18 6.93
-3 -1 2 121.7 6.26
-3 -1 2 120.08 6.27
3 1 -2 104.45 6.62
3 1 -2 106.38 6.32
3 1 -2 105.86 6.45
3 1 -2 105.1 6.46
-3 1 2 104.82 5.95
-3 1 2 105.14 5.95
-3 1 2 101.77 5.97
-3 1 2 105.79 5.98
-3 1 2 105.78 6.72
3 -1 -2 123.91 6.32
3 -1 -2 125.08 6.16
-3 2 2 61.94 3.73
-3 2 2 64.54 3.77
-3 2 2 62.95 3.7
-3 2 2 63.81 4.13
3 -2 -2 64.85 3.96
3 -2 -2 65.53 3.74
3 -2 -2 67.32 3.88
3 -2 -2 65.91 3.73
3 -2 -2 64.91 3.86
-3 3 2 74.31 5.27
-3 3 2 79.41 4.75
-3 3 2 77.51 4.91
3 -3 -2 93.56 4.94
3 -3 -2 89.71 5.22
3 -3 -2 92.02 5.09
-3 4 2 28.55 2.09
-3 4 2 31.09 2.47
3 -4 -2 26.65 2.48
3 -4 -2 29.82 2.37
-3 5 2 16.96 1.67
-3 5 2 16.76 2.06
3 -5 -2 15.5 1.99
3 -5 -2 12.09 1.92
-3 6 2 2.44 1.65
3 -6 -2 0.15 1.6
-2 -6 2 17.4 2.26
2 6 -2 15.64 2.27
-2 -5 2 0.61 1.25
-2 -5 2 0.76 1.29
2 5 -2 2.4 1.26
2 5 -2 2.11 1.37
-2 -4 2 34.86 2.57
-2 -4 2 38.16 2.79
2 4 -2 33.23 2.61
2 4 -2 30.95 2.72
2 4 -2 34.74 2.79
-2 -3 2 1.36 0.83
-2 -3 2 1.42 0.78
-2 -3 2 0.86 0.79
-2 -3 2 1.47 0.72
2 3 -2 2.01 0.9
2 3 -2 1 0.83
2 3 -2 2.2 0.82
-2 -2 2 61.97 3.66
-2 -2 2 61.99 3.68
-2 -2 2 63.2 3.77
-2 -2 2 64.03 3.66
2 2 -2 63.19 3.73
2 2 -2 62.13 3.71
2 2 -2 62.22 3.88
2 2 -2 61.81 3.82
-2 -1 2 140 7.94
-2 -1 2 146.19 8.02
-2 -1 2 146.1 8.18
2 1 -2 153.77 8.42
2 1 -2 148.07 7.95
2 1 -2 144.76 8.05
2 1 -2 149.59 8.19
2 1 -2 148.23 8.19
-2 0 2 981.44 50.33
2 0 -2 1000 53.28
2 0 -2 905.55 51.89
2 0 -2 919.21 51.9
-2 1 2 138.74 7.63
-2 1 2 142.9 7.64
-2 1 2 144.59 7.66
-2 1 2 143.29 7.66
2 -1 -2 143.08 8.09
2 -1 -2 139.28 7.73
2 -1 -2 141.15 7.88
2 -1 -2 142.76 7.88
-2 2 2 61.59 3.74
-2 2 2 61.77 3.68
-2 2 2 62.88 3.6
2 -2 -2 63.82 3.85
2 -2 -2 63.34 3.66
2 -2 -2 63.37 3.74
2 -2 -2 60.25 3.62
-2 3 2 1.69 0.72
-2 3 2 1.31 0.64
-2 3 2 2 0.84
-2 3 2 0.99 0.76
2 -3 -2 2.07 0.85
2 -3 -2 0.76 0.75
2 -3 -2 1.83 0.83
2 -3 -2 1.76 0.81
-2 4 2 32.85 2.51
-2 4 2 36.17 2.78
2 -4 -2 38.13 2.8
2 -4 -2 34.84 2.64
-2 5 2 2.18 1.37
-2 5 2 1.78 1.15
2 -5 -2 1.19 1.28
2 -5 -2 3.65 1.32
-2 6 2 14.16 1.77
-2 6 2 14.57 2.28
2 -6 -2 17.68 2.28
-1 -6 2 0.99 1.52
1 6 -2 1.64 1.61
-1 -5 2 32.76 2.83
1 5 -2 37.08 3.08
1 5 -2 34.46 2.84
1 5 -2 37.54 2.91
-1 -4 2 22.37 2.18
-1 -4 2 19.91 2.14
-1 -4 2 20.32 2
1 4 -2 23.85 2.05
1 4 -2 24.15 2.25
1 4 -2 23.58 2.19
-1 -3 2 74.47 4.52
-1 -3 2 73.94 4.64
-1 -3 2 75.26 4.47
-1 -3 2 75.61 4.52
-1 -3 2 72.18 4.75
1 3 -2 76.77 4.69
1 3 -2 80.21 4.58
1 3 -2 77.45 4.53
1 3 -2 75.74 4.48
-1 -2 2 19.96 1.57
-1 -2 2 18.97 1.5
-1 -2 2 19.38 1.57
-1 -2 2 17.84 1.59
-1 -2 2 18.58 1.5
1 2 -2 17.78 1.54
1 2 -2 18.58 1.56
1 2 -2 18.88 1.53
1 2 -2 18.09 1.61
-1 -1 2 114.29 6.23
-1 -1 2 104.67 5.94
-1 -1 2 102.05 5.88
-1 -1 2 107.46 5.87
-1 -1 2 102.14 6.04
1 1 -2 108.26 6.05
1 1 -2 114.43 6.22
1 1 -2 106.74 5.87
1 1 -2 108.79 5.95
-1 0 2 14.32 0.92
-1 0 2 14.76 0.87
-1 0 2 12.49 1.03
1 0 -2 13.93 0.89
1 0 -2 14.11 0.93
1 0 -2 13.66 1.01
1 0 -2 14.78 0.97
1 0 -2 13.72 0.95
-1 1 2 109.66 5.99
-1 1 2 112.27 5.84
-1 1 2 111.67 5.89
1 -1 -2 107.14 6.15
1 -1 -2 105.37 5.99
1 -1 -2 101.38 5.98
1 -1 -2 102.99 5.81
1 -1 -2 103.69 5.88
-1 2 2 18.71 1.49
-1 2 2 17.78 1.53
-1 2 2 18.02 1.56
1 -2 -2 16.93 1.57
1 -2 -2 19.95 1.49
1 -2 -2 20.26 1.56
1 -2 -2 19.3 1.55
-1 3 2 80.98 4.8
-1 3 2 81.27 4.59
-1 3 2 78.52 4.71
-1 3 2 77.67 4.61
1 -3 -2 74.97 4.82
1 -3 -2 76.44 4.72
1 -3 -2 74.05 4.59
1 -3 -2 76.62 4.59
-1 4 2 22.95 2.01
-1 4 2 23.22 2.17
1 -4 -2 21.58 2.12
1 -4 -2 20.52 1.97
-1 5 2 36.78 3.06
-1 5 2 34.07 2.77
1 -5 -2 35.24 2.88
-1 6 2 2.04 1.72
-1 6 2 2.35 1.43
1 -6 -2 2.05 1.61
0 -6 2 -0.6 1.49
0 6 -2 -0.98 1.42
0 -5 2 4.41 1.47
0 5 -2 3.18 1.51
0 5 -2 3.8 1.34
0 -4 2 40.13 3
0 -4 2 35.9 2.84
0 -4 2 35.61 2.9
0 4 -2 40.3 2.8
0 4 -2 42.1 2.97
0 4 -2 41.35 2.8
0 -3 2 13.94 1.53
0 -3 2 16.64 1.57
0 -3 2 13.92 1.58
0 -3 2 14.54 1.47
0 -3 2 14.81 1.47
0 3 -2 15.16 1.64
0 3 -2 15.52 1.5
0 3 -2 16.15 1.67
0 3 -2 15.15 1.64
0 -2 2 93.98 5.37
0 -2 2 93.25 5.41
0 -2 2 97.05 5.35
0 -2 2 97.39 5.54
0 -2 2 100.36 5.7
0 2 -2 92.17 5.38
0 2 -2 99.19 5.38
0 2 -2 91.45 5.36
0 2 -2 92.59 5.52
0 -1 2 100.54 5.61
0 -1 2 100.2 5.77
0 -1 2 99.04 5.67
0 -1 2 96.36 5.92
0 1 -2 105.02 5.67
0 1 -2 107 5.78
0 1 -2 106 5.62
0 1 -2 104.74 5.59
0 0 2 36.84 2.03
0 0 2 32.68 2.08
0 0 2 36.57 2.12
0 0 2 36.11 2.1
0 0 2 36.07 2.15
0 0 -2 37.14 2.15
0 0 -2 34.29 2.13
0 0 -2 33.32 2.06
0 0 -2 36.64 2.12
0 0 -2 34.82 2.03
0 1 2 111.37 5.72
0 1 2 106.02 5.8
0 1 2 105.82 5.64
0 -1 -2 99.71 5.64
0 -1 -2 101.34 5.8
0 -1 -2 96.83 5.6
0 -1 -2 104.6 5.95
0 -1 -2 99.25 5.7
0 -1 -2 101.37 5.95
0 2 2 96.53 5.43
0 2 2 95.9 5.57
0 2 2 96.95 5.47
0 -2 -2 95.93 5.43
0 -2 -2 100.13 5.74
0 -2 -2 95.41 5.57
0 -2 -2 99.62 5.4
0 -2 -2 88.8 5.44
0 3 2 16.51 1.63
0 3 2 15.01 1.62
0 3 2 15.46 1.54
0 -3 -2 15.75 1.56
0 -3 -2 14 1.44
0 -3 -2 15.41 1.5
0 -3 -2 15.62 1.55
0 -3 -2 12.85 1.51
0 4 2 42.04 2.95
0 4 2 41.83 2.8
0 -4 -2 34.26 2.71
0 -4 -2 37.62 2.84
0 -4 -2 36.52 2.88
0 5 2 2.63 1.33
0 5 2 3.22 1.44
0 -5 -2 1.99 1.33
0 6 2 2.16 1.53
0 -6 -2 1 1.54
1 -6 2 0.06 1.53
-1 6 -2 0.34 1.36
-1 6 -2 -1.83 1.57
1 -5 2 10.65 1.85
1 -5 2 12.08 1.8
-1 5 -2 12.29 1.9
-1 5 -2 14.6 1.71
1 -4 2 9.4 1.49
1 -4 2 10.21 1.41
-1 4 -2 10.19 1.39
-1 4 -2 11.54 1.38
-1 4 -2 10.43 1.51
1 -3 2 10.79 1.26
1 -3 2 9.22 1.2
1 -3 2 8.9 1.16
1 -3 2 10.23 1.32
1 -2 2 8.38 0.96
1 -2 2 10.97 1.18
1 -2 2 9.64 0.96
1 -2 2 8.66 1.07
-1 2 -2 6.62 0.86
-1 2 -2 6.23 0.91
-1 2 -2 7.17 0.82
-1 2 -2 6.52 0.91
1 -1 2 787.2 43.07
1 -1 2 796 42.52
1 -1 2 789.87 41.76
1 -1 2 790.13 43.07
1 -1 2 860.98 44.26
-1 1 -2 745.54 43.06
-1 1 -2 772.58 41.79
-1 1 -2 780.94 42.49
-1 1 -2 767.5 41.76
1 0 2 6 0.67
1 0 2 5.49 0.68
1 0 2 6.26 0.81
1 0 2 6.27 0.81
1 0 2 6.26 0.71
1 0 2 6.72 0.71
-1 0 -2 6.6 0.68
-1 0 -2 5.17 0.63
-1 0 -2 5.99 0.61
-1 0 -2 6.03 0.65
1 1 2 765.38 43.56
1 1 2 814.7 45.31
1 1 2 804.17 42.79
1 1 2 840.36 45.33
1 1 2 786.63 44.13
-1 -1 -2 821.22 45.31
-1 -1 -2 812.91 44.13
-1 -1 -2 812.06 42.8
-1 -1 -2 795.65 42.82
-1 -1 -2 816.72 43.56
1 2 2 7.19 0.92
1 2 2 7.35 0.95
1 2 2 7 0.95
1 2 2 6.55 0.95
1 2 2 7.13 0.99
-1 -2 -2 9.82 1.17
-1 -2 -2 8.32 1.07
-1 -2 -2 9.18 1.11
-1 -2 -2 9.13 1.14
-1 -2 -2 9.98 1.11
-1 -3 -2 10.01 1.14
-1 -3 -2 7.54 1.17
-1 -3 -2 8.79 1.08
-1 -3 -2 9.2 1.18
-1 -3 -2 9.72 1.2
1 4 2 10.87 1.54
1 4 2 11.11 1.52
1 4 2 10.05 1.48
-1 -4 -2 10.08 1.49
-1 -4 -2 8.99 1.44
-1 -4 -2 10.69 1.43
1 5 2 14.74 1.91
-1 -5 -2 12.02 1.79
1 6 2 -0.23 1.51
-1 -6 -2 -0.03 1.44
2 -6 2 3.13 1.7
-2 6 -2 1.87 1.68
-2 6 -2 2.62 1.27
2 -5 2 4.04 1.49
2 -5 2 4.39 1.47
-2 5 -2 2.97 1.47
-2 5 -2 4 1.22
2 -4 2 43.53 3.39
2 -4 2 44.38 3.53
-2 4 -2 55.41 3.56
-2 4 -2 56.67 3.62
-2 4 -2 58.23 3.33
2 -3 2 53.33 3.4
2 -3 2 48.99 3.15
2 -3 2 50.42 3.27
2 -3 2 49.99 3.13
-2 3 -2 48.68 3.21
-2 3 -2 48.97 3.06
-2 3 -2 48.53 3.22
-2 3 -2 49.16 3.23
2 -2 2 197.21 11.38
2 -2 2 193.95 11.02
2 -2 2 201.29 11.69
2 -2 2 204.8 11.19
-2 2 -2 204.27 11.36
-2 2 -2 215.14 11.12
-2 2 -2 206.29 11.05
-2 2 -2 203.38 11.03
2 -1 2 93.13 5.29
2 -1 2 98.46 5.32
2 -1 2 93.71 5.46
2 -1 2 94.86 5.15
2 -1 2 92.67 5.29
2 -1 2 97.82 5.19
-2 1 -2 90.36 5.14
-2 1 -2 87.55 5.14
2 0 2 102.09 5.76
2 0 2 107.59 5.9
2 0 2 108.43 5.95
2 0 2 102.78 5.8
-2 0 -2 96.65 5.6
-2 0 -2 101.63 5.62
-2 0 -2 103.34 5.55
-2 0 -2 99.96 5.62
2 1 2 94 5.46
2 1 2 94.82 5.47
2 1 2 89.48 5.16
2 1 2 89.06 5.32
2 1 2 92.22 5.2
2 1 2 87.47 5.3
-2 -1 -2 95.7 5.17
-2 -1 -2 96.71 5.18
-2 -1 -2 96.27 5.31
-2 -1 -2 98.8 5.15
2 2 2 201.57 11.15
2 2 2 197.16 10.83
2 2 2 198.87 10.95
2 2 2 210.99 11.46
-2 -2 -2 190.41 10.81
-2 -2 -2 191.56 10.79
-2 -2 -2 200.1 10.93
-2 -2 -2 198.55 11.14
2 3 2 49.03 3.17
2 3 2 48.47 3.18
2 3 2 48.62 3.21
2 3 2 45.83 3.26
-2 -3 -2 49.28 3.18
-2 -3 -2 48.88 3.26
-2 -3 -2 49.04 3.09
-2 -3 -2 50.95 3.13
2 4 2 54.55 3.57
2 4 2 55.1 3.48
2 4 2 54.1 3.64
-2 -4 -2 46.14 3.46
-2 -4 -2 44.55 3.3
2 5 2 4.92 1.55
-2 -5 -2 4.43 1.35
-2 -5 -2 3.61 1.44
2 6 2 3.7 1.73
-2 -6 -2 2.93 1.51
3 -5 2 39.13 3.03
3 -5 2 41.9 3.29
-3 5 -2 35.2 2.54
-3 5 -2 37.7 3.16
3 -4 2 33.56 2.61
3 -4 2 33.99 2.49
-3 4 -2 32.16 2.67
-3 4 -2 31.65 2.21
-3 4 -2 30.04 2.61
3 -3 2 29.77 2.38
3 -3 2 29.65 2.25
3 -3 2 29.99 2.44
-3 3 -2 37.96 2.42
-3 3 -2 36.63 2.42
3 -2 2 3.2 0.81
3 -2 2 3.7 0.74
3 -2 2 3.88 0.68
3 -2 2 4 0.72
3 -2 2 3.62 0.77
-3 2 -2 5.24 0.69
-3 2 -2 5.15 0.81
-3 2 -2 5.24 0.73
3 -1 2 105.94 6.31
3 -1 2 96.37 6.1
3 -1 2 101.83 6.11
-3 1 -2 119.89 5.94
-3 1 -2 111.55 5.93
-3 1 -2 115.48 5.95
3 0 2 32.69 2.1
3 0 2 32.47 2.01
3 0 2 32 2.11
3 0 2 31.8 2.02
-3 0 -2 32.36 1.88
-3 0 -2 32.35 2.04
-3 0 -2 32.63 1.99
3 1 2 120.49 6.74
3 1 2 124.03 6.93
3 1 2 121.2 6.54
3 1 2 124.83 6.92
3 1 2 123.95 6.59
3 1 2 120.8 6.74
-3 -1 -2 99.87 6.52
3 2 2 5.82 0.93
3 2 2 6.72 0.84
3 2 2 5.08 0.88
3 2 2 6.19 0.9
-3 -2 -2 4.39 0.71
-3 -2 -2 4.55 0.84
-3 -2 -2 3.86 0.8
-3 -2 -2 5.28 0.77
3 3 2 37.39 2.47
3 3 2 38.04 2.59
3 3 2 38.08 2.57
3 3 2 37.88 2.44
-3 -3 -2 28.49 2.36
-3 -3 -2 28.18 2.42
-3 -3 -2 30.96 2.33
3 4 2 28.82 2.68
3 4 2 31.25 2.6
3 4 2 29.9 2.64
-3 -4 -2 33.83 2.62
-3 -4 -2 35.55 2.48
3 5 2 35.11 3.12
-3 -5 -2 40.56 2.97
-3 -5 -2 40.22 3.26
4 -5 2 3.35 1.43
-4 5 -2 2.15 1.41
4 -4 2 59.92 4.01
-4 4 -2 57.53 3.92
-4 4 -2 61.38 3.99
4 -3 2 32.38 2.66
4 -3 2 37.4 2.63
-4 3 -2 37.99 2.58
-4 3 -2 38.57 2.58
4 -2 2 132.98 6.72
4 -2 2 126.28 7.09
4 -2 2 126.52 6.87
4 -2 2 127.08 6.89
-4 2 -2 105.49 6.61
-4 2 -2 109.49 6.64
-4 2 -2 118.22 6.63
-4 2 -2 113.56 6.65
4 -1 2 71.48 3.97
4 -1 2 79.89 4.15
4 -1 2 68.57 3.96
-4 1 -2 62.12 3.83
-4 1 -2 63.97 3.84
-4 1 -2 64.7 3.86
4 0 2 4.32 0.61
4 0 2 3.23 0.82
4 0 2 4.96 0.7
4 0 2 4.66 0.62
-4 0 -2 3.84 0.68
-4 0 -2 4.05 0.49
-4 0 -2 4.56 0.57
4 1 2 66 4
4 1 2 63.09 3.84
4 1 2 66.52 4.11
4 1 2 64.64 3.98
4 1 2 66.45 4.08
-4 -1 -2 71.66 3.85
-4 -1 -2 73.52 3.89
-4 -1 -2 72.04 3.9
4 2 2 111.72 6.86
4 2 2 115.35 7.06
4 2 2 116.08 6.88
4 2 2 113.44 6.65
4 2 2 112.82 6.71
-4 -2 -2 126.02 6.7
-4 -2 -2 129.74 6.87
-4 -2 -2 127.67 6.65
4 3 2 35.57 2.55
4 3 2 36.32 2.68
-4 -3 -2 35.47 2.57
-4 -3 -2 35.8 2.53
-4 -3 -2 35.82 2.4
4 4 2 56.39 4.12
4 4 2 58.81 3.98
4 4 2 58.77 4
-4 -4 -2 62.98 3.77
-4 -4 -2 59.94 3.97
4 5 2 2.95 1.57
-4 -5 -2 1.32 1.4
-4 -5 -2 2.42 1.21
5 -5 2 18.65 2.39
-5 5 -2 20.26 2.35
-5 5 -2 19.61 2.23
5 -4 2 7.91 1.56
5 -4 2 9.71 1.51
-5 4 -2 9.7 1.46
-5 4 -2 9.9 1.48
5 -3 2 26.93 2.3
5 -3 2 32.21 2.27
-5 3 -2 28.12 2.23
-5 3 -2 27.68 2.2
5 -2 2 22.16 1.66
5 -2 2 18.25 1.67
5 -2 2 23.13 1.65
-5 2 -2 18.45 1.59
-5 2 -2 20.07 1.53
-5 2 -2 19.26 1.6
5 -1 2 29.68 1.9
5 -1 2 31.2 1.9
5 -1 2 29.42 1.86
-5 1 -2 24.14 1.76
-5 1 -2 26.47 1.84
-5 1 -2 26.08 1.79
5 0 2 23.65 1.7
5 0 2 25.52 1.8
5 0 2 23.6 1.63
5 0 2 23.49 1.64
-5 0 -2 22.91 1.6
-5 0 -2 24.85 1.69
-5 0 -2 24.51 1.51
5 1 2 24.61 1.82
5 1 2 25.83 1.9
5 1 2 23.81 1.84
5 1 2 25.14 1.84
-5 -1 -2 28.94 1.74
-5 -1 -2 27.73 1.79
-5 -1 -2 27.18 1.81
5 2 2 19.22 1.75
5 2 2 19.07 1.77
5 2 2 21.38 1.68
-5 -2 -2 21.01 1.62
-5 -2 -2 21.68 1.73
5 3 2 27.1 2.5
5 3 2 26.67 2.31
-5 -3 -2 34.93 2.39
-5 -3 -2 34.44 2.46
5 4 2 8.73 1.67
5 4 2 10 1.64
5 4 2 10.7 1.57
-5 -4 -2 8.99 1.47
-5 -4 -2 10.86 1.38
-5 -4 -2 10.02 1.63
5 5 2 16.66 2.25
5 5 2 21.03 2.51
-5 -5 -2 18.21 2.28
-5 -5 -2 16.51 1.87
6 -5 2 -0.72 1.31
-6 5 -2 0.58 1.32
-6 5 -2 0.05 1.23
6 -4 2 25.67 2.23
6 -4 2 19.49 2.28
-6 4 -2 20.32 2.13
-6 4 -2 19.82 2.27
6 -3 2 10.05 1.31
6 -3 2 8.77 1.4
-6 3 -2 12.48 1.51
-6 3 -2 12.07 1.53
6 -2 2 23.52 1.89
6 -2 2 22.31 2.05
-6 2 -2 28 1.9
-6 2 -2 27.21 1.88
-6 2 -2 26.76 1.82
6 -1 2 24.34 1.66
6 -1 2 24.3 1.72
6 -1 2 24.85 1.68
-6 1 -2 23.12 1.78
-6 1 -2 22.73 1.63
-6 1 -2 21.99 1.59
6 0 2 35.58 2.2
6 0 2 33.93 2.17
6 0 2 31.79 2.33
6 0 2 32.94 2.18
-6 0 -2 33.9 2.02
-6 0 -2 34.32 2.12
-6 0 -2 35.12 2.15
6 1 2 21.76 1.7
6 1 2 23.52 1.74
6 1 2 20.69 1.71
6 1 2 21.44 1.78
-6 -1 -2 24.07 1.67
-6 -1 -2 25.17 1.7
-6 -1 -2 24.29 1.61
6 2 2 27.94 2.09
6 2 2 27.03 2.1
-6 -2 -2 24.49 2.03
-6 -2 -2 23.85 1.92
6 3 2 10.86 1.55
-6 -3 -2 12.63 1.44
-6 -3 -2 11.91 1.5
6 4 2 23.5 2.53
-6 -4 -2 25.58 2.36
-6 -4 -2 23.76 2.42
6 5 2 0.31 1.63
6 5 2 1.55 1.5
-6 -5 -2 0.36 1.5
7 -5 2 11.09 1.94
-7 5 -2 13.31 1.88
-7 5 -2 11.7 1.83
7 -4 2 1.12 1.13
7 -4 2 0.52 1.32
-7 4 -2 1.56 1.14
-7 4 -2 1.33 1.07
7 -3 2 82.79 5.03
-7 3 -2 83.75 4.88
-7 3 -2 79.66 4.86
7 -2 2 30.63 2.21
7 -2 2 26.5 2.39
-7 2 -2 33.81 2.19
-7 2 -2 34.3 2.16
7 -1 2 31.79 2.26
7 -1 2 33.53 2.15
-7 1 -2 33.33 2.12
-7 1 -2 32.98 2.21
7 0 2 16.05 1.3
7 0 2 14.86 1.47
7 0 2 15.53 1.27
7 0 2 15.06 1.32
-7 0 -2 14.53 1.25
7 1 2 31.18 2.34
7 1 2 32.54 2.29
7 1 2 31.25 2.24
-7 -1 -2 35.16 2.16
-7 -1 -2 34.56 2.21
7 2 2 34.2 2.51
7 2 2 35.97 2.46
-7 -2 -2 29.62 2.3
-7 -2 -2 32.54 2.38
7 3 2 84.09 5.37
-7 -3 -2 89.21 5.24
-7 -3 -2 84.32 5.16
7 4 2 1.02 1.28
-7 -4 -2 0.85 1.29
-7 -4 -2 1.7 1.23
7 5 2 12.47 2.18
-7 -5 -2 12.38 2.08
8 -4 2 8.15 1.86
8 -4 2 15 1.88
-8 4 -2 12.34 1.65
-8 4 -2 13.08 1.62
8 -3 2 3.53 1.35
8 -3 2 5.32 1.14
-8 3 -2 7.72 1.16
-8 3 -2 6.07 1.1
8 -2 2 11.52 1.48
8 -2 2 11.25 1.39
-8 2 -2 16.34 1.38
-8 2 -2 14.26 1.43
8 -1 2 41.02 2.69
-8 1 -2 45.52 2.68
8 0 2 65.02 4.05
8 0 2 63.73 3.87
8 0 2 66.11 3.85
8 0 2 63.05 3.96
-8 0 -2 66.05 3.7
8 1 2 43.85 2.97
8 1 2 44.68 2.93
8 1 2 44.4 3.01
-8 -1 -2 46.06 2.85
-8 -1 -2 45.04 2.79
8 2 2 15.92 1.68
8 2 2 15.34 1.64
-8 -2 -2 11.73 1.55
-8 -2 -2 12.91 1.52
8 3 2 6.74 1.37
-8 -3 -2 5.35 1.22
-8 -3 -2 5.89 1.33
8 4 2 10.9 1.95
-8 -4 -2 17.46 2.09
-8 -4 -2 18.46 2.21
9 -4 2 2.51 1.62
9 -4 2 5.7 1.37
-9 4 -2 7.6 1.38
-9 4 -2 7.82 1.38
9 -3 2 43.87 3.13
-9 3 -2 47.19 2.99
-9 3 -2 44.35 3.01
9 -2 2 10.63 1.43
9 -2 2 9.9 1.31
-9 2 -2 10.06 1.17
9 -1 2 7.67 1.23
-9 1 -2 9.64 1.03
9 0 2 2.13 0.78
9 0 2 2.78 0.81
9 0 2 3.35 0.98
9 1 2 9.83 1.16
9 1 2 6.4 1.23
9 1 2 7.69 1.14
-9 -1 -2 10.04 1.16
-9 -1 -2 10.09 1.22
9 2 2 9.39 1.4
-9 -2 -2 11.1 1.35
-9 -2 -2 10.57 1.32
9 3 2 47.76 3.45
-9 -3 -2 45.08 3.27
-9 -3 -2 45.68 3.3
9 4 2 7.67 1.78
-9 -4 -2 7.96 1.7
-9 -4 -2 6.16 1.57
10 -3 2 4.75 1.32
10 -3 2 3.14 1.12
-10 3 -2 2.12 1
10 -2 2 25.73 2.31
-10 2 -2 29.94 2.1
10 -1 2 4.69 1.24
-10 1 -2 9.51 1.05
10 0 2 133.26 7.7
10 0 2 127.37 7.65
10 1 2 8.18 1.16
10 1 2 9.63 1.19
10 1 2 7.42 1.31
-10 -1 -2 6.83 1.02
10 2 2 31.86 2.44
-10 -2 -2 29.01 2.31
-10 -2 -2 26.17 2.26
10 3 2 1.8 1.37
-10 -3 -2 4.16 1.3
-10 -3 -2 4.26 1.31
11 -3 2 11.97 1.83
11 -3 2 12.44 1.69
-11 3 -2 14.19 1.61
11 -2 2 18.29 1.88
-11 2 -2 14.09 1.55
11 0 2 1.08 0.85
11 0 2 2.91 0.97
-11 0 -2 2.46 0.77
11 1 2 27.27 2.15
11 1 2 22.64 2.07
-11 -1 -2 26.14 1.99
11 2 2 17.33 2.13
-11 -2 -2 19.86 1.92
-11 -2 -2 21.25 2.02
11 3 2 12.73 1.88
-11 -3 -2 11.45 1.69
-11 -3 -2 13.01 1.75
12 -2 2 8.34 1.54
-12 2 -2 11.82 1.41
12 1 2 0.45 1.06
-12 -1 -2 0.83 0.9
12 2 2 13.42 1.7
-12 -2 -2 13.34 1.72
-12 -3 3 2.69 1.24
-12 -3 3 2.07 1.17
12 3 -3 2.47 1.3
-12 -2 3 28.82 2.28
12 2 -3 30.28 2.45
12 2 -3 32.81 2.41
-12 3 3 1.53 0.89
12 -3 -3 -0.49 1
-11 -3 3 8.81 1.4
-11 -3 3 6.8 1.4
11 3 -3 7.2 1.45
-11 -2 3 2.5 0.9
11 2 -3 2.81 0.99
11 2 -3 3.35 1.06
-11 3 3 6.66 1.03
11 -3 -3 7.04 1.11
11 -3 -3 4.14 1.17
-10 -4 3 10.75 1.69
-10 -4 3 14.07 1.82
10 4 -3 6.19 1.74
-10 -3 3 2.86 1.13
-10 -3 3 2.7 1.11
10 3 -3 2.97 1.25
-10 -2 3 15.85 1.59
-10 -2 3 17.98 1.6
10 2 -3 11.7 1.59
10 2 -3 14.92 1.65
10 1 -3 7.93 0.96
-10 0 3 80.38 5.52
-10 1 3 8.77 1.55
-10 2 3 13.65 1.93
-10 3 3 1.93 0.84
10 -3 -3 1.07 0.91
10 -3 -3 1.5 0.9
-10 4 3 7.12 1.32
10 -4 -3 11.89 1.71
10 -4 -3 10.24 1.5
-9 -4 3 9.98 1.66
-9 -4 3 9.62 1.59
9 4 -3 10.11 1.84
-9 -3 3 55.98 3.64
-9 -3 3 55.74 3.62
9 3 -3 54.5 3.81
-9 -2 3 1.05 0.74
-9 -2 3 2.62 0.86
9 2 -3 1.44 0.9
9 2 -3 1.05 0.85
9 1 -3 45.74 2.88
-9 0 3 2.29 1
-9 1 3 44.72 3.45
-9 2 3 1.32 1.06
9 -2 -3 1.04 0.66
-9 3 3 49.57 4.05
-9 3 3 51.71 3.28
-9 3 3 52.36 3.33
9 -3 -3 56.89 3.46
9 -3 -3 54.69 3.55
-9 4 3 8.51 1.35
9 -4 -3 8.76 1.51
9 -4 -3 7.79 1.4
-8 -5 3 0.27 1.48
8 5 -3 -1.51 1.46
-8 -4 3 23.25 2.38
-8 -4 3 23.58 2.34
8 4 -3 23.58 2.58
-8 -3 3 3.44 1.08
-8 -3 3 4.65 1.08
8 3 -3 4.02 1.17
-8 -2 3 4.71 0.92
-8 -2 3 4.08 0.86
8 2 -3 7.26 1.07
8 2 -3 7.83 1.11
8 1 -3 -0.21 0.52
8 1 -3 0.3 0.58
8 1 -3 0.24 0.58
-8 0 3 49.76 3.59
-8 1 3 1.39 0.82
-8 2 3 7 0.75
-8 2 3 7.82 1.36
-8 2 3 6.77 0.76
8 -2 -3 4.64 0.79
8 -2 -3 3.74 0.81
-8 3 3 3.07 1.24
-8 3 3 3.99 0.9
-8 3 3 4.44 0.99
8 -3 -3 4.57 1
8 -3 -3 4.87 1.04
-8 4 3 22.2 2.15
8 -4 -3 22.3 2.22
8 -4 -3 24.97 2.24
-8 5 3 0.96 1.31
8 -5 -3 -0.19 1.29
-7 -5 3 17.23 2.26
7 5 -3 17.99 2.47
-7 -4 3 6.82 1.39
-7 -4 3 7.11 1.49
7 4 -3 7.06 1.57
-7 -3 3 74.24 4.7
-7 -3 3 78.9 4.72
7 3 -3 79.77 4.91
-7 -2 3 24.81 1.9
-7 -2 3 20.94 1.81
7 2 -3 26.46 1.99
7 2 -3 25.21 1.98
7 1 -3 14.92 1.29
7 1 -3 15.93 1.24
7 1 -3 15.54 1.27
-7 0 3 0.78 0.74
-7 1 3 15.7 1.71
-7 2 3 23.41 1.59
-7 2 3 24.12 1.69
-7 2 3 23.36 2.21
-7 2 3 23.56 1.68
7 -2 -3 23.61 1.68
7 -2 -3 20.69 1.66
7 -2 -3 23.64 1.71
-7 3 3 74.08 4.5
-7 3 3 75.85 4.49
-7 3 3 78.09 5.2
7 -3 -3 74.94 4.77
7 -3 -3 77.86 4.65
-7 4 3 7.06 1.31
-7 4 3 8.58 1.55
7 -4 -3 5.8 1.42
7 -4 -3 7.45 1.38
-7 5 3 16.04 2
7 -5 -3 14.65 2.04
-6 -5 3 2.32 1.47
6 5 -3 -0.08 1.44
6 5 -3 1.5 1.43
-6 -4 3 14.35 1.79
-6 -4 3 14.06 1.7
6 4 -3 11.19 1.77
6 4 -3 13.04 1.68
-6 -3 3 31.1 2.42
-6 -3 3 32.6 2.48
6 3 -3 31.73 2.55
-6 -2 3 27.03 1.91
-6 -2 3 27.53 1.95
-6 -2 3 25.11 1.94
-6 -2 3 26.52 2.04
6 2 -3 24.43 2.03
6 2 -3 26.73 2.03
-6 -1 3 67.77 3.88
-6 -1 3 70.75 4.48
-6 -1 3 68.2 3.89
6 1 -3 68.6 4.12
6 1 -3 69.51 4
6 1 -3 70 4.02
-6 0 3 226.93 13.67
-6 1 3 68.22 4.5
-6 2 3 25.68 1.71
-6 2 3 24.57 1.77
-6 2 3 25.44 1.75
-6 2 3 24.86 1.78
-6 2 3 25.49 2.2
6 -2 -3 25.85 1.83
6 -2 -3 24.88 1.78
6 -2 -3 25.64 1.79
-6 3 3 27.46 2.44
-6 3 3 29.86 2.18
-6 3 3 27.7 2.17
6 -3 -3 31.41 2.24
6 -3 -3 28.19 2.21
-6 4 3 11.17 1.68
-6 4 3 13 1.58
6 -4 -3 12.08 1.7
6 -4 -3 14.52 1.82
-6 5 3 0.02 1.28
6 -5 -3 0.76 1.29
-5 -5 3 5.11 1.58
-5 -5 3 5.68 1.21
5 5 -3 3.84 1.49
5 5 -3 3.31 1.52
-5 -4 3 4.92 1.23
-5 -4 3 6.16 1.06
-5 -4 3 6.55 1.44
5 4 -3 5.97 1.42
5 4 -3 7.32 1.35
-5 -3 3 26.88 2.32
-5 -3 3 27.86 2.38
5 3 -3 31.7 2.34
5 3 -3 35.68 2.52
-5 -2 3 18.46 1.55
-5 -2 3 17.89 1.51
-5 -2 3 18.18 1.51
-5 -2 3 16.28 1.55
5 2 -3 19.65 1.59
5 2 -3 19.53 1.68
5 2 -3 19.78 1.64
5 2 -3 18.75 1.54
5 2 -3 19.18 1.58
-5 -1 3 122.93 7.68
-5 -1 3 122.44 6.86
-5 -1 3 121.21 6.85
5 1 -3 130.16 7.27
5 1 -3 129.38 7.08
5 1 -3 129.56 7.07
-5 0 3 33.78 2.47
-5 1 3 128.99 7.53
5 -1 -3 115.82 6.73
5 -1 -3 120.35 6.74
-5 2 3 20.95 1.52
-5 2 3 19.4 1.5
-5 2 3 20.25 1.45
-5 2 3 19.58 1.48
-5 2 3 20.49 1.82
5 -2 -3 18.03 1.44
5 -2 -3 16.97 1.47
5 -2 -3 18.88 1.52
-5 3 3 35.47 2.34
-5 3 3 37.03 2.6
5 -3 -3 26.89 2.36
5 -3 -3 29.35 2.33
-5 4 3 7.93 1.35
-5 4 3 7.23 1.3
5 -4 -3 6.73 1.39
5 -4 -3 5.98 1.29
-5 5 3 5.79 1.54
5 -5 -3 6.53 1.57
-4 -5 3 9.48 1.77
-4 -5 3 8.47 1.45
4 5 -3 7.77 1.61
-4 -4 3 55.12 3.84
-4 -4 3 56.6 3.56
-4 -4 3 56.6 3.75
4 4 -3 56.78 3.95
4 4 -3 56.11 3.74
-4 -3 3 10.36 1.28
-4 -3 3 11.6 1.26
-4 -3 3 12.65 1.51
4 3 -3 12.37 1.62
4 3 -3 11.68 1.44
-4 -2 3 160.97 9.47
-4 -2 3 160.52 9.21
-4 -2 3 160.65 10.03
-4 -2 3 157.24 9.22
4 2 -3 176.59 9.36
4 2 -3 180.56 9.26
4 2 -3 172.86 9.78
4 2 -3 174.16 9.54
4 2 -3 174.59 9.53
-4 -1 3 20.51 1.51
-4 -1 3 23.02 1.7
-4 -1 3 20.54 1.52
-4 -1 3 19.53 1.46
4 1 -3 21.8 1.6
4 1 -3 23.12 1.53
4 1 -3 22.41 1.54
-4 1 3 22.91 1.44
-4 1 3 22.89 1.35
-4 1 3 23.27 1.44
4 -1 -3 21.51 1.45
4 -1 -3 20.26 1.42
4 -1 -3 19.23 1.41
-4 2 3 169.55 9.2
-4 2 3 178.01 9.21
-4 2 3 176.02 9.22
-4 2 3 171.26 9.22
-4 2 3 183.44 10.32
4 -2 -3 162.18 9.29
4 -2 -3 163.32 9.75
4 -2 -3 163.24 9.5
4 -2 -3 157.56 9.48
-4 3 3 12.27 1.42
-4 3 3 11.47 1.47
4 -3 -3 10.33 1.41
4 -3 -3 10.84 1.29
4 -3 -3 12.16 1.44
-4 4 3 57.57 3.96
-4 4 3 57.67 3.82
4 -4 -3 57.39 3.9
-4 5 3 6.76 1.6
4 -5 -3 7.87 1.62
-3 -6 3 0.53 1.36
3 6 -3 0.23 1.65
3 6 -3 1.76 1.6
-3 -5 3 13.86 1.78
-3 -5 3 12.43 1.95
3 5 -3 13.22 1.82
-3 -4 3 11.05 1.4
-3 -4 3 10.3 1.56
3 4 -3 11 1.65
3 4 -3 10.51 1.45
-3 -3 3 20.27 1.85
-3 -3 3 20.96 1.71
-3 -3 3 19.8 1.83
-3 -3 3 21.56 1.86
-3 -2 3 21.9 1.6
-3 -2 3 25.95 1.71
-3 -2 3 25.67 1.78
-3 -2 3 24.03 1.81
-3 -2 3 26.63 1.77
3 2 -3 23.82 1.85
3 2 -3 21.99 1.83
3 2 -3 24.07 1.81
3 2 -3 22.73 1.84
-3 -1 3 390.06 22.79
-3 -1 3 408.61 22.81
3 1 -3 433.1 23.51
3 1 -3 439.16 23.18
3 1 -3 452.58 24.16
3 1 -3 428.14 23.51
3 1 -3 446.97 22.81
-3 0 3 0.18 0.38
-3 0 3 0.5 0.4
3 0 -3 0.36 0.35
3 0 -3 0.7 0.47
-3 1 3 410.15 21.24
-3 1 3 422 21.25
-3 1 3 407.08 21.24
3 -1 -3 378.53 21.89
3 -1 -3 386.1 21.9
3 -1 -3 392.26 22.49
-3 2 3 22.66 1.83
3 -2 -3 25.69 1.87
3 -2 -3 25.88 1.74
3 -2 -3 26.18 1.85
3 -2 -3 27.17 1.81
3 -2 -3 25.86 1.84
-3 3 3 30.98 2.13
-3 3 3 28.91 2.12
-3 3 3 32.07 1.86
3 -3 -3 21.5 2.02
3 -3 -3 23.67 1.99
3 -3 -3 22.01 2.08
-3 4 3 13.01 1.6
-3 4 3 13.11 1.48
3 -4 -3 10.94 1.54
3 -4 -3 14.04 1.61
-3 5 3 15.34 1.98
-3 5 3 15.28 1.68
3 -5 -3 12.02 1.89
3 -5 -3 13.77 1.87
-3 6 3 -0.81 1.61
3 -6 -3 -0.25 1.59
-2 -6 3 3.01 1.54
2 6 -3 2.94 1.67
-2 -5 3 4.7 1.39
-2 -5 3 4.35 1.55
2 5 -3 4.2 1.32
-2 -4 3 25.65 2.38
-2 -4 3 25.81 2.55
2 4 -3 37.22 2.58
2 4 -3 35.98 2.76
2 4 -3 36.54 2.71
-2 -3 3 5.58 1
-2 -3 3 5.83 0.92
-2 -3 3 5.83 1
-2 -3 3 5.09 0.93
2 3 -3 4.04 0.9
2 3 -3 4.82 1.05
2 3 -3 4.28 1.01
-2 -2 3 93.69 5.63
-2 -2 3 101.35 5.8
-2 -2 3 101.19 5.63
-2 -2 3 98.2 5.66
2 2 -3 102.3 5.82
2 2 -3 99.94 5.65
2 2 -3 100.88 5.95
2 2 -3 103.51 5.7
-2 -1 3 30.42 1.94
-2 -1 3 28.28 1.92
-2 -1 3 29.93 1.85
2 1 -3 30.26 1.97
2 1 -3 29.86 1.9
2 1 -3 31.19 1.97
2 1 -3 30.03 1.91
-2 0 3 38.58 2.33
-2 0 3 40.69 2.32
-2 0 3 40.17 2.22
2 0 -3 39.27 2.38
2 0 -3 38.83 2.31
2 0 -3 37.37 2.37
-2 1 3 28.89 1.83
-2 1 3 30.48 1.69
-2 1 3 29.31 1.88
2 -1 -3 29.28 1.92
2 -1 -3 30.02 1.79
2 -1 -3 29.1 1.84
2 -1 -3 26.89 1.86
2 -1 -3 27.8 1.85
-2 2 3 104.36 5.73
-2 2 3 106.13 5.7
-2 2 3 102.58 5.86
2 -2 -3 100.58 5.87
2 -2 -3 101.3 6.03
2 -2 -3 97.83 5.69
2 -2 -3 100.01 5.75
-2 3 3 4.98 0.98
-2 3 3 4.22 0.84
-2 3 3 4.16 0.93
2 -3 -3 5.44 1.08
2 -3 -3 6.85 1
2 -3 -3 5.25 0.97
2 -3 -3 6.79 0.97
-2 4 3 34.84 2.31
-2 4 3 35.19 2.57
2 -4 -3 25.94 2.45
2 -4 -3 24.11 2.33
-2 5 3 3.73 1.48
-2 5 3 4.58 1.3
2 -5 -3 5.39 1.51
2 -5 -3 5.3 1.54
-2 6 3 1.78 1.34
-2 6 3 2.03 1.73
-1 -6 3 5.06 1.67
1 6 -3 4.16 1.68
-1 -5 3 29.62 2.68
1 5 -3 29.95 2.62
1 5 -3 29.2 2.6
1 5 -3 33.12 2.91
-1 -4 3 23.41 2.21
-1 -4 3 25.75 2.29
-1 -4 3 24.57 2.13
1 4 -3 24.03 2.14
1 4 -3 23.39 2.32
1 4 -3 24.19 2.27
-1 -3 3 27.82 2.13
-1 -3 3 30.24 2.05
-1 -3 3 25.65 1.98
-1 -3 3 26.85 2.05
-1 -3 3 26.18 2.14
1 3 -3 24.99 2.19
1 3 -3 26.53 2.18
1 3 -3 25.63 2.13
1 3 -3 26.22 2.04
-1 -2 3 7.79 0.87
-1 -2 3 7.36 1
-1 -2 3 6.34 0.9
-1 -2 3 6.78 0.83
-1 -2 3 8.27 0.95
1 2 -3 5.64 0.79
1 2 -3 5.57 0.89
1 2 -3 3.83 0.82
1 2 -3 5 0.89
-1 -1 3 415.68 24.22
-1 -1 3 408.87 23.27
-1 -1 3 389.12 22.87
-1 -1 3 420.52 23.59
1 1 -3 476.33 24.26
1 1 -3 460.44 22.9
1 1 -3 435.94 23.6
1 1 -3 432.87 23.28
-1 0 3 1.31 0.44
-1 0 3 1.93 0.43
-1 0 3 1.43 0.58
1 0 -3 2.04 0.45
1 0 -3 2.24 0.56
1 0 -3 1.76 0.47
1 0 -3 1.41 0.49
1 0 -3 1.7 0.47
1 0 -3 1.69 0.57
-1 1 3 431.89 22.97
-1 1 3 458.48 23.37
-1 1 3 447.29 23.69
1 -1 -3 414.32 24.32
1 -1 -3 430.91 24.33
1 -1 -3 428.7 23.37
1 -1 -3 423.17 23.69
1 -1 -3 419.03 22.98
-1 2 3 6.14 0.84
-1 2 3 5.09 0.87
-1 2 3 4.35 0.83
1 -2 -3 8.41 1.06
1 -2 -3 6.81 0.91
1 -2 -3 7.48 0.94
1 -2 -3 7.16 0.89
-1 3 3 29.69 2.19
-1 3 3 26.4 2.02
-1 3 3 25.92 2.19
1 -3 -3 29.02 2.24
1 -3 -3 26.75 2.14
1 -3 -3 30.17 2.15
1 -3 -3 27.39 2.06
-1 4 3 23.32 2.26
-1 4 3 23.38 2.08
1 -4 -3 26.43 2.15
1 -4 -3 23.07 2.24
-1 5 3 30.32 2.94
-1 5 3 28.07 2.56
1 -5 -3 34.42 2.71
-1 6 3 3 1.76
-1 6 3 5.01 1.57
1 -6 -3 4.1 1.68
0 -6 3 12.56 1.97
0 6 -3 8.81 1.79
0 -5 3 10.75 1.71
0 5 -3 8.2 1.76
0 5 -3 8.88 1.56
0 -4 3 54.76 3.61
0 -4 3 57.83 3.58
0 -4 3 56.71 3.71
0 4 -3 49.06 3.64
0 4 -3 49.5 3.46
0 -3 3 23.68 1.76
0 -3 3 20.67 1.88
0 -3 3 22.24 1.73
0 -3 3 21.83 1.86
0 -3 3 21.99 1.79
0 3 -3 18.47 1.82
0 3 -3 20.09 1.9
0 3 -3 18.97 1.77
0 3 -3 17.34 1.84
0 -2 3 229.13 12.4
0 -2 3 217.78 11.65
0 -2 3 224.44 12.06
0 -2 3 217.69 11.85
0 -2 3 226.47 11.7
0 2 -3 205.17 11.69
0 2 -3 210.17 11.66
0 2 -3 206.45 12.03
0 2 -3 200.58 11.82
0 -1 3 15.96 1.3
0 -1 3 13.87 1.26
0 -1 3 13.48 1.2
0 -1 3 14.61 1.28
0 1 -3 18.16 1.26
0 1 -3 17.9 1.29
0 1 -3 16.31 1.31
0 1 -3 17.56 1.3
0 0 3 1.04 0.64
0 0 3 1.89 0.64
0 0 3 1.79 0.56
0 0 3 1.34 0.54
0 0 3 0.97 0.52
0 0 -3 1.46 0.52
0 0 -3 1.47 0.63
0 0 -3 0.74 0.56
0 0 -3 1.08 0.45
0 0 -3 1.69 0.63
0 0 -3 1.27 0.53
0 1 3 19.23 1.41
0 1 3 17.6 1.33
0 1 3 17.79 1.34
0 1 3 17.99 1.36
0 -1 -3 17.05 1.33
0 -1 -3 16.24 1.29
0 -1 -3 18.27 1.36
0 -1 -3 16.3 1.38
0 -1 -3 14.5 1.3
0 -1 -3 16.71 1.37
0 2 3 208.53 11.99
0 2 3 210.77 11.85
0 2 3 204.24 12.18
0 -2 -3 232.27 12.55
0 -2 -3 218.99 11.84
0 -2 -3 221.26 12.2
0 -2 -3 223.78 11.82
0 -2 -3 225.15 12
0 3 3 19.36 1.89
0 3 3 20.2 1.89
0 3 3 17.72 1.76
0 -3 -3 21.17 1.81
0 -3 -3 23.13 1.86
0 -3 -3 21.88 1.74
0 -3 -3 21.31 1.76
0 -3 -3 22.38 1.89
0 4 3 48.23 3.54
0 4 3 48.82 3.65
0 -4 -3 59.63 3.77
0 -4 -3 57.88 3.59
0 -4 -3 55.25 3.64
0 5 3 7.69 1.56
0 5 3 10.12 1.85
0 -5 -3 8.81 1.61
0 6 3 11.36 1.94
0 -6 -3 13.69 2.04
1 -6 3 6.14 1.84
-1 6 -3 5.28 1.85
-1 6 -3 3.59 1.48
1 -5 3 46.01 3.61
1 -5 3 48.51 3.44
-1 5 -3 43.3 3.26
-1 5 -3 46.21 3.59
1 -4 3 7.38 1.25
1 -4 3 7.04 1.31
-1 4 -3 5.41 1.12
-1 4 -3 4.22 1.28
-1 4 -3 5.51 1.19
-1 4 -3 5.53 1.17
1 -3 3 49.43 2.88
1 -3 3 46.66 3.06
1 -3 3 47.71 2.97
1 -3 3 48.03 2.85
-1 3 -3 37.3 2.75
-1 3 -3 39.11 2.91
-1 3 -3 39.68 2.87
-1 3 -3 38.28 2.93
1 -2 3 15.87 1.43
1 -2 3 16.78 1.4
1 -2 3 15.25 1.32
1 -2 3 16.11 1.42
-1 2 -3 11.61 1.25
-1 2 -3 13.08 1.36
-1 2 -3 11.64 1.38
-1 2 -3 11.53 1.36
1 -1 3 50.19 2.83
1 -1 3 52.36 2.94
1 -1 3 50.72 2.84
1 -1 3 52.77 2.8
1 -1 3 50.88 2.77
-1 1 -3 36.45 2.73
-1 1 -3 36.74 2.71
1 0 3 126.56 7.26
1 0 3 131.76 7.41
1 0 3 133.31 7.45
1 0 3 133.16 7.09
1 0 3 128.33 7.23
1 0 3 126.12 7.07
-1 0 -3 127.21 7.24
-1 0 -3 128.16 6.99
-1 0 -3 128.23 7.05
-1 0 -3 127.9 7.06
1 1 3 37.36 2.59
1 1 3 39.11 2.59
1 1 3 38.58 2.63
1 1 3 38.79 2.52
1 1 3 37.23 2.5
-1 -1 -3 50.71 2.49
-1 -1 -3 46.94 2.49
1 2 3 10.66 1.32
1 2 3 11.77 1.41
1 2 3 12.36 1.45
1 2 3 11.5 1.47
-1 -2 -3 16.81 1.45
-1 -2 -3 14.76 1.4
-1 -2 -3 15.34 1.4
-1 -2 -3 16.74 1.34
-1 -2 -3 15.34 1.33
1 3 3 38.4 3.07
1 3 3 38.3 2.96
1 3 3 39.36 3.03
-1 -3 -3 50.68 2.96
-1 -3 -3 49.41 2.98
-1 -3 -3 49.64 3.01
-1 -3 -3 52.19 3.11
1 4 3 4.26 1.27
1 4 3 4.45 1.32
1 4 3 4.29 1.31
-1 -4 -3 7.43 1.33
-1 -4 -3 8.15 1.29
1 5 3 45.14 3.39
-1 -5 -3 44.61 3.31
1 6 3 4.37 1.71
-1 -6 -3 6.5 1.72
2 -6 3 19.23 2.47
-2 6 -3 17.9 2.48
-2 6 -3 19.41 2.05
2 -5 3 10.88 1.85
2 -5 3 9.54 1.69
-2 5 -3 12.83 1.9
-2 5 -3 12.55 1.51
2 -4 3 34.99 2.68
2 -4 3 35.75 2.53
-2 4 -3 28.39 2.68
-2 4 -3 31.42 2.36
-2 4 -3 28.94 2.59
2 -3 3 13.3 1.46
2 -3 3 12.99 1.55
2 -3 3 12.37 1.48
2 -3 3 12.41 1.57
-2 3 -3 15.6 1.63
-2 3 -3 18.28 1.65
-2 3 -3 17.87 1.42
-2 3 -3 17.66 1.46
2 -2 3 99.91 6.08
2 -2 3 95.61 6.2
2 -2 3 100.47 6.03
2 -2 3 107.91 6.42
-2 2 -3 115.17 6.04
-2 2 -3 116.08 6.21
-2 2 -3 116.86 6
-2 2 -3 110.82 6.04
2 -1 3 33.36 2.05
2 -1 3 31.94 1.97
2 -1 3 32.28 1.98
2 -1 3 35.05 2.11
2 -1 3 31.87 2.04
-2 1 -3 28.54 2
-2 1 -3 28.1 2
-2 1 -3 28.86 2
2 0 3 69.88 4.12
2 0 3 71.51 3.9
2 0 3 70.41 4.18
2 0 3 67.79 4.04
2 0 3 69.87 3.98
-2 0 -3 68.44 3.96
-2 0 -3 68.49 3.87
-2 0 -3 69.45 4.02
2 1 3 28.21 2.03
2 1 3 32.92 2.15
2 1 3 30.45 2.13
2 1 3 29.07 2.02
2 1 3 29.97 2.1
-2 -1 -3 32.9 2.06
-2 -1 -3 32.7 1.96
-2 -1 -3 34.12 2
-2 -1 -3 32.47 2.04
2 2 3 111.57 6.12
2 2 3 116.62 6.17
2 2 3 117.02 6.32
2 2 3 117.01 6.47
-2 -2 -3 100.1 6.06
-2 -2 -3 101.52 6.26
-2 -2 -3 102.71 6.1
-2 -2 -3 100.37 6.1
2 3 3 19.67 1.78
2 3 3 17.94 1.78
2 3 3 17.38 1.62
-2 -3 -3 14.33 1.6
-2 -3 -3 13.6 1.47
-2 -3 -3 13.01 1.61
-2 -3 -3 13.42 1.61
2 4 3 29.48 2.74
2 4 3 29.64 2.7
2 4 3 30.65 2.6
-2 -4 -3 34.25 2.64
-2 -4 -3 35.82 2.49
2 5 3 11.04 1.82
-2 -5 -3 10.1 1.67
-2 -5 -3 11.14 1.84
2 6 3 16.84 2.34
-2 -6 -3 17.75 2.3
3 -5 3 8.05 1.67
3 -5 3 12.06 1.87
-3 5 -3 10.13 1.81
3 -4 3 1.44 1.14
3 -4 3 0.64 1.04
-3 4 -3 0.54 0.73
-3 4 -3 0.7 0.97
-3 4 -3 -0.89 1.07
3 -3 3 41.33 2.78
3 -3 3 39.43 2.87
3 -3 3 39.56 2.65
-3 3 -3 37.78 2.71
-3 3 -3 38.5 2.71
3 -2 3 157.03 9.66
3 -2 3 166.54 9.21
3 -2 3 165.35 9.39
3 -2 3 162.81 9.39
3 -2 3 169.17 9.11
-3 2 -3 165.46 9.09
-3 2 -3 177.34 9.11
3 -1 3 160.8 8.42
3 -1 3 162.74 8.6
3 -1 3 160.96 8.82
3 -1 3 150.64 8.58
3 -1 3 160.59 8.82
-3 1 -3 139.47 8.31
-3 1 -3 144.62 8.32
-3 1 -3 146.13 8.33
3 0 3 142.15 7.79
3 0 3 131.55 7.58
3 0 3 147.27 7.86
3 0 3 136.82 7.62
-3 0 -3 123.1 7.35
-3 0 -3 133.61 7.31
-3 0 -3 131.77 7.39
3 1 3 140.76 8.16
3 1 3 148.54 8.26
3 1 3 152.09 8.45
3 1 3 148.92 8.66
3 1 3 145.14 8.25
3 1 3 147.77 8.65
-3 -1 -3 153.45 8.18
-3 -1 -3 158.05 8.17
-3 -1 -3 153.4 8.4
3 2 3 185.6 9.83
3 2 3 186.3 9.83
3 2 3 177.57 9.69
3 2 3 179.78 10.28
3 2 3 186.38 10.03
-3 -2 -3 165.15 9.7
-3 -2 -3 168.23 9.72
-3 -2 -3 171.78 9.69
-3 -2 -3 170.8 9.98
3 3 3 38.13 2.82
3 3 3 39.13 2.77
3 3 3 40.29 2.9
3 3 3 39.5 2.82
-3 -3 -3 40.88 2.65
-3 -3 -3 41.24 2.81
-3 -3 -3 39.29 2.75
3 4 3 0.16 1.19
3 4 3 0.71 1.12
-3 -4 -3 0.56 1
-3 -4 -3 0.3 1.09
3 5 3 10.07 1.84
-3 -5 -3 9.37 1.82
-3 -5 -3 11.67 1.67
4 -5 3 1.22 1.37
-4 5 -3 1.69 1.38
4 -4 3 10.94 1.55
-4 4 -3 8.13 1.41
-4 4 -3 8.42 1.47
4 -3 3 7.61 1.34
4 -3 3 9.44 1.27
-4 3 -3 13.56 1.51
-4 3 -3 11.52 1.27
4 -2 3 21.1 1.76
4 -2 3 22.35 1.92
4 -2 3 20.99 1.67
4 -2 3 22.49 1.86
-4 2 -3 25.91 1.73
-4 2 -3 24.5 1.73
-4 2 -3 24.69 1.78
4 -1 3 53.73 3.24
4 -1 3 53.25 3.18
4 -1 3 54.71 3.18
-4 1 -3 49.83 3.07
-4 1 -3 52.5 3.09
-4 1 -3 50.17 3.1
4 0 3 381.52 21.47
4 0 3 411.31 22.06
4 0 3 381.86 21.5
-4 0 -3 397.84 20.86
-4 0 -3 381.17 20.81
-4 0 -3 387.78 20.79
4 1 3 52.84 3.27
4 1 3 53.44 3.35
4 1 3 51.42 3.11
4 1 3 52.52 3.33
-4 -1 -3 53.69 3.17
-4 -1 -3 53.24 3.14
-4 -1 -3 54.44 3.13
4 2 3 26.96 1.93
4 2 3 25.28 1.92
4 2 3 25.02 1.89
4 2 3 24.58 1.79
-4 -2 -3 20.93 1.78
-4 -2 -3 22.45 1.8
-4 -2 -3 21.6 1.48
-4 -2 -3 21.98 1.85
4 3 3 11.57 1.37
4 3 3 11.88 1.48
4 3 3 13.09 1.45
-4 -3 -3 9.92 1.12
-4 -3 -3 9.23 1.36
-4 -3 -3 8.97 1.26
4 4 3 9.12 1.6
4 4 3 8.91 1.67
-4 -4 -3 12.6 1.44
-4 -4 -3 12.34 1.69
4 5 3 2.01 1.58
-4 -5 -3 1.49 1.45
-4 -5 -3 0.9 1.15
5 -5 3 4.05 1.51
-5 5 -3 3.13 1.47
-5 5 -3 4.81 1.44
5 -4 3 1.08 1.16
-5 4 -3 1.52 1.07
-5 4 -3 2.33 1.17
5 -3 3 84.79 5.11
5 -3 3 74.17 5.24
-5 3 -3 89.32 4.97
-5 3 -3 84.97 4.95
5 -2 3 14.8 1.65
5 -2 3 13.7 1.45
-5 2 -3 16.67 1.44
-5 2 -3 19.41 1.53
5 -1 3 47.45 2.9
5 -1 3 48.61 2.92
5 -1 3 46.03 2.97
-5 1 -3 46.54 2.81
-5 1 -3 48.26 2.88
-5 1 -3 43.61 2.8
5 0 3 59.8 3.62
5 0 3 60.88 3.8
5 0 3 64.28 3.72
5 0 3 59.54 3.65
-5 0 -3 59.92 3.45
-5 0 -3 61.41 3.53
-5 0 -3 58.9 3.55
5 1 3 46.23 2.93
5 1 3 46.14 3
5 1 3 47.36 2.99
5 1 3 44.97 2.77
-5 -1 -3 48.11 2.81
-5 -1 -3 45.85 2.83
-5 -1 -3 46.27 2.86
5 2 3 19.58 1.69
5 2 3 19.25 1.61
5 2 3 18.3 1.68
-5 -2 -3 15.3 1.6
-5 -2 -3 14.53 1.54
5 3 3 85.37 5.19
5 3 3 90.41 5.38
5 3 3 87.05 5.2
-5 -3 -3 87.15 5.22
-5 -3 -3 80.82 5.13
5 4 3 2.16 1.35
5 4 3 2.03 1.24
-5 -4 -3 1.04 1.16
-5 -4 -3 1.06 0.88
-5 -4 -3 1.05 1.26
5 5 3 5.49 1.81
-5 -5 -3 2.59 1.09
-5 -5 -3 5.01 1.66
6 -5 3 9.21 1.77
-6 5 -3 11.18 1.75
-6 5 -3 9.13 1.77
6 -4 3 10.78 1.66
-6 4 -3 12.66 1.62
-6 4 -3 14.75 1.87
6 -3 3 4.81 1.08
6 -3 3 4.08 1.31
-6 3 -3 3.93 0.98
-6 3 -3 4.28 1.04
6 -2 3 29.79 2.49
-6 2 -3 41.87 2.48
-6 2 -3 43.39 2.57
6 -1 3 4.71 0.93
6 -1 3 5.93 0.84
6 -1 3 5.77 0.82
-6 1 -3 4.31 0.85
-6 1 -3 5.43 0.79
-6 1 -3 5.39 0.78
6 0 3 224.57 12.52
6 0 3 231.01 12.92
6 0 3 224.17 12.53
6 0 3 224.68 12.85
-6 0 -3 218.94 12.1
-6 0 -3 224.21 12.09
-6 0 -3 225.97 12.14
6 1 3 4.58 0.87
6 1 3 5.58 0.99
6 1 3 3.7 0.81
6 1 3 4.79 0.85
-6 -1 -3 6.55 0.87
-6 -1 -3 6.03 0.79
6 2 3 42.66 2.76
6 2 3 45.38 2.76
-6 -2 -3 32.33 2.52
-6 -2 -3 31.71 2.56
6 3 3 4.25 1.25
-6 -3 -3 5.66 1.26
-6 -3 -3 6.32 1.22
6 4 3 15.04 1.93
-6 -4 -3 10.49 1.67
-6 -4 -3 11.39 1.79
6 5 3 12.08 2.12
6 5 3 11.61 2.11
-6 -5 -3 12.58 2.08
-7 5 -3 5.96 1.63
-7 5 -3 5.21 1.52
7 -4 3 9.45 1.96
7 -4 3 16.62 2
-7 4 -3 14.72 1.89
-7 4 -3 15.67 1.78
7 -3 3 20.76 2.55
7 -3 3 23.57 2.22
-7 3 -3 34.22 2.28
-7 3 -3 32.84 2.27
7 -2 3 8.71 1.25
7 -2 3 8.7 1.25
7 -2 3 9.57 1.23
-7 2 -3 6.05 0.97
-7 2 -3 6.29 1.02
7 -1 3 71.25 4.43
-7 1 -3 75.51 4.26
-7 1 -3 78.17 4.34
7 0 3 0.2 0.87
7 0 3 0.28 0.64
7 0 3 0.87 0.67
7 0 3 0.59 0.69
-7 0 -3 0.15 0.52
-7 0 -3 0.67 0.67
7 1 3 76.45 4.62
7 1 3 77.07 4.66
7 1 3 77.13 4.51
-7 -1 -3 72.37 4.38
-7 -1 -3 71.26 4.32
7 2 3 6.17 1.2
7 2 3 5.84 1.16
-7 -2 -3 7.69 1.11
-7 -2 -3 7.49 1.15
7 3 3 34.42 2.6
-7 -3 -3 26.31 2.37
-7 -3 -3 26.32 2.44
7 4 3 15.41 2.06
-7 -4 -3 16.42 2.14
-7 -4 -3 15.31 2.04
-7 -5 -3 2.81 1.66
8 -4 3 5.29 1.72
8 -4 3 8.09 1.54
-8 4 -3 8.28 1.44
-8 4 -3 9.46 1.49
8 -3 3 3.99 1.41
8 -3 3 8.58 1.27
-8 3 -3 6.18 1.14
-8 3 -3 6.05 1.18
8 -2 3 13.67 1.62
8 -2 3 13.88 1.49
-8 2 -3 14.72 1.47
-8 2 -3 15.41 1.59
8 -1 3 11.96 1.33
8 -1 3 12.29 1.55
-8 1 -3 17.18 1.45
8 0 3 60.79 3.65
8 0 3 53.82 3.67
8 0 3 60.79 3.81
-8 0 -3 58.11 3.46
-8 0 -3 59.28 3.44
8 1 3 16.09 1.54
8 1 3 16.84 1.59
8 1 3 17.5 1.67
-8 -1 -3 12.65 1.42
-8 -1 -3 11.83 1.53
8 2 3 15.39 1.77
-8 -2 -3 13.65 1.63
-8 -2 -3 12.94 1.6
8 3 3 8.07 1.54
-8 -3 -3 10.22 1.54
-8 -3 -3 10.1 1.48
8 4 3 10.86 1.88
-8 -4 -3 8.73 1.75
-8 -4 -3 9.49 1.7
9 -4 3 11.22 1.71
9 -4 3 13.74 2.08
-9 4 -3 12.43 1.64
-9 4 -3 12.05 1.61
9 -3 3 11.75 1.68
9 -3 3 11.46 1.44
-9 3 -3 8.18 1.3
-9 3 -3 8.08 1.27
9 -2 3 26.02 1.95
9 -2 3 25.29 2.17
-9 2 -3 22.14 1.95
-9 2 -3 20.34 1.77
9 -1 3 11.02 1.23
9 -1 3 7.64 1.37
-9 1 -3 11.72 1.36
9 0 3 0.61 1.01
9 0 3 0.31 0.8
9 0 3 1.05 0.81
-9 0 -3 0.9 0.68
9 1 3 8.68 1.36
9 1 3 10.1 1.4
9 1 3 9.48 1.25
-9 -1 -3 11.26 1.3
-9 -1 -3 10.72 1.33
9 2 3 21.94 2.19
-9 -2 -3 26.31 2.09
-9 -2 -3 24.38 2.13
9 3 3 7.76 1.68
-9 -3 -3 13.35 1.66
-9 -3 -3 13.84 1.71
9 4 3 15.31 2.15
-9 -4 -3 12.06 1.83
-9 -4 -3 10.88 1.86
10 -3 3 3.16 1.4
10 -3 3 3.29 1.15
-10 3 -3 1.51 0.97
10 -2 3 13.66 1.82
10 -2 3 15.56 1.59
-10 2 -3 12.19 1.57
10 -1 3 9.23 1.44
10 0 3 1.38 0.9
10 0 3 2.18 1.06
-10 0 -3 1.26 0.74
10 1 3 14.4 1.63
10 1 3 15.95 1.74
10 1 3 11.89 1.69
-10 -1 -3 13.97 1.52
10 2 3 15.97 2.08
-10 -2 -3 17.85 1.83
-10 -2 -3 18.93 1.99
10 3 3 2.94 1.43
-10 -3 -3 3.05 1.32
-10 -3 -3 4.29 1.28
11 -2 3 6.12 1.47
-11 2 -3 9.5 1.24
11 -1 3 10.52 1.6
-11 1 -3 14 1.51
11 0 3 1.01 0.92
11 0 3 1.81 1.09
-11 0 -3 2.1 0.86
11 1 3 14.7 1.77
11 1 3 14.97 1.78
11 1 3 8.49 1.54
-11 -1 -3 13 1.58
11 2 3 10.35 1.59
-11 -2 -3 10.35 1.46
-11 -2 -3 11.03 1.52
12 -1 3 13.33 1.73
-12 1 -3 16.02 1.58
12 0 3 2.1 1.06
12 0 3 1.49 0.98
-12 0 -3 1.67 0.93
-12 -1 -3 14.09 1.64
-13 -2 4 4.57 1.09
13 2 -4 5.76 1.22
13 2 -4 5 1.15
-12 -3 4 0.73 1.1
-12 -3 4 0.8 1.15
12 3 -4 1.19 1.21
-12 -2 4 5.41 1.06
12 2 -4 7.78 1.2
12 2 -4 5.21 1.2
12 -3 -4 0.56 1
-11 -3 4 54.44 3.64
-11 -3 4 52.09 3.57
11 3 -4 54.98 3.81
-11 -2 4 4.15 0.99
11 2 -4 4.34 1.1
11 2 -4 4.89 1.09
-11 0 4 11.14 1.76
-11 1 4 9.61 1.75
-11 2 4 5.34 1.54
11 -3 -4 48.49 3.29
-10 -4 4 7.99 1.59
-10 -4 4 5.21 1.47
10 4 -4 6.1 1.72
-10 -3 4 3.69 1.14
-10 -3 4 3.01 1.15
10 3 -4 5.35 1.32
-10 -2 4 10.52 1.19
-10 -2 4 9.77 1.17
10 2 -4 8 1.29
10 2 -4 7.89 1.2
-10 -1 4 14.09 1.92
-10 0 4 25.9 2.51
-10 1 4 14.08 1.95
-10 2 4 6.37 1.46
-10 3 4 3.55 1.46
-10 3 4 3.74 0.89
10 -3 -4 3.22 0.98
10 -3 -4 4.74 1.06
-10 4 4 6.08 1.21
10 -4 -4 6.93 1.4
10 -4 -4 6.08 1.34
-9 -4 4 7.19 1.53
-9 -4 4 6.6 1.51
9 4 -4 9.2 1.76
-9 -3 4 35.69 2.7
-9 -3 4 35.17 2.75
9 3 -4 38.94 2.87
-9 -2 4 8.43 1.12
-9 -2 4 9.96 1.12
9 2 -4 7.7 1.18
9 2 -4 8.06 1.21
-9 -1 4 25.19 2.35
9 1 -4 25.3 1.83
-9 0 4 4.64 1.16
-9 1 4 24.59 2.37
-9 2 4 7.79 1.46
9 -2 -4 8.63 1.05
-9 3 4 38.04 2.49
-9 3 4 38.78 3.2
-9 3 4 38.68 2.45
9 -3 -4 33.63 2.55
9 -3 -4 32.87 2.63
-9 4 4 5.41 1.6
-9 4 4 5.97 1.26
9 -4 -4 5.93 1.4
9 -4 -4 6.3 1.33
-8 -5 4 2.5 1.6
8 5 -4 2.73 1.67
-8 -4 4 10.04 1.63
-8 -4 4 11.55 1.73
8 4 -4 13.93 1.92
-8 -3 4 1.78 1
-8 -3 4 2.19 1.06
8 3 -4 2.09 1.12
-8 -2 4 118.07 6.76
-8 -2 4 115.59 7.52
-8 -2 4 109.22 6.73
8 2 -4 127.66 7.2
8 2 -4 130.6 7.03
-8 -1 4 19.54 1.93
8 1 -4 19.34 1.44
8 1 -4 17.99 1.5
8 1 -4 18.35 1.46
-8 0 4 72.4 4.87
-8 1 4 21.04 2.1
-8 2 4 121.62 6.43
-8 2 4 118.94 7.55
8 -2 -4 114.65 6.63
8 -2 -4 111.7 6.82
-8 3 4 3.03 1.23
-8 3 4 1.76 0.89
8 -3 -4 2.46 0.92
8 -3 -4 2.6 0.9
-8 4 4 12.5 1.52
-8 4 4 11.4 1.85
8 -4 -4 9.28 1.59
8 -4 -4 10.42 1.54
-8 5 4 2.34 1.38
8 -5 -4 3.39 1.48
-7 -5 4 2.44 1.55
7 5 -4 3.71 1.63
-7 -4 4 6.07 1.36
-7 -4 4 7.27 1.54
7 4 -4 6.02 1.56
-7 -3 4 48.91 3.35
-7 -3 4 49.33 3.28
7 3 -4 49.35 3.49
-7 -2 4 36.13 2.4
-7 -2 4 37.39 2.43
-7 -2 4 36.64 2.64
7 2 -4 32.67 2.54
7 2 -4 36.35 2.55
-7 -1 4 110.24 5.92
-7 -1 4 106.03 5.89
-7 -1 4 112.8 5.93
-7 -1 4 110.01 6.78
7 1 -4 107.69 6.11
7 1 -4 98.93 6.27
7 1 -4 108.27 6.13
-7 0 4 37.33 2.82
-7 1 4 105.63 6.74
-7 2 4 33.47 2.15
-7 2 4 32.76 2.77
-7 2 4 32.72 2.2
-7 2 4 32.86 2.19
7 -2 -4 35.85 2.32
7 -2 -4 35.52 2.22
7 -2 -4 37.43 2.28
-7 3 4 45.14 3.58
-7 3 4 49.17 3.1
7 -3 -4 47.94 3.17
7 -3 -4 48.71 3.27
-7 4 4 6.43 1.46
-7 4 4 5.25 1.26
7 -4 -4 5.93 1.41
7 -4 -4 5.72 1.29
-7 5 4 5.55 1.5
7 -5 -4 1.47 1.41
-6 -5 4 4.78 1.59
6 5 -4 5.77 1.61
6 5 -4 3.17 1.53
-6 -4 4 14.58 1.96
-6 -4 4 14.58 1.95
6 4 -4 20.19 2.05
6 4 -4 20.01 2.25
-6 -3 4 8.89 1.29
-6 -3 4 8.81 1.23
6 3 -4 6.17 1.31
-6 -2 4 109.42 6.32
-6 -2 4 107.49 5.77
-6 -2 4 104.73 5.75
6 2 -4 92.25 5.93
6 2 -4 94.47 6.08
-6 -1 4 4.87 0.63
-6 -1 4 4.52 0.56
-6 -1 4 4.09 0.64
-6 -1 4 3.74 0.84
6 1 -4 3.38 0.66
6 1 -4 3.27 0.63
6 1 -4 3.37 0.73
-6 0 4 96.23 6.07
-6 1 4 3.66 0.86
-6 2 4 90.35 5.48
-6 2 4 94.54 5.5
-6 2 4 93.2 5.48
-6 2 4 94.34 5.47
-6 2 4 96.89 6.33
6 -2 -4 104.36 5.85
6 -2 -4 108.9 5.7
6 -2 -4 106.79 5.67
-6 3 4 6.72 1.11
-6 3 4 7.53 1.3
6 -3 -4 8.1 1.14
6 -3 -4 10.93 1.35
-6 4 4 20.68 2.09
-6 4 4 22.08 2.03
6 -4 -4 14.36 1.93
6 -4 -4 13.59 1.88
-6 5 4 5.18 1.5
6 -5 -4 5.23 1.53
-5 -5 4 29.65 2.37
-5 -5 4 28.53 2.82
5 5 -4 25.5 2.66
5 5 -4 29.06 2.94
-5 -4 4 6.48 1.44
-5 -4 4 4.67 1.03
-5 -4 4 6.25 1.28
5 4 -4 9.33 1.44
5 4 -4 8.99 1.57
-5 -3 4 39.28 2.32
-5 -3 4 41.01 2.69
-5 -3 4 37.86 2.6
5 3 -4 34.07 2.81
5 3 -4 30.94 2.58
-5 -2 4 48.64 3.14
-5 -2 4 49.28 2.99
-5 -2 4 50.72 2.99
-5 -2 4 49.81 2.94
5 2 -4 47.92 3.08
5 2 -4 45.51 3.12
5 2 -4 46.36 3.06
5 2 -4 47.68 3
5 2 -4 45.78 2.96
-5 -1 4 44.91 3.08
-5 -1 4 43.09 2.71
-5 -1 4 41.47 2.67
-5 -1 4 42.96 2.7
5 1 -4 50.41 2.91
5 1 -4 48.86 2.79
5 1 -4 47.96 2.81
5 0 -4 1.88 0.52
-5 1 4 48.4 2.61
-5 1 4 50.12 2.63
5 -1 -4 43.3 2.67
5 -1 -4 41.91 2.72
5 -1 -4 41.92 2.65
-5 2 4 46.76 2.88
-5 2 4 47.42 2.93
-5 2 4 48.42 3.42
-5 2 4 45.28 2.93
5 -2 -4 48.97 3
5 -2 -4 51.38 3
5 -2 -4 50.88 3.08
-5 3 4 33.78 2.77
-5 3 4 34.05 2.55
5 -3 -4 37.11 2.62
5 -3 -4 39.58 2.59
-5 4 4 8.38 1.38
-5 4 4 8.83 1.42
5 -4 -4 7.31 1.36
5 -4 -4 5.2 1.31
-5 5 4 27.86 2.7
5 -5 -4 26.98 2.7
-4 -5 4 15.73 1.79
-4 -5 4 12.41 2.04
4 5 -4 12.52 1.87
-4 -4 4 66.64 4.23
-4 -4 4 69.78 4.49
4 4 -4 66.35 4.4
4 4 -4 74.79 4.69
-4 -3 4 19.57 1.82
-4 -3 4 20.41 1.73
-4 -3 4 18.42 1.58
4 3 -4 16.75 1.93
4 3 -4 16.94 1.75
-4 -2 4 76.9 4.34
-4 -2 4 77.02 4.45
-4 -2 4 75.93 4.37
-4 -2 4 80.49 4.24
-4 -2 4 80.26 4.24
-4 -2 4 80.82 4.64
4 2 -4 69.52 4.49
4 2 -4 69.37 4.59
4 2 -4 70.23 4.36
4 2 -4 68.93 4.37
-4 -1 4 7.04 0.77
-4 -1 4 5.8 0.68
-4 -1 4 6.71 0.79
4 1 -4 7.65 1
4 1 -4 8.88 1.12
4 1 -4 7.9 0.96
4 1 -4 8.63 1
-4 0 4 2.17 0.53
-4 0 4 2.07 0.49
4 0 -4 1.88 0.57
4 0 -4 2.19 0.46
4 0 -4 1.98 0.58
-4 1 4 7.35 0.89
-4 1 4 7.74 0.91
-4 1 4 8.08 0.93
4 -1 -4 6.46 0.84
4 -1 -4 6.6 0.88
4 -1 -4 6.24 0.71
-4 2 4 70 4.35
-4 2 4 70.41 4.3
-4 2 4 74.95 4.36
4 -2 -4 77.87 4.32
4 -2 -4 79.27 4.49
4 -2 -4 78.71 4.47
4 -2 -4 79.11 4.6
-4 3 4 17.12 1.73
-4 3 4 17.59 1.78
4 -3 -4 18.31 1.69
4 -3 -4 18.98 1.62
4 -3 -4 16.22 1.69
-4 4 4 69.01 4.66
-4 4 4 68.8 4.45
4 -4 -4 71.81 4.57
-4 5 4 11.78 1.89
4 -5 -4 13.23 1.93
-3 -6 4 13.31 1.97
3 6 -4 12.63 2.15
3 6 -4 11.57 2.04
-3 -5 4 57.66 3.92
-3 -5 4 59.81 4.19
3 5 -4 56.04 3.96
-3 -4 4 2.17 1.04
-3 -4 4 3.24 1.17
3 4 -4 1.35 1.17
3 4 -4 1.86 1.07
-3 -3 4 53.19 3.05
-3 -3 4 50.84 3.12
-3 -3 4 49.58 3.19
-3 -3 4 53 3.17
3 3 -4 45.13 3.19
3 3 -4 43.23 3.24
3 3 -4 40.1 3.08
-3 -2 4 10.05 1.16
-3 -2 4 9.52 1.28
-3 -2 4 8.86 1.19
-3 -2 4 9.76 1.28
3 2 -4 14.22 1.32
3 2 -4 14.74 1.35
3 2 -4 15.01 1.34
3 2 -4 14.18 1.44
-3 -1 4 153.23 7.83
-3 -1 4 144.36 7.6
-3 -1 4 147.36 7.6
3 1 -4 127.14 7.82
3 1 -4 134.71 7.7
3 1 -4 137.07 7.6
3 1 -4 142.5 8.08
3 1 -4 130 7.81
-3 0 4 25.38 1.64
-3 0 4 22.58 1.49
-3 0 4 24.38 1.61
3 0 -4 22.47 1.68
3 0 -4 23.84 1.63
3 0 -4 24.01 1.56
-3 1 4 129.65 7.72
-3 1 4 130.23 7.72
-3 1 4 131.22 7.72
3 -1 -4 145.85 8.18
3 -1 -4 148.63 7.98
3 -1 -4 147.97 7.98
3 -1 -4 154.28 7.8
3 -1 -4 153.03 8.19
-3 2 4 14.29 1.3
-3 2 4 14.53 1.36
3 -2 -4 10.29 1.22
3 -2 -4 9.68 1.22
3 -2 -4 9.48 1.12
3 -2 -4 11.83 1.26
3 -2 -4 11.42 1.25
-3 3 4 44.89 3
-3 3 4 42.42 3.2
3 -3 -4 54.87 3.17
3 -3 -4 55.26 3.39
3 -3 -4 52.49 3.31
-3 4 4 1.81 1.13
-3 4 4 1.35 0.9
3 -4 -4 3.36 1.15
3 -4 -4 2.18 1.14
-3 5 4 58.13 3.71
-3 5 4 59.71 4.22
3 -5 -4 59.3 4.12
3 -5 -4 60.1 4.28
-3 6 4 6.52 1.9
3 -6 -4 13.17 2.1
-2 -6 4 3.48 1.63
2 6 -4 6.56 1.73
2 6 -4 8.97 1.92
-2 -5 4 18.72 2.17
2 5 -4 24.36 2.28
-2 -4 4 61.21 4.09
-2 -4 4 64.59 4.02
2 4 -4 67.07 4.21
2 4 -4 61.4 4.03
2 4 -4 60.67 4.26
-2 -3 4 16.52 1.73
-2 -3 4 19.17 1.75
-2 -3 4 18.6 1.7
-2 -3 4 16.66 1.67
2 3 -4 18.98 1.84
2 3 -4 19.26 1.82
2 3 -4 20.98 1.72
-2 -2 4 158.83 8.05
-2 -2 4 158.57 8.02
-2 -2 4 159.91 7.98
-2 -2 4 153 8.22
2 2 -4 133.28 7.97
2 2 -4 128.5 8.41
2 2 -4 134.98 8.07
2 2 -4 128.66 8.2
-2 -1 4 36.6 2.1
-2 -1 4 34.66 1.98
-2 -1 4 33.32 2.03
2 1 -4 28.62 2.02
2 1 -4 28.7 2.1
2 1 -4 32.06 2.16
2 1 -4 28.58 2.04
-2 0 4 23.02 1.75
-2 0 4 26.14 1.65
-2 0 4 24.16 1.5
-2 0 4 26 1.51
2 0 -4 24.81 1.57
2 0 -4 25.15 1.68
2 0 -4 24.29 1.8
2 0 -4 24.76 1.65
2 0 -4 25.45 1.78
-2 1 4 29.23 2.09
-2 1 4 29.17 1.99
-2 1 4 28.64 2.1
2 -1 -4 32.75 2.06
2 -1 -4 35.62 2.16
2 -1 -4 35.12 2.15
2 -1 -4 36.41 2.05
2 -1 -4 35.42 2.16
2 -1 -4 35.55 2.14
-2 2 4 138.46 8.44
-2 2 4 132.4 8.19
-2 2 4 135.78 8.24
2 -2 -4 157.55 8.46
2 -2 -4 158.23 8.3
2 -2 -4 162.34 8.24
2 -2 -4 160.19 8.71
-2 3 4 20.98 1.89
-2 3 4 20.65 1.83
-2 3 4 20.79 1.69
2 -3 -4 19.87 1.78
2 -3 -4 17.72 1.76
2 -3 -4 19.72 1.82
2 -3 -4 19.32 1.71
-2 4 4 64.62 4.22
-2 4 4 63.45 4.02
2 -4 -4 63.25 4.28
2 -4 -4 66.34 4.12
-2 5 4 24.98 2.19
-2 5 4 21.55 2.6
2 -5 -4 22.93 2.55
2 -5 -4 21.33 2.35
-2 6 4 5.7 1.88
-2 6 4 9.01 1.58
2 -6 -4 3.96 1.75
-1 -6 4 2.92 1.61
1 6 -4 0.51 1.51
-1 -5 4 21.56 2.3
1 5 -4 24.6 2.6
1 5 -4 22.19 2.22
-1 -4 4 -0.77 1.05
-1 -4 4 1.68 1.08
-1 -4 4 -0.92 0.96
1 4 -4 -0.44 0.97
1 4 -4 -0.54 1.09
-1 -3 4 32.17 2.41
-1 -3 4 31.58 2.52
-1 -3 4 31.16 2.46
-1 -3 4 32.41 2.43
1 3 -4 37.05 2.6
1 3 -4 37.28 2.55
1 3 -4 38.97 2.5
1 3 -4 38.87 2.46
-1 -2 4 95.64 5.66
-1 -2 4 102.34 6.07
-1 -2 4 95.01 5.86
-1 -2 4 97.53 5.71
-1 -2 4 97.18 5.73
1 2 -4 104.03 5.75
1 2 -4 105.87 5.67
1 2 -4 101.67 5.86
1 2 -4 108.28 5.72
-1 -1 4 112.84 6.29
-1 -1 4 117.32 6.13
-1 -1 4 112.05 5.96
-1 -1 4 111.75 6.02
1 1 -4 100.03 6.01
1 1 -4 104.43 6.14
1 1 -4 100.68 5.94
1 1 -4 104.34 6.32
-1 0 4 304.37 16.56
-1 0 4 319.61 16.76
-1 0 4 313.44 17.02
-1 0 4 309.86 17.48
1 0 -4 284.48 16.76
1 0 -4 322.37 17.48
1 0 -4 300.72 16.52
1 0 -4 322.93 17.51
1 0 -4 304.72 17.06
-1 1 4 105.65 6.42
-1 1 4 101.54 6.22
-1 1 4 108.64 6.3
1 -1 -4 116.63 6.43
1 -1 -4 123.02 6.62
1 -1 -4 116.27 6.24
1 -1 -4 117.33 6.31
1 -1 -4 119.29 6.59
-1 2 4 105.81 5.95
-1 2 4 104.84 5.8
-1 2 4 110.49 5.83
1 -2 -4 100.95 5.95
1 -2 -4 98 5.78
1 -2 -4 109.19 6.13
1 -2 -4 96.89 5.81
1 -2 -4 94.67 6.08
-1 3 4 41.67 2.43
-1 3 4 38.69 2.58
-1 3 4 37.73 2.53
1 -3 -4 30.8 2.44
1 -3 -4 30.69 2.47
1 -3 -4 33.6 2.54
1 -3 -4 29.37 2.36
-1 4 4 -0.45 1
-1 4 4 0.7 1.12
1 -4 -4 0.37 1.05
1 -4 -4 0.82 1.05
-1 5 4 23.88 2.25
-1 5 4 19.9 2.55
1 -5 -4 21.25 2.28
-1 6 4 1.19 1.48
1 -6 -4 1.46 1.56
0 -6 4 9.26 1.96
0 6 -4 11.89 1.92
0 -5 4 0.42 1.32
0 5 -4 1.16 1.28
0 5 -4 1.7 1.43
0 5 -4 1.21 1.19
0 -4 4 48.82 3.61
0 -4 4 53.37 3.64
0 -4 4 52.77 3.77
0 4 -4 63.43 3.85
0 4 -4 59.12 3.62
0 -3 4 57.38 3.8
0 -3 4 52.91 3.62
0 -3 4 52.04 3.51
0 -3 4 54.63 3.53
0 3 -4 58.91 3.67
0 3 -4 58.58 3.59
0 3 -4 58.74 3.57
0 3 -4 58.88 3.52
0 -2 4 71.38 4.51
0 -2 4 68.39 4.22
0 -2 4 69.44 4.17
0 -2 4 63.48 4.21
0 -2 4 66.95 4.33
0 2 -4 75.27 4.24
0 2 -4 76.38 4.36
0 2 -4 81.51 4.25
0 2 -4 79.94 4.22
0 -1 4 63.16 3.79
0 -1 4 62.11 3.63
0 -1 4 60.7 3.69
0 -1 4 64.25 3.62
0 -1 4 60.68 3.68
0 1 -4 64.68 3.6
0 1 -4 63.94 3.72
0 1 -4 62.24 3.63
0 1 -4 62.67 3.62
0 0 4 64.77 3.8
0 0 4 66.37 3.92
0 0 4 63.35 3.81
0 0 4 65.22 3.86
0 0 4 65.62 3.7
0 0 -4 66.34 3.87
0 0 -4 66.16 3.7
0 0 -4 62.3 3.65
0 0 -4 59.24 3.71
0 0 -4 65.56 3.86
0 1 4 61.37 3.7
0 1 4 64.4 3.83
0 1 4 67.69 3.91
0 -1 -4 68.61 3.92
0 -1 -4 64.15 3.73
0 -1 -4 63.04 3.79
0 -1 -4 62.93 3.71
0 -1 -4 64.33 3.67
0 2 4 81.07 4.47
0 2 4 83.82 4.39
0 2 4 80.42 4.36
0 -2 -4 70.79 4.53
0 -2 -4 70.42 4.32
0 -2 -4 70.68 4.46
0 -2 -4 68.07 4.31
0 -2 -4 69.67 4.27
0 3 4 58.88 3.64
0 3 4 59.02 3.51
0 3 4 57.42 3.59
0 -3 -4 52.47 3.45
0 -3 -4 53.38 3.67
0 -3 -4 54.09 3.44
0 -3 -4 56.3 3.55
0 -3 -4 55.22 3.61
0 4 4 59.26 3.72
0 4 4 59.21 3.82
0 -4 -4 54.36 3.76
0 -4 -4 53.43 3.81
0 -4 -4 54.16 3.67
0 5 4 1.22 1.32
0 5 4 1.13 1.41
0 -5 -4 1.48 1.25
0 6 4 7.59 1.75
0 -6 -4 9.93 1.91
1 -6 4 3.57 1.73
-1 6 -4 3.75 1.48
-1 6 -4 5.46 1.86
1 -5 4 1.38 1.37
-1 5 -4 1.61 1.44
-1 5 -4 3.21 1.3
1 -4 4 12.72 1.64
1 -4 4 12.13 1.61
-1 4 -4 10.83 1.65
-1 4 -4 11.02 1.35
1 -3 4 99.89 6.22
1 -3 4 97.18 5.83
1 -3 4 93.33 5.84
1 -3 4 94.97 5.99
-1 3 -4 106.83 5.87
-1 3 -4 106.01 5.82
-1 3 -4 104.24 5.83
-1 3 -4 105.13 6.03
1 -2 4 38.43 2.72
1 -2 4 38.68 2.89
1 -2 4 39.29 2.7
1 -2 4 41.05 2.8
-1 2 -4 45.16 2.75
-1 2 -4 46.31 2.66
-1 2 -4 46.08 2.71
-1 2 -4 47.05 2.8
1 -1 4 75.57 4.24
1 -1 4 78.6 4.34
1 -1 4 74.88 4.14
1 -1 4 75.79 4.1
-1 1 -4 68.55 4.12
-1 1 -4 68.36 4.1
-1 1 -4 67.72 4.21
-1 1 -4 68.45 4.1
1 0 4 37.06 2.43
1 0 4 39.58 2.49
1 0 4 37.62 2.39
1 0 4 36.67 2.26
1 0 4 35.6 2.4
-1 0 -4 35.42 2.36
-1 0 -4 34.57 2.21
-1 0 -4 37.08 2.24
-1 0 -4 34.69 2.37
1 1 4 72.57 4.38
1 1 4 68.15 4.35
1 1 4 70.77 4.19
1 1 4 69.8 4.28
1 1 4 68.62 4.15
-1 -1 -4 72.82 4.15
-1 -1 -4 80.4 4.15
-1 -1 -4 74.1 4.15
-1 -1 -4 77.99 4.26
1 2 4 50.16 2.82
1 2 4 48.15 2.92
1 2 4 46.77 2.78
1 2 4 47.28 2.89
-1 -2 -4 38.5 2.7
-1 -2 -4 38.63 2.76
-1 -2 -4 40.78 2.7
-1 -2 -4 40.32 2.84
-1 -2 -4 39.24 2.83
1 3 4 111.19 5.9
1 3 4 104.87 6
1 3 4 104.52 5.86
-1 -3 -4 97.37 5.97
-1 -3 -4 95.3 5.79
-1 -3 -4 97.48 5.83
-1 -3 -4 90.18 5.72
1 4 4 11.53 1.63
1 4 4 11.76 1.67
-1 -4 -4 13.28 1.68
-1 -4 -4 13.37 1.72
1 5 4 2.5 1.43
-1 -5 -4 2.44 1.31
1 6 4 4.08 1.71
-1 -6 -4 4.42 1.65
2 -5 4 3.92 1.44
2 -5 4 3 1.46
-2 5 -4 1.46 1.41
-2 5 -4 2.23 1.15
2 -4 4 15.35 1.85
2 -4 4 15.51 1.94
-2 4 -4 17.83 1.73
-2 4 -4 18.1 2.17
-2 4 -4 19.45 2.1
2 -3 4 11.36 1.4
2 -3 4 12.16 1.54
2 -3 4 11.54 1.36
-2 3 -4 9.59 1.25
-2 3 -4 10.88 1.2
-2 3 -4 11.01 1.34
2 -2 4 97.97 5.68
2 -2 4 100.79 5.55
2 -2 4 99.17 5.9
2 -2 4 101.62 5.56
-2 2 -4 96.36 5.45
-2 2 -4 92.05 5.51
-2 2 -4 95.67 5.5
-2 2 -4 94.87 5.66
2 -1 4 40.95 2.52
2 -1 4 41.87 2.44
2 -1 4 40.14 2.34
2 -1 4 40.77 2.35
2 -1 4 42.54 2.46
-2 1 -4 31.46 2.37
-2 1 -4 33.81 2.2
-2 1 -4 33.37 2.35
-2 1 -4 32.64 2.36
2 0 4 297.95 16.6
2 0 4 287.24 16.17
2 0 4 300.24 16.64
2 0 4 298.81 16.2
2 0 4 291.36 15.71
2 0 4 294.67 15.89
-2 0 -4 282.28 16.15
-2 0 -4 291.9 15.83
-2 0 -4 290.37 15.71
-2 0 -4 289.61 15.66
2 1 4 33.73 2.36
2 1 4 33.2 2.33
2 1 4 34 2.42
2 1 4 33.96 2.49
2 1 4 34.99 2.45
-2 -1 -4 40.27 2.39
-2 -1 -4 40.61 2.3
-2 -1 -4 41.54 2.33
-2 -1 -4 40.57 2.35
2 2 4 94.91 5.67
2 2 4 94.14 5.62
2 2 4 94.48 5.93
2 2 4 96.63 5.81
-2 -2 -4 104.19 5.67
-2 -2 -4 103.42 5.81
-2 -2 -4 99.5 5.61
-2 -2 -4 103.66 5.63
2 3 4 8.84 1.3
2 3 4 10.81 1.35
2 3 4 8.97 1.34
-2 -3 -4 13.51 1.43
-2 -3 -4 11.34 1.46
-2 -3 -4 11.74 1.55
-2 -3 -4 12.25 1.57
2 4 4 16.63 2.1
2 4 4 17.13 1.9
-2 -4 -4 14.55 1.85
-2 -4 -4 15.13 1.95
2 5 4 1.53 1.48
-2 -5 -4 4.02 1.35
-2 -5 -4 2.95 1.51
3 -5 4 8.78 1.7
3 -5 4 8 1.7
-3 5 -4 14.75 1.97
3 -4 4 15.12 1.88
3 -4 4 15.35 1.75
-3 4 -4 15.11 1.48
-3 4 -4 14.86 1.82
-3 4 -4 17.1 2.13
3 -3 4 88.45 5.46
3 -3 4 83.44 5.64
3 -3 4 89.76 5.31
-3 3 -4 90.82 5.28
-3 3 -4 91.88 5.31
-3 3 -4 94.54 5.06
3 -2 4 85.51 4.69
3 -2 4 84.86 4.68
3 -2 4 85.57 4.83
3 -2 4 81.38 4.8
3 -2 4 84.41 5.02
-3 2 -4 71.21 4.64
-3 2 -4 72.38 4.64
3 -1 4 81.58 4.56
3 -1 4 79.72 4.61
3 -1 4 80.27 4.72
3 -1 4 82.53 4.87
3 -1 4 81.99 4.76
-3 1 -4 81.87 4.6
-3 1 -4 77.88 4.58
3 0 4 6.16 1.06
3 0 4 5.7 0.7
3 0 4 5.7 0.85
3 0 4 5.64 0.87
3 0 4 6.76 0.88
-3 0 -4 4.99 0.86
-3 0 -4 6.48 0.73
3 1 4 83.68 4.66
3 1 4 77.88 4.62
3 1 4 81.43 4.91
3 1 4 82.57 4.89
3 1 4 81.46 4.79
-3 -1 -4 81.73 4.6
-3 -1 -4 79.14 4.62
-3 -1 -4 82.29 4.49
-3 -1 -4 80.51 4.75
3 2 4 76.06 4.8
3 2 4 72.02 4.68
3 2 4 73.37 4.56
3 2 4 72.19 4.55
-3 -2 -4 81.18 4.47
-3 -2 -4 82.32 4.59
-3 -2 -4 83.42 4.54
-3 -2 -4 81.21 4.67
3 3 4 91.62 5.6
3 3 4 95.12 5.48
3 3 4 96.24 5.46
-3 -3 -4 89.66 5.45
-3 -3 -4 87.22 5.38
-3 -3 -4 90.14 5.34
3 4 4 14.65 1.88
3 4 4 14.55 1.97
-3 -4 -4 17.06 1.85
-3 -4 -4 16.96 2.04
3 5 4 15.65 2.05
-3 -5 -4 10.04 1.67
-3 -5 -4 9.38 1.9
4 -5 4 18.68 2.33
-4 5 -4 18.97 2.38
4 -4 4 12.94 1.71
-4 4 -4 13.62 1.67
-4 4 -4 12.58 1.72
4 -3 4 9.84 1.3
4 -3 4 7.59 1.45
-4 3 -4 7 1.19
-4 3 -4 7.17 1.15
4 -2 4 27.07 1.99
4 -2 4 27.86 1.93
4 -2 4 25.29 2.13
4 -1 4 17.21 1.51
4 -1 4 16.78 1.56
4 -1 4 16.77 1.38
4 -1 4 16.45 1.49
-4 1 -4 19.47 1.52
-4 1 -4 20.21 1.56
-4 1 -4 18.62 1.47
4 0 4 42.42 2.75
4 0 4 43.59 2.77
4 0 4 43.21 2.54
4 0 4 42.17 2.87
4 0 4 42.24 2.76
-4 0 -4 44.44 2.72
-4 0 -4 41.89 2.57
-4 0 -4 41.21 2.67
4 1 4 20.36 1.65
4 1 4 19.2 1.61
4 1 4 21.01 1.5
4 1 4 21.43 1.64
4 1 4 19.78 1.6
4 1 4 20.89 1.68
-4 -1 -4 16.4 1.48
-4 -1 -4 14.93 1.52
4 2 4 38.11 2.51
4 2 4 37.34 2.36
4 2 4 39.25 2.49
-4 -2 -4 27.59 2.26
-4 -2 -4 27.81 2.34
4 3 4 7.05 1.33
4 3 4 7.21 1.34
-4 -3 -4 8.81 1.35
-4 -3 -4 9.72 1.08
-4 -3 -4 8.39 1.25
4 4 4 11.75 1.79
4 4 4 14.69 1.87
-4 -4 -4 12.6 1.5
-4 -4 -4 14.75 1.86
4 5 4 18.22 2.38
-4 -5 -4 21.08 2.53
-4 -5 -4 22.67 2.2
5 -5 4 16.31 2.12
-5 5 -4 15.14 2.04
-5 5 -4 16.63 2.11
5 -4 4 21.83 2.23
-5 4 -4 21.28 2.23
-5 4 -4 21.37 2.21
5 -3 4 92.44 5.99
5 -3 4 101.46 5.76
-5 3 -4 93.69 5.55
-5 3 -4 89.93 5.52
5 -2 4 34.99 2.33
5 -2 4 35.93 2.47
-5 2 -4 30.61 2.28
-5 2 -4 30.25 2.29
5 -1 4 19.73 1.56
5 -1 4 20.28 1.51
5 -1 4 17.03 1.54
-5 1 -4 13.33 1.42
-5 1 -4 12.67 1.42
-5 1 -4 14.83 1.63
5 0 4 12.06 1.41
5 0 4 11.62 1.23
5 0 4 12.5 1.34
5 0 4 10.94 1.34
-5 0 -4 12.65 1.34
-5 0 -4 12.28 1.33
-5 0 -4 11.63 1.15
5 1 4 12.2 1.45
5 1 4 12.86 1.25
5 1 4 13.15 1.41
5 1 4 10.71 1.38
5 1 4 13.58 1.35
5 2 4 30.52 2.34
5 2 4 32.33 2.5
5 2 4 32.85 2.5
5 2 4 33.1 2.41
-5 -2 -4 36.4 2.36
-5 -2 -4 33.99 2.39
5 3 4 90.14 5.99
5 3 4 90.03 5.84
-5 -3 -4 108.39 5.92
-5 -3 -4 106.23 5.86
5 4 4 22.78 2.56
5 4 4 23.5 2.38
-5 -4 -4 24.5 1.95
-5 -4 -4 22.77 2.39
5 5 4 15.02 2.2
-5 -5 -4 16.71 2.25
-5 -5 -4 15.04 1.79
6 -5 4 8.06 1.71
-6 5 -4 7.59 1.71
-6 5 -4 6.14 1.56
6 -4 4 25.73 2.37
-6 4 -4 22.6 2.34
-6 4 -4 21.98 2.31
6 -3 4 4.93 1.46
6 -3 4 7.51 1.21
-6 3 -4 5.29 1.07
-6 3 -4 4.02 1.08
6 -2 4 47.41 3.1
6 -2 4 49.45 2.99
-6 2 -4 40.77 2.94
-6 2 -4 42.21 2.89
6 -1 4 50.88 3.38
-6 1 -4 55.46 3.28
-6 1 -4 54.39 3.25
6 0 4 14.79 1.6
6 0 4 17.88 1.51
6 0 4 14.68 1.54
6 0 4 15.29 1.44
-6 0 -4 15 1.34
-6 0 -4 15.17 1.48
6 1 4 52.09 3.45
6 1 4 56.54 3.43
6 1 4 55.19 3.54
-6 -1 -4 52.86 3.33
-6 -1 -4 52.12 3.25
6 2 4 38.63 3.06
6 2 4 39.06 3.1
-6 -2 -4 48.53 2.99
-6 -2 -4 49.47 2.94
6 3 4 3.67 1.25
-6 -3 -4 8 1.28
-6 -3 -4 8.66 1.39
6 4 4 23.01 2.64
-6 -4 -4 26.58 2.48
-6 -4 -4 30.49 2.65
6 5 4 9.07 2.04
6 5 4 9.51 2.02
-6 -5 -4 7.89 1.93
7 -4 4 9.8 1.69
-7 4 -4 14.73 1.77
-7 4 -4 14.85 1.76
7 -3 4 35.41 2.49
7 -3 4 31.85 2.62
-7 3 -4 27.09 2.32
-7 3 -4 26.29 2.33
7 -2 4 19.08 1.68
7 -2 4 19.01 1.8
-7 2 -4 16.39 1.61
-7 2 -4 16.17 1.73
7 -1 4 6.39 1.03
7 -1 4 5.62 1.21
-7 1 -4 7.71 1
-7 1 -4 7.23 1.01
7 0 4 9.31 1.25
7 0 4 11.22 1.4
7 0 4 8.93 1.18
-7 0 -4 9.95 1.19
-7 0 -4 10.47 1.15
7 1 4 7.04 1.1
7 1 4 6.39 1.04
7 1 4 8.31 1.27
-7 -1 -4 7.22 1.09
-7 -1 -4 6.6 0.94
7 2 4 16.82 1.95
-7 -2 -4 20.71 1.87
-7 -2 -4 20.47 1.81
7 3 4 30.5 2.82
-7 -3 -4 34.16 2.71
-7 -3 -4 34.58 2.63
7 4 4 14.4 2
-7 -4 -4 9.72 1.68
-7 -4 -4 10.95 1.84
8 -4 4 8.66 1.63
-8 4 -4 11.61 1.65
-8 4 -4 9.91 1.57
8 -3 4 3.5 1.19
8 -3 4 4.94 1.4
-8 3 -4 6.09 1.21
-8 3 -4 6.88 1.21
8 -2 4 39.14 3.03
8 -2 4 42.64 2.84
-8 2 -4 40.39 2.69
-8 2 -4 43.24 2.86
8 -1 4 37.54 3.12
8 -1 4 38.62 2.92
-8 1 -4 51.26 2.83
-8 1 -4 52.17 2.95
8 0 4 16.83 1.71
8 0 4 18.68 1.76
8 0 4 17.9 1.85
-8 0 -4 18.87 1.59
-8 0 -4 18.33 1.62
8 1 4 52.97 3.21
8 1 4 48.76 3.24
8 1 4 50.73 3.32
-8 -1 -4 42.35 3.05
-8 -1 -4 42.46 3
8 2 4 43.78 3.16
-8 -2 -4 44.22 3
-8 -2 -4 42.14 2.96
8 3 4 7.52 1.55
-8 -3 -4 5.71 1.32
-8 -3 -4 4.33 1.35
8 4 4 12.18 2.05
-8 -4 -4 11.15 1.87
-8 -4 -4 8.73 1.71
9 -3 4 3.02 1.17
9 -3 4 3.95 1.42
-9 3 -4 5.5 1.19
-9 3 -4 5.45 1.17
9 -2 4 16.16 2.05
9 -2 4 16.9 1.77
-9 2 -4 20.54 1.84
9 -1 4 17.52 2.06
9 -1 4 20.77 1.75
-9 1 -4 23.44 1.86
9 0 4 68.9 4.3
9 0 4 67.17 4.38
9 0 4 68.21 4.47
-9 0 -4 68.84 4.09
-9 0 -4 71.34 4.07
9 1 4 22.52 2.13
9 1 4 24.26 2.1
9 1 4 22.3 2.04
-9 -1 -4 22.01 1.91
-9 -1 -4 21.37 2.01
9 2 4 21.65 2.25
-9 -2 -4 18.32 1.9
-9 -2 -4 19.7 2.07
9 3 4 6.36 1.53
-9 -3 -4 5.46 1.41
-9 -3 -4 4.32 1.29
10 -3 4 5.94 1.37
10 -3 4 6.26 1.65
-10 3 -4 10.86 1.39
-10 3 -4 10.07 1.41
-10 2 -4 20.95 1.95
10 -1 4 8.01 1.12
10 -1 4 3.15 1.4
-10 1 -4 8.36 1.17
10 0 4 2.03 1.17
10 0 4 0.03 0.93
10 0 4 1.83 0.94
-10 0 -4 2.33 0.89
10 1 4 7.63 1.47
10 1 4 10.33 1.46
10 1 4 9.58 1.39
-10 -1 -4 7.86 1.2
-10 -1 -4 8.38 1.27
10 2 4 24.54 2.45
-10 -2 -4 24.69 2.23
-10 -2 -4 26.66 2.33
10 3 4 10.03 1.82
-10 -3 -4 7.79 1.61
-10 -3 -4 7.9 1.52
11 -2 4 1.96 1.39
11 -2 4 1.07 1.02
-11 2 -4 3.46 1.1
11 -1 4 40.27 2.75
-11 1 -4 39.73 2.78
11 0 4 8.32 1.24
11 0 4 8.71 1.44
11 0 4 7.56 1.29
-11 0 -4 7.62 1.19
11 1 4 37.92 2.92
-11 -1 -4 37.92 2.71
11 2 4 3.25 1.29
-11 -2 -4 1.4 1.23
-11 -2 -4 1.44 1.15
12 0 4 8.48 1.5
12 0 4 10.39 1.46
-12 0 -4 11.07 1.39
-13 -2 5 0.73 0.92
13 2 -5 0.71 1.01
13 2 -5 1.28 1
-12 -3 5 2.55 1.18
-12 -3 5 2.11 1.18
12 3 -5 2.18 1.27
-12 -2 5 20.62 1.95
12 2 -5 23.72 2.08
12 2 -5 24.42 2.05
-12 0 5 97.9 6.71
-12 1 5 2.28 1.36
-12 2 5 23.42 2.73
12 -3 -5 1.99 0.97
-11 -3 5 35.52 2.79
-11 -3 5 36.69 2.87
11 3 -5 42.11 3.06
-11 -2 5 9.94 1.17
-11 -2 5 8.28 1.16
11 2 -5 8.01 1.31
11 2 -5 8.47 1.23
-11 -1 5 38.53 3.28
-11 0 5 0.66 1.1
-11 1 5 39.92 3.38
-11 2 5 7.49 1.64
-11 3 5 38.44 3.46
11 -3 -5 35.96 2.69
-10 -4 5 7.46 1.59
-10 -4 5 6.26 1.56
10 4 -5 9.65 1.81
-10 -3 5 2.83 1.14
-10 -3 5 3.54 1.15
10 3 -5 2.84 1.23
-10 -2 5 18.38 1.67
-10 -2 5 18.02 1.7
10 2 -5 16.77 1.79
10 2 -5 17.53 1.8
-10 -1 5 6.89 1.39
10 1 -5 7.89 0.99
-10 0 5 54.06 4.02
-10 1 5 7.26 1.45
-10 2 5 16.59 2.17
-10 3 5 3.03 1.39
10 -3 -5 4.39 1.05
10 -3 -5 2.7 0.95
-10 4 5 10.39 1.39
-10 4 5 10.71 1.98
10 -4 -5 8.42 1.55
10 -4 -5 5.81 1.33
-9 -4 5 5.44 1.47
-9 -4 5 4.55 1.38
9 4 -5 4.99 1.6
-9 -3 5 12.1 1.52
-9 -3 5 12.15 1.5
9 3 -5 8.11 1.53
-9 -2 5 5.66 1.19
-9 -2 5 7.54 1.09
-9 -2 5 6.18 0.99
9 2 -5 5.18 1.12
9 2 -5 4.9 1.11
-9 -1 5 31.24 2.53
-9 -1 5 30.88 1.9
9 1 -5 23.56 2
-9 0 5 22.23 2.23
-9 1 5 26.99 2.48
-9 2 5 5.79 1.35
9 -2 -5 6.37 0.9
-9 3 5 8.54 1.18
-9 3 5 7.96 1.66
9 -3 -5 11.52 1.41
9 -3 -5 11.43 1.42
-9 4 5 5.92 1.62
-9 4 5 4.95 1.19
9 -4 -5 4.37 1.24
9 -4 -5 4.96 1.35
-8 -5 5 4.12 1.67
8 5 -5 3.47 1.61
-8 -4 5 31.06 2.76
-8 -4 5 33.45 2.75
8 4 -5 29.78 2.92
-8 -3 5 11.52 1.53
-8 -3 5 12.55 1.46
8 3 -5 11.54 1.64
-8 -2 5 34.92 2.22
-8 -2 5 33.54 2.49
-8 -2 5 31.42 2.15
8 2 -5 25.47 2.28
8 2 -5 24.99 2.27
-8 -1 5 1.92 0.54
-8 -1 5 1.74 0.91
-8 -1 5 2.34 0.61
8 1 -5 2.79 0.71
8 1 -5 2.76 0.75
-8 0 5 7.79 1.27
-8 1 5 2.17 0.93
-8 2 5 26.17 1.93
-8 2 5 27.44 2.61
8 -2 -5 33.04 2.08
8 -2 -5 32.12 2.11
-8 3 5 11.11 1.28
-8 3 5 11.14 1.72
8 -3 -5 11.78 1.47
8 -3 -5 11.22 1.44
-8 4 5 28.03 2.88
-8 4 5 30.49 2.47
8 -4 -5 32.78 2.68
8 -4 -5 32.6 2.63
-8 5 5 2 1.36
8 -5 -5 3.73 1.48
-7 -5 5 39.59 3.34
7 5 -5 37.87 3.51
-7 -4 5 -0.26 1.06
-7 -4 5 0.66 1.26
7 4 -5 0.66 1.27
-7 -3 5 2.76 1.09
-7 -3 5 3.11 1
7 3 -5 8.32 1.41
-7 -2 5 12.32 1.36
-7 -2 5 12.56 1.38
-7 -2 5 14.26 1.53
7 2 -5 11.61 1.47
7 2 -5 11.32 1.45
-7 -1 5 42.28 3.2
-7 -1 5 42.54 2.69
-7 -1 5 42.69 2.7
-7 -1 5 38.87 2.7
7 1 -5 49.65 2.92
7 1 -5 51.37 2.8
7 1 -5 49.44 2.82
-7 0 5 22.55 2.06
-7 1 5 50.73 3.63
-7 2 5 11.89 1.16
-7 2 5 12.33 1.32
-7 2 5 11.58 1.59
7 -2 -5 12.74 1.24
7 -2 -5 13.35 1.25
-7 3 5 7.2 1.36
-7 3 5 6.38 1.03
7 -3 -5 3.08 0.96
7 -3 -5 2 0.96
-7 4 5 0.2 1.07
-7 4 5 0.38 1.14
7 -4 -5 0.74 1.09
7 -4 -5 -0.44 1.04
7 -5 -5 37.35 3.19
-6 -5 5 0.43 1.51
6 5 -5 1.77 1.43
6 5 -5 0.58 1.43
-6 -4 5 72.19 4.66
-6 -4 5 70.49 4.55
6 4 -5 71.09 4.6
6 4 -5 69.36 4.81
-6 -3 5 10.33 1.42
-6 -3 5 12.19 1.56
6 3 -5 15.24 1.83
-6 -2 5 74.11 4.21
-6 -2 5 72.7 4.54
6 2 -5 66.63 4.42
6 2 -5 69.74 4.33
-6 -1 5 10.38 1.35
-6 -1 5 10.81 1.08
-6 -1 5 10.85 1.08
-6 -1 5 9.5 1
6 1 -5 8.96 1.03
6 1 -5 8.29 1.11
6 1 -5 9.15 1.17
-6 0 5 2.67 0.54
6 0 -5 2.52 0.57
6 0 -5 1.79 0.62
-6 1 5 8.31 0.93
-6 1 5 9.24 1.02
6 -1 -5 9.78 0.91
6 -1 -5 10.3 0.88
6 -1 -5 9.35 0.91
6 -1 -5 9.68 0.95
-6 2 5 66.51 3.91
-6 2 5 64.44 3.94
-6 2 5 65.48 4.61
6 -2 -5 70.6 4.18
6 -2 -5 70.92 4.07
6 -2 -5 70.32 4.04
-6 3 5 15.44 1.61
-6 3 5 13.78 1.8
6 -3 -5 11.97 1.49
6 -3 -5 11.2 1.38
-6 4 5 64.96 4.26
-6 4 5 65.13 4.67
6 -4 -5 64.44 4.46
6 -4 -5 71.49 4.42
-6 5 5 0.27 1.33
6 -5 -5 1.37 1.39
-5 -5 5 22.13 2.56
-5 -5 5 20.71 2.03
5 5 -5 20.39 2.43
-5 -4 5 3.66 1.2
-5 -4 5 3.93 1.32
-5 -4 5 4.94 1.02
5 4 -5 4.17 1.4
5 4 -5 4.95 1.32
-5 -3 5 10.21 1.35
-5 -3 5 11.29 1.31
-5 -3 5 9.75 1.15
5 3 -5 8.76 1.39
5 3 -5 9.67 1.3
-5 -2 5 41.67 2.76
-5 -2 5 42.08 2.8
-5 -2 5 41 2.93
5 2 -5 44.1 2.78
5 2 -5 46.1 2.79
5 2 -5 46.89 2.92
5 2 -5 44.77 2.98
-5 -1 5 185.24 10.04
-5 -1 5 179.39 10.05
-5 -1 5 180.01 10.06
5 1 -5 194.14 10.69
5 1 -5 189.48 10.37
5 1 -5 187.43 10.38
-5 0 5 48.38 2.7
-5 0 5 47.71 2.85
-5 0 5 48.95 2.77
5 0 -5 48.13 2.85
5 0 -5 46.72 2.89
5 0 -5 47.36 2.95
-5 1 5 191.7 9.78
-5 1 5 184.54 9.76
-5 1 5 188.08 9.76
5 -1 -5 182.03 10.33
5 -1 -5 177.44 10.06
5 -1 -5 169.22 10.05
5 -1 -5 174.27 10.34
-5 2 5 46.13 2.63
-5 2 5 44.85 2.69
-5 2 5 44.94 2.68
5 -2 -5 40.71 2.77
5 -2 -5 41.11 2.71
5 -2 -5 37.96 2.66
-5 3 5 8.21 1.2
-5 3 5 9.43 1.39
5 -3 -5 10.65 1.42
5 -3 -5 10.41 1.4
-5 4 5 4.43 1.27
-5 4 5 4.99 1.21
5 -4 -5 4.72 1.27
-5 5 5 19.8 2.4
5 -5 -5 19.99 2.4
-4 -5 5 5.07 1.65
-4 -5 5 5.26 1.33
4 5 -5 6.17 1.56
-4 -4 5 7.55 1.48
-4 -4 5 7.65 1.29
4 4 -5 9.68 1.64
4 4 -5 10.9 1.5
-4 -3 5 41.08 2.7
-4 -3 5 40.74 2.83
-4 -3 5 42.08 2.88
4 3 -5 42.36 2.86
4 3 -5 43.64 3.03
-4 -2 5 37.01 2.52
-4 -2 5 35.63 2.57
-4 -2 5 35.82 2.38
-4 -2 5 34.53 2.54
4 2 -5 43.94 2.57
4 2 -5 43.22 2.66
4 2 -5 44.48 2.73
4 2 -5 40.97 2.56
-4 -1 5 54.42 3.15
-4 -1 5 54.26 3.18
4 1 -5 54.29 3.31
4 1 -5 54.88 3.37
4 1 -5 53.52 3.27
4 1 -5 54.09 3.21
-4 0 5 145.71 7.87
-4 0 5 143.8 7.84
-4 0 5 148.69 7.79
4 0 -5 143.8 8.31
4 0 -5 140.04 8.11
4 0 -5 144.44 8.06
-4 1 5 53.4 3.18
-4 1 5 54.01 3.18
-4 1 5 53.07 3.2
4 -1 -5 55.25 3.37
4 -1 -5 54.53 3.26
4 -1 -5 55.33 3.28
4 -1 -5 58.84 3.35
-4 2 5 41.99 2.46
-4 2 5 43.99 2.42
4 -2 -5 35.44 2.5
4 -2 -5 34.36 2.41
4 -2 -5 35.77 2.39
4 -2 -5 36.05 2.33
4 -2 -5 34.21 2.45
-4 3 5 45.64 2.96
4 -3 -5 43.9 2.84
4 -3 -5 41.25 3
4 -3 -5 42.44 2.96
-4 4 5 9.86 1.51
-4 4 5 9.43 1.38
4 -4 -5 8.94 1.38
4 -4 -5 7.56 1.41
-4 5 5 4.31 1.5
4 -5 -5 3.46 1.46
-3 -5 5 2.04 1.47
-3 -5 5 1.18 1.23
3 5 -5 1.35 1.32
-3 -4 5 16.19 1.7
-3 -4 5 15.75 1.85
3 4 -5 12.08 1.79
3 4 -5 10.76 1.57
-3 -3 5 49.23 3.29
-3 -3 5 48.8 3.22
-3 -3 5 48.59 3.31
-3 -3 5 46.44 3.13
3 3 -5 51.66 3.38
3 3 -5 52.78 3.32
3 3 -5 53.9 3.3
-3 -2 5 2.27 0.69
-3 -2 5 1.93 0.7
-3 -2 5 1.66 0.77
-3 -2 5 2.1 0.69
3 2 -5 0.78 0.72
3 2 -5 0.66 0.71
3 2 -5 0.61 0.71
3 2 -5 0.01 0.72
-3 -1 5 218.67 12.97
-3 -1 5 232.31 12.73
-3 -1 5 211.42 12.59
3 1 -5 248.65 12.62
3 1 -5 241.07 13.37
3 1 -5 236.25 12.99
3 1 -5 243.83 12.81
3 1 -5 241.63 13.02
-3 0 5 58.14 3.27
-3 0 5 56.34 3.35
-3 0 5 57.49 3.38
3 0 -5 58 3.26
3 0 -5 57.88 3.52
3 0 -5 57.45 3.4
3 0 -5 56.53 3.48
-3 1 5 233.63 11.94
-3 1 5 244.26 11.96
3 -1 -5 202.16 12.27
3 -1 -5 217.13 12.61
3 -1 -5 219.01 12.64
3 -1 -5 218.8 12.07
3 -1 -5 217.29 12.3
3 -1 -5 219.91 11.93
-3 2 5 1.19 0.66
-3 2 5 0.78 0.63
-3 2 5 0.56 0.51
-3 2 5 0.76 0.43
3 -2 -5 1.88 0.71
3 -2 -5 2.05 0.73
3 -2 -5 1.91 0.69
3 -2 -5 1.39 0.69
3 -2 -5 1.45 0.61
3 -2 -5 1.6 0.67
-3 3 5 55.94 3.12
-3 3 5 57.29 3.39
3 -3 -5 47.16 3.23
3 -3 -5 46.99 3.32
3 -3 -5 48.42 3.43
-3 4 5 11.94 1.37
-3 4 5 10.98 1.63
3 -4 -5 15.49 1.87
3 -4 -5 16.06 1.76
-3 5 5 0.72 1.37
-3 5 5 2.4 1.13
3 -5 -5 2.82 1.47
3 -5 -5 1.18 1.36
-2 -6 5 3.95 1.63
2 6 -5 4.27 1.74
2 6 -5 3.95 1.6
-2 -5 5 7.02 1.52
2 5 -5 7.12 1.52
-2 -4 5 13.36 1.69
-2 -4 5 13.01 1.65
2 4 -5 13.55 1.78
2 4 -5 13.4 1.8
2 4 -5 11.74 1.54
-2 -3 5 50.36 3.16
-2 -3 5 47.6 3.07
-2 -3 5 48.38 2.98
-2 -3 5 48.26 3.01
2 3 -5 41.76 3.13
2 3 -5 43.48 3.08
2 3 -5 41.86 3.01
-2 -2 5 199.63 11.38
-2 -2 5 199.82 11.6
-2 -2 5 192.45 11.26
2 2 -5 213.01 11.62
2 2 -5 213.64 11.94
2 2 -5 210.99 11.26
2 2 -5 216.56 11.43
-2 -1 5 61.55 3.3
-2 -1 5 56.33 3.18
-2 -1 5 59.72 3.24
2 1 -5 48.91 3.38
2 1 -5 54.35 3.22
2 1 -5 51.6 3.32
2 1 -5 49.91 3.22
-2 0 5 373.84 20.67
-2 0 5 358.75 20.1
-2 0 5 390.43 20.35
2 0 -5 378.82 21.27
2 0 -5 369.26 20.07
2 0 -5 382.48 21.25
2 0 -5 379.05 20.75
2 0 -5 371.14 20.38
2 0 -5 380.41 20.7
-2 1 5 54.12 3.49
-2 1 5 53.61 3.39
-2 1 5 54.61 3.35
2 -1 -5 62.88 3.58
2 -1 -5 61.95 3.41
2 -1 -5 58.77 3.46
2 -1 -5 61.41 3.38
-2 2 5 213.24 11.44
-2 2 5 215.71 11.78
-2 2 5 225.34 11.55
2 -2 -5 205.03 12.1
2 -2 -5 204.61 11.44
2 -2 -5 203.07 12.1
2 -2 -5 205.81 11.58
2 -2 -5 207.34 11.8
-2 3 5 43.13 3.14
-2 3 5 45.05 3.01
-2 3 5 42.67 3.18
2 -3 -5 50.94 3.21
2 -3 -5 50.81 3.31
2 -3 -5 51 3.17
2 -3 -5 50.62 3.11
-2 4 5 13.72 1.73
-2 4 5 12.32 1.65
2 -4 -5 14.11 1.82
2 -4 -5 13.45 1.72
-2 5 5 7.63 1.42
-2 5 5 6.75 1.69
2 -5 -5 8.15 1.61
2 -5 -5 6.79 1.61
-2 6 5 3.36 1.48
-2 6 5 3.2 1.74
2 -6 -5 6.06 1.82
-1 -6 5 10.35 1.94
1 6 -5 7.72 1.83
-1 -5 5 6.69 1.6
1 5 -5 12.14 1.63
-1 -4 5 25.15 2.21
-1 -4 5 24.76 2.27
-1 -4 5 23.7 2.11
1 4 -5 21.63 2.12
1 4 -5 24.53 2.39
-1 -3 5 63.62 3.9
-1 -3 5 62.35 3.84
-1 -3 5 63.52 3.93
-1 -3 5 62.12 4.03
1 3 -5 62.62 3.9
1 3 -5 63.63 4.03
1 3 -5 66.73 3.95
1 3 -5 61.11 3.93
-1 -2 5 18.32 1.58
-1 -2 5 18.49 1.52
-1 -2 5 19.41 1.56
-1 -2 5 18.17 1.47
-1 -2 5 17.15 1.41
1 2 -5 13.34 1.45
1 2 -5 13.05 1.51
1 2 -5 12.95 1.52
1 2 -5 12.29 1.46
-1 -1 5 85.06 4.71
-1 -1 5 94.37 5.02
-1 -1 5 90.36 4.76
-1 -1 5 87.43 4.85
1 1 -5 81.3 4.98
1 1 -5 78.2 4.71
1 1 -5 78.81 4.67
1 1 -5 78.25 4.86
1 1 -5 77.69 4.75
-1 0 5 1.47 0.76
-1 0 5 1.87 0.64
-1 0 5 1.73 0.62
1 0 -5 2.24 0.67
1 0 -5 2.79 0.65
1 0 -5 2.22 0.78
1 0 -5 2.37 0.78
1 0 -5 2.23 0.7
-1 1 5 80.71 4.91
-1 1 5 82.19 5.03
-1 1 5 79.61 5.13
-1 1 5 80.18 4.89
1 -1 -5 88.35 5.01
1 -1 -5 93.34 4.94
1 -1 -5 91.03 4.91
1 -1 -5 93.2 5.17
1 -1 -5 93.82 5.16
-1 2 5 13.91 1.57
-1 2 5 14.01 1.51
-1 2 5 13.61 1.46
1 -2 -5 16.84 1.53
1 -2 -5 17.92 1.59
1 -2 -5 18.89 1.61
1 -2 -5 18.69 1.43
1 -2 -5 18.67 1.56
-1 3 5 64.78 3.92
-1 3 5 61.3 4.06
-1 3 5 63.2 4.01
1 -3 -5 62.83 4.16
1 -3 -5 67.26 4.09
1 -3 -5 67.05 4
1 -3 -5 62.6 3.92
-1 4 5 21.8 2.12
-1 4 5 22.34 2.32
1 -4 -5 24.99 2.17
1 -4 -5 26.84 2.34
-1 5 5 9.72 1.63
-1 5 5 9.73 1.81
1 -5 -5 6.75 1.58
-1 6 5 11.39 1.86
1 -6 -5 12.19 2.05
0 -6 5 20.5 2.58
0 6 -5 19.65 2.39
0 -5 5 23.76 2.46
0 5 -5 26.25 2.72
0 5 -5 27.43 2.41
0 5 -5 23.81 2.31
0 -4 5 17.89 1.91
0 4 -5 11.04 1.48
0 4 -5 11.66 1.71
0 -3 5 14.08 1.61
0 -3 5 15.03 1.62
0 -3 5 13.73 1.47
0 3 -5 14.94 1.7
0 3 -5 16.13 1.72
0 3 -5 15.1 1.66
0 3 -5 14.87 1.53
0 -2 5 71.58 4.36
0 -2 5 69.63 4.54
0 -2 5 71.41 4.43
0 -2 5 71.26 4.42
0 -2 5 72.69 4.68
0 2 -5 84.9 4.44
0 2 -5 81.7 4.46
0 2 -5 82.09 4.42
0 2 -5 76.44 4.54
0 -1 5 16.23 1.37
0 -1 5 16.62 1.32
0 -1 5 16.44 1.35
0 1 -5 12.28 1.33
0 1 -5 13.98 1.34
0 1 -5 11.92 1.26
0 1 -5 13 1.3
0 0 5 305.24 16.75
0 0 5 317.46 17.67
0 0 5 309.85 17.7
0 0 5 316.48 16.96
0 0 5 312.43 17.23
0 0 -5 316.21 17.25
0 0 -5 320.95 17.68
0 0 -5 299.79 16.94
0 0 -5 306.41 16.68
0 0 -5 310.04 16.73
0 1 5 14.33 1.39
0 1 5 13.28 1.38
0 1 5 11.97 1.37
0 1 5 13.41 1.42
0 -1 -5 14.87 1.3
0 -1 -5 17.29 1.41
0 -1 -5 17.45 1.39
0 -1 -5 17.32 1.32
0 -1 -5 18.58 1.43
0 2 5 82.97 4.51
0 2 5 84.58 4.52
0 2 5 88.06 4.68
0 -2 -5 72.16 4.59
0 -2 -5 70.19 4.45
0 -2 -5 70.31 4.68
0 -2 -5 73.44 4.43
0 -2 -5 72.59 4.5
0 3 5 16.27 1.78
0 3 5 16.85 1.79
0 3 5 15.07 1.67
0 -3 -5 17.72 1.76
0 -3 -5 15.96 1.58
0 -3 -5 15.59 1.68
0 4 5 10.77 1.7
0 4 5 11.09 1.62
0 -4 -5 17.41 1.98
0 -4 -5 19.37 2.02
0 -4 -5 17.13 1.8
0 5 5 29.82 2.84
0 5 5 25.22 2.48
0 -5 -5 24.41 2.41
0 6 5 19.57 2.37
0 -6 -5 20.07 2.49
1 -5 5 14.88 1.94
-1 5 -5 14.6 1.91
-1 5 -5 12.23 2
1 -4 5 16.12 1.8
1 -4 5 16.48 1.93
-1 4 -5 15.1 1.94
-1 4 -5 14.92 1.67
1 -3 5 90.51 5.05
1 -3 5 85.66 5.03
1 -3 5 88.77 5.19
1 -3 5 88.63 5.42
-1 3 -5 76.53 4.92
-1 3 -5 82.62 5
-1 3 -5 79.96 5.03
1 -2 5 68.92 4.26
1 -2 5 66.58 4.02
1 -2 5 65.34 4.13
1 -2 5 68.94 4.03
-1 2 -5 65.8 4.12
-1 2 -5 68.65 4.02
-1 2 -5 70.21 4.06
-1 2 -5 68.76 3.97
1 -1 5 49.24 2.72
1 -1 5 49.11 2.89
1 -1 5 45.28 2.76
1 -1 5 47.17 2.7
-1 1 -5 39.12 2.68
-1 1 -5 38.98 2.69
-1 1 -5 39.15 2.73
-1 1 -5 39.24 2.61
1 0 5 2.27 0.74
1 0 5 1.53 0.83
1 0 5 2.1 0.69
1 0 5 1.22 0.69
1 0 5 1.87 0.8
-1 0 -5 1.9 0.73
-1 0 -5 2.31 0.77
-1 0 -5 1.46 0.59
-1 0 -5 2.02 0.6
1 1 5 39.07 2.75
1 1 5 38.75 2.65
1 1 5 39.61 2.74
1 1 5 39.93 2.79
1 1 5 38.32 2.66
-1 -1 -5 46.78 2.63
-1 -1 -5 44.73 2.68
-1 -1 -5 47.53 2.64
-1 -1 -5 46.96 2.72
1 2 5 71.15 4.07
1 2 5 71.37 4.23
1 2 5 67.41 4.06
-1 -2 -5 67.49 4.03
-1 -2 -5 66.49 4.06
-1 -2 -5 68.46 4.01
-1 -2 -5 70.51 4.18
-1 -2 -5 62.06 4.23
1 3 5 81.91 5.27
1 3 5 81.1 5.13
1 3 5 78.38 5.1
-1 -3 -5 87.98 5.07
-1 -3 -5 90.86 5.18
-1 -3 -5 90.97 5.3
-1 -3 -5 91.39 5.13
1 4 5 17.31 1.95
1 4 5 16.45 2.14
-1 -4 -5 17.69 1.93
-1 -4 -5 17.56 2.08
1 5 5 16.45 2.06
-1 -5 -5 15.06 1.93
2 -5 5 17.16 2.11
2 -5 5 17.71 2.26
-2 5 -5 17.32 1.87
-2 5 -5 17.41 2.22
2 -4 5 28.64 2.46
2 -4 5 27.83 2.29
-2 4 -5 25.85 2.15
-2 4 -5 24.34 2.4
-2 4 -5 25.73 2.59
2 -3 5 13.38 1.74
2 -3 5 11.05 1.39
2 -3 5 12.63 1.5
-2 3 -5 8.49 1.21
-2 3 -5 8.66 1.3
-2 3 -5 9.17 1.06
-2 2 -5 2.82 0.82
-2 2 -5 3.52 0.63
-2 2 -5 2.82 0.75
-2 2 -5 3.73 0.78
2 -1 5 72.55 4.11
2 -1 5 67.95 3.85
2 -1 5 69.11 3.99
2 -1 5 67.1 3.84
-2 1 -5 64.28 3.75
-2 1 -5 61.34 3.85
-2 1 -5 63.26 3.87
-2 1 -5 61.69 3.93
2 0 5 32.36 2.18
2 0 5 35.88 2.34
2 0 5 33.98 2.4
2 0 5 34.2 2.45
2 0 5 32.82 2.33
-2 0 -5 32.68 2.27
-2 0 -5 33.2 2.17
-2 0 -5 33.88 2.06
-2 0 -5 31.76 2.28
2 1 5 64.41 4.02
2 1 5 64.59 3.91
2 1 5 66.09 4.12
2 1 5 62.61 4.07
2 1 5 59.86 3.89
-2 -1 -5 65.72 3.89
-2 -1 -5 71.86 3.86
-2 -1 -5 72.31 3.88
-2 -1 -5 69.89 4
-2 -2 -5 9.35 1.01
-2 -2 -5 8.64 1.13
-2 -2 -5 8.5 1.07
-2 -2 -5 8.21 1.02
2 3 5 9.9 1.35
2 3 5 8.3 1.36
2 3 5 8.95 1.35
-2 -3 -5 12.52 1.46
-2 -3 -5 13.18 1.69
-2 -3 -5 13.97 1.48
-2 -3 -5 12.45 1.48
2 4 5 24.39 2.53
2 4 5 23.7 2.36
-2 -4 -5 28.55 2.49
-2 -4 -5 29.69 2.35
2 5 5 17.76 2.19
-2 -5 -5 18.22 2.16
3 -5 5 30.6 2.8
3 -5 5 32.94 2.91
-3 5 -5 31 2.89
3 -4 5 21.09 2.33
3 -4 5 23.09 2.21
-3 4 -5 29.34 2.59
-3 4 -5 27.74 2.39
3 -3 5 70.63 4.14
3 -3 5 67.09 4.25
3 -3 5 61.47 4.42
-3 3 -5 66.88 4.14
-3 3 -5 65.55 4.11
3 -2 5 42.19 2.79
3 -2 5 41.09 2.88
3 -2 5 41.77 2.72
3 -2 5 45.06 2.71
-3 2 -5 41.48 2.76
-3 2 -5 39 2.73
3 -1 5 14.63 1.36
3 -1 5 14.21 1.48
3 -1 5 13.86 1.55
3 -1 5 12.21 1.42
3 -1 5 14.04 1.37
-3 1 -5 19.1 1.46
-3 1 -5 18.84 1.48
3 0 5 2.45 0.76
3 0 5 2.29 0.77
3 0 5 1.11 0.92
3 0 5 1.68 0.79
3 0 5 1.06 0.69
3 0 5 1.33 0.73
-3 0 -5 2.34 0.78
-3 0 -5 1.61 0.62
3 1 5 19.69 1.62
3 1 5 19.84 1.63
3 1 5 18.53 1.45
3 1 5 19.3 1.55
3 1 5 18.75 1.52
-3 -1 -5 12.81 1.45
-3 -1 -5 13.95 1.24
-3 -1 -5 15.66 1.51
-3 -1 -5 14.84 1.45
3 2 5 41.67 2.96
3 2 5 42.22 2.77
3 2 5 41.98 2.84
3 2 5 41.05 2.94
3 2 5 43.03 2.95
-3 -2 -5 43.52 2.75
-3 -2 -5 41.85 2.8
-3 -2 -5 42.83 2.81
-3 -2 -5 42.05 2.65
3 3 5 68.2 4.47
3 3 5 67.01 4.31
-3 -3 -5 69.59 4.35
-3 -3 -5 69.6 4.26
-3 -3 -5 71.38 4.21
3 4 5 28.65 2.55
3 4 5 28.62 2.39
-3 -4 -5 19.77 2.3
-3 -4 -5 19.64 2.09
3 5 5 28.33 2.79
-3 -5 -5 31 2.62
-3 -5 -5 33.82 3.09
4 -5 5 3.83 1.53
-4 5 -5 6.7 1.68
4 -4 5 24.21 2.39
-4 4 -5 25.69 2.39
-4 4 -5 25.92 2.49
4 -3 5 29.41 2.82
4 -3 5 36.45 2.75
-4 3 -5 38.89 2.69
-4 3 -5 41.58 2.73
4 -2 5 33.35 2.22
4 -2 5 29.46 2.3
4 -2 5 32.96 2.37
-4 2 -5 31.89 2.3
-4 2 -5 30.57 2.25
4 -1 5 75.01 4.55
4 -1 5 73.2 4.72
4 -1 5 74.32 4.68
-4 1 -5 84.44 4.58
-4 1 -5 85.61 4.65
-4 1 -5 80.66 4.56
4 0 5 134.82 8.04
4 0 5 134.87 7.86
4 0 5 135.83 7.63
4 0 5 142.93 7.89
4 0 5 138.26 8.12
-4 0 -5 133.49 7.56
-4 0 -5 138.42 7.62
-4 0 -5 141.18 7.64
4 1 5 85.36 4.78
4 1 5 83.73 4.92
4 1 5 84.46 4.81
4 1 5 85.49 5.09
4 1 5 85.86 5.04
4 1 5 83.98 4.81
-4 -1 -5 78.81 4.73
-4 -1 -5 73.32 4.76
4 2 5 32.8 2.47
4 2 5 31.29 2.35
4 2 5 31.52 2.47
4 2 5 32.05 2.51
-4 -2 -5 33.78 2.05
-4 -2 -5 32.69 2.29
-4 -2 -5 32.75 2.36
4 3 5 41.2 2.98
4 3 5 41.45 2.8
-4 -3 -5 33.87 2.53
-4 -3 -5 34.56 2.7
-4 -3 -5 38.54 2.86
4 4 5 26.28 2.44
4 4 5 26.82 2.62
-4 -4 -5 23.58 2.13
-4 -4 -5 24.67 2.48
4 5 5 6.08 1.77
-4 -5 -5 3.99 1.3
-4 -5 -5 2.92 1.63
5 -5 5 4.41 1.58
-5 5 -5 4.35 1.62
5 -4 5 12.86 1.83
-5 4 -5 16.9 2
-5 4 -5 16.91 2.15
5 -3 5 4.83 1.2
5 -3 5 4.05 1.37
-5 3 -5 8.41 1.22
5 -2 5 34.03 2.42
5 -2 5 33.18 2.48
-5 2 -5 32.07 2.42
-5 2 -5 32.16 2.34
5 -1 5 100.57 6.22
5 -1 5 98.34 6.07
-5 1 -5 108.32 5.87
-5 1 -5 106.37 5.87
5 0 5 60.92 3.84
5 0 5 58.25 3.79
5 0 5 63.39 3.8
5 0 5 61.47 3.95
-5 0 -5 60.64 3.68
-5 0 -5 60.11 3.59
5 1 5 109.63 6.4
5 1 5 106.03 6.22
5 1 5 107.53 6.44
-5 -1 -5 103 6.05
-5 -1 -5 105.17 6.01
5 2 5 31.27 2.58
5 2 5 31.57 2.54
5 2 5 35.43 2.45
-5 -2 -5 32.79 2.41
-5 -2 -5 33.5 2.37
-5 -3 -5 4.18 1.1
-5 -3 -5 3.14 1.19
5 4 5 16.51 2.08
5 4 5 14.96 2.02
-5 -4 -5 13.02 1.91
-5 -4 -5 11.12 1.5
5 5 5 4.38 1.81
-5 -5 -5 3.27 1.71
-5 -5 -5 3.62 1.13
6 -5 5 0.54 1.43
-6 5 -5 0.81 1.45
-6 5 -5 -0.29 1.31
6 -4 5 28.97 2.75
-6 4 -5 33.98 2.73
-6 4 -5 35.04 2.81
6 -3 5 4.18 1.16
6 -3 5 3.46 1.34
-6 3 -5 3.35 1.12
-6 3 -5 3.48 1.09
6 -2 5 34.22 2.51
6 -2 5 32.35 2.61
-6 2 -5 35.45 2.51
-6 2 -5 35.06 2.47
6 -1 5 42.9 3.05
6 -1 5 45.89 3.14
-6 1 -5 46.11 2.9
-6 1 -5 46.22 2.94
6 0 5 10.38 1.4
6 0 5 7.81 1.18
6 0 5 8.25 1.16
-6 0 -5 9.56 1.13
-6 0 -5 8.9 1.02
6 1 5 45.87 3.11
6 1 5 45.93 3.08
6 1 5 45.34 3.17
-6 -1 -5 43.68 2.98
-6 -1 -5 47.06 2.95
6 2 5 37.11 2.69
6 2 5 34.78 2.76
-6 -2 -5 33.5 2.55
-6 -2 -5 33.27 2.5
6 3 5 4.42 1.39
-6 -3 -5 4.88 1.2
-6 -3 -5 5.54 1.31
6 4 5 34.48 3.15
-6 -4 -5 31.86 2.92
6 5 5 -1.63 1.66
-6 -5 -5 3.43 1.7
7 -4 5 31.63 2.7
-7 4 -5 27.67 2.63
-7 4 -5 28.46 2.58
7 -3 5 7.51 1.4
7 -3 5 8.48 1.6
-7 3 -5 12.49 1.49
-7 3 -5 12.45 1.5
7 -2 5 19.34 1.93
7 -2 5 20.06 1.79
-7 2 -5 14.62 1.79
-7 2 -5 15.99 1.71
7 -1 5 58.73 4.18
7 -1 5 59.81 4.03
-7 1 -5 68.13 3.92
-7 1 -5 68.59 3.87
7 0 5 18.59 1.86
7 0 5 17.42 1.74
7 0 5 15.35 1.76
-7 0 -5 17.45 1.62
-7 0 -5 16.06 1.55
7 1 5 67.8 4.13
7 1 5 67.15 4.28
7 1 5 66.74 4.2
-7 -1 -5 61.77 3.93
-7 -1 -5 60.9 3.97
7 2 5 15.53 2.03
7 2 5 16.93 2.08
-7 -2 -5 19.27 1.89
-7 -2 -5 19.89 1.85
7 3 5 11.63 1.74
-7 -3 -5 9.18 1.44
-7 -3 -5 7.56 1.51
7 4 5 29.34 3.03
-7 -4 -5 28.74 2.74
-7 -4 -5 30.42 2.8
8 -4 5 4.76 1.49
-8 4 -5 10.52 1.66
-8 4 -5 9.05 1.6
8 -3 5 23.27 2.2
8 -3 5 23.37 2.38
-8 3 -5 21.97 2.17
-8 3 -5 21.39 2.06
8 -2 5 25.32 2.09
8 -2 5 21.43 2.31
-8 2 -5 25.96 2
-8 2 -5 23.95 2.14
8 -1 5 9.48 1.2
8 -1 5 7.42 1.43
-8 1 -5 6.19 1.04
-8 1 -5 4.72 1.04
8 0 5 22.86 2.06
8 0 5 19.15 2.12
8 0 5 20.73 2
-8 0 -5 22.84 1.85
-8 0 -5 22.8 1.86
8 1 5 5.16 1.16
8 1 5 6.01 1.33
8 1 5 4.06 1.15
-8 -1 -5 8.42 1.27
-8 -1 -5 9.59 1.16
8 2 5 27.35 2.51
-8 -2 -5 27.79 2.39
-8 -2 -5 25.63 2.24
8 3 5 24.61 2.52
-8 -3 -5 24.07 2.28
-8 -3 -5 23.2 2.34
8 4 5 11.17 1.99
-8 -4 -5 6.6 1.7
-8 -4 -5 5.14 1.54
9 -3 5 0.91 1.12
9 -3 5 0.51 1.36
-9 3 -5 2.85 1.14
-9 3 -5 3.21 1.2
9 -2 5 2.99 1.35
9 -2 5 3.7 1.06
-9 2 -5 1.73 1.07
-9 2 -5 1.89 0.91
9 -1 5 32.46 2.36
9 -1 5 24.3 2.62
-9 1 -5 32.5 2.22
-9 1 -5 35.19 2.41
9 0 5 7.99 1.43
9 0 5 6.39 1.2
9 0 5 6.57 1.23
-9 0 -5 6.05 1.07
-9 0 -5 6.42 1.11
9 1 5 32.18 2.76
9 1 5 32.83 2.67
-9 -1 -5 34.16 2.58
-9 -1 -5 35 2.48
9 2 5 0.72 1.18
-9 -2 -5 3.96 1.3
-9 -2 -5 3.51 1.16
9 3 5 2.69 1.38
-9 -3 -5 2.12 1.21
-9 -3 -5 1.26 1.3
10 -3 5 21.25 2.62
-10 3 -5 21.71 2.23
-10 3 -5 26.64 2.17
10 -2 5 7.34 1.3
10 -2 5 6.65 1.58
-10 2 -5 5.6 1.25
10 -1 5 14.02 1.54
-10 1 -5 11.08 1.43
10 0 5 0.43 1
10 0 5 1.05 1.23
10 0 5 0.85 0.95
-10 0 -5 -0.07 0.88
-10 0 -5 -0.56 0.87
10 1 5 11.38 1.58
10 1 5 7.42 1.57
-10 -1 -5 14.98 1.68
-10 -1 -5 13.25 1.63
10 2 5 6.48 1.51
-10 -2 -5 7.05 1.46
-10 -2 -5 8.13 1.42
10 3 5 27.21 2.91
-10 -3 -5 27.23 2.68
-10 -3 -5 25.25 2.54
11 -2 5 9.26 1.8
-11 2 -5 11.03 1.5
11 -1 5 5.78 1.48
11 -1 5 4.9 1.11
-11 1 -5 2.89 1.08
11 0 5 11.65 1.49
11 0 5 13.58 1.78
-11 0 -5 12.75 1.5
11 1 5 1.59 1.25
-11 -1 -5 5.21 1.2
-11 -1 -5 7.19 1.22
11 2 5 11.98 1.85
-11 -2 -5 12.12 1.66
-11 -2 -5 11.44 1.71
-13 -2 6 9.21 1.31
13 2 -6 7.72 1.28
-13 0 6 0.46 1.31
-13 1 6 6.36 1.76
-13 2 6 8.3 1.94
-12 -3 6 0.87 1.12
-12 -3 6 1.29 1.12
12 3 -6 -0.55 1.19
-12 -2 6 13.68 1.53
12 2 -6 10.85 1.39
12 2 -6 9.04 1.45
-12 -1 6 10.06 1.8
-12 0 6 1.04 1.29
-12 1 6 11.71 1.93
-12 2 6 9.03 1.87
-12 3 6 0.92 1.51
12 -3 -6 0.39 1.03
12 -3 -6 0.88 0.93
-11 -3 6 4.69 1.27
-11 -3 6 4.63 1.29
11 3 -6 3.54 1.33
-11 -2 6 1.14 0.88
-11 -2 6 0.25 0.86
11 2 -6 0.65 0.99
11 2 -6 -0.27 0.96
-11 -1 6 7.41 1.54
-11 0 6 1.64 1.17
-11 1 6 10.16 1.72
-11 2 6 -0.27 1.16
-11 3 6 4.75 1.66
11 -3 -6 4.97 1.08
11 -3 -6 5.67 1.13
-10 -4 6 12.15 1.82
-10 -4 6 11.89 1.76
10 4 -6 11.31 1.92
-10 -3 6 6.86 1.32
-10 -3 6 6.11 1.29
10 3 -6 10.18 1.57
-10 -2 6 74.7 4.41
-10 -2 6 72.56 4.43
-10 -2 6 73.63 5.09
10 2 -6 75.41 4.63
10 2 -6 74.21 4.73
-10 -1 6 43.19 3.25
10 1 -6 37.31 2.66
-10 0 6 8.38 1.51
-10 1 6 42.36 3.43
-10 2 6 66.42 4.92
10 -2 -6 70.55 4.15
10 -2 -6 65.52 4.16
-10 3 6 9.82 1.77
10 -3 -6 6.28 1.17
10 -3 -6 4.95 1.1
-10 4 6 12.73 1.58
-10 4 6 11.14 2.05
10 -4 -6 11.04 1.69
10 -4 -6 10.67 1.6
-9 -4 6 -0.64 1.27
-9 -4 6 -0.34 1.2
9 4 -6 0.95 1.38
-9 -3 6 12.9 1.59
-9 -3 6 13.23 1.68
9 3 -6 8.48 1.59
-9 -2 6 14.44 1.54
-9 -2 6 13.26 1.74
-9 -2 6 11.39 1.43
9 2 -6 12.77 1.59
9 2 -6 13.79 1.62
-9 -1 6 52.39 3.09
-9 -1 6 54.86 3.82
9 1 -6 47.39 3.32
9 1 -6 55.47 3.25
-9 0 6 57.52 4.13
-9 1 6 53.2 3.94
-9 2 6 13.8 1.92
9 -2 -6 12.01 1.29
9 -2 -6 12.54 1.26
9 -2 -6 12.69 1.36
-9 3 6 9.28 1.26
-9 3 6 9.62 1.74
9 -3 -6 12.87 1.53
9 -3 -6 11.85 1.46
-9 4 6 0.71 1.34
-9 4 6 0.61 1.07
9 -4 -6 0.19 1.1
9 -4 -6 0.74 1.14
-8 -5 6 0.32 1.52
8 5 -6 2.17 1.59
-8 -4 6 5.23 1.44
-8 -4 6 7.11 1.62
8 4 -6 10.41 1.85
-8 -3 6 8.66 1.37
-8 -3 6 7.54 1.29
8 3 -6 11.52 1.6
-8 -2 6 52.99 3.75
-8 -2 6 55.11 3.36
8 2 -6 54.3 3.5
8 2 -6 52.38 3.57
-8 -1 6 9.53 1.11
-8 -1 6 9.79 1.1
-8 -1 6 8.74 1.35
8 1 -6 8.82 1.12
8 1 -6 8.27 1
-8 0 6 20.84 2.06
-8 1 6 8.13 1.33
8 -1 -6 10.05 0.95
-8 2 6 54.75 4.01
-8 2 6 55.71 3.24
-8 2 6 52.87 3.2
8 -2 -6 52.6 3.4
-8 3 6 10.12 1.25
-8 3 6 10.28 1.65
8 -3 -6 7.35 1.2
8 -3 -6 6.95 1.21
-8 4 6 11.35 1.43
-8 4 6 10.26 1.74
8 -4 -6 6.97 1.41
8 -4 -6 4.97 1.34
-8 5 6 1.31 1.32
8 -5 -6 0.15 1.35
-7 -5 6 7.2 1.82
7 5 -6 3.94 1.65
-7 -4 6 2.47 1.36
-7 -4 6 0.85 1.15
7 4 -6 1.68 1.37
-7 -3 6 28.44 2.36
-7 -3 6 26.76 2.29
7 3 -6 30.92 2.56
-7 -2 6 12.98 1.62
-7 -2 6 12.71 1.53
7 2 -6 18.66 1.72
7 2 -6 19.59 1.71
-7 -1 6 102.41 6.7
-7 -1 6 100.21 5.89
-7 -1 6 102.81 5.89
-7 -1 6 100.66 5.85
7 1 -6 112.76 6.1
7 1 -6 110.81 6.07
7 1 -6 111.75 6.3
-7 0 6 24.25 2.1
-7 0 6 22.17 1.57
7 0 -6 19.54 1.62
7 0 -6 21.88 1.58
7 0 -6 22.83 1.57
-7 1 6 108.74 5.52
-7 1 6 108.46 6.54
7 -1 -6 99.73 5.7
7 -1 -6 98.12 5.87
7 -1 -6 94.54 5.69
7 -1 -6 95.16 5.84
-7 2 6 18.11 1.99
-7 2 6 18.75 1.42
-7 2 6 19.44 1.52
7 -2 -6 14.61 1.47
7 -2 -6 14.22 1.5
7 -2 -6 14.31 1.41
-7 3 6 27.74 2.61
-7 3 6 30.09 2.19
7 -3 -6 26.39 2.2
7 -3 -6 26.26 2.2
-7 4 6 2.1 1.13
-7 4 6 3.15 1.26
7 -4 -6 1.6 1.19
7 -4 -6 0.68 1.11
-7 5 6 6.85 1.55
7 -5 -6 5.51 1.62
-6 -5 6 17.61 2.31
6 5 -6 14.16 2.02
6 5 -6 13.77 2.22
-6 -4 6 6.68 1.51
-6 -4 6 7.29 1.43
6 4 -6 10.89 1.77
6 4 -6 9.21 1.54
-6 -3 6 26.93 2.18
-6 -3 6 26.4 2.19
6 3 -6 22.48 2.3
-6 -2 6 72.85 4.74
-6 -2 6 68.67 4.36
6 2 -6 76.84 4.64
6 2 -6 77.39 4.53
-6 -1 6 9.77 1.09
-6 -1 6 10.73 1.17
-6 -1 6 11.03 1.06
6 1 -6 6.76 0.99
6 1 -6 7.31 0.87
6 1 -6 7.6 0.93
-6 0 6 124.6 6.72
-6 0 6 125.39 6.68
-6 0 6 118.3 6.76
6 0 -6 127.82 6.95
6 0 -6 118.79 7.15
6 0 -6 124.02 6.96
-6 1 6 7.15 0.79
-6 1 6 7.05 0.8
-6 1 6 7.06 0.92
6 -1 -6 9.88 0.93
6 -1 -6 9.25 0.96
6 -1 -6 8.99 0.93
6 -1 -6 8.95 0.96
-6 2 6 74.4 4.23
-6 2 6 81.74 4.3
6 -2 -6 73.32 4.39
6 -2 -6 69.9 4.5
6 -2 -6 67.98 4.46
-6 3 6 24.74 2.38
-6 3 6 22.36 2.04
6 -3 -6 25.83 2.12
6 -3 -6 27.81 2.12
-6 4 6 9.69 1.47
-6 4 6 9.85 1.57
6 -4 -6 5.85 1.35
6 -4 -6 5.96 1.4
-6 5 6 11.83 1.84
6 -5 -6 13.48 1.96
-5 -5 6 15.8 1.91
-5 -5 6 21.5 2.51
5 5 -6 20.71 2.33
-5 -4 6 17.83 1.66
-5 -4 6 18.69 2.05
5 4 -6 14.18 2
5 4 -6 12.49 1.71
-5 -3 6 34.82 2.55
-5 -3 6 33.04 2.21
-5 -3 6 31.61 2.47
5 3 -6 34.97 2.56
5 3 -6 33.18 2.64
-5 -2 6 -0.14 0.72
5 2 -6 -0.3 0.73
5 2 -6 1.04 0.82
5 2 -6 0.48 0.75
-5 -1 6 117.59 6.09
-5 -1 6 112.64 6.06
-5 -1 6 114.08 6.03
5 1 -6 102.51 6.41
5 1 -6 107.77 6.12
5 1 -6 103.39 6.22
5 1 -6 105.58 6.25
-5 0 6 68.92 3.78
-5 0 6 69.8 3.85
-5 0 6 67.34 3.89
5 0 -6 64.69 3.99
5 0 -6 64.24 4.08
5 0 -6 67.73 3.94
-5 1 6 101.52 5.92
-5 1 6 101.28 5.93
-5 1 6 102.4 5.91
5 -1 -6 112.04 6.3
5 -1 -6 112.92 6.25
5 -1 -6 109.54 6.08
5 -1 -6 110.04 6.11
-5 2 6 0.6 0.67
-5 2 6 0.47 0.55
5 -2 -6 0.8 0.56
5 -2 -6 -0.07 0.63
5 -2 -6 -0.59 0.67
5 -2 -6 0.05 0.63
-5 3 6 30.03 2.41
5 -3 -6 33.27 2.46
5 -3 -6 33.64 2.49
-5 4 6 14.5 1.91
-5 4 6 11.57 1.67
5 -4 -6 18.09 1.95
-5 5 6 21.99 2.45
5 -5 -6 18.62 2.42
-4 -5 6 25.54 2.43
-4 -5 6 26.58 2.78
4 5 -6 30.52 2.63
-4 -4 6 60.66 4.11
-4 -4 6 61.57 3.91
4 4 -6 61.6 4.09
4 4 -6 63.03 4.33
-4 -3 6 25.78 1.96
-4 -3 6 20.93 1.94
-4 -3 6 21.9 1.73
4 3 -6 18.89 1.92
4 3 -6 17.55 1.99
-4 -2 6 20.46 1.7
-4 -2 6 20.91 1.45
-4 -2 6 19.84 1.64
4 2 -6 19.22 1.72
4 2 -6 18.6 1.68
4 2 -6 18.35 1.64
4 2 -6 17.11 1.71
-4 -1 6 32.78 1.92
4 1 -6 27.9 1.88
4 1 -6 24.67 1.89
4 1 -6 25.36 1.96
4 1 -6 24.85 1.88
4 1 -6 24.84 1.93
-4 0 6 65.36 3.72
-4 0 6 67.49 3.8
-4 0 6 66.52 3.84
4 0 -6 65.75 4.02
4 0 -6 65.22 3.7
4 0 -6 65.69 3.88
4 0 -6 62.59 3.93
-4 1 6 26.12 2.02
-4 1 6 25.17 1.97
-4 1 6 25.36 1.97
4 -1 -6 31.19 2.03
4 -1 -6 31.4 2.07
4 -1 -6 32.31 2.03
4 -1 -6 32.89 1.87
4 -1 -6 30.05 1.96
-4 2 6 19.54 1.72
-4 2 6 17.34 1.59
4 -2 -6 19.55 1.62
4 -2 -6 19.37 1.69
4 -2 -6 21.26 1.51
4 -2 -6 19.09 1.59
4 -2 -6 19.57 1.68
4 -2 -6 19.66 1.61
-4 3 6 16.76 1.9
4 -3 -6 21.32 1.92
4 -3 -6 22.17 1.95
4 -3 -6 23.88 1.81
-4 4 6 59.94 4.21
4 -4 -6 67.61 4.33
4 -4 -6 66.09 4.17
-4 5 6 30.91 2.86
4 -5 -6 28.32 2.8
-3 -5 6 27.7 2.67
-3 -5 6 26.95 2.42
3 5 -6 21.23 2.47
-3 -4 6 18.2 1.92
-3 -4 6 21.18 2.08
3 4 -6 18.18 2.24
3 4 -6 17.91 2.01
-3 -3 6 59.18 3.64
-3 -3 6 56.75 3.73
-3 -3 6 56.99 3.68
3 3 -6 59.52 3.72
3 3 -6 60.35 3.75
3 3 -6 58.22 3.84
-3 -2 6 47.38 3.24
-3 -2 6 44.73 3.11
-3 -2 6 46.6 3.29
3 2 -6 59.26 3.47
3 2 -6 56.74 3.28
3 2 -6 58.52 3.37
3 2 -6 54.44 3.24
3 1 -6 3.5 0.81
3 1 -6 3.59 0.71
3 1 -6 3.36 0.72
3 1 -6 4 0.79
-3 0 6 6.2 0.78
-3 0 6 6.38 0.89
-3 0 6 6.2 0.71
3 0 -6 6.09 0.94
3 0 -6 5.67 0.8
3 0 -6 6.18 0.85
3 0 -6 6.32 0.7
3 0 -6 8.01 1
3 0 -6 5.3 0.78
3 -1 -6 10.45 1.21
3 -1 -6 10.05 1.23
3 -1 -6 11.02 1.15
3 -1 -6 10.28 1.05
3 -1 -6 10.49 1.23
3 -1 -6 9.74 1.11
-3 2 6 59.74 3.3
-3 2 6 56.51 3.3
-3 2 6 59.21 3.1
3 -2 -6 48.19 3.16
3 -2 -6 49.25 3.37
3 -2 -6 50.59 3.32
3 -2 -6 48.57 3.34
3 -2 -6 46.52 3.18
-3 3 6 61.28 3.75
-3 3 6 59.63 3.53
3 -3 -6 55.55 3.85
3 -3 -6 57.76 3.81
3 -3 -6 58.96 3.67
-3 4 6 18.55 1.82
-3 4 6 18.38 2.19
3 -4 -6 20.16 2.13
3 -4 -6 22.09 2.04
-3 5 6 22.49 2.08
-3 5 6 19.97 2.58
3 -5 -6 26.17 2.47
3 -5 -6 26.5 2.65
-2 -5 6 12.67 1.83
2 5 -6 11.53 1.79
-2 -4 6 25.09 2.19
-2 -4 6 24.48 2.2
2 4 -6 24.48 2.22
2 4 -6 24.99 2.47
2 4 -6 22.23 2.38
-2 -3 6 1.83 0.84
-2 -3 6 2.12 0.92
-2 -3 6 1.63 0.87
-2 -3 6 0.94 0.9
2 3 -6 2.38 1.01
2 3 -6 1.24 0.93
2 3 -6 2.4 0.94
2 2 -6 5.75 0.97
2 2 -6 5.52 0.91
2 2 -6 4.26 0.92
2 2 -6 6.05 0.85
2 2 -6 5.18 0.93
-2 -1 6 51.45 3.36
-2 -1 6 47.51 3.23
-2 -1 6 46.66 3.26
2 1 -6 63.6 3.35
2 1 -6 60.58 3.5
2 1 -6 57.36 3.41
2 1 -6 59.83 3.34
-2 0 6 121.47 6.44
-2 0 6 111.78 6.49
-2 0 6 118.3 6.62
2 0 -6 120.54 6.81
2 0 -6 112.29 6.44
2 0 -6 113.53 6.7
2 0 -6 120.98 6.86
2 0 -6 110.62 6.47
-2 1 6 60.02 3.39
-2 1 6 61.78 3.22
-2 1 6 57.56 3.28
2 -1 -6 50.95 3.22
2 -1 -6 48.75 3.38
2 -1 -6 49.6 3.29
2 -1 -6 54.13 3.28
2 -1 -6 51.28 3.41
2 -2 -6 12.79 1.39
2 -2 -6 11.44 1.38
2 -2 -6 12.29 1.34
2 -2 -6 13.85 1.3
2 -2 -6 12.92 1.44
-2 3 6 1.63 0.9
-2 3 6 1.56 0.92
2 -3 -6 2.22 0.93
2 -3 -6 1.6 0.9
2 -3 -6 1.37 0.93
2 -3 -6 1.71 0.89
-2 4 6 23.03 2.16
-2 4 6 24.01 2.42
2 -4 -6 24.52 2.35
2 -4 -6 26.28 2.23
-2 5 6 9.84 1.61
-2 5 6 10.12 1.83
2 -5 -6 11.39 1.75
-1 -5 6 13.79 1.91
1 5 -6 12.72 1.77
-1 -4 6 3.29 1.17
-1 -4 6 2.82 1.17
1 4 -6 5.45 1.35
1 4 -6 3.87 1.17
-1 -3 6 69.2 4.42
-1 -3 6 67.01 4.31
-1 -3 6 69.7 4.29
1 3 -6 70.04 4.29
1 3 -6 71.61 4.47
1 3 -6 75.02 4.36
1 3 -6 69.98 4.36
-1 -2 6 51.86 3.17
-1 -2 6 51.15 3.31
-1 -2 6 54.08 3.3
-1 -2 6 55.97 3.23
1 2 -6 46.49 3.27
1 2 -6 50.1 3.15
1 2 -6 49.89 3.22
1 2 -6 48.41 3.2
-1 -1 6 84.58 4.52
-1 -1 6 83.44 4.52
-1 -1 6 91.04 4.83
-1 -1 6 84.78 4.65
1 1 -6 68.32 4.62
1 1 -6 70.06 4.52
1 1 -6 73.49 4.46
1 1 -6 73.56 4.52
1 1 -6 77.37 4.76
-1 0 6 229.57 13.33
-1 0 6 234.74 12.75
-1 0 6 232.08 12.65
-1 0 6 229.52 12.98
1 0 -6 234.02 12.62
1 0 -6 234.88 13.02
1 0 -6 219.97 12.75
1 0 -6 238.09 13.33
1 0 -6 244.62 13.37
-1 1 6 70.72 4.65
-1 1 6 73.17 4.53
-1 1 6 69.87 4.52
-1 1 6 71.8 4.74
1 -1 -6 85.39 4.77
1 -1 -6 81.15 4.53
1 -1 -6 90.43 4.58
1 -1 -6 83.39 4.64
1 -1 -6 83.72 4.77
-1 2 6 48.96 3.3
-1 2 6 50.67 3.23
-1 2 6 46.7 3.34
1 -2 -6 53.89 3.35
1 -2 -6 55.53 3.39
1 -2 -6 53.29 3.23
1 -2 -6 54.8 3.19
1 -2 -6 53.94 3.4
1 -2 -6 50.84 3.22
-1 3 6 68.49 4.22
-1 3 6 67.37 4.29
-1 3 6 71.36 4.44
1 -3 -6 71.45 4.43
1 -3 -6 68.18 4.23
1 -3 -6 70.38 4.31
-1 4 6 5.63 1.33
-1 4 6 4.76 1.22
1 -4 -6 2.31 1.23
1 -4 -6 2.39 1.14
-1 5 6 10.16 1.89
-1 5 6 10.4 1.69
1 -5 -6 11.62 1.76
0 -5 6 6.52 1.55
0 5 -6 1.51 1.54
0 5 -6 3.61 1.27
0 -4 6 25.1 2.37
0 -4 6 23.41 2.23
0 4 -6 25.88 2.42
0 4 -6 26.56 2.23
0 -3 6 5.55 1.15
0 -3 6 5.22 1.12
0 3 -6 8.11 1.14
0 3 -6 9.82 1.29
0 3 -6 7.75 1.24
0 3 -6 9.74 1.14
0 -2 6 38.35 2.46
0 -2 6 35.87 2.53
0 -2 6 37.14 2.47
0 -2 6 36.77 2.55
0 2 -6 36.37 2.51
0 2 -6 36.21 2.54
0 2 -6 35.8 2.43
0 2 -6 34.53 2.43
0 -1 6 326.46 17.59
0 -1 6 308.51 16.59
0 -1 6 301.92 17.09
0 -1 6 283.9 16.81
0 1 -6 321.31 16.61
0 1 -6 307.96 16.81
0 1 -6 300.38 17.08
0 1 -6 315.53 16.58
0 0 6 108.54 6.4
0 0 6 107.65 6.12
0 0 6 109.61 6.45
0 0 6 116.55 6.18
0 0 6 108.17 6.29
0 0 -6 106.53 6.03
0 0 -6 100.24 6.08
0 0 -6 110.55 6.3
0 0 -6 110.27 6.41
0 0 -6 107.41 6.11
0 1 6 322.51 16.8
0 1 6 316.55 17.04
0 1 6 333.07 17.79
0 1 6 309.97 17.3
0 -1 -6 303.41 16.76
0 -1 -6 311.71 17.77
0 -1 -6 301.99 17.28
0 -1 -6 314.2 16.81
0 -1 -6 294.9 17.02
0 2 6 38.85 2.6
0 2 6 35.03 2.52
0 2 6 37.99 2.66
0 -2 -6 37.78 2.49
0 -2 -6 39.97 2.62
0 -2 -6 38.45 2.67
0 -2 -6 36.87 2.5
0 -2 -6 37.42 2.54
0 3 6 9.28 1.21
0 3 6 9.36 1.27
0 3 6 8.55 1.31
0 -3 -6 5.95 1.06
0 -3 -6 4.61 1.14
0 -3 -6 4.76 1.14
0 4 6 24.73 2.42
0 4 6 23.09 2.21
0 -4 -6 23.35 2.2
0 -4 -6 26.08 2.4
0 -4 -6 25.06 2.44
0 5 6 3.88 1.44
0 5 6 2.91 1.52
0 -5 -6 6.07 1.53
1 -5 6 10.21 1.78
-1 5 -6 13.04 1.64
-1 5 -6 10.67 1.94
-1 5 -6 12.73 1.68
1 -4 6 15.5 1.94
1 -4 6 18.26 2.07
-1 4 -6 22.33 1.9
-1 4 -6 19.4 2.12
1 -3 6 24.83 2.31
1 -3 6 24.74 2.22
1 -3 6 25.35 2.29
-1 3 -6 35.14 2.2
-1 3 -6 30.94 2.34
-1 3 -6 34.16 2.35
1 -2 6 75.79 4.47
1 -2 6 74.03 4.46
1 -2 6 72.6 4.57
1 -2 6 75.44 4.7
-1 2 -6 75.26 4.57
-1 2 -6 76.37 4.45
-1 2 -6 79.16 4.42
-1 2 -6 76.68 4.48
1 -1 6 121.77 7.15
1 -1 6 111.46 6.91
1 -1 6 120.25 6.74
1 -1 6 120.33 6.8
-1 1 -6 123.85 6.74
-1 1 -6 123.79 6.76
-1 1 -6 120.14 6.92
-1 1 -6 123.67 6.74
1 0 6 17.54 1.55
1 0 6 17.6 1.75
1 0 6 18.29 1.6
1 0 6 17.14 1.72
1 0 6 17.95 1.71
-1 0 -6 16.73 1.46
-1 0 -6 16.03 1.61
-1 0 -6 17.74 1.65
-1 0 -6 18.17 1.54
1 1 6 122.33 6.72
1 1 6 126.23 7.09
1 1 6 121.42 7.09
1 1 6 123.23 6.76
1 1 6 121.71 6.92
-1 -1 -6 117.35 6.66
-1 -1 -6 114.43 6.87
-1 -1 -6 116.64 6.73
-1 -1 -6 114.99 6.71
1 2 6 78.81 4.61
1 2 6 82.32 4.65
1 2 6 81.24 4.77
-1 -2 -6 77.27 4.83
-1 -2 -6 77.64 4.58
-1 -2 -6 73.75 4.6
-1 -2 -6 78.04 4.58
-1 -2 -6 75.6 4.7
1 3 6 35.53 2.62
1 3 6 34.6 2.52
1 3 6 37.05 2.44
-1 -3 -6 26.27 2.27
-1 -3 -6 27.31 2.44
-1 -3 -6 26.13 2.37
1 4 6 20.32 2.12
1 4 6 21.89 2.29
-1 -4 -6 17.51 1.98
-1 -4 -6 17.5 2.15
1 5 6 13.47 1.89
-1 -5 -6 10.15 1.78
2 -5 6 19.36 2.18
2 -5 6 17.68 2.18
-2 5 -6 13.17 2.08
-2 5 -6 13.68 1.81
2 -4 6 8.66 1.58
2 -4 6 9.89 1.57
-2 4 -6 13.51 1.67
-2 4 -6 15.21 1.54
-2 4 -6 14.5 1.78
-2 4 -6 14.42 1.59
2 -3 6 7.5 1.28
2 -3 6 4.52 1.32
2 -3 6 6.96 1.21
-2 3 -6 11.8 1.36
-2 3 -6 11.77 1.32
2 -2 6 65.44 4.22
2 -2 6 62.83 4.08
2 -2 6 64.76 4.08
2 -2 6 66.43 4.32
-2 2 -6 73.26 4.15
-2 2 -6 73.99 4.14
-2 2 -6 73.3 3.98
-2 2 -6 68.38 4.19
2 -1 6 103.89 6.33
2 -1 6 110.22 6.67
2 -1 6 107.32 6.28
2 -1 6 104.86 6.49
-2 1 -6 113.07 6.45
-2 1 -6 117.38 6.24
-2 1 -6 117.7 6.31
-2 1 -6 120.89 6.34
2 0 6 105.52 6.28
2 0 6 106.1 6.23
2 0 6 106.9 6.11
2 0 6 105.46 5.94
2 0 6 102.18 5.9
-2 0 -6 103.74 5.92
-2 0 -6 103.07 5.8
-2 0 -6 104.35 6.05
-2 0 -6 99.75 5.83
2 1 6 119.03 6.46
2 1 6 124 6.85
2 1 6 120.01 6.65
2 1 6 122.65 6.49
2 1 6 120.88 6.81
-2 -1 -6 104.29 6.58
-2 -1 -6 108.77 6.42
-2 -1 -6 108.8 6.44
-2 -1 -6 101.46 6.36
2 2 6 73.27 4.4
2 2 6 75.56 4.5
2 2 6 71.16 4.25
2 2 6 72.88 4.25
2 2 6 73.4 4.47
-2 -2 -6 66.3 4.29
-2 -2 -6 69.1 4.2
-2 -2 -6 65.94 4.22
-2 -2 -6 65.75 4.15
2 3 6 11.6 1.41
-2 -3 -6 6.85 1.3
-2 -3 -6 6.75 1.15
-2 -3 -6 6.73 1.14
2 4 6 13.77 1.84
2 4 6 13.9 1.73
-2 -4 -6 8 1.6
-2 -4 -6 8.29 1.46
2 5 6 13.07 2.07
-2 -5 -6 18.53 2.11
3 -5 6 2.12 1.52
3 -5 6 3.33 1.5
-3 5 -6 2.87 1.55
3 -4 6 28.48 2.29
3 -4 6 26.41 2.39
-3 4 -6 21.66 2.42
-3 4 -6 18.44 2.28
3 -3 6 19.6 1.82
3 -3 6 17.97 1.9
3 -3 6 19.96 1.89
-3 3 -6 14.9 1.41
-3 3 -6 13.25 1.75
-3 3 -6 15.58 1.84
3 -2 6 29.96 2.23
3 -2 6 31.62 2.23
3 -2 6 32.25 2.13
-3 2 -6 25.14 2.14
-3 2 -6 23.5 2.11
3 -1 6 88.87 5.27
3 -1 6 90.36 5.62
3 -1 6 93.53 5.53
3 -1 6 88.34 5.33
3 -1 6 91.66 5.48
-3 1 -6 95.96 5.34
-3 1 -6 97.86 5.43
-3 1 -6 94.73 5.3
3 0 6 11.37 1.53
3 0 6 11.25 1.46
3 0 6 12.88 1.28
3 0 6 11.04 1.49
3 0 6 12.23 1.39
3 0 6 11.38 1.39
-3 0 -6 11.34 0.85
-3 0 -6 11.43 1.33
-3 0 -6 10.08 1.29
-3 0 -6 13.16 1.43
3 1 6 97.19 5.56
3 1 6 95.66 5.81
3 1 6 99.87 5.7
3 1 6 102.41 5.57
3 1 6 99.22 5.55
3 1 6 101.16 5.88
-3 -1 -6 89.99 5.66
-3 -1 -6 91.34 5.53
-3 -1 -6 90.06 5.45
3 2 6 25.69 2.17
3 2 6 27.95 2.33
3 2 6 27.33 2.33
3 2 6 27.85 2.35
3 2 6 25.39 2.24
-3 -2 -6 34.84 2.23
-3 -2 -6 33.15 2.28
-3 -2 -6 32.39 2.08
3 3 6 13.2 1.79
3 3 6 13.68 1.82
-3 -3 -6 19.37 1.99
-3 -3 -6 16.81 1.81
-3 -3 -6 20.42 1.74
3 4 6 22.04 2.42
3 4 6 24.69 2.72
-3 -4 -6 29.93 2.35
-3 -4 -6 30.07 2.62
3 5 6 3.58 1.61
-3 -5 -6 2.64 1.59
-3 -5 -6 0.45 1.24
4 -5 6 14.17 2.1
-4 5 -6 13.28 2.07
4 -4 6 15.04 2.05
-4 4 -6 16.26 2.07
-4 4 -6 19.49 2.28
4 -3 6 36.93 2.84
4 -3 6 40.57 2.81
4 -3 6 36.96 2.84
-4 3 -6 33.31 2.64
-4 3 -6 33.26 2.69
4 -2 6 67.61 4.17
4 -2 6 66.77 4.31
-4 2 -6 65.04 4.04
-4 2 -6 66.62 4.08
4 -1 6 19.75 1.9
4 -1 6 24.52 1.95
4 -1 6 22.39 1.75
-4 1 -6 18.95 1.77
-4 1 -6 21.77 1.79
4 0 6 42.12 2.72
4 0 6 44.84 2.99
4 0 6 44.16 2.94
4 0 6 42.89 2.82
4 0 6 45.18 2.98
4 0 6 41.45 3.03
-4 0 -6 42.87 2.76
-4 0 -6 45.21 2.87
4 1 6 21.24 1.93
4 1 6 23.04 1.92
4 1 6 23.36 1.79
4 1 6 18.87 1.97
-4 -1 -6 22.47 1.89
-4 -1 -6 24.5 1.79
4 2 6 69.36 4.28
4 2 6 63.65 4.1
4 2 6 65.77 4.41
-4 -2 -6 66.67 4.1
-4 -2 -6 68.21 4.07
4 3 6 33.43 2.9
4 3 6 30.92 2.73
-4 -3 -6 37.88 2.81
-4 -3 -6 39.8 2.76
-4 -3 -6 38.7 2.51
4 4 6 18.44 2.18
4 4 6 19.69 2.43
-4 -4 -6 14.9 2.03
-4 -4 -6 15.74 1.83
4 5 6 10.34 2.07
-4 -5 -6 15.77 2.28
-4 -5 -6 15.97 1.83
5 -5 6 11.88 1.94
-5 5 -6 7.86 1.88
5 -4 6 20.01 2.29
-5 4 -6 20.23 2.23
-5 4 -6 22.57 2.39
5 -3 6 6.89 1.41
5 -3 6 8.3 1.37
-5 3 -6 5.05 1.2
5 -2 6 5.16 1.08
5 -2 6 3.46 1.22
-5 2 -6 6.87 1.14
-5 2 -6 5.25 1.05
5 -1 6 43.89 3.3
5 -1 6 47.82 3.38
-5 1 -6 53.07 3.19
-5 1 -6 54.28 3.21
5 0 6 33.51 2.53
5 0 6 34.42 2.54
5 0 6 34.35 2.59
-5 0 -6 33.04 2.32
-5 0 -6 33.48 2.4
5 1 6 54.46 3.46
5 1 6 54.73 3.58
5 1 6 56.2 3.51
-5 -1 -6 48.86 3.32
-5 -1 -6 47.18 3.23
5 2 6 6.13 1.14
5 2 6 6.8 1.26
5 2 6 6.81 1.38
-5 -2 -6 3.76 1.07
-5 -2 -6 4.72 1.04
5 3 6 6.24 1.48
5 3 6 4.47 1.4
-5 -3 -6 8.64 1.34
-5 -3 -6 7.94 1.42
5 4 6 21.06 2.37
5 4 6 19.79 2.57
-5 -4 -6 20.61 2.42
5 5 6 10.32 2.05
-5 -5 -6 11.77 2.11
6 -4 6 14.27 1.85
-6 4 -6 10.13 1.7
-6 4 -6 10.82 1.75
6 -3 6 27.47 2.55
6 -3 6 29.77 2.51
-6 3 -6 31.09 2.5
-6 3 -6 28.25 2.37
6 -2 6 24.68 2.25
6 -2 6 26.54 2.15
-6 2 -6 23.05 2.14
-6 2 -6 23.25 2.07
6 -1 6 1.21 1.12
6 -1 6 0.27 0.88
-6 1 -6 1.92 0.88
-6 1 -6 2.27 0.87
6 0 6 0.3 0.91
6 0 6 0.96 1.09
6 0 6 0.39 0.88
-6 0 -6 0.79 0.74
-6 0 -6 0.87 0.85
6 1 6 0.82 0.93
6 1 6 2.69 0.96
6 1 6 0.59 1.05
-6 -1 -6 0.68 0.78
-6 -1 -6 0.18 0.89
6 2 6 28.77 2.44
6 2 6 24.31 2.44
-6 -2 -6 25.55 2.23
-6 -2 -6 25.88 2.17
6 3 6 32.25 2.75
-6 -3 -6 26.1 2.52
-6 -3 -6 30.33 2.54
6 4 6 10.34 1.96
-6 -4 -6 13.33 1.96
7 -4 6 10.05 1.67
-7 4 -6 6.9 1.51
-7 4 -6 6.49 1.55
7 -3 6 7.7 1.67
7 -3 6 8.42 1.46
-7 3 -6 5.99 1.33
-7 3 -6 7.7 1.38
7 -2 6 10.69 1.77
7 -2 6 12.45 1.57
-7 2 -6 17.56 1.72
-7 2 -6 16.46 1.82
7 -1 6 4 1.31
7 -1 6 5.49 1.15
-7 1 -6 1.89 0.93
-7 1 -6 2.54 0.96
7 0 6 82.57 5.28
7 0 6 81.6 5.21
7 0 6 81.72 5.11
-7 0 -6 83.95 4.89
-7 0 -6 83.35 4.87
7 1 6 3.19 1.07
7 1 6 3.18 1.1
7 1 6 3.57 1.23
-7 -1 -6 5.97 1.18
-7 -1 -6 5.58 1.04
7 2 6 18.03 2.04
7 2 6 17.15 2.07
-7 -2 -6 12.91 1.59
-7 -2 -6 13 1.7
7 3 6 7.76 1.67
-7 -3 -6 9.02 1.52
-7 -3 -6 10.57 1.64
7 4 6 4.85 1.66
-7 -4 -6 9.4 1.81
8 -4 6 12.74 1.87
-8 4 -6 10.82 1.75
-8 4 -6 10.97 1.73
8 -3 6 15.65 1.99
8 -3 6 14.89 2.09
-8 3 -6 17.15 1.9
-8 3 -6 15.06 1.96
8 -2 6 5.71 1.22
8 -2 6 4.95 1.48
-8 2 -6 4.37 1.13
-8 2 -6 4.2 1.23
8 -1 6 23.94 2.41
8 -1 6 26.75 2.22
-8 1 -6 24.95 2.12
-8 1 -6 24.26 2.05
8 0 6 0.92 1
8 0 6 -0.26 0.95
8 0 6 1.29 1.26
-8 0 -6 0.52 0.86
-8 0 -6 1.31 0.95
8 1 6 24.04 2.35
8 1 6 22.95 2.39
-8 -1 -6 27.48 2.19
-8 -1 -6 30.69 2.36
8 2 6 5.45 1.36
8 2 6 3.24 1.5
-8 -2 -6 6.83 1.42
-8 -2 -6 5.54 1.28
8 3 6 18.48 2.22
-8 -3 -6 15.73 1.92
-8 -3 -6 15.22 1.97
8 4 6 12.94 2.23
-8 -4 -6 17.02 2.17
9 -3 6 11.38 1.69
9 -3 6 9.75 1.97
-9 3 -6 13.66 1.75
-9 3 -6 13.37 1.7
9 -2 6 23.44 2.53
9 -2 6 22.3 2.24
-9 2 -6 26.61 2.33
-9 2 -6 29.58 2.15
9 -1 6 16.79 1.78
-9 1 -6 16.88 1.71
-9 1 -6 17.31 1.86
9 0 6 43.76 3.12
9 0 6 43.79 3.3
-9 0 -6 44.89 2.96
-9 0 -6 42.25 2.99
9 1 6 17.77 2.12
9 1 6 16.78 2.13
-9 -1 -6 18.62 1.95
-9 -1 -6 17.96 1.88
9 2 6 28.8 2.62
-9 -2 -6 23.64 2.36
-9 -2 -6 22.73 2.29
9 3 6 14.65 2.14
-9 -3 -6 14.97 1.93
-9 -3 -6 15.04 2.07
10 -2 6 5.64 1.75
10 -2 6 9.99 1.53
-10 2 -6 14.55 1.55
-10 2 -6 12.42 1.6
10 -1 6 28.24 2.27
10 -1 6 26.37 2.62
-10 1 -6 27.08 2.29
-10 1 -6 27.07 2.11
10 0 6 33.7 2.88
10 0 6 34.23 2.72
-10 0 -6 37.82 2.58
-10 0 -6 35.74 2.65
10 1 6 27.92 2.69
10 1 6 31.47 2.72
-10 -1 -6 30.63 2.42
-10 -1 -6 29.58 2.43
10 2 6 14.7 1.96
-10 -2 -6 9.76 1.7
-10 -2 -6 11.85 1.68
11 -1 6 0.77 1.42
11 -1 6 1.12 1.06
-11 1 -6 0.42 1.03
11 0 6 12.8 1.82
11 0 6 10.93 1.53
-11 0 -6 11.67 1.53
11 1 6 0.97 1.3
11 1 6 0.68 1.43
-11 -1 -6 0.29 1.04
-11 -1 -6 0.18 1.09
-13 -2 7 4.79 1.11
13 2 -7 6.51 1.22
-13 -1 7 19.25 2.51
-13 0 7 5.76 1.64
-13 1 7 21.01 2.66
-13 2 7 6.94 1.87
-12 -3 7 7.29 1.44
-12 -3 7 5.21 1.32
12 3 -7 6.99 1.51
-12 -2 7 34.41 2.52
12 2 -7 33.5 2.59
-12 -1 7 0.78 1.25
-12 0 7 18.73 2.44
-12 1 7 0.81 1.27
-12 2 7 28.57 3
-12 3 7 5.94 1.78
12 -3 -7 6.51 1.21
12 -3 -7 6.28 1.25
-11 -3 7 0.32 1.11
-11 -3 7 2.33 1.13
11 3 -7 6.72 1.46
-11 -2 7 3.65 0.97
-11 -2 7 5.5 1.06
-11 -2 7 4.99 1.36
11 2 -7 2.6 1.12
11 2 -7 3.02 1.13
-11 -1 7 46.45 3.69
-11 0 7 3.39 1.34
-11 1 7 46.09 3.76
-11 2 7 3.79 1.47
-11 3 7 7.89 1.75
11 -3 -7 2.21 1.04
11 -3 -7 2.32 0.99
11 -3 -7 2 1.1
-10 -4 7 22.38 2.5
-10 -4 7 22.54 2.52
10 4 -7 28.89 2.83
-10 -3 7 21.24 2.09
-10 -3 7 21.78 2.11
10 3 -7 17.59 2.27
-10 -2 7 37.36 2.7
-10 -2 7 36.22 3.15
10 2 -7 40.56 2.91
10 2 -7 43.2 2.88
-10 -1 7 12.71 1.66
10 1 -7 9.65 1.26
10 1 -7 7.57 1.15
-10 0 7 4.4 1.27
-10 1 7 8.2 1.57
-10 2 7 40.63 3.25
10 -2 -7 34.67 2.48
10 -2 -7 35.39 2.51
-10 3 7 19.49 2.42
-10 3 7 16.66 1.7
10 -3 -7 19.05 1.85
10 -3 -7 18.94 1.8
10 -3 -7 17.84 1.9
-10 4 7 25.79 2.22
-10 4 7 24.1 2.82
10 -4 -7 23.32 2.34
-9 -4 7 13.87 1.98
-9 -4 7 13.93 1.89
9 4 -7 13.83 2.09
-9 -3 7 11.7 1.64
-9 -3 7 13.81 1.8
9 3 -7 18.44 2.1
-9 -2 7 4.88 1.18
-9 -2 7 5.06 1.01
9 2 -7 4.41 1.1
9 2 -7 4.4 1.13
-9 -1 7 42.45 3.24
-9 -1 7 42.93 2.6
9 1 -7 41.79 2.71
9 1 -7 37.83 2.8
-9 0 7 0.86 0.95
9 0 -7 0.43 0.67
-9 1 7 41.47 3.29
9 -1 -7 40.98 2.63
-9 2 7 4.16 1.3
9 -2 -7 5.38 0.89
9 -2 -7 4.07 0.85
9 -2 -7 4.3 0.94
-9 3 7 17.2 2.16
9 -3 -7 11.37 1.54
9 -3 -7 13 1.61
9 -3 -7 10.82 1.51
-9 4 7 12.08 1.63
-9 4 7 10.11 1.94
9 -4 -7 13.66 1.81
9 -4 -7 12.7 1.71
-8 -4 7 36.16 3.01
-8 -4 7 35.4 2.96
8 4 -7 33.73 3.18
-8 -3 7 19.7 2.03
-8 -3 7 20.06 1.98
8 3 -7 18.93 2.18
-8 -2 7 36.67 2.43
-8 -2 7 36.57 2.7
8 2 -7 26.75 2.47
-8 -1 7 29.38 1.91
-8 -1 7 26.91 1.84
-8 -1 7 26.96 2.36
8 1 -7 23.03 2.04
8 1 -7 24.7 1.97
-8 0 7 19.41 1.39
-8 0 7 17.91 2.04
8 0 -7 19.42 1.51
8 0 -7 20.67 1.59
8 0 -7 18.64 1.59
-8 1 7 22.28 2.46
-8 1 7 23.76 1.82
8 -1 -7 29.07 1.92
8 -1 -7 29.24 1.93
8 -1 -7 29.63 1.89
8 -1 -7 27.65 1.81
-8 2 7 24.79 2.66
-8 2 7 26.14 2.12
8 -2 -7 33.57 2.25
8 -2 -7 32.23 2.18
8 -2 -7 31.98 2.17
-8 3 7 21.23 1.9
-8 3 7 17.58 2.27
8 -3 -7 19.96 1.93
8 -3 -7 20.74 1.91
-8 4 7 29.81 2.93
-8 4 7 30.05 2.56
8 -4 -7 31.65 2.71
8 -4 -7 32.79 2.71
-7 -5 7 21.49 2.7
7 5 -7 20.18 2.61
-7 -4 7 19.2 2.19
-7 -4 7 18.02 2.18
7 4 -7 17.05 2.24
-7 -3 7 63.11 3.9
-7 -3 7 62.62 3.92
7 3 -7 55.62 4.03
-7 -2 7 16.16 1.61
-7 -2 7 16.05 1.74
7 2 -7 15.41 1.68
7 2 -7 13.57 1.65
7 1 -7 17.46 1.58
7 1 -7 18.71 1.58
-7 0 7 3.92 0.58
-7 0 7 3.28 0.7
-7 0 7 5.26 0.71
7 0 -7 4.66 0.71
7 0 -7 4.59 0.77
7 0 -7 3.66 0.85
-7 1 7 20.05 1.68
-7 1 7 20.87 1.7
-7 1 7 18.58 1.86
7 -1 -7 27.26 1.75
7 -1 -7 27.39 1.77
7 -1 -7 26.69 1.7
7 -1 -7 26.44 1.81
-7 2 7 13.88 1.48
7 -2 -7 13.35 1.45
7 -2 -7 14.38 1.42
7 -2 -7 13.39 1.37
-7 3 7 56.15 4.35
-7 3 7 59.65 3.83
7 -3 -7 60.64 3.97
7 -3 -7 64.99 3.95
-7 4 7 14 1.72
-7 4 7 13.26 1.9
7 -4 -7 15.21 1.91
7 -4 -7 16.73 2.01
-7 5 7 16.53 2.09
7 -5 -7 19.09 2.46
-6 -5 7 2.07 1.59
6 5 -7 1.63 1.58
6 5 -7 2.47 1.5
-6 -4 7 30.09 2.62
-6 -4 7 32.58 2.69
6 4 -7 29.42 2.63
6 4 -7 28.22 2.89
-6 -3 7 15.62 1.83
-6 -3 7 18.22 1.93
6 3 -7 19.51 2.04
6 3 -7 17.87 1.97
-6 -2 7 1.4 0.83
6 2 -7 2.9 0.97
6 2 -7 3.4 0.93
-6 -1 7 30.71 2.11
-6 -1 7 31.62 2.16
-6 -1 7 31.71 2.13
6 1 -7 33.32 2.28
6 1 -7 32.57 2.22
6 1 -7 31.63 2.18
-6 0 7 65.99 3.59
-6 0 7 62.02 3.62
-6 0 7 62.64 3.69
6 0 -7 64.02 3.77
6 0 -7 59.23 3.89
6 0 -7 61.71 3.78
-6 1 7 31.85 2.19
-6 1 7 30.58 2.04
-6 1 7 32.31 2.06
6 -1 -7 29.67 2.04
6 -1 -7 30.99 2.04
6 -1 -7 28.72 2.13
6 -1 -7 29.99 2.1
-6 2 7 4.7 0.87
6 -2 -7 1.62 0.76
6 -2 -7 1.8 0.75
6 -2 -7 1.96 0.82
-6 3 7 21.67 1.92
6 -3 -7 17.16 1.86
6 -3 -7 16.14 1.75
-6 4 7 27.56 2.68
-6 4 7 28.18 2.51
6 -4 -7 31.55 2.62
-6 5 7 0.42 1.36
6 -5 -7 0.29 1.41
-5 -5 7 2.81 1.2
-5 -5 7 3.34 1.56
5 5 -7 6.98 1.63
-5 -4 7 4.78 1.39
-5 -4 7 5.27 1.13
5 4 -7 7.34 1.59
5 4 -7 7.18 1.45
-5 -3 7 84.29 4.96
-5 -3 7 82.62 4.96
-5 -3 7 80.95 4.72
5 3 -7 82.71 5.04
5 3 -7 78.43 5.12
-5 -2 7 21.12 1.81
5 2 -7 18.88 1.84
5 2 -7 21.42 1.8
5 2 -7 19.28 1.82
-5 -1 7 15.59 1.33
-5 -1 7 16.36 1.28
5 1 -7 9 1.27
5 1 -7 13.04 1.35
5 1 -7 11.66 1.36
5 1 -7 11.42 1.23
-5 0 7 39.66 2.45
-5 0 7 38.95 2.37
-5 0 7 38.03 2.51
5 0 -7 37.5 2.61
5 0 -7 37.96 2.46
5 0 -7 37.6 2.55
-5 1 7 11.43 1.41
-5 1 7 12.06 1.35
-5 1 7 12.05 1.34
-5 1 7 11.53 1.45
5 -1 -7 16.96 1.33
5 -1 -7 15.12 1.29
5 -1 -7 15.66 1.32
5 -1 -7 17.97 1.2
5 -1 -7 14.67 1.36
-5 2 7 17.25 1.59
5 -2 -7 15.3 1.54
5 -2 -7 15.8 1.52
5 -2 -7 16.68 1.54
-5 3 7 80.33 4.85
5 -3 -7 78.73 5.1
5 -3 -7 83.14 5.02
-5 4 7 7.9 1.45
-5 4 7 6.34 1.37
5 -4 -7 4.44 1.35
-5 5 7 4.26 1.48
5 -5 -7 4.34 1.59
-4 -5 7 1.8 1.46
-4 -5 7 1.26 1.23
4 5 -7 -0.27 1.3
-4 -4 7 8.64 1.53
-4 -4 7 10.02 1.37
4 4 -7 8.38 1.49
4 4 -7 8.36 1.67
-4 -3 7 13.8 1.73
-4 -3 7 13.88 1.52
-4 -3 7 13.87 1.67
4 3 -7 17.58 1.81
4 3 -7 17.09 1.87
-4 -2 7 72.86 4.43
-4 -2 7 72.78 4.49
-4 -2 7 75.51 4.29
4 2 -7 74.79 4.57
4 2 -7 74.35 4.44
4 2 -7 76.03 4.7
4 2 -7 74.36 4.4
-4 -1 7 107.37 6.23
-4 -1 7 103.4 5.96
-4 -1 7 103.88 6.08
4 1 -7 111.41 6.17
4 1 -7 111.5 6.3
4 1 -7 110.96 6.27
4 1 -7 108.63 6.46
4 1 -7 114.62 6.1
-4 0 7 165.08 8.92
-4 0 7 162.98 8.98
4 0 -7 165.55 9.24
4 0 -7 160.77 9.28
4 0 -7 162.11 9.01
4 0 -7 162.56 9.52
4 0 -7 165.15 9.47
4 0 -7 167.34 8.95
-4 1 7 111.25 5.93
-4 1 7 112.78 5.96
4 -1 -7 100.42 6.04
4 -1 -7 104.83 6.27
4 -1 -7 102.88 5.89
4 -1 -7 99.56 6.07
4 -1 -7 104.52 6.22
4 -1 -7 108.14 5.93
-4 2 7 73.38 4.26
4 -2 -7 73.53 4.21
4 -2 -7 71.69 4.47
4 -2 -7 68.71 4.34
4 -2 -7 72.33 4.48
4 -2 -7 69.92 4.21
-4 3 7 15.84 1.74
4 -3 -7 13.23 1.7
4 -3 -7 12.56 1.6
4 -3 -7 14.51 1.59
-4 4 7 7.02 1.45
4 -4 -7 9.47 1.48
4 -4 -7 12.46 1.67
-4 5 7 0.43 1.31
4 -5 -7 1.64 1.47
-3 -5 7 3.24 1.54
-3 -5 7 4.11 1.37
3 5 -7 6.43 1.53
-3 -4 7 39.8 3.12
-3 -4 7 38.84 2.98
3 4 -7 45.36 3.35
3 4 -7 45.69 3.16
-3 -3 7 54.43 3.54
-3 -3 7 55.26 3.39
-3 -3 7 56.45 3.49
3 3 -7 52.32 3.52
3 3 -7 51.48 3.63
3 3 -7 50.87 3.53
-3 -2 7 76.26 4.42
-3 -2 7 73.78 4.6
-3 -2 7 74.66 4.51
3 2 -7 75.53 4.51
3 2 -7 77.82 4.52
3 2 -7 76.14 4.78
3 2 -7 77.29 4.66
-3 -1 7 65.62 3.52
-3 -1 7 67.37 3.7
-3 -1 7 65.63 3.64
3 1 -7 58.64 3.61
3 1 -7 56.1 3.74
3 1 -7 52.43 3.79
3 1 -7 57.67 3.63
-3 0 7 22.17 1.46
-3 0 7 20.37 1.74
-3 0 7 22.39 1.69
3 0 -7 19.36 1.67
3 0 -7 20.13 1.76
3 0 -7 21.22 1.7
3 0 -7 21.05 1.8
3 0 -7 18.78 1.8
3 0 -7 20.48 1.57
-3 1 7 57.98 3.54
-3 1 7 56.42 3.7
-3 1 7 54.96 3.81
3 -1 -7 65.18 3.86
3 -1 -7 65.98 3.92
3 -1 -7 68.42 3.72
3 -1 -7 66.26 3.66
3 -1 -7 62.33 3.76
-3 2 7 76.55 4.47
-3 2 7 74.74 4.56
-3 2 7 74.68 4.34
3 -2 -7 77.22 4.59
3 -2 -7 75.42 4.43
3 -2 -7 74.71 4.68
3 -2 -7 77.73 4.69
3 -2 -7 73.42 4.43
-3 3 7 53.91 3.34
-3 3 7 50.01 3.5
3 -3 -7 54.36 3.62
3 -3 -7 52.05 3.65
3 -3 -7 57.59 3.45
-3 4 7 45.87 3.25
-3 4 7 46.58 2.94
3 -4 -7 41.46 3.1
3 -4 -7 39.95 3.28
-3 5 7 4.17 1.51
-3 5 7 6.1 1.25
3 -5 -7 4.09 1.63
3 -5 -7 4.21 1.56
-2 -5 7 9.85 1.76
2 5 -7 9.95 1.72
-2 -4 7 -0.02 1.04
-2 -4 7 0.78 1.11
2 4 -7 1.89 1.27
2 4 -7 2.8 1.16
-2 -3 7 4.66 1.1
-2 -3 7 4.77 1
-2 -3 7 3.59 1.04
-2 -3 7 6.54 1.11
2 3 -7 2.48 1.05
2 3 -7 4.98 1.14
2 3 -7 4.77 1.05
-2 -2 7 109.19 6.64
-2 -2 7 112.8 6.84
-2 -2 7 112.28 6.65
2 2 -7 122.69 6.62
2 2 -7 123.37 6.9
2 2 -7 119.21 7.07
2 2 -7 121.02 6.68
2 2 -7 120.59 6.72
-2 -1 7 16.32 1.6
-2 -1 7 16.3 1.57
-2 -1 7 15.84 1.49
-2 -1 7 16.5 1.55
2 1 -7 20.54 1.66
2 1 -7 19.66 1.57
2 1 -7 19.97 1.7
2 1 -7 19.96 1.64
-2 0 7 126.66 7.11
-2 0 7 123.19 7.16
-2 0 7 125.86 7.3
2 0 -7 132.14 7.17
2 0 -7 130.51 7.39
2 0 -7 128.75 7.57
2 0 -7 124.86 7.11
2 0 -7 131.59 7.52
-2 1 7 20.7 1.69
-2 1 7 20.87 1.7
-2 1 7 18.49 1.47
2 -1 -7 16.48 1.6
2 -1 -7 16.66 1.53
2 -1 -7 16.36 1.57
2 -1 -7 17.59 1.59
2 -1 -7 15.91 1.5
-2 2 7 127.74 6.77
-2 2 7 125.59 6.73
-2 2 7 121.46 6.91
2 -2 -7 117.97 6.76
2 -2 -7 116.89 7.09
2 -2 -7 112.09 6.89
2 -2 -7 117.08 7.08
2 -2 -7 112.8 6.68
-2 3 7 5.53 1.03
-2 3 7 4.71 1.12
2 -3 -7 4.9 1.14
2 -3 -7 5.76 1.03
2 -3 -7 3.69 1.04
-2 4 7 2.61 1.18
-2 4 7 1.38 1.19
2 -4 -7 -0.03 1.14
2 -4 -7 -0.53 1.05
-2 5 7 11.26 1.66
-2 5 7 11.47 1.9
2 -5 -7 9.76 1.71
-1 -5 7 6.11 1.6
1 5 -7 3.81 1.38
-1 -4 7 14.15 1.79
-1 -4 7 16.2 1.85
1 4 -7 14.72 1.84
1 4 -7 15.99 1.91
-1 -3 7 59.29 3.81
-1 -3 7 60.23 3.99
-1 -3 7 59.13 3.88
1 3 -7 60.22 3.87
1 3 -7 62.63 3.84
1 3 -7 63.87 4.03
-1 -2 7 60.26 3.7
-1 -2 7 60.47 3.47
-1 -2 7 60.18 3.59
-1 -2 7 61.01 3.5
1 2 -7 52.61 3.49
1 2 -7 50.39 3.58
1 2 -7 52.35 3.45
1 2 -7 51.19 3.41
-1 -1 7 125.57 7.15
-1 -1 7 114.43 7.15
-1 -1 7 120.19 7.32
-1 -1 7 123.66 7.54
1 1 -7 131.49 7.19
1 1 -7 139.11 7.16
1 1 -7 136.85 7.38
1 1 -7 131.56 7.09
-1 0 7 1.11 0.74
-1 0 7 -0.56 0.83
-1 0 7 0.18 0.71
-1 0 7 0.88 0.85
1 0 -7 0.07 0.73
1 0 -7 0.87 0.82
1 0 -7 0.1 0.87
1 0 -7 1.09 0.73
1 0 -7 1.9 0.79
1 0 -7 1.24 0.6
-1 1 7 140 7.18
-1 1 7 140.55 7.39
-1 1 7 141.27 7.21
-1 1 7 140.21 7.54
1 -1 -7 115.29 7.16
1 -1 -7 119.99 7.32
1 -1 -7 119.64 7.14
1 -1 -7 121.28 7.08
1 -1 -7 118.99 7.51
1 -1 -7 122.99 7.52
-1 2 7 54 3.61
-1 2 7 53.78 3.74
-1 2 7 52.26 3.63
1 -2 -7 62.07 3.82
1 -2 -7 62.47 3.73
1 -2 -7 63.85 3.65
1 -2 -7 61.58 3.8
1 -2 -7 61.77 3.63
1 -2 -7 59.54 3.58
-1 3 7 66.91 3.93
-1 3 7 64.44 4.03
-1 3 7 63.09 4.1
1 -3 -7 60.19 4.1
1 -3 -7 61.48 3.99
1 -3 -7 61.47 3.94
-1 4 7 15.79 1.86
-1 4 7 14.68 1.82
1 -4 -7 14.28 1.86
1 -4 -7 14.19 1.84
-1 5 7 6.87 1.74
-1 5 7 7.12 1.57
1 -5 -7 6.28 1.58
0 -5 7 41.95 3.2
0 5 -7 38.52 3.02
0 5 -7 42.75 3.5
0 -4 7 32.79 2.85
0 -4 7 33.6 2.71
0 4 -7 36.95 2.68
0 4 -7 38.26 2.9
0 -3 7 42.38 2.88
0 -3 7 41.37 2.72
0 -3 7 41.75 2.83
0 3 -7 37.72 2.66
0 3 -7 37.7 2.76
0 3 -7 34.12 2.71
0 3 -7 33.33 2.82
0 -2 7 57.51 3.64
0 -2 7 56.4 3.73
0 -2 7 57.4 3.54
0 -2 7 60.9 3.56
0 2 -7 57.65 3.53
0 2 -7 54.35 3.65
0 2 -7 55.63 3.55
0 2 -7 56.51 3.52
0 -1 7 12.74 1.36
0 1 -7 8.81 1.11
0 1 -7 8.87 1.12
0 1 -7 8.7 0.99
0 1 -7 8.34 1.09
0 1 -7 8.83 1.04
0 0 7 6.87 1.04
0 0 7 6.88 1.11
0 0 7 8.61 1.18
0 0 7 7.17 0.95
0 0 -7 6.9 0.89
0 0 -7 7.01 1.01
0 0 -7 6.66 1.05
0 0 -7 7.09 1.07
0 0 -7 6.42 0.9
0 -1 -7 16.5 1.52
0 -1 -7 14.67 1.52
0 -1 -7 16.76 1.49
0 -1 -7 16.86 1.63
0 -1 -7 15.58 1.47
0 2 7 56.64 3.81
0 2 7 55.95 3.65
0 2 7 61.62 3.74
0 -2 -7 61.46 3.76
0 -2 -7 58.3 3.84
0 -2 -7 60.21 3.65
0 -2 -7 61.09 3.68
0 -2 -7 61.82 3.63
0 3 7 37.01 2.94
0 3 7 38.66 2.94
0 3 7 37.29 2.8
0 -3 -7 42.52 2.8
0 -3 -7 42.28 2.91
0 -3 -7 40.37 2.94
0 4 7 38.34 2.94
0 4 7 37.26 2.75
0 -4 -7 31.26 2.83
0 -4 -7 30.25 2.67
0 5 7 46.77 3.39
0 -5 -7 40.6 3.33
1 -5 7 22.1 2.36
-1 5 -7 20.09 2.05
-1 5 -7 19.34 2.56
-1 5 -7 20.31 2.16
1 -4 7 21.27 2.27
1 -4 7 21.15 2.15
-1 4 -7 23.9 2.32
-1 4 -7 25.78 2.08
1 -3 7 15.5 1.7
1 -3 7 14.85 1.58
-1 3 -7 8.69 1.36
-1 3 -7 10.63 1.44
-1 3 -7 10.13 1.39
1 -2 7 32.38 2.19
1 -2 7 30.46 2.09
1 -2 7 31.41 2.32
1 -2 7 32.37 2.23
-1 2 -7 24.61 2.12
-1 2 -7 26.31 2.02
-1 2 -7 25.24 2.14
-1 2 -7 24.76 2.21
1 -1 7 49.99 3.41
1 -1 7 51.6 3.33
1 -1 7 50.14 3.18
1 -1 7 51.2 3.23
-1 1 -7 51.86 3.3
-1 1 -7 52.09 3.26
-1 1 -7 51.29 3.12
-1 1 -7 52.62 3.21
1 0 7 3.01 0.98
1 0 7 2.62 0.88
1 0 7 2.96 0.91
1 0 7 2.71 0.92
1 0 7 3.54 0.86
-1 0 -7 3.14 0.89
-1 0 -7 2.03 0.85
-1 0 -7 2.92 0.74
-1 0 -7 2.56 0.73
1 1 7 52.76 3.34
1 1 7 55.75 3.43
1 1 7 51.65 3.46
1 1 7 55.04 3.29
1 1 7 52.85 3.43
-1 -1 -7 53.99 3.24
-1 -1 -7 53.92 3.32
-1 -1 -7 47.13 3.18
-1 -1 -7 49.37 3.33
1 2 7 25.55 2.17
1 2 7 27.3 2.3
1 2 7 26.65 2.35
1 2 7 24.44 2.28
-1 -2 -7 35.61 2.22
-1 -2 -7 31.77 2.25
-1 -2 -7 31.61 2.25
-1 -2 -7 32.73 2.18
1 3 7 11.01 1.54
1 3 7 9.26 1.5
1 3 7 9.79 1.42
-1 -3 -7 13.79 1.61
-1 -3 -7 14.32 1.71
-1 -3 -7 13.71 1.59
1 4 7 27.72 2.51
1 4 7 21.79 2.23
-1 -4 -7 19.74 2.15
-1 -4 -7 21.32 2.35
1 5 7 20.4 2.37
-1 -5 -7 22.3 2.36
2 -5 7 8.04 1.82
-2 5 -7 10.41 1.44
-2 5 -7 10.01 1.92
2 -4 7 48.68 3.61
2 -4 7 50.05 3.5
-2 4 -7 48.91 3.17
-2 4 -7 51.88 3.56
2 -3 7 52.18 3.41
2 -3 7 51.49 3.53
-2 3 -7 48.4 3.39
-2 3 -7 50.44 3.42
-2 3 -7 53.45 3.21
2 -2 7 86.45 5.17
2 -2 7 85.93 5
2 -2 7 85.86 4.85
2 -2 7 87.99 4.86
-2 2 -7 73.8 4.8
-2 2 -7 75.55 4.82
-2 2 -7 76.57 4.69
2 -1 7 30.78 2.19
2 -1 7 31.11 2.29
2 -1 7 29.58 2.08
2 -1 7 30.2 2.27
-2 1 -7 26.55 2.11
-2 1 -7 28.65 2.18
-2 1 -7 26.46 2.14
-2 1 -7 28.44 1.94
2 0 7 2.76 0.87
2 0 7 2.36 0.85
2 0 7 2.67 0.88
2 0 7 1.12 0.97
2 0 7 1.48 0.88
-2 0 -7 1.88 0.85
-2 0 -7 1.81 0.72
-2 0 -7 1.76 0.8
2 1 7 30.1 2.28
2 1 7 30.45 2.32
2 1 7 28.13 2.13
2 1 7 30.07 2.29
2 1 7 26.2 2.23
2 1 7 31.2 2.28
-2 -1 -7 28.14 2.04
-2 -1 -7 30.1 2.2
-2 -1 -7 29.57 2.1
-2 -1 -7 29.29 2.22
2 2 7 78.71 5.03
2 2 7 79.37 4.89
2 2 7 75.25 5.13
2 2 7 72.89 4.83
-2 -2 -7 86.37 4.83
-2 -2 -7 85.15 4.96
-2 -2 -7 88.99 4.82
-2 -2 -7 84.65 4.87
2 3 7 48.93 3.55
2 3 7 55.17 3.69
2 3 7 53.35 3.74
-2 -3 -7 50.71 3.59
-2 -3 -7 55.77 3.59
-2 -3 -7 56.96 3.5
2 4 7 48.78 3.66
-2 -4 -7 53.4 3.56
-2 -4 -7 54.64 3.79
2 5 7 7.45 1.75
-2 -5 -7 8.49 1.66
3 -5 7 23.5 2.61
3 -5 7 23 2.5
-3 5 -7 20.46 2.58
3 -4 7 6.69 1.47
3 -4 7 5.89 1.54
-3 4 -7 6.88 1.46
-3 4 -7 6.35 1.49
3 -3 7 1.03 1.11
3 -3 7 0.77 1.03
-3 3 -7 0.49 1
-3 3 -7 1.75 0.63
-3 3 -7 0.11 0.9
3 -2 7 19.34 1.81
3 -2 7 18.97 1.87
3 -2 7 18.95 1.68
-3 2 -7 17.35 1.28
-3 2 -7 16.71 1.79
-3 2 -7 16.16 1.72
3 -1 7 5.79 1.19
3 -1 7 4.43 0.94
3 -1 7 5.26 1.09
3 -1 7 4.88 0.93
-3 1 -7 8.62 0.86
-3 1 -7 7.39 1.02
-3 1 -7 8.09 1.01
-3 1 -7 7.67 1.12
3 0 7 134.47 7.75
3 0 7 129.24 7.53
3 0 7 133.09 7.69
3 0 7 128.95 7.29
3 0 7 131.71 7.28
-3 0 -7 127.07 7.21
-3 0 -7 128.09 7.29
-3 0 -7 126.76 7.09
-3 0 -7 123.92 7.42
-3 0 -7 128.44 7.11
3 1 7 8.01 1.06
3 1 7 7.95 1.17
3 1 7 7.57 1.11
3 1 7 8.49 1.19
3 1 7 9.03 1.3
-3 -1 -7 5.15 0.92
-3 -1 -7 5.14 1.02
-3 -1 -7 5.27 0.75
-3 -1 -7 5.74 1.04
3 2 7 19.16 1.99
3 2 7 15.59 1.81
3 2 7 18.93 1.98
-3 -2 -7 20.27 1.83
-3 -2 -7 20.45 1.7
-3 -2 -7 19.61 1.86
3 3 7 1.59 1.09
3 3 7 0.91 1.16
-3 -3 -7 1.08 0.95
-3 -3 -7 0.3 0.97
-3 -3 -7 0.86 1.1
3 4 7 5.52 1.58
3 4 7 5.23 1.53
-3 -4 -7 7.83 1.42
-3 -4 -7 8.39 1.63
3 5 7 21.58 2.55
-3 -5 -7 25.35 2.74
-3 -5 -7 19.99 2.31
4 -5 7 1.99 1.51
-4 5 -7 2.16 1.57
4 -4 7 49.51 3.68
-4 4 -7 48.11 3.55
-4 4 -7 50.85 3.65
4 -3 7 13.73 1.87
-4 3 -7 14.41 1.8
-4 3 -7 16.92 1.98
4 -2 7 8.82 1.27
4 -2 7 6.78 1.36
-4 2 -7 7.24 1.21
-4 2 -7 7.93 1.23
4 -1 7 40.58 2.58
4 -1 7 34.92 2.74
4 -1 7 39.32 2.8
-4 1 -7 33.45 2.61
-4 1 -7 35.75 2.56
4 0 7 9.81 1.3
4 0 7 10.3 1.32
4 0 7 10.45 1.33
4 0 7 11.68 1.51
-4 0 -7 9.63 1.27
-4 0 -7 10.28 1.17
4 1 7 34.97 2.45
4 1 7 34.26 2.66
4 1 7 33.51 2.7
4 1 7 35.53 2.75
-4 -1 -7 37.11 2.46
-4 -1 -7 36.78 2.58
4 2 7 8 1.35
4 2 7 6.48 1.24
4 2 7 6.11 1.37
-4 -2 -7 10.83 1.31
-4 -2 -7 9.62 1.32
-4 -2 -7 9.37 1.12
4 3 7 15.64 1.91
4 3 7 15.28 2.06
-4 -3 -7 14.71 1.66
-4 -3 -7 15.21 1.88
-4 -3 -7 15.05 1.97
4 4 7 45.49 3.63
4 4 7 47.58 3.89
-4 -4 -7 50.98 3.71
-4 -4 -7 54.41 3.39
4 5 7 3.83 1.75
-4 -5 -7 2.68 1.65
-4 -5 -7 1.57 1.23
-5 5 -7 4.83 1.69
5 -4 7 18.35 2.26
-5 4 -7 20.27 2.38
-5 4 -7 20.07 2.25
5 -3 7 14.23 1.93
5 -3 7 14.12 1.92
-5 3 -7 17.28 2.01
-5 3 -7 16.35 1.83
5 -2 7 39.53 2.97
5 -2 7 38.05 3.11
-5 2 -7 46.28 2.92
-5 2 -7 42.13 2.97
5 -1 7 45.97 3.22
5 -1 7 47.78 3.3
-5 1 -7 44.26 3.04
-5 1 -7 43.69 3.03
5 0 7 103.08 6.16
5 0 7 100.85 6.33
5 0 7 101.2 6.27
-5 0 -7 102.84 5.92
-5 0 -7 102.93 5.88
5 1 7 42.98 3.32
5 1 7 45.86 3.4
5 1 7 44.96 3.26
-5 -1 -7 49.26 3.18
-5 -1 -7 49.72 3.07
5 2 7 46.37 3.33
5 2 7 47.91 3.27
-5 -2 -7 38.4 3.03
-5 -2 -7 40.28 2.97
5 3 7 15.58 2
5 3 7 14.43 1.94
-5 -3 -7 17.4 2.03
-5 -3 -7 16.28 2
5 4 7 23.16 2.64
5 4 7 19.62 2.42
-5 -4 -7 20.86 2.44
5 5 7 5.56 1.92
-5 -5 -7 4.93 1.81
6 -4 7 -0.45 1.24
-6 4 -7 2.61 1.31
-6 4 -7 1.93 1.31
6 -3 7 30.98 2.91
6 -3 7 33.49 2.77
-6 3 -7 33.1 2.58
-6 3 -7 33.93 2.72
6 -2 7 9.66 1.42
6 -2 7 8.53 1.59
-6 2 -7 10.12 1.39
-6 2 -7 9.66 1.41
6 -1 7 64.98 4.06
6 -1 7 58.67 4.15
-6 1 -7 60.02 3.85
-6 1 -7 61.31 3.86
6 0 7 98.91 6.16
6 0 7 98.82 5.99
6 0 7 96.2 6.08
-6 0 -7 99.98 5.74
-6 0 -7 96.71 5.7
6 1 7 63.36 4.15
6 1 7 59.47 4.23
-6 -1 -7 64.17 4.01
-6 -1 -7 64.26 3.92
6 2 7 7.13 1.58
6 2 7 10.46 1.56
-6 -2 -7 11.25 1.57
-6 -2 -7 10.79 1.43
6 3 7 36.98 3.15
-6 -3 -7 33.94 2.76
-6 -3 -7 30.74 2.8
6 4 7 2.36 1.51
-6 -4 -7 2.39 1.47
7 -4 7 1.97 1.41
-7 4 -7 1.8 1.35
-7 4 -7 1.91 1.35
7 -3 7 28.66 2.61
7 -3 7 25.47 2.77
-7 3 -7 32.83 2.65
-7 3 -7 29.93 2.44
7 -2 7 7.56 1.36
7 -2 7 7.17 1.65
-7 2 -7 8.29 1.42
-7 2 -7 10.17 1.39
7 -1 7 19.14 2.18
7 -1 7 18.1 1.98
-7 1 -7 18.11 1.88
-7 1 -7 16.49 1.81
7 0 7 40.01 2.99
7 0 7 36.21 2.89
-7 0 -7 34.35 2.66
-7 0 -7 37.43 2.68
7 1 7 13.31 1.91
7 1 7 15.87 2.02
-7 -1 -7 18.08 1.8
-7 -1 -7 17.96 1.94
7 2 7 9.04 1.56
7 2 7 7.35 1.68
-7 -2 -7 9.04 1.41
-7 -2 -7 10.51 1.58
7 3 7 32.82 3.09
-7 -3 -7 29.88 2.74
-7 -3 -7 33.13 2.79
7 4 7 1.87 1.59
-7 -4 -7 3.69 1.58
8 -3 7 16.44 2.07
8 -3 7 13.68 2.18
-8 3 -7 16.55 1.95
-8 3 -7 14.94 1.87
8 -2 7 14.04 2.07
8 -2 7 16.75 1.95
-8 2 -7 20.31 1.9
-8 2 -7 18.06 2.06
8 -1 7 5.74 1.68
8 -1 7 10.17 1.44
-8 1 -7 9.29 1.37
-8 1 -7 9.7 1.35
8 0 7 22.87 2.18
8 0 7 22.02 2.34
-8 0 -7 22.46 2.07
-8 0 -7 23.5 2.08
8 1 7 6.88 1.61
8 1 7 8.3 1.51
-8 -1 -7 8.68 1.47
-8 -1 -7 10.15 1.39
8 2 7 20.81 2.38
8 2 7 19.56 2.42
-8 -2 -7 17.69 2.02
-8 -2 -7 16.78 2.13
8 3 7 15.26 2.18
-8 -3 -7 18.19 2.32
-8 -3 -7 17.1 2.08
9 -3 7 7.67 1.88
9 -3 7 7.06 1.52
-9 3 -7 6.36 1.42
-9 3 -7 5 1.46
9 -2 7 22.13 2.53
9 -2 7 24.42 2.26
-9 2 -7 22.02 2.07
-9 2 -7 18.2 2.22
9 -1 7 9.63 1.4
9 -1 7 3.5 1.6
-9 1 -7 6.93 1.25
-9 1 -7 6.63 1.31
9 0 7 -0.16 1.04
9 0 7 -0.32 1.3
-9 0 -7 0.7 1.03
-9 0 -7 0.05 1
9 1 7 8.21 1.55
9 1 7 4.34 1.51
-9 -1 -7 10.88 1.52
-9 -1 -7 10.09 1.45
9 2 7 19.56 2.56
9 2 7 18.85 2.54
-9 -2 -7 24.39 2.33
-9 -2 -7 23.91 2.36
9 3 7 7.91 1.84
-9 -3 -7 8.08 1.84
-9 -3 -7 8.92 1.68
10 -2 7 5.97 1.39
10 -2 7 4.83 1.76
-10 2 -7 3.95 1.36
-10 2 -7 4.26 1.19
10 -1 7 5.14 1.24
-10 1 -7 4.83 1.23
-10 1 -7 4.37 1.12
10 0 7 24.95 2.31
10 0 7 24.23 2.49
-10 0 -7 25.47 2.27
-10 0 -7 24.71 2.16
10 1 7 4.58 1.44
10 1 7 3.44 1.55
-10 -1 -7 6.06 1.35
-10 -1 -7 5.5 1.32
10 2 7 5.76 1.64
-10 -2 -7 4.25 1.53
-10 -2 -7 3.71 1.38
11 0 7 0.03 1.14
11 0 7 0.72 1.45
-11 0 -7 0.17 1.02
-11 0 -7 0.51 1.15
-13 -2 8 0.96 1.02
13 2 -8 0.44 1.07
-13 -1 8 15.56 2.24
-13 0 8 1.92 1.39
-13 1 8 15.23 2.32
-13 2 8 -0.84 1.36
-12 -3 8 0.97 1.15
-12 -3 8 0.49 1.11
12 3 -8 2.01 1.33
-12 -2 8 16.97 1.76
12 2 -8 17.41 1.95
-12 -1 8 8.91 1.7
12 1 -8 5.99 1.11
-12 0 8 5.24 1.61
-12 1 8 7.92 1.74
-12 2 8 17.32 2.45
-12 3 8 2.7 1.61
12 -3 -8 1.05 1.02
12 -3 -8 1.25 0.94
-11 -3 8 23.6 2.24
-11 -3 8 23.26 2.28
11 3 -8 21.91 2.48
-11 -2 8 3.97 1.06
-11 -2 8 1.83 0.94
11 2 -8 4.2 1.17
-11 -1 8 6.45 1.49
11 1 -8 1.33 0.9
11 1 -8 2.65 0.89
-11 0 8 19.1 2.3
-11 1 8 0.7 1.22
-11 2 8 4.33 1.49
11 -2 -8 3.09 0.86
11 -2 -8 3.51 0.94
-11 3 8 18.83 2.65
11 -3 -8 21.89 1.94
11 -3 -8 22.46 2
-10 -4 8 16.13 2.05
-10 -4 8 16.05 2.12
10 4 -8 14.27 2.2
-10 -3 8 17.96 2.04
-10 -3 8 17.17 2
10 3 -8 19.76 2.3
-10 -2 8 5.3 1.36
-10 -2 8 6.13 1.12
10 2 -8 6.52 1.24
-10 -1 8 2.05 1.16
10 1 -8 0.98 0.81
10 1 -8 0.33 0.9
-10 0 8 14.52 2.05
-10 1 8 0.29 1.13
-10 2 8 7.03 1.57
10 -2 -8 6.41 1.01
10 -2 -8 7.27 1.01
-10 3 8 20.5 2.43
-10 3 8 19.29 1.77
10 -3 -8 15.55 1.77
10 -3 -8 15.76 1.79
-10 4 8 12.84 1.69
-10 4 8 11.31 2.08
10 -4 -8 15.3 1.92
10 -4 -8 12.96 1.76
-9 -4 8 2.24 1.36
-9 -4 8 2.8 1.48
9 4 -8 2.31 1.51
-9 -3 8 29.9 2.47
-9 -3 8 28.46 2.45
9 3 -8 29.47 2.68
-9 -2 8 24.35 2.14
-9 -2 8 24.23 2.44
9 2 -8 31.15 2.35
9 2 -8 28.59 2.35
-9 -1 8 35.65 2.92
-9 -1 8 38.14 2.4
9 1 -8 31.73 2.62
9 1 -8 36.74 2.52
-9 0 8 44.26 3.52
-9 0 8 46.38 2.73
-9 1 8 34.13 3.01
9 -1 -8 34.61 2.37
9 -1 -8 34.74 2.4
9 -1 -8 35.34 2.38
-9 2 8 28.37 2.55
9 -2 -8 23.28 1.94
9 -2 -8 23 1.87
9 -2 -8 22.56 1.85
-9 3 8 28.92 2.27
-9 3 8 26.96 2.84
9 -3 -8 29.1 2.33
9 -3 -8 29.67 2.35
-9 4 8 4.23 1.56
-9 4 8 3.63 1.26
9 -4 -8 2.37 1.26
9 -4 -8 2.3 1.29
-8 -4 8 -0.26 1.2
-8 -4 8 0.7 1.35
8 4 -8 0.89 1.45
-8 -3 8 4.21 1.24
-8 -3 8 6.26 1.24
8 3 -8 6 1.38
-8 -2 8 32.64 2.87
-8 -2 8 33.36 2.59
8 2 -8 38.95 2.81
8 2 -8 43.73 2.77
-8 -1 8 71.66 4.05
8 1 -8 69.2 4.18
8 1 -8 64.4 4.28
-8 0 8 113.78 5.99
-8 0 8 107.4 5.97
8 0 -8 102.94 6.42
8 0 -8 107.82 6.22
-8 1 8 66.71 3.8
-8 1 8 64.64 3.79
8 -1 -8 64.19 3.99
8 -1 -8 64.76 3.89
8 -1 -8 61.87 4.01
-8 2 8 39.4 2.95
8 -2 -8 29.16 2.23
8 -2 -8 30.56 2.33
8 -2 -8 30.07 2.29
-8 3 8 5.33 1.46
-8 3 8 7.15 1.22
8 -3 -8 4.73 1.12
8 -3 -8 4.93 1.16
-8 4 8 1.91 1.4
-8 4 8 1.23 1.22
8 -4 -8 1.18 1.23
8 -4 -8 1.77 1.19
-7 -5 8 4.74 1.77
7 5 -8 4.95 1.81
-7 -4 8 2.69 1.36
-7 -4 8 2.13 1.23
7 4 -8 4.11 1.51
-7 -3 8 22.22 2.21
-7 -3 8 22.45 2.13
7 3 -8 27.8 2.41
-7 -2 8 22.72 1.95
7 2 -8 21.05 2.05
7 2 -8 22.52 2
-7 -1 8 18.08 1.66
7 1 -8 20.23 1.78
7 1 -8 24.29 1.82
-7 0 8 28.3 1.96
-7 0 8 30.65 1.94
7 0 -8 27.44 2.09
7 0 -8 29.29 2.16
7 0 -8 27.36 1.97
-7 1 8 22.2 1.62
-7 1 8 24.29 1.85
7 -1 -8 18.2 1.59
7 -1 -8 16.22 1.62
7 -1 -8 18.11 1.6
-7 2 8 24.17 1.92
7 -2 -8 23.08 1.9
7 -2 -8 20.61 1.8
7 -2 -8 21.68 1.86
-7 3 8 26.39 2.11
-7 3 8 24.57 2.43
7 -3 -8 20.13 2.07
7 -3 -8 20.6 2.04
-7 4 8 4.27 1.33
-7 4 8 3.26 1.37
7 -4 -8 1.66 1.24
-7 5 8 6.93 1.66
7 -5 -8 5 1.68
-6 -5 8 27.71 2.84
6 5 -8 27.01 2.77
-6 -4 8 11.01 1.77
6 4 -8 13.61 1.98
6 4 -8 14.04 1.83
-6 -3 8 8.34 1.35
-6 -3 8 7.63 1.24
6 3 -8 7.05 1.35
6 3 -8 7.21 1.4
-6 -2 8 36.56 2.72
6 2 -8 40.56 2.9
6 2 -8 40.34 2.8
-6 -1 8 10.14 1.25
-6 -1 8 8.97 1.03
6 1 -8 14.52 1.42
6 1 -8 12.83 1.35
-6 0 8 144.18 7.74
-6 0 8 141.41 7.82
-6 0 8 142.27 7.77
6 0 -8 139.37 8.28
6 0 -8 137.25 8.04
6 0 -8 141.16 8.01
-6 1 8 13.71 1.54
-6 1 8 13.3 1.31
6 -1 -8 9.63 1.29
6 -1 -8 9.82 1.21
6 -1 -8 9.03 1.14
6 -1 -8 8.87 1.2
-6 2 8 40.17 2.52
6 -2 -8 34.14 2.57
6 -2 -8 34.43 2.5
6 -2 -8 36.15 2.59
-6 3 8 6.18 1.23
6 -3 -8 8.46 1.32
6 -3 -8 8.78 1.32
-6 4 8 12.68 1.84
-6 4 8 12.5 1.69
6 -4 -8 11.16 1.72
-6 5 8 25.7 2.65
6 -5 -8 24.32 2.76
-5 -5 8 2.28 1.18
-5 -5 8 1.79 1.51
5 5 -8 1.61 1.53
-5 -4 8 27.23 2.21
-5 -4 8 25.72 2.5
5 4 -8 29 2.57
5 4 -8 27.72 2.72
-5 -3 8 17.54 1.91
-5 -3 8 17.55 1.64
-5 -3 8 19.3 2.01
5 3 -8 22.47 2.04
5 3 -8 21.98 2.13
-5 -2 8 38.07 2.47
5 2 -8 33.18 2.53
5 2 -8 31.02 2.55
5 2 -8 31.79 2.45
-5 -1 8 105.12 6.33
-5 -1 8 104.92 6.36
5 1 -8 114.98 6.6
5 1 -8 111.31 6.78
5 1 -8 122.46 6.48
5 1 -8 118.34 6.6
5 1 -8 118.86 6.38
-5 0 8 0.19 0.51
-5 0 8 -0.26 0.65
-5 0 8 0.95 0.66
5 0 -8 0.4 0.65
5 0 -8 0.28 0.6
5 0 -8 -0.43 0.71
5 0 -8 0.96 0.59
5 0 -8 -0.32 0.8
-5 1 8 114.22 5.95
-5 1 8 114.36 5.95
5 -1 -8 97.53 6.29
5 -1 -8 97.54 6.07
5 -1 -8 104.5 5.9
5 -1 -8 106.36 6.09
5 -1 -8 101.86 6.23
-5 2 8 32.67 2.47
5 -2 -8 36.53 2.56
5 -2 -8 34.73 2.52
5 -2 -8 35.7 2.46
5 -3 -8 17.45 1.85
5 -3 -8 18.42 1.92
-5 4 8 26.76 2.51
5 -4 -8 27.89 2.57
-5 5 8 0.48 1.36
5 -5 -8 3.01 1.55
-4 -5 8 14.76 1.86
-4 -5 8 14.74 2.15
4 5 -8 14.66 2.01
-4 -4 8 16.27 2.09
-4 -4 8 16.01 1.89
4 4 -8 20.23 2.16
4 4 -8 24.74 2.4
-4 -3 8 29.69 2.22
-4 -3 8 28.01 2.28
-4 -3 8 32.04 2.07
4 3 -8 19.51 2.26
4 3 -8 19.31 2.21
-4 -2 8 21.09 1.78
-4 -2 8 18.9 1.51
4 2 -8 18.5 1.76
4 2 -8 19.31 1.78
4 2 -8 18.69 1.87
4 2 -8 18.06 1.89
-4 -1 8 24.14 1.9
-4 -1 8 25.32 1.7
-4 -1 8 25.55 1.72
-4 -1 8 24.17 1.95
4 1 -8 27.4 2.1
4 1 -8 30.34 2.01
4 1 -8 28.72 2.08
4 1 -8 29.18 2
-4 0 8 64.8 4.02
4 0 -8 66.79 3.94
4 0 -8 67.55 4.12
4 0 -8 69.53 4.29
4 0 -8 67.32 4.19
4 0 -8 67.62 3.97
4 0 -8 69.32 4.19
-4 1 8 32.15 2.11
-4 1 8 26.93 2.03
4 -1 -8 24.29 1.92
4 -1 -8 23.08 1.93
4 -1 -8 24.87 1.78
4 -1 -8 25.43 1.91
4 -1 -8 24.47 2
4 -1 -8 23.67 1.98
-4 2 8 20 1.88
4 -2 -8 18.95 1.75
4 -2 -8 19.56 1.77
4 -2 -8 21.02 1.65
4 -2 -8 21.55 1.83
-4 3 8 23.54 2.32
4 -3 -8 29.15 2.37
4 -3 -8 28.98 2.19
4 -3 -8 28.8 2.37
-4 4 8 21.73 2.24
4 -4 -8 16.04 2.16
4 -4 -8 16.48 1.96
-4 5 8 13.12 2.04
4 -5 -8 17.34 2.19
4 -5 -8 15.33 2.14
-3 -5 8 37.38 2.92
3 5 -8 31.38 2.88
-3 -4 8 19.85 2.19
-3 -4 8 20.05 2.06
3 4 -8 20.38 2.35
3 4 -8 20.19 2.15
-3 -3 8 8.22 1.28
-3 -3 8 9.75 1.27
-3 -3 8 10.04 1.46
3 3 -8 14.14 1.56
3 3 -8 12.28 1.52
3 3 -8 13.56 1.56
-3 -2 8 103.57 5.39
-3 -2 8 101.33 5.47
-3 -2 8 102.02 5.6
3 2 -8 87.25 5.42
3 2 -8 84.83 5.58
3 2 -8 84.36 5.45
3 2 -8 89.87 5.81
-3 -1 8 38.99 2.4
-3 -1 8 39.35 2.57
-3 -1 8 39.01 2.55
3 1 -8 36.83 2.54
3 1 -8 38.69 2.59
3 1 -8 38.13 2.67
3 1 -8 35.51 2.66
-3 0 8 27.01 1.82
-3 0 8 26.48 2.09
-3 0 8 28.25 2.04
3 0 -8 26.41 1.96
3 0 -8 26.44 2
3 0 -8 29.22 2.2
3 0 -8 27.69 2.17
3 0 -8 26.82 2.08
-3 1 8 38.42 2.65
-3 1 8 39.22 2.67
-3 1 8 38.8 2.4
-3 1 8 38.02 2.67
3 -1 -8 41.33 2.64
3 -1 -8 40.05 2.72
3 -1 -8 39.11 2.68
3 -1 -8 39.73 2.64
3 -1 -8 36.86 2.5
-3 2 8 90.5 5.55
-3 2 8 94.69 5.71
-3 2 8 87 5.79
3 -2 -8 102.74 5.97
3 -2 -8 106.07 6.03
3 -2 -8 99.91 5.66
3 -2 -8 104.21 5.83
3 -2 -8 100.95 5.67
-3 3 8 11.45 1.47
-3 3 8 12.36 1.53
3 -3 -8 10.38 1.32
3 -3 -8 11.36 1.57
3 -3 -8 10.08 1.45
-3 4 8 17.38 1.8
-3 4 8 17.25 2.21
3 -4 -8 16.8 1.91
3 -4 -8 16.87 2.2
-3 5 8 34.03 3.13
-3 5 8 33.4 2.66
3 -5 -8 38.09 3.28
3 -5 -8 36.13 2.97
-2 -5 8 18.4 2.25
2 5 -8 15.76 2.13
-2 -4 8 34.76 2.78
-2 -4 8 35.25 2.65
2 4 -8 31.66 2.7
-2 -3 8 50.89 3.49
-2 -3 8 48.26 3.29
-2 -3 8 51.62 3.43
2 3 -8 50.25 3.39
2 3 -8 51.03 3.51
2 3 -8 50.83 3.37
-2 -2 8 40.54 2.52
-2 -2 8 37.33 2.35
-2 -2 8 38.45 2.49
2 2 -8 29.24 2.5
2 2 -8 32.61 2.46
2 2 -8 31.62 2.39
2 2 -8 29.28 2.35
-2 -1 8 77.3 4.76
-2 -1 8 77.47 4.91
-2 -1 8 76.29 4.79
2 1 -8 85.95 5.09
2 1 -8 85.41 4.82
2 1 -8 86.42 4.83
2 1 -8 88.68 5.02
-2 0 8 4.03 0.87
-2 0 8 4.91 0.99
-2 0 8 4.54 0.77
2 0 -8 4.13 1.03
2 0 -8 4.53 0.8
2 0 -8 4.09 0.89
2 0 -8 3.92 1
2 0 -8 5.34 0.97
-2 1 8 88.72 4.81
-2 1 8 89.04 4.94
-2 1 8 89.49 4.93
-2 1 8 89.38 5.06
2 -1 -8 80.8 5.12
2 -1 -8 75.9 4.82
2 -1 -8 79.35 4.96
2 -1 -8 83.07 5.1
2 -1 -8 75.81 4.84
-2 2 8 31.2 2.63
-2 2 8 31.52 2.63
-2 2 8 30.97 2.49
2 -2 -8 43.97 2.65
2 -2 -8 40.7 2.63
2 -2 -8 40.68 2.56
2 -2 -8 41.12 2.72
2 -2 -8 39.52 2.71
-2 3 8 58.48 3.66
-2 3 8 55.15 3.44
2 -3 -8 51.8 3.63
2 -3 -8 48.64 3.46
-2 4 8 33.19 2.94
-2 4 8 32.63 2.65
2 -4 -8 35.87 2.71
2 -4 -8 37.01 2.98
-2 5 8 15.09 2.03
-2 5 8 12.97 2.11
2 -5 -8 19.8 2.21
-1 -5 8 25.67 2.55
1 5 -8 24.1 2.43
-1 -4 8 15.43 1.93
1 4 -8 17.92 2.11
1 4 -8 16.13 1.91
-1 -3 8 7.7 1.29
-1 -3 8 7.89 1.29
1 3 -8 3.47 1.06
1 3 -8 2.79 1.11
1 3 -8 3.11 1.09
-1 -2 8 30.79 2.38
-1 -2 8 31.44 2.44
-1 -2 8 31.07 2.48
-1 -2 8 33.72 2.59
1 2 -8 36.74 2.59
1 2 -8 40.35 2.52
1 2 -8 37.68 2.47
1 2 -8 35.81 2.44
-1 -1 8 74.44 4.35
-1 -1 8 76.7 4.61
-1 -1 8 74.02 4.3
-1 -1 8 74.14 4.44
1 1 -8 70.82 4.27
1 1 -8 72.25 4.33
1 1 -8 70.32 4.49
1 1 -8 71.31 4.34
-1 0 8 10.2 1.28
-1 0 8 9.12 1.18
-1 0 8 10.17 1.27
-1 0 8 9.25 1.24
1 0 -8 9.99 1.2
1 0 -8 10.7 1.27
1 0 -8 9.96 1.25
1 0 -8 9.86 1.31
1 0 -8 9.2 1.07
-1 1 8 73.36 4.41
-1 1 8 75.01 4.47
-1 1 8 69.51 4.53
-1 1 8 74.28 4.47
-1 1 8 69.9 4.6
1 -1 -8 75.99 4.62
1 -1 -8 75.4 4.51
1 -1 -8 75.7 4.39
1 -1 -8 75.81 4.63
1 -1 -8 76.84 4.42
1 -1 -8 75.66 4.35
-1 2 8 38.99 2.66
-1 2 8 39.98 2.51
-1 2 8 38.9 2.65
1 -2 -8 32.39 2.5
1 -2 -8 34.78 2.47
1 -2 -8 32.1 2.58
1 -2 -8 34.04 2.45
1 -2 -8 33.3 2.51
1 -3 -8 7.06 1.31
1 -3 -8 7.72 1.24
1 -3 -8 7.79 1.32
-1 4 8 16.91 2.02
-1 4 8 16.01 1.99
1 -4 -8 16.99 2.16
1 -4 -8 16.53 1.95
-1 5 8 22.9 2.78
-1 5 8 24.87 2.5
1 -5 -8 27.17 2.57
0 -5 8 -1.91 1.31
0 5 -8 0.52 1.21
0 5 -8 -0.34 1.47
0 -4 8 15.82 1.99
0 -4 8 15.61 1.91
0 4 -8 13.61 1.87
0 4 -8 13.82 1.8
0 -3 8 16.98 1.96
0 -3 8 15.43 1.8
0 -3 8 17.47 1.95
0 3 -8 22.83 1.85
0 3 -8 23.85 2.04
0 -2 8 40.52 2.87
0 -2 8 47.64 2.99
0 -2 8 45.37 3.03
0 -2 8 41.84 3.1
0 2 -8 45.55 2.97
0 2 -8 45.27 2.95
0 2 -8 44.75 2.91
0 2 -8 42.77 3.04
0 -1 8 99.52 5.7
0 -1 8 94.88 5.51
0 -1 8 94.84 5.39
0 -1 8 95.09 5.36
0 1 -8 89.86 5.51
0 1 -8 88.95 5.33
0 1 -8 90.82 5.39
0 1 -8 90.19 5.33
0 1 -8 88.34 5.61
0 0 8 85.7 5.06
0 0 8 90.05 5.15
0 0 8 88.02 5.38
0 0 8 87.06 5.25
0 0 -8 83.53 5.03
0 0 -8 84.23 5
0 0 -8 87.86 5.23
0 0 -8 88.07 5.11
0 0 -8 89.34 5.32
0 1 8 90.73 5.43
0 1 8 91.81 5.39
0 1 8 91.46 5.43
0 1 8 93.71 5.56
0 1 8 90.68 5.67
0 -1 -8 94.93 5.42
0 -1 -8 92.48 5.37
0 -1 -8 95.6 5.34
0 -1 -8 93.36 5.65
0 -1 -8 94.98 5.54
0 2 8 48.37 3.17
0 2 8 46.99 3.06
0 2 8 45.33 3.2
0 -2 -8 44.59 3
0 -2 -8 45.54 3.07
0 -2 -8 47.31 3.03
0 -2 -8 45.78 3.11
0 3 8 23.84 2.19
0 3 8 23.13 1.98
0 3 8 23.7 2.27
0 -3 -8 16.52 2.01
0 -3 -8 16.25 1.88
0 -3 -8 15.41 1.96
0 4 8 12.99 1.75
0 4 8 12.02 1.88
0 -4 -8 14.67 1.93
0 5 8 -0.45 1.39
0 -5 -8 1.52 1.4
1 -5 8 5.47 1.58
-1 5 -8 4.36 1.65
-1 5 -8 1.95 1.2
-1 5 -8 3.87 1.35
1 -4 8 10.84 1.68
1 -4 8 12.46 1.66
-1 4 -8 7.47 1.62
-1 4 -8 9.18 1.37
1 -3 8 11.16 1.44
1 -3 8 10.63 1.53
-1 3 -8 11.52 1.53
-1 3 -8 9.82 1.37
-1 3 -8 10.73 1.27
1 -2 8 45.4 3.33
1 -2 8 43.82 3.13
1 -2 8 46.22 3.23
1 -2 8 45.15 3.1
-1 2 -8 50.64 3.26
-1 2 -8 49.02 3.16
-1 2 -8 51.9 3.18
-1 2 -8 50.14 3.04
1 -1 8 27.93 2.31
1 -1 8 29.65 2.41
1 -1 8 29.67 2.25
1 -1 8 30.33 2.45
-1 1 -8 34.09 2.2
-1 1 -8 34.33 2.43
-1 1 -8 34.71 2.35
-1 1 -8 37.34 2.44
1 0 8 219.47 12.29
1 0 8 211.27 11.6
1 0 8 211.68 11.95
1 0 8 205.41 11.68
1 0 8 213.48 12.23
-1 0 -8 199.71 11.61
-1 0 -8 211.94 11.52
-1 0 -8 213.1 11.92
-1 0 -8 211.56 11.59
1 1 8 36.2 2.42
1 1 8 37.41 2.56
1 1 8 34.22 2.53
1 1 8 36.28 2.56
1 1 8 35.8 2.57
1 1 8 36.58 2.55
-1 -1 -8 32.29 2.35
-1 -1 -8 30.36 2.34
-1 -1 -8 30.78 2.46
-1 -1 -8 32.66 2.46
1 2 8 52.08 3.2
1 2 8 52.81 3.38
1 2 8 51.44 3.42
1 2 8 51.25 3.27
-1 -2 -8 46.58 3.14
-1 -2 -8 43.57 3.21
-1 -2 -8 44.21 3.18
-1 -2 -8 46.27 3.12
1 3 8 10.98 1.63
1 3 8 11.98 1.54
1 3 8 10.5 1.53
-1 -3 -8 10.67 1.43
-1 -3 -8 10.45 1.54
1 4 8 7.64 1.64
-1 -4 -8 11.04 1.6
-1 -4 -8 11.9 1.76
1 5 8 3.96 1.66
-1 -5 -8 3.56 1.46
2 -5 8 1.84 1.53
-2 5 -8 1.13 1.52
-2 5 -8 2.83 1.18
2 -4 8 2.88 1.39
2 -4 8 2.8 1.33
-2 4 -8 5.65 1.05
-2 4 -8 3.5 1.44
2 -3 8 86.18 5.55
2 -3 8 85.81 5.39
-2 3 -8 89.73 5.39
-2 3 -8 91.52 5.16
-2 3 -8 89.48 5.36
2 -2 8 24.02 2.22
2 -2 8 25.39 2.32
2 -2 8 23.56 2.11
-2 2 -8 30.97 2.25
-2 2 -8 31.07 1.97
-2 2 -8 30.66 2.26
2 -1 8 32.79 2.23
2 -1 8 28 2.38
2 -1 8 29.74 2.27
2 -1 8 33.98 2.44
-2 1 -8 30.26 2.26
-2 1 -8 29.42 2.05
-2 1 -8 29.66 2.32
-2 1 -8 28.18 2.26
2 0 8 97.73 5.7
2 0 8 100.97 5.72
2 0 8 97.24 5.99
2 0 8 96.54 6.04
2 0 8 101.2 5.92
-2 0 -8 95.48 5.81
-2 0 -8 96.38 5.57
-2 0 -8 99 5.65
-2 0 -8 100.15 5.72
2 1 8 30.3 2.42
2 1 8 29.24 2.47
2 1 8 32.32 2.31
2 1 8 32.81 2.48
2 1 8 30.2 2.45
-2 -1 -8 31.48 2.16
-2 -1 -8 29.66 2.33
-2 -1 -8 32.99 2.45
-2 -1 -8 32.93 2.29
2 2 8 31.33 2.5
2 2 8 32.1 2.37
2 2 8 32.06 2.52
2 2 8 32.8 2.43
-2 -2 -8 27.56 2.18
-2 -2 -8 25.22 2.25
-2 -2 -8 25.52 2.28
2 3 8 93.66 5.59
2 3 8 100.4 5.91
-2 -3 -8 85.65 5.57
-2 -3 -8 89.96 5.5
2 4 8 6.68 1.52
-2 -4 -8 2.31 1.4
-2 -4 -8 2.46 1.25
2 5 8 1.43 1.59
-2 -5 -8 2.74 1.42
3 -5 8 -0.36 1.46
3 -5 8 0.23 1.54
-3 5 -8 0.52 1.54
3 -4 8 15.52 1.99
3 -4 8 15.6 2.03
-3 4 -8 18.73 2.25
3 -3 8 13.58 1.78
3 -3 8 15.02 1.94
-3 3 -8 15.25 1.78
-3 3 -8 15.01 1.94
-3 3 -8 15.25 1.25
3 -2 8 34.7 2.82
3 -2 8 32.99 2.89
3 -2 8 37.05 2.98
3 -2 8 36.39 3.07
-3 2 -8 49.32 2.98
-3 2 -8 48.56 2.51
-3 2 -8 48.78 3.01
3 -1 8 81.21 5.16
3 -1 8 85.14 5.29
3 -1 8 81.22 4.92
-3 1 -8 83.59 4.68
-3 1 -8 83.54 5
-3 1 -8 84.37 4.93
3 0 8 95.22 5.92
3 0 8 95.06 5.78
3 0 8 93.64 5.53
3 0 8 97.11 5.86
3 0 8 94.4 5.51
-3 0 -8 94.58 5.51
-3 0 -8 93.19 5.55
-3 0 -8 95.9 5.31
3 1 8 78.81 5.3
3 1 8 85.15 4.97
3 1 8 86.68 5.19
3 1 8 85.13 5.28
-3 -1 -8 85.05 4.95
-3 -1 -8 81.86 5
3 2 8 48.45 3.01
3 2 8 48.17 3.19
3 2 8 51.27 3.33
-3 -2 -8 35.73 2.9
-3 -2 -8 36.55 2.96
-3 -2 -8 38.62 2.81
3 3 8 15.9 1.94
3 3 8 14.1 1.88
-3 -3 -8 14.54 1.72
-3 -3 -8 13.3 1.74
3 4 8 16.17 2.09
-3 -4 -8 17.42 1.97
-3 -4 -8 13.82 2.03
3 5 8 0.4 1.62
-3 -5 -8 1.27 1.3
-3 -5 -8 -0.02 1.59
4 -5 8 14.9 2.22
-4 5 -8 14.51 2.21
4 -4 8 4.29 1.46
-4 4 -8 1.7 1.35
-4 4 -8 1.66 1.26
4 -3 8 42.7 3.02
-4 3 -8 35.24 2.87
-4 3 -8 35.72 2.94
4 -2 8 44.3 3.63
4 -2 8 50.44 3.52
4 -2 8 49.49 3.55
-4 2 -8 55.97 3.52
-4 2 -8 55.45 3.45
4 -1 8 7.85 1.44
4 -1 8 8.26 1.21
4 -1 8 6.95 1.29
4 0 8 55.08 3.81
4 0 8 53.12 3.71
4 0 8 55.33 3.48
4 0 8 55.58 3.73
-4 0 -8 55.87 3.56
-4 0 -8 54.3 3.48
4 1 8 3.44 1.08
4 1 8 2.76 1.23
4 1 8 2.35 1.04
-4 -1 -8 5.8 1.14
4 2 8 54.39 3.71
4 2 8 53.97 3.79
4 2 8 55.29 3.48
-4 -2 -8 46.33 3.39
-4 -2 -8 48.66 3.5
4 3 8 37.67 3.35
4 3 8 38.75 3.14
-4 -3 -8 44.16 2.84
-4 -3 -8 42.92 3.15
-4 -3 -8 43.02 3.15
4 4 8 1.32 1.54
4 4 8 0.5 1.36
-4 -4 -8 2.9 1.12
-4 -4 -8 3.13 1.5
4 5 8 16.69 2.27
-4 -5 -8 15.38 2.35
5 -4 8 23.38 2.41
-5 4 -8 15.26 2.08
-5 4 -8 16.79 2.13
5 -3 8 15.06 2.01
-5 3 -8 16.06 1.97
-5 3 -8 17.86 2.13
5 -2 8 9.82 1.68
5 -2 8 14.06 1.75
5 -2 8 13.78 1.65
-5 2 -8 10.43 1.47
-5 2 -8 10.15 1.5
5 -1 8 5.75 1.27
5 -1 8 6.36 1.43
-5 1 -8 4.31 1.14
-5 1 -8 5.73 1.11
5 0 8 6.83 1.31
5 0 8 10.2 1.58
-5 0 -8 6.59 1.23
-5 0 -8 7.83 1.17
5 1 8 3.97 1.33
5 1 8 4.54 1.21
-5 -1 -8 5.45 1.09
-5 -1 -8 5.01 1.19
5 2 8 11.5 1.66
5 2 8 7.96 1.64
-5 -2 -8 15.73 1.94
-5 -2 -8 14.07 1.57
5 3 8 18.07 2.19
5 3 8 19.14 2.52
-5 -3 -8 16.93 2.18
-5 -3 -8 19.44 2.23
5 4 8 19.6 2.41
5 4 8 17.12 2.45
-5 -4 -8 23.1 2.49
6 -4 8 2.56 1.49
-6 4 -8 1.17 1.36
-6 4 -8 2.35 1.37
6 -3 8 22.85 2.29
-6 3 -8 17.58 2.26
-6 3 -8 20.1 2.09
6 -2 8 4.08 1.27
6 -2 8 3.57 1.21
6 -2 8 3.3 1.46
-6 2 -8 4.93 1.21
-6 2 -8 3.72 1.27
6 -1 8 23.91 2.2
6 -1 8 18.35 2.28
-6 1 -8 20.55 2.02
-6 1 -8 18.44 1.99
6 0 8 6.55 1.51
6 0 8 4.99 1.29
-6 0 -8 8.13 1.21
-6 0 -8 7.56 1.26
6 1 8 18.72 2.27
6 1 8 16.42 2.2
-6 -1 -8 23.3 2.01
-6 -1 -8 25.09 2.21
6 2 8 2.31 1.22
-6 -2 -8 4.65 1.2
-6 -2 -8 4.05 1.36
6 3 8 22.46 2.71
-6 -3 -8 26.83 2.53
-6 -3 -8 25.06 2.54
6 4 8 1.16 1.58
-6 -4 -8 4.93 1.68
7 -4 8 9.55 1.87
-7 4 -8 12.67 1.88
-7 4 -8 15.35 2.04
7 -3 8 8.98 1.65
-7 3 -8 9.27 1.51
-7 3 -8 10.45 1.69
7 -2 8 42.93 3.17
7 -2 8 43.1 3.45
-7 2 -8 38.77 3.14
-7 2 -8 41.02 2.99
7 -1 8 0.84 1.13
7 -1 8 1.36 1.45
-7 1 -8 0.26 1.02
-7 1 -8 1.62 1.07
7 0 8 1.91 1.41
7 0 8 4.21 1.22
-7 0 -8 3.66 1.08
-7 0 -8 2.09 1.11
7 1 8 1.42 1.23
7 1 8 -0.5 1.25
-7 -1 -8 0.55 1.13
-7 -1 -8 0.67 1
7 2 8 43.56 3.5
-7 -2 -8 44.83 3.35
-7 -2 -8 46.35 3.29
7 3 8 12.77 2.01
-7 -3 -8 11.57 1.79
-7 -3 -8 12.51 1.95
7 4 8 13.11 2.26
-7 -4 -8 11.72 2.11
8 -3 8 1.61 1.35
-8 3 -8 2 1.23
-8 3 -8 1.89 1.32
8 -2 8 1.42 1.56
8 -2 8 0.57 1.16
-8 2 -8 1.18 1.12
-8 2 -8 0.56 1.22
8 -1 8 32.86 2.8
-8 1 -8 36.58 2.77
-8 1 -8 35.43 2.68
8 0 8 3.19 1.51
8 0 8 2.79 1.24
-8 0 -8 3.26 1.15
-8 0 -8 3.18 1.17
8 1 8 33.37 2.98
8 1 8 37.05 3.01
-8 -1 -8 32.75 2.73
-8 -1 -8 32.78 2.7
8 2 8 0.74 1.26
-8 -2 -8 0.85 1.19
-8 -2 -8 0.9 1.3
8 3 8 4.65 1.7
-8 -3 -8 0.97 1.34
-8 -3 -8 2.23 1.59
9 -2 8 27.63 2.42
9 -2 8 25.58 2.76
-9 2 -8 21.83 2.19
-9 2 -8 17.39 2.3
9 -1 8 0.11 1.08
9 -1 8 -0.37 1.48
-9 1 -8 0.04 1.09
-9 1 -8 -0.03 1.06
9 0 8 9.66 1.58
9 0 8 9.78 1.79
-9 0 -8 10.83 1.55
-9 0 -8 10.21 1.5
9 1 8 -0.57 1.41
9 1 8 -0.06 1.33
-9 -1 -8 -0.34 1.15
-9 -1 -8 0.59 1.14
9 2 8 24.71 2.81
-9 -2 -8 27.05 2.6
-9 -2 -8 25.27 2.52
10 -1 8 36.89 3.17
10 -1 8 32.5 2.8
-10 1 -8 36.8 2.67
-10 1 -8 35.88 2.81
10 0 8 0.92 1.21
10 0 8 0.87 1.5
-10 0 -8 1.36 1.16
-10 0 -8 2.68 1.25
10 1 8 34.74 3.26
-10 -1 -8 36.47 2.83
-10 -1 -8 37.88 2.97
-13 -1 9 8.95 1.81
-13 0 9 28.53 2.98
-13 1 9 6.21 1.77
-12 -2 9 11.7 1.46
12 2 -9 15.35 1.74
-12 -1 9 8.27 1.7
12 1 -9 6.77 1.18
-12 0 9 14.57 2.1
-12 1 9 12.33 2.02
-12 2 9 12.56 2.11
12 -2 -9 11.07 1.37
-11 -3 9 14.25 1.8
-11 -3 9 12.12 1.77
11 3 -9 20.52 2.32
-11 -2 9 15.23 1.69
11 2 -9 15.11 1.86
11 1 -9 22.11 1.98
-11 0 9 5.11 1.44
11 0 -9 4.76 0.93
11 0 -9 4.6 0.89
-11 1 9 28.58 2.99
11 -1 -9 34.14 2.28
-11 2 9 15.65 2.18
11 -2 -9 13.82 1.56
11 -2 -9 14.37 1.48
-11 3 9 15.92 2.3
11 -3 -9 12.3 1.66
11 -3 -9 12.89 1.62
-10 -4 9 5.05 1.65
-10 -4 9 6.07 1.55
10 4 -9 6.18 1.79
-10 -3 9 9.75 1.52
-10 -3 9 10.98 1.57
10 3 -9 7.23 1.62
-10 -2 9 6.64 1.16
-10 -2 9 6.16 1.38
10 2 -9 6.08 1.28
-10 -1 9 20.53 2.27
-10 -1 9 20.77 1.69
10 1 -9 16.4 1.88
10 1 -9 18.79 1.8
-10 0 9 56.01 4.26
10 0 -9 58.11 3.62
-10 1 9 17.59 2.25
10 -1 -9 19.6 1.65
10 -1 -9 17.59 1.74
10 -1 -9 21.37 1.73
-10 2 9 5.65 1.55
10 -2 -9 7.65 1.18
10 -2 -9 7.39 1.1
10 -2 -9 6.41 1.06
-10 3 9 5.98 1.73
-10 3 9 7.65 1.3
10 -3 -9 10.61 1.41
10 -3 -9 11.67 1.42
-10 4 9 5.63 1.37
-10 4 9 4.89 1.73
10 -4 -9 5.28 1.43
10 -4 -9 3.42 1.35
-9 -4 9 19.46 2.37
-9 -4 9 18.57 2.28
9 4 -9 18.94 2.44
-9 -3 9 42.09 3
-9 -3 9 37.72 2.97
9 3 -9 40.61 3.18
-9 -2 9 39.76 2.63
-9 -2 9 36.1 2.91
9 2 -9 30.15 2.66
-9 -1 9 10.28 1.17
-9 -1 9 7.6 1.44
9 1 -9 10.25 1.22
9 1 -9 5.71 1.24
-9 0 9 8.25 0.98
9 0 -9 8.22 1.05
9 0 -9 8.15 1.21
-9 1 9 7.84 1.5
9 -1 -9 9.17 1.2
9 -1 -9 8.26 1.14
9 -1 -9 10.04 1.23
-9 2 9 31.15 3.05
9 -2 -9 34.74 2.52
9 -2 -9 33.89 2.41
9 -2 -9 34.58 2.48
-9 3 9 36.49 3.36
-9 3 9 41.46 2.8
9 -3 -9 37.22 2.86
9 -3 -9 36.81 2.79
-9 4 9 16.33 2.08
-9 4 9 14.17 2.22
9 -4 -9 18.01 2.05
9 -4 -9 17.85 2.14
-8 -4 9 12.95 1.92
-8 -4 9 10.57 1.74
8 4 -9 16.19 2.12
-8 -3 9 2.53 1.2
-8 -3 9 2.27 1.07
8 3 -9 2.62 1.28
-8 -2 9 14.19 1.69
8 2 -9 12.88 1.71
-8 -1 9 14.17 1.62
8 1 -9 19.08 1.77
8 1 -9 21.85 1.78
-8 0 9 74.13 4.23
-8 0 9 73.37 4.24
8 0 -9 70.95 4.58
8 0 -9 73.79 4.43
8 -1 -9 14.92 1.57
8 -1 -9 14.94 1.57
8 -1 -9 16.3 1.57
-8 2 9 14.99 1.71
-8 2 9 13.31 1.67
8 -2 -9 13.26 1.54
8 -2 -9 13.6 1.5
8 -2 -9 13.47 1.54
-8 3 9 2.03 1.06
-8 3 9 1.93 1.32
8 -3 -9 2.81 1.08
8 -3 -9 2.92 1.09
-8 4 9 14.06 2.07
-8 4 9 14.37 1.76
8 -4 -9 11.94 1.79
-7 -5 9 3.82 1.72
7 5 -9 7.79 2.05
-7 -4 9 15.55 1.98
-7 -4 9 13.77 1.82
7 4 -9 14.04 2.07
-7 -3 9 34.31 2.66
7 3 -9 30.21 2.78
-7 -2 9 24.97 2.06
7 2 -9 18.84 2.04
7 1 -9 16.29 1.67
7 1 -9 14.35 1.57
-7 0 9 4.21 0.74
-7 0 9 5.68 0.9
7 0 -9 5.34 0.92
7 0 -9 4.52 1.08
7 0 -9 4.9 0.95
-7 1 9 16.77 1.9
7 -1 -9 22.15 1.74
7 -1 -9 20.83 1.77
7 -1 -9 18.51 1.76
-7 2 9 17.97 1.9
7 -2 -9 22.32 1.84
7 -2 -9 20.76 1.88
7 -2 -9 23.6 1.93
-7 3 9 32.01 2.65
7 -3 -9 35.03 2.68
7 -3 -9 35.33 2.7
-7 4 9 14.5 2.06
-7 4 9 14.19 1.8
7 -4 -9 13.36 1.86
-7 5 9 5.38 1.7
7 -5 -9 4.52 1.7
-6 -5 9 10.41 1.99
6 5 -9 8.81 1.88
-6 -4 9 17.75 2.11
-6 -4 9 19.77 1.59
6 4 -9 15.63 2.04
6 4 -9 15.63 2.13
-6 -3 9 10.42 1.5
6 3 -9 9.38 1.55
6 3 -9 9.75 1.5
-6 -2 9 46.71 2.93
6 2 -9 36.96 2.97
-6 -1 9 41.73 2.93
6 1 -9 48.02 3.16
6 1 -9 48.78 3.08
-6 0 9 1.09 0.6
-6 0 9 1.07 0.74
6 0 -9 0.89 0.71
6 0 -9 0.12 0.76
6 0 -9 -0.19 0.87
-6 1 9 50.26 3.02
6 -1 -9 41.19 2.91
6 -1 -9 37.78 2.93
6 -1 -9 44.1 2.87
-6 2 9 35.09 2.79
6 -2 -9 43.83 2.93
6 -2 -9 42.06 2.88
6 -2 -9 41.5 2.79
-6 3 9 9.81 1.44
6 -3 -9 9.23 1.41
6 -3 -9 11.73 1.53
-6 4 9 16.67 2.01
6 -4 -9 18.02 2.24
-6 5 9 9.67 1.88
6 -5 -9 7.7 1.87
-5 -5 9 22.59 2.22
-5 -5 9 24.31 2.64
5 5 -9 20.52 2.5
-5 -4 9 24.14 2.49
-5 -4 9 24.62 2.13
5 4 -9 25.46 2.64
5 4 -9 25.64 2.53
-5 -3 9 34.1 2.56
-5 -3 9 34.24 2.22
5 3 -9 28.37 2.54
5 3 -9 26.13 2.56
-5 -2 9 32.15 2.52
5 2 -9 35.13 2.56
5 2 -9 36.02 2.66
-5 -1 9 5.86 0.94
5 1 -9 3.64 1.03
5 1 -9 4.5 0.88
5 1 -9 4.68 0.99
-5 0 9 51.31 3.16
-5 0 9 51.48 3.23
5 0 -9 50.75 3.35
5 0 -9 49.74 3.44
5 0 -9 51.93 3.34
5 0 -9 50.77 3.11
5 0 -9 51.5 3.29
-5 1 9 3.78 1.08
5 -1 -9 6.41 1
5 -1 -9 6.58 1.1
5 -1 -9 6.66 0.84
5 -1 -9 7.1 1.08
-5 2 9 35.63 2.43
5 -2 -9 29.31 2.38
5 -2 -9 31.08 2.34
5 -2 -9 31.13 2.44
-5 3 9 28.83 2.53
5 -3 -9 34.06 2.59
5 -3 -9 30.48 2.56
-5 4 9 26.41 2.58
5 -4 -9 23.87 2.51
-5 5 9 23.68 2.75
5 -5 -9 24.09 2.77
-4 -5 9 0.76 1.45
-4 -5 9 0.58 1.25
4 5 -9 1.87 1.5
-4 -4 9 10.38 1.7
-4 -4 9 9.99 1.49
4 4 -9 9.47 1.71
4 4 -9 11.03 1.67
-4 -3 9 23.6 2.11
-4 -3 9 24.68 2.33
4 3 -9 31.04 2.53
4 3 -9 30.86 2.38
-4 -2 9 76.87 4.66
-4 -2 9 78.05 4.5
4 2 -9 76.36 4.81
4 2 -9 79.96 4.69
4 2 -9 75.39 4.69
-4 -1 9 60.42 3.5
-4 -1 9 55.52 3.7
-4 -1 9 56.98 3.69
4 1 -9 64.61 3.72
4 1 -9 59.13 3.95
4 1 -9 62.64 3.7
4 1 -9 62.4 3.88
-4 0 9 0.76 0.78
-4 0 9 0.92 0.46
-4 0 9 0.13 0.62
-4 0 9 0.65 0.45
4 0 -9 0.86 0.84
4 0 -9 -0.43 0.67
4 0 -9 0.29 0.88
4 0 -9 0.39 0.71
4 0 -9 1.01 0.73
-4 1 9 59.05 3.69
-4 1 9 63.74 3.79
4 -1 -9 57.11 3.79
4 -1 -9 56.96 3.69
4 -1 -9 59.92 3.57
4 -1 -9 59.96 3.7
4 -1 -9 56.64 3.82
-4 2 9 78.15 4.68
4 -2 -9 79.86 4.92
4 -2 -9 77.59 4.95
4 -2 -9 76.87 4.76
4 -2 -9 77.65 4.63
-4 3 9 33.56 1.99
-4 3 9 33.29 2.48
4 -3 -9 23.64 2.35
4 -3 -9 23.68 2.19
4 -3 -9 26.17 2.41
-4 4 9 11.75 1.78
4 -4 -9 9.06 1.56
4 -4 -9 9.93 1.67
-4 5 9 2.45 1.59
4 -5 -9 -0.21 1.48
4 -5 -9 1.89 1.48
-3 -5 9 3.35 1.43
3 5 -9 2.92 1.47
-3 -4 9 -0.1 1.14
-3 -4 9 0.76 1.14
3 4 -9 1.26 1.24
-3 -3 9 22.6 2.25
-3 -3 9 23.7 2.06
3 3 -9 29.04 2.3
3 3 -9 24.88 2.36
3 3 -9 27.81 2.31
-3 -2 9 38.98 2.97
-3 -2 9 38.86 3.01
-3 -2 9 39.33 2.85
3 2 -9 51.54 3.08
3 2 -9 51.35 3.18
3 2 -9 50.47 3.04
-3 -1 9 74.86 4.94
-3 -1 9 80.54 4.91
-3 -1 9 76.03 4.96
-3 -1 9 81.21 4.82
3 1 -9 91.48 4.95
3 1 -9 93.95 4.95
3 1 -9 89.06 5.14
3 1 -9 82.9 5.23
-3 0 9 187.76 10.62
-3 0 9 193.06 10.34
-3 0 9 179.18 10.37
3 0 -9 193.68 10.71
3 0 -9 187.26 10.94
3 0 -9 190.4 10.34
3 0 -9 183.62 10.42
3 0 -9 187.74 10.98
-3 1 9 87.28 4.95
-3 1 9 87.83 4.9
-3 1 9 88.06 4.66
3 -1 -9 77.78 4.81
3 -1 -9 75.98 4.98
3 -1 -9 76.4 5.01
3 -1 -9 78.42 4.72
3 -1 -9 76.53 4.88
-3 2 9 50.99 2.79
-3 2 9 48.89 3.02
3 -2 -9 39.49 3.07
3 -2 -9 38.84 2.93
3 -2 -9 42.15 2.98
3 -2 -9 40.26 2.85
-3 3 9 27.86 2.34
-3 3 9 28.65 2.1
3 -3 -9 21.98 2.11
3 -3 -9 22.13 2.24
-3 4 9 2.33 1.15
-3 4 9 3.02 1.36
3 -4 -9 -0.01 1.14
3 -4 -9 -0.01 1.21
-3 5 9 4.84 1.36
-3 5 9 4.4 1.66
3 -5 -9 5.06 1.59
-2 -5 9 4.67 1.57
2 5 -9 7.21 1.6
-2 -4 9 17.55 2.09
-2 -4 9 18.4 2.18
2 4 -9 24.52 2.19
-2 -3 9 68.05 4.38
-2 -3 9 64.12 4.23
2 3 -9 69.13 4.48
2 3 -9 68.34 4.32
2 3 -9 70.55 4.34
-2 -2 9 55.65 3.42
-2 -2 9 55.68 3.57
-2 -2 9 53.53 3.49
2 2 -9 52.93 3.44
2 2 -9 54.35 3.63
2 2 -9 52.58 3.47
-2 -1 9 37.68 2.45
-2 -1 9 35.5 2.28
-2 -1 9 36.74 2.46
2 1 -9 32.34 2.55
2 1 -9 28.15 2.46
2 1 -9 31.27 2.36
2 1 -9 33.5 2.41
2 1 -9 30.6 2.28
-2 0 9 7.51 1.07
-2 0 9 8.09 0.93
2 0 -9 3.66 1.02
2 0 -9 7.19 1.06
2 0 -9 5.04 1
2 0 -9 5.45 1
-2 1 9 31.66 2.57
-2 1 9 32.75 2.34
-2 1 9 34.29 2.59
2 -1 -9 35.59 2.38
2 -1 -9 34.78 2.5
2 -1 -9 35.54 2.54
2 -1 -9 35.66 2.51
2 -1 -9 35.83 2.55
-2 2 9 52.66 3.45
-2 2 9 55.21 3.57
-2 2 9 53.43 3.63
2 -2 -9 55.25 3.58
2 -2 -9 54.59 3.49
2 -2 -9 57.51 3.57
2 -2 -9 56.03 3.71
-2 3 9 75.16 4.54
-2 3 9 74.37 4.36
2 -3 -9 68.71 4.57
2 -3 -9 65.52 4.4
-2 4 9 24.26 2.16
-2 4 9 25.97 2.61
2 -4 -9 17.19 2.13
2 -4 -9 19.5 2.36
-2 5 9 6.38 1.56
-2 5 9 6.66 1.84
2 -5 -9 6.01 1.61
-1 -5 9 1.46 1.44
1 5 -9 1.25 1.31
-1 -4 9 8 1.54
1 4 -9 7.79 1.41
1 4 -9 7.65 1.61
-1 -3 9 2.54 1.15
-1 -3 9 2.76 1.09
-1 -3 9 3.27 1.15
1 3 -9 5.62 1.23
1 3 -9 3.67 1.17
1 3 -9 4.78 1.11
-1 -2 9 27.32 2.22
-1 -2 9 28.04 2.33
-1 -2 9 28.73 2.34
1 2 -9 31.15 2.32
1 2 -9 31.18 2.41
1 2 -9 31.9 2.38
1 2 -9 32.87 2.31
-1 -1 9 56.82 3.58
-1 -1 9 53.93 3.71
-1 -1 9 54.5 3.45
-1 -1 9 55.21 3.6
1 1 -9 58.1 3.57
1 1 -9 55.75 3.69
1 1 -9 56.61 3.48
1 1 -9 56.35 3.5
1 1 -9 58.18 3.71
-1 0 9 138.14 7.83
-1 0 9 140.09 8.26
-1 0 9 136.16 8.03
-1 0 9 141.42 7.88
1 0 -9 132.94 7.83
1 0 -9 133.55 7.72
1 0 -9 142.07 7.84
1 0 -9 142.72 8.25
1 0 -9 145.49 8.1
-1 1 9 56.72 3.72
-1 1 9 59.62 3.71
-1 1 9 58.76 3.55
-1 1 9 57.69 3.73
1 -1 -9 57.81 3.61
1 -1 -9 53.77 3.7
1 -1 -9 52.74 3.48
1 -1 -9 56.91 3.51
1 -1 -9 57.56 3.65
-1 2 9 31.16 2.49
-1 2 9 32.02 2.28
-1 2 9 32.2 2.46
1 -2 -9 27.64 2.23
1 -2 -9 27.76 2.32
1 -2 -9 31.34 2.41
-1 3 9 4.76 1.27
-1 3 9 4.67 1.22
1 -3 -9 3.92 1.12
1 -3 -9 3.04 1.13
1 -3 -9 3.72 1.17
-1 4 9 8.23 1.67
-1 4 9 8.05 1.55
1 -4 -9 9.26 1.58
-1 5 9 2.02 1.61
-1 5 9 1.21 1.47
1 -5 -9 0.27 1.39
0 -5 9 13.68 1.99
0 5 -9 13.09 2.11
0 5 -9 13.38 1.78
0 -4 9 28.18 2.48
0 4 -9 27.38 2.37
0 4 -9 29.27 2.7
0 -3 9 48.64 3.2
0 -3 9 49.58 3.32
0 -3 9 47.73 3.26
0 3 -9 39.52 3.2
0 3 -9 40.19 3.05
0 -2 9 48.17 3.37
0 -2 9 49.08 3.54
0 -2 9 50.9 3.46
0 2 -9 56.87 3.61
0 2 -9 55.7 3.42
0 2 -9 54.26 3.49
0 2 -9 58.07 3.49
0 -1 9 49.41 3.11
0 -1 9 53.48 3.33
0 -1 9 53.88 3.21
0 -1 9 52.42 3.04
0 1 -9 42.46 3.11
0 1 -9 43.84 3.04
0 1 -9 43.74 2.97
0 1 -9 40.72 3.14
0 1 -9 40.83 3.15
0 0 9 12.55 1.56
0 0 9 11.66 1.45
0 0 9 11.63 1.56
0 0 9 10.36 1.33
0 0 -9 11.86 1.42
0 0 -9 12.75 1.46
0 0 -9 12.4 1.59
0 0 -9 11.99 1.39
0 0 -9 11.46 1.37
0 1 9 43.19 3.29
0 1 9 43.89 3.12
0 1 9 41.47 3.3
0 1 9 44.72 3.31
0 -1 -9 55.26 3.33
0 -1 -9 52.73 3.14
0 -1 -9 49.83 3.31
0 -1 -9 56.82 3.28
0 -1 -9 52.98 3.14
0 2 9 58.19 3.46
0 2 9 54.2 3.6
0 2 9 54.93 3.51
0 -2 -9 51.57 3.41
0 -2 -9 50.72 3.39
0 -2 -9 48.85 3.48
0 -2 -9 52.07 3.5
0 3 9 40 3.26
0 3 9 42.71 3.16
0 -3 -9 47.79 3.13
0 -3 -9 44.27 3.19
0 -3 -9 45.21 3.18
0 4 9 30.04 2.8
0 4 9 27.96 2.52
0 -4 -9 25.93 2.49
0 5 9 14.57 2.12
0 -5 -9 17.15 2.17
1 -5 9 5.98 1.73
-1 5 -9 6.2 1.78
-1 5 -9 7.26 1.37
1 -4 9 31.14 2.66
1 -4 9 27.98 2.46
-1 4 -9 22.79 2.63
-1 4 -9 24.14 2.19
1 -3 9 28.93 2.58
1 -3 9 33.82 2.83
-1 3 -9 38.22 2.57
-1 3 -9 37.69 2.81
-1 3 -9 34.19 2.72
1 -2 9 13.71 1.56
1 -2 9 12.2 1.66
1 -2 9 12.37 1.5
-1 2 -9 13.95 1.7
-1 2 -9 14.04 1.49
-1 2 -9 14.85 1.76
1 -1 9 12.6 1.61
1 -1 9 13.87 1.69
1 -1 9 14.27 1.62
1 -1 9 10.53 1.39
-1 1 -9 12.96 1.37
-1 1 -9 13.4 1.59
-1 1 -9 12.55 1.65
-1 1 -9 13.36 1.65
1 0 9 16.71 1.81
1 0 9 16.16 1.81
1 0 9 19.19 1.8
1 0 9 15.99 1.69
1 0 9 18.13 1.87
-1 0 -9 18.67 1.68
-1 0 -9 16.33 1.76
-1 0 -9 17.71 1.77
-1 0 -9 16.27 1.53
1 1 9 14.07 1.68
1 1 9 14.17 1.58
1 1 9 14.85 1.8
1 1 9 14.85 1.86
-1 -1 -9 12.13 1.49
-1 -1 -9 12.41 1.49
-1 -1 -9 12.43 1.56
-1 -1 -9 12.76 1.49
1 2 9 14.21 1.92
1 2 9 14.27 1.73
1 2 9 14.8 1.89
-1 -2 -9 14.55 1.63
-1 -2 -9 14.58 1.67
-1 -2 -9 13.72 1.78
-1 -2 -9 13.43 1.7
1 3 9 40.52 3.08
1 3 9 38.8 3.11
1 3 9 36.57 2.8
-1 -3 -9 35.54 2.74
-1 -3 -9 32.48 2.81
1 4 9 23.34 2.52
-1 -4 -9 30.8 2.52
-1 -4 -9 30.62 2.77
1 5 9 7.67 1.8
-1 -5 -9 5 1.56
2 -5 9 23.96 2.67
-2 5 -9 24.04 2.15
-2 5 -9 22.56 2.7
2 -4 9 10.8 1.81
2 -4 9 11.31 1.73
-2 4 -9 9.1 1.26
-2 4 -9 8.44 1.76
2 -3 9 13.8 1.62
2 -3 9 13.16 1.66
-2 3 -9 8.94 1.17
-2 3 -9 8.25 1.4
-2 3 -9 7.72 1.51
2 -2 9 6.46 1.41
2 -2 9 8.84 1.31
2 -2 9 7.73 1.3
2 -2 9 7.62 1.18
-2 2 -9 3.86 1.17
-2 2 -9 3.81 0.86
-2 2 -9 3.43 1.06
2 -1 9 26.11 1.97
2 -1 9 26.4 2.18
2 -1 9 25.54 2.25
2 -1 9 24.68 2.09
-2 1 -9 17.27 2.04
-2 1 -9 22.12 1.76
-2 1 -9 21.54 2
2 0 9 27.84 2.34
2 0 9 26.83 2.27
2 0 9 26.01 2.19
2 0 9 26.32 2.34
2 0 9 25.37 2.09
-2 0 -9 26.9 2.18
-2 0 -9 26.92 2.12
-2 0 -9 26.16 2.19
2 1 9 24.39 2.32
2 1 9 17.7 2.11
2 1 9 22.12 2.03
2 1 9 22.78 2.25
-2 -1 -9 25.81 2.25
-2 -1 -9 24.57 1.89
-2 -1 -9 27.28 2.06
-2 -1 -9 26.09 2.13
2 2 9 3.24 1.17
2 2 9 5.41 1.3
-2 -2 -9 6.94 1.33
-2 -2 -9 7.85 1.2
-2 -2 -9 8.91 1.17
2 3 9 8.24 1.63
-2 -3 -9 13.88 1.74
-2 -3 -9 13.92 1.76
2 4 9 9.18 1.8
-2 -4 -9 14.24 1.78
-2 -4 -9 11.88 1.89
2 5 9 25.6 2.71
-2 -5 -9 22.96 2.48
3 -5 9 4.68 1.76
-3 5 -9 2.7 1.65
3 -4 9 20.02 2.29
3 -4 9 17.7 2.32
-3 4 -9 19.34 2.4
3 -3 9 34.21 2.58
3 -3 9 33.71 2.68
-3 3 -9 28.46 2
-3 3 -9 30.06 2.67
-3 3 -9 26.96 2.61
3 -2 9 55.64 3.99
3 -2 9 56.98 3.86
3 -2 9 58.76 3.7
3 -2 9 64.55 3.97
-3 2 -9 54.86 3.32
-3 2 -9 52.19 3.75
-3 2 -9 55.52 3.75
3 -1 9 44.56 2.74
3 -1 9 46.51 3.08
3 -1 9 41.77 3.06
-3 1 -9 36.58 2.76
-3 1 -9 31.92 2.82
-3 1 -9 35.56 2.42
3 0 9 67.71 4.38
3 0 9 65.87 4.04
3 0 9 64.51 4.3
-3 0 -9 63.54 3.79
-3 0 -9 65.33 4.05
-3 0 -9 64.28 4.1
3 1 9 35.2 3.09
3 1 9 36.97 2.89
-3 -1 -9 45.25 2.69
-3 -1 -9 43.91 3.01
-3 -1 -9 47.51 2.97
3 2 9 57.96 4.18
3 2 9 56.09 3.98
-3 -2 -9 61.45 3.95
-3 -2 -9 68.8 3.84
-3 -2 -9 62.61 4.06
3 3 9 29.6 2.67
3 3 9 32.64 2.97
-3 -3 -9 32.75 2.47
-3 -3 -9 32.57 2.74
3 4 9 18.77 2.31
-3 -4 -9 17.92 2.36
-3 -4 -9 19.19 2.1
3 5 9 5.18 1.89
-3 -5 -9 4.29 1.47
4 -4 9 6.22 1.62
-4 4 -9 5.42 1.64
4 -3 9 10.03 1.67
-4 3 -9 11.11 1.73
-4 3 -9 11.35 1.66
4 -2 9 0.42 1.11
4 -2 9 -0.64 1.2
-4 2 -9 0.44 1.08
-4 2 -9 0.01 1
4 -1 9 117.39 7.22
4 -1 9 111.86 7.4
-4 1 -9 118.69 6.98
-4 1 -9 131.03 6.96
4 0 9 15.54 2.02
4 0 9 20.18 2.15
-4 0 -9 19.02 1.92
-4 0 -9 17.12 1.86
4 1 9 131.64 7.41
4 1 9 126.64 7.11
4 1 9 111.71 7.54
-4 -1 -9 122.83 7.05
-4 -1 -9 119.22 7.12
4 2 9 -0.19 1.19
4 2 9 0.2 1.06
-4 -2 -9 0.08 0.95
-4 -2 -9 -0.27 0.69
-4 -2 -9 0.13 1.15
4 3 9 12.54 1.75
4 3 9 12.87 1.91
-4 -3 -9 10.12 1.36
-4 -3 -9 13.5 1.84
4 4 9 5.79 1.67
4 4 9 3 1.56
-4 -4 -9 4.48 1.24
-4 -4 -9 6.19 1.71
5 -4 9 7.44 1.78
-5 4 -9 11.62 1.9
-5 4 -9 12.72 1.95
5 -3 9 19.2 2.24
-5 3 -9 17.32 2.3
-5 3 -9 19.55 2.2
5 -2 9 20.11 2.33
-5 2 -9 22.48 2.25
-5 2 -9 21.81 2.14
5 -1 9 8.92 1.49
5 -1 9 5.08 1.5
-5 1 -9 5.86 1.28
-5 1 -9 4.58 1.15
5 0 9 21.92 2.35
5 0 9 21.26 2.27
-5 0 -9 22.21 2.08
-5 0 -9 21.07 2.07
5 1 9 6.12 1.43
5 1 9 4.92 1.48
-5 -1 -9 7.54 1.43
-5 -1 -9 8.65 1.32
5 2 9 24.88 2.52
-5 -2 -9 20.84 2.16
-5 -2 -9 20.6 2.3
5 3 9 20.44 2.34
5 3 9 20.56 2.65
-5 -3 -9 19.96 2.27
-5 -3 -9 22.21 2.42
5 4 9 12.5 2.03
5 4 9 12.84 2.15
-5 -4 -9 7.36 1.87
6 -4 9 2.73 1.54
-6 4 -9 1.76 1.48
-6 4 -9 2.14 1.45
-6 3 -9 10.52 1.76
-6 3 -9 11.68 1.71
6 -2 9 12.66 1.99
6 -2 9 13.23 1.76
-6 2 -9 8.97 1.63
-6 2 -9 11.26 1.59
6 -1 9 50.43 3.78
-6 1 -9 51.62 3.59
-6 1 -9 58.58 3.63
6 0 9 24.24 2.34
6 0 9 22.78 2.49
-6 0 -9 22.93 2.21
-6 0 -9 25.15 2.2
6 1 9 58.15 3.84
6 1 9 49.85 3.86
-6 -1 -9 50.78 3.54
-6 -1 -9 49.51 3.63
6 2 9 12.16 1.87
-6 -2 -9 13.17 1.7
-6 -2 -9 14.09 1.87
6 3 9 8.9 1.8
-6 -3 -9 6.63 1.67
-6 -3 -9 5.48 1.51
6 4 9 1.79 1.65
-6 -4 -9 -0.11 1.57
7 -3 9 0.49 1.31
-7 3 -9 -0.43 1.24
-7 3 -9 0.71 1.23
7 -2 9 37.07 3.43
7 -2 9 39.4 3.14
7 -2 9 42.32 3.22
-7 2 -9 42.44 3.02
-7 2 -9 37.97 3.13
7 -1 9 7.73 1.84
7 -1 9 10.88 1.69
-7 1 -9 10 1.5
-7 1 -9 9.17 1.46
7 0 9 34.27 2.83
7 0 9 33.14 3.02
-7 0 -9 34.39 2.66
-7 0 -9 32.84 2.69
7 1 9 9.32 1.81
7 1 9 10.09 1.74
-7 -1 -9 9.55 1.52
-7 -1 -9 12.18 1.67
7 2 9 42.57 3.6
-7 -2 -9 40.75 3.29
-7 -2 -9 44.69 3.26
7 3 9 1.22 1.42
-7 -3 -9 -0.6 1.3
-7 -3 -9 0.15 1.51
8 -3 9 8.23 1.71
-8 3 -9 7.99 1.74
-8 3 -9 9.61 1.57
8 -2 9 9.1 2.02
8 -2 9 10.42 1.73
-8 2 -9 11.83 1.76
-8 2 -9 11.58 1.63
8 -1 9 20.35 2.29
8 -1 9 18.02 2.48
-8 1 -9 22.21 2.25
-8 1 -9 23.67 2.18
8 0 9 7.69 1.74
8 0 9 5.49 1.43
-8 0 -9 7.53 1.42
-8 0 -9 6.18 1.35
8 1 9 23.83 2.65
8 1 9 22.51 2.61
-8 -1 -9 23.55 2.32
-8 -1 -9 23.6 2.34
8 2 9 11.81 1.96
-8 -2 -9 11.13 1.88
-8 -2 -9 12.14 1.81
8 3 9 8.54 1.98
-8 -3 -9 8.26 1.78
-8 -3 -9 6.53 1.86
9 -2 9 5.28 1.95
9 -2 9 8.23 1.63
-9 2 -9 9.35 1.55
-9 2 -9 10.84 1.72
9 -1 9 23.86 2.43
-9 1 -9 26.99 2.46
-9 1 -9 28.46 2.4
9 0 9 6.59 1.49
9 0 9 3.67 1.66
-9 0 -9 6.61 1.42
-9 0 -9 6.24 1.43
9 1 9 24.51 2.75
9 1 9 27.9 2.84
-9 -1 -9 23.62 2.38
-9 -1 -9 24.14 2.46
9 2 9 7.79 1.9
-9 -2 -9 8.3 1.78
-9 -2 -9 7.63 1.61
10 0 9 4.35 1.75
10 0 9 3.26 1.41
-10 0 -9 3.94 1.37
-10 0 -9 3.87 1.31
-13 -1 10 4.32 1.59
-13 0 10 3.77 1.58
-13 1 10 2.56 1.56
-12 -2 10 3.33 1.12
-12 -2 10 3.35 1.1
12 2 -10 4.67 1.27
-12 -1 10 1.67 1.36
12 1 -10 0.16 0.89
12 1 -10 1.28 1.01
-12 0 10 24.89 2.7
12 0 -10 24.41 1.96
12 0 -10 22.5 1.88
-12 1 10 1.45 1.39
-12 2 10 3.78 1.63
12 -2 -10 4.11 1.15
12 -2 -10 5.77 1.06
-11 -3 10 22.08 2.2
-11 -3 10 21.43 2.21
11 3 -10 17.68 2.41
-11 -2 10 11.43 1.38
11 2 -10 7.73 1.46
-11 -1 10 5.28 1.48
11 1 -10 5.23 1.11
11 1 -10 2.95 1.29
-11 0 10 3.19 1.37
11 0 -10 3.83 0.94
11 0 -10 4.53 0.95
11 0 -10 4.81 1.03
-11 1 10 4.78 1.52
11 -1 -10 3.4 1.06
11 -1 -10 5.58 1.01
-11 2 10 7.82 1.8
11 -2 -10 9.53 1.33
11 -2 -10 10.47 1.42
11 -2 -10 10.63 1.32
-11 3 10 18.09 2.55
11 -3 -10 20.59 1.99
11 -3 -10 19.93 1.97
-10 -3 10 0.8 1.17
-10 -3 10 0.71 1.13
10 3 -10 0.35 1.25
-10 -2 10 2.69 1.1
-10 -2 10 4.27 1.32
10 2 -10 4.19 1.2
-10 -1 10 17.97 2.27
-10 -1 10 18.57 1.71
10 1 -10 14.03 1.95
10 1 -10 19.61 1.85
-10 0 10 0.41 1.13
-10 0 10 0.25 0.72
10 0 -10 0.29 0.95
10 0 -10 0.58 0.85
10 0 -10 0.05 0.75
-10 1 10 16.95 2.27
10 -1 -10 14.48 1.73
10 -1 -10 17.22 1.65
10 -1 -10 19.98 1.75
-10 2 10 3.73 1.47
-10 2 10 3.54 1.14
10 -2 -10 3.37 1.02
10 -2 -10 3.56 1.07
10 -2 -10 3.25 0.97
-10 3 10 2.17 1.19
-10 3 10 0.91 1.42
10 -3 -10 0.74 0.99
10 -3 -10 1 1.02
-9 -4 10 12.64 1.96
-9 -4 10 18.65 2.21
9 4 -10 18.64 2.38
-9 -3 10 7.74 1.41
-9 -3 10 9.68 1.53
9 3 -10 7.11 1.57
-9 -2 10 17.68 2.15
-9 -2 10 15.07 1.83
9 2 -10 17.71 1.96
9 1 -10 8.12 1.3
9 1 -10 7.16 1.19
-9 0 10 1.37 0.77
9 0 -10 1.85 1.02
9 0 -10 0.92 0.86
9 0 -10 1.38 0.8
9 -1 -10 2.38 1.02
9 -1 -10 2.79 0.95
9 -1 -10 1.9 0.98
-9 2 10 17.38 2.01
9 -2 -10 17.72 1.74
9 -2 -10 16.76 1.81
9 -2 -10 17.67 1.77
-9 3 10 5.97 1.68
-9 3 10 6.98 1.36
9 -3 -10 9.19 1.43
9 -3 -10 9.96 1.39
-9 4 10 19.42 2.12
-9 4 10 15.48 2.31
9 -4 -10 13.68 1.91
-8 -4 10 5.89 1.58
-8 -4 10 8.13 1.63
8 4 -10 7.75 1.81
-8 -3 10 10.55 1.58
-8 -3 10 6.67 1.37
8 3 -10 9.68 1.67
-8 -2 10 36.41 2.6
8 2 -10 29.94 2.62
-8 -1 10 34.89 2.5
8 1 -10 39.14 2.68
8 1 -10 34.4 2.66
-8 0 10 20.09 1.71
8 0 -10 19.95 1.77
8 0 -10 19.26 1.82
8 0 -10 18.92 1.92
-8 1 10 37.03 2.47
8 -1 -10 30.34 2.57
8 -1 -10 33.35 2.54
8 -1 -10 35.15 2.56
-8 2 10 29.4 2.56
8 -2 -10 33.67 2.55
8 -2 -10 33.4 2.53
8 -2 -10 33.8 2.43
-8 3 10 8.34 1.4
8 -3 -10 7.68 1.36
8 -3 -10 8.54 1.43
-8 4 10 6.62 1.75
-8 4 10 7.53 1.58
8 -4 -10 7.62 1.56
-7 -4 10 7.04 1.65
7 4 -10 13.2 1.99
-7 -3 10 4.81 1.27
-7 -3 10 6.36 1.43
7 3 -10 10.65 1.62
-7 -2 10 43.96 3
7 2 -10 39.95 3.08
-7 -1 10 101.21 6.11
7 1 -10 115.51 6.38
7 1 -10 104.9 6.53
-7 0 10 140.35 7.61
7 0 -10 134.33 8.05
7 0 -10 136.16 7.89
7 0 -10 133.05 8.12
7 -1 -10 93.66 6.02
7 -1 -10 96.95 5.97
7 -1 -10 103.49 5.87
-7 2 10 38.05 2.94
-7 2 10 41.35 2.95
7 -2 -10 42.2 3
7 -2 -10 43.68 2.89
7 -2 -10 42.01 2.99
-7 3 10 8.31 1.37
7 -3 -10 6.11 1.29
7 -3 -10 6.96 1.36
-7 4 10 10.73 1.84
-7 4 10 14 1.83
7 -4 -10 7.39 1.62
-6 -5 10 1.08 1.55
6 5 -10 3.62 1.73
-6 -4 10 22.54 2.5
6 4 -10 26.72 2.71
6 4 -10 25.34 2.59
-6 -3 10 16.57 1.96
6 3 -10 16.46 2.11
6 3 -10 14.92 1.84
-6 -2 10 26.9 2.27
6 2 -10 28.21 2.41
-6 -1 10 29.55 2.35
6 1 -10 32.88 2.52
6 1 -10 35.85 2.59
-6 0 10 0.94 0.82
6 0 -10 2.25 1.03
6 0 -10 2.07 0.85
6 0 -10 2.23 0.92
-6 1 10 33.21 2.59
6 -1 -10 32.63 2.42
6 -1 -10 31.74 2.55
6 -1 -10 32.38 2.45
-6 2 10 27.11 2.19
6 -2 -10 23 2.12
6 -2 -10 24.37 2.15
6 -2 -10 23.73 2.07
-6 3 10 16.34 2.01
6 -3 -10 13.57 1.82
6 -3 -10 14.63 1.85
-6 4 10 29.33 2.54
6 -4 -10 21 2.48
-6 5 10 2.34 1.53
6 -5 -10 1.5 1.56
-5 -5 10 2.36 1.63
-5 -5 10 2.91 1.29
5 5 -10 4.11 1.68
-5 -4 10 28.82 2.58
-5 -4 10 24.35 2.18
5 4 -10 23.81 2.51
5 4 -10 24.06 2.67
-5 -3 10 7.6 1.14
-5 -3 10 5.87 1.4
5 3 -10 13.43 1.64
5 3 -10 9.94 1.59
-5 -2 10 18.62 1.4
-5 -2 10 14.58 1.73
5 2 -10 13.95 1.77
5 2 -10 13.35 1.69
-5 -1 10 69.23 4.1
5 1 -10 70.82 4.14
5 1 -10 60.75 4.36
5 1 -10 67.66 4.29
-5 0 10 5.17 1
5 0 -10 4.87 0.84
5 0 -10 4.55 0.97
5 0 -10 4.8 1.06
5 0 -10 4.21 1.11
-5 1 10 65.17 4.39
5 -1 -10 69.83 4.41
5 -1 -10 69.83 4.32
5 -1 -10 68.45 4.48
5 -1 -10 72.45 4.16
-5 2 10 12.38 1.57
5 -2 -10 18.22 1.71
5 -2 -10 16.41 1.75
-5 3 10 11.74 1.55
5 -3 -10 6.58 1.33
5 -3 -10 5.66 1.35
-5 4 10 28.73 2.7
5 -4 -10 28.99 2.7
-5 5 10 2.85 1.59
5 -5 -10 4.76 1.72
-4 -5 10 14.47 2.15
-4 -5 10 16.4 2.11
4 5 -10 14.5 2.15
-4 -4 10 6.67 1.57
-4 -4 10 3.6 1.23
4 4 -10 3.91 1.45
4 4 -10 4.02 1.44
-4 -3 10 89.82 5.18
-4 -3 10 90.84 5.42
4 3 -10 85.36 5.52
4 3 -10 82.76 5.35
-4 -2 10 24.45 1.84
-4 -2 10 26.33 2.15
4 2 -10 23 2.11
4 2 -10 20.02 2.15
-4 -1 10 37.83 2.43
-4 -1 10 38.36 2.13
4 1 -10 24.47 2.48
4 1 -10 30.79 2.56
4 1 -10 28.96 2.34
4 1 -10 29.12 2.35
-4 0 10 33.74 2.1
-4 0 10 32.6 2.38
-4 0 10 33.74 2.45
4 0 -10 34.27 2.35
4 0 -10 33.61 2.59
4 0 -10 31.29 2.39
4 0 -10 31.66 2.48
4 0 -10 33.6 2.55
-4 1 10 29.92 2.72
-4 1 10 28.71 2.16
4 -1 -10 37.76 2.62
4 -1 -10 38.6 2.61
4 -1 -10 38.11 2.66
4 -1 -10 37.91 2.4
4 -1 -10 36.73 2.58
-4 2 10 21.38 2.13
-4 2 10 23.31 1.65
4 -2 -10 23.16 1.97
4 -2 -10 22.5 2.11
4 -2 -10 23.62 2.04
-4 3 10 89.05 5.17
-4 3 10 94.45 5.6
4 -3 -10 86.89 5.6
4 -3 -10 91.13 5.45
-4 4 10 4.08 1.48
-4 4 10 3.44 0.96
4 -4 -10 5.93 1.43
4 -4 -10 4.29 1.42
-4 5 10 17.55 2.35
4 -5 -10 18.27 2.33
4 -5 -10 16.41 2.3
-3 -5 10 2.15 1.41
3 5 -10 3.26 1.53
-3 -4 10 30.08 2.65
-3 -4 10 29.67 2.41
3 4 -10 22.76 2.46
-3 -3 10 5.54 1.18
-3 -3 10 5.92 1.37
3 3 -10 9.61 1.49
3 3 -10 7.5 1.45
-3 -2 10 32.03 2.32
-3 -2 10 28.97 2.09
3 2 -10 25.38 2.37
3 2 -10 24.93 2.25
3 2 -10 26.9 2.28
-3 -1 10 47.83 2.97
-3 -1 10 46.21 2.76
-3 -1 10 45.49 2.96
3 1 -10 34.45 3.09
3 1 -10 43.13 2.91
3 1 -10 38.92 3.07
3 1 -10 43.65 2.89
-3 0 10 12.07 1.43
-3 0 10 12.16 1.56
-3 0 10 11.99 1.29
3 0 -10 13.02 1.68
3 0 -10 12.82 1.54
3 0 -10 12.57 1.52
3 0 -10 12.28 1.63
3 0 -10 14.22 1.45
-3 1 10 44.49 3.19
-3 1 10 42.32 3.12
-3 1 10 40.66 2.78
3 -1 -10 46.6 2.92
3 -1 -10 48.32 3.08
3 -1 -10 42.64 3.12
3 -1 -10 46.71 3.09
3 -1 -10 46.57 3.17
-3 2 10 28.53 2.45
-3 2 10 23.63 2.11
3 -2 -10 30.59 2.37
3 -2 -10 34.19 2.31
3 -2 -10 31.98 2.46
-3 3 10 9.72 1.55
-3 3 10 8.22 1.27
3 -3 -10 7.62 1.29
3 -3 -10 6.64 1.35
-3 4 10 19.52 2.62
-3 4 10 22.72 2.21
3 -4 -10 29.75 2.44
3 -4 -10 30.57 2.66
-3 5 10 2.32 1.36
-3 5 10 2.98 1.62
3 -5 -10 2.71 1.52
-2 -5 10 6.52 1.66
2 5 -10 9.49 1.73
-2 -4 10 24.46 2.42
-2 -4 10 22.46 2.2
2 4 -10 19.6 2.19
-2 -3 10 21.5 1.99
-2 -3 10 21.86 2.23
2 3 -10 21.2 2.3
2 3 -10 23.02 2.18
2 3 -10 21.33 2.17
-2 -2 10 7.32 1.21
-2 -2 10 6.72 1.14
-2 -2 10 7.63 1.27
2 2 -10 8.24 1.22
2 2 -10 8.76 1.31
2 2 -10 8.91 1.38
-2 -1 10 49.69 3.03
-2 -1 10 51.41 2.84
-2 -1 10 49.48 3.04
2 1 -10 39.06 3.03
2 1 -10 36.89 3.07
2 1 -10 38.51 2.86
2 1 -10 38.24 2.93
-2 0 10 83.86 5.15
-2 0 10 84.22 5.08
-2 0 10 81.55 4.92
2 0 -10 86.55 5.01
2 0 -10 87.74 5.31
2 0 -10 89.59 5.24
2 0 -10 85.53 5.03
2 0 -10 80.03 5.31
-2 1 10 40.2 2.98
-2 1 10 40.08 3.23
-2 1 10 38.91 3.27
2 -1 -10 51.42 3.29
2 -1 -10 51.96 3.24
2 -1 -10 50.9 3.08
2 -1 -10 50.78 3.21
2 -1 -10 51.4 3.3
-2 2 10 8.74 1.34
-2 2 10 9.06 1.24
2 -2 -10 7.52 1.21
2 -2 -10 8.16 1.34
2 -2 -10 7.9 1.17
-2 3 10 24.71 2.15
-2 3 10 24.51 2.45
2 -3 -10 22.53 2.23
2 -3 -10 21.54 2.17
-2 4 10 19.14 2.3
-2 4 10 20.03 2.14
2 -4 -10 23.43 2.29
2 -4 -10 24.32 2.47
-2 5 10 7.44 1.63
-2 5 10 12.55 2.14
2 -5 -10 8.45 1.79
-1 -5 10 11.33 1.86
1 5 -10 7.65 1.65
-1 -4 10 30.62 2.68
1 4 -10 33.04 2.89
1 4 -10 29.56 2.59
-1 -3 10 37.48 2.91
-1 -3 10 39.85 2.88
-1 -3 10 36.77 2.74
1 3 -10 34.29 2.72
1 3 -10 36.63 2.94
-1 -2 10 53.97 3.74
-1 -2 10 55.39 3.59
-1 -2 10 55.05 3.69
1 2 -10 55.73 3.68
1 2 -10 59.04 3.62
1 2 -10 57.06 3.82
-1 -1 10 39.76 2.68
-1 -1 10 41.4 2.67
-1 -1 10 41.79 2.51
1 1 -10 31.83 2.64
1 1 -10 33.14 2.47
1 1 -10 32.64 2.49
1 1 -10 28.87 2.68
1 1 -10 33.29 2.62
-1 0 10 28.65 2.33
-1 0 10 27.83 2.24
-1 0 10 25.65 2.26
-1 0 10 27.29 2.07
1 0 -10 26.19 2.22
1 0 -10 26.73 2.08
1 0 -10 26.67 2.07
1 0 -10 28.72 2.22
1 0 -10 28.53 2.3
-1 1 10 34.35 2.68
-1 1 10 34.64 2.9
-1 1 10 32.71 2.9
1 -1 -10 45.81 2.88
1 -1 -10 41.2 2.87
1 -1 -10 39.97 2.68
1 -1 -10 42.72 2.71
1 -1 -10 40.58 2.87
-1 2 10 62.43 4
-1 2 10 60.63 3.91
-1 2 10 62.34 3.76
1 -2 -10 56.5 3.85
1 -2 -10 55.8 3.73
1 -2 -10 54.83 3.84
-1 3 10 37.9 3.1
-1 3 10 36.17 2.84
1 -3 -10 41.76 3.03
1 -3 -10 42.56 3.01
1 -3 -10 35.33 2.83
-1 4 10 32.21 2.7
-1 4 10 29.1 2.92
1 -4 -10 32.13 2.72
-1 5 10 8.04 1.79
1 -5 -10 11.52 1.92
0 -5 10 7.81 1.82
0 5 -10 8.75 1.57
0 -4 10 8.35 1.57
0 4 -10 5.66 1.62
0 4 -10 6.98 1.4
0 -3 10 62.31 4.18
0 -3 10 63.11 4.39
0 3 -10 68.19 4.16
0 3 -10 67.44 4.33
0 -2 10 4.75 1.17
0 -2 10 3.89 1.1
0 -2 10 4.31 1.15
0 2 -10 4.39 1.02
0 2 -10 3.68 1
0 2 -10 5.81 1.23
0 2 -10 3.08 1.16
0 -1 10 19.52 1.99
0 -1 10 19.95 2.03
0 -1 10 19.08 1.8
0 -1 10 21.45 2
0 1 -10 22.57 1.81
0 1 -10 20.28 2.02
0 1 -10 22.11 1.94
0 1 -10 18.61 2.02
0 0 10 30.18 2.46
0 0 10 29.58 2.47
0 0 10 30.52 2.25
0 0 10 30.57 2.4
0 0 -10 29.29 2.25
0 0 -10 28.86 2.39
0 0 -10 28.91 2.19
0 0 -10 28.99 2.34
0 1 10 20.37 1.91
0 1 10 20.47 2.22
0 1 10 22.41 2.15
0 -1 -10 21.37 2
0 -1 -10 19.5 1.83
0 -1 -10 20.42 2.01
0 -1 -10 20.63 1.88
0 2 10 3.28 1.19
0 2 10 4.29 1.19
0 2 10 4.63 1.23
0 -2 -10 4.98 1.1
0 -2 -10 4.83 1.25
0 -2 -10 4.81 1.15
0 3 10 68.7 4.32
0 3 10 70.2 4.52
0 -3 -10 63.31 4.35
0 -3 -10 65.86 4.32
0 4 10 6.57 1.66
0 4 10 7.38 1.62
0 -4 -10 12.08 1.74
0 5 10 7.84 1.83
0 -5 -10 8.77 1.83
1 -5 10 3.95 1.65
-1 5 -10 4.26 1.78
-1 5 -10 3.72 1.25
1 -4 10 11.72 1.93
1 -4 10 13.35 1.88
-1 4 -10 14.89 2.02
-1 4 -10 13.42 1.72
1 -3 10 32.27 2.6
1 -3 10 32.94 2.74
-1 3 -10 31.51 2.72
-1 3 -10 30.05 2.42
1 -2 10 52.69 3.85
1 -2 10 55.32 3.69
-1 2 -10 57.9 3.8
-1 2 -10 61.25 3.85
-1 2 -10 59.44 3.63
1 -1 10 14.94 1.6
1 -1 10 14.28 1.77
1 -1 10 15.87 1.85
1 -1 10 14.23 1.81
-1 1 -10 12.71 1.56
-1 1 -10 15.52 1.49
-1 1 -10 14.9 1.71
-1 1 -10 10.69 1.58
1 0 10 82.35 5.12
1 0 10 81.22 4.86
1 0 10 76.49 4.79
1 0 10 78.97 5
-1 0 -10 79.31 4.94
-1 0 -10 78.96 4.83
-1 0 -10 80.54 4.71
-1 0 -10 78.75 4.75
1 1 10 13.69 1.63
1 1 10 12.15 1.75
1 1 10 14.92 1.96
-1 -1 -10 15.4 1.83
-1 -1 -10 16.15 1.72
-1 -1 -10 17.98 1.91
-1 -1 -10 15.07 1.59
1 2 10 60.37 4.09
1 2 10 60.45 3.98
1 2 10 62.14 3.86
-1 -2 -10 56.62 3.91
-1 -2 -10 55.12 3.77
1 3 10 30.09 2.73
1 3 10 31.52 2.98
-1 -3 -10 36.23 2.65
-1 -3 -10 34.96 2.8
1 4 10 16.27 2.04
-1 -4 -10 12.56 1.85
1 5 10 3.13 1.74
-1 -5 -10 3.37 1.58
2 -5 10 8.2 1.95
-2 5 -10 7.58 1.97
-2 5 -10 9.81 1.44
2 -4 10 2.06 1.41
2 -4 10 2.3 1.49
-2 4 -10 2.46 1.46
-2 4 -10 2.77 1.03
2 -3 10 16.62 2
2 -3 10 17.01 2.12
-2 3 -10 17.7 1.68
-2 3 -10 17.24 2.15
-2 3 -10 19.41 2.22
2 -2 10 36.19 2.79
2 -2 10 37.07 3.06
2 -2 10 38.73 3
-2 2 -10 43.42 3.03
-2 2 -10 41.06 2.64
-2 2 -10 40.62 2.95
2 -1 10 76.71 4.55
2 -1 10 70.43 4.76
2 -1 10 69.53 4.9
-2 1 -10 77.42 4.37
-2 1 -10 66.55 4.59
-2 1 -10 81.27 4.59
2 0 10 23.54 2.34
2 0 10 23.94 2.09
2 0 10 22.95 2.24
2 0 10 26.61 2.24
-2 0 -10 27.79 2.19
-2 0 -10 23.34 1.88
-2 0 -10 22.44 2.07
2 1 10 81.16 4.82
2 1 10 80.44 5.06
2 1 10 79.96 5.03
-2 -1 -10 71.96 4.83
-2 -1 -10 76.87 4.68
-2 -1 -10 81.98 4.81
2 2 10 45.95 3.31
2 2 10 43.34 3.04
-2 -2 -10 39.28 3.07
-2 -2 -10 38.38 2.87
-2 -2 -10 39.49 2.99
2 3 10 21.53 2.5
2 3 10 21.24 2.16
-2 -3 -10 17.7 2.21
-2 -3 -10 18.18 2.06
2 4 10 2.66 1.54
-2 -4 -10 3.18 1.54
-2 -4 -10 3.53 1.37
2 5 10 8.08 1.94
-2 -5 -10 6.72 1.63
3 -4 10 15.87 2.25
3 -4 10 18.49 2.28
-3 4 -10 19.38 2.35
3 -3 10 6.83 1.6
3 -3 10 9.44 1.67
-3 3 -10 12.4 1.8
-3 3 -10 11.56 1.67
3 -2 10 38.52 3.14
3 -2 10 36.63 2.94
-3 2 -10 43.58 3.13
-3 2 -10 41.74 2.53
-3 2 -10 41.24 3.06
3 -1 10 11.75 1.53
3 -1 10 11.06 1.67
3 -1 10 15.18 2.02
-3 1 -10 12.87 1.52
-3 1 -10 13 1.69
-3 1 -10 14.49 1.26
3 0 10 7.97 1.42
3 0 10 10.04 1.62
3 0 10 7.24 1.36
-3 0 -10 7.49 1.25
-3 0 -10 8.55 0.95
-3 0 -10 8.66 1.39
3 1 10 15.84 2.02
3 1 10 16.35 1.79
-3 -1 -10 12.07 1.64
-3 -1 -10 11.78 1.4
-3 -1 -10 11.84 1.52
3 2 10 45.51 3.39
3 2 10 40.34 3.09
-3 -2 -10 39.63 3.05
-3 -2 -10 45.17 3.23
-3 -2 -10 41.42 2.87
3 3 10 11.94 1.81
3 3 10 11.82 1.91
-3 -3 -10 12.2 1.85
-3 -3 -10 9.52 1.5
3 4 10 20.31 2.43
-3 -4 -10 17.32 2.12
-3 -4 -10 17.55 2.32
4 -4 10 6.37 1.74
-4 4 -10 9.44 1.81
4 -3 10 16.37 2.1
-4 3 -10 16.02 2.06
-4 3 -10 18.38 2.27
4 -2 10 19.59 2.31
-4 2 -10 17.46 2.1
-4 2 -10 17.91 2.19
4 -1 10 32.45 2.77
4 -1 10 26.95 2.78
-4 1 -10 30.89 2.61
-4 1 -10 32.13 2.55
4 0 10 3.95 1.42
4 0 10 3.48 1.26
4 0 10 2.27 1.2
-4 0 -10 4.08 1.2
-4 0 -10 3.24 1.09
4 1 10 32.87 2.87
4 1 10 35.06 2.65
-4 -1 -10 32.8 2.61
-4 -1 -10 30.93 2.7
4 2 10 15.15 2.04
4 2 10 20.52 2.49
-4 -2 -10 19.25 2.18
-4 -2 -10 17.67 1.59
-4 -2 -10 17.97 2.1
4 3 10 16.46 2.12
4 3 10 18.99 2.28
-4 -3 -10 16.72 2.18
-4 -3 -10 18.51 1.82
4 4 10 11.57 2.02
-4 -4 -10 8.21 1.91
-4 -4 -10 10.22 1.52
5 -4 10 25.61 2.87
-5 4 -10 27.93 2.8
5 -3 10 1.45 1.4
-5 3 -10 4.53 1.5
-5 3 -10 2.41 1.33
5 -2 10 58.09 3.92
-5 2 -10 48.32 3.71
-5 2 -10 51.72 3.65
5 -1 10 31.07 2.79
5 -1 10 26.7 2.87
-5 1 -10 34.38 2.62
-5 1 -10 32.14 2.65
5 0 10 6.89 1.46
5 0 10 8.93 1.68
-5 0 -10 6.48 1.37
-5 0 -10 7.19 1.32
5 1 10 36.68 2.98
-5 -1 -10 30.52 2.73
-5 -1 -10 29.29 2.6
5 2 10 58.09 4.33
-5 -2 -10 60.56 4.02
-5 -2 -10 59.53 4.11
5 3 10 2.98 1.61
5 3 10 1.24 1.4
-5 -3 -10 2.06 1.55
5 4 10 27.59 2.95
5 4 10 30.76 3.31
-5 -4 -10 29.17 3.02
6 -3 10 15.18 2.02
-6 3 -10 10.32 1.86
-6 3 -10 13.81 1.93
6 -2 10 12.61 1.84
-6 2 -10 10.29 1.61
-6 2 -10 9.41 1.67
6 -1 10 12.87 1.8
6 -1 10 5.7 1.73
-6 1 -10 10.03 1.57
-6 1 -10 10.13 1.52
6 0 10 0.9 1.22
6 0 10 4.66 1.56
-6 0 -10 1.79 1.17
-6 0 -10 1.91 1.13
6 1 10 11.54 1.84
-6 -1 -10 11.82 1.75
-6 -1 -10 11.82 1.65
6 2 10 11.14 1.88
-6 -2 -10 10.87 1.81
-6 -2 -10 11.09 1.67
6 3 10 12.34 2.16
-6 -3 -10 19.32 2.37
7 -3 10 1.33 1.44
-7 3 -10 0.42 1.33
-7 3 -10 0.3 1.37
7 -2 10 26.14 2.6
7 -2 10 27.92 2.53
-7 2 -10 18.94 2.25
-7 2 -10 21.43 2.47
7 -1 10 1.02 1.35
7 -1 10 2.39 1.69
-7 1 -10 1.39 1.18
-7 1 -10 3.23 1.28
7 0 10 5.07 1.49
7 0 10 8.7 1.84
-7 0 -10 7.62 1.46
-7 0 -10 8.43 1.52
7 1 10 2.53 1.49
-7 -1 -10 3.58 1.31
-7 -1 -10 3 1.34
7 2 10 22.46 2.96
-7 -2 -10 29.79 2.68
-7 -2 -10 28.5 2.71
7 3 10 -0.13 1.49
-7 -3 -10 0.92 1.64
8 -2 10 4.23 1.48
-8 2 -10 2.35 1.34
-8 2 -10 3.12 1.39
8 -1 10 20.35 2.63
8 -1 10 21.97 2.33
-8 1 -10 18.24 2.23
-8 1 -10 18.65 2.14
8 0 10 7.65 1.57
8 0 10 5.62 1.82
-8 0 -10 6.55 1.43
-8 0 -10 6.68 1.48
8 1 10 20.65 2.77
-8 -1 -10 25.06 2.45
-8 -1 -10 23.65 2.4
8 2 10 1.13 1.53
-8 -2 -10 5.04 1.58
-8 -2 -10 3.95 1.63
9 -1 10 0.89 1.27
-9 1 -10 0.28 1.25
-9 1 -10 -0.41 1.21
9 0 10 27.24 2.73
-9 0 -10 28.04 2.64
-9 0 -10 29.49 2.59
9 1 10 -1.01 1.47
-9 -1 -10 -0.09 1.26
-9 -1 -10 0.87 1.32
-13 -1 11 0.53 1.41
13 1 -11 1.71 1.09
-13 0 11 1.48 1.44
-13 1 11 1.22 1.46
-12 -2 11 6.28 1.25
12 2 -11 5.01 1.39
-12 -1 11 32.31 3.12
-12 0 11 9.02 1.91
12 0 -11 11.36 1.38
12 0 -11 11.46 1.42
12 0 -11 11.78 1.46
-12 1 11 35.32 3.24
12 -1 -11 32.85 2.38
12 -1 -11 27.57 2.44
-12 2 11 5.99 1.75
12 -2 -11 5.49 1.12
12 -2 -11 5.69 1.27
12 -2 -11 5.71 1.3
-11 -3 11 1.11 1.21
-11 -3 11 -0.03 1.2
11 3 -11 2.16 1.4
-11 -2 11 27.28 2.32
-11 -1 11 20.99 2.52
-11 -1 11 23.83 2
11 1 -11 20.6 2.37
11 1 -11 29.12 2.21
-11 0 11 9.03 1.76
11 0 -11 11.93 1.45
11 0 -11 11.34 1.49
11 0 -11 8.85 1.36
-11 1 11 24.13 2.58
11 -1 -11 19.63 1.86
11 -1 -11 16.78 1.96
11 -1 -11 21.08 1.88
-11 2 11 21.84 2.71
11 -2 -11 23.86 2.23
11 -2 -11 25.9 2.2
11 -2 -11 24.83 2.1
-11 3 11 2.17 1.32
-11 3 11 1.21 1.54
11 -3 -11 0.53 1.06
11 -3 -11 0.2 1.09
-10 -3 11 3.39 1.27
-10 -3 11 3.51 1.3
10 3 -11 3.94 1.46
-10 -2 11 19.14 1.95
-10 -2 11 18.07 2.29
10 2 -11 17.01 2.07
-10 -1 11 27 2.87
-10 -1 11 30.05 2.34
10 1 -11 30.56 2.58
10 1 -11 35.21 2.52
-10 0 11 59.51 3.6
10 0 -11 58.9 3.9
-10 1 11 33.03 2.11
10 -1 -11 26.28 2.25
10 -1 -11 29.14 2.3
10 -1 -11 22.41 2.32
-10 2 11 19.45 2.01
-10 2 11 18.19 2.46
10 -2 -11 18.62 1.97
10 -2 -11 18.16 1.87
10 -2 -11 18.45 1.9
-10 3 11 3.55 1.64
-10 3 11 4.42 1.38
10 -3 -11 3.98 1.18
10 -3 -11 3.16 1.2
-9 -4 11 12.3 1.96
-9 -4 11 12.21 1.88
9 4 -11 11.22 2.05
-9 -3 11 1.53 1.21
-9 -3 11 1.74 1.27
9 3 -11 1.71 1.35
-9 -2 11 7.11 1.3
9 2 -11 4.18 1.27
-9 -1 11 41.6 2.82
9 1 -11 43.85 3.02
9 1 -11 38.58 3.02
-9 0 11 22.82 1.87
9 0 -11 22.24 2.02
9 0 -11 24.17 2.06
9 0 -11 21.89 2.15
-9 1 11 41.22 2.76
9 -1 -11 42.4 3.01
9 -1 -11 38.73 2.96
-9 2 11 3.68 1.33
9 -2 -11 6.46 1.23
9 -2 -11 5.74 1.21
-9 3 11 2.3 1.22
-9 3 11 1.98 1.44
9 -3 -11 1.42 1.1
9 -3 -11 1.84 1.11
-9 4 11 11.58 1.77
-9 4 11 8.34 1.93
9 -4 -11 12.34 1.77
-8 -4 11 5.43 1.57
8 4 -11 4.86 1.64
-8 -3 11 37.08 2.85
8 3 -11 30.33 2.93
-8 -2 11 9.99 1.44
8 2 -11 8.91 1.51
-8 -1 11 3.44 0.96
8 1 -11 0.16 0.98
8 1 -11 0.39 1.04
-8 0 11 -0.24 0.84
8 0 -11 0.9 1.07
8 0 -11 -0.17 0.89
8 0 -11 0.04 0.82
-8 1 11 1.91 0.97
8 -1 -11 2.96 1.11
8 -1 -11 3.12 1.09
8 -1 -11 2.83 1.12
-8 2 11 7.52 1.46
8 -2 -11 8.75 1.33
8 -2 -11 7.41 1.32
-8 3 11 34.85 2.83
8 -3 -11 37.04 2.84
8 -3 -11 35.82 2.89
-8 4 11 6.03 1.5
-8 4 11 4.31 1.68
8 -4 -11 3.72 1.43
-7 -4 11 38.69 3.12
7 4 -11 32.21 3.23
-7 -3 11 7.79 1.47
-7 -3 11 5.57 1.39
7 3 -11 4.78 1.39
-7 -2 11 3.76 1.14
7 2 -11 6.57 1.34
-7 -1 11 11.31 1.36
7 1 -11 10.09 1.49
7 1 -11 11.68 1.44
-7 0 11 16.64 1.73
7 0 -11 16.15 1.85
7 0 -11 16.84 1.87
7 0 -11 15.98 1.71
-7 1 11 12.21 1.51
7 -1 -11 11.1 1.53
7 -1 -11 12.41 1.52
7 -1 -11 11.82 1.59
-7 2 11 5.81 1.32
7 -2 -11 3.03 1.04
7 -2 -11 2.1 1.06
-7 3 11 7.44 1.45
7 -3 -11 7.29 1.39
7 -3 -11 5.64 1.36
-7 4 11 31.18 2.96
7 -4 -11 36.28 3
-6 -4 11 12.3 1.49
-6 -4 11 16.33 2.04
6 4 -11 10.25 1.91
6 4 -11 9.54 1.94
-6 -3 11 34.39 2.96
6 3 -11 38.25 3
6 3 -11 39.27 3.09
-6 -2 11 19.93 1.96
6 2 -11 17.3 2.08
6 2 -11 18.35 2.06
-6 -1 11 26.08 2.08
6 1 -11 23.24 2.22
-6 0 11 11.61 1.36
6 0 -11 11.05 1.36
6 0 -11 9.81 1.49
6 0 -11 9.86 1.39
-6 1 11 23.73 2.39
6 -1 -11 27.07 2.27
6 -1 -11 23.8 2.23
6 -1 -11 28.27 2.38
-6 2 11 18.81 2.09
-6 2 11 17.88 2.04
6 -2 -11 18.33 1.89
6 -2 -11 18.21 1.98
-6 3 11 39.07 3
6 -3 -11 37.84 2.95
-6 4 11 11.42 1.91
6 -4 -11 14.29 1.94
-5 -5 11 4.64 1.36
-5 -5 11 5.55 1.77
5 5 -11 5.23 1.78
-5 -4 11 5.91 1.56
-5 -4 11 4.61 1.19
5 4 -11 2.62 1.54
5 4 -11 1.64 1.41
-5 -3 11 14.03 1.53
-5 -3 11 13.88 1.81
5 3 -11 13.92 1.79
5 3 -11 10.95 1.77
-5 -2 11 23.39 2.28
-5 -2 11 23.01 1.93
5 2 -11 33.65 2.51
5 2 -11 31.74 2.41
-5 -1 11 6.44 1.16
5 1 -11 2.86 1.15
5 1 -11 3.9 1.07
-5 0 11 136.44 7.74
5 0 -11 135.07 8.15
5 0 -11 142.58 8.02
5 0 -11 135.78 7.74
5 0 -11 131.92 8.22
-5 1 11 3.16 1.26
5 -1 -11 7.43 1.01
5 -1 -11 5.04 1.18
5 -1 -11 6.99 1.24
5 -1 -11 6.71 1.22
5 -2 -11 22.79 2.17
5 -2 -11 21.82 2.06
-5 3 11 10.06 1.61
5 -3 -11 12.33 1.62
-5 4 11 2.25 1.48
5 -4 -11 5.31 1.5
-5 5 11 4.77 1.73
5 -5 -11 7.38 1.84
-4 -5 11 2.35 1.37
4 5 -11 4.19 1.63
-4 -4 11 12.47 1.86
-4 -4 11 12.74 1.68
4 4 -11 8.85 1.73
-4 -3 11 32.23 2.73
-4 -3 11 29.39 2.38
4 3 -11 32.65 2.71
4 3 -11 33.9 2.82
-4 -2 11 2.67 1.09
-4 -2 11 2.38 0.87
4 2 -11 4.46 1.15
4 2 -11 3.28 1.23
-4 -1 11 29.06 2.01
-4 -1 11 30.98 2.35
4 1 -11 25.42 2.44
4 1 -11 27.48 2.29
-4 0 11 0.8 0.64
-4 0 11 0.8 0.94
4 0 -11 0.76 0.88
4 0 -11 1.59 1
4 0 -11 1.73 0.93
4 0 -11 0.87 0.86
4 0 -11 1.08 1.05
-4 1 11 25.96 2.55
-4 1 11 29.73 1.99
4 -1 -11 30.17 2.43
4 -1 -11 29.7 2.21
4 -1 -11 30.58 2.41
-4 2 11 2.22 0.75
-4 2 11 3.4 1.14
4 -2 -11 2.45 1.07
4 -2 -11 2.89 1.08
4 -2 -11 2.83 1.03
-4 3 11 37.11 2.9
-4 3 11 35.39 2.37
4 -3 -11 32.81 2.66
4 -3 -11 32.34 2.8
-4 4 11 10.68 1.89
-4 4 11 10.58 1.31
4 -4 -11 12 1.7
4 -4 -11 12.94 1.87
-4 5 11 3.25 1.64
4 -5 -11 4.69 1.66
-3 -5 11 2.31 1.43
3 5 -11 2.59 1.54
-3 -4 11 4.36 1.34
-3 -4 11 4.94 1.54
3 4 -11 4.3 1.49
-3 -3 11 8.73 1.34
-3 -3 11 9.68 1.57
3 3 -11 8.67 1.51
3 3 -11 8.13 1.57
-3 -2 11 73.14 4.68
-3 -2 11 70.4 4.54
3 2 -11 76.71 4.7
3 2 -11 77.8 4.7
3 2 -11 80.17 4.93
-3 -1 11 3.91 1.01
-3 -1 11 3.17 0.89
-3 -1 11 2.7 1.04
3 1 -11 3.98 1.22
3 1 -11 3.54 1.07
3 1 -11 5.2 1.1
3 1 -11 6.1 1.12
-3 0 11 114.95 6.79
-3 0 11 115.06 6.68
-3 0 11 114.8 6.53
3 0 -11 116.44 6.63
3 0 -11 116.74 6.88
3 0 -11 113.35 7
3 0 -11 113.46 6.64
-3 1 11 4.15 1.31
-3 1 11 5.82 0.93
3 -1 -11 2.96 1.07
3 -1 -11 3.72 1.01
3 -1 -11 4.02 1.06
3 -1 -11 2.17 1.06
-3 2 11 81.89 4.86
-3 2 11 81.01 4.61
3 -2 -11 73.06 4.68
3 -2 -11 71.52 4.82
-3 3 11 9.41 1.59
-3 3 11 10.53 1.39
3 -3 -11 9.06 1.54
3 -3 -11 9.64 1.47
-3 4 11 3.14 1.51
-3 4 11 5.49 1.36
3 -4 -11 3.73 1.44
3 -4 -11 3.26 1.41
-3 5 11 2.09 1.59
-3 5 11 0.12 1.3
3 -5 -11 0.53 1.53
-2 -5 11 9.72 1.81
2 5 -11 9.01 1.76
-2 -4 11 2.66 1.31
2 4 -11 2.74 1.31
-2 -3 11 5.05 1.27
-2 -3 11 6.46 1.46
2 3 -11 10.59 1.64
2 3 -11 9.33 1.51
-2 -2 11 46.58 3.48
-2 -2 11 49.17 3.52
-2 -2 11 47.57 3.35
2 2 -11 56.37 3.56
2 2 -11 55.84 3.48
2 2 -11 57.8 3.75
-2 -1 11 123.39 7.18
-2 -1 11 125.84 6.97
-2 -1 11 114.64 7.01
2 1 -11 113.37 7.27
2 1 -11 127.9 7.06
2 1 -11 123.59 7.02
-2 0 11 40.82 3.02
-2 0 11 46.56 3.07
-2 0 11 40.31 2.77
2 0 -11 42.93 2.94
2 0 -11 44.25 3.1
2 0 -11 41.46 3.04
2 0 -11 41.84 2.88
-2 1 11 127.93 7.48
-2 1 11 126.9 7.2
2 -1 -11 123.88 7.48
2 -1 -11 130.38 7.67
2 -1 -11 127.71 7.3
2 -1 -11 119.15 7.21
-2 2 11 58.72 3.53
-2 2 11 57.97 3.71
2 -2 -11 50.74 3.62
2 -2 -11 49.85 3.51
2 -2 -11 49.58 3.63
-2 3 11 7.69 1.53
-2 3 11 9.44 1.44
2 -3 -11 6.03 1.44
2 -3 -11 6.05 1.31
-2 4 11 -0.07 1.31
-2 4 11 3.59 1.59
2 -4 -11 2.42 1.38
-2 5 11 7.95 1.95
-2 5 11 6.98 1.71
2 -5 -11 8.94 1.87
-1 -5 11 8.62 1.86
1 5 -11 8.89 1.73
-1 -4 11 9.64 1.74
1 4 -11 14.26 2.03
1 4 -11 12.18 1.72
-1 -3 11 16.38 2.06
-1 -3 11 16.46 1.95
1 3 -11 17.96 2.21
1 3 -11 17.99 1.99
-1 -2 11 54.62 3.78
-1 -2 11 58.51 4
-1 -2 11 59.53 3.94
1 2 -11 60.68 4.1
1 2 -11 61.77 3.96
1 2 -11 61.75 3.83
-1 -1 11 49.32 3.6
-1 -1 11 54.98 3.47
-1 -1 11 53.95 3.65
1 1 -11 57.19 3.51
1 1 -11 53.22 3.59
1 1 -11 55.32 3.78
-1 0 11 32.8 2.4
-1 0 11 35.01 2.62
-1 0 11 33.42 2.56
1 0 -11 32.6 2.61
1 0 -11 31.44 2.47
1 0 -11 32.95 2.41
1 0 -11 31.72 2.41
-1 1 11 59.74 3.93
-1 1 11 54.75 3.95
-1 1 11 59.05 3.65
1 -1 -11 58.19 3.89
1 -1 -11 54.37 3.61
1 -1 -11 55.79 3.78
-1 2 11 63.09 3.91
-1 2 11 60.66 4.05
1 -2 -11 59.52 4.05
1 -2 -11 58.28 3.87
1 -2 -11 61.14 4.02
-1 3 11 19.01 2.03
-1 3 11 20.53 2.32
1 -3 -11 18.19 2.08
1 -3 -11 19.62 2.2
-1 4 11 14.49 1.9
-1 4 11 14.64 2.13
1 -4 -11 12.66 1.86
-1 5 11 8.53 1.82
1 -5 -11 8.56 1.84
0 -5 11 18.04 2.36
0 5 -11 19.55 2.17
0 -4 11 4.2 1.47
0 4 -11 3.25 1.27
0 4 -11 3.21 1.55
0 -3 11 7.92 1.46
0 -3 11 8.39 1.53
0 3 -11 3.12 1.16
0 3 -11 3.18 1.41
0 -2 11 2.69 1.12
0 -2 11 3.01 1.16
0 -2 11 3.14 1.18
0 2 -11 2.51 0.99
0 2 -11 2.17 1.23
0 -1 11 80.89 4.85
0 -1 11 77.57 5.05
0 -1 11 70.81 4.9
0 1 -11 78.46 4.97
0 1 -11 87.29 4.92
0 1 -11 81.09 5.1
0 1 -11 85.33 4.83
0 0 11 84.99 5.25
0 0 11 86.14 5.13
0 0 11 83.79 5.03
0 0 -11 82.55 5
0 0 -11 86.62 5.24
0 0 -11 80.26 5.05
0 0 -11 81.01 4.98
0 1 11 86.23 5.08
0 1 11 89.11 5.36
0 -1 -11 81.36 5.13
0 -1 -11 79.65 5.28
0 -1 -11 80.67 5
0 2 11 1.62 1.12
0 2 11 2.43 1.17
0 2 11 0.63 1.13
0 -2 -11 1.94 1.12
0 -2 -11 2.99 1.12
0 -2 -11 3.69 1.24
0 3 11 1.78 1.34
0 3 11 2.1 1.38
0 -3 -11 9.68 1.58
0 -3 -11 9.95 1.49
0 4 11 3.34 1.54
0 -4 -11 3.09 1.44
0 5 11 20.87 2.5
0 -5 -11 19.57 2.42
1 -5 11 0.86 1.61
-1 5 -11 1.69 1.69
-1 5 -11 -0.05 1.15
1 -4 11 33.92 2.79
-1 4 -11 28.78 2.4
-1 4 -11 29.15 2.92
1 -3 11 4.89 1.43
1 -3 11 5.95 1.48
-1 3 -11 7.01 1.23
-1 3 -11 6.31 1.53
1 -2 11 91.66 5.2
1 -2 11 89.86 5.15
1 -2 11 82.53 4.89
-1 2 -11 72.14 4.75
-1 2 -11 69.12 4.86
-1 2 -11 69.84 4.93
1 -1 11 8.93 1.46
1 -1 11 6.13 1.31
1 -1 11 6.56 1.3
-1 1 -11 9.43 1.31
-1 1 -11 10.21 1.17
-1 1 -11 7.97 1.46
1 0 11 10.07 1.35
1 0 11 8.19 1.41
1 0 11 8.18 1.45
-1 0 -11 8.81 1.26
-1 0 -11 10.29 1.45
-1 0 -11 10.48 1.45
-1 0 -11 10.03 1.19
1 1 11 7.13 1.39
1 1 11 7.83 1.58
1 1 11 8.31 1.49
-1 -1 -11 7.86 1.24
-1 -1 -11 5.51 1.36
-1 -1 -11 7.61 1.19
1 2 11 72.9 4.98
1 2 11 72.03 5.11
1 2 11 72.66 5.22
-1 -2 -11 92.96 4.99
-1 -2 -11 90.84 5.13
1 3 11 3.64 1.49
-1 -3 -11 6.25 1.38
-1 -3 -11 7.15 1.56
1 4 11 29.24 2.8
-1 -4 -11 31.59 2.73
1 5 11 1.65 1.7
-1 -5 -11 2.62 1.56
2 -4 11 3.4 1.57
2 -4 11 2.67 1.6
-2 4 -11 4.76 1.6
-2 4 -11 3.94 1.1
2 -3 11 20.07 2.16
2 -3 11 22.41 2.36
-2 3 -11 17.28 1.76
-2 3 -11 17.74 2.33
2 -2 11 7.37 1.35
2 -2 11 7.53 1.57
-2 2 -11 7.46 1.38
-2 2 -11 9.64 1.16
-2 2 -11 7.91 1.54
2 -1 11 37.76 3.03
2 -1 11 40.43 3.29
-2 1 -11 45.85 3.16
-2 1 -11 47.6 2.87
-2 1 -11 46.05 3.24
2 0 11 10.13 1.57
2 0 11 9 1.5
-2 0 -11 10.54 1.18
-2 0 -11 10.32 1.51
-2 0 -11 10.25 1.38
2 1 11 47.53 3.38
2 1 11 47.6 3.03
-2 -1 -11 36.95 3.09
-2 -1 -11 39.01 2.83
-2 -1 -11 37.64 2.98
2 2 11 8.42 1.55
2 2 11 9.19 1.67
-2 -2 -11 7.65 1.32
-2 -2 -11 5.67 1.47
2 3 11 19.58 2.31
2 3 11 20.13 2.66
-2 -3 -11 23.82 2.5
-2 -3 -11 20.36 2.15
2 4 11 3.61 1.64
-2 -4 -11 3.19 1.64
-2 -4 -11 3.42 1.39
3 -4 11 25.03 2.82
3 -4 11 24.96 2.6
-3 4 -11 22.6 2.6
3 -3 11 4.17 1.52
3 -3 11 3.53 1.47
-3 3 -11 0.92 1.41
3 -2 11 17.49 2.17
3 -2 11 15.72 1.82
-3 2 -11 13.48 1.86
-3 2 -11 10.42 1.63
-3 2 -11 10.67 1.29
3 -1 11 17.94 1.89
3 -1 11 16.91 2.11
-3 1 -11 13.56 1.38
-3 1 -11 12.86 1.8
-3 1 -11 15.51 1.92
3 0 11 17.28 2.02
3 0 11 18.55 2.25
-3 0 -11 21.42 2.11
-3 0 -11 18.76 1.61
-3 0 -11 17.87 1.99
3 1 11 11.94 1.77
3 1 11 14.51 1.96
-3 -1 -11 16.85 1.97
-3 -1 -11 16.09 2.08
-3 -1 -11 19.2 1.63
3 2 11 10.46 1.79
3 2 11 13.34 1.95
-3 -2 -11 17.58 2.11
-3 -2 -11 18.71 1.77
3 3 11 2 1.5
3 3 11 0.63 1.38
-3 -3 -11 3.23 1.21
-3 -3 -11 2.16 1.52
3 4 11 27.4 2.72
-3 -4 -11 24.57 2.43
-3 -4 -11 24.71 2.82
4 -4 11 1.58 1.59
-4 4 -11 1.75 1.52
4 -3 11 11.4 1.94
-4 3 -11 11.92 1.87
-4 3 -11 12.37 1.93
4 -2 11 18.26 2.17
-4 2 -11 17.42 2.25
-4 2 -11 14.7 1.97
4 -1 11 38.56 3.06
-4 1 -11 33.47 2.8
-4 1 -11 36.44 2.93
4 0 11 0.31 1.25
4 0 11 0.67 1.23
-4 0 -11 1 1.02
-4 0 -11 -0.85 1.07
4 1 11 35.31 2.95
4 1 11 34.88 3.18
-4 -1 -11 38.45 3.03
-4 -1 -11 38.85 2.89
4 2 11 16.14 2.18
4 2 11 15.51 2.08
-4 -2 -11 21.21 2.24
-4 -2 -11 18.74 1.64
-4 -2 -11 19.3 2.31
4 3 11 11.96 2.06
4 3 11 10.46 1.92
-4 -3 -11 12.3 2.03
-4 -3 -11 10.97 1.39
4 4 11 1.4 1.68
-4 -4 -11 2.55 1.75
-4 -4 -11 1.2 1.17
5 -4 11 12.03 2.13
-5 4 -11 10.2 2
5 -3 11 1.3 1.47
-5 3 -11 1.33 1.44
-5 3 -11 0.36 1.32
5 -2 11 26.43 2.96
-5 2 -11 36.34 2.96
-5 2 -11 36.02 2.89
5 -1 11 -0.54 1.3
-5 1 -11 0.53 1.22
-5 1 -11 1.19 1.11
5 0 11 64.86 4.51
-5 0 -11 68.69 4.31
-5 0 -11 63.08 4.26
5 1 11 2.4 1.42
-5 -1 -11 0.46 1.27
-5 -1 -11 0.43 1.09
5 2 11 35.5 3.19
-5 -2 -11 29.13 2.83
-5 -2 -11 30.13 2.78
5 3 11 -0.27 1.44
-5 -3 -11 0.8 1.52
5 4 11 11.53 2.17
-5 -4 -11 13.91 2.34
6 -3 11 38.16 3.48
-6 3 -11 45.6 3.41
-6 3 -11 41.59 3.53
6 -2 11 0.37 1.39
-6 2 -11 -0.73 1.23
-6 2 -11 -0.34 1.27
6 -1 11 17.75 2.33
-6 1 -11 18.93 2.25
-6 1 -11 19.43 2.19
6 0 11 -0.6 1.25
-6 0 -11 -0.19 1.18
-6 0 -11 -0.12 1.09
6 1 11 15.83 2.18
-6 -1 -11 17.93 2.21
-6 -1 -11 19.41 2.18
6 2 11 0.19 1.37
-6 -2 -11 1.01 1.27
-6 -2 -11 0.14 1.43
6 3 11 50.55 4.12
-6 -3 -11 42.58 3.76
7 -2 11 17.79 2.36
-7 2 -11 22.11 2.36
-7 2 -11 25.09 2.55
7 -1 11 15.66 2.03
-7 1 -11 13.37 1.83
-7 1 -11 12.39 1.81
7 0 11 64.33 4.47
-7 0 -11 62.78 4.29
-7 0 -11 65.22 4.27
7 1 11 13.46 2.13
-7 -1 -11 16.9 2.01
-7 -1 -11 13.77 1.94
7 2 11 25.49 2.98
-7 -2 -11 19.33 2.33
-7 -2 -11 17.96 2.39
8 -2 11 2.36 1.49
-8 2 -11 2.66 1.45
-8 2 -11 1.93 1.37
8 -1 11 15.17 2.01
-8 1 -11 12.87 1.83
-8 1 -11 12.9 1.9
8 0 11 3.72 1.48
-8 0 -11 4.88 1.44
-8 0 -11 4.23 1.43
8 1 11 13.92 2.16
-8 -1 -11 14.84 1.99
-8 -1 -11 15.49 2.03
8 2 11 3.81 1.66
-8 -2 -11 2.02 1.62
-8 -2 -11 1.64 1.42
-13 -1 12 8.63 1.84
-13 0 12 1.9 1.48
13 0 -12 0.92 1.02
13 0 -12 2.18 1
-13 1 12 10.1 2.05
13 -1 -12 7.76 1.37
13 -1 -12 8.79 1.25
-12 -2 12 11.35 1.5
-12 -1 12 4.35 1.56
-12 -1 12 5.26 1.08
12 1 -12 1.22 1.14
-12 0 12 -0.14 1.31
12 0 -12 0.28 0.96
12 0 -12 0.22 0.93
12 0 -12 -0.11 0.95
-12 1 12 0.81 1.43
12 -1 -12 4.51 1.24
12 -1 -12 4.54 1.07
12 -1 -12 5.55 1.15
-12 2 12 9.32 2.07
12 -2 -12 11.46 1.61
12 -2 -12 10.67 1.47
-11 -3 12 3.04 1.32
-11 -3 12 3.5 1.35
11 3 -12 0.8 1.36
-11 -2 12 3.05 1.2
11 2 -12 0.78 1.19
-11 -1 12 4.95 1.15
-11 -1 12 2.96 1.46
11 1 -12 5.95 1.27
-11 0 12 2.54 1.41
-11 0 12 2.67 0.95
11 0 -12 3.35 1.08
11 0 -12 3.21 1.06
11 0 -12 4.09 1.21
-11 1 12 5.77 1.03
-11 1 12 4.64 1.51
11 -1 -12 4 1.15
11 -1 -12 3.61 1.26
11 -1 -12 4.16 1.11
-11 2 12 1.71 1.01
-11 2 12 0.29 1.43
11 -2 -12 3 1.22
11 -2 -12 3.19 1.08
-11 3 12 0.23 1.38
-11 3 12 0.68 1.57
11 -3 -12 3.16 1.29
11 -3 -12 2.81 1.23
-10 -3 12 22.02 2.25
10 3 -12 15.59 2.17
-10 -2 12 16.93 1.86
-10 -2 12 12.85 1.88
10 2 -12 11.13 1.7
-10 -1 12 28.78 2.21
10 1 -12 23.3 2.34
-10 0 12 4.75 1.04
10 0 -12 5.26 1.17
10 0 -12 4.84 1.29
10 0 -12 3.61 1.13
-10 1 12 23.12 1.98
10 -1 -12 22.8 2.14
10 -1 -12 21.42 2.25
10 -1 -12 27.05 2.22
10 -2 -12 17.36 1.92
10 -2 -12 17.98 1.95
-10 3 12 14.1 2.35
10 -3 -12 17.2 2.03
10 -3 -12 19.45 2.07
-9 -4 12 0.87 1.45
9 4 -12 -0.52 1.51
-9 -3 12 5.95 1.51
-9 -3 12 3.81 1.44
9 3 -12 6.49 1.61
-9 -2 12 9.37 1.51
9 2 -12 9.91 1.63
-9 -1 12 2.74 1.02
9 1 -12 2.4 1.12
9 0 -12 103.07 6.46
9 0 -12 106.24 6.31
9 0 -12 105.58 6.55
-9 1 12 2.38 1.02
9 -1 -12 0.48 1.27
9 -1 -12 3.28 1.17
9 -1 -12 1.06 1.03
-9 2 12 9.62 1.58
9 -2 -12 8.25 1.43
9 -2 -12 9.91 1.48
-9 3 12 3.79 1.39
-9 3 12 4.4 1.45
9 -3 -12 5.23 1.33
9 -3 -12 5.77 1.36
-9 4 12 1.96 1.61
-9 4 12 3.16 1.48
9 -4 -12 1.58 1.36
-8 -4 12 7.35 1.73
8 4 -12 5.57 1.7
-8 -3 12 20.74 2.4
8 3 -12 26.26 2.6
-8 -2 12 11.33 1.58
8 2 -12 10.86 1.67
-8 -1 12 17.31 1.91
8 1 -12 23 2.14
-8 0 12 1.27 0.96
8 0 -12 0.98 1.01
8 0 -12 0.67 0.92
8 0 -12 0.54 1.15
-8 1 12 23.51 2.01
8 -1 -12 15.03 2.09
8 -1 -12 18.39 2.11
8 -1 -12 16.99 2.08
-8 2 12 8.16 1.65
8 -2 -12 10.54 1.57
8 -2 -12 12.95 1.58
-8 3 12 29.78 2.51
8 -3 -12 21.49 2.34
8 -3 -12 23.31 2.35
-8 4 12 7.02 1.66
8 -4 -12 8.14 1.69
-7 -4 12 2.45 1.46
7 4 -12 2.75 1.62
-7 -3 12 1.76 1.31
-7 -3 12 0.07 1.26
7 3 -12 2.6 1.38
-7 -2 12 19.66 2.13
7 2 -12 20.75 2.27
-7 -1 12 39.41 2.66
7 1 -12 30.5 2.72
-7 0 12 28.99 2.37
7 0 -12 26.93 2.58
7 0 -12 32 2.48
7 0 -12 31.52 2.52
-7 1 12 34.57 2.85
7 -1 -12 40.88 3.08
7 -1 -12 37.85 2.98
7 -2 -12 19.4 2.08
7 -2 -12 19.66 2.06
-7 3 12 3.35 1.37
7 -3 -12 3.02 1.25
-7 4 12 3.31 1.51
7 -4 -12 5.27 1.52
-6 -4 12 -0.06 1.38
-6 -4 12 -0.35 0.91
6 4 -12 0.13 1.5
6 4 -12 1.15 1.51
-6 -3 12 13.29 1.86
6 3 -12 13.01 1.88
6 3 -12 12.65 1.89
-6 -2 12 20.5 2.21
6 2 -12 25.56 2.32
6 2 -12 25.43 2.38
-6 -1 12 100.23 5.93
6 1 -12 101.1 6.19
-6 0 12 39.2 2.93
6 0 -12 40.5 3.03
6 0 -12 42.55 3.06
6 -1 -12 101.34 6.62
6 -1 -12 111.88 6.54
-6 2 12 25.14 2.41
6 -2 -12 22.64 2.17
6 -2 -12 20.28 2.22
-6 3 12 12.6 1.82
6 -3 -12 14.34 1.83
-6 4 12 0.02 1.35
6 -4 -12 0.7 1.31
-5 -4 12 10.58 1.85
-5 -4 12 10.5 1.53
5 4 -12 10.75 1.89
-5 -3 12 34.2 2.58
-5 -3 12 36.88 2.99
5 3 -12 36.19 3.08
5 3 -12 37.26 2.97
-5 -2 12 64.38 4.3
-5 -2 12 66.55 3.97
5 2 -12 68.11 4.34
5 2 -12 67.93 4.52
-5 -1 12 10.7 1.12
-5 -1 12 8.86 1.39
5 1 -12 5.77 1.41
5 1 -12 8.62 1.31
-5 0 12 26.15 2.31
5 0 -12 26.77 2.15
5 0 -12 27.08 2.38
5 0 -12 26.97 2.36
-5 1 12 7.3 1.55
5 -1 -12 10.06 1.54
5 -1 -12 11.22 1.31
5 -1 -12 9.83 1.49
-5 2 12 64.01 4.24
5 -2 -12 61.32 4.19
5 -2 -12 62.03 4.35
5 -2 -12 66.52 4.06
-5 3 12 41.81 3.14
5 -3 -12 34.33 2.99
-5 4 12 13.15 1.95
5 -4 -12 9.39 1.81
-4 -5 12 21.81 2.41
4 5 -12 21.53 2.65
-4 -4 12 -1.54 1.34
-4 -4 12 0.52 1.19
4 4 -12 0.99 1.39
-4 -3 12 11.07 1.48
-4 -3 12 11.31 1.74
4 3 -12 12.17 1.84
4 3 -12 12.1 1.74
-4 -2 12 7.22 1.12
-4 -2 12 5.42 1.32
4 2 -12 5.32 1.46
4 2 -12 6.43 1.38
-4 -1 12 10.07 1.49
-4 -1 12 11.12 1.33
4 1 -12 12.48 1.7
4 1 -12 13.32 1.65
4 1 -12 12.54 1.63
-4 0 12 142.53 8.08
-4 0 12 143.22 7.89
4 0 -12 138.78 8.06
4 0 -12 141.88 8.32
4 0 -12 138.19 8.5
-4 1 12 13.08 1.34
-4 1 12 14.35 1.8
4 -1 -12 11.51 1.63
4 -1 -12 11.03 1.58
4 -1 -12 11.6 1.56
-4 2 12 6.98 1.44
-4 2 12 4.45 1.43
-4 2 12 6.45 0.99
4 -2 -12 6.95 1.21
4 -2 -12 6.06 1.34
-4 3 12 11.59 1.49
-4 3 12 12.37 1.83
4 -3 -12 11 1.7
4 -3 -12 13.19 1.68
-4 4 12 1.74 1.01
-4 4 12 3.1 1.53
4 -4 -12 2.26 1.44
4 -4 -12 1.25 1.37
-4 5 12 23.38 3.02
4 -5 -12 23.93 2.67
-3 -5 12 5.32 1.66
3 5 -12 6.23 1.73
-3 -4 12 31.97 3.02
-3 -4 12 34.82 2.79
3 4 -12 33.48 2.91
-3 -3 12 19.9 2.21
-3 -3 12 18.94 1.98
3 3 -12 18.95 2.35
3 3 -12 15.76 2.09
-3 -2 12 50.33 3.21
-3 -2 12 51 3.45
3 2 -12 46.24 3.6
3 2 -12 45.58 3.35
-3 -1 12 17.82 1.96
-3 -1 12 19.95 1.65
3 1 -12 15.01 1.84
3 1 -12 15.21 1.88
3 1 -12 13.65 1.84
-3 0 12 0.86 0.82
-3 0 12 2.27 1.09
3 0 -12 1.16 0.98
3 0 -12 0.65 0.93
3 0 -12 1 0.97
3 0 -12 1.06 1.1
-3 1 12 13.16 1.88
-3 1 12 14.77 1.56
3 -1 -12 19.22 1.74
3 -1 -12 17.28 2.02
-3 2 12 46.26 3.22
-3 2 12 47.55 3.61
3 -2 -12 51.36 3.4
3 -2 -12 54.6 3.58
-3 3 12 17.38 1.85
-3 3 12 16.07 2.07
3 -3 -12 19.89 2.04
3 -3 -12 17.53 2.19
-3 4 12 33.5 2.65
-3 4 12 31.09 3.12
3 -4 -12 33.19 2.86
3 -4 -12 31.94 3.03
-3 5 12 7.37 1.56
-3 5 12 8.53 2.1
3 -5 -12 6.22 1.87
-2 -5 12 25.55 2.65
2 5 -12 26.22 2.63
-2 -4 12 2.6 1.37
2 4 -12 1.95 1.37
-2 -3 12 30.94 2.55
-2 -3 12 33.93 2.75
2 3 -12 26.73 2.6
-2 -2 12 0.28 0.99
-2 -2 12 -0.01 1.08
2 2 -12 -0.14 1.19
2 2 -12 0.07 1.02
2 2 -12 1.51 1.18
-2 -1 12 14.01 1.77
-2 -1 12 13.08 1.52
-2 -1 12 11.02 1.59
2 1 -12 12.45 1.6
2 1 -12 10.52 1.66
2 1 -12 12.98 1.59
-2 0 12 1.84 1.1
-2 0 12 1.73 0.92
-2 0 12 2.06 1.04
2 0 -12 1.47 1.04
2 0 -12 1.22 0.98
2 0 -12 1.68 1.09
-2 1 12 11.16 1.77
-2 1 12 14.22 1.59
2 -1 -12 11.77 1.68
2 -1 -12 15.24 1.71
2 -1 -12 11.31 1.61
-2 2 12 -0.27 1.03
-2 2 12 -0.13 1.28
-2 2 12 0.06 1.17
2 -2 -12 0.89 1.07
2 -2 -12 1.05 1.11
-2 3 12 27.49 2.57
-2 3 12 29.77 2.88
2 -3 -12 34.78 2.68
2 -3 -12 31.7 2.76
-2 4 12 3.33 1.43
-2 4 12 2.19 1.58
2 -4 -12 3.65 1.46
-2 5 12 22.49 2.53
-2 5 12 25.95 3.01
2 -5 -12 23.6 2.65
-1 -5 12 7.95 1.84
1 5 -12 8.98 1.7
-1 -4 12 23.31 2.37
1 4 -12 21.02 2.29
-1 -3 12 11.37 1.65
1 3 -12 10.38 1.78
1 3 -12 8.8 1.52
-1 -2 12 29.34 2.53
-1 -2 12 28.65 2.55
-1 -2 12 27.24 2.31
1 2 -12 27.2 2.54
1 2 -12 25.7 2.31
-1 -1 12 1.11 1.14
-1 -1 12 2.71 1.12
-1 -1 12 1.48 1.01
1 1 -12 3.27 1.27
1 1 -12 4.1 1.06
1 1 -12 1.63 1.17
-1 0 12 30.51 2.59
-1 0 12 30.85 2.62
-1 0 12 30.28 2.35
1 0 -12 33.47 2.54
1 0 -12 29.85 2.4
1 0 -12 31.01 2.63
-1 1 12 3.05 1.1
-1 1 12 2.13 1.37
-1 1 12 3.36 1.23
1 -1 -12 2.18 1.07
1 -1 -12 3.22 1.19
1 -1 -12 2.59 1.26
-1 2 12 26.22 2.7
-1 2 12 26.47 2.42
1 -2 -12 30.28 2.55
1 -2 -12 27.85 2.57
1 -2 -12 28.65 2.36
-1 3 12 9.26 1.76
-1 3 12 8.31 1.62
1 -3 -12 10.98 1.63
-1 4 12 25.83 2.92
-1 4 12 23.05 2.44
1 -4 -12 25.73 2.6
-1 5 12 6.19 1.76
1 -5 -12 9.54 1.95
0 -4 12 16.66 2.12
0 4 -12 16 2.19
0 4 -12 15.62 1.95
0 -3 12 25.72 2.4
0 3 -12 27.29 2.63
0 3 -12 24.04 2.29
0 -2 12 21.8 2.07
0 -2 12 23.86 2.27
0 2 -12 18.42 1.99
0 2 -12 18.91 2.25
0 -1 12 68.32 4.55
0 -1 12 65.57 4.3
0 1 -12 72.79 4.29
0 1 -12 68.92 4.48
0 0 12 10.93 1.56
0 0 12 10.89 1.56
0 0 12 10.55 1.44
0 0 -12 10.47 1.53
0 0 -12 9.63 1.35
0 0 -12 12.25 1.59
0 1 12 71.55 4.66
0 1 12 69.94 4.42
0 -1 -12 70.56 4.53
0 -1 -12 67.66 4.65
0 -1 -12 67.98 4.35
0 2 12 18.88 2.42
0 2 12 18.94 2.17
0 2 12 22.55 2.57
0 2 12 21.49 2.51
0 -2 -12 22.36 2.14
0 -2 -12 23.38 2.3
0 3 12 27.7 2.87
0 3 12 26.58 2.49
0 -3 -12 29.97 2.78
0 -3 -12 25.21 2.51
0 4 12 15.21 2.16
0 -4 -12 18.75 2.19
1 -4 12 17.85 2.35
-1 4 -12 25.63 2.67
-1 4 -12 20.34 2.03
1 -3 12 2.4 1.44
1 -3 12 2.71 1.41
-1 3 -12 1.85 1.45
-1 3 -12 1.89 1.08
1 -2 12 26.23 2.4
1 -2 12 26.99 2.72
1 -2 12 25.65 2.59
-1 2 -12 32.17 2.7
-1 2 -12 32.35 2.36
1 -1 12 1.24 1.23
1 -1 12 1.55 1.15
-1 1 -12 3.13 1.1
-1 1 -12 3.68 1.32
-1 1 -12 2.26 0.95
1 0 12 50.81 3.54
1 0 12 45.79 3.23
1 0 12 47.57 3.4
-1 0 -12 48.04 3.31
-1 0 -12 48.72 3.37
-1 0 -12 45.77 3.16
1 1 12 2.19 1.31
1 1 12 2.47 1.41
1 1 12 2.26 1.25
-1 -1 -12 0.78 1.18
-1 -1 -12 1.68 1
1 2 12 33.57 2.63
1 2 12 34.85 3.03
-1 -2 -12 28.31 2.53
-1 -2 -12 27.6 2.69
1 3 12 2.15 1.5
-1 -3 -12 3.29 1.34
-1 -3 -12 4.78 1.61
1 4 12 20.93 2.43
-1 -4 -12 18.68 2.3
2 -4 12 3.6 1.7
-2 4 -12 4.52 1.65
-2 4 -12 4.15 1.13
2 -3 12 31.01 2.84
2 -3 12 32.63 3.06
-2 3 -12 37.02 3.03
-2 3 -12 34.35 2.45
2 -2 12 20.12 2.05
2 -2 12 19.51 2.39
-2 2 -12 16.97 1.76
-2 2 -12 16.79 2.2
2 -1 12 40.52 2.99
2 -1 12 41.05 3.24
-2 1 -12 40.16 2.73
-2 1 -12 39.15 3.11
-2 1 -12 40.36 3.06
2 0 12 18.43 2.21
2 0 12 16.66 1.97
-2 0 -12 17.75 2.01
-2 0 -12 18.85 2.07
-2 0 -12 18.39 1.75
2 1 12 41.84 3.04
2 1 12 40.85 3.33
-2 -1 -12 41.49 3.05
-2 -1 -12 38.4 2.83
-2 -1 -12 37.03 3.13
2 2 12 17.85 2.28
2 2 12 20.14 2.26
-2 -2 -12 23.17 2.11
-2 -2 -12 22.38 2.37
2 3 12 31.54 2.85
-2 -3 -12 31.5 2.68
-2 -3 -12 32.66 3.06
2 4 12 3.58 1.79
-2 -4 -12 3.6 1.46
-2 -4 -12 4.02 1.78
3 -4 12 7.26 1.91
3 -4 12 6.93 1.97
-3 4 -12 6.7 1.85
3 -3 12 7.18 1.76
3 -3 12 9.05 1.84
-3 3 -12 8.83 1.86
3 -2 12 37.46 2.98
3 -2 12 34.26 3.25
-3 2 -12 40.1 2.51
-3 2 -12 42.11 3.24
-3 2 -12 38.64 3.18
3 -1 12 24.92 2.33
3 -1 12 25.17 2.66
-3 1 -12 27.04 2.5
-3 1 -12 24.2 1.87
-3 1 -12 26.35 2.47
3 0 12 135.9 8.35
-3 0 -12 141.18 7.8
-3 0 -12 136.42 8.01
-3 0 -12 140.91 8.06
3 1 12 28.62 2.81
3 1 12 25.73 2.42
-3 -1 -12 25.09 2.06
-3 -1 -12 24.89 2.42
-3 -1 -12 28.5 2.6
3 2 12 41.32 3.57
3 2 12 39.56 3.23
-3 -2 -12 41.47 2.88
-3 -2 -12 42.32 3.35
3 3 12 9.8 2
3 3 12 10.45 1.93
-3 -3 -12 9.9 1.57
-3 -3 -12 9.98 1.99
3 4 12 5.51 1.87
-3 -4 -12 6.98 1.53
-3 -4 -12 8.42 2.05
4 -4 12 6.81 1.96
-4 4 -12 7.46 1.83
4 -3 12 22.3 2.6
-4 3 -12 21.41 2.56
4 -2 12 12.02 1.97
-4 2 -12 9.76 1.81
-4 2 -12 12.73 1.84
4 -1 12 38.11 3.16
-4 1 -12 33.91 2.89
-4 1 -12 32.58 2.9
4 0 12 0.36 1.29
-4 0 -12 0.22 1.16
-4 0 -12 0.16 1.04
4 1 12 33.33 3.28
4 1 12 35.36 2.93
-4 -1 -12 37.3 2.93
-4 -1 -12 37.31 3.04
4 2 12 8.44 1.82
4 2 12 12.01 2.03
-4 -2 -12 12.85 1.92
-4 -2 -12 11.97 1.43
4 3 12 27.61 3.24
4 3 12 23.46 2.91
-4 -3 -12 23.04 2.83
4 4 12 7.44 2.02
-4 -4 -12 3.74 1.25
-4 -4 -12 8.43 2.11
5 -3 12 2.2 1.58
-5 3 -12 2.43 1.57
5 -2 12 11.83 2.01
-5 2 -12 10.74 1.85
-5 2 -12 11.54 1.85
5 -1 12 11.42 1.9
-5 1 -12 9.13 1.58
-5 1 -12 8.82 1.7
5 0 12 20.54 2.42
-5 0 -12 19.26 2.18
-5 0 -12 17.78 2.15
5 1 12 10.04 1.91
-5 -1 -12 11 1.71
-5 -1 -12 10.88 1.79
5 2 12 11.87 2.11
-5 -2 -12 10.79 1.97
5 3 12 3.55 1.69
-5 -3 -12 5.56 1.84
6 -3 12 24.58 2.74
-6 3 -12 19.07 2.51
-6 3 -12 21.87 2.62
6 -2 12 1.57 1.53
-6 2 -12 1.66 1.42
-6 2 -12 1.07 1.37
6 -1 12 18.06 2.37
-6 1 -12 14.73 1.94
-6 1 -12 12.87 1.92
6 0 12 1.73 1.42
-6 0 -12 3.56 1.43
-6 0 -12 2.56 1.26
6 1 12 10.22 2.05
-6 -1 -12 19.61 2.28
-6 -1 -12 17.71 2.18
6 2 12 3.88 1.65
-6 -2 -12 -0.25 1.52
6 3 12 25.39 3.35
-6 -3 -12 26.39 2.98
7 -2 12 11.01 2
7 -2 12 10.43 1.92
-7 2 -12 10.29 1.82
-7 2 -12 11.66 1.94
7 -1 12 5.84 1.64
-7 1 -12 4.86 1.55
-7 1 -12 4.56 1.47
7 0 12 8.69 1.81
-7 0 -12 7.1 1.58
-7 0 -12 9.18 1.7
7 1 12 3.28 1.68
-7 -1 -12 3.2 1.42
-7 -1 -12 2.59 1.43
7 2 12 8.58 2.12
-7 -2 -12 14.04 2.08
-7 -2 -12 12.93 2.17
8 -1 12 10.82 1.84
-8 1 -12 10.27 1.78
-8 1 -12 9.8 1.77
8 0 12 6.37 1.69
-8 0 -12 4.02 1.43
-8 0 -12 5.16 1.57
8 1 12 9.96 2.01
-8 -1 -12 11.65 1.96
-8 -1 -12 12.01 1.91
-13 0 13 28.29 3.15
13 0 -13 29.33 2.45
-12 -2 13 1.54 1.18
12 2 -13 2.66 1.33
-12 -1 13 13.29 1.68
-12 -1 13 8.85 1.83
12 1 -13 12.8 1.68
-12 0 13 5.41 1.69
12 0 -13 5.07 1.3
12 0 -13 6.85 1.27
-12 1 13 10.84 2.05
12 -1 -13 12.51 1.68
12 -1 -13 11.93 1.57
-12 2 13 0.98 1.49
12 -2 -13 1.47 1.02
12 -2 -13 -0.24 1.19
-11 -2 13 16.63 2.02
11 2 -13 21.09 2.29
-11 -1 13 18.42 1.9
-11 -1 13 17.22 2.4
11 1 -13 15.95 2.03
-11 0 13 19.53 1.84
11 0 -13 18.66 2.02
11 0 -13 18.45 2.07
-11 1 13 15.39 1.74
11 -1 -13 17.29 1.9
11 -1 -13 19.46 2
-11 2 13 18.46 2.63
-11 2 13 19.68 1.95
11 -2 -13 17.46 2.01
11 -2 -13 17.84 2.2
-10 -3 13 24.06 2.5
10 3 -13 23.1 2.73
-10 -2 13 13.02 1.78
10 2 -13 18.31 2.19
-10 -1 13 7.92 1.34
10 1 -13 9.3 1.5
-10 0 13 24.14 2.03
10 0 -13 22.39 2.26
10 0 -13 23.29 2.25
-10 1 13 6.25 1.23
10 -1 -13 8.45 1.4
10 -1 -13 7.03 1.36
-10 2 13 15.84 1.94
10 -2 -13 11.45 1.68
10 -2 -13 12.88 1.75
-10 3 13 20.77 2.8
10 -3 -13 21.35 2.31
10 -3 -13 23.09 2.37
-9 -3 13 11.09 1.8
9 3 -13 13.61 1.99
-9 -2 13 13.3 1.75
9 2 -13 16.92 2.21
-9 -1 13 8.07 1.33
9 1 -13 8.16 1.49
-9 0 13 17.13 1.84
9 0 -13 15.98 1.98
9 0 -13 16.74 1.96
-9 1 13 7.97 1.34
9 -1 -13 9.28 1.52
9 -1 -13 7.79 1.48
-9 2 13 12.81 1.83
9 -2 -13 12.39 1.74
9 -2 -13 13.08 1.72
9 -3 -13 12.98 1.8
9 -3 -13 10.84 1.75
-8 -4 13 1.91 1.55
8 4 -13 -0.62 1.55
-8 -3 13 24.82 2.62
8 3 -13 27.45 2.79
-8 -2 13 15.35 1.95
8 2 -13 15.44 1.96
-8 -1 13 21.33 2.03
8 1 -13 17.94 2.14
-8 0 13 57.73 3.8
8 0 -13 56.55 4.02
8 0 -13 60.28 3.96
-8 1 13 17.68 2.03
8 -1 -13 22.54 2.22
8 -1 -13 20.09 2.24
-8 2 13 12.71 1.88
8 -2 -13 12.64 1.8
8 -2 -13 13.69 1.74
-8 3 13 24.46 2.64
8 -3 -13 28.59 2.57
-8 4 13 -2.11 1.42
8 -4 -13 0.68 1.42
-7 -4 13 20.16 2.43
7 4 -13 15.93 2.41
-7 -3 13 11.75 1.8
7 3 -13 6.25 1.65
-7 -2 13 21.54 2.19
7 2 -13 17.29 2.29
-7 -1 13 1.2 1.07
7 1 -13 1.06 1.19
-7 0 13 3.69 1.15
7 0 -13 6.02 1.28
7 0 -13 5.72 1.34
-7 1 13 0.96 1.14
7 -1 -13 1.32 1.13
7 -1 -13 0.92 1.24
7 -2 -13 19.91 2.18
7 -2 -13 19.37 2.21
-7 3 13 10.64 1.8
7 -3 -13 10.08 1.7
-7 4 13 18.1 2.36
7 -4 -13 22.5 2.55
-6 -4 13 7.19 1.74
-6 -4 13 6.14 1.18
6 4 -13 4.07 1.77
6 4 -13 3.69 1.73
-6 -3 13 17.96 2.22
6 3 -13 10.71 1.86
6 3 -13 11.7 1.95
-6 -2 13 3.23 1.27
6 2 -13 4.29 1.47
6 2 -13 5.08 1.42
-6 -1 13 2.75 1.15
6 1 -13 1.81 1.06
6 1 -13 0.12 1.18
-6 0 13 0.96 1.07
6 0 -13 -0.23 1.11
6 0 -13 0.9 1.01
-6 1 13 0.18 1.18
6 -1 -13 3.07 1.21
6 -1 -13 3.53 1.35
-6 2 13 4.89 1.57
6 -2 -13 3.37 1.29
6 -2 -13 3.79 1.29
-6 3 13 10.83 1.85
6 -3 -13 15.18 2
-6 4 13 4.97 1.75
6 -4 -13 7.13 1.72
-5 -4 13 20.81 2.59
-5 -4 13 21.08 2.18
5 4 -13 25.46 2.63
-5 -3 13 7.93 1.64
-5 -3 13 6.43 1.24
5 3 -13 5.81 1.55
5 3 -13 3.76 1.55
-5 -2 13 57.16 3.48
-5 -2 13 56.59 3.83
5 2 -13 54.77 3.86
5 2 -13 55.32 4.07
-5 -1 13 1.15 1.14
-5 -1 13 2.69 0.76
5 1 -13 2.46 1.34
5 1 -13 4.48 1.25
-5 0 13 7.99 1.43
5 0 -13 9.47 1.55
5 0 -13 8.22 1.29
5 0 -13 7.18 1.38
-5 1 13 4.88 1.44
5 -1 -13 2.16 1.16
5 -1 -13 2.88 1.13
5 -1 -13 2.93 1.36
5 -2 -13 57.71 3.82
5 -2 -13 59 4.05
-5 3 13 5.77 1.57
5 -3 -13 8.19 1.55
-5 4 13 23.6 2.77
5 -4 -13 24.53 2.7
-4 -4 13 -0.12 1.47
-4 -4 13 1.2 1.23
4 4 -13 0.05 1.37
-4 -3 13 5.81 1.25
-4 -3 13 5.6 1.53
4 3 -13 5.7 1.6
4 3 -13 5.06 1.5
-4 -2 13 4.76 1.35
-4 -2 13 4.39 1.06
4 2 -13 4.64 1.33
4 2 -13 2.92 1.42
-4 -1 13 128.44 6.88
-4 -1 13 116.71 7.04
4 1 -13 125.58 7.06
4 1 -13 106.91 7.28
-4 0 13 -0.11 0.79
-4 0 13 0.77 1.11
4 0 -13 1.98 1.23
4 0 -13 1.18 1.07
-4 1 13 124.26 6.95
4 -1 -13 124.7 7.16
4 -1 -13 118.59 7.46
-4 2 13 3.52 1.53
-4 2 13 3.28 0.95
4 -2 -13 6.36 1.29
4 -2 -13 6.33 1.42
-4 3 13 6.97 1.18
-4 3 13 6.09 1.64
4 -3 -13 5.44 1.36
4 -3 -13 6.07 1.48
-4 4 13 0.84 1.48
-4 4 13 0.54 1.05
4 -4 -13 1.69 1.47
4 -4 -13 0.32 1.4
-3 -4 13 9.69 1.73
3 4 -13 14.47 1.99
-3 -3 13 7.87 1.44
-3 -3 13 10.26 1.73
3 3 -13 4.7 1.47
-3 -2 13 48.78 3.27
-3 -2 13 52.8 3.54
3 2 -13 43.27 3.67
3 2 -13 47.73 3.4
-3 -1 13 11.05 1.65
-3 -1 13 12.96 1.61
3 1 -13 14.29 1.88
3 1 -13 15.63 1.82
-3 0 13 39.76 2.75
-3 0 13 41.07 3.06
3 0 -13 41.41 3.14
3 0 -13 39.69 2.9
-3 1 13 15.8 1.65
-3 1 13 15.89 2.01
3 -1 -13 15.1 1.85
3 -1 -13 13.73 1.91
-3 2 13 47.6 3.37
3 -2 -13 55.4 3.58
3 -2 -13 52.2 3.74
-3 3 13 4.02 1.24
-3 3 13 6.32 1.68
3 -3 -13 9.07 1.53
3 -3 -13 8.63 1.6
-3 4 13 15.67 2.18
-3 4 13 14.42 1.75
3 -4 -13 9.82 1.85
-2 -4 13 2.83 1.4
2 4 -13 3.47 1.44
-2 -3 13 15.35 1.96
-2 -3 13 17.29 2.22
2 3 -13 19.15 2.15
-2 -2 13 9.84 1.46
-2 -2 13 10.84 1.67
2 2 -13 9.2 1.48
2 2 -13 7.56 1.69
2 2 -13 9.38 1.65
-2 -1 13 68.9 4.55
2 1 -13 75.73 4.76
2 1 -13 80.44 4.67
2 1 -13 72.87 4.97
-2 0 13 0.67 1.14
-2 0 13 1.77 0.97
2 0 -13 1.25 1.13
2 0 -13 0.01 0.98
2 0 -13 0.34 1.17
-2 1 13 78.95 4.53
2 -1 -13 68.89 4.85
2 -1 -13 69.2 4.52
2 -1 -13 72.42 4.67
-2 2 13 8.94 1.78
-2 2 13 9.02 1.46
2 -2 -13 11.68 1.72
2 -2 -13 11.44 1.58
-2 3 13 19.9 2.52
-2 3 13 18.9 2.15
2 -3 -13 18.34 2.19
2 -3 -13 17.87 2.2
-2 4 13 3.61 1.67
-2 4 13 3.22 1.51
2 -4 -13 2.58 1.49
-1 -4 13 21.07 2.4
1 4 -13 26.07 2.41
-1 -3 13 5.32 1.45
1 3 -13 3 1.32
1 3 -13 4.43 1.61
-1 -2 13 25.63 2.29
-1 -2 13 29.07 2.56
1 2 -13 24.79 2.3
1 2 -13 22.69 2.53
-1 -1 13 27.32 2.37
-1 -1 13 27.48 2.65
-1 -1 13 31 2.65
1 1 -13 32.94 2.71
1 1 -13 32.5 2.48
1 1 -13 29.92 2.79
-1 0 13 49.09 3.64
-1 0 13 52.68 3.61
-1 0 13 48.31 3.38
1 0 -13 51.03 3.42
1 0 -13 51.61 3.66
1 0 -13 51.9 3.52
-1 1 13 32.76 2.51
-1 1 13 32.59 2.92
1 -1 -13 29.47 2.53
1 -1 -13 31.77 2.86
1 -1 -13 29.87 2.69
-1 2 13 22.61 2.45
1 -2 -13 30.8 2.68
1 -2 -13 29.9 2.52
1 -2 -13 27.69 2.64
-1 3 13 6.09 1.64
-1 3 13 5.75 1.51
1 -3 -13 2.72 1.37
-1 4 13 27.62 2.59
1 -4 -13 19.75 2.5
0 -4 13 5.82 1.7
0 4 -13 10.81 1.98
0 4 -13 11.15 1.63
0 -3 13 31.48 2.74
0 3 -13 32.8 2.66
0 3 -13 34.74 3.04
0 -2 13 17.6 2.28
0 -2 13 18.88 2.41
0 -2 13 19.17 2.04
0 2 -13 20.3 2
0 2 -13 19.8 2.34
0 -1 13 35.37 2.94
0 -1 13 33.6 2.66
0 -1 13 32.48 2.89
0 1 -13 37.16 2.95
0 1 -13 38.62 2.7
0 0 13 28.35 2.46
0 0 13 31 2.64
0 0 13 31.79 2.73
0 0 -13 28.89 2.57
0 0 -13 29.72 2.46
0 1 13 39.2 2.89
0 1 13 38.98 3.26
0 -1 -13 34.58 2.77
0 -1 -13 36.65 3
0 2 13 19.86 2.6
0 2 13 20.84 2.22
0 -2 -13 19.94 2.35
0 -2 -13 18.14 2.15
0 3 13 32.64 2.73
0 -3 -13 28.31 2.67
0 4 13 7.23 1.77
0 -4 -13 8.7 1.78
1 -4 13 12.36 2.04
-1 4 -13 14.53 1.79
-1 4 -13 15 2.18
1 -3 13 3.38 1.53
-1 3 -13 4.74 1.21
-1 3 -13 5.85 1.7
1 -2 13 18.16 2.23
1 -2 13 18.84 2.05
1 -2 13 18.46 2.19
-1 2 -13 14.52 2.07
-1 2 -13 16.25 1.86
1 -1 13 35.19 2.92
1 -1 13 31.66 2.58
-1 1 -13 31.81 2.8
-1 1 -13 30.95 2.44
1 0 13 82.02 5.31
1 0 13 90.02 5.62
-1 0 -13 90.24 5.23
-1 0 -13 84.85 5.37
1 1 13 29.24 2.63
1 1 13 32.31 3
-1 -1 -13 32.22 2.78
-1 -1 -13 30.73 2.51
1 2 13 14.56 1.98
-1 -2 -13 18.2 2.27
-1 -2 -13 21.01 2.12
1 3 13 4.62 1.61
-1 -3 -13 2.55 1.33
-1 -3 -13 3.36 1.65
1 4 13 11.9 2.09
-1 -4 -13 14.58 2.03
2 -4 13 0.52 1.65
-2 4 -13 -0.24 1.51
-2 4 -13 0.95 1.05
2 -3 13 47 3.45
2 -3 13 45.44 3.66
-2 3 -13 41.14 3.57
-2 3 -13 42.34 2.95
2 -2 13 0.95 1.4
2 -2 13 0.11 1.31
-2 2 -13 2.44 1.46
-2 2 -13 1.21 0.97
-2 1 -13 17.02 1.79
-2 1 -13 19.18 2.23
2 0 13 -0.89 1.19
2 0 13 -0.74 1.24
-2 0 -13 -0.81 1.12
-2 0 -13 0.5 0.89
2 1 13 20.79 2.8
-2 -1 -13 31.63 2.72
-2 -1 -13 31.81 2.36
2 2 13 0.34 1.41
2 2 13 0.28 1.37
-2 -2 -13 1.64 1.4
-2 -2 -13 1.23 1.1
2 3 13 42.64 3.56
-2 -3 -13 47.82 3.43
-2 -3 -13 49.05 3.83
2 4 13 1.59 1.73
-2 -4 -13 2.53 1.43
3 -4 13 22.37 2.63
-3 4 -13 21.78 2.71
3 -3 13 4.36 1.69
3 -3 13 4.27 1.69
-3 3 -13 3.9 1.67
3 -2 13 9.39 1.71
3 -2 13 9.43 1.91
-3 2 -13 12.17 1.95
3 -1 13 5.32 1.56
3 -1 13 3.27 1.48
-3 1 -13 3.44 1.47
-3 1 -13 2.57 0.84
-3 1 -13 3.18 1.25
3 0 13 3.05 1.4
3 0 13 2.58 1.45
-3 0 -13 3.42 1.35
-3 0 -13 3.9 0.94
-3 0 -13 3.98 1.27
3 1 13 1.92 1.38
3 1 13 2.47 1.51
-3 -1 -13 4.27 1.48
-3 -1 -13 3.13 0.97
3 2 13 14.69 2.15
-3 -2 -13 12.07 1.54
-3 -2 -13 10.8 1.97
3 3 13 4.45 1.74
-3 -3 -13 1.49 1.64
-3 -3 -13 2.57 1.23
-3 -4 -13 27.36 2.65
-3 -4 -13 26.48 3.2
4 -3 13 25.38 2.9
-4 3 -13 29.86 2.92
4 -2 13 2.57 1.62
-4 2 -13 3.52 1.56
4 -1 13 18.6 2.21
-4 1 -13 10.38 1.83
-4 1 -13 10.24 1.73
4 0 13 6.6 1.61
-4 0 -13 5.83 1.53
-4 0 -13 6.1 1.38
4 1 13 6.99 1.74
4 1 13 9.95 1.86
4 2 13 2.25 1.57
4 2 13 3.72 1.73
-4 -2 -13 2.88 0.9
-4 -2 -13 2.49 1.63
-4 -3 -13 29.93 3.07
5 -3 13 -0.72 1.53
-5 3 -13 -0.48 1.54
5 -2 13 21.07 2.77
-5 2 -13 18.77 2.37
-5 2 -13 21.5 2.65
5 -1 13 5.69 1.66
-5 1 -13 2.82 1.32
-5 1 -13 3.35 1.47
5 0 13 49.22 3.92
-5 0 -13 53.25 3.75
5 1 13 2.35 1.5
-5 -1 -13 4.48 1.53
-5 -1 -13 4.75 1.52
5 2 13 22.78 2.78
-5 -2 -13 22.45 2.7
5 3 13 -0.01 1.63
-5 -3 -13 1.3 1.66
6 -2 13 3.28 1.72
-6 2 -13 4.08 1.52
-6 2 -13 3.5 1.58
6 -1 13 24.1 2.77
-6 1 -13 25.78 2.62
-6 1 -13 25.04 2.66
6 0 13 1.23 1.44
-6 0 -13 1.48 1.29
-6 0 -13 0.02 1.35
6 1 13 23.62 3.04
-6 -1 -13 24.3 2.64
-6 -1 -13 25.81 2.69
6 2 13 1.85 1.67
-6 -2 -13 2.07 1.67
7 -1 13 1.95 1.55
-7 1 -13 0.29 1.33
-7 1 -13 2.32 1.48
7 0 13 6.17 1.74
-7 0 -13 4.16 1.44
-7 0 -13 3.02 1.53
7 1 13 0.4 1.6
-7 -1 -13 1.44 1.48
-7 -1 -13 0.12 1.36
-12 -1 14 11.54 1.5
-12 -1 14 8.33 1.86
12 1 -14 8.35 1.56
12 1 -14 8.43 1.53
-12 0 14 -0.03 1.39
-12 0 14 1.99 1.04
12 0 -14 1.42 1.12
12 0 -14 0.9 1.08
-12 1 14 7.18 1.94
12 -1 -14 11.6 1.61
12 -1 -14 11.57 1.57
-11 -2 14 3.43 1.32
11 2 -14 1.94 1.39
-11 -1 14 1.7 1.15
11 1 -14 2.17 1.16
11 1 -14 3.62 1.34
-11 0 14 10.72 1.4
11 0 -14 10.23 1.61
11 0 -14 9.04 1.52
-11 1 14 2.46 1.13
11 -1 -14 3.01 1.18
11 -1 -14 1.86 1.2
-11 2 14 1.64 1.18
11 -2 -14 4.01 1.47
11 -2 -14 2.74 1.24
-10 -3 14 6.21 1.61
10 3 -14 1.4 1.53
-10 -2 14 11.17 1.69
10 2 -14 7.37 1.66
-10 -1 14 8.72 1.44
10 1 -14 11.35 1.65
10 1 -14 9.27 1.53
-10 0 14 3.36 1.14
10 0 -14 3.32 1.26
10 0 -14 4.74 1.28
10 -1 -14 7.44 1.46
10 -1 -14 8.49 1.51
-10 2 14 7.98 1.52
10 -2 -14 10.59 1.76
10 -2 -14 8.87 1.6
-10 3 14 2.95 1.64
10 -3 -14 5.06 1.51
-9 -3 14 10.15 1.8
9 3 -14 5.97 1.72
-9 -2 14 26.07 2.42
9 2 -14 20.22 2.51
-9 -1 14 9.4 1.45
9 1 -14 6.42 1.43
9 1 -14 8.77 1.56
-9 0 14 6.68 1.33
9 0 -14 6.65 1.41
9 0 -14 7.35 1.44
-9 1 14 6.69 1.4
9 -1 -14 8.87 1.55
9 -1 -14 8.58 1.56
9 -2 -14 25.23 2.51
9 -2 -14 25.13 2.51
9 -3 -14 10.25 1.77
-8 -3 14 0.43 1.38
8 3 -14 3.04 1.57
-8 -2 14 0.53 1.24
8 2 -14 0.22 1.36
-8 -1 14 63.71 4.23
8 1 -14 65.76 4.49
8 1 -14 66.77 4.45
-8 0 14 0.78 1.1
8 0 -14 1.98 1.15
8 0 -14 0.55 1.18
-8 1 14 67.36 4.24
8 -1 -14 62.16 4.45
-8 2 14 -1.99 1.36
8 -2 -14 1.61 1.25
8 -2 -14 1.46 1.28
-8 3 14 2.8 1.64
8 -3 -14 -0.2 1.28
-7 -4 14 13.77 2.19
-7 -3 14 3.32 1.56
7 3 -14 1.25 1.47
-7 -2 14 57.77 4.16
7 2 -14 67.23 4.43
-7 -1 14 0.69 1.15
7 1 -14 1.13 1.1
7 1 -14 0.2 1.2
-7 0 14 21 2.19
7 0 -14 21.97 2.32
7 0 -14 22.85 2.38
-7 1 14 2.68 1.24
7 -1 -14 2.41 1.36
7 -1 -14 1.48 1.19
7 -2 -14 58.47 4.11
-7 3 14 2.76 1.61
-7 3 14 3.38 1.55
7 -3 -14 4.77 1.52
-7 4 14 16.56 2.27
7 -4 -14 11.85 2.04
-6 -4 14 2.76 1.64
6 4 -14 2.7 1.75
-6 -3 14 6.77 1.72
6 3 -14 8.49 1.82
6 3 -14 8.5 1.85
-6 -2 14 11.69 1.75
6 2 -14 10.55 1.87
6 2 -14 9.28 1.67
-6 -1 14 51.87 3.72
6 1 -14 57.62 4.01
-6 0 14 36.45 2.89
6 0 -14 35.13 2.97
6 0 -14 35.8 2.94
-6 1 14 66.69 4.14
6 -1 -14 55.08 4.17
6 -1 -14 56 4.15
-6 2 14 8.36 1.92
6 -2 -14 12.95 1.8
-6 3 14 7.96 1.79
-6 3 14 7.45 1.82
6 -3 -14 4.85 1.57
-6 4 14 3.95 1.68
6 -4 -14 1.77 1.55
-5 -4 14 2.88 1.27
-5 -4 14 3.75 1.68
5 4 -14 7.27 1.85
-5 -3 14 5.11 1.59
-5 -3 14 4.9 1.15
5 3 -14 4.59 1.59
5 3 -14 4.79 1.69
-5 -2 14 28.49 2.16
-5 -2 14 28.66 2.66
5 2 -14 28.37 2.62
5 2 -14 25.53 2.8
-5 -1 14 10.83 1.71
-5 -1 14 15.05 1.46
5 1 -14 12.88 1.94
5 1 -14 14.98 1.93
-5 0 14 40.21 3.15
-5 0 14 41.5 2.62
5 0 -14 42.02 3.25
5 0 -14 41.77 3.02
-5 1 14 10.67 1.79
5 -1 -14 15.26 1.84
5 -1 -14 12.08 1.88
5 -2 -14 27.23 2.44
5 -2 -14 26.56 2.61
-5 3 14 6.83 1.77
-5 3 14 4.61 1.73
5 -3 -14 6.46 1.64
-5 4 14 7.81 1.96
5 -4 -14 4.85 1.67
-4 -4 14 14.18 2.25
-4 -4 14 14.12 1.87
4 4 -14 14.82 2.1
-4 -3 14 30.19 2.86
-4 -3 14 29.29 2.53
4 3 -14 33.35 2.83
-4 -2 14 10.19 1.75
-4 -2 14 11.21 1.47
4 2 -14 15.73 1.84
4 2 -14 13.75 2.03
-4 -1 14 23.18 2.4
-4 -1 14 22.5 2.03
4 1 -14 24.86 2.65
4 1 -14 27.71 2.34
-4 0 14 1.31 1.21
-4 0 14 0.29 0.86
4 0 -14 1.62 1.16
4 0 -14 0.34 1.25
-4 1 14 30.13 2.7
-4 1 14 26.18 2.03
4 -1 -14 22.19 2.28
4 -1 -14 24.68 2.59
-4 2 14 10.63 1.98
-4 2 14 12.46 1.53
4 -2 -14 11.93 1.81
4 -2 -14 11.84 1.65
-4 3 14 34.27 3.17
-4 3 14 35.48 2.47
4 -3 -14 31.59 2.82
4 -3 -14 31.06 3.01
-4 4 14 15.36 2.37
-4 4 14 15.07 1.78
4 -4 -14 14.61 2.18
4 -4 -14 17.97 2.21
-3 -4 14 19.87 2.3
3 4 -14 19.05 2.41
-3 -3 14 9.37 1.55
-3 -3 14 8.47 1.78
3 3 -14 7.24 1.64
-3 -2 14 11.14 1.87
-3 -2 14 12.79 1.66
3 2 -14 17.79 2.16
3 2 -14 18.53 1.99
-3 -1 14 17.76 2.19
-3 -1 14 17.14 1.85
3 1 -14 19.5 2.05
3 1 -14 19.22 2.41
-3 0 14 54.52 3.81
-3 0 14 54.7 3.54
3 0 -14 54.37 3.68
3 0 -14 53.8 3.91
-3 1 14 19.39 1.84
-3 1 14 19.34 2.48
3 -1 -14 17.93 2.04
3 -1 -14 19.19 2.37
-3 2 14 18.88 1.86
-3 2 14 16.43 2.22
3 -2 -14 13.04 1.93
3 -2 -14 12.54 1.77
-3 3 14 12.26 1.6
-3 3 14 10.97 2
3 -3 -14 7.98 1.73
3 -3 -14 8.13 1.79
-3 4 14 22.08 2.84
-3 4 14 19.42 2.17
3 -4 -14 23.11 2.57
-2 -4 14 5.81 1.6
2 4 -14 4.72 1.56
-2 -3 14 44.32 3.19
2 3 -14 40.78 3.27
-2 -2 14 10.21 1.55
-2 -2 14 8.48 1.66
2 2 -14 8.21 1.5
-2 -1 14 22.76 2.04
-2 -1 14 22.76 2.34
2 1 -14 20.13 2.1
2 1 -14 16.85 2.22
2 1 -14 20.28 2.5
-2 0 14 0.73 1.03
-2 0 14 0.63 1.21
2 0 -14 0.99 1.19
2 0 -14 1.31 1.3
2 0 -14 1.18 1.12
-2 1 14 18.55 2.02
-2 1 14 16.81 2.28
2 -1 -14 25.07 2.54
2 -1 -14 25.21 2.24
-2 2 14 6.71 1.86
-2 2 14 6.34 1.42
2 -2 -14 8.01 1.65
2 -2 -14 8.55 1.55
-2 3 14 40.73 3.22
-2 3 14 39.42 3.65
2 -3 -14 49.54 3.38
-2 4 14 4.99 1.62
-2 4 14 7.07 2
2 -4 -14 7.47 1.78
-1 -4 14 33.55 2.81
1 4 -14 27.71 2.68
-1 -3 14 0.83 1.34
1 3 -14 -0.47 1.22
1 3 -14 0.55 1.55
-1 -2 14 5.78 1.38
1 2 -14 4.69 1.57
1 2 -14 4.17 1.28
-1 -1 14 1.16 1.31
-1 -1 14 0 1.08
1 1 -14 0.43 1.28
1 1 -14 1.32 1.11
-1 0 14 40.07 2.95
-1 0 14 41.75 3.21
1 0 -14 40.91 3.14
1 0 -14 40.18 2.99
-1 1 14 1.85 1.24
-1 1 14 3.27 1.53
1 -1 -14 1.7 1.28
1 -1 -14 1.48 1.21
-1 2 14 5.09 1.81
-1 2 14 3.89 1.42
1 -2 -14 6.1 1.43
-1 3 14 0.77 1.45
-1 3 14 1.13 1.67
-1 3 14 1.5 1.57
1 -3 -14 1.8 1.35
-1 4 14 27.26 2.89
1 -4 -14 35.82 2.99
0 -4 14 2.85 1.61
0 4 -14 2.14 1.32
0 -3 14 32.37 2.86
0 3 -14 32.61 2.66
0 3 -14 33.06 3.13
0 -2 14 0.04 1.26
0 2 -14 -0.47 1.06
0 2 -14 0.04 1.38
0 -1 14 11.08 1.63
0 -1 14 11.94 1.8
0 1 -14 10.79 1.51
0 1 -14 11.37 1.81
0 0 14 15.6 1.95
0 0 14 13.62 1.74
0 0 14 12.77 1.85
0 0 -14 13.16 1.62
0 0 -14 14 1.85
0 1 14 10.58 1.66
0 1 14 9.16 1.86
0 -1 -14 14.49 1.89
0 -1 -14 13.71 1.66
0 2 14 -0.8 1.37
0 -2 -14 -0.83 1.32
0 -2 -14 -0.19 1.22
0 -3 -14 33.66 2.9
0 4 14 3.6 1.71
0 -4 -14 5.1 1.62
1 -4 14 4.02 1.76
-1 4 -14 2.58 1.23
-1 4 -14 3.48 1.78
1 -3 14 -0.69 1.41
-1 3 -14 2.01 1.14
-1 3 -14 1.7 1.6
1 -2 14 30.38 2.71
1 -2 14 31.65 2.96
1 -2 14 29.45 3.07
-1 2 -14 31.17 2.97
-1 2 -14 35.46 2.58
1 -1 14 1.05 1.28
1 -1 14 2.32 1.37
-1 1 -14 0.82 1.37
-1 1 -14 1.02 1.03
1 0 14 114.63 7.04
1 0 14 121.31 7.34
-1 0 -14 120.78 6.92
-1 0 -14 116.35 7.06
1 1 14 1.48 1.44
1 1 14 2.77 1.44
-1 -1 -14 1.16 1.09
-1 -1 -14 2.6 1.4
1 2 14 34.24 2.95
-1 -2 -14 34.45 3.1
-1 -2 -14 33.88 2.82
1 3 14 1.17 1.59
-1 -3 -14 1.29 1.36
1 4 14 2.96 1.75
-1 -4 -14 2.64 1.51
2 -3 14 15.8 2.23
-2 3 -14 19.68 1.85
-2 3 -14 20.62 2.6
2 -2 14 1.78 1.44
2 -2 14 0.75 1.51
-2 2 -14 1.32 1.52
-2 2 -14 0.75 1
2 -1 14 62.85 4.22
2 -1 14 61.89 4.5
-2 1 -14 64.43 4.4
2 0 14 2.37 1.48
2 0 14 6 1.54
-2 0 -14 3.86 1.09
-2 0 -14 4.42 1.48
2 1 14 64.78 4.65
-2 -1 -14 59.33 4.31
-2 -1 -14 63.77 4.01
2 2 14 -0.25 1.52
-2 -2 -14 0.73 1.5
-2 -2 -14 0.52 1.13
-2 -3 -14 17.27 2.1
-2 -3 -14 17.17 2.43
3 -3 14 3.73 1.77
3 -3 14 5.37 1.82
-3 3 -14 3.38 1.73
3 -2 14 41.63 3.27
3 -2 14 37.82 3.66
-3 2 -14 43.29 2.69
-3 2 -14 39.33 3.45
3 -1 14 6.99 1.73
3 -1 14 5.64 1.7
-3 1 -14 4.35 0.98
-3 1 -14 7.21 1.69
3 0 14 13.96 2.06
3 0 14 16.07 1.99
-3 0 -14 14.3 1.58
-3 0 -14 13.88 1.95
3 1 14 3.9 1.67
3 1 14 3.68 1.52
-3 -1 -14 3.68 1.53
-3 -1 -14 5.18 1.1
3 2 14 44.4 3.87
-3 -2 -14 40.99 2.96
-3 -2 -14 38.81 3.48
3 3 14 2.44 1.81
-3 -3 -14 4.36 1.3
-3 -3 -14 4.13 1.8
4 -3 14 3.24 1.79
-4 3 -14 4.58 1.85
4 -2 14 10.58 2.09
-4 2 -14 8.77 1.95
4 -1 14 52.86 4.02
-4 1 -14 49.23 3.8
4 0 14 11.45 1.99
-4 0 -14 13.57 1.96
4 1 14 50.63 4.14
-4 -1 -14 51.5 3.84
4 2 14 5.32 1.85
4 2 14 5.09 1.79
-4 -2 -14 9.7 1.99
4 3 14 2.63 1.94
-4 -3 -14 1.16 1.75
5 -2 14 21.31 2.69
-5 2 -14 22.08 2.63
5 -1 14 5.85 1.75
-5 1 -14 4.99 1.65
5 0 14 12.18 2.04
-5 0 -14 11.54 1.92
5 1 14 3.99 1.62
-5 -1 -14 3.1 1.54
5 2 14 21.91 2.9
-5 -2 -14 23.39 2.83
6 -1 14 14.48 2.2
-6 1 -14 16.95 2.17
-6 1 -14 17.37 2.21
6 0 14 10.7 2.04
-6 0 -14 7.86 1.75
-6 0 -14 11.72 1.94
6 1 14 17.6 2.47
-6 -1 -14 15.4 2.23
-12 -1 15 13.44 1.7
-12 -1 15 9.75 1.99
12 1 -15 15 2.04
-12 0 15 2.69 1.16
12 0 -15 3.76 1.28
12 0 -15 1.78 1.2
-12 1 15 12.54 1.53
-12 1 15 10.24 2.07
12 -1 -15 14.01 1.89
-11 -2 15 18.12 2.21
-11 -1 15 4.12 1.27
11 1 -15 2.22 1.24
-11 0 15 9.91 1.44
11 0 -15 9.13 1.59
11 0 -15 9.31 1.57
-11 1 15 3.34 1.2
11 -1 -15 3.5 1.29
11 -1 -15 3.55 1.32
-11 2 15 19.51 2.09
11 -2 -15 19.3 2.21
11 -2 -15 14.44 2.09
-10 -2 15 0.81 1.34
10 2 -15 4.2 1.57
-10 -1 15 26.29 2.44
10 1 -15 29.86 2.72
10 1 -15 27.23 2.64
-10 0 15 9.26 1.44
10 0 -15 9.65 1.65
10 0 -15 7.71 1.55
-10 1 15 29.09 2.39
10 -1 -15 27.09 2.54
10 -1 -15 22.85 2.48
-10 2 15 1.85 1.34
10 -2 -15 2.11 1.48
10 -2 -15 2.45 1.35
-9 -3 15 9.44 1.85
9 3 -15 5.74 1.77
-9 -2 15 25.58 2.56
9 2 -15 28.49 2.86
-9 -1 15 10.24 1.58
9 1 -15 7.61 1.67
9 1 -15 9.16 1.64
-9 0 15 11.88 1.65
9 0 -15 12.76 1.83
9 0 -15 13.61 1.82
-9 1 15 10.2 1.59
9 -1 -15 8.37 1.63
9 -1 -15 9.34 1.66
9 -2 -15 26.6 2.78
-9 3 15 5.68 1.89
9 -3 -15 9.52 1.84
-8 -3 15 9.76 1.87
8 3 -15 7.35 1.83
-8 -2 15 8.8 1.7
8 2 -15 9.15 1.86
-8 -1 15 9.28 1.55
8 1 -15 5.92 1.58
-8 0 15 -0.3 1.16
8 0 -15 0.29 1.23
8 0 -15 -0.22 1.16
-8 1 15 6.69 1.48
8 -1 -15 7.75 1.58
8 -1 -15 8.44 1.65
-8 2 15 7.13 1.79
8 -2 -15 7.84 1.74
8 -3 -15 10.47 1.92
-7 -3 15 0.96 1.47
7 3 -15 -0.08 1.55
-7 -2 15 29.31 2.62
7 2 -15 21.51 2.75
-7 -1 15 19.51 2.22
7 1 -15 20.46 2.43
-7 0 15 8.7 1.56
7 0 -15 8.89 1.66
-7 1 15 21.57 2.3
7 -1 -15 19.18 2.4
7 -2 -15 27.9 2.78
-7 3 15 -0.32 1.7
7 -3 -15 0.54 1.45
-6 -4 15 1.69 1.68
6 4 -15 4.1 1.86
-6 -3 15 23.14 1.92
-6 -3 15 22.85 2.65
6 3 -15 22.25 2.81
6 3 -15 21.69 2.64
-6 -2 15 6.19 1.58
6 2 -15 3.43 1.62
6 2 -15 4.94 1.53
-6 -1 15 38.29 2.99
6 1 -15 37.34 2.88
6 1 -15 30.79 3.05
-6 0 15 6.96 1.53
6 0 -15 5.6 1.54
-6 1 15 34.65 3.05
6 -1 -15 39.08 3.22
-6 2 15 3.63 1.73
6 -2 -15 6.45 1.62
6 -3 -15 24.02 2.69
-6 4 15 2.81 1.72
6 -4 -15 3.63 1.74
-5 -4 15 23.82 2.3
-5 -4 15 23.8 2.9
5 4 -15 20.03 2.69
-5 -3 15 3.88 1.16
-5 -3 15 2.48 1.54
5 3 -15 3.8 1.6
5 3 -15 2.89 1.68
-5 -2 15 14.37 1.6
-5 -2 15 13.02 1.9
5 2 -15 8.33 1.73
5 2 -15 8.66 1.94
-5 -1 15 4.33 0.93
-5 -1 15 3.41 1.39
5 1 -15 5.8 1.38
5 1 -15 4.24 1.56
-5 0 15 8.23 1.59
-5 0 15 7.63 1.07
5 0 -15 7.27 1.45
5 0 -15 7.71 1.65
-5 1 15 4.75 1.54
5 -1 -15 3.78 1.33
5 -1 -15 2.96 1.54
5 -2 -15 16.17 1.9
5 -2 -15 14.27 2.08
-5 3 15 3.99 1.62
-5 3 15 3.35 1.8
5 -3 -15 4.52 1.55
5 -3 -15 4.39 1.63
-5 4 15 23.1 2.96
5 -4 -15 22.26 2.83
-4 -4 15 11.65 1.77
4 4 -15 8.26 1.93
-4 -3 15 43.42 3.53
-4 -3 15 44.47 3.15
4 3 -15 40.17 3.37
-4 -2 15 11.04 1.5
-4 -2 15 9.94 1.8
4 2 -15 9.57 1.94
4 2 -15 11.66 1.77
-4 -1 15 10.25 1.36
-4 -1 15 8.65 1.67
4 1 -15 8.88 1.82
4 1 -15 8.53 1.57
-4 0 15 2.47 0.99
-4 0 15 4.06 1.4
4 0 -15 3.4 1.42
4 0 -15 1.95 1.25
-4 1 15 7.72 1.77
-4 1 15 10.1 1.32
4 -1 -15 10.29 1.85
4 -1 -15 11.78 1.62
-4 2 15 6.72 1.99
-4 2 15 11.91 1.55
4 -2 -15 12.02 1.69
4 -2 -15 11.47 1.92
-4 3 15 48.94 3.85
-4 3 15 42.55 3.04
4 -3 -15 45.05 3.47
4 -3 -15 45.5 3.7
-4 4 15 9.65 2.16
4 -4 -15 12.59 2.02
-3 -4 15 7.33 1.67
3 4 -15 12.15 2
-3 -3 15 4.43 1.7
-3 -3 15 3.03 1.32
3 3 -15 4.12 1.52
-3 -2 15 20.71 2.18
-3 -2 15 21.23 2.48
3 2 -15 22.35 2.31
-3 -1 15 2.26 1.35
-3 -1 15 5.51 1.27
3 1 -15 3.37 1.28
3 1 -15 4.37 1.57
-3 0 15 98.87 5.9
-3 0 15 99.79 6.13
3 0 -15 98.77 6.02
3 0 -15 99.42 6.3
-3 1 15 4.83 1.59
-3 1 15 4.6 1.18
3 -1 -15 4.68 1.4
3 -1 -15 5.4 1.65
-3 2 15 22.6 2.13
-3 2 15 19.58 2.61
3 -2 -15 22.05 2.36
3 -2 -15 21.12 2.57
-3 3 15 3.69 1.33
-3 3 15 2.93 1.67
-3 3 15 3.7 1.89
3 -3 -15 5.1 1.56
-3 4 15 10.24 1.73
-3 4 15 14.83 2.41
3 -4 -15 11.92 2.08
-2 -4 15 1.1 1.45
2 4 -15 0.77 1.41
-2 -3 15 14.12 1.95
2 3 -15 18.4 2.22
-2 -2 15 1.82 1.43
-2 -2 15 2.05 1.26
2 2 -15 1.85 1.29
-2 -1 15 46.63 3.33
2 1 -15 47.06 3.36
-2 0 15 0.57 1.29
-2 0 15 0.39 1.1
2 0 -15 -1.24 1.3
2 0 -15 1.29 1.18
-2 1 15 45.92 3.33
2 -1 -15 46.51 3.43
2 -1 -15 51.49 3.79
-2 2 15 2.85 1.8
-2 2 15 2.2 1.33
2 -2 -15 2.35 1.38
-2 3 15 18.53 2.19
-2 3 15 19.18 2.48
2 -3 -15 16.75 2.18
-2 4 15 0.28 1.48
2 -4 -15 1.55 1.56
-1 -4 15 5.42 1.7
1 4 -15 9.18 1.7
-1 -3 15 5.21 1.6
1 3 -15 4.01 1.45
-1 -2 15 40.42 3.25
1 2 -15 45.7 3.29
1 2 -15 47.78 3.64
-1 -1 15 10.56 1.59
-1 -1 15 8.73 1.68
1 1 -15 10.5 1.59
1 1 -15 11.66 1.83
-1 0 15 66.21 4.39
-1 0 15 60.39 4.1
1 0 -15 62.17 4.28
1 0 -15 64.13 4.18
-1 1 15 9.26 1.58
-1 1 15 8.02 1.81
1 -1 -15 11.93 1.82
1 -1 -15 9.52 1.63
-1 2 15 47.56 3.31
1 -2 -15 39.43 3.35
-1 3 15 1.16 1.53
1 -3 -15 4.87 1.6
-1 4 15 7.43 1.84
1 -4 -15 6.73 1.78
0 -4 15 1.41 1.63
0 4 -15 1.61 1.32
0 -3 15 27.64 2.69
0 3 -15 27.98 3.02
0 3 -15 29.42 2.51
0 -2 15 6.72 1.6
0 2 -15 7.55 1.47
0 2 -15 7.1 1.83
0 -1 15 20.24 2.08
0 1 -15 15.16 1.91
0 1 -15 18.87 2.34
0 0 15 2.95 1.41
0 0 -15 4.52 1.28
0 0 -15 7.06 1.55
0 1 15 14.7 1.97
0 -1 -15 19.24 2.32
0 -1 -15 18.9 2.09
0 2 15 7.28 1.72
0 -2 -15 9.26 1.69
0 -2 -15 8.64 1.88
0 -3 -15 26.51 2.68
0 4 15 1.12 1.71
0 -4 -15 0.83 1.55
1 -3 15 8.63 1.89
-1 3 -15 10.15 2.09
-1 3 -15 10.62 1.53
1 -2 15 22.01 2.35
-1 2 -15 19.96 2.62
-1 2 -15 22.98 2.17
1 -1 15 2.45 1.48
1 -1 15 1.49 1.37
-1 1 -15 2.99 1.53
-1 1 -15 0.72 1.08
1 0 15 6.48 1.65
1 0 15 3.89 1.53
-1 0 -15 6.39 1.32
-1 0 -15 6.76 1.56
1 1 15 0.95 1.42
-1 -1 -15 0.85 1.16
-1 -1 -15 1.02 1.42
-1 -2 -15 22.14 2.76
-1 -2 -15 25.19 2.46
1 3 15 6.89 1.9
-1 -3 -15 11.11 1.84
2 -3 15 4.76 1.78
-2 3 -15 6.47 1.9
-2 3 -15 4.85 1.18
2 -2 15 4.69 1.72
2 -2 15 2.85 1.58
-2 2 -15 4.98 1.74
-2 2 -15 3.99 1.14
2 -1 15 33.81 3.11
2 -1 15 29.88 2.73
-2 1 -15 30.05 2.97
2 0 15 18.85 2.43
2 0 15 13.18 2.07
-2 0 -15 14.69 1.78
-2 0 -15 16.35 2.12
2 1 15 31.05 3.3
2 1 15 26.8 2.78
-2 -1 -15 31.59 2.92
-2 -1 -15 30.69 2.5
2 2 15 2.64 1.67
-2 -2 -15 6.23 1.86
-2 -2 -15 3.74 1.29
2 3 15 3.25 1.81
-2 -3 -15 8.53 1.7
-2 -3 -15 6.01 1.94
3 -3 15 0.51 1.75
-3 3 -15 -0.7 1.63
3 -2 15 35.64 3
3 -2 15 35.31 3.41
-3 2 -15 27.77 3.05
3 -1 15 5.4 1.7
3 -1 15 5.65 1.71
-3 1 -15 4.5 0.98
-3 1 -15 3.95 1.66
3 0 15 5.62 1.73
3 0 15 5.91 1.69
-3 0 -15 4.11 1.05
-3 0 -15 6.86 1.69
3 1 15 5.96 1.83
3 1 15 4.01 1.59
-3 -1 -15 4.71 1.12
-3 -1 -15 6.32 1.69
-3 -2 -15 38.65 3.55
-3 -2 -15 39.35 2.86
3 3 15 0.08 1.74
-3 -3 -15 1.81 1.77
-3 -3 -15 1.61 1.23
4 -2 15 3.31 1.74
-4 2 -15 3.64 1.76
4 -1 15 3.91 1.64
-4 1 -15 2.2 1.58
4 0 15 10.61 2.03
-4 0 -15 10.17 1.92
4 1 15 2.85 1.82
4 1 15 2.46 1.61
-4 -1 -15 3.59 1.58
4 2 15 3.87 1.92
4 2 15 4.85 1.88
-4 -2 -15 4.35 1.82
5 -2 15 15.25 2.47
-5 2 -15 15.24 2.34
5 -1 15 0.38 1.51
-5 1 -15 0.48 1.5
5 0 15 2.33 1.61
-5 0 -15 2.14 1.53
5 1 15 -1.49 1.52
-5 -1 -15 1.06 1.49
-5 -2 -15 15.61 2.43
6 0 15 8.4 2
-6 0 -15 6.6 1.84
-11 -1 16 4.69 1.37
11 1 -16 4.6 1.56
-11 0 16 0.71 1.13
11 0 -16 0.05 1.34
11 0 -16 -0.91 1.12
-11 1 16 4.02 1.34
11 -1 -16 4.2 1.42
11 -1 -16 2.56 1.35
-10 -2 16 4.38 1.51
10 2 -16 1.09 1.56
-10 -1 16 2.77 1.31
10 1 -16 2.08 1.42
-10 0 16 0.05 1.17
10 0 -16 0.02 1.31
10 0 -16 0.69 1.2
-10 1 16 3.8 1.35
10 -1 -16 3.21 1.45
10 -1 -16 3.45 1.39
-10 2 16 1.64 1.38
10 -2 -16 3.69 1.64
-9 -2 16 7.66 1.66
9 2 -16 3.77 1.66
-9 -1 16 2.15 1.33
9 1 -16 2.32 1.46
-9 0 16 8.95 1.63
9 0 -16 11.05 1.75
-9 1 16 0.84 1.27
9 -1 -16 0.57 1.36
-9 2 16 4.21 1.57
9 -2 -16 5.86 1.75
-8 -3 16 17.72 2.35
8 3 -16 15.57 2.38
-8 -2 16 1 1.4
8 2 -16 1.47 1.56
-8 -1 16 17.93 2.22
8 1 -16 18.71 2.44
-8 0 16 2.17 1.36
8 0 -16 3.11 1.45
-8 1 16 18.14 2.24
8 -1 -16 19.12 2.41
-8 2 16 2.3 1.61
8 -2 -16 3.19 1.68
8 -3 -16 18.93 2.44
-7 -3 16 0.35 1.54
7 3 -16 0.18 1.63
-7 -2 16 14.39 2.09
7 2 -16 16.62 2.32
-7 -1 16 1.2 1.31
7 1 -16 0.22 1.37
-7 0 16 40.36 3.17
7 0 -16 39.49 3.31
-7 1 16 2.41 1.41
7 -1 -16 1.35 1.45
7 -2 -16 16.31 2.3
-7 3 16 1.31 1.88
7 -3 -16 1.81 1.61
-6 -3 16 32.07 2.47
-6 -3 16 32.75 3.2
6 3 -16 36.51 3.2
6 3 -16 36.66 3.48
-6 -2 16 0.44 1.43
6 2 -16 3.37 1.71
6 2 -16 2.14 1.51
-6 -1 16 14.65 2.06
6 1 -16 21.61 2.31
6 1 -16 21.12 2.57
-6 0 16 2.21 1.38
6 0 -16 2.39 1.46
-6 1 16 20.52 2.39
6 -1 -16 16.17 2.23
-6 2 16 2.52 1.77
6 -2 -16 3.73 1.67
6 -3 -16 35.32 3.32
-5 -3 16 7.32 1.84
-5 -3 16 6.35 1.36
5 3 -16 8.3 1.83
-5 -2 16 33.18 2.61
-5 -2 16 31.7 3.11
5 2 -16 38.66 3.49
5 2 -16 42.88 3.16
-5 -1 16 2.57 1.44
-5 -1 16 5.39 1.08
5 1 -16 4.11 1.47
5 1 -16 5.48 1.69
-5 0 16 95.08 6.18
-5 0 16 102.03 5.79
5 0 -16 101.68 6.16
5 0 -16 100.48 6.42
-5 1 16 4.51 1.56
-5 1 16 3.52 0.9
5 -1 -16 4.09 1.42
5 -1 -16 3.93 1.6
-5 2 16 41.88 2.48
5 -2 -16 32.79 3.04
5 -2 -16 32.98 3.34
-5 3 16 6.38 2.11
5 -3 -16 7.12 1.92
5 -3 -16 8.59 1.75
-4 -3 16 24.48 2.79
-4 -3 16 23.22 2.31
4 3 -16 20.67 2.51
-4 -2 16 12.45 2.02
-4 -2 16 12.63 1.63
4 2 -16 12.34 1.89
-4 -1 16 27.92 2.3
4 1 -16 26.32 2.9
4 1 -16 26.58 2.56
-4 0 16 10.71 1.84
-4 0 16 10.25 1.41
4 0 -16 8.23 1.6
4 0 -16 9.6 1.8
-4 1 16 21.95 2.67
-4 1 16 24.56 2.17
4 -1 -16 28.39 2.55
4 -1 -16 28.08 2.82
-4 2 16 13.69 1.67
-4 2 16 8.71 2.16
4 -2 -16 14.03 1.94
4 -2 -16 13.29 2.15
-4 3 16 20.45 2.02
4 -3 -16 25.74 2.84
4 -3 -16 23.31 2.56
-3 -3 16 17.44 2.13
3 3 -16 18.19 2.31
-3 -2 16 17.47 2.12
-3 -2 16 16.14 2.26
3 2 -16 19.95 2.24
-3 -1 16 1.89 1.43
-3 -1 16 2.66 1.23
3 1 -16 2.71 1.32
-3 0 16 23.24 2.51
-3 0 16 22.5 2.14
3 0 -16 22.98 2.57
3 0 -16 18.6 2.26
-3 1 16 2.84 1.54
-3 1 16 2.26 1.16
3 -1 -16 3.15 1.57
3 -1 -16 3.23 1.4
-3 2 16 20.23 2.08
3 -2 -16 18.07 2.34
-3 3 16 19.05 2.16
3 -3 -16 19.63 2.45
-2 -3 16 14.96 2
2 3 -16 13.45 2
-2 -2 16 5.43 1.48
2 2 -16 6.74 1.53
-2 -1 16 16.26 1.99
2 1 -16 18.18 2.12
-2 0 16 8.8 1.75
-2 0 16 8.37 1.47
2 0 -16 8.93 1.6
-2 1 16 18.08 2.29
-2 1 16 17.97 2.02
2 -1 -16 15.59 2.03
-2 2 16 3.01 1.94
-2 2 16 6.33 1.52
2 -2 -16 7.61 1.63
-2 3 16 16.6 2.19
2 -3 -16 19.68 2.5
-1 -3 16 1.35 1.51
1 3 -16 1.13 1.36
-1 -2 16 24.91 2.4
1 2 -16 22.97 2.36
-1 -1 16 -0.18 1.24
1 1 -16 0.84 1.48
1 1 -16 1.22 1.23
-1 0 16 10.67 1.82
-1 0 16 9.03 1.6
1 0 -16 11.06 1.83
1 0 -16 9.16 1.6
-1 1 16 2.91 1.61
-1 1 16 2.42 1.39
1 -1 -16 0.34 1.23
-1 2 16 23.35 2.49
1 -2 -16 28.51 2.69
-1 3 16 -1.73 1.44
1 -3 -16 1.81 1.47
0 -3 16 8.55 1.88
0 3 -16 7.44 1.59
0 -2 16 -0.32 1.36
0 2 -16 0.2 1.62
0 2 -16 0.35 1.19
0 -1 16 19.62 2.27
0 1 -16 23.16 2.6
0 1 -16 23.71 2.23
0 0 16 5.38 1.55
0 0 -16 5.47 1.37
0 0 -16 9.16 1.78
0 1 16 23.64 2.46
0 -1 -16 25.02 2.68
0 -1 -16 25.08 2.38
0 2 16 -0.68 1.45
0 -2 -16 -1 1.3
0 3 16 3.21 1.76
0 -3 -16 7.69 1.72
1 -3 16 4.92 1.83
-1 3 -16 9.83 2.19
-1 3 -16 11.87 1.55
1 -2 16 31.73 2.77
-1 2 -16 27.19 2.45
-1 2 -16 27.34 3.01
1 -1 16 4.5 1.58
-1 1 -16 4 1.68
-1 1 -16 5.02 1.29
1 0 16 0.99 1.45
-1 0 -16 1 1.12
-1 0 -16 1.1 1.44
1 1 16 2.97 1.52
-1 -1 -16 4.26 1.61
-1 -1 -16 4.02 1.29
1 2 16 30.01 3.02
-1 -2 -16 31.76 3.27
-1 -2 -16 37.74 2.92
1 3 16 5.45 1.96
-1 -3 -16 6.26 1.67
2 -3 16 2.47 1.83
-2 3 -16 4.24 1.93
-2 3 -16 7.59 1.26
2 -2 16 0.45 1.53
-2 2 -16 -1.57 1.59
-2 2 -16 -0.63 1.03
2 -1 16 38.62 3.25
-2 1 -16 44.74 3.5
2 0 16 -0.05 1.54
-2 0 -16 2.22 1.52
-2 0 -16 1.56 1.09
2 1 16 40.4 3.38
-2 -1 -16 43.06 3.49
-2 -1 -16 42.42 3.07
2 2 16 1.62 1.76
-2 -2 -16 -0.63 1.63
-2 -2 -16 0.62 1.25
2 3 16 5.18 1.95
-2 -3 -16 2.09 1.42
3 -2 16 17.94 2.42
-3 2 -16 27.15 2.88
3 -1 16 10.22 1.97
3 -1 16 10.45 2.04
-3 1 -16 10.06 1.24
-3 1 -16 11.45 2.03
3 0 16 28.24 2.84
3 0 16 31.95 3.11
-3 0 -16 26.44 2.22
-3 0 -16 30.27 2.88
3 1 16 7.17 2
-3 -1 -16 12.49 2.06
-3 -1 -16 14.45 1.69
-3 -2 -16 22.35 2.83
-3 -2 -16 24.32 2.23
-4 2 -16 1.54 1.73
4 -1 16 13.83 2.33
-4 1 -16 21.86 2.57
4 0 16 0.92 1.57
-4 0 -16 0.21 1.52
4 1 16 21.19 2.71
4 1 16 17.87 2.47
-4 -1 -16 20.46 2.52
4 2 16 0.2 1.84
-4 -2 -16 0.25 1.68
5 0 16 33.68 3.33
-5 0 -16 28.34 3.02
-11 0 17 34.72 2.81
-10 -1 17 15.71 2.02
10 1 -17 16.63 2.21
-10 0 17 5.48 1.45
10 0 -17 6.21 1.64
-10 1 17 18.27 2.21
10 -1 -17 20.2 2.48
-9 -2 17 10.57 1.92
9 2 -17 13.25 2.19
-9 -1 17 3.3 1.47
9 1 -17 2.05 1.54
9 0 -17 29.45 2.92
-9 1 17 2.97 1.44
9 -1 -17 2.49 1.51
-9 2 17 11.84 1.93
9 -2 -17 8.92 2.02
-8 -2 17 1.28 1.53
8 2 -17 3.98 1.74
-8 -1 17 20.25 2.34
8 1 -17 15.39 2.22
-8 0 17 3.58 1.45
8 0 -17 1.36 1.47
-8 1 17 19.56 2.35
8 -1 -17 21.4 2.53
-8 2 17 2.09 1.65
8 -2 -17 4.38 1.86
-7 -3 17 5.07 1.78
7 3 -17 1.73 1.85
-7 -2 17 8.06 1.77
7 2 -17 5.02 1.86
-7 -1 17 -0.31 1.33
7 1 -17 1.41 1.47
-7 0 17 13.13 1.98
7 0 -17 14.84 2.1
-7 1 17 0.83 1.41
7 -1 -17 1.05 1.52
-7 2 17 6.67 1.95
7 -2 -17 8.2 2.02
-7 3 17 0.67 1.99
7 -3 -17 4.39 1.82
-6 -3 17 22.16 2.75
6 3 -17 17.86 2.48
-6 -2 17 4.49 1.64
6 2 -17 2.74 1.78
6 2 -17 2.95 1.59
-6 -1 17 9.19 1.81
6 1 -17 9.03 1.77
6 1 -17 10.02 1.98
-6 0 17 6.97 1.68
6 0 -17 5.82 1.7
-6 1 17 9.01 1.83
6 -1 -17 10.13 1.91
-6 2 17 1.05 1.83
6 -2 -17 4.03 1.89
6 -3 -17 23.05 2.91
-5 -3 17 1.54 1.18
-5 -3 17 1.66 1.7
5 3 -17 1.84 1.59
-5 -2 17 18.51 2.37
-5 -2 17 17.88 1.86
5 2 -17 14.95 2.19
5 2 -17 14.82 2.44
-5 -1 17 6.26 1.68
-5 -1 17 7.98 1.26
5 1 -17 8.49 1.93
5 1 -17 6.65 1.67
-5 0 17 26.79 2.65
-5 0 17 24.31 2.02
5 0 -17 23.97 2.68
5 0 -17 21.85 2.46
-5 1 17 7.37 1.83
-5 1 17 9.14 1.18
5 -1 -17 7.77 1.87
5 -1 -17 6 1.65
-5 2 17 10.85 2.32
5 -2 -17 14.78 2.42
5 -2 -17 19.28 2.32
-5 3 17 1.36 2.09
5 -3 -17 1.05 1.74
5 -3 -17 2.35 1.62
-4 -3 17 1.11 1.27
-4 -3 17 1.16 1.67
4 3 -17 0.34 1.51
-4 -2 17 2.03 1.19
-4 -2 17 3.07 1.62
4 2 -17 4.22 1.55
-4 -1 17 8.34 1.45
-4 -1 17 8.14 1.83
4 1 -17 11.73 1.77
4 1 -17 9.89 1.99
-4 0 17 7.64 1.39
-4 0 17 6.97 1.73
4 0 -17 8.25 1.81
4 0 -17 8.41 1.62
-4 1 17 12.55 1.55
-4 1 17 9.76 1.93
4 -1 -17 11.13 1.84
4 -1 -17 10.16 1.98
-4 2 17 3.16 1.96
-4 2 17 2.84 1.18
4 -2 -17 2.36 1.54
4 -2 -17 5.17 1.93
-4 3 17 1.08 1.15
-4 3 17 1.05 2.03
4 -3 -17 2.84 1.65
-3 -3 17 4.04 1.45
3 3 -17 4.24 1.62
-3 -2 17 21.22 2.29
-3 -2 17 18.62 2.5
3 2 -17 23.93 2.41
-3 -1 17 11.85 1.7
-3 -1 17 9.05 1.91
3 1 -17 12.71 1.85
-3 0 17 2.22 1.22
-3 0 17 1.94 1.53
3 0 -17 1.45 1.33
-3 1 17 13.31 1.68
-3 1 17 11.04 2.03
3 -1 -17 11.3 1.9
-3 2 17 22.7 2.21
3 -2 -17 19.84 2.47
-3 3 17 5.01 1.5
-3 3 17 5.45 2.25
3 -3 -17 4.89 1.75
-2 -3 17 5.67 1.61
2 3 -17 5.59 1.7
-2 -2 17 1.8 1.39
2 2 -17 3.05 1.43
-2 -1 17 45.96 3.49
2 1 -17 53.14 3.62
-2 0 17 4.17 1.37
-2 0 17 3.35 1.61
2 0 -17 3.55 1.45
-2 1 17 49.53 3.51
-2 1 17 48.92 3.89
2 -1 -17 49.3 3.66
-2 2 17 2.74 1.43
-2 2 17 3.29 2.07
2 -2 -17 3.07 1.55
-2 3 17 6.82 1.73
2 -3 -17 6.5 1.75
-1 -3 17 -1 1.51
1 3 -17 1.59 1.4
-1 -2 17 25.92 2.55
1 2 -17 25.8 2.49
-1 -1 17 1.91 1.4
1 1 -17 4.94 1.39
-1 0 17 42.63 3.27
1 0 -17 44.1 3.27
-1 1 17 3.33 1.51
1 -1 -17 4.1 1.46
-1 2 17 29.79 2.8
1 -2 -17 32.33 2.97
-1 3 17 1.1 1.54
1 -3 -17 0.98 1.56
0 3 -17 13.59 1.91
0 -2 17 -0.97 1.41
0 2 -17 1.7 1.72
0 2 -17 0.28 1.23
0 -1 17 34.33 3.03
0 1 -17 41.47 3
0 1 -17 38.91 3.43
0 0 17 1.42 1.4
0 0 -17 3.48 1.6
0 0 -17 1.2 1.23
0 1 17 43.53 3.33
0 -1 -17 40.73 3.25
0 2 17 -0.03 1.49
0 -2 -17 0 1.36
0 3 17 10.38 2.08
0 -3 -17 7.75 1.82
1 -2 17 19.36 2.43
-1 2 -17 21.66 2.7
-1 2 -17 17.24 2.1
1 -1 17 2.71 1.58
-1 1 -17 3 1.68
-1 1 -17 0.06 1.16
1 0 17 19.2 2.32
-1 0 -17 16.64 2.07
-1 0 -17 18.88 2.38
1 1 17 2.57 1.65
-1 -1 -17 1.92 1.58
-1 -1 -17 1.75 1.27
-1 -2 -17 19.35 2.33
2 -2 17 0.75 1.65
-2 2 -17 1.29 1.11
-2 2 -17 1.44 1.69
2 -1 17 11.7 1.94
-2 1 -17 9.69 2.01
-2 1 -17 8.11 1.42
2 0 17 0.7 1.61
-2 0 -17 0.75 1.52
-2 0 -17 0.27 1.11
2 1 17 7.84 1.91
-2 -1 -17 12.08 2.08
-2 -1 -17 10.68 1.62
2 2 17 2.12 1.87
-2 -2 -17 0.97 1.29
-2 -2 -17 0.92 1.72
3 -1 17 4.72 1.82
-3 1 -17 4.05 1.76
3 0 17 28.81 2.95
-3 0 -17 28.2 2.97
3 1 17 3.97 1.88
-3 -1 -17 5.59 1.79
-3 -1 -17 7.39 1.3
4 0 17 1.66 1.74
-4 0 -17 1.51 1.66
-10 -1 18 5.43 1.64
-10 0 18 -0.46 1.31
10 0 -18 0.01 1.52
-10 1 18 2.42 1.45
-9 -1 18 5.89 1.68
9 1 -18 6.93 1.81
-9 0 18 1.9 1.45
9 0 -18 1.85 1.57
-9 1 18 7.96 1.75
9 -1 -18 7.05 1.83
-8 -2 18 3.51 1.67
8 2 -18 2.33 1.75
-8 -1 18 6.03 1.66
8 1 -18 5.65 1.75
-8 0 18 0.98 1.49
8 0 -18 0.86 1.52
-8 1 18 6.5 1.71
8 -1 -18 7.43 1.85
-8 2 18 4.28 1.73
8 -2 -18 2.89 1.87
-7 -2 18 24.55 2.81
7 2 -18 25.47 3.16
-7 -1 18 5.66 1.64
7 1 -18 5.28 1.79
7 0 -18 20.66 2.67
-7 1 18 6.82 1.8
7 -1 -18 5.31 1.79
7 -2 -18 23.44 3.04
-6 -2 18 9.86 2.02
6 2 -18 7.64 2.15
6 2 -18 11.46 2.03
-6 -1 18 22.26 2.79
6 1 -18 31.8 2.85
6 1 -18 29.77 3.14
-6 0 18 2.46 1.54
6 0 -18 3.67 1.59
6 0 -18 3.3 1.57
-6 1 18 28.41 2.81
6 -1 -18 21.87 2.81
-6 2 18 6.48 2
6 -2 -18 8.02 2.18
-5 -3 18 -0.83 1.68
-5 -3 18 -0.39 1.18
5 3 -18 1.54 1.66
-5 -2 18 27.03 2.4
-5 -2 18 28.88 3.05
5 2 -18 32.11 2.92
-5 -1 18 0.49 1.5
-5 -1 18 0.12 1.01
5 1 -18 0.19 1.41
5 1 -18 1.29 1.59
-5 0 18 16.62 2.24
-5 0 18 17.02 1.8
5 0 -18 15.52 2.07
5 0 -18 15.77 2.23
-5 1 18 -0.11 1.49
-5 1 18 0.47 0.94
5 -1 -18 -1.1 1.41
5 -1 -18 2.07 1.62
5 -2 -18 27.87 2.83
5 -2 -18 26.56 3.25
-5 3 18 1.11 2.17
5 -3 -18 0.87 1.68
-4 -3 18 5.37 1.5
4 3 -18 6.59 1.83
-4 -2 18 0.26 1.58
-4 -2 18 0.28 1.17
4 2 -18 0.23 1.43
-4 -1 18 53.58 3.72
4 1 -18 57.37 4
-4 0 18 1.3 1.56
-4 0 18 0.96 1.15
4 0 -18 1.77 1.44
-4 1 18 56.17 4.26
-4 1 18 55.91 3.71
4 -1 -18 54.81 4.05
-4 2 18 0.22 1.92
-4 2 18 1.75 1.17
4 -2 -18 0.49 1.49
-4 3 18 8.02 2.43
-4 3 18 8.54 1.46
4 -3 -18 5.08 1.88
-3 -3 18 9.99 1.79
3 3 -18 7.15 1.85
-3 -2 18 16.97 2.19
3 2 -18 15.04 2.1
-3 -1 18 4.72 1.7
-3 -1 18 2.92 1.34
3 1 -18 2.84 1.47
-3 0 18 4.35 1.72
-3 0 18 3.72 1.36
3 0 -18 4.18 1.52
-3 1 18 2.05 1.31
-3 1 18 2.85 1.7
3 -1 -18 3.68 1.57
-3 2 18 12.07 2.5
-3 2 18 15.79 2.04
3 -2 -18 17.51 2.25
-3 3 18 7.72 2.51
-3 3 18 5.44 1.55
3 -3 -18 6.55 1.87
-2 -3 18 7.8 1.79
2 3 -18 9.02 1.88
-2 -2 18 2.35 1.51
2 2 -18 2.44 1.48
-2 -1 18 7.09 1.59
2 1 -18 9.81 1.81
-2 0 18 0.44 1.29
2 0 -18 0.37 1.33
-2 1 18 5.89 1.55
2 -1 -18 9.44 1.81
-2 2 18 1.55 1.47
2 -2 -18 3.48 1.63
-2 3 18 12.15 1.93
2 -3 -18 7.23 1.93
-1 -2 18 17.2 2.2
1 2 -18 13.5 1.95
-1 -1 18 4.21 1.57
1 1 -18 2.45 1.41
-1 0 18 2.05 1.43
1 0 -18 2.2 1.35
-1 1 18 2.3 1.52
1 -1 -18 3.7 1.48
-1 2 18 15.7 2.22
1 -2 -18 22.16 2.58
0 -2 18 0.46 1.56
0 2 -18 2.1 1.36
0 -1 18 9.39 1.79
0 1 -18 7.13 1.58
0 0 18 1.48 1.48
0 0 -18 2.92 1.36
0 1 18 6.13 1.81
0 -1 -18 12.78 1.89
0 2 18 3.1 1.72
0 -2 -18 1.6 1.47
1 -2 18 1.3 1.72
-1 2 -18 5.8 2.03
-1 2 -18 4.3 1.4
1 -1 18 4.91 1.74
-1 1 -18 2.81 1.3
-1 1 -18 4.25 1.76
1 0 18 13.82 2.07
-1 0 -18 14.18 1.85
-1 0 -18 12.85 2.22
1 1 18 5.05 1.82
-1 -1 -18 3.42 1.4
1 2 18 5.02 1.85
-1 -2 -18 2.93 1.48
2 -1 18 1.68 1.67
-2 1 -18 1.36 1.69
2 0 18 17.38 2.34
-2 0 -18 15.18 2.32
-2 0 -18 15.53 1.99
2 1 18 1.43 1.8
-2 -1 -18 3.85 1.76
-2 -1 -18 2.07 1.26
-8 -1 19 20.31 2.61
8 1 -19 22.4 2.85
-8 0 19 1.7 1.58
8 0 -19 1.19 1.54
-8 1 19 28.02 2.89
8 -1 -19 25.7 2.99
-7 -2 19 6.99 1.91
7 2 -19 5.66 2.1
-7 -1 19 3.69 1.65
7 1 -19 2.86 1.73
-7 0 19 4.54 1.7
7 0 -19 4.31 1.73
-7 1 19 3.12 1.73
7 -1 -19 3.78 1.79
-7 2 19 6.5 2
7 -2 -19 6.52 2.1
-6 -2 19 5.63 1.86
6 2 -19 4.37 1.77
-6 -1 19 6.77 1.83
6 1 -19 9.55 1.87
6 1 -19 10.32 2.1
-6 0 19 0.07 1.56
6 0 -19 0.49 1.42
6 0 -19 -0.88 1.46
-6 1 19 11.44 2.04
6 -1 -19 4.91 1.92
-6 2 19 4.84 1.97
6 -2 -19 3.5 1.99
-5 -2 19 8.93 1.5
-5 -2 19 7.99 1.97
5 2 -19 5.69 1.81
-5 -1 19 2.96 1.16
-5 -1 19 3.86 1.74
5 1 -19 3.92 1.59
-5 0 19 6.13 1.8
-5 0 19 5.01 1.23
5 0 -19 2.22 1.62
5 0 -19 4.22 1.62
-5 1 19 4.68 1.18
-5 1 19 3.53 1.71
5 -1 -19 3.73 1.86
5 -1 -19 4.06 1.68
-5 2 19 2.69 2.02
5 -2 -19 6.51 1.79
-4 -2 19 2.96 1.77
-4 -2 19 1.7 1.3
4 2 -19 3.21 1.62
-4 -1 19 18.97 2.06
4 1 -19 14.34 2.15
-4 0 19 17.81 2.11
-4 0 19 20.64 2.64
4 0 -19 19.31 2.38
-4 1 19 14.72 1.96
-4 1 19 12.94 2.26
4 -1 -19 19.31 2.33
-4 2 19 1.47 1.25
-4 2 19 1.94 1.95
4 -2 -19 0.6 1.69
-3 -2 19 4.88 1.57
3 2 -19 4.89 1.64
-3 -1 19 10.59 1.75
3 1 -19 9.28 1.85
-3 0 19 21.23 2.33
-3 0 19 24.94 2.83
3 0 -19 23.13 2.58
-3 1 19 9.05 1.64
-3 1 19 10.19 2.09
3 -1 -19 9.74 1.88
-3 2 19 5.31 2.12
-3 2 19 4.25 1.48
3 -2 -19 4.72 1.74
-2 -2 19 3.31 1.61
2 2 -19 6.14 1.69
-2 -1 19 3.28 1.52
2 1 -19 7.05 1.72
-2 0 19 5.32 1.58
2 0 -19 9.69 1.79
-2 1 19 3.7 1.48
2 -1 -19 4.08 1.59
-2 2 19 3.47 1.57
2 -2 -19 5.39 1.81
-1 -2 19 12.12 2.04
1 2 -19 10.79 1.87
-1 -1 19 -0.12 1.48
1 1 -19 2.88 1.44
-1 0 19 35.86 3.14
1 0 -19 42.02 3.23
-1 1 19 0.25 1.49
1 -1 -19 0.65 1.48
-1 2 19 10.28 2
1 -2 -19 13.44 2.1
0 -1 19 28.49 2.72
0 1 -19 25.62 2.57
0 0 19 2.62 1.63
0 0 -19 3.36 1.43
0 1 19 23.76 2.7
0 -1 -19 27.8 2.61
1 -1 19 0.63 1.67
-1 1 -19 0.61 1.27
1 0 19 37.25 3.26
-1 0 -19 37.34 3
1 1 19 -0.94 1.68
-1 -1 -19 0.13 1.31
-7 -1 20 1 1.61
7 1 -20 2.94 1.8
-7 0 20 5.92 1.87
7 0 -20 6.61 1.98
-7 1 20 3.42 1.8
6 1 -20 25.79 2.81
-6 0 20 7.01 1.95
6 0 -20 6.55 1.81
6 0 -20 9.66 2.11
-6 1 20 24.29 2.93
6 -1 -20 23.87 3.01
6 -1 -20 24.33 2.82
-5 -1 20 1.78 1.15
-5 -1 20 2.24 1.68
5 1 -20 4.01 1.67
-5 0 20 15.77 1.87
-5 0 20 16.29 2.33
5 0 -20 15.25 2.24
-5 1 20 2.3 1.13
-5 1 20 3.13 1.8
5 -1 -20 2.05 1.67
-4 -1 20 6.94 1.57
-4 -1 20 7.25 1.99
4 1 -20 10.99 1.98
-4 0 20 1.15 1.31
-4 0 20 0.88 1.68
4 0 -20 1.96 1.57
-4 1 20 11.95 2.19
-4 1 20 5.67 1.44
4 -1 -20 7.6 1.86
-3 -1 20 0.02 1.37
3 1 -20 3.38 1.57
-3 0 20 33.77 2.84
3 0 -20 32.08 3.04
-3 1 20 1.81 1.41
3 -1 -20 0.8 1.54
-2 -1 20 4.34 1.61
2 1 -20 5.66 1.66
-2 0 20 -0.5 1.42
2 0 -20 0.98 1.44
-2 1 20 4.85 1.62
2 -1 -20 5.34 1.71
-1 0 20 3.65 1.67
1 0 -20 3.28 1.54
