#------------------------------------------------------------------------------
#$Date: 2019-11-24 08:32:17 +0200 (Sun, 24 Nov 2019) $
#$Revision: 237313 $
#$URL: file:///home/coder/svn-repositories/cod/cif/1/55/45/1554530.cif $
#------------------------------------------------------------------------------
#
# This file is available in the Crystallography Open Database (COD),
# http://www.crystallography.net/
#
# All data on this site have been placed in the public domain by the
# contributors.
#
data_1554530
loop_
_publ_author_name
'Palysaeva, Nadezhda V.'
'Gladyshkin, Aleksei G.'
'Vatsadze, Irina A.'
'Suponitsky, Kyrill Yu.'
'Dmitriev, Dmitry E.'
'Sheremetev, Aleksei B.'
_publ_section_title
;
 N-(2-Fluoro-2,2-dinitroethyl)azoles: a novel assembly of diverse
 explosophoric building blocks for energetic compound design
;
_journal_issue                   2
_journal_name_full               'Organic Chemistry Frontiers'
_journal_page_first              249
_journal_paper_doi               10.1039/C8QO01173G
_journal_volume                  6
_journal_year                    2019
_chemical_formula_moiety         'C3 H3 F N6 O4'
_chemical_formula_sum            'C3 H3 F N6 O4'
_chemical_formula_weight         206.11
_space_group_crystal_system      orthorhombic
_space_group_IT_number           33
_space_group_name_Hall           'P 2c -2n'
_space_group_name_H-M_alt        'P n a 21'
_atom_sites_solution_hydrogens   geom
_atom_sites_solution_primary     direct
_atom_sites_solution_secondary   difmap
_audit_creation_method           SHELXL-2014/6
_audit_update_record
;
2018-10-20 deposited with the CCDC.
2018-12-03 downloaded from the CCDC.
;
_cell_angle_alpha                90
_cell_angle_beta                 90
_cell_angle_gamma                90
_cell_formula_units_Z            4
_cell_length_a                   11.4331(11)
_cell_length_b                   5.7212(6)
_cell_length_c                   11.2434(11)
_cell_measurement_reflns_used    2339
_cell_measurement_temperature    100(2)
_cell_measurement_theta_max      27.81
_cell_measurement_theta_min      3.56
_cell_volume                     735.44(13)
_computing_cell_refinement       'SAINT (Bruker, 2013)'
_computing_data_collection       'APEX (Bruker, 2013)'
_computing_data_reduction        'SAINT (Bruker, 2013)'
_computing_molecular_graphics    'SHELXL-2014/6 (Sheldrick, 2014)'
_computing_publication_material
'SHELXL-2014/6 (Sheldrick, 2014) and PLATON (Spek, 2009)'
_computing_structure_refinement  'SHELXL-2014/6 (Sheldrick, 2014)'
_computing_structure_solution    'SHELXL-2014/6 (Sheldrick, 2014)'
_diffrn_ambient_temperature      100(2)
_diffrn_measured_fraction_theta_full 1.000
_diffrn_measured_fraction_theta_max 0.999
_diffrn_measurement_device_type  'Bruker APEX-II CCD'
_diffrn_measurement_method       '\f and \w scans'
_diffrn_radiation_type           MoK\a
_diffrn_radiation_wavelength     0.71073
_diffrn_reflns_av_R_equivalents  0.0335
_diffrn_reflns_av_unetI/netI     0.0290
_diffrn_reflns_Laue_measured_fraction_full 1.000
_diffrn_reflns_Laue_measured_fraction_max 0.999
_diffrn_reflns_limit_h_max       15
_diffrn_reflns_limit_h_min       -15
_diffrn_reflns_limit_k_max       7
_diffrn_reflns_limit_k_min       -7
_diffrn_reflns_limit_l_max       15
_diffrn_reflns_limit_l_min       -15
_diffrn_reflns_number            7221
_diffrn_reflns_point_group_measured_fraction_full 0.999
_diffrn_reflns_point_group_measured_fraction_max 0.996
_diffrn_reflns_theta_full        25.242
_diffrn_reflns_theta_max         28.920
_diffrn_reflns_theta_min         3.564
_diffrn_source                   'sealed tube'
_exptl_absorpt_coefficient_mu    0.182
_exptl_absorpt_correction_type   none
_exptl_crystal_colour            colorless
_exptl_crystal_density_diffrn    1.862
_exptl_crystal_description       prizm
_exptl_crystal_F_000             416
_exptl_crystal_size_max          0.32
_exptl_crystal_size_mid          0.24
_exptl_crystal_size_min          0.20
_refine_diff_density_max         0.202
_refine_diff_density_min         -0.241
_refine_diff_density_rms         0.047
_refine_ls_abs_structure_details
;
 Flack x determined using 780 quotients [(I+)-(I-)]/[(I+)+(I-)]
 (Parsons, Flack and Wagner, Acta Cryst. B69 (2013) 249-259).
;
_refine_ls_abs_structure_Flack   0.0(5)
_refine_ls_extinction_method     none
_refine_ls_goodness_of_fit_ref   1.045
_refine_ls_hydrogen_treatment    constr
_refine_ls_matrix_type           full
_refine_ls_number_parameters     127
_refine_ls_number_reflns         1930
_refine_ls_number_restraints     1
_refine_ls_restrained_S_all      1.045
_refine_ls_R_factor_all          0.0330
_refine_ls_R_factor_gt           0.0289
_refine_ls_shift/su_max          0.000
_refine_ls_shift/su_mean         0.000
_refine_ls_structure_factor_coef Fsqd
_refine_ls_weighting_details
'w=1/[\s^2^(Fo^2^)+(0.0343P)^2^+0.0120P] where P=(Fo^2^+2Fc^2^)/3'
_refine_ls_weighting_scheme      calc
_refine_ls_wR_factor_gt          0.0628
_refine_ls_wR_factor_ref         0.0648
_reflns_Friedel_coverage         0.903
_reflns_Friedel_fraction_full    0.998
_reflns_Friedel_fraction_max     0.993
_reflns_number_gt                1773
_reflns_number_total             1930
_reflns_threshold_expression     'I > 2\s(I)'
_cod_data_source_file            c8qo01173g2.cif
_cod_data_source_block           comp28
_cod_database_code               1554530
_shelx_space_group_comment
;
The symmetry employed for this shelxl refinement is uniquely defined
by the following loop, which should always be used as a source of
symmetry information in preference to the above space-group names.
They are only intended as comments.
;
_shelxl_version_number           2014/6
_shelx_res_file
;
TITL sh409 in Pna2(1)
CELL 0.71073  11.4331   5.7212  11.2434  90.000  90.000  90.000
ZERR    4.00   0.0011   0.0006   0.0011   0.000   0.000   0.000
LATT -1
SYMM -X, -Y, 0.5+Z
SYMM 0.5+X, 0.5-Y, Z
SYMM 0.5-X, 0.5+Y, 0.5+Z
SFAC C H N O F
UNIT 12 12 24 16 4
TEMP -173.000

ACTA
CONF
HTAB

L.S. 6
BOND $H
FMAP 2
PLAN 10

WGHT    0.034300    0.012000
FVAR       0.80324
F1    5    0.018851    0.249272    0.981050    11.00000    0.01778    0.01939 =
         0.01704    0.00415    0.00378   -0.00152
O1    4    0.069990    0.369862    1.191094    11.00000    0.03486    0.02009 =
         0.03094   -0.00105   -0.01424   -0.00905
O2    4   -0.021231    0.071715    1.267245    11.00000    0.02692    0.03737 =
         0.01323    0.00321   -0.00169   -0.00897
O3    4   -0.065048   -0.280140    1.035291    11.00000    0.02866    0.01344 =
         0.02955   -0.00287   -0.00569    0.00021
O4    4    0.114054   -0.149961    1.049113    11.00000    0.01842    0.03075 =
         0.02738   -0.00044    0.00002    0.01036
N1    3   -0.210968    0.127498    0.938200    11.00000    0.01266    0.01044 =
         0.01184    0.00105    0.00041    0.00045
N2    3   -0.224412    0.324302    0.871580    11.00000    0.01967    0.01440 =
         0.01318    0.00197   -0.00089    0.00210
N3    3   -0.264025    0.255944    0.770487    11.00000    0.02090    0.01821 =
         0.01373    0.00070   -0.00259    0.00126
N4    3   -0.277801    0.018439    0.767532    11.00000    0.02069    0.01742 =
         0.01522   -0.00171   -0.00207    0.00107
N5    3    0.009788    0.197046    1.185667    11.00000    0.01522    0.01802 =
         0.01542   -0.00320   -0.00362    0.00277
N6    3    0.007833   -0.127797    1.048163    11.00000    0.01823    0.01705 =
         0.01398   -0.00029   -0.00048    0.00470
C1    1   -0.243806   -0.055969    0.872495    11.00000    0.01678    0.01435 =
         0.01453   -0.00069   -0.00033   -0.00125
AFIX  43
H1    2   -0.242720   -0.214464    0.897667    11.00000   -1.20000
AFIX   0
C2    1   -0.168163    0.145110    1.059575    11.00000    0.01381    0.01443 =
         0.00886   -0.00126    0.00037    0.00051
AFIX  23
H2A   2   -0.203322    0.019511    1.108465    11.00000   -1.20000
H2B   2   -0.191918    0.297251    1.093871    11.00000   -1.20000
AFIX   0
C3    1   -0.035965    0.124057    1.062657    11.00000    0.01526    0.01276 =
         0.01081    0.00003    0.00003    0.00021

HKLF 4

REM  sh409 in Pna2(1)
REM R1 =  0.0289 for    1773 Fo > 4sig(Fo)  and  0.0330 for all    1930 data
REM    127 parameters refined using      1 restraints

END

WGHT      0.0343      0.0120

REM Instructions for potential hydrogen bonds
EQIV $1 x-1/2, -y-1/2, z
HTAB C1 O4_$1
EQIV $2 x, y-1, z
HTAB C1 N2_$2
EQIV $3 -x-1/2, y-1/2, z+1/2
HTAB C2 N3_$3
EQIV $4 -x-1/2, y+1/2, z+1/2
HTAB C2 N4_$4

REM Highest difference peak  0.202,  deepest hole -0.241,  1-sigma level  0.047
Q1    1  -0.1039  0.1203  1.0597  11.00000  0.05    0.20
Q2    1  -0.1080  0.4813  1.1447  11.00000  0.05    0.18
Q3    1  -0.0216  0.0038  1.0609  11.00000  0.05    0.18
Q4    1  -0.3277 -0.0566  0.7057  11.00000  0.05    0.18
Q5    1  -0.1868  0.0235  0.8972  11.00000  0.05    0.17
Q6    1  -0.1693  0.3009  1.0681  11.00000  0.05    0.16
Q7    1  -0.3860 -0.0293  0.8355  11.00000  0.05    0.15
Q8    1  -0.2323 -0.0369  0.7176  11.00000  0.05    0.14
Q9    1  -0.0304 -0.4359  1.0117  11.00000  0.05    0.14
Q10   1  -0.3463 -0.0398  1.0452  11.00000  0.05    0.13
;
_shelx_res_checksum              53158
_shelx_hkl_file
;
   0  -1   0   -1.94    0.86
   0  -1   0    0.02    1.02
   0   1   0   -2.43    0.75
   0  -2   0 2557.41   42.62
   0  -2   0 2530.49   41.64
   0   2   0 2494.81   40.95
   0   3   0   -1.65    1.61
   0  -3   0    0.15    1.50
   0  -3   0    1.64    1.61
   0   4   0   99.70    6.29
   0  -4   0   98.71    6.17
   0  -4   0   96.54    6.68
   0   5   0    0.85    2.55
   0  -5   0   -2.68    1.58
   0  -5   0   -1.44    2.35
   0  -6   0    2.95    3.03
   0   6   0    0.99    2.94
   0  -6   0   -1.82    1.92
   0   7   0   -0.31    3.32
   0  -7   0   -2.69    2.47
   0  -7   0   -1.92    2.66
   0   0  -1   -1.21    0.29
   0   0   1   -1.11    0.31
   0   0  -1   -0.53    0.30
   0  -1   1 1009.82   18.33
   0  -1  -1 1020.43   16.60
   0   1   1  999.21   17.43
   0   1  -1  991.87   16.29
   0  -1  -1 1012.05   17.23
   0  -2  -1    1.15    1.52
   0  -2   1   -0.53    1.27
   0  -2   1   -2.26    1.09
   0  -2  -1   -1.22    0.96
   0   2   1   -1.54    1.60
   0   2  -1   -1.24    1.27
   0  -3   1  883.15   19.73
   0   3   1  900.56   19.92
   0   3  -1  901.97   18.46
   0  -3  -1  906.82   19.17
   0  -3   1  938.58   20.93
   0  -3  -1  886.94   20.04
   0  -4   1    1.62    2.17
   0   4  -1    2.54    2.10
   0  -4   1    1.15    1.93
   0  -4  -1   -1.69    1.32
   0   4   1    1.61    2.35
   0  -4  -1    0.72    2.21
   0   5   1   34.62    5.33
   0  -5  -1   38.86    5.57
   0   5  -1   47.90    5.46
   0  -5  -1   45.23    5.43
   0  -5   1   43.02    5.71
   0  -5   1   44.56    5.97
   0  -6  -1   -2.58    1.88
   0   6  -1   -0.87    2.64
   0  -6  -1   -0.39    2.69
   0  -6   1   -2.05    2.53
   0   6   1   -2.22    2.63
   0  -7   1   23.23    5.47
   0  -7  -1   24.08    4.97
   0  -7  -1   25.44    5.95
   0   7   1   25.77    5.76
   0   0   2 1107.71   18.52
   0   0  -2 1119.79   18.31
   0  -1  -2   -0.21    0.31
   0   1   2    0.93    1.18
   0  -1   2   -0.86    1.12
   0   1   2   -0.20    0.24
   0   1  -2   -0.31    0.70
   0  -1  -2   -0.37    0.82
   0  -2  -2 2164.67   35.11
   0  -2  -2 2147.25   36.61
   0  -2   2 2196.12   38.95
   0   2  -2 2172.19   34.47
   0   2   2 2102.95   37.01
   0  -3   2   -0.57    1.78
   0   3   2    0.50    2.04
   0   3  -2    0.37    1.44
   0  -3  -2   -0.19    1.01
   0  -3  -2    0.33    1.58
   0  -4  -2  470.78   14.96
   0  -4   2  439.84   14.91
   0   4   2  455.86   14.78
   0   4  -2  437.64   12.12
   0  -4  -2  444.71   12.53
   0   5  -2    1.76    2.33
   0  -5  -2   -1.31    2.22
   0  -5   2   -1.80    2.07
   0   5   2    0.43    2.86
   0  -5  -2   -1.28    1.83
   0  -6  -2   26.21    4.35
   0   6   2   24.28    5.45
   0  -6  -2   25.87    5.65
   0   6  -2   25.56    4.49
   0  -6   2   22.22    5.04
   0  -7   2   -0.99    2.82
   0   7   2   -2.91    3.32
   0  -7  -2   -1.45    2.63
   0   0   3   -2.41    0.97
   0   0   3   -2.34    0.99
   0   1  -3 2782.83   42.41
   0  -1  -3 2769.20   43.58
   0   1   3 2751.99   44.92
   0  -1   3 2739.69   46.39
   0  -2  -3   -0.99    0.54
   0  -2   3   -0.52    1.42
   0   2  -3   -0.47    0.91
   0   2   3   -2.11    1.32
   0  -2  -3    1.24    1.50
   0   3   3   72.20    5.52
   0  -3  -3   76.90    3.68
   0  -3  -3   90.42    5.60
   0  -3   3   85.57    5.98
   0   3  -3   83.32    4.05
   0  -4  -3    4.96    2.50
   0  -4  -3   -0.23    1.28
   0  -4   3    0.37    2.29
   0   4  -3   -0.99    1.59
   0   4   3    1.84    2.94
   0  -5  -3  301.14   13.52
   0  -5   3  312.75   13.82
   0   5   3  308.73   13.85
   0   5  -3  284.74   10.03
   0  -5  -3  309.01   10.48
   0  -6  -3   -0.16    2.67
   0  -6  -3    2.86    2.43
   0   6   3    3.75    3.54
   0  -6   3   -1.22    2.48
   0   7   3   26.61    6.63
   0  -7  -3   31.63    6.84
   0  -7   3   43.88    7.74
   0   0   4 4426.70   69.58
   0   0   4 4428.40   68.50
   0   1   4    1.55    0.35
   0  -1   4   -0.93    1.30
   0   1  -4    1.43    0.98
   0   1   4    0.28    1.39
   0  -1  -4   -0.60    0.33
   0  -1  -4   -0.33    0.94
   0  -2  -4  273.59    8.73
   0   2   4  271.20    9.63
   0  -2   4  278.95   10.01
   0   2  -4  274.65    6.83
   0  -3  -4   -1.37    1.42
   0  -3   4    2.90    2.28
   0   3   4    0.47    2.23
   0   3  -4   -0.73    1.06
   0  -3  -4   -0.20    0.67
   0  -4  -4  282.75    7.91
   0   4  -4  281.34    8.43
   0   4   4  285.65   12.42
   0  -4  -4  264.94   11.49
   0  -4   4  286.32   12.54
   0  -5  -4   -0.82    1.36
   0   5  -4    1.79    1.99
   0  -5   4   -1.61    2.46
   0  -5  -4    2.81    2.51
   0   5   4   -0.62    2.81
   0  -6  -4   91.41    9.94
   0   6   4  105.85   10.85
   0  -6   4   88.09    9.65
   0  -7   4    0.35    3.78
   0   7   4   -0.80    4.16
   0  -7  -4    1.71    3.43
   0   0   5   -1.65    1.33
   0   0   5   -2.92    0.97
   0  -1   5 2372.72   41.65
   0  -1  -5 2297.56   38.74
   0   1   5 2331.42   35.92
   0   1   5 2322.16   40.72
   0   1  -5 2292.81   37.90
   0   2   5   -0.61    1.60
   0   2  -5    0.29    1.03
   0  -2  -5    1.56    1.45
   0  -2   5    0.41    1.78
   0   3  -5  362.27    9.01
   0   3   5  367.64   13.22
   0  -3   5  372.10   13.62
   0  -3  -5  346.19   11.98
   0  -4  -5    1.20    0.88
   0   4   5    3.13    3.49
   0  -4  -5    2.68    2.39
   0   4  -5   -0.44    1.38
   0  -4   5    3.59    2.65
   0  -5   5  200.23   11.87
   0   5   5  201.43   12.05
   0  -5  -5  188.58   11.19
   0   6   5    4.35    4.41
   0  -6   5    0.33    2.89
   0  -6  -5    6.13    3.38
   0  -7  -5   31.92    6.93
   0  -7   5   30.40    6.98
   0   7   5   26.49    7.27
   0   0  -6 2337.59   39.15
   0   0   6 2331.96   40.50
   0   0   6 2320.54   39.91
   0   1  -6    0.85    1.26
   0   1   6   -0.15    0.55
   0   1   6    0.11    1.56
   0  -1   6   -0.29    1.51
   0  -1  -6    0.33    1.20
   0   2  -6  633.24   13.50
   0   2   6  628.29   17.40
   0  -2   6  622.23   17.52
   0  -2  -6  635.12   15.93
   0   3  -6   -0.19    1.25
   0   3   6   -1.87    2.28
   0  -3   6   -5.77    1.77
   0  -3  -6   -0.01    1.89
   0   4  -6  630.01   13.94
   0  -4  -6  656.16   19.71
   0   4   6  659.23   21.12
   0  -4   6  623.63   20.80
   0  -5  -6   -2.88    1.83
   0  -5   6   -1.91    2.52
   0   5   6    1.80    3.20
   0  -6  -6  130.75   10.44
   0   6   6  139.75   11.58
   0  -6   6  119.75   10.59
   0  -7   6   -0.88    3.90
   0   7   6    2.10    4.43
   0  -7  -6    1.52    3.29
   0   0   7   -0.98    1.40
   0   0  -7   -0.16    1.28
   0   0   7   -1.10    1.16
   0   1   7  151.32    7.61
   0  -1  -7  155.99    6.72
   0  -1   7  145.38    6.34
   0  -1   7  153.21    7.34
   0   1   7  147.41    4.23
   0   2  -7    0.57    1.33
   0  -2  -7    0.74    1.60
   0  -2   7   -2.20    1.65
   0   2   7   -3.05    2.10
   0   3   7   99.05    7.79
   0  -3   7   99.06    7.61
   0  -3  -7   93.67    6.69
   0   3  -7  115.92    5.03
   0   4   7    0.28    2.90
   0  -4  -7   -0.48    2.41
   0  -4   7    0.87    2.66
   0   4  -7    1.15    2.26
   0  -5   7   62.16    8.42
   0  -5  -7   65.58    8.23
   0   5   7   87.65   10.42
   0  -6   7   -2.51    3.25
   0   6   7    1.87    4.65
   0  -6  -7    3.38    3.52
   0   0   8  862.58   18.77
   0   0   8  886.35   20.72
   0   0  -8  836.53   18.96
   0  -1   8    2.34    2.15
   0  -1   8    1.57    1.75
   0   1   8   -0.32    0.77
   0   1   8    1.35    2.12
   0  -1  -8    0.02    1.49
   0  -2  -8   78.11    5.69
   0   2   8   82.34    6.89
   0  -2   8   65.70    6.65
   0   2  -8   75.91    4.63
   0   3   8    1.25    2.84
   0  -3  -8    2.68    2.21
   0  -3   8    3.69    3.11
   0   3  -8    0.60    1.29
   0   4   8  890.38   26.83
   0  -4   8  839.39   26.14
   0  -4  -8  822.11   24.20
   0   5   8   -0.59    3.61
   0  -5   8    2.93    3.34
   0  -5  -8   -2.13    2.61
   0  -6   8   62.22    9.22
   0   6   8   55.67   10.25
   0  -6  -8   62.04    8.94
   0   0   9    6.59    2.73
   0   0   9   -0.60    1.42
   0   0  -9    0.39    1.78
   0   1   9 1143.71   20.42
   0  -1  -9 1104.93   24.83
   0  -1   9 1165.98   24.97
   0   1   9 1140.21   27.21
   0  -1   9 1126.96   25.98
   0   2   9   -0.42    2.68
   0  -2   9    0.91    2.26
   0  -2  -9   -1.83    1.43
   0  -2   9   -0.43    1.59
   0   3   9  543.16   19.61
   0  -3  -9  526.13   17.54
   0  -3   9  545.16   19.14
   0   3  -9  545.66   13.70
   0  -4  -9   -0.79    2.41
   0   4   9    0.03    3.22
   0  -4   9   -3.97    2.23
   0  -5   9   47.56    7.82
   0   5   9   53.56    8.99
   0  -5  -9   58.52    8.44
   0   6   9    0.95    4.25
   0  -6  -9    0.41    2.96
   0  -6   9    1.29    3.65
   0   0 -10 1906.88   37.84
   0   0  10 2041.10   37.15
   0   0  10 1973.37   39.87
   0   1  10    3.76    3.13
   0  -1 -10    1.41    2.10
   0  -1  10   -0.26    2.06
   0  -1  10    0.87    2.03
   0  -2  10   25.83    3.77
   0  -2 -10   15.91    3.71
   0   2  10   15.48    4.39
   0  -2  10   28.59    4.86
   0  -3 -10   -1.18    1.94
   0  -3  10   -0.67    2.57
   0   3  10    6.89    4.03
   0  -4  10  145.54   10.87
   0  -4 -10  150.55   10.41
   0   4  10  139.47   11.30
   0  -5  10    1.28    3.46
   0   5  10   -3.22    4.57
   0  -5 -10    2.10    3.27
   0   0 -11    1.72    2.15
   0   0  11   -0.60    1.62
   0   0  11    1.61    2.33
   0   1 -11  137.88    7.84
   0   1  11  136.20    9.37
   0  -1 -11  136.80    7.97
   0  -1  11  158.72    8.48
   0  -1  11  139.75    8.21
   0   2  11    1.92    3.06
   0  -2  11   -0.01    1.81
   0  -2  11    1.19    2.50
   0  -2 -11   -2.54    1.98
   0   3  11   95.66   10.34
   0  -3  11  114.51    9.27
   0  -3 -11   90.13    7.79
   0   4  11   -2.84    3.45
   0  -4  11    1.11    3.15
   0  -4 -11    2.60    2.66
   0  -5  11    1.72    3.59
   0  -5 -11    4.93    3.69
   0   5  11   -3.68    4.72
   0   0  12  374.19   14.84
   0   0 -12  356.09   13.59
   0  -1  12   -0.93    1.85
   0  -1 -12    0.06    1.95
   0   1  12   -0.22    2.91
   0   1 -12    1.10    2.17
   0  -1  12    0.07    2.30
   0  -2  12   35.51    5.19
   0  -2 -12   41.35    6.30
   0  -2  12   39.73    6.03
   0   2  12   39.37    6.78
   0   3  12   -2.67    3.76
   0  -3  12   -0.88    2.20
   0  -3 -12    0.87    2.56
   0  -4  12   77.36    9.63
   0   4  12   73.08   10.68
   0  -4 -12   69.81    8.81
   0   0 -13   -0.93    2.12
   0   0  13    2.30    2.80
   0   1 -13   26.71    4.87
   0  -1  13   26.62    4.61
   0   1  13   27.92    5.95
   0  -1  13   35.69    5.60
   0  -1 -13   15.55    4.27
   0   2 -13   -0.67    2.45
   0   2  13   -2.91    3.54
   0  -2  13   -0.27    2.31
   0  -2 -13    0.72    2.58
   0  -3 -13    3.93    3.39
   0  -3  13   11.40    4.23
   0   3  13    9.26    4.88
   0   4  13   -1.03    4.78
   0  -4 -13   -3.19    2.91
   0  -4  13    0.87    3.10
   0   0 -14  482.36   17.51
   0   0  14  432.17   18.05
   0  -1  14   -0.87    2.56
   0   1  14   -3.55    2.67
   0   1 -14    0.88    2.74
   0  -1 -14   -3.35    2.03
   0   2  14   25.51    6.82
   0   2 -14   44.76    6.11
   0  -2  14   29.47    5.53
   0  -2 -14   35.62    6.48
   0  -3  14   -0.43    3.02
   0   3  14   -2.06    4.59
   0  -3 -14   -1.24    2.49
   0   0  15    3.36    3.79
   0   0 -15    2.28    2.99
   0   1  15  134.03   11.46
   0   1 -15  116.21    9.31
   1   0   0   -0.63    0.35
   1   0   0   -0.19    0.29
  -1  -1   0 2135.13   34.34
   1   1   0 2132.63   33.83
  -1   1   0 1977.98   32.23
   1  -1   0 2175.94   33.85
   1  -1   0 2123.84   34.07
  -1  -1   0 2186.62   32.57
  -1   2   0  991.92   18.29
   1   2   0 1008.85   19.62
  -1  -2   0 1023.55   20.01
  -1  -2   0 1025.11   19.00
   1  -2   0 1025.04   20.07
   1  -2   0 1011.62   19.63
  -1  -3   0  331.52   10.25
  -1  -3   0  335.54   10.61
   1  -3   0  350.27   10.47
   1   3   0  333.03   10.41
  -1   3   0  340.16    9.75
   1  -3   0  338.72   11.04
  -1  -4   0    1.12    2.16
   1  -4   0    2.13    2.33
   1   4   0    0.00    2.16
  -1  -4   0    0.87    2.02
   1  -4   0    0.57    1.90
  -1   4   0    1.91    2.15
  -1  -5   0   79.70    7.57
   1  -5   0   77.64    7.74
  -1  -5   0   73.29    6.19
  -1   5   0   70.58    5.95
   1  -5   0   72.59    5.94
   1   5   0   71.82    6.85
  -1  -6   0  170.89   10.43
  -1  -6   0  195.11   10.62
   1   6   0  168.75   10.20
   1  -6   0  190.03   11.60
   1  -6   0  190.01   10.24
  -1   6   0  180.90    9.75
   1   7   0   23.62    5.62
  -1  -7   0   29.59    6.00
   1  -7   0   25.78    5.26
  -1  -7   0   31.17    5.89
   1   0  -1   -6.46    0.53
   1   0   1   -7.53    0.60
   1   0   1   -6.34    0.76
  -1   0   1   -6.25    0.66
   1   0  -1   -6.54    0.76
   1  -1  -1  731.19   12.60
  -1   1   1  732.91   13.40
   1  -1   1  735.37   14.28
   1  -1   1  749.22   11.42
  -1  -1  -1  760.26   12.99
   1   1   1  743.57   14.32
  -1  -1  -1  748.89   13.02
   1  -1  -1  737.99   13.83
   1   1  -1  742.59   13.51
  -1  -1   1  766.13   14.65
  -1   1  -1  752.40   11.52
   1   2  -1   82.12    4.23
  -1  -2  -1   75.92    3.66
   1  -2  -1   74.52    3.49
   1  -2   1   83.62    4.48
   1  -2  -1   81.93    4.49
   1  -2   1   74.28    4.38
  -1  -2   1   72.33    3.81
  -1   2  -1   75.64    3.24
   1   2   1   78.71    4.59
  -1  -2   1   80.17    4.53
  -1  -2  -1   74.95    3.98
  -1   2   1   80.11    4.06
  -1   3   1  472.71   12.57
  -1  -3   1  480.61   13.73
  -1  -3  -1  481.86   12.92
   1  -3  -1  474.41   12.03
  -1   3  -1  470.22   11.16
   1   3   1  483.12   13.41
   1  -3   1  473.83   13.30
  -1  -3   1  473.13   12.47
   1   3  -1  450.49   12.18
   1  -3   1  456.41   13.15
  -1  -3  -1  459.83   12.34
   1  -3  -1  457.89   13.35
  -1  -4   1   49.21    5.70
  -1  -4   1   37.07    4.77
   1  -4   1   40.80    5.08
  -1   4  -1   34.03    3.87
   1   4   1   28.18    4.69
  -1  -4  -1   30.25    4.29
   1  -4  -1   38.53    5.07
  -1  -4  -1   30.22    4.00
   1   4  -1   29.56    4.01
   1  -4  -1   46.63    4.60
   1  -4   1   31.38    4.32
  -1   4   1   35.64    4.45
  -1  -5   1  104.52    7.79
  -1  -5  -1   99.77    7.56
  -1  -5   1   97.22    7.06
   1  -5   1   94.28    7.63
   1  -5   1   92.27    7.00
   1   5   1  103.28    7.82
  -1   5   1  113.46    7.65
   1  -5  -1   94.78    6.46
   1  -5  -1  100.89    7.80
   1   5  -1   93.74    6.78
  -1   5  -1   98.70    6.34
  -1  -5  -1  101.43    6.97
  -1   6   1  140.91    9.20
   1  -6  -1  136.73    9.91
   1   6   1  129.70    9.43
   1  -6   1  123.93    8.74
  -1   6  -1  136.28    8.08
  -1  -6  -1  122.25    8.42
   1   6  -1  134.60    8.78
  -1  -6   1  141.30    9.51
   1  -6  -1  144.60    8.48
  -1  -6  -1  134.12    9.59
  -1   7   1   26.52    6.39
  -1  -7  -1   17.32    5.12
  -1  -7  -1   16.58    4.71
   1   7   1   31.23    6.67
  -1  -7   1   24.64    5.95
   1  -7   1   13.70    4.28
   1  -7  -1   25.49    6.11
   1  -7  -1   22.86    4.90
   1   0  -2   -2.47    0.81
   1   0   2   -2.80    0.67
  -1   0   2   -1.95    0.74
   1   0  -2    1.01    0.80
   1   0   2   -2.21    0.66
  -1  -1  -2  419.91    8.61
   1  -1   2  428.66   10.05
  -1   1   2  426.14    9.47
   1   1   2  409.67    9.84
  -1  -1  -2  433.41    7.59
   1  -1  -2  418.25    7.09
  -1  -1   2  408.31   10.05
   1  -1   2  429.16    6.90
   1  -1  -2  413.68    9.21
  -1   1  -2  431.33    6.83
   1   1  -2  411.78    8.77
   1   2  -2 1265.17   22.53
   1  -2  -2 1251.76   21.34
  -1   2   2 1241.71   23.53
  -1  -2   2 1271.13   25.35
  -1  -2  -2 1245.69   22.11
   1  -2  -2 1271.40   24.03
  -1   2  -2 1271.21   20.31
   1   2   2 1229.15   24.44
   1  -2   2 1288.59   25.12
  -1  -2  -2 1247.36   23.05
   1   3   2  426.93   13.17
  -1   3   2  438.95   12.39
   1  -3  -2  425.32   10.44
  -1  -3  -2  432.23   12.30
  -1  -3   2  420.84   13.35
   1  -3   2  416.30   12.97
  -1   3  -2  437.17    9.85
  -1  -3  -2  405.48   10.88
   1  -3  -2  447.13   13.09
   1   3  -2  426.12   11.31
   1   4   2  156.09    8.71
  -1  -4   2  171.32    9.28
  -1  -4  -2  152.36    8.24
   1   4  -2  161.40    7.45
  -1  -4  -2  166.48    7.37
   1  -4  -2  164.28    6.87
  -1   4  -2  172.02    6.58
   1  -4   2  160.92    8.60
  -1   4   2  159.67    8.46
   1  -4  -2  152.92    8.58
   1  -5  -2  170.98   10.08
  -1   5  -2  150.51    7.18
   1  -5   2  154.65    9.48
  -1   5   2  147.56    8.90
  -1  -5  -2  135.24    7.55
  -1  -5  -2  164.69    9.52
   1   5  -2  163.25    8.26
   1  -5  -2  156.82    7.53
  -1  -5   2  146.18    9.52
   1   5   2  149.45    9.37
  -1  -6  -2   41.09    5.32
   1  -6  -2   25.95    5.71
   1   6   2   34.19    6.21
  -1   6   2   39.70    6.55
   1  -6  -2   40.25    5.02
  -1  -6  -2   32.77    5.81
  -1  -6   2   34.68    6.25
   1  -6   2   47.81    7.03
   1   6  -2   42.44    5.68
   1  -7  -2  269.11   15.23
   1  -7   2  254.71   13.67
  -1   7   2  303.81   14.92
  -1  -7  -2  269.76   14.91
  -1  -7   2  290.21   15.36
   1   7   2  259.09   14.28
  -1   0   3   -2.33    0.86
   1   0   3   -1.11    1.03
   1   0   3   -1.07    0.78
   1   0  -3   -1.31    0.87
   1   0  -3   -1.32    1.11
   1  -1   3  121.55    5.18
  -1   1   3  129.25    2.55
   1   1  -3  120.78    4.27
  -1   1  -3  134.93    3.34
  -1   1   3  122.09    4.99
  -1  -1   3  120.19    5.39
  -1   1   3  126.16    2.72
  -1  -1  -3  120.53    4.30
   1  -1  -3  122.22    4.57
   1   1   3  130.65    2.84
   1   1   3  123.02    5.23
  -1   2   3  179.17    7.13
   1   2  -3  199.91    6.11
   1  -2  -3  193.89    7.21
  -1  -2   3  202.79    8.07
  -1  -2  -3  194.69    5.05
  -1  -2  -3  193.07    6.68
   1  -2   3  180.18    7.52
   1   2   3  200.14    7.85
  -1   2  -3  197.02    4.44
   1  -2  -3  193.85    4.22
   1  -3  -3  234.73    6.36
   1   3  -3  236.68    7.64
   1  -3  -3  244.42    9.51
  -1   3  -3  239.93    6.18
   1  -3   3  231.85    9.65
  -1   3   3  223.53    8.98
  -1  -3   3  238.27   10.06
   1   3   3  230.80    9.75
  -1  -3  -3  205.72    8.42
  -1  -3  -3  230.21    7.04
  -1  -4  -3   65.26    4.41
  -1   4  -3   60.38    3.81
   1  -4   3   57.01    6.31
  -1   4   3   59.15    6.32
   1   4  -3   72.16    5.02
  -1  -4  -3   59.54    6.02
   1  -4  -3   53.52    6.07
  -1  -4   3   64.97    6.87
   1   4   3   69.74    7.14
   1  -4  -3   53.93    3.75
   1  -5   3   47.48    6.40
   1  -5  -3   70.59    7.98
   1   5  -3   63.65    5.24
  -1  -5  -3   51.20    5.08
  -1  -5   3   52.96    7.04
   1   5   3   55.30    7.14
  -1  -5  -3   41.62    5.90
  -1   5   3   54.71    6.87
  -1   5  -3   63.00    4.55
   1  -5  -3   54.20    4.40
  -1   6   3    4.09    3.78
  -1  -6  -3    6.43    2.81
   1   6   3    8.65    4.60
   1  -6   3    3.45    3.65
   1   6  -3    8.65    3.17
  -1  -6   3    6.96    3.88
  -1  -6  -3    1.46    3.17
   1  -6  -3    3.69    3.52
   1   7   3   44.54    8.37
  -1  -7   3   26.03    6.01
  -1   7   3   25.25    6.11
   1  -7   3   31.49    6.38
  -1  -7  -3   30.94    6.73
   1  -7  -3   23.61    6.03
   1   0   4   -0.08    1.11
  -1   0   4    0.67    1.25
   1   0  -4   -0.15    0.99
   1   0  -4    0.08    1.20
   1   0   4   -1.47    0.85
   1  -1   4 1289.73   25.05
  -1   1   4 1305.69   20.67
   1   1  -4 1269.28   22.78
  -1  -1  -4 1297.39   22.96
   1   1   4 1316.01   20.62
   1  -1   4 1318.87   21.60
  -1  -1   4 1277.67   25.23
   1   1   4 1296.27   24.68
  -1   1   4 1281.05   24.50
   1  -1  -4 1297.26   23.27
   1  -2  -4  580.67   14.12
   1  -2   4  561.71   15.17
  -1  -2  -4  560.53   10.13
  -1  -2   4  559.26   15.45
   1   2   4  553.51   14.95
  -1   2  -4  576.55   10.29
   1   2  -4  563.03   12.27
  -1  -2  -4  557.29   13.34
  -1   2   4  551.30   14.40
  -1   3  -4  191.33    5.14
   1   3  -4  196.48    6.82
   1  -3  -4  192.40    4.66
  -1   3   4  186.87    8.79
  -1  -3   4  188.96    9.31
   1  -3  -4  177.25    8.32
   1   3   4  186.55    9.30
  -1  -3  -4  191.78    5.62
   1  -3   4  178.72    8.87
  -1  -3  -4  188.76    8.12
   1   4   4   14.89    4.40
   1  -4   4   10.47    3.53
  -1  -4   4   12.12    3.70
   1   4  -4    7.66    2.34
  -1  -4  -4    9.49    2.07
  -1  -4  -4   11.97    3.23
  -1   4   4   13.29    3.85
   1  -4  -4   11.18    1.79
  -1   4  -4   11.98    1.98
   1  -4  -4   18.76    4.10
  -1   5   4  405.15   16.27
   1  -5  -4  382.52   15.84
   1   5  -4  393.38   12.31
   1  -5  -4  400.40   10.80
  -1  -5  -4  392.56   11.65
   1   5   4  393.81   16.46
   1  -5   4  396.05   16.19
  -1  -5  -4  421.64   15.98
  -1  -5   4  369.71   16.11
   1  -6  -4   57.35    8.41
   1   6   4   46.32    7.53
  -1  -6  -4   44.82    7.13
  -1  -6   4   46.68    7.43
  -1   6   4   38.48    7.13
   1  -6   4   45.85    7.39
   1   7   4  192.32   13.88
  -1  -7  -4  152.73   11.77
  -1  -7   4  166.19   12.80
   1  -7   4  172.32   12.46
  -1   7   4  169.29   12.80
   1  -7  -4  176.17   12.78
   1   0  -5   -1.06    0.85
  -1   0   5    1.64    1.24
   1   0   5   -1.15    0.79
   1   0  -5    0.23    1.27
   1   0   5    0.00    1.19
   1   1   5  237.14    5.12
   1   1  -5  234.71    7.28
  -1   1   5  238.97    8.45
  -1   1   5  237.20    5.31
   1  -1   5  244.20    8.41
  -1  -1  -5  239.25    7.39
   1   1   5  238.59    8.48
   1  -1   5  243.25    6.66
  -1  -1   5  236.74    8.57
   1  -1  -5  242.50    7.49
  -1  -2   5  171.52    8.21
   1  -2   5  166.75    7.94
   1   2  -5  180.80    6.18
   1  -2  -5  175.23    7.30
  -1   2  -5  168.98    4.79
  -1   2   5  170.20    7.82
   1   2   5  175.71    8.30
  -1  -2  -5  176.01    7.06
   1  -3   5   94.03    6.83
  -1  -3  -5   98.22    3.02
   1  -3  -5   95.41    6.46
  -1  -3   5   85.09    6.72
  -1   3  -5   96.73    3.49
   1   3   5  104.18    7.41
  -1   3   5   97.33    6.99
   1   3  -5   96.78    4.84
  -1  -3  -5   89.25    5.99
  -1  -4   5  150.02    9.63
  -1  -4  -5  144.44    8.42
   1  -4  -5  155.03    4.81
  -1   4  -5  152.66    5.07
   1   4   5  145.65    9.69
   1  -4   5  140.13    9.10
   1   4  -5  150.97    6.60
  -1   4   5  151.10    9.28
   1  -4  -5  159.51    9.20
  -1  -4  -5  156.96    5.22
   1  -5   5   40.03    6.45
   1   5   5   45.47    7.28
  -1  -5  -5   33.75    5.86
   1   5  -5   47.76    4.82
  -1  -5   5   43.25    6.97
   1  -5  -5   51.92    7.08
  -1   5   5   45.61    7.18
  -1   6   5   89.31   10.31
   1  -6  -5   98.17   10.56
   1   6   5  109.20   11.76
   1  -6   5  106.42   10.96
  -1  -6   5   95.57   10.63
  -1  -6  -5   89.21    9.80
  -1  -7   5   45.86    8.36
  -1  -7  -5   42.77    8.24
  -1   7   5   36.02    7.79
   1  -7   5   31.37    6.69
   1  -7  -5   34.87    7.46
   1   7   5   43.46    8.39
   1   0   6   -0.76    1.26
  -1   0   6   -2.60    1.10
   1   0  -6    1.93    1.35
   1   0  -6   -0.05    1.27
   1   0   6   -1.69    0.84
   1   1   6  439.29    8.63
  -1   1   6  447.81    8.96
  -1  -1   6  420.01   12.61
   1  -1   6  447.30   10.74
   1   1   6  438.84   12.95
  -1   1   6  440.39   12.86
   1   1  -6  438.94   11.38
   1  -1   6  419.58   12.30
   1  -1  -6  451.36   11.56
  -1  -1  -6  428.92   11.37
  -1  -2  -6  168.30    7.30
  -1  -2   6  172.14    8.76
   1   2  -6  163.50    6.28
  -1   2  -6  159.82    5.18
   1   2   6  177.48    8.71
  -1   2   6  169.99    8.32
   1  -2  -6  164.23    7.43
   1  -2   6  168.19    8.32
   1   3  -6  108.38    5.25
   1  -3   6  115.53    7.79
  -1   3   6  121.51    7.83
   1   3   6  104.29    7.90
  -1   3  -6  109.23    4.02
   1  -3  -6  116.03    7.25
  -1  -3  -6   99.68    6.44
  -1  -3   6  108.30    7.99
   1   4   6   61.50    8.02
  -1  -4  -6   65.41    6.97
  -1   4   6   57.60    7.38
  -1  -4   6   56.96    7.36
   1  -4  -6   51.26    6.48
   1   4  -6   49.31    4.52
   1  -4   6   57.19    7.10
  -1  -5   6  102.74   10.43
   1  -5   6   78.49    8.93
   1   5   6   91.03   10.13
  -1  -5  -6   85.85    8.83
  -1   5   6  100.82   10.35
   1  -5  -6   88.23    9.21
   1  -6  -6   31.74    6.79
   1  -6   6   28.29    6.33
  -1  -6   6   40.29    7.34
   1   6   6   41.98    8.03
  -1  -6  -6   24.86    5.56
  -1   6   6   19.76    6.27
  -1   7   6   79.21   11.51
   1  -7   6   70.36   10.06
  -1  -7  -6   83.63   10.75
   1  -7  -6   70.85   10.27
   1   7   6   74.88   11.16
  -1  -7   6   73.36   10.82
   1   0   7   -0.17    1.51
   1   0  -7    1.07    1.57
  -1   0   7   -3.05    1.42
   1   0   7    0.84    1.32
  -1   0   7    0.29    1.40
   1  -1   7  148.55    6.12
  -1   1   7  151.29    7.57
   1  -1   7  141.48    7.01
  -1  -1  -7  137.77    6.45
   1   1   7  143.94    4.22
  -1  -1   7  133.36    7.05
  -1   1   7  143.40    4.50
   1   1  -7  137.72    6.39
   1   1   7  135.30    7.35
   1  -1  -7  141.41    6.39
  -1   2   7  207.45    9.74
  -1  -2   7  190.07    9.49
   1   2   7  196.19    9.79
   1   2  -7  201.14    7.42
  -1  -2  -7  201.78    8.41
   1  -2   7  206.61    6.65
   1  -2   7  189.17    9.26
   1  -2  -7  200.68    8.62
  -1   3  -7  222.01    6.36
   1  -3  -7  197.96    9.69
   1  -3   7  213.28   11.04
  -1  -3  -7  204.94    9.53
   1   3   7  231.89   11.69
  -1   3   7  214.48   10.90
   1   3  -7  223.23    7.85
  -1  -3   7  201.23   10.99
   1  -4   7  107.90    8.63
   1   4   7  125.53    9.84
   1   4  -7  100.20    5.36
   1  -4  -7   93.78    7.55
  -1   4   7  111.16    8.76
  -1  -4   7   99.15    8.51
  -1  -4  -7   88.75    7.18
  -1  -5   7    1.88    3.49
   1  -5   7    2.46    3.18
   1  -5  -7    1.72    3.06
   1   5   7   -0.51    3.77
  -1   5   7    0.92    3.36
  -1  -5  -7    0.07    3.00
  -1  -6   7   82.67   10.70
  -1   6   7   80.36   10.58
   1  -6  -7   96.35   10.97
   1  -6   7   91.69   10.60
  -1  -6  -7   84.99   10.20
   1   6   7  104.78   12.52
   1   0   8    1.50    1.44
  -1   0  -8    0.71    1.75
   1   0   8    1.34    1.88
   1   0  -8    0.42    1.49
  -1   0   8    0.58    1.41
  -1   0   8    2.35    1.98
   1  -1   8  151.04    6.82
   1   1   8  155.06    4.69
  -1  -1  -8  148.95    7.17
  -1  -1   8  146.58    7.56
  -1   1   8  156.55    4.95
   1  -1   8  139.94    7.22
   1   1  -8  149.24    7.11
   1  -1  -8  142.76    6.99
   1   1   8  171.14    8.78
  -1   1   8  160.51    8.60
  -1   2   8  697.59   20.32
   1   2  -8  715.18   16.90
   1  -2   8  734.80   20.33
  -1  -2   8  717.98   20.53
  -1  -2  -8  715.35   18.64
   1  -2  -8  704.77   18.81
   1   2   8  746.15   21.17
   1  -2   8  729.95   16.04
  -1  -3   8  219.98   11.58
  -1  -3  -8  216.79   10.19
  -1   3   8  227.54   11.71
   1  -3   8  201.62   10.96
   1  -3   8  218.84    7.00
   1  -3  -8  215.71   10.43
   1   3  -8  221.12    8.14
   1   3   8  219.85   11.90
   1  -4  -8   49.03    6.54
   1   4   8   37.13    6.88
  -1  -4  -8   41.27    6.21
  -1   4   8   43.46    6.98
   1  -4   8   30.25    5.85
   1   4  -8   46.02    4.53
  -1  -4   8   46.36    7.01
   1  -5   8   59.19    8.47
  -1  -5   8   42.47    7.39
   1  -5  -8   44.82    7.06
  -1   5   8   35.57    7.23
   1   5   8   59.75    8.97
  -1  -5  -8   54.80    7.59
   1  -6  -8   43.76    7.92
  -1   6   8   37.29    8.25
  -1  -6   8   58.39    9.59
   1  -6   8   43.36    8.09
   1   6   8   43.51    8.95
  -1  -6  -8   47.97    8.08
  -1   0   9    5.03    2.68
   1   0  -9   -0.33    1.77
   1   0   9    2.14    1.56
  -1   0   9   -2.52    1.43
   1   0   9   -0.71    2.01
  -1   0  -9    1.47    1.75
  -1  -1   9   45.89    5.28
   1  -1   9   41.91    4.69
  -1   1   9   56.16    6.53
   1   1   9   38.19    2.45
  -1  -1   9   40.46    4.88
   1  -1   9   47.24    4.92
   1  -1  -9   37.86    4.46
   1   1   9   36.79    5.36
  -1   1   9   43.84    2.83
  -1  -1  -9   34.36    4.24
   1  -2  -9   35.36    4.84
   1  -2   9   40.60    5.38
  -1   2   9   39.34    5.73
  -1  -2   9   41.23    5.52
   1  -2   9   41.52    4.19
   1   2   9   29.44    5.17
  -1  -2  -9   42.12    5.24
   1   2  -9   31.91    4.12
   1   3   9  191.68   11.69
   1  -3  -9  184.03   10.17
   1  -3   9  200.86   11.17
   1   3  -9  173.87    7.57
  -1  -3  -9  193.43   10.00
  -1   3   9  161.55   10.51
  -1  -3   9  169.28   10.51
  -1  -4  -9   10.81    3.69
  -1  -4   9    8.22    3.92
   1  -4  -9    9.84    3.78
   1  -4   9   13.50    4.56
   1   4   9    7.16    4.96
  -1   4   9   16.54    5.19
  -1  -5  -9   19.96    5.17
   1   5   9   18.51    6.35
  -1   5   9   34.51    7.45
   1  -5  -9   22.34    5.48
  -1  -5   9   25.72    6.60
   1  -5   9   20.50    5.59
  -1  -6   9   10.27    5.29
   1   6   9   10.49    6.29
  -1   6   9   16.73    6.56
   1  -6   9    9.96    5.18
  -1  -6  -9    9.78    4.92
   1  -6  -9    9.94    5.24
   1   0 -10   -0.30    1.63
   1   0  10   -0.84    1.40
  -1   0  10   -2.35    2.06
  -1   0  10   -0.34    1.66
  -1   0 -10    4.45    2.16
   1   0  10    0.37    2.35
  -1   1  10  220.74   11.09
  -1  -1 -10  228.88    9.93
   1   1  10  212.90   10.90
   1   1 -10  230.92    9.28
   1  -1 -10  239.02   10.03
  -1  -1  10  241.41   10.35
   1  -1  10  224.14    9.83
   1  -1  10  232.68    9.68
  -1  -1  10  254.09   10.70
   1  -2  10  139.27    8.54
   1   2 -10  123.15    7.09
   1  -2  10  139.83    6.94
  -1  -2 -10  119.95    7.77
  -1  -2  10  131.78    8.80
   1  -2 -10  137.21    8.30
  -1   2  10  121.16    8.95
   1   2  10  129.08    9.38
  -1   3  10   80.68    9.20
   1   3 -10  103.78    6.21
  -1  -3 -10   88.94    7.26
   1  -3  10   90.41    7.92
   1  -3 -10   94.26    7.63
  -1  -3  10  106.32    8.70
   1   3  10   87.05    9.70
   1   4  10   25.41    6.42
  -1  -4  10   17.31    5.10
   1  -4 -10    9.90    3.98
   1  -4  10   12.19    4.47
  -1  -4 -10   10.30    3.81
  -1   4  10   17.76    5.45
  -1  -5  10   95.24   11.16
  -1  -5 -10   95.61   10.53
   1  -5 -10   88.04   10.38
   1  -5  10   85.00   10.32
   1   5  10  108.16   13.06
  -1   5  10   98.13   11.92
  -1   0  11   -0.60    2.01
   1   0  11   -3.19    2.25
  -1   0 -11   -0.36    2.05
  -1   0  11    1.46    1.81
   1   0 -11    0.91    1.87
   1   0  11   -0.21    1.45
   1   1  11   28.65    5.40
  -1  -1  11   22.87    4.35
   1  -1  11   24.74    4.12
  -1  -1  11   25.43    4.57
   1   1 -11   26.58    4.20
   1  -1 -11   17.47    3.63
   1  -1  11   25.54    4.27
  -1  -1 -11   22.69    4.01
  -1   1  11   23.04    4.78
  -1  -2 -11   75.38    7.57
  -1   2  11   68.87    8.32
   1   2  11   63.11    8.01
   1  -2  11   66.10    7.03
  -1  -2  11   56.54    6.80
   1  -2 -11   53.88    6.36
   1  -2  11   66.35    5.31
  -1  -2  11   55.62    5.87
  -1   3  11   74.87    9.43
  -1  -3 -11   77.37    8.11
   1  -3  11   75.87    8.33
   1   3  11   64.55    8.87
   1  -3 -11   82.53    8.60
  -1  -3  11   81.40    9.00
   1  -4 -11    9.43    4.09
  -1  -4 -11   14.17    4.54
   1   4  11   10.49    5.89
  -1  -4  11   16.56    4.96
  -1   4  11    9.09    4.66
   1  -4  11    9.00    3.94
  -1  -5 -11    3.74    3.32
   1  -5  11    1.74    3.68
   1   5  11    9.23    5.73
  -1   5  11   11.73    5.67
   1  -5 -11    4.94    3.76
  -1  -5  11    4.39    4.45
   1   0 -12    0.94    2.15
  -1   0 -12   -2.66    1.63
  -1   0  12    4.73    3.36
   1   0  12    2.74    2.93
   1   1 -12   11.31    3.24
  -1   1  12   10.80    4.04
   1  -1  12    6.36    2.98
  -1  -1  12   14.98    3.82
  -1  -1  12    8.73    3.23
   1  -1  12   13.31    3.42
   1   1  12   18.51    4.94
  -1   1 -12   15.10    3.73
  -1  -1 -12   10.42    3.34
   1  -1 -12   19.49    4.15
  -1   2  12   10.29    4.40
  -1  -2  12    5.95    3.45
  -1  -2  12    9.27    3.22
   1   2  12    6.60    4.27
   1   2 -12    7.07    2.89
   1  -2  12    6.95    3.38
   1  -2 -12    9.94    3.48
  -1  -2 -12    7.57    3.12
   1   3  12   27.15    6.61
   1  -3  12   41.51    6.43
  -1  -3  12   29.05    5.95
  -1  -3 -12   31.53    5.67
  -1   3  12   43.86    7.61
   1  -3 -12   32.89    6.06
  -1  -4  12   27.71    6.47
   1  -4  12   14.47    4.65
   1   4  12   10.72    5.63
   1  -4 -12   18.99    5.46
  -1   4  12   22.15    6.64
  -1  -4 -12   19.59    5.16
  -1   0 -13   -1.65    2.03
   1   0  13   -1.23    2.25
  -1   0  13    4.37    3.18
   1   0 -13   -0.66    2.19
  -1  -1 -13   19.56    4.38
   1  -1  13   15.16    3.64
  -1  -1  13   16.97    4.19
   1   1  13   15.30    4.93
   1   1 -13   12.16    3.50
   1  -1  13   21.24    4.51
  -1  -1  13   13.84    4.11
   1  -1 -13   22.59    4.80
  -1   1 -13   17.21    4.16
  -1   1  13   22.36    5.26
  -1  -2 -13    3.86    2.92
   1  -2 -13    3.92    3.03
  -1  -2  13    2.60    3.19
  -1   2  13   11.09    4.51
   1   2 -13    4.68    2.72
   1  -2  13    4.13    3.06
  -1  -2  13    4.96    3.07
   1   2  13    6.51    4.09
  -1   3  13   16.97    5.81
   1   3  13   18.82    6.16
   1  -3 -13   26.30    5.84
  -1  -3  13   10.68    4.26
   1  -3  13   13.21    4.36
  -1  -3 -13   12.48    4.67
   1  -4  13    4.65    3.78
  -1  -4 -13   -2.52    2.15
   1   4  13   -4.75    3.81
  -1   4  13   -5.78    3.78
  -1  -4  13    2.01    3.83
   1  -4 -13   -0.94    3.28
  -1   0 -14   -1.69    2.42
   1   0  14    4.53    3.83
   1   0 -14    1.61    2.93
  -1   0  14   -4.76    2.62
  -1  -1 -14   61.88    7.71
  -1   1 -14   54.62    7.07
  -1   1  14   47.84    7.59
   1   1 -14   51.09    6.69
   1   1  14   64.64    9.00
  -1  -1  14   73.19    8.25
   1  -1 -14   57.15    7.36
   1  -1  14   56.88   10.62
  -1  -2 -14   48.55    7.13
  -1   2  14   52.34    8.48
   1   2  14   73.90    9.71
   1  -2 -14   62.48    8.03
  -1  -2  14   64.72    7.49
   1   2 -14   76.24    7.84
   1  -2  14   67.87    7.58
  -1   2 -14   73.00    7.97
   1  -3  14   34.81    6.30
   1   3  14   52.53    9.81
   1   3 -14   38.44    6.00
  -1  -3  14   26.95    5.98
  -1  -3 -14   33.46    6.95
   1  -3 -14   37.55    6.84
  -1   3  14   33.83    7.73
   1   0  15    0.25    3.65
  -1   0  15   -0.93    3.41
   1   0 -15    2.44    3.13
  -1   0 -15   -4.04    1.99
  -1  -1  15    5.13    3.75
  -1  -1 -15    4.58    3.49
  -1   1 -15    7.80    3.64
  -1   1  15   15.55    4.94
   1   1 -15   11.62    4.18
   1  -1 -15    6.39    3.95
   1   1  15    5.61    4.59
   2   0   0  823.23   14.27
   2   0   0  806.34   14.09
   2  -1   0   71.17    3.41
   2  -1   0   75.38    2.49
   2  -1   0   75.45    2.98
  -2  -1   0   75.18    2.27
  -2  -1   0   74.14    3.15
   2   1   0   73.34    3.71
   2  -2   0  912.29   17.97
   2  -2   0  893.09   18.76
  -2  -2   0  884.32   16.78
   2   2   0  896.43   18.71
  -2  -2   0  930.02   18.75
  -2   2   0  919.20   16.40
   2   3   0  525.39   13.99
   2  -3   0  493.73   12.94
  -2  -3   0  485.91   12.57
  -2   3   0  468.38   11.73
   2  -3   0  506.24   14.32
  -2  -3   0  499.32   13.84
   2  -4   0   54.53    4.58
   2   4   0   46.94    5.50
  -2   4   0   54.83    4.52
  -2  -4   0   54.55    5.36
  -2  -4   0   53.87    5.57
   2  -4   0   44.90    5.49
  -2   5   0  256.70   10.32
   2  -5   0  270.28   12.64
  -2  -5   0  253.83   11.59
  -2  -5   0  262.81   11.22
   2   5   0  285.39   12.30
   2  -5   0  252.84   10.79
   2   6   0   89.62    8.98
  -2   6   0   92.23    6.94
   2  -6   0   80.00    8.93
  -2  -6   0   85.04    8.76
   2  -6   0   87.43    7.13
  -2  -6   0   92.89    7.56
   2  -7   0    4.74    3.16
  -2  -7   0    3.54    3.50
   2   7   0    2.37    3.88
   2   0   1  198.38    4.72
  -2   0   1  193.95    4.65
   2   0   1  191.11    4.85
   2   0  -1  196.81    5.11
   2   0  -1  192.91    4.06
   2   1   1 2822.35   45.70
   2  -1   1 2795.30   45.84
   2  -1  -1 2799.71   44.52
   2   1  -1 2834.74   45.13
   2  -1   1 2829.03   42.93
   2  -1  -1 2870.79   44.89
  -2  -1   1 2890.95   46.50
  -2   1  -1 2823.43   42.19
  -2  -1  -1 2818.13   44.90
   2  -1  -1 2904.15   44.12
  -2  -1  -1 2901.56   42.94
  -2   2  -1   66.05    2.68
  -2  -2   1   73.30    3.47
   2  -2  -1   70.29    3.28
  -2  -2  -1   66.28    3.48
  -2  -2   1   70.24    4.36
   2  -2   1   74.45    4.25
   2  -2  -1   76.89    4.53
   2   2   1   65.44    4.53
   2   2  -1   66.22    4.16
  -2   2   1   78.99    3.79
   2  -2   1   74.04    4.39
  -2  -2  -1   73.71    3.73
   2  -3   1  156.02    6.99
   2   3   1  150.67    7.65
  -2  -3   1  163.88    7.61
   2  -3  -1  157.87    6.13
  -2   3  -1  158.90    5.45
  -2  -3  -1  145.96    6.50
  -2   3   1  146.50    6.20
  -2  -3  -1  150.39    6.50
   2   3  -1  145.74    6.93
   2  -3  -1  154.30    7.55
   2  -3   1  158.11    7.48
  -2  -3   1  151.69    6.24
   2   4   1  127.15    7.80
  -2   4   1  131.18    7.02
   2  -4   1  150.39    7.83
  -2   4  -1  130.03    5.99
   2  -4  -1  127.14    7.98
  -2  -4   1  126.76    6.91
  -2  -4  -1  126.67    7.06
  -2  -4   1  141.79    8.10
  -2  -4  -1  127.16    7.19
   2  -4  -1  125.34    6.39
   2  -4   1  119.53    7.60
   2   4  -1  123.80    7.35
  -2  -5  -1  233.58   10.72
  -2  -5   1  246.63   11.80
   2  -5   1  237.52   10.77
   2   5  -1  224.60   10.71
  -2   5   1  228.32   10.38
   2   5   1  234.52   11.66
  -2   5  -1  232.22    9.11
   2  -5  -1  244.96    9.95
   2  -5   1  238.03   11.72
   2  -5  -1  232.04   11.86
  -2  -5  -1  242.89   11.15
  -2  -5   1  247.64   10.76
   2  -6   1    4.12    3.04
  -2  -6   1    9.87    3.84
  -2   6   1   12.36    3.84
   2   6   1   11.50    4.49
  -2  -6  -1    3.71    3.19
  -2  -6  -1   11.75    3.54
   2   6  -1    9.17    3.94
   2  -6  -1    8.06    3.94
   2  -6  -1    6.19    2.78
   2   7  -1    5.06    3.90
  -2  -7  -1    8.58    3.63
   2   7   1    1.45    3.83
  -2  -7  -1    9.52    4.23
   2  -7  -1    5.47    4.18
   2  -7  -1    7.47    3.37
  -2  -7   1    6.49    4.29
   2  -7   1    8.91    3.95
   2   0  -2 8012.82  123.82
   2   0  -2 8092.09  119.50
   2   0   2 8045.38  120.14
   2   0   2 7620.72  127.44
  -2   0   2 8086.21  127.77
   2   1   2  400.47   10.31
   2  -1  -2  422.12    9.55
   2  -1   2  413.89    9.89
  -2  -1   2  402.52   10.17
  -2  -1  -2  423.13    8.22
   2   1  -2  409.28    9.53
   2  -1  -2  409.61    9.43
  -2  -1  -2  428.38    8.47
   2  -1  -2  412.41    7.76
  -2   2  -2 1000.04   15.46
   2  -2  -2 1019.01   17.72
  -2  -2   2 1012.32   21.65
   2   2   2  947.76   20.97
  -2   2  -2  978.37   15.28
   2   2  -2 1011.02   19.76
  -2   2   2  992.76   19.60
   2  -2  -2 1034.55   20.78
  -2  -2  -2  990.27   18.75
   2  -2   2  997.91   20.87
  -2  -2  -2 1012.57   18.95
   2   3   2  376.13   12.80
  -2  -3  -2  415.14   11.21
  -2   3   2  399.13   11.67
  -2   3  -2  418.44    8.84
   2  -3  -2  413.64   10.01
   2  -3  -2  416.49   13.01
  -2  -3   2  395.90   13.15
   2   3  -2  412.55   11.75
  -2  -3  -2  403.09   11.57
   2  -3   2  412.01   12.71
   2  -4  -2  844.81   22.70
  -2  -4  -2  843.61   20.26
   2  -4  -2  859.86   18.86
  -2   4   2  879.64   21.23
  -2  -4   2  863.71   23.19
   2  -4   2  859.06   22.13
   2   4   2  881.06   22.83
  -2   4  -2  863.42   17.30
   2   4  -2  855.01   20.49
  -2  -4  -2  857.30   21.11
   2  -5  -2  255.87    9.56
  -2  -5  -2  248.99   10.54
   2   5  -2  249.74   10.70
  -2  -5   2  249.44   12.37
  -2   5  -2  236.16    8.44
   2  -5   2  250.28   11.59
   2   5   2  254.29   12.31
  -2  -5  -2  248.42   11.59
   2  -5  -2  227.55   12.08
  -2   5   2  245.94   11.39
  -2  -6   2   65.49    8.19
   2  -6  -2   61.74    8.27
   2   6   2   58.11    7.87
   2  -6   2   57.55    7.29
  -2  -6  -2   70.05    8.05
  -2   6   2   79.14    8.34
  -2  -6  -2   61.19    6.69
   2  -6  -2   63.24    5.40
   2   6  -2   63.89    7.17
   2  -7  -2    0.78    3.38
  -2  -7  -2    0.31    2.77
   2   7   2    3.44    4.45
   2  -7   2   -1.76    2.44
  -2   7   2   -0.85    3.23
  -2  -7   2   -2.57    2.57
  -2   0   3  349.45    8.12
   2   0   3  333.78    8.13
   2   0  -3  346.11    7.22
   2   0  -3  332.57    8.49
   2   0   3  338.04    7.73
  -2  -1   3 1754.52   31.79
   2  -1   3 1765.24   31.19
   2  -1  -3 1788.67   29.83
   2   1   3 1742.40   28.04
   2  -1   3 1750.29   26.82
   2   1   3 1720.85   31.04
   2  -1  -3 1721.48   30.26
  -2  -1  -3 1734.94   28.69
  -2   1   3 1797.16   27.86
   2   1  -3 1714.54   29.73
   2  -2   3   91.94    5.29
   2  -2  -3   98.39    2.95
  -2  -2  -3   92.45    4.44
  -2   2   3   90.00    4.95
   2   2   3   90.52    5.70
  -2  -2   3   88.31    5.51
  -2  -2  -3   98.67    3.74
   2  -2  -3   96.61    5.32
   2   2  -3   99.75    4.77
  -2   3  -3  302.62    6.17
   2   3   3  310.86   11.81
   2   3  -3  298.15    9.55
  -2  -3   3  295.74   11.56
  -2  -3  -3  301.72    8.75
   2  -3   3  292.59   10.98
  -2   3   3  314.67   10.54
   2  -3  -3  308.33   11.14
   2  -3  -3  296.10    7.47
  -2  -3  -3  294.18    9.86
   2   4   3   17.13    4.30
   2  -4   3    8.99    3.01
   2  -4  -3   11.71    2.10
  -2  -4   3    5.03    3.15
   2  -4  -3   17.96    4.10
  -2   4  -3   15.64    2.06
  -2   4   3    9.94    3.30
  -2  -4  -3   13.22    2.66
   2   4  -3   12.58    3.02
  -2  -4  -3   10.93    3.06
  -2  -5  -3  426.48   13.55
  -2  -5   3  389.69   16.38
   2  -5  -3  410.07   16.56
   2  -5   3  416.42   15.87
   2  -5  -3  428.25   12.02
  -2  -5  -3  439.09   15.72
   2   5  -3  399.72   13.62
   2   5   3  435.93   16.91
  -2   5   3  405.31   15.49
   2  -6   3   -0.29    2.49
   2   6   3    0.84    3.79
  -2  -6   3    1.13    3.18
  -2  -6  -3    4.98    2.99
  -2  -6  -3    3.27    2.33
  -2   6   3    3.07    3.43
   2  -6  -3    3.55    3.66
   2   6  -3    1.07    2.52
  -2  -7   3    5.17    3.92
  -2   7   3    7.85    4.65
  -2  -7  -3   13.55    4.85
   2   7   3    2.40    4.79
   2  -7  -3    3.22    4.02
   2  -7   3   10.64    4.82
   2   0   4 2417.47   39.37
   2   0  -4 2468.12   38.17
  -2   0   4 2383.44   40.18
   2   0   4 2369.30   39.53
   2   0  -4 2388.32   40.11
   2   1   4  644.47   15.16
   2   1  -4  629.66   13.82
   2  -1   4  653.83   11.75
  -2  -1  -4  627.54   13.16
   2  -1  -4  638.44   13.72
  -2  -1   4  650.96   15.41
   2  -1   4  635.87   14.66
   2   1   4  638.68   11.57
   2  -1  -4  608.42   14.43
  -2   1   4  646.28   11.77
   2  -2  -4  336.35   10.30
  -2  -2   4  303.08   10.97
   2  -2  -4  317.05    6.00
   2  -2   4  322.78    5.59
   2   2   4  312.62   11.01
  -2  -2  -4  317.73    9.17
   2  -2   4  324.32    5.47
   2   2  -4  315.45    9.07
  -2  -2  -4  317.09    7.24
  -2   2   4  307.70   10.16
   2  -2   4  318.94   10.66
   2  -3   4  330.05   12.08
  -2   3   4  293.55   10.95
   2  -3  -4  317.09    6.84
  -2   3  -4  308.96    5.58
  -2  -3  -4  321.11   10.55
  -2  -3  -4  315.04    8.44
  -2  -3   4  323.77   12.58
   2   3  -4  313.27    9.79
   2   3   4  312.41   12.42
   2  -3  -4  301.05   11.42
   2   4   4  390.11   15.56
  -2  -4  -4  364.44   10.69
  -2   4  -4  378.65    7.84
   2  -4   4  361.79   14.19
  -2  -4  -4  388.52   13.37
  -2  -4   4  388.69   15.33
   2  -4  -4  391.92   14.61
  -2   4   4  390.76   13.97
   2  -4  -4  373.90    9.13
   2   4  -4  383.28   11.94
  -2  -5  -4  183.12    8.01
   2  -5  -4  188.18   11.42
  -2  -5   4  173.01   11.16
   2  -5  -4  189.24    7.09
   2  -5   4  173.89   10.71
   2   5  -4  162.72    8.30
  -2   5   4  185.45   10.94
   2   5   4  182.37   11.54
  -2  -5  -4  176.50    9.99
   2  -6  -4   24.77    5.85
   2  -6   4   28.11    5.50
  -2  -6  -4   29.25    5.73
   2   6   4   21.89    5.85
   2   6  -4   27.20    4.71
  -2  -6   4   31.94    6.37
  -2   6   4   29.29    6.43
  -2  -7   4   -1.03    3.26
   2   7   4    6.81    5.06
  -2  -7  -4   -4.06    2.02
   2  -7  -4    1.94    3.29
   2  -7   4    0.33    3.18
  -2   7   4    1.08    4.12
  -2   0   5 1125.83   21.90
   2   0  -5 1167.61   20.71
   2   0  -5 1125.52   22.46
   2   0   5 1149.06   21.19
   2   0   5 1126.17   21.80
   2   1   5  583.12   11.13
   2  -1   5  599.82   11.99
   2   1   5  595.93   15.05
  -2  -1   5  586.22   15.05
   2   1  -5  590.16   13.75
  -2  -1  -5  582.06   13.18
  -2   1   5  593.00   11.54
   2  -1  -5  593.10   13.60
  -2   1   5  582.44   14.79
   2  -1   5  573.83   14.36
   2  -2   5   40.08    1.93
  -2   2   5   37.82    1.42
   2   2   5   40.58    4.93
   2  -2  -5   32.51    3.80
   2  -2   5   38.55    4.53
  -2  -2  -5   37.52    2.02
  -2  -2   5   37.66    4.85
  -2  -2  -5   41.33    4.01
   2   2  -5   39.27    3.78
  -2   2   5   38.73    4.52
  -2  -3   5  619.77   19.20
   2  -3  -5  614.24   17.44
  -2   3   5  603.82   17.38
   2  -3   5  611.83   18.17
   2   3  -5  614.48   14.93
   2  -3  -5  618.17   10.28
  -2  -3  -5  613.61   16.33
   2   3   5  656.52   19.26
  -2  -3  -5  604.23   12.55
   2  -4   5   81.23    7.02
  -2  -4  -5   74.46    6.07
   2  -4  -5   88.64    3.79
  -2  -4   5   86.98    7.75
  -2   4   5   98.03    7.46
   2  -4  -5   78.50    7.73
   2   4   5   88.76    9.22
  -2  -4  -5   90.47    4.47
   2   4  -5   80.98    5.54
  -2  -5  -5  144.09    9.36
  -2   5   5  153.45   10.40
  -2  -5   5  146.24   10.72
   2   5   5  153.04   11.32
   2   5  -5  153.91    7.91
   2  -5  -5  157.73   10.41
   2  -5   5  151.58   10.17
   2  -6   5    3.88    3.33
   2   6   5    0.02    4.38
  -2  -6  -5    6.05    3.53
  -2   6   5    9.39    4.50
   2  -6  -5    1.13    3.67
  -2  -6   5    2.72    3.65
   2   7   5    1.97    4.97
  -2  -7   5   -0.76    3.52
  -2   7   5    5.97    5.00
  -2  -7  -5    5.86    4.21
   2  -7  -5    0.94    3.55
   2  -7   5    0.98    3.67
   2   0   6 1317.11   25.38
   2   0  -6 1281.44   25.91
  -2   0   6 1297.99   25.23
   2   0  -6 1338.10   24.06
   2   0   6 1311.55   24.32
   2  -1   6  387.75    9.78
   2   1   6  408.74    8.59
  -2   1   6  405.33   12.51
   2  -1   6  401.52   11.73
  -2   1   6  406.35    9.09
   2   1   6  390.37   12.26
  -2  -1   6  414.82   12.50
  -2  -1  -6  404.25   10.91
   2   1  -6  396.25   11.22
   2  -1  -6  402.38   11.04
   2  -2   6  519.62   15.39
   2  -2  -6  496.23   14.26
  -2  -2  -6  517.65   13.73
   2  -2   6  527.80   10.51
  -2   2   6  499.72   15.23
   2   2   6  514.47   16.07
   2   2  -6  512.77   13.15
  -2  -2   6  508.89   16.00
  -2  -2  -6  532.51    9.79
   2   3  -6   36.43    4.04
  -2   3   6   31.77    4.91
  -2  -3  -6   27.95    3.96
   2  -3  -6   42.32    5.40
  -2  -3   6   34.43    5.44
   2  -3   6   31.84    4.78
   2  -3   6   36.00    1.76
  -2  -3  -6   37.87    2.08
   2   3   6   47.56    6.38
   2   4  -6  242.42    9.01
   2  -4   6  224.49   11.69
  -2  -4  -6  235.11   10.85
  -2  -4   6  231.76   12.56
   2  -4  -6  232.24   11.58
  -2   4   6  229.03   11.66
   2   4   6  217.42   12.43
  -2   5   6   74.64    8.71
  -2  -5  -6   69.54    8.21
   2   5  -6   65.81    6.01
  -2  -5   6   73.02    9.13
   2  -5   6   73.35    8.64
   2   5   6   78.04    9.70
   2  -5  -6   63.93    7.94
  -2  -6  -6    9.57    3.88
  -2   6   6    4.77    4.45
   2   6   6   11.10    5.26
   2  -6   6   12.22    4.59
   2  -6  -6   10.42    4.55
  -2  -6   6   10.33    4.66
   2   7   6   13.27    6.45
  -2  -7  -6   16.91    5.20
   2  -7  -6    9.65    5.02
  -2  -7   6   18.67    6.32
   2  -7   6   23.56    6.40
  -2   7   6   11.72    6.05
   2   0  -7   71.77    5.29
  -2   0   7   78.57    4.82
   2   0   7   72.51    5.03
   2   0   7   82.55    4.31
   2   0  -7   77.38    4.51
  -2   1   7  641.48   13.08
  -2   1   7  603.51   16.92
   2   1   7  627.97   12.36
  -2  -1  -7  619.83   15.25
  -2  -1   7  621.01   16.92
   2   1   7  596.72   16.93
   2  -1  -7  614.91   15.36
   2   1  -7  611.28   15.72
   2  -1   7  641.70   14.44
   2  -1   7  653.49   16.39
  -2  -2  -7   62.24    4.75
   2  -2  -7   50.80    5.12
  -2  -2  -7   59.17    2.22
   2   2  -7   59.56    4.34
  -2  -2   7   49.82    5.80
  -2   2   7   49.73    5.60
   2   2   7   53.23    6.34
   2  -2   7   64.56    3.48
   2  -2   7   63.77    5.59
   2   3   7   65.89    7.75
  -2   3   7   66.40    7.17
  -2  -3   7   86.96    7.44
   2  -3  -7   68.94    6.84
  -2  -3  -7   84.57    6.07
   2  -3   7   88.03    7.09
   2   3  -7   76.87    5.15
  -2   4   7   64.11    7.83
   2   4   7   65.34    8.31
   2  -4  -7   49.29    6.49
   2  -4   7   64.64    7.56
  -2  -4  -7   78.23    7.67
  -2  -4   7   78.56    9.01
   2   4  -7   70.65    5.07
   2  -5   7  180.63   11.77
  -2   5   7  210.40   12.73
  -2  -5  -7  197.73   11.32
   2  -5  -7  204.20   12.35
   2   5   7  210.98   13.75
  -2  -5   7  211.03   13.31
  -2   6   7    3.01    4.43
   2   6   7    6.99    5.02
   2  -6   7    7.52    4.25
  -2  -6  -7    4.53    3.76
   2  -6  -7   10.39    4.83
  -2  -6   7    3.86    4.09
   2   0   8  577.89   13.70
   2   0  -8  543.33   15.74
  -2   0   8  533.11   14.27
   2   0   8  558.63   15.38
  -2   1   8   61.35    3.45
   2  -1   8   52.66    4.13
   2  -1  -8   52.48    4.46
  -2   1   8   45.96    5.38
   2   1   8   59.92    6.13
  -2  -1   8   46.04    5.07
   2   1  -8   65.01    4.25
   2   1  -8   48.12    4.99
   2   1   8   55.36    2.89
  -2  -1  -8   54.79    4.45
   2  -1   8   46.12    5.00
  -2  -2  -8   58.17    2.51
   2   2  -8   56.42    4.52
   2  -2   8   59.02    3.76
   2  -2   8   57.21    5.97
   2   2   8   50.99    6.50
   2  -2  -8   46.29    5.17
  -2  -2   8   54.20    6.24
  -2  -2  -8   56.72    5.70
  -2   2   8   55.79    6.42
   2   3  -8   52.56    5.03
   2  -3  -8   49.44    6.07
   2  -3   8   38.45    5.63
  -2   3   8   49.86    6.58
  -2  -3  -8   44.07    5.36
  -2  -3   8   45.74    6.76
   2   3   8   38.81    6.38
   2   4  -8  163.57    7.59
  -2   4   8  134.91   10.21
  -2  -4  -8  136.13    8.88
   2  -4   8  130.00    9.60
   2   4   8  150.55   11.18
   2  -4  -8  164.21   10.47
  -2  -4   8  135.09   10.27
   2   5   8   34.15    7.62
   2  -5  -8   39.21    7.08
  -2   5   8   39.58    7.29
  -2  -5  -8   38.94    6.44
  -2  -5   8   45.46    7.74
   2  -5   8   35.45    6.64
   2   6   8   31.50    8.68
  -2  -6   8   29.17    7.29
   2  -6   8   34.69    7.33
   2  -6  -8   39.32    7.80
  -2   6   8   34.83    7.79
  -2  -6  -8   25.61    6.31
   2   0   9  119.50    7.18
   2   0   9  111.72    5.57
  -2   0  -9  115.66    6.49
  -2   0   9  113.19    7.35
  -2   0   9  104.42    5.96
   2   0  -9  120.53    6.43
   2  -1  -9  229.29    9.65
  -2  -1  -9  239.32    9.64
   2  -1   9  246.78    9.96
   2   1  -9  254.24    9.04
   2   1  -9  240.96    9.94
   2   1   9  245.92    6.81
   2  -1   9  249.23    9.30
  -2   1   9  250.19   11.32
  -2  -1   9  229.35   10.28
  -2   1   9  242.50    7.34
   2   1   9  241.92   11.07
  -2   2   9   13.49    4.06
  -2  -2  -9    6.00    2.74
   2  -2   9    5.24    2.60
   2  -2  -9    5.78    2.51
  -2  -2   9    8.19    3.10
   2   2  -9    7.84    2.63
   2   2   9   13.40    4.50
   2  -2   9   13.70    2.55
   2   3   9   16.21    5.26
   2  -3  -9   19.67    4.72
  -2  -3  -9   20.94    4.15
   2  -3   9   19.64    4.32
   2   3  -9   15.80    3.19
  -2  -3   9   16.34    4.78
  -2   3   9   19.76    4.79
  -2   4   9   12.23    4.39
  -2  -4  -9    8.69    3.40
  -2  -4   9    8.52    3.88
   2  -4  -9   15.51    4.53
   2   4   9   15.23    5.30
   2   4  -9   15.74    3.29
   2  -4   9   12.96    4.20
  -2  -5   9   38.67    7.32
   2  -5   9   37.72    6.92
  -2   5   9   45.44    8.12
  -2  -5  -9   46.43    7.37
   2   5   9   36.91    8.03
   2  -5  -9   52.54    8.01
  -2  -6  -9    4.47    3.93
  -2   6   9   12.79    5.93
   2   6   9    8.84    6.22
   2  -6   9    3.08    4.19
   2  -6  -9    7.37    4.64
  -2  -6   9   14.63    5.71
   2   0 -10   27.62    4.01
   2   0  10   21.23    3.09
  -2   0 -10   19.72    3.48
   2   0  10   22.54    4.33
  -2   0  10   28.47    3.94
  -2   0  10   21.47    4.25
   2   1 -10  119.38    6.71
   2  -1  10  122.44    7.10
   2  -1 -10  118.33    7.20
   2   1  10  119.58    8.56
   2   1 -10  123.14    7.45
   2   1  10  126.17    6.26
  -2  -1 -10   96.67    6.59
  -2  -1  10  112.17    7.40
  -2   1  10  119.50    8.34
   2  -1  10  126.31    7.28
  -2  -2 -10   26.55    4.44
   2  -2  10   23.89    4.41
  -2  -2  10   30.52    5.12
   2  -2 -10   23.50    4.34
   2   2 -10   37.80    4.89
   2   2  10   33.74    6.34
  -2   2  10   38.46    6.10
   2  -2  10   38.66    4.24
   2   3 -10   47.79    5.32
  -2   3  10   54.96    7.76
  -2  -3 -10   53.15    6.81
   2   3  10   61.64    8.52
  -2  -3  10   52.42    7.34
   2  -3  10   56.37    6.97
   2  -3 -10   58.63    7.19
  -2  -4  10   67.69    9.01
   2   4  10   58.47    9.18
  -2   4  10   63.57    9.07
   2  -4  10   52.52    7.36
   2  -4 -10   69.62    8.56
  -2  -4 -10   55.71    7.50
  -2  -5  10   94.69   11.75
   2  -5  10   85.55   10.14
   2   5  10   86.19   12.16
   2  -5 -10   81.58   10.00
  -2   5  10   93.36   11.52
  -2  -5 -10   83.74    9.85
  -2   0 -11   13.99    3.36
   2   0 -11   10.94    2.90
  -2   0  11   19.40    3.49
   2   0  11   14.95    2.72
   2   0  11   13.48    3.87
  -2   0  11   15.65    4.00
   2  -1 -11  624.92   18.71
  -2  -1 -11  644.52   18.77
  -2  -1  11  612.96   18.98
  -2   1  11  632.97   20.87
   2   1  11  640.42   20.69
   2   1 -11  640.44   17.60
   2  -1  11  635.59   18.03
  -2  -1  11  652.64   19.18
   2  -1  11  655.65   18.25
   2   2 -11   26.41    3.95
  -2  -2  11   21.78    4.60
  -2   2  11   26.71    5.67
   2   2 -11   23.85    4.33
   2   2  11   21.60    5.42
   2  -2  11   24.96    4.72
  -2  -2 -11   30.32    4.99
   2  -2 -11   32.33    5.09
  -2   3  11    2.30    3.57
   2  -3  11    5.79    3.26
   2   3 -11   13.19    3.30
   2  -3 -11    5.74    3.26
  -2  -3 -11    8.17    3.56
   2   3  11    6.41    4.52
  -2  -3  11    7.57    3.92
   2  -4 -11   20.79    5.33
  -2  -4  11   18.50    5.40
   2  -4  11   16.94    4.80
  -2   4  11   34.60    7.33
   2   4  11   20.46    6.59
  -2  -4 -11   31.51    6.09
  -2   5  11   74.37   11.07
   2  -5  11   84.10   10.65
  -2  -5  11   70.41   10.23
   2  -5 -11   56.98    8.87
   2   5  11   86.49   12.24
  -2  -5 -11   59.23    8.68
   2   0  12  125.08    8.86
  -2   0 -12  112.97    7.74
   2   0 -12  129.54    7.97
  -2   0  12  108.86    8.38
  -2   1 -12   31.92    4.99
  -2  -1  12   43.12    5.96
  -2  -1  12   48.53    5.95
  -2  -1 -12   37.42    5.27
   2  -1  12   44.23    5.70
   2  -1  12   46.90    5.56
   2   1 -12   53.17    6.02
   2   1  12   54.45    7.53
  -2   1  12   46.02    6.95
   2  -1 -12   35.63    5.17
  -2  -2 -12   19.45    4.77
  -2   2  12   13.02    4.51
  -2  -2  12   20.95    4.41
   2  -2 -12   11.27    3.99
   2   2  12   15.52    5.56
   2   2 -12   13.85    3.56
   2  -2  12    9.81    3.51
  -2  -2  12    9.78    4.04
   2   3  12   12.35    5.41
   2  -3 -12   10.24    4.21
   2  -3  12   12.07    4.33
  -2  -3 -12    6.99    3.24
  -2   3  12    3.33    3.82
  -2  -3  12   13.22    4.54
  -2   4  12   21.58    6.43
   2  -4  12   21.62    5.67
   2   4  12   27.08    7.43
  -2  -4  12   13.67    5.40
   2  -4 -12   14.74    5.09
  -2  -4 -12   17.95    4.96
  -2   0 -13    5.18    3.20
   2   0 -13    1.94    2.72
  -2   0  13    3.55    3.11
   2   0  13    8.03    3.79
   2  -1  13   81.73    8.13
  -2  -1 -13   71.42    7.64
   2  -1  13   70.60    6.19
  -2  -1  13   68.89    7.62
  -2   1 -13   67.09    7.39
  -2   1  13   80.49    9.38
   2   1  13   61.67    7.99
   2  -1 -13   72.71    7.87
   2   1 -13   68.87    7.09
   2   2 -13    0.56    2.61
  -2  -2 -13    3.16    2.90
  -2  -2  13    3.76    3.31
   2  -2  13    1.83    2.56
  -2   2  13    7.60    4.24
  -2  -2  13    1.29    2.54
   2  -2 -13    2.72    2.96
   2   2  13    2.91    3.78
  -2  -3 -13   40.61    6.98
   2  -3 -13   37.84    7.14
   2   3 -13   29.02    4.95
  -2   3  13   39.43    7.80
  -2  -3  13   25.63    6.00
   2  -3  13   28.00    5.83
   2   3  13   32.41    8.20
  -2   0 -14  404.56   16.35
   2   0  14  430.19   17.51
   2  -1 -14   15.07    4.47
   2   1 -14   18.93    4.57
   2   1  14   19.82    6.06
  -2   1 -14   19.11    4.87
  -2   1  14   16.99    5.42
  -2  -1  14   19.82    5.01
  -2  -1 -14   19.03    4.85
  -2  -2 -14   26.98    5.65
  -2  -2  14   34.79    5.93
   2  -2 -14   29.28    6.30
   2   2  14   30.90    6.98
   2  -2  14   24.70    5.16
  -2   2 -14   34.45    6.13
   2   2 -14   33.00    5.44
  -2   2  14   37.73    7.50
  -2   0  15   67.01    9.09
   2   0 -15   54.64    7.45
  -2   0 -15   67.52    8.17
   2   0  15   53.96    7.80
  -2  -1 -15   27.74    5.83
   2   1 -15   37.58    6.08
   2   1  15   54.88    8.77
  -2   1  15   32.86    6.96
   2  -1 -15   33.59    6.05
  -2  -1  15   35.52    6.47
  -2   1 -15   43.60    6.50
   3   0   0    0.54    0.67
   3   0   0    0.47    1.09
   3  -1   0  438.24    9.76
   3  -1   0  460.66    9.02
   3   1   0  457.33   11.15
  -3  -1   0  453.79    7.61
   3  -1   0  452.17   10.37
  -3  -1   0  451.17   10.13
  -3  -2   0 2482.94   38.95
   3  -2   0 2398.12   41.53
  -3   2   0 2432.08   39.04
   3  -2   0 2477.99   42.44
  -3  -2   0 2511.75   42.94
   3   2   0 2471.32   42.79
   3   3   0   15.87    3.34
  -3  -3   0   14.40    3.01
  -3   3   0   14.20    2.17
   3  -3   0   12.83    3.03
  -3  -3   0   12.18    2.31
   3  -3   0    9.16    2.05
  -3  -4   0  140.00    6.96
  -3   4   0  119.02    6.16
   3  -4   0  127.29    8.12
  -3  -4   0  117.70    7.34
   3   4   0  132.10    8.00
   3  -4   0  129.16    6.76
   3  -5   0   12.24    3.20
   3   5   0   13.50    3.98
  -3  -5   0   16.66    4.19
  -3  -5   0   18.39    3.78
  -3   5   0   17.89    3.62
   3  -5   0   13.86    4.04
   3  -6   0    7.18    3.86
  -3  -6   0    4.18    2.93
  -3  -6   0    2.94    3.00
   3   6   0   -1.49    3.22
   3  -6   0    3.98    2.72
   3  -7   0   12.62    3.85
   3   7   0   17.09    5.83
  -3  -7   0   13.38    4.57
   3   0  -1   -1.40    0.70
   3   0   1   -0.98    0.67
   3   0   1   -1.45    1.04
   3   0  -1   -1.55    1.07
   3   0  -1   -0.11    0.71
   3  -1  -1 1611.93   26.88
  -3  -1  -1 1627.52   25.10
   3  -1  -1 1613.43   27.67
   3  -1   1 1584.68   27.99
   3   1   1 1618.07   28.79
   3  -1   1 1639.47   25.25
  -3  -1   1 1646.17   28.63
  -3  -1  -1 1628.81   27.39
   3  -1  -1 1579.61   26.95
   3   1  -1 1594.88   28.32
  -3  -2   1  163.37    6.77
  -3   2  -1  176.02    4.40
   3   2   1  158.37    7.13
  -3  -2  -1  166.12    6.06
  -3  -2   1  165.70    4.82
   3  -2  -1  154.62    6.72
   3  -2  -1  166.04    5.49
   3  -2   1  179.60    6.48
  -3  -2  -1  173.15    5.36
   3   2  -1  181.26    7.11
  -3   2   1  167.75    5.64
  -3   3  -1  146.48    5.11
  -3  -3  -1  159.18    7.14
   3  -3   1  158.15    7.74
   3   3   1  158.33    8.09
  -3  -3   1  158.29    6.00
  -3  -3   1  150.47    7.60
   3  -3  -1  152.61    7.77
   3  -3   1  155.20    7.00
   3   3  -1  151.64    7.59
  -3  -3  -1  161.41    6.46
  -3   3   1  146.00    6.09
   3  -3  -1  161.96    6.18
  -3   4  -1   44.49    3.96
  -3  -4  -1   39.78    4.68
   3   4   1   39.07    5.63
   3   4  -1   37.31    5.00
   3  -4   1   28.49    4.08
  -3   4   1   32.71    4.13
  -3  -4   1   46.72    5.74
  -3  -4   1   41.05    4.43
   3  -4  -1   38.86    5.35
   3  -4   1   38.45    5.34
  -3  -4  -1   32.01    4.35
   3  -4  -1   39.24    4.11
  -3   5   1   82.90    6.40
   3   5  -1   78.28    7.77
   3   5   1   71.89    7.66
  -3  -5  -1   82.44    6.57
  -3  -5   1   68.86    5.75
   3  -5  -1   63.76    5.19
  -3   5  -1   61.87    4.86
  -3  -5  -1   78.94    7.67
  -3  -5   1   72.75    7.79
   3  -5  -1   70.13    7.88
   3  -5   1   71.78    6.07
   3   6  -1   97.04    8.29
  -3   6   1  104.46    7.90
   3  -6  -1   81.39    9.31
   3  -6   1   86.23    7.16
   3  -6  -1   92.15    6.66
  -3  -6   1   86.36    9.35
   3   6   1   94.89    9.55
  -3  -6  -1   91.16    7.87
  -3  -6  -1  102.24    7.99
   3  -7  -1   33.75    5.28
   3   7   1   18.20    5.78
   3  -7   1   30.99    5.73
  -3  -7  -1   34.27    5.99
  -3  -7   1   29.88    6.12
  -3  -7  -1   34.54    6.38
   3   7  -1   31.79    6.43
   3  -7  -1   27.40    6.38
   3   0  -2    1.26    1.28
   3   0  -2    0.05    0.72
  -3   0   2    0.12    0.84
   3   0   2   -0.74    0.68
   3   0   2   -0.15    1.23
  -3  -1   2  726.83   15.53
  -3  -1  -2  708.59   12.76
   3   1   2  697.57   13.22
   3   1  -2  686.49   14.81
   3  -1  -2  709.31   12.90
   3  -1  -2  694.57   14.33
   3   1   2  708.36   15.62
   3  -1  -2  684.18   14.36
   3  -1   2  698.03   11.63
   3  -1   2  707.90   14.78
   3  -2  -2  169.35    5.20
   3  -2   2  186.90    7.09
   3   2  -2  175.75    7.10
  -3  -2  -2  172.31    5.94
  -3   2   2  186.08    6.52
  -3  -2  -2  184.91    5.87
   3   2   2  187.55    7.94
  -3  -2   2  189.44    7.74
   3  -2  -2  169.48    7.11
  -3   3   2   30.01    3.53
  -3  -3  -2   23.61    3.08
   3  -3   2   21.69    3.41
  -3   3  -2   22.06    1.88
   3   3  -2   20.83    3.42
  -3  -3  -2   20.71    2.95
   3  -3  -2   28.58    4.15
  -3  -3   2   33.57    4.57
   3   3   2   26.16    4.41
   3  -3  -2   28.26    2.79
  -3  -4  -2   65.67    5.10
   3   4   2   57.21    6.57
   3   4  -2   58.31    5.77
   3  -4  -2   51.92    6.16
  -3   4  -2   54.13    3.41
   3  -4  -2   54.58    3.95
  -3  -4  -2   51.39    5.20
   3  -4   2   61.61    6.09
  -3   4   2   59.71    5.12
  -3  -4   2   51.48    6.22
   3  -5  -2   48.86    6.82
  -3  -5  -2   48.39    6.21
   3   5  -2   46.44    5.78
  -3   5   2   48.12    5.99
  -3  -5  -2   44.27    5.56
   3  -5   2   61.25    6.73
   3   5   2   54.94    7.18
  -3  -5   2   47.31    6.59
   3  -5  -2   59.54    4.67
   3  -6  -2  173.27   11.65
   3  -6   2  162.98   10.28
  -3  -6  -2  157.59    9.62
   3   6   2  155.53   11.30
  -3  -6   2  152.13   10.81
  -3  -6  -2  157.77   10.01
   3   6  -2  160.75    9.82
   3  -6  -2  162.52    8.30
  -3   6   2  156.33   10.10
   3  -7  -2    4.37    3.97
   3   7   2    7.95    5.08
  -3  -7   2    3.90    3.70
   3   7  -2    7.32    3.99
  -3  -7  -2    4.24    3.49
   3  -7   2    6.95    3.43
  -3   0   3   -1.49    0.81
   3   0  -3   -0.67    0.75
   3   0   3   -0.27    1.32
   3   0  -3   -0.61    1.15
   3   0   3    0.32    0.87
   3   1  -3  329.98    9.23
   3  -1   3  337.22    6.65
   3   1   3  327.50    7.45
  -3   1   3  338.07    7.40
  -3  -1  -3  325.85    7.81
  -3  -1   3  318.94    9.64
   3  -1  -3  332.94    8.90
   3   1   3  330.97    9.92
   3  -1  -3  351.96    9.34
   3  -1   3  335.51    9.21
   3  -2   3  164.92    7.14
   3  -2  -3  162.34    4.52
   3   2   3  140.08    7.31
   3   2  -3  162.36    6.67
   3  -2  -3  159.79    6.98
  -3  -2  -3  160.82    5.38
  -3  -2  -3  168.59    5.90
  -3  -2   3  147.71    7.26
  -3   2   3  162.66    6.63
   3  -3  -3  725.63   19.21
  -3  -3  -3  729.22   16.47
   3   3  -3  759.61   17.82
   3   3   3  718.80   19.91
   3  -3   3  728.36   18.87
   3  -3  -3  738.39   14.64
  -3   3   3  705.45   17.60
  -3  -3  -3  731.21   17.08
  -3  -3   3  745.99   20.25
   3   4  -3   69.61    5.58
  -3   4   3   77.04    6.09
  -3  -4  -3   73.46    5.20
  -3   4  -3   66.47    2.76
   3   4   3   63.21    7.42
  -3  -4  -3   75.57    5.78
   3  -4  -3   71.62    4.09
   3  -4  -3   65.93    6.94
   3  -4   3   76.95    6.25
  -3  -4   3   65.33    7.10
   3  -5  -3   73.14    8.59
  -3  -5   3   80.34    8.82
   3   5  -3   77.04    6.63
   3  -5   3   84.72    7.17
  -3  -5  -3   83.62    6.14
  -3   5   3   62.76    7.23
  -3  -5  -3   75.65    7.53
   3   5   3   69.00    8.27
   3  -5  -3   75.51    4.92
  -3  -6   3    8.27    4.07
  -3  -6  -3    4.17    2.81
   3   6   3    2.35    4.13
   3  -6  -3   13.33    4.44
  -3   6   3    7.17    4.02
   3   6  -3    6.70    3.34
  -3  -6  -3   14.35    4.40
   3  -6   3    4.28    3.37
   3  -7   3    8.27    4.39
   3   7   3   12.25    5.79
   3  -7  -3    9.07    4.55
  -3   7   3   12.85    5.11
  -3  -7  -3   13.06    4.63
  -3  -7   3   10.44    5.03
   3   0  -4    0.74    1.27
  -3   0   4   -0.12    1.19
   3   0   4   -0.85    0.70
   3   0  -4   -1.22    0.75
   3   0   4    0.44    1.39
  -3  -1  -4  425.18    9.90
   3   1  -4  417.45   11.12
  -3   1   4  420.41    9.06
  -3  -1   4  408.83   11.77
   3  -1  -4  422.17   11.40
   3   1   4  413.12   11.93
   3  -1   4  409.09    8.57
   3   1   4  410.54    8.86
   3  -1   4  417.63   11.12
   3  -1  -4  410.76   10.55
  -3  -2  -4  346.66    8.31
   3   2  -4  324.93   10.13
  -3  -2   4  343.70   11.93
  -3   2   4  327.73   10.63
  -3  -2  -4  342.82    9.48
   3  -2  -4  327.47   10.76
   3  -2   4  353.03   11.36
   3  -2  -4  346.44    7.15
   3   2   4  354.92   12.21
   3  -3  -4  183.73    8.98
  -3  -3   4  177.93    9.43
  -3  -3  -4  171.94    6.38
   3   3   4  201.45   10.09
  -3  -3  -4  172.50    7.54
   3  -3   4  175.33    8.72
  -3   3   4  161.61    7.96
   3   3  -4  189.00    7.96
   3  -3  -4  179.64    5.05
  -3  -4   4   71.04    7.77
   3  -4   4   67.21    7.01
   3   4  -4   69.00    5.71
   3  -4  -4   74.57    3.69
  -3  -4  -4   79.10    4.99
   3  -4  -4   59.38    6.85
   3   4   4   67.11    7.80
  -3   4   4   74.59    6.15
  -3  -4  -4   82.75    5.99
  -3  -5  -4  190.55   10.39
   3  -5   4  164.31   10.16
   3  -5  -4  172.38   11.19
   3  -5  -4  206.22    8.34
  -3   5   4  174.61   10.42
   3   5  -4  174.65    9.14
  -3  -5  -4  183.06    8.47
   3   5   4  193.31   12.00
  -3  -5   4  179.21   11.54
   3   6  -4    9.96    3.67
   3  -6   4    9.67    4.00
  -3  -6  -4    7.84    3.69
  -3   6   4   10.64    4.57
  -3  -6   4   12.42    4.83
   3   6   4   17.18    5.51
   3  -6  -4   15.67    4.96
   3  -7   4   35.15    6.75
  -3   7   4   37.79    7.61
   3   7   4   24.94    7.25
  -3  -7   4   28.93    7.12
  -3  -7  -4   25.14    5.98
   3  -7  -4   36.86    7.90
  -3   0   5    0.65    1.28
   3   0  -5    1.63    1.07
   3   0  -5    1.26    1.56
   3   0   5    0.24    0.94
   3   0   5   -0.04    1.30
   3   1  -5   49.74    2.79
  -3  -1  -5   49.42    3.36
   3  -1  -5   50.58    3.72
   3   1   5   51.73    2.58
   3  -1   5   41.92    3.54
   3  -1   5   53.83    3.01
  -3  -1   5   51.14    4.27
   3   1   5   45.71    4.70
  -3   1   5   50.05    2.89
   3   1  -5   50.79    3.91
   3  -1  -5   49.76    4.14
   3  -2   5   80.02    5.51
  -3  -2  -5   79.27    4.56
  -3  -2  -5   79.16    3.32
  -3   2   5   76.97    5.56
  -3  -2   5   76.82    5.95
   3   2  -5   77.49    5.08
   3  -2  -5   76.82    5.24
  -3   2   5   78.66    2.91
   3   2   5   81.96    6.36
   3  -3  -5   21.75    1.50
  -3   3   5   22.45    4.02
  -3  -3   5   30.37    5.00
  -3  -3  -5   17.58    3.13
   3  -3   5   17.72    3.71
   3   3  -5   24.12    3.63
  -3  -3  -5   19.77    2.41
   3   3   5   23.00    4.79
   3  -3  -5   20.86    3.88
   3  -4   5   55.08    6.48
   3  -4  -5   54.54    2.80
  -3  -4  -5   49.57    5.68
  -3   4   5   60.01    6.66
   3   4  -5   62.42    5.25
   3  -4  -5   41.01    5.95
  -3  -4   5   42.35    6.50
   3   4   5   57.84    7.53
  -3  -4  -5   58.83    4.11
  -3   5   5   51.00    6.98
   3   5  -5   64.53    6.47
   3   5   5   56.58    8.62
  -3  -5   5   52.81    7.78
   3  -5  -5   54.22    7.56
   3  -5   5   60.73    7.71
  -3  -5  -5   68.61    7.77
   3   6   5   25.61    6.69
  -3   6   5   12.09    4.47
   3  -6   5   10.32    4.62
   3   6  -5    7.65    3.32
  -3  -6   5    5.29    4.13
  -3  -6  -5   13.17    4.45
   3  -6  -5   12.38    5.00
  -3   7   5   53.02    9.00
   3  -7  -5   45.79    8.65
   3  -7   5   32.72    6.92
  -3  -7  -5   39.32    7.44
  -3  -7   5   33.79    7.55
   3   0  -6   -0.48    1.06
   3   0   6   -0.08    0.99
  -3   0   6    0.80    1.43
   3   0  -6    0.61    1.68
   3   0   6   -0.11    1.62
   3  -1  -6   47.60    3.80
   3   1  -6   52.80    4.45
   3   1  -6   53.52    3.24
   3   1   6   54.52    5.41
  -3   1   6   59.58    3.36
  -3  -1   6   55.91    4.93
   3  -1  -6   49.26    5.02
   3   1   6   58.83    2.93
  -3  -1  -6   54.56    3.87
   3  -1   6   59.25    4.29
   3  -1   6   51.63    3.40
   3  -2   6 1080.96   25.38
  -3   2   6 1106.72   25.72
  -3   2   6 1156.27   19.32
   3  -2   6 1109.65   18.58
  -3  -2  -6 1134.74   23.22
   3   2   6 1125.63   26.81
   3   2  -6 1129.85   23.68
  -3  -2  -6 1165.05   20.03
  -3  -2   6 1089.80   26.75
   3  -2  -6 1095.50   24.45
  -3  -3   6  148.55    9.50
   3   3   6  129.19    9.17
  -3   3   6  124.88    7.94
   3  -3   6  147.19    8.68
  -3  -3  -6  148.45    5.17
  -3  -3  -6  150.54    7.51
   3   3  -6  146.64    7.15
   3  -3  -6  132.88    8.05
   3  -4   6   36.54    5.55
  -3   4   6   41.85    5.97
  -3  -4   6   39.10    6.39
   3  -4  -6   47.10    6.45
   3   4   6   39.62    6.67
   3   4  -6   48.71    5.26
  -3  -4  -6   35.94    5.10
   3   5  -6   13.62    3.41
  -3  -5  -6   10.62    3.91
  -3   5   6   13.36    4.44
   3  -5  -6    8.40    3.84
   3   5   6   10.83    4.95
  -3  -5   6   18.04    5.20
   3  -5   6   12.68    4.26
   3  -6   6    0.48    3.31
  -3  -6  -6    0.60    2.85
  -3   6   6    2.83    3.45
   3  -6  -6    4.24    3.97
   3   6   6   -3.78    3.44
  -3  -6   6   -1.39    3.27
   3  -7  -6   -1.32    3.58
  -3  -7  -6    4.93    4.08
  -3   0   7    0.68    1.52
   3   0   7    0.69    1.94
   3   0  -7    1.03    1.40
   3   0   7   -0.39    1.01
   3   0  -7   -0.34    1.63
   3  -1   7   79.69    5.19
  -3  -1   7   72.52    5.57
  -3  -1  -7   75.59    4.88
  -3   1   7   84.63    4.24
   3  -1   7   80.34    4.58
   3   1   7   82.78    3.65
   3   1   7   90.05    6.62
   3  -1  -7   72.54    4.89
  -3   1   7   87.72    6.29
   3   1  -7   84.86    5.70
   3   1  -7   82.95    4.24
  -3  -2  -7  151.14    7.17
   3  -2  -7  156.74    7.92
   3   2  -7  148.93    7.40
  -3  -2  -7  162.01    4.70
  -3  -2   7  163.55    9.11
  -3   2   7  153.67    4.15
   3  -2   7  153.00    5.02
   3   2   7  142.89    9.23
  -3   2   7  153.29    8.54
   3  -2   7  145.58    8.10
   3   3  -7   47.12    4.93
   3  -3  -7   53.21    6.15
  -3  -3   7   45.56    6.42
  -3   3   7   48.16    6.21
   3   3   7   58.15    7.63
   3  -3   7   55.70    6.39
  -3  -3  -7   50.38    5.52
   3   4   7   66.09    8.58
  -3  -4  -7   73.68    7.32
   3  -4  -7   49.59    6.76
   3   4  -7   62.79    6.08
  -3   4   7   70.53    7.92
   3  -4   7   70.69    7.60
  -3  -4   7   66.45    8.22
   3   5  -7   44.40    5.52
   3  -5  -7   55.70    7.88
  -3  -5   7   52.86    8.26
   3   5   7   72.08   10.21
   3  -5   7   53.28    7.50
  -3   5   7   63.29    8.39
  -3  -5  -7   55.33    7.29
  -3  -6   7   40.63    8.08
  -3   6   7   44.98    7.97
  -3  -6  -7   43.60    7.35
   3  -6  -7   38.16    7.32
   3  -6   7   58.16    9.06
   3   6   7   49.40    9.64
   3   0  -8   -0.32    1.90
   3   0   8   -2.69    1.90
   3   0  -8    0.26    1.54
  -3   0   8   -0.78    1.50
   3   0   8   -1.52    1.00
   3   1  -8  139.43    6.15
   3   1   8  145.79    8.64
   3   1  -8  147.82    7.70
   3   1   8  142.57    5.09
   3  -1   8  136.19    7.09
  -3  -1   8  138.76    7.95
  -3   1   8  151.48    8.39
   3  -1  -8  156.27    7.38
   3  -1   8  150.54    6.64
  -3  -1  -8  155.55    7.29
  -3   1   8  141.76    5.79
   3   2   8   36.88    6.12
   3  -2   8   26.69    2.89
  -3   2   8   29.25    4.92
   3  -2  -8   22.87    3.93
  -3  -2  -8   31.93    2.04
   3  -2   8   31.26    4.59
  -3  -2  -8   30.92    4.25
   3   2  -8   34.84    4.64
  -3  -2   8   31.93    5.09
   3   3   8   14.76    4.81
   3  -3  -8   10.96    3.50
   3  -3   8    5.94    3.02
   3   3  -8   12.97    3.08
  -3   3   8   12.53    4.05
  -3  -3   8   14.92    4.21
  -3  -3  -8   15.72    3.67
   3  -4  -8   23.24    4.99
  -3  -4  -8   23.08    4.73
   3   4   8   22.17    6.31
   3  -4   8   20.53    4.96
  -3   4   8   20.54    5.16
   3   4  -8   14.70    3.49
  -3  -4   8   19.18    5.14
   3   5   8   14.01    5.85
   3  -5   8   17.64    5.05
  -3   5   8   24.88    6.07
   3  -5  -8    9.27    4.83
  -3  -5   8   15.42    5.40
  -3  -5  -8   14.86    4.31
   3   6   8   36.53    8.46
   3  -6   8   30.07    7.01
  -3   6   8   39.40    8.61
   3  -6  -8   37.13    7.50
  -3  -6   8   48.33    8.88
  -3  -6  -8   39.31    7.22
   3   0   9   -0.90    1.13
   3   0   9    0.10    2.26
  -3   0   9    0.05    1.63
   3   0  -9   -3.75    1.24
   3   0  -9   -2.89    2.00
   3   1   9   17.81    2.18
  -3   1   9   12.62    2.32
  -3  -1   9   17.39    3.64
  -3  -1  -9   15.21    3.17
   3   1  -9   13.76    3.37
   3  -1  -9   14.10    3.24
   3  -1   9   17.47    3.22
   3   1   9   14.97    4.02
   3  -1   9   14.76    3.05
  -3   1   9   17.16    4.19
   3   1  -9   18.04    3.11
   3  -2  -9   23.67    4.37
  -3  -2   9   22.68    4.65
  -3   2   9   25.13    4.93
   3   2  -9   15.83    3.34
   3   2   9   17.93    4.65
   3  -2   9   23.16    4.14
   3  -2   9   21.25    2.96
  -3  -2  -9   18.67    3.60
  -3  -3   9  359.41   16.15
   3  -3  -9  389.40   15.24
   3   3   9  356.80   16.61
  -3   3   9  383.23   15.99
   3  -3   9  341.09   14.62
  -3  -3  -9  399.56   14.56
   3   3  -9  392.11   13.13
   3  -4   9   25.91    5.35
   3  -4  -9   31.00    5.76
   3   4  -9   19.04    3.87
  -3  -4   9   26.30    6.00
  -3   4   9   39.28    6.96
  -3  -4  -9   33.57    5.83
   3   4   9   30.19    7.09
   3  -5  -9    4.35    3.53
   3  -5   9    5.24    3.80
  -3  -5  -9    9.61    3.96
  -3   5   9    5.56    4.67
  -3  -5   9    7.22    4.65
   3   5   9    9.11    5.86
   3  -6   9   17.71    5.79
   3   6   9   35.93    9.30
  -3  -6   9   27.90    7.66
   3  -6  -9   16.99    5.95
  -3  -6  -9   30.40    6.69
  -3   6   9   44.59    9.00
  -3   0  10   -2.40    2.21
   3   0  10    1.58    2.37
  -3   0 -10    0.79    1.69
   3   0 -10    0.62    1.67
  -3   0  10    4.47    2.18
   3   0  10    0.07    1.35
   3   1 -10  117.36    7.78
  -3   1  10   99.76    7.96
   3   1  10  122.94    4.94
  -3  -1  10  106.53    7.52
   3  -1  10  115.16    6.88
   3  -1 -10  113.73    7.37
   3   1 -10  101.92    6.04
  -3  -1 -10  140.69    7.86
   3  -1  10  123.47    7.20
   3   1  10  116.42    8.65
  -3  -2  10  166.10   10.04
   3  -2  10  147.80    8.89
  -3  -2 -10  150.07    8.44
   3   2 -10  148.66    7.22
  -3   2  10  111.73    9.07
   3   2 -10  159.15    8.64
   3  -2 -10  135.44    8.50
   3   2  10  152.06   10.57
   3   3 -10   37.68    5.18
  -3  -3  10   42.06    6.63
   3  -3 -10   27.32    5.19
   3  -3  10   42.49    6.38
   3   3  10   50.06    8.03
  -3  -3 -10   34.80    5.54
  -3   3  10   38.66    6.57
  -3  -4  10   13.28    4.76
   3  -4  10    9.78    3.74
  -3   4  10    7.44    4.03
   3   4 -10   14.91    3.67
  -3  -4 -10   16.13    4.26
   3  -4 -10   11.42    4.10
   3   4  10    7.15    5.02
   3  -5  10   14.51    4.81
  -3  -5 -10   13.10    4.60
   3  -5 -10   20.73    5.72
   3   5  10   24.51    7.79
  -3   5  10    6.34    4.71
  -3  -5  10   19.05    5.80
   3   0  11   -0.54    1.36
  -3   0  11    0.00    1.81
   3   0 -11   -0.32    1.97
  -3   0  11    1.20    2.46
   3   0  11    2.13    2.67
  -3   0 -11   -1.90    1.63
  -3   1  11  166.86   10.38
   3   1  11  144.59    9.84
  -3  -1  11  163.76    9.31
   3  -1  11  148.15    8.13
   3  -1 -11  144.02    8.50
   3   1 -11  139.74    8.93
   3  -1  11  156.96    8.33
   3   1 -11  159.15    8.05
  -3  -1 -11  149.25    8.55
   3   2 -11   65.02    6.81
  -3  -2 -11   62.39    6.81
  -3   2  11   61.49    7.72
   3  -2  11   71.14    7.28
   3   2  11   64.21    8.56
   3  -2 -11   49.40    6.41
   3   2 -11   62.18    5.22
  -3  -2  11   57.44    7.35
  -3  -3  11   16.73    4.63
   3   3  11    9.46    5.06
   3  -3 -11   15.92    4.38
   3  -3  11   15.71    4.42
   3   3 -11   15.32    3.84
  -3   3  11   14.43    5.27
  -3  -3 -11   13.48    3.91
  -3  -4  11   14.50    5.22
   3  -4 -11    4.54    3.49
  -3   4  11    7.51    4.75
  -3  -4 -11    6.90    3.64
   3  -4  11   -1.99    2.79
   3   4  11   20.23    6.55
   3  -5  11    4.36    3.88
  -3   5  11    6.54    5.35
   3   5  11    1.28    4.76
  -3  -5 -11    4.19    3.41
   3  -5 -11    3.40    3.86
   3   0 -12   -3.25    1.76
   3   0  12   -0.80    2.70
  -3   0 -12    2.90    2.44
  -3   0  12   -1.55    2.22
  -3  -1  12   19.32    4.41
   3  -1  12   16.26    3.54
  -3   1  12   14.37    4.70
  -3  -1  12   13.20    3.77
  -3  -1 -12   12.43    3.40
   3  -1 -12   16.62    3.89
   3   1 -12    8.20    2.92
   3   1  12   11.28    4.29
   3  -1  12   21.05    4.34
  -3  -2 -12   86.39    7.27
   3  -2  12   96.32    7.52
  -3  -2  12  109.84    8.83
  -3   2  12   81.75    9.47
   3   2  12   84.05   10.02
   3  -2 -12  103.68    8.47
   3   2 -12   80.69    8.08
   3   2 -12   83.07    6.47
  -3   3  12    7.43    4.37
  -3  -3 -12    3.38    3.12
  -3  -3  12   -1.32    2.50
   3  -3 -12    6.16    3.68
   3   3 -12    3.71    2.58
   3   3 -12    6.57    2.90
   3  -3  12    1.61    2.85
   3   3  12    0.54    4.43
   3  -4  12    1.13    3.16
  -3  -4  12    4.66    4.32
  -3  -4 -12    2.50    3.31
   3   4  12    4.14    5.26
   3  -4 -12    2.59    3.29
  -3   4  12    2.92    4.49
  -3   0 -13    1.42    2.53
  -3   0  13    2.48    3.22
   3   0  13   -0.45    2.80
   3   0 -13    0.03    2.18
   3   1 -13   22.02    4.58
  -3   1 -13   16.96    4.17
  -3   1  13   15.83    5.03
   3  -1  13   14.43    3.37
  -3  -1 -13   18.28    4.17
   3  -1 -13   19.47    4.51
   3   1  13   21.77    5.67
  -3  -1  13   19.94    4.85
  -3   2  13   22.47    6.00
  -3  -2 -13   21.79    5.07
   3   2  13   20.50    6.12
  -3  -2  13   16.62    4.37
   3  -2  13   20.31    4.43
  -3  -2  13   25.06    5.52
   3   2 -13   20.93    4.32
   3  -2 -13   22.05    5.10
  -3  -3  13   10.37    4.61
  -3   3  13    7.50    4.56
   3  -3  13   10.98    3.84
   3   3 -13    6.68    3.23
   3   3  13   12.32    6.04
   3  -3 -13    6.97    3.93
  -3  -3 -13    6.46    3.67
   3   0 -14    3.92    3.35
  -3   0  14    1.59    3.49
  -3   0 -14    1.41    2.83
   3   0  14    5.13    3.77
   3   1 -14   56.89    6.64
  -3   1 -14   45.08    6.36
  -3   1  14   59.86    8.65
   3   1  14   49.70    8.35
  -3  -1 -14   42.31    6.32
   3  -1 -14   45.31    6.64
  -3  -1  14   43.06    6.91
   3  -2 -14   14.43    4.72
  -3  -2  14   14.59    4.69
  -3  -2 -14   14.61    4.34
  -3   2  14    8.85    4.91
  -3  -2  14    8.93    3.86
   3   2  14   12.07    6.06
   3   2 -14   15.92    3.94
   3  -2  14    6.17    3.40
   3   0 -15   -0.21    2.92
  -3   0 -15   -0.92    2.59
   4   0   0 9999.19  151.34
   4   0   0 9723.03  160.69
   4  -1   0 1928.42   31.80
   4   1   0 1968.53   34.58
  -4  -1   0 1978.77   29.09
   4  -1   0 1965.80   33.20
   4  -1   0 1943.33   33.28
  -4  -1   0 1944.40   33.74
  -4  -2   0  138.54    6.12
   4   2   0  146.95    7.13
   4  -2   0  138.44    4.70
  -4  -2   0  132.66    4.15
   4  -2   0  142.71    5.60
   4  -2   0  142.15    6.54
  -4  -3   0  176.10    6.38
  -4  -3   0  178.28    8.19
   4  -3   0  186.71    7.43
   4  -3   0  187.54    8.73
  -4   3   0  186.71    6.30
   4   3   0  178.43    8.79
  -4  -4   0  207.23    8.34
   4  -4   0  231.16    9.11
   4  -4   0  226.82   10.93
  -4  -4   0  206.09   10.17
   4   4   0  216.62   10.60
  -4   4   0  221.68    8.09
  -4  -5   0   58.95    6.04
  -4   5   0   58.69    5.56
   4   5   0   62.27    7.37
  -4  -5   0   57.50    6.95
   4  -5   0   60.38    7.53
   4  -5   0   47.61    5.34
   4   6   0   83.71    8.98
  -4  -6   0   65.97    7.03
  -4  -6   0   60.14    7.78
   4  -6   0   72.32    8.85
   4  -6   0   74.61    7.41
   4   7   0   11.25    5.35
  -4  -7   0    2.95    3.80
   4  -7   0    7.02    3.40
   4   0   1 1103.23   20.06
   4   0  -1 1085.78   20.36
   4   0   1 1060.84   19.66
   4   0  -1 1043.11   19.49
   4   0  -1 1096.32   18.01
   4  -1   1 1349.83   24.54
  -4  -1  -1 1324.76   23.97
   4   1   1 1361.64   25.67
  -4  -1   1 1306.63   24.91
   4   1  -1 1315.41   25.17
   4  -1  -1 1311.69   23.50
  -4  -1  -1 1365.41   21.17
   4  -1  -1 1305.19   23.43
   4  -1  -1 1347.05   24.13
   4  -1   1 1333.96   22.19
  -4  -2   1    9.72    2.24
  -4  -2  -1    6.44    1.74
  -4  -2  -1    7.47    1.40
   4  -2  -1    6.02    1.63
   4  -2  -1    6.56    2.16
   4   2   1    8.71    2.64
   4  -2   1    6.81    1.79
   4  -2  -1    7.67    1.71
   4   2  -1    7.58    2.52
  -4  -3  -1  509.32   14.35
   4   3  -1  511.08   15.19
   4  -3  -1  517.16   12.91
  -4   3  -1  500.57   10.86
   4  -3   1  513.05   14.01
   4  -3  -1  531.57   15.57
  -4  -3   1  524.93   15.54
  -4   3   1  522.32   12.78
   4   3   1  512.73   15.77
  -4  -3  -1  515.93   12.55
  -4  -3   1  514.13   11.69
  -4   4   1  155.23    7.26
  -4  -4  -1  145.88    8.10
   4  -4   1  159.26    7.90
  -4   4  -1  159.94    6.21
   4   4  -1  168.21    9.38
  -4  -4  -1  154.27    7.38
   4  -4  -1  145.09    6.83
  -4  -4   1  136.66    8.52
   4  -4  -1  154.69    9.34
   4   4   1  141.88    9.01
  -4  -4   1  155.83    6.89
   4  -5  -1    6.03    3.47
   4   5   1    5.09    3.46
   4   5  -1   -0.68    2.79
  -4   5   1    2.50    2.74
  -4  -5  -1    2.62    2.58
  -4  -5  -1    4.49    2.57
   4  -5  -1    4.05    2.13
   4  -5   1    6.59    2.63
  -4  -5   1    2.79    2.62
   4   6   1   28.15    5.93
  -4  -6  -1   22.04    4.95
   4   6  -1   30.50    5.87
   4  -6   1   33.86    5.51
   4  -6  -1   26.92    4.52
   4  -6  -1   31.60    6.30
  -4  -6  -1   30.21    5.29
  -4  -6   1   33.71    6.35
  -4  -7  -1   11.08    4.38
  -4  -7   1   16.33    5.40
  -4  -7  -1   20.29    5.07
   4  -7  -1   14.17    5.89
   4  -7  -1   12.37    3.66
   4   7  -1   25.45    6.39
   4   7   1   15.51    5.95
   4  -7   1   16.47    4.54
  -4   0   2 1858.66   32.34
   4   0  -2 1880.11   29.95
   4   0  -2 1964.66   33.08
   4   0   2 1868.38   32.24
   4   0   2 1876.20   32.04
   4   1  -2  624.42   14.47
   4  -1  -2  616.09   12.30
   4  -1   2  607.97   11.28
   4  -1   2  589.93   13.62
   4  -1  -2  616.94   13.49
   4  -1  -2  614.78   13.53
   4   1   2  604.46   12.58
  -4  -1  -2  619.96   11.53
  -4  -1   2  615.95   14.35
   4   1   2  616.01   14.74
   4  -2  -2  106.27    4.22
  -4   2  -2  112.47    2.83
   4  -2   2  109.40    5.56
  -4  -2  -2  107.40    4.22
  -4  -2  -2  107.51    4.90
  -4  -2   2  104.43    5.95
   4   2   2   97.77    6.33
   4   2  -2   98.31    5.71
   4  -2  -2  109.36    5.12
   4  -2  -2  104.68    5.77
  -4   3  -2  157.06    4.20
  -4   3   2  173.43    7.05
   4   3  -2  163.35    8.27
   4  -3  -2  166.67    8.54
  -4  -3  -2  158.65    7.02
   4  -3   2  159.00    7.51
  -4  -3  -2  163.68    6.57
  -4  -3   2  155.01    8.35
   4   3   2  155.51    8.74
   4  -3  -2  164.56    6.06
   4  -4  -2   41.68    3.65
   4  -4  -2   40.54    5.75
  -4  -4  -2   41.47    5.04
   4  -4   2   48.41    5.54
  -4   4  -2   42.46    2.81
   4   4   2   36.71    5.85
  -4  -4  -2   38.66    4.59
  -4  -4   2   29.03    5.02
  -4   4   2   33.27    4.31
   4   4  -2   42.06    5.60
  -4   5   2  185.71    9.46
   4   5  -2  160.98    9.42
   4  -5   2  161.64    9.19
  -4  -5  -2  175.48    9.20
   4  -5  -2  169.00    7.77
  -4  -5   2  156.63   10.38
   4   5   2  165.32   10.74
   4  -5  -2  175.93   10.93
  -4  -5  -2  167.04    9.33
  -4   6   2   26.16    5.30
   4   6   2   17.90    5.23
  -4  -6   2   13.20    4.55
   4   6  -2   10.70    3.93
  -4  -6  -2   13.42    3.95
   4  -6   2   16.53    4.39
   4  -6  -2   14.65    4.95
   4  -6  -2   18.54    3.61
  -4  -6  -2   12.87    3.89
  -4  -7   2   -5.34    3.03
  -4  -7  -2    3.49    3.27
   4  -7   2    2.64    3.08
   4   7  -2   -2.90    3.49
   4  -7  -2    1.71    3.84
   4   7   2   -4.01    3.47
   4   0  -3 1302.52   24.76
   4   0   3 1276.87   23.65
   4   0   3 1303.85   23.81
  -4   0   3 1313.72   24.17
   4   0  -3 1301.11   21.99
   4  -1  -3   56.60    2.80
   4  -1  -3   51.81    3.58
   4   1  -3   53.68    1.93
   4  -1  -3   54.86    3.76
   4  -1   3   52.08    2.50
   4   1   3   56.96    4.43
   4   1   3   48.46    2.80
   4   1  -3   51.67    3.97
   4  -1   3   53.60    3.66
  -4  -1   3   53.97    3.97
  -4  -1  -3   50.84    2.82
   4  -2  -3  116.01    5.69
   4   2  -3  124.43    6.36
   4  -2  -3  115.59    4.08
  -4  -2   3  107.71    6.38
  -4  -2  -3  117.53    4.76
   4   2   3  103.51    6.66
   4  -2  -3  102.19    5.87
   4  -2   3  105.82    5.73
  -4  -2  -3  111.60    4.77
  -4  -3  -3   51.44    4.00
   4   3  -3   46.59    5.28
  -4  -3   3   49.84    5.85
   4   3   3   54.39    6.21
  -4   3   3   54.84    5.21
  -4  -3  -3   49.61    3.96
   4  -3  -3   46.24    3.02
   4  -3   3   58.03    5.62
   4  -3  -3   47.49    5.43
   4  -4   3   18.34    3.81
   4  -4  -3   15.37    4.21
   4   4   3   28.68    5.43
  -4   4   3   25.18    4.10
  -4  -4  -3   33.65    4.45
  -4  -4  -3   26.81    3.93
  -4  -4   3   19.28    4.48
   4  -4  -3   30.14    3.15
   4   4  -3   33.08    4.95
   4  -5   3  104.49    8.01
  -4   5   3  106.48    7.68
  -4  -5  -3  106.42    7.55
  -4  -5  -3  106.34    7.36
   4   5   3  111.71    9.36
   4  -5  -3  101.11   10.02
   4   5  -3   99.23    7.42
  -4  -5   3  105.73    8.89
   4  -5  -3  105.36    5.63
   4  -6  -3   -2.14    3.23
   4   6  -3    1.10    2.90
  -4  -6  -3   -2.04    2.37
   4  -6   3   -0.83    2.78
  -4   6   3    1.36    2.95
  -4  -6  -3    2.19    2.47
   4   6   3   -1.53    3.27
   4   7   3   32.93    7.70
   4  -7  -3   25.63    6.94
  -4  -7  -3   22.15    5.46
   4   7  -3   23.70    5.66
  -4  -7   3   27.79    7.08
   4  -7   3   20.84    5.13
   4   0  -4  561.78   14.03
  -4   0   4  576.39   13.43
   4   0   4  547.66   12.60
   4   0   4  557.05   13.16
   4   0  -4  574.35   11.77
   4  -1  -4  301.29    9.67
   4  -1  -4  283.79    8.69
   4   1  -4  290.73    6.36
   4  -1   4  273.14    8.88
   4   1  -4  283.56    9.45
   4   1   4  278.56    7.35
  -4  -1   4  288.48    9.80
  -4   1   4  278.43    7.46
   4   1   4  274.10    9.91
  -4  -1  -4  289.10    7.87
   4  -1   4  282.16    6.91
  -4  -2  -4  386.10   10.07
   4   2   4  368.75   13.01
   4   2  -4  367.66   11.56
  -4  -2   4  392.21   13.17
  -4   2   4  377.31   11.74
  -4  -2  -4  399.22    9.67
   4  -2   4  375.78   11.89
   4  -2  -4  371.10   11.82
   4  -2  -4  368.51    8.38
  -4  -3   4  364.83   14.18
   4  -3  -4  370.94   13.35
  -4  -3  -4  377.34   10.75
   4  -3  -4  376.81    8.77
   4   3  -4  366.27   12.21
  -4   3   4  365.61   12.40
   4   3   4  379.53   14.43
  -4  -3  -4  389.10   11.57
   4  -3   4  381.29   13.20
   4  -4  -4  195.88   10.67
   4  -4   4  172.25    9.50
  -4  -4  -4  176.46    7.85
   4   4   4  176.87   11.18
  -4  -4  -4  178.11    8.58
   4   4  -4  167.05    8.85
   4  -4  -4  182.47    6.11
  -4  -4   4  171.10   10.56
  -4   4   4  168.43    8.92
  -4  -5  -4   49.37    6.26
   4   5  -4   52.42    6.41
   4   5   4   56.14    7.97
   4  -5  -4   59.80    8.15
   4  -5   4   48.57    6.43
  -4  -5   4   50.50    7.63
  -4   5   4   60.61    6.93
  -4  -5  -4   52.26    5.70
   4  -5  -4   57.72    5.74
  -4  -6  -4   81.65    8.82
   4   6   4   87.94   10.65
  -4  -6   4   78.91   10.22
   4  -6  -4   81.48   10.25
   4   6  -4   78.50    8.12
  -4   6   4   82.44    9.39
   4  -6   4   54.28    7.40
   4  -7   4   54.82    7.94
   4   7   4   47.26    9.09
  -4  -7   4   60.86    9.73
  -4   7   4   46.73    8.27
   4  -7  -4   54.91    9.03
  -4  -7  -4   38.39    7.06
   4   0   5  142.82    6.27
   4   0  -5  136.12    5.15
   4   0  -5  129.54    6.44
  -4   0   5  140.35    6.15
   4   0   5  140.54    5.61
   4  -1   5  419.98   11.98
   4   1  -5  424.78   12.39
   4   1   5  431.78   13.13
   4  -1  -5  429.05   12.64
  -4  -1  -5  429.02   10.87
  -4  -1   5  410.84   12.90
   4  -1  -5  427.83   11.59
  -4   1   5  420.88   10.35
   4   1  -5  431.68    9.24
   4  -1   5  430.48    9.81
   4   1   5  427.49    9.93
  -4  -2  -5   37.73    2.70
  -4  -2   5   37.78    4.94
  -4  -2  -5   47.12    3.59
   4   2   5   40.65    5.46
  -4   2   5   49.45    2.76
   4  -2   5   47.09    5.00
   4  -2  -5   48.97    5.13
  -4   2   5   48.72    5.13
   4   2  -5   44.98    4.68
  -4  -3  -5  301.71    9.15
   4  -3  -5  319.95   12.53
   4  -3   5  308.03   12.22
   4   3  -5  303.56   11.16
   4   3   5  305.21   13.40
  -4  -3   5  287.43   13.08
  -4   3   5  326.61   12.13
   4  -3  -5  315.16    7.24
  -4  -3  -5  294.72   10.38
   4  -4  -5   42.79    2.59
   4   4   5   41.14    6.60
   4  -4  -5   40.33    6.08
   4   4  -5   40.45    4.98
   4  -4   5   36.30    5.39
  -4  -4  -5   41.43    4.33
  -4   4   5   38.08    5.43
  -4  -4  -5   44.50    5.41
  -4  -4   5   37.87    6.21
  -4  -5   5  212.04   13.09
  -4   5   5  204.70   11.24
   4  -5  -5  190.74   12.25
   4  -5   5  187.13   11.18
   4   5  -5  211.52   10.35
   4   5   5  179.82   12.85
  -4  -5  -5  217.84   11.10
   4   6  -5   62.42    7.29
  -4   6   5   87.83   10.17
   4   6   5   67.53   10.12
  -4  -6  -5   77.57    8.87
   4  -6  -5   79.45   10.03
   4  -6   5   75.26    9.09
  -4  -6   5   66.69    9.66
   4   7   5   18.30    6.77
   4  -7   5   16.71    5.41
  -4  -7  -5   14.89    5.29
  -4  -7   5   27.35    7.40
  -4   7   5   19.31    6.44
   4  -7  -5   17.31    5.87
   4   0   6  171.80    6.42
   4   0  -6  162.00    6.06
   4   0   6  150.73    7.05
  -4   0   6  157.50    7.01
   4   0  -6  159.01    7.60
   4   1   6  350.09   12.55
   4   1  -6  360.44    8.91
  -4  -1   6  363.78   12.48
   4  -1   6  361.13   11.31
   4  -1  -6  361.21   10.99
   4   1  -6  357.90   11.80
   4   1   6  353.39    8.99
  -4  -1  -6  369.37   10.44
   4  -1  -6  372.30   12.35
  -4   1   6  394.08   10.10
   4  -1   6  370.17    9.58
  -4  -2  -6  281.64    9.40
   4  -2  -6  278.25   10.74
   4  -2   6  283.16   10.85
  -4   2   6  281.60   11.15
  -4  -2  -6  280.17    7.59
   4   2  -6  282.98   10.41
  -4  -2   6  310.05   12.47
   4   2   6  273.27   12.08
  -4   2   6  292.39    7.49
  -4  -3  -6   22.05    3.59
   4   3   6   12.52    4.51
  -4   3   6   31.35    5.00
  -4   3   6   29.74    2.07
  -4  -3  -6   22.92    2.77
   4   3  -6   21.37    3.75
   4  -3  -6   19.22    4.12
  -4  -3   6   30.42    5.35
   4  -3   6   18.48    3.95
  -4   4   6   83.81    8.21
   4  -4  -6   60.03    7.33
   4   4   6   59.24    8.12
   4   4  -6   71.75    5.96
   4  -4   6   80.78    8.15
  -4  -4  -6   81.24    6.27
  -4  -4   6   74.29    8.73
   4   5   6   26.38    6.83
  -4  -5   6   35.45    6.87
   4   5  -6   38.40    5.45
  -4  -5  -6   27.65    5.08
  -4   5   6   40.37    6.45
   4  -5  -6   35.42    6.42
   4  -5   6   36.94    6.51
   4   6  -6    8.40    3.92
  -4  -6  -6   17.87    5.01
   4  -6  -6   12.71    5.08
   4  -6   6   18.56    5.61
   4   6   6    4.90    5.90
  -4  -6   6    9.44    4.79
  -4   6   6   14.15    5.16
   4   0   7    8.80    2.01
   4   0  -7    6.77    2.53
  -4   0   7   11.42    2.68
   4   0  -7   10.85    2.22
   4   0   7   11.39    2.96
  -4  -1   7    3.69    2.46
   4  -1  -7    1.98    2.20
   4   1   7   -4.31    1.89
   4  -1   7    2.38    1.87
   4  -1   7    1.10    1.88
   4  -1  -7    2.83    1.93
   4   1  -7    1.49    1.37
  -4  -1  -7    2.60    1.56
  -4   1   7    0.10    1.35
   4   1   7    1.91    1.03
   4   1  -7    2.53    2.10
   4  -2   7   38.73    2.42
   4   2  -7   40.34    4.96
   4  -2   7   34.72    4.67
   4   2   7   36.79    5.77
  -4  -2  -7   47.42    4.68
  -4   2   7   43.38    5.56
  -4   2   7   39.10    2.73
  -4  -2  -7   39.95    2.65
  -4  -2   7   41.97    5.77
   4  -2  -7   33.79    4.48
   4   3   7   76.15    8.64
   4  -3   7   84.52    6.90
   4  -3  -7  102.53    7.53
  -4  -3  -7   90.59    6.17
  -4  -3  -7   91.23    4.39
  -4  -3   7   90.91    7.96
   4   3  -7   92.43    6.22
  -4   3   7   90.31    7.25
   4   4   7  299.59   15.52
  -4   4   7  312.52   13.95
   4  -4   7  281.97   13.47
  -4  -4  -7  321.02   13.01
  -4  -4   7  295.42   15.23
   4   4  -7  293.72   11.81
   4  -4  -7  269.37   13.71
  -4  -5  -7   12.71    3.80
   4  -5  -7   16.06    5.26
   4   5   7   15.44    5.80
   4   5  -7   18.13    3.93
  -4   5   7   28.24    5.98
  -4  -5   7   21.34    5.83
   4  -5   7   17.42    4.75
   4  -6   7   12.84    4.93
   4  -6  -7   24.46    6.30
  -4  -6   7   21.68    6.69
  -4  -6  -7   19.30    5.11
  -4   6   7   19.47    5.81
   4   6   7   27.35    7.92
   4   0  -8  361.31   13.16
   4   0   8  355.21   12.27
  -4   0   8  361.86   11.96
   4   0   8  357.69   10.67
   4   0  -8  360.13   10.89
   4   1  -8   67.46    4.26
  -4  -1   8   54.95    6.16
   4   1   8   60.41    6.64
  -4   1   8   51.66    4.05
  -4  -1  -8   57.39    4.63
   4  -1   8   48.29    4.56
   4   1   8   54.11    3.35
   4  -1   8   65.01    4.95
   4   1  -8   53.99    5.69
   4  -1  -8   65.14    5.18
   4  -1  -8   53.29    6.17
   4  -2  -8   71.03    5.89
   4   2   8   71.97    7.93
   4   2  -8   70.56    5.90
  -4  -2   8   66.81    7.56
   4  -2   8   67.42    5.76
  -4   2   8   63.04    6.89
  -4  -2  -8   67.19    5.08
   4   2  -8   62.00    4.08
  -4  -2  -8   63.27    3.27
   4   3   8   63.21    8.12
   4   3  -8   63.07    5.47
  -4  -3  -8   77.62    6.09
   4  -3  -8   68.56    7.15
   4  -3   8   78.16    6.85
  -4   3   8   81.99    8.39
  -4  -3   8   61.19    7.68
   4  -4  -8   70.89    8.42
  -4  -4   8   76.56    9.58
   4   4  -8   66.08    6.57
  -4  -4  -8   92.23    7.40
  -4   4   8   56.66    7.65
   4  -4   8   67.15    7.87
   4   4   8   74.41    9.68
  -4  -5  -8    9.14    3.86
   4  -5   8    7.47    3.68
  -4   5   8   -2.48    3.24
  -4  -5   8    7.33    4.72
   4  -5  -8    6.82    4.17
   4   5  -8    7.27    3.04
   4   5   8    8.22    5.35
   4  -6  -8    0.41    3.53
  -4   6   8    3.48    4.27
   4  -6   8    1.68    4.05
  -4  -6   8   -1.50    3.91
  -4  -6  -8    1.92    2.74
   4   6   8    9.33    5.90
   4   0   9  225.00    8.43
   4   0   9  242.12   10.49
   4   0  -9  234.01    9.06
  -4   0   9  213.56    9.39
   4   0  -9  227.19   10.76
  -4   1   9  193.02   10.22
  -4   1   9  167.77    7.08
   4  -1   9  170.68    8.27
   4  -1  -9  171.05    8.46
   4   1   9  192.85   10.49
   4   1  -9  165.55    7.12
  -4  -1  -9  178.41    8.42
   4  -1   9  198.17    8.28
   4   1   9  168.27    6.18
  -4  -1   9  181.29    9.62
   4   1  -9  169.07    9.07
  -4  -2  -9   92.95    6.31
   4  -2   9   82.85    6.56
  -4   2   9   98.66    7.98
   4   2  -9   94.67    5.37
   4  -2  -9   90.83    7.12
   4   2   9   98.17    9.60
  -4  -2   9  108.76    8.49
   4   2  -9   92.31    6.66
   4   3   9  275.28   14.90
  -4   3   9  268.32   13.44
   4  -3  -9  268.95   12.82
   4  -3   9  248.02   12.23
   4   3  -9  284.33   11.65
  -4  -3  -9  263.93   11.73
  -4  -3   9  291.99   14.66
  -4   4   9   13.88    4.86
   4   4   9   13.51    5.54
   4  -4   9   16.40    4.77
   4   4  -9    9.53    3.13
  -4  -4   9    9.65    4.49
   4  -4  -9    7.28    3.68
  -4  -4  -9   15.52    4.29
  -4   5   9   -0.49    4.27
  -4  -5  -9    2.87    3.39
   4   5   9    3.02    4.80
   4  -5  -9    8.90    4.91
  -4  -5   9   -2.25    3.41
   4  -5   9    1.58    3.32
  -4   0  10  754.87   19.86
   4   0 -10  739.28   18.99
   4   0  10  778.10   21.25
   4   0 -10  766.93   22.11
   4   0  10  751.22   18.23
   4   1 -10    4.81    2.21
  -4   1  10   10.72    3.54
   4  -1  10    2.10    2.09
   4  -1 -10    6.70    2.74
  -4  -1 -10    3.62    2.28
  -4  -1  10   -1.95    2.11
   4   1  10    5.06    3.58
   4   1  10    4.05    1.47
   4  -1  10    2.41    2.34
   4   1 -10    6.13    2.90
  -4  -2  10   84.31    8.72
   4   2  10   88.65    9.53
   4  -2  10   80.40    6.62
   4  -2 -10   86.55    7.29
   4   2 -10   81.03    6.85
  -4  -2 -10   76.39    6.16
  -4   2  10   70.82    8.24
   4   2 -10   98.00    5.80
  -4   3  10   32.51    6.10
   4   3 -10   22.76    4.24
  -4  -3  10   22.49    5.61
   4  -3 -10   24.23    5.27
   4   3  10   24.48    6.32
  -4  -3 -10   20.33    4.56
   4  -3  10   16.78    4.20
   4   4 -10  130.33    8.34
   4  -4 -10  162.13   11.42
   4  -4  10  128.60   10.13
  -4   4  10  133.66   10.91
  -4  -4  10  131.57   11.63
   4   4  10  152.58   12.85
  -4  -4 -10  139.63    9.69
  -4  -5 -10   33.92    6.61
  -4  -5  10   25.39    6.69
   4  -5 -10   33.20    7.04
   4  -5  10   23.70    5.90
  -4   5  10   25.84    6.77
   4   5  10   23.75    7.27
   4   0 -11    8.20    2.72
  -4   0  11    8.35    3.54
  -4   0  11   13.63    3.29
  -4   0 -11   10.39    3.20
   4   0  11   14.01    2.84
   4   0  11   11.87    3.89
   4   1 -11    5.60    3.06
   4   1  11   15.71    4.74
  -4  -1 -11    7.33    2.87
   4  -1  11   15.81    3.59
  -4  -1  11   11.99    3.45
   4  -1 -11   10.45    3.49
   4   1 -11    6.21    2.54
  -4   1  11   12.93    4.15
   4  -1  11    9.07    2.69
   4   2 -11   33.92    4.29
  -4  -2  11   42.96    6.81
   4   2  11   44.46    7.30
  -4   2  11   37.66    6.46
  -4  -2 -11   46.88    6.12
   4   2 -11   34.02    5.41
   4  -2  11   47.31    6.14
   4  -2 -11   33.86    5.59
  -4   3  11   53.60    8.16
   4   3  11   74.71    9.97
  -4  -3  11   61.42    8.66
  -4  -3 -11   61.00    7.53
   4   3 -11   62.49    7.04
   4  -3  11   64.48    7.80
   4  -3 -11   66.71    8.15
   4   3 -11   69.75    5.60
   4   4  11  128.89   14.12
  -4   4  11  124.64   12.60
  -4  -4  11  152.71   12.47
  -4  -4 -11  112.45    9.28
   4  -4  11  130.65   10.12
   4  -4 -11  108.71   11.10
   4   4 -11  124.09   13.86
  -4  -5 -11    4.95    3.94
   4  -5  11    3.96    3.60
   4  -5 -11    8.31    4.60
  -4  -5  11   18.11    6.39
   4   5  11   12.25    6.53
  -4   5  11   12.01    5.62
   4   0  12  164.59   10.26
  -4   0 -12  187.25    9.88
   4   0 -12  164.45    9.14
  -4   0  12  174.36   11.12
  -4   1  12   24.77    5.40
   4   1 -12   21.01    4.76
   4   1  12   16.92    4.84
  -4  -1 -12   21.37    4.37
   4   1 -12   19.80    3.64
   4  -1 -12   21.34    4.38
  -4  -1  12   13.56    4.01
   4  -1  12   20.84    4.05
   4   2 -12    5.99    3.47
   4  -2  12    2.66    2.73
  -4  -2 -12    6.83    3.28
   4   2 -12    2.11    2.36
   4  -2 -12    5.17    3.47
  -4   2  12    4.02    3.81
   4   2  12    8.83    5.01
  -4  -2  12    1.72    3.07
  -4  -3  12   16.33    5.19
   4  -3 -12   14.69    4.74
   4   3  12   13.76    5.56
   4  -3  12    9.88    3.89
  -4  -3 -12   15.75    4.46
   4   3 -12   18.19    3.99
  -4   3  12   17.34    5.56
   4   3 -12   15.05    4.38
   4   4  12   13.84    7.05
  -4  -4 -12   16.16    4.88
  -4  -4  12   17.93    5.90
   4  -4 -12   16.20    5.62
   4  -4  12    8.95    3.88
  -4   4  12   10.25    5.09
  -4   0  13   24.16    5.51
   4   0 -13   20.38    4.46
   4   0  13   36.64    6.30
  -4   0 -13   15.24    4.00
  -4  -1 -13    2.97    2.61
   4  -1  13   -1.39    1.55
   4   1 -13    1.43    2.43
  -4  -1  13   -0.90    2.94
   4   1  13    2.50    3.61
  -4   1 -13    2.47    2.91
   4  -1 -13   -2.92    2.02
  -4   1  13   -2.76    3.25
   4   2 -13    9.08    3.84
  -4  -2  13   17.22    4.91
   4  -2 -13    5.09    3.80
   4   2 -13    2.84    2.76
  -4  -2 -13   11.62    3.98
   4   2  13    8.47    5.15
   4  -2  13    3.85    3.13
  -4   2  13    5.51    4.69
   4  -3 -13   -3.52    2.81
   4   3 -13    1.26    3.00
  -4  -3 -13   -2.89    2.38
   4   3 -13    4.14    3.03
   4  -3  13    2.21    3.05
  -4   3  13    3.29    4.11
   4   3  13    1.84    4.78
  -4  -3  13   -3.08    3.04
  -4   0  14   52.31    8.01
  -4   0 -14   39.76    6.28
   4   0 -14   52.28    6.90
  -4   1 -14   11.75    3.92
  -4  -1  14   12.83    4.32
   4   1  14    4.58    4.18
  -4   1  14    6.24    4.25
  -4  -1 -14    9.64    3.69
   4   1 -14    5.43    3.14
   4  -1 -14    4.94    3.60
   4   2  14   11.38    6.24
   4  -2  14   15.83    4.04
  -4  -2 -14    8.61    3.80
  -4  -2  14    8.11    4.73
  -4  -2  14    7.54    3.91
   4  -2 -14   12.63    4.85
   4   2 -14   13.87    4.26
  -4   2  14    8.89    4.85
   5   0   0    0.73    0.88
   5   0   0    0.60    1.31
   5  -1   0  607.74   13.13
   5  -1   0  611.15   13.69
  -5  -1   0  617.13   14.19
   5   1   0  616.95   15.30
  -5  -1   0  657.87   10.13
   5  -2   0   87.82    5.43
   5   2   0   93.70    6.26
   5  -2   0   95.76    4.07
  -5  -2   0   88.74    3.09
  -5  -2   0  101.05    5.47
   5  -2   0   90.04    4.75
   5   3   0  324.04   12.64
  -5  -3   0  345.16   12.14
  -5   3   0  330.22    9.12
   5  -3   0  344.70   10.68
   5  -3   0  328.07   12.15
  -5  -3   0  335.42    8.77
  -5  -4   0   30.50    4.84
   5  -4   0   32.83    4.14
  -5  -4   0   34.79    3.92
  -5   4   0   37.08    3.90
   5   4   0   36.94    5.74
   5  -4   0   35.19    5.41
  -5   5   0   89.80    5.96
   5  -5   0   76.99    8.46
  -5  -5   0   94.69    8.03
   5   5   0   78.56    8.85
  -5  -5   0   88.63    6.09
   5  -5   0   85.21    6.47
   5  -6   0   30.61    4.87
   5   6   0   32.45    6.76
  -5  -6   0   37.99    6.97
  -5  -6   0   34.30    5.60
  -5  -7   0   -2.48    3.06
   5  -7   0    1.50    2.77
   5   7   0   -3.87    3.77
   5   0  -1    0.49    1.33
   5   0   1    0.29    1.28
   5   0  -1   -1.03    0.74
   5   0   1   -1.37    0.67
   5   1   1   92.75    5.50
   5  -1  -1   91.60    4.13
   5  -1   1   86.33    3.80
  -5  -1  -1   97.34    2.99
   5   1  -1  100.39    5.60
   5  -1  -1   97.46    4.73
   5  -1   1   98.90    4.62
  -5  -1  -1   92.73    4.40
   5  -1  -1  100.86    4.62
  -5  -1   1  101.17    4.94
   5  -2   1  756.77   17.17
   5  -2  -1  745.31   17.91
   5  -2   1  762.68   14.20
  -5  -2  -1  760.12   14.04
   5   2   1  724.99   18.87
   5  -2  -1  739.78   16.03
   5   2  -1  755.70   18.89
  -5  -2   1  777.88   18.49
  -5  -2  -1  748.79   17.36
   5  -2  -1  755.44   15.87
  -5  -3  -1  206.87    7.01
   5   3  -1  202.74    9.74
   5   3   1  203.67   10.10
  -5  -3  -1  204.32    8.90
  -5   3   1  214.65    7.53
  -5  -3   1  210.23    9.56
   5  -3   1  212.71    8.54
  -5   3  -1  216.02    6.22
   5  -3  -1  214.04    7.82
   5  -3  -1  205.98    9.55
   5   4  -1   12.79    3.95
  -5   4  -1   12.20    2.39
   5  -4   1    9.63    2.90
  -5   4   1   18.20    3.10
   5   4   1   12.22    4.05
  -5  -4   1   14.09    3.68
   5  -4  -1   11.18    3.59
   5  -4  -1   11.57    2.75
  -5  -4  -1   16.41    3.64
  -5  -4  -1   13.46    2.83
   5  -5   1  132.01    8.04
  -5  -5   1  106.29    8.92
  -5  -5  -1  131.21    7.47
   5  -5  -1  129.89    7.34
   5   5  -1  125.53    9.08
   5  -5  -1  114.70    9.63
  -5  -5  -1  138.02    9.13
  -5   5   1  134.16    7.67
   5   5   1  138.39    9.97
   5   6   1   74.49    9.48
   5  -6  -1   63.82    8.60
   5  -6   1   81.42    7.26
   5  -6  -1   76.15    6.33
  -5  -6   1   91.85   10.56
   5   6  -1   68.68    8.51
  -5  -6  -1   75.92    7.55
  -5  -6  -1   81.83    9.07
  -5  -7  -1   16.79    5.27
   5  -7  -1   10.89    4.08
  -5  -7   1   16.61    5.62
   5  -7   1   10.68    4.11
   5   7  -1    5.30    4.16
   5   7   1    8.28    5.62
   5   0   2   -0.62    0.78
  -5   0   2    1.57    1.10
   5   0   2    0.24    1.48
   5   0  -2    0.54    1.34
   5   0  -2    1.36    0.98
   5  -1   2   78.64    3.48
   5  -1  -2   79.86    3.79
   5  -1  -2   78.58    4.39
  -5  -1   2   72.08    4.53
   5   1  -2   77.16    4.97
   5   1   2   83.32    3.95
   5  -1  -2   84.15    4.55
   5  -1   2   77.92    4.33
   5   1   2   75.79    5.09
  -5  -2  -2  225.22    6.38
   5  -2  -2  218.06    7.74
   5  -2   2  228.84    8.38
   5  -2   2  220.34    5.26
   5  -2  -2  222.73    6.87
  -5  -2  -2  218.24    7.72
   5  -2  -2  220.44    8.72
   5   2  -2  223.91    9.12
  -5  -2   2  201.71    8.88
   5   2   2  231.43    9.77
  -5  -3  -2  115.46    6.30
   5   3   2  103.41    7.65
   5   3  -2  111.51    7.24
   5  -3  -2  124.59    7.80
   5  -3  -2  119.49    5.34
  -5  -3  -2  110.92    5.23
  -5   3   2  110.73    5.84
  -5   3  -2  107.93    3.46
  -5  -3   2  100.97    7.06
   5  -3   2  122.42    6.73
   5   4  -2   52.46    6.55
  -5  -4  -2   52.72    5.72
   5   4   2   52.62    6.88
   5  -4   2   62.41    6.21
  -5  -4  -2   58.16    5.42
   5  -4  -2   61.25    6.98
  -5  -4   2   55.94    6.79
   5  -4  -2   64.62    4.54
  -5   4   2   61.32    5.01
   5  -5  -2   39.41    4.51
  -5   5   2   37.62    5.16
   5  -5   2   34.95    5.32
   5  -5  -2   31.47    5.98
   5   5  -2   32.64    5.67
  -5  -5  -2   45.22    5.40
  -5  -5  -2   31.51    5.25
  -5  -5   2   42.72    6.76
   5   5   2   43.78    6.96
   5   6  -2   31.00    6.33
  -5  -6  -2   24.39    4.83
  -5  -6   2   23.38    6.03
  -5   6   2   23.57    7.05
   5  -6   2   20.28    4.76
  -5  -6  -2   25.92    5.31
   5  -6  -2   15.98    5.19
   5  -6  -2   25.84    4.13
   5   6   2   16.97    5.48
   5   7   2   43.52    8.73
   5   7  -2   31.96    6.68
  -5  -7   2   50.79    8.62
   5  -7   2   35.19    6.15
   5  -7  -2   41.16    7.93
  -5   0   3   -0.59    0.95
   5   0  -3   -1.42    1.22
   5   0   3   -1.99    1.27
   5   0   3   -0.46    0.86
   5   0  -3    0.18    0.95
   5  -1  -3  126.41    5.59
  -5  -1   3  120.17    6.09
   5   1   3  120.92    4.81
   5   1  -3  120.08    3.04
   5  -1  -3  126.42    5.91
   5  -1   3  112.38    5.46
   5  -1  -3  121.97    4.65
   5  -1   3  114.05    4.24
   5   1   3  132.66    6.66
   5   1  -3  128.74    6.38
   5  -2  -3   98.90    5.50
   5  -2  -3  102.84    4.25
  -5  -2  -3   93.42    4.71
   5   2  -3  103.24    6.28
   5  -2   3   99.37    5.70
  -5  -2  -3  106.40    4.53
   5   2   3  100.39    6.91
   5  -2  -3  104.69    6.27
  -5  -2   3  101.93    6.40
   5  -2   3  100.76    2.52
   5  -3  -3   20.56    2.49
  -5  -3  -3   27.70    3.59
  -5   3   3   25.92    3.63
   5  -3   3   23.52    3.87
  -5  -3   3   23.88    4.47
   5   3   3   16.94    4.45
   5  -3  -3   17.91    3.78
  -5  -3  -3   21.21    2.96
   5   3  -3   20.20    3.92
   5  -4   3   58.18    6.28
  -5  -4   3   63.12    7.46
  -5   4   3   65.46    5.51
   5  -4  -3   69.08    4.33
   5   4   3   66.34    7.88
  -5  -4  -3   69.81    5.58
  -5  -4  -3   58.61    4.99
   5   4  -3   54.83    6.36
   5  -4  -3   69.21    7.54
  -5  -5   3   18.75    4.89
  -5  -5  -3   15.30    3.82
  -5  -5  -3   18.12    3.83
   5  -5  -3   15.69    2.84
   5   5   3   11.63    4.61
   5  -5   3   11.40    3.56
   5  -5  -3   14.65    4.86
   5   5  -3   21.38    4.49
  -5   5   3   12.83    3.73
   5   6   3    1.90    4.08
   5  -6  -3    5.34    4.08
  -5  -6   3   -1.45    3.36
  -5   6   3    4.76    3.30
   5   6  -3    3.49    3.42
  -5  -6  -3   15.07    4.13
   5  -6   3    5.56    3.34
  -5  -6  -3   11.26    3.66
  -5  -7   3   27.94    6.62
   5   7  -3   15.57    5.55
   5  -7   3   13.34    4.36
   5  -7  -3   17.24    5.94
   5   7   3   24.03    6.82
   5   0  -4    1.39    1.09
  -5   0   4    0.23    1.25
   5   0  -4   -1.04    1.51
   5   0   4    1.16    1.03
   5   0   4   -0.30    1.61
   5   1  -4   47.41    4.82
   5   1  -4   64.11    2.69
   5  -1  -4   65.57    4.73
  -5  -1  -4   64.98    3.63
   5   1   4   66.99    5.20
   5  -1   4   62.71    3.34
  -5   1   4   64.81    3.69
  -5  -1   4   59.80    4.69
   5   1   4   63.79    3.55
   5  -1  -4   67.80    4.37
   5  -1   4   65.83    4.35
   5  -2  -4  288.66   10.51
   5  -2  -4  287.16   10.23
   5   2  -4  292.80    5.95
  -5  -2  -4  263.34    8.18
   5   2  -4  279.75   10.51
  -5  -2   4  275.57   11.23
   5   2   4  289.04   11.82
  -5  -2  -4  291.28    8.60
   5  -2   4  291.38   10.46
   5  -2  -4  271.56    7.45
   5   3   4  172.19   10.06
   5   3  -4  179.02    8.83
   5  -3  -4  170.36    9.18
   5  -3  -4  176.56    5.85
   5  -3   4  170.94    8.64
  -5  -3  -4  175.13    7.35
  -5  -3   4  180.78    9.95
  -5   3   4  162.49    8.10
  -5  -3  -4  176.75    7.40
   5  -4   4   10.67    3.44
  -5  -4   4    8.12    3.67
   5   4   4    8.30    4.25
   5  -4  -4   13.21    4.35
   5  -4  -4   13.13    2.18
  -5  -4  -4    9.85    2.67
  -5  -4  -4    9.36    2.74
   5   4  -4    9.57    3.36
  -5   4   4   18.23    3.84
  -5  -5   4   26.20    6.08
   5   5   4   30.92    6.65
  -5  -5  -4   25.51    4.35
  -5   5   4   20.90    4.53
   5  -5   4   25.31    4.84
   5  -5  -4   37.49    5.68
   5  -5  -4   26.91    5.78
   5   5  -4   26.99    5.28
  -5  -5  -4   25.63    4.73
   5   6   4   96.32   11.37
   5  -6   4   99.71    8.87
  -5   6   4  108.29   10.58
  -5  -6   4   85.75   10.84
  -5  -6  -4  100.31    9.64
   5  -6  -4   89.71   10.51
   5   6  -4   77.68    8.73
  -5  -7   4    3.46    4.83
   5  -7  -4    9.00    5.08
   5  -7   4    9.58    4.05
  -5  -7  -4    6.77    6.63
   5   7  -4    3.09    3.85
   5   7   4   14.54    6.24
   5   0  -5    1.93    2.03
  -5   0   5    0.81    1.34
   5   0  -5    0.73    1.24
   5   0   5   -0.56    0.97
   5   0   5    0.24    1.80
  -5   1   5    3.30    1.44
   5   1  -5    0.35    1.82
   5   1  -5    3.72    1.21
  -5  -1  -5    2.54    1.33
   5   1   5    3.17    1.27
   5   1   5   -0.50    2.45
  -5  -1   5   -2.48    1.31
   5  -1  -5    0.53    1.58
   5  -1   5    2.75    1.57
   5  -1   5    2.66    1.61
   5  -1  -5    1.82    1.86
  -5  -2  -5   39.96    3.00
   5  -2  -5   32.45    4.39
  -5   2   5   40.77    2.79
   5  -2  -5   43.95    5.13
   5   2  -5   46.30    2.46
   5   2   5   34.92    5.63
  -5  -2   5   35.19    5.09
  -5  -2  -5   42.00    3.98
   5  -2   5   41.03    4.68
   5   2  -5   47.08    5.34
   5   3  -5   28.46    4.48
   5  -3   5   32.82    4.72
  -5  -3  -5   34.73    3.80
  -5  -3  -5   38.28    4.27
  -5   3   5   26.45    4.27
   5  -3  -5   40.38    2.64
   5   3   5   36.59    6.51
  -5  -3   5   44.25    6.11
   5  -3  -5   42.75    5.60
   5  -4  -5  133.44    4.98
   5   4  -5  146.24    8.62
   5  -4  -5  147.09    9.73
  -5  -4  -5  124.32    6.86
  -5  -4   5  128.88    9.74
   5   4   5  143.08   10.50
  -5   4   5  145.69    8.72
   5  -4   5  139.58    8.87
  -5  -4  -5  127.15    7.61
   5   5   5   52.14    8.31
  -5   5   5   63.39    7.79
  -5  -5  -5   50.06    6.38
   5  -5   5   36.46    5.90
   5   5  -5   52.10    6.49
   5  -5  -5   51.70    7.73
  -5  -5   5   57.14    8.33
   5  -6   5   10.09    4.27
   5   6  -5    3.70    3.44
  -5  -6   5   12.70    4.90
   5  -6  -5    8.43    4.70
   5   6   5    8.30    5.12
  -5  -6  -5    7.46    3.48
  -5   6   5   11.01    4.50
   5   0  -6   -1.54    1.71
   5   0  -6    1.20    1.41
   5   0   6   -0.83    1.14
  -5   0   6    2.29    1.76
   5   0   6   -1.27    1.98
   5   1   6    9.25    3.44
  -5  -1   6   11.28    3.00
   5   1  -6   21.61    3.65
  -5  -1  -6   11.59    2.46
   5   1   6   14.02    2.14
   5  -1   6   17.44    2.62
   5  -1   6   10.28    2.57
  -5   1   6   12.38    2.29
   5  -1  -6   14.41    3.29
   5   1  -6   11.23    1.86
   5  -1  -6   16.48    2.82
  -5  -2  -6   60.58    4.31
   5  -2   6   61.51    5.30
  -5   2   6   58.35    3.53
  -5  -2   6   50.05    5.99
   5   2  -6   53.98    5.58
   5  -2  -6   58.38    6.08
  -5  -2  -6   55.23    3.43
   5   2   6   62.45    6.97
   5   2  -6   53.51    3.03
   5  -2  -6   54.10    5.66
   5   3  -6    5.98    2.93
  -5  -3   6    4.98    3.31
  -5  -3  -6    4.34    1.67
  -5  -3  -6    6.57    2.34
   5  -3  -6    1.12    2.49
   5  -3   6    6.18    2.72
  -5   3   6    4.06    2.54
   5   3   6    1.44    3.29
  -5   3   6    5.96    1.44
   5  -4  -6   33.04    5.80
  -5  -4   6   33.81    6.39
   5   4  -6   42.64    5.78
  -5  -4  -6   39.66    5.25
   5   4   6   25.21    6.05
   5  -4   6   39.12    5.79
  -5   4   6   35.60    5.67
  -5  -4  -6   44.37    4.62
   5   5  -6   66.45    7.14
   5   5   6   86.61   10.62
  -5  -5   6   64.73    9.19
  -5   5   6   48.11    7.04
   5  -5  -6   75.29    9.41
   5  -5   6   53.28    7.20
  -5  -5  -6   63.56    7.33
   5   6   6   12.37    6.25
  -5  -6  -6    1.48    3.19
   5  -6   6    9.95    4.27
  -5  -6   6    9.82    5.21
  -5   6   6   10.97    5.00
   5  -6  -6    8.98    4.53
   5   6  -6   20.19    4.77
   5   0   7   -0.10    1.24
   5   0   7    0.73    2.27
   5   0  -7    1.92    2.27
   5   0  -7    1.04    1.47
  -5   0   7   -0.51    1.55
   5  -1  -7   14.83    2.92
   5  -1   7   12.13    2.80
   5  -1   7   19.46    2.92
   5  -1  -7   13.51    3.47
   5   1  -7   17.82    2.39
  -5   1   7   10.96    2.38
   5   1   7   19.21    4.39
   5   1   7   14.67    2.21
   5   1  -7   14.12    3.68
  -5  -1  -7   16.19    2.85
  -5  -1   7   12.69    3.24
   5   2   7  148.77    9.49
   5  -2  -7  138.39    7.99
  -5   2   7  135.96    5.53
  -5  -2   7  132.85    8.82
   5  -2   7  138.29    7.88
  -5  -2  -7  123.64    6.54
   5   2  -7  134.93    5.20
  -5  -2  -7  125.48    5.22
  -5   2   7  128.08    8.10
   5   2  -7  139.89    7.87
   5  -3  -7   88.16    7.26
   5   3   7   76.98    8.77
  -5  -3  -7   80.86    6.02
  -5  -3   7   86.11    8.99
   5   3  -7   69.00    6.79
  -5   3   7   90.27    7.22
   5  -3   7   76.87    6.64
  -5  -3  -7   88.62    4.80
   5   4   7  135.75   11.42
   5  -4  -7  140.13   10.01
  -5   4   7  138.28    9.36
  -5  -4   7  126.84   10.35
   5  -4   7  135.62    9.35
   5   4  -7  142.94    8.71
  -5  -4  -7  124.14    8.01
   5  -5  -7   19.75    5.45
   5   5   7   24.19    6.75
  -5  -5   7   21.75    6.07
   5   5  -7   15.82    4.29
   5  -5   7   16.88    4.75
  -5   5   7   25.53    5.48
  -5  -5  -7   22.45    4.84
  -5  -6  -7   21.84    5.58
   5   6   7   13.34    6.82
   5  -6  -7   28.93    6.96
  -5  -6   7   21.59    6.59
  -5   6   7   25.60    6.62
   5  -6   7   18.51    5.27
  -5   0   8   -0.74    1.88
   5   0   8    2.27    2.60
   5   0  -8   -0.78    2.12
   5   0  -8    1.11    1.61
   5   0   8   -1.11    1.09
  -5  -1   8  152.15    8.72
   5   1  -8  142.44    8.28
   5   1  -8  146.10    6.09
   5   1   8  134.27    8.81
   5  -1  -8  132.48    7.22
   5   1   8  136.08    5.67
   5  -1   8  131.02    6.48
   5  -1  -8  148.47    9.00
   5  -1   8  158.52    7.76
  -5  -1  -8  143.50    7.11
  -5   1   8  150.56    6.94
   5   2  -8   85.60    4.58
   5   2   8   77.65    8.67
  -5   2   8   82.05    7.01
  -5  -2   8   69.04    7.65
  -5  -2  -8   78.67    4.06
   5  -2   8   87.35    6.54
  -5  -2  -8   84.97    5.87
   5  -2  -8   77.09    6.32
   5   2  -8   69.08    6.89
   5   3   8  242.21   13.74
  -5   3   8  246.13   12.51
   5   3  -8  256.64   11.29
  -5  -3  -8  248.97   10.78
   5  -3   8  252.62   12.00
  -5  -3   8  264.54   13.91
   5  -3  -8  246.36   12.23
  -5   4   8   -0.35    2.81
   5   4   8    1.89    3.84
   5   4  -8    4.15    3.09
   5  -4   8    4.56    3.61
   5  -4  -8    4.32    3.35
  -5  -4   8    2.48    3.43
  -5  -4  -8    2.09    2.34
  -5  -5  -8    1.06    2.60
   5  -5   8    5.22    3.81
   5   5   8    3.81    5.23
   5   5  -8    6.40    3.27
  -5  -5   8    9.20    4.91
  -5   5   8    7.85    4.24
   5  -5  -8    8.00    4.38
  -5  -6  -8   23.98    5.87
  -5   6   8   20.92    6.21
   5  -6  -8   26.14    6.91
  -5  -6   8   24.52    6.90
   5   6   8   22.61    7.10
   5  -6   8   26.85    6.57
   5   0   9    0.20    1.21
   5   0  -9   -0.61    1.65
   5   0   9    4.18    2.91
   5   0  -9    2.10    2.52
  -5   0   9   -0.88    1.89
  -5  -1  -9   19.88    3.59
  -5  -1   9   22.94    4.56
   5  -1   9   22.48    3.83
  -5   1   9   28.27    3.76
   5  -1  -9   25.70    4.90
   5  -1  -9   30.73    4.46
   5  -1   9   23.80    3.67
   5   1   9   18.55    4.67
   5   1  -9   20.82    4.30
   5   1  -9   16.83    2.85
   5   1   9   23.47    2.86
  -5  -2   9  235.10   12.36
   5   2  -9  211.05   10.62
   5   2   9  223.14   12.52
  -5  -2  -9  242.83   10.21
   5   2  -9  231.53    8.14
  -5   2   9  220.75   11.81
   5  -2  -9  220.88   10.76
   5  -2   9  219.86   10.72
   5  -3  -9   30.27    5.43
   5   3  -9   25.25    3.34
  -5   3   9   31.33    6.21
  -5  -3   9   26.07    5.74
  -5  -3  -9   22.26    4.16
   5   3  -9   27.44    4.84
   5   3   9   20.10    5.58
   5  -3   9   22.80    4.63
  -5  -4  -9   24.64    4.91
   5   4   9   21.25    6.37
  -5  -4   9   21.64    5.80
   5   4  -9   29.33    5.13
   5  -4   9   27.58    5.68
  -5   4   9   30.44    6.03
   5  -4  -9   35.89    6.84
   5   5   9   26.37    8.05
   5  -5  -9   24.10    6.29
  -5   5   9   29.28    6.69
   5   5  -9   19.03    4.56
   5  -5   9   23.87    5.74
  -5  -5  -9   17.14    4.91
  -5  -5   9   28.33    7.00
   5   0  10   -0.49    1.27
  -5   0  10   -0.24    2.14
   5   0  10    3.14    2.87
   5   0 -10    0.81    1.98
   5   0 -10   -2.53    2.07
   5  -1 -10   15.88    3.76
   5   1 -10    9.96    2.65
   5  -1  10   12.79    2.91
  -5  -1  10   10.56    3.62
   5   1 -10   16.96    4.23
   5  -1  10   15.59    3.47
   5   1  10   14.57    2.39
  -5   1  10    6.56    3.59
  -5  -1 -10   12.17    3.12
   5   1  10   13.29    4.48
   5  -2  10   11.17    3.34
  -5   2  10   16.42    4.62
  -5  -2  10   16.36    4.60
   5   2 -10   19.62    4.34
  -5  -2 -10    7.86    2.76
   5   2  10   11.72    4.72
   5   2 -10   12.67    2.66
   5  -2 -10   12.02    3.91
   5   3  10    5.20    4.71
  -5  -3 -10    8.52    3.34
   5  -3 -10    9.46    3.80
   5  -3  10    3.21    3.11
  -5   3  10    7.36    4.12
   5   3 -10    8.18    2.63
   5   3 -10    3.99    2.89
  -5  -3  10    6.38    3.68
   5   4 -10   35.64    5.78
   5  -4  10   37.68    6.58
  -5  -4  10   41.17    7.85
  -5  -4 -10   47.37    7.02
   5   4  10   45.18    8.82
  -5   4  10   43.63    7.93
   5  -4 -10   27.55    6.19
   5  -5  10   39.45    7.13
   5   5  10   54.74   10.18
  -5   5  10   58.80    9.33
   5  -5 -10   45.77    8.76
  -5  -5  10   48.22    9.00
  -5  -5 -10   63.06    8.85
   5   0  11   -0.64    2.78
  -5   0  11   -0.59    2.23
  -5   0 -11    0.87    2.08
   5   0 -11   -1.26    2.40
   5   0 -11    0.65    1.94
   5   0  11    1.06    1.60
   5   1  11    1.80    3.24
  -5  -1 -11   -1.05    1.65
  -5  -1  11   -2.22    2.17
   5  -1 -11    0.88    2.13
   5  -1  11    1.17    1.90
   5   1 -11    1.46    2.03
   5   1 -11    3.50    3.03
  -5   1  11    2.98    3.00
   5   2 -11   55.23    5.37
   5  -2 -11   51.89    7.00
   5   2 -11   58.19    7.08
   5   2  11   48.91    7.75
   5  -2  11   51.20    6.26
  -5  -2  11   48.74    7.27
  -5   2  11   40.43    7.18
  -5  -2 -11   50.49    6.18
   5   3  11   53.17    9.02
  -5  -3 -11   56.83    7.25
   5   3 -11   61.52    7.55
  -5   3  11   55.64    8.31
   5  -3 -11   52.55    7.27
   5  -3  11   58.13    7.44
  -5  -3  11   50.80    7.86
   5  -4  11    4.57    3.82
   5   4  11    2.10    5.17
  -5  -4 -11   -1.97    2.10
   5   4 -11    3.37    3.32
  -5   4  11    5.58    4.73
   5  -4 -11    1.84    3.71
  -5  -4  11   10.50    4.64
  -5   0 -12    0.85    2.30
   5   0 -12    0.18    2.38
   5   0  12    2.87    2.00
   5   0  12   -0.92    2.85
  -5   0  12    1.99    2.70
  -5  -1 -12    7.26    2.98
   5   1 -12    2.17    3.11
  -5  -1  12    9.00    3.69
   5  -1  12    4.46    2.49
   5  -1 -12    4.60    3.03
  -5   1  12    3.51    3.34
   5   1 -12    5.35    2.72
   5   1  12    7.56    4.21
   5   2  12   43.78    7.66
   5   2 -12   40.63    6.69
  -5  -2 -12   32.67    5.46
  -5   2  12   38.22    7.07
  -5  -2  12   49.20    7.52
   5  -2 -12   31.35    5.96
   5  -2  12   39.11    5.82
   5   2 -12   37.58    4.87
  -5   3  12   27.20    6.55
   5  -3  12   26.10    5.31
   5   3  12   30.88    7.73
  -5  -3 -12   35.54    6.03
   5  -3 -12   26.08    5.82
   5   3 -12   27.53    5.47
  -5  -3  12   24.90    6.12
   5  -4  12    3.98    3.89
   5  -4 -12    2.27    4.42
  -5   4  12   -1.95    3.41
  -5  -4 -12   10.89    4.20
  -5  -4  12   10.73    5.42
   5   4  12   10.70    5.73
   5   0 -13   -4.30    2.11
  -5   0 -13   -0.64    2.09
  -5   0  13   -1.41    2.63
   5   1  13    4.59    4.27
  -5  -1 -13    5.53    2.89
   5   1 -13    2.53    2.82
  -5   1  13    9.43    4.41
   5  -1 -13    3.25    3.12
   5  -1  13    0.96    2.17
   5   2  13    4.81    4.78
  -5  -2  13    0.20    3.19
   5   2 -13    3.53    2.61
   5  -2 -13    1.60    3.21
   5   2 -13   -2.75    2.27
   5  -2  13   -1.63    2.44
  -5  -2 -13    0.23    2.31
  -5   2  13    2.47    4.03
   5   3  13    3.16    4.92
   5  -3 -13    4.65    3.88
   5  -3  13   13.80    4.45
  -5  -3 -13    1.93    2.66
  -5  -3  13    4.04    4.14
   5   3 -13    8.83    3.98
  -5   3  13    4.37    4.59
  -5   0  14    5.43    4.19
  -5   0 -14    1.33    2.84
   5   0 -14    2.30    2.95
  -5   1  14    6.39    4.55
   5  -1 -14    2.71    3.50
  -5   1 -14    6.52    3.38
  -5  -1 -14    2.46    3.11
  -5  -1  14    6.53    3.69
   5   1 -14    8.49    3.66
   5   1  14    9.60    4.97
   6   0   0   12.16    2.33
   6   0   0   12.87    2.10
   6  -1   0  199.96    6.94
  -6  -1   0  200.97    7.44
   6   1   0  219.54    8.80
   6  -1   0  198.81    6.98
  -6  -1   0  200.58    4.12
   6   2   0    3.45    2.81
   6  -2   0    3.77    1.61
   6  -2   0    4.79    1.51
  -6  -2   0    3.26    0.86
  -6  -2   0    2.44    1.70
  -6   3   0  498.16   12.25
  -6  -3   0  502.63   10.95
   6   3   0  516.01   16.83
   6  -3   0  535.52   16.23
  -6  -3   0  507.09   15.82
   6  -3   0  525.57   14.29
   6  -4   0   38.07    5.76
   6  -4   0   46.39    5.02
  -6   4   0   42.12    3.65
  -6  -4   0   43.98    5.96
   6   4   0   41.37    6.28
  -6  -4   0   47.36    3.82
   6  -5   0  202.47    9.81
  -6  -5   0  208.65   11.79
   6   5   0  201.69   12.00
  -6  -6   0    1.18    2.96
   6   6   0   -1.07    3.32
   6  -6   0   -0.97    2.37
   6  -7   0    2.10    2.99
   6   7   0    2.53    4.24
  -6  -7   0   -0.08    3.47
   6   0  -1  881.71   18.60
   6   0   1  950.65   18.90
   6   0   1  901.25   19.23
   6   0  -1  899.41   19.62
   6  -1  -1  863.68   18.35
  -6  -1   1  876.84   19.40
   6   1   1  875.74   20.29
   6  -1  -1  875.13   18.24
   6  -1  -1  867.23   17.99
   6  -1   1  894.89   17.51
   6   1  -1  842.11   20.02
  -6  -1  -1  883.97   18.80
   6  -1   1  867.87   18.71
   6   2   1   77.30    6.24
   6  -2  -1   80.62    4.46
  -6  -2  -1   79.79    5.01
   6   2  -1   73.96    5.96
   6  -2  -1   66.23    5.10
  -6  -2   1   69.43    5.13
   6  -2  -1   68.07    4.25
   6  -2   1   76.38    4.80
  -6  -2  -1   76.67    3.15
   6  -2   1   72.06    3.56
  -6   3  -1  305.73    8.09
   6  -3   1  310.42   10.83
   6  -3  -1  301.27   12.15
   6   3  -1  304.82   12.49
  -6  -3  -1  313.51   11.57
  -6  -3   1  298.31   12.04
   6   3   1  343.38   13.46
  -6  -3  -1  304.96    8.49
   6  -3  -1  303.58    9.88
  -6   3   1  319.49    9.74
  -6  -4   1  285.52   13.18
   6   4   1  291.75   13.69
   6  -4  -1  301.96   10.71
  -6   4  -1  315.94    8.82
  -6   4   1  335.60   10.76
   6  -4  -1  315.18   13.65
  -6  -4  -1  313.85   10.08
   6   4  -1  324.18   13.80
   6  -4   1  320.34   11.94
  -6  -4  -1  346.25   13.42
  -6  -5  -1   92.63    7.79
   6  -5  -1   90.91    9.66
  -6  -5  -1   92.71    6.18
   6   5   1   95.69    9.74
   6  -5   1  104.35    7.47
   6  -5  -1   90.62    6.41
   6   5  -1   85.00    8.88
  -6  -5   1   95.52    9.80
  -6   5   1   80.70    6.05
   6  -6   1   45.17    6.20
   6  -6  -1   48.77    5.82
   6  -6  -1   42.61    7.38
  -6  -6  -1   49.12    7.74
   6   6  -1   49.10    7.65
  -6  -6   1   58.90    8.82
   6   6   1   40.06    7.75
  -6  -7   1    6.76    4.76
   6   7   1    3.93    4.52
  -6  -7  -1   12.23    4.88
   6  -7   1    7.53    3.75
   6   7  -1    4.87    4.87
   6   0  -2  769.53   14.49
   6   0  -2  776.91   17.86
   6   0   2  758.04   16.63
   6   0   2  760.83   17.11
  -6   0   2  766.68   16.94
   6   1   2  265.14    8.25
   6  -1  -2  261.88    8.41
   6  -1  -2  257.50    8.76
   6  -1  -2  264.68    7.96
  -6  -1   2  261.65    9.32
   6   1  -2  264.96    9.83
   6  -1   2  285.01    7.79
   6   1   2  267.34   10.03
   6  -1   2  266.37    8.74
   6  -2   2   60.45    4.51
   6  -2  -2   45.18    3.31
   6  -2  -2   46.23    3.76
   6  -2   2   46.26    2.54
   6   2   2   51.16    5.76
   6  -2  -2   47.64    4.96
  -6  -2  -2   42.34    2.74
  -6  -2  -2   44.44    3.74
  -6  -2   2   47.43    5.08
   6   2  -2   49.84    5.73
  -6  -3   2  139.42    8.51
   6   3  -2  136.16    8.30
  -6  -3  -2  123.12    5.42
  -6  -3  -2  124.54    6.88
  -6   3   2  125.50    6.40
   6  -3   2  131.58    7.16
   6   3   2  119.05    8.42
  -6   3  -2  132.52    4.17
   6  -3  -2  124.49    7.84
   6  -3  -2  130.01    5.91
   6   4  -2    8.34    3.53
   6  -4  -2    2.36    2.92
  -6   4   2    7.86    2.61
   6   4   2    9.49    4.12
  -6  -4  -2   11.75    3.24
  -6  -4  -2    3.65    2.04
   6  -4   2   10.19    3.23
   6  -4  -2    5.90    2.13
  -6  -4   2    7.55    3.70
  -6  -5  -2   90.42    6.60
   6  -5   2   90.18    7.26
  -6  -5   2  109.52    9.23
   6   5   2  105.85   10.73
   6  -5  -2   90.91    9.65
   6  -5  -2   95.95    6.19
   6   5  -2   87.06    9.17
  -6   5   2  108.19    7.08
  -6  -5  -2  103.96    8.08
   6  -6   2   10.02    3.64
  -6  -6   2   18.38    5.76
   6   6  -2    9.24    4.26
  -6  -6  -2   21.02    5.30
   6  -6  -2   14.78    5.51
   6  -6  -2   12.27    3.30
   6   6   2    3.65    4.25
   6  -7  -2   12.29    5.35
  -6  -7   2   20.01    6.54
   6   7   2    8.72    5.70
   6   7  -2   12.54    5.02
   6  -7   2    8.98    3.97
   6   0  -3  303.73    7.77
   6   0   3  299.00    9.65
   6   0   3  306.44    9.16
  -6   0   3  309.43    9.62
   6   0  -3  323.16   10.55
  -6  -1   3  426.42   12.92
   6  -1  -3  448.57   12.72
   6  -1   3  437.26   10.36
   6   1   3  434.89   11.21
   6  -1   3  413.94   11.93
   6   1   3  455.97   13.57
   6   1  -3  438.25   13.26
   6  -1  -3  421.75   11.56
   6   2  -3  146.08    7.97
  -6  -2  -3  148.04    6.42
   6   2   3  153.71    8.71
   6  -2  -3  143.77    7.40
   6  -2  -3  148.05    6.99
   6  -2   3  156.06    4.26
   6  -2  -3  152.20    5.75
   6  -2   3  156.07    7.51
  -6  -2  -3  151.53    5.47
  -6  -2   3  152.33    8.17
   6   3   3   99.98    8.06
   6  -3  -3   97.13    4.79
  -6  -3  -3  105.62    6.23
  -6  -3  -3   89.31    5.00
   6  -3   3  102.78    6.63
  -6  -3   3   85.05    7.04
   6   3  -3  103.74    7.34
  -6   3   3   92.12    5.95
   6  -3  -3   97.30    7.19
  -6  -4  -3   64.62    5.68
   6  -4  -3   51.05    6.80
  -6   4   3   63.68    5.45
   6   4  -3   55.65    6.73
   6  -4  -3   62.19    4.30
  -6  -4   3   73.47    8.55
   6   4   3   65.82    8.15
   6  -4   3   54.75    6.19
  -6  -4  -3   62.96    5.04
  -6  -5  -3  207.48   10.92
   6  -5  -3  202.52   12.41
   6  -5   3  195.29   10.75
   6  -5  -3  204.95    8.33
   6   5  -3  198.53   11.15
  -6  -5  -3  210.28    9.92
  -6  -5   3  216.82   13.03
  -6   5   3  193.91   10.02
   6   5   3  205.95   12.95
   6  -6  -3    0.31    3.65
  -6  -6   3    8.87    4.28
   6   6  -3    0.14    3.52
   6   6   3   -0.71    4.28
  -6   6   3    2.90    3.44
  -6  -6  -3    4.89    3.47
   6  -6   3   -0.29    2.44
   6   7  -3   22.44    6.24
   6  -7   3   29.95    6.34
   6  -7  -3   29.77    7.53
  -6  -7   3   33.48    7.76
   6   7   3   20.30    7.04
   6   0   4  187.23    7.02
   6   0  -4  175.66    6.00
   6   0   4  188.15    7.57
   6   0  -4  173.09    7.98
  -6   0   4  179.56    7.51
   6  -1   4  454.51   10.73
   6  -1  -4  455.23   13.50
   6   1   4  452.84   11.53
   6   1  -4  457.53    8.82
   6  -1   4  432.72   12.62
   6   1   4  427.16   13.69
   6  -1  -4  440.97   12.23
  -6   1   4  465.68   11.84
  -6  -1   4  450.30   13.82
   6   1  -4  424.35   13.56
  -6  -2   4  259.68   11.23
   6   2  -4  280.00    4.95
   6  -2   4  280.33    5.50
   6  -2  -4  271.50   10.31
  -6  -2  -4  277.46    8.21
   6  -2   4  257.57   10.09
   6  -2  -4  251.58   10.27
   6   2  -4  257.97   10.73
   6   2   4  277.42   11.83
   6  -2  -4  268.27    7.97
  -6  -2  -4  261.54    8.75
   6   3   4  206.29   11.32
  -6   3   4  196.91    9.13
   6  -3  -4  217.76   10.53
  -6  -3  -4  205.81    7.91
  -6  -3  -4  209.56    8.53
   6  -3  -4  200.54    6.77
  -6  -3   4  167.93   10.07
   6  -3   4  207.84    9.73
   6   3  -4  179.24    9.54
   6   4   4  463.64   18.47
  -6   4   4  460.54   15.54
  -6  -4   4  457.45   18.47
   6  -4  -4  504.85   12.44
   6  -4  -4  478.11   17.96
   6   4  -4  475.15   16.44
  -6  -4  -4  485.13   15.29
  -6  -4  -4  509.10   14.86
   6  -4   4  500.67   16.95
  -6  -5  -4    4.80    2.75
   6   5   4    7.77    4.56
   6  -5   4    7.35    3.19
   6  -5  -4   14.11    4.94
  -6  -5   4    3.92    3.56
  -6   5   4    6.63    3.15
  -6  -5  -4   -0.66    2.27
   6   5  -4    4.51    3.58
  -6  -6  -4   21.35    4.91
   6  -6  -4   17.32    5.76
  -6   6   4   16.87    4.82
   6   6   4   11.14    6.16
   6   6  -4   11.76    4.75
   6  -6   4   13.03    4.77
  -6  -6   4   12.26    5.61
   6   0   5 2273.52   40.97
   6   0  -5 2277.28   42.94
  -6   0   5 2245.52   42.26
   6   0   5 2328.85   41.15
   6   0  -5 2301.13   38.48
   6  -1  -5  120.49    7.00
  -6  -1   5   98.69    6.70
   6  -1  -5  108.12    6.07
   6   1   5  112.96    7.37
   6   1   5  114.54    5.20
   6   1  -5  112.06    4.16
   6  -1   5  100.55    5.91
  -6  -1  -5  107.44    5.12
  -6   1   5  119.57    5.70
   6  -1   5  111.77    5.07
   6   1  -5  115.66    6.93
  -6  -2   5   63.59    6.80
   6  -2  -5   53.27    5.74
  -6  -2  -5   65.27    4.10
   6  -2   5   63.62    5.29
   6   2  -5   66.14    2.60
   6   2  -5   72.48    5.94
  -6  -2  -5   62.23    4.15
  -6   2   5   62.38    3.84
   6  -2  -5   53.77    5.65
   6   2   5   64.79    6.88
   6  -3  -5  277.39    8.00
  -6  -3  -5  272.18    9.78
   6  -3   5  265.75   11.59
   6   3   5  260.82   13.05
  -6  -3   5  288.09   13.44
   6  -3  -5  283.42   12.36
  -6   3   5  281.01   11.54
  -6  -3  -5  278.04    9.83
   6   3  -5  284.05   12.04
   6   4  -5   36.31    5.69
   6  -4   5   33.31    5.32
   6  -4  -5   41.08    6.55
   6   4   5   38.16    6.85
  -6   4   5   36.78    5.38
  -6  -4  -5   44.60    5.32
  -6  -4   5   41.17    6.84
  -6  -4  -5   39.81    4.86
   6  -4  -5   38.19    3.02
   6   5  -5   16.25    4.65
  -6   5   5   28.64    5.43
   6   5   5   30.60    6.91
  -6  -5   5   23.78    6.13
   6  -5  -5   18.01    5.36
  -6  -5  -5   22.70    4.51
   6  -5   5   24.82    5.14
  -6  -6  -5    0.75    2.81
   6   6   5   -2.08    4.31
   6  -6  -5    2.38    4.14
   6  -6   5   -1.04    2.94
   6   6  -5   -3.11    3.01
  -6  -6   5    0.67    3.86
  -6   6   5    0.82    3.41
   6   0  -6  106.65    5.19
   6   0  -6  104.88    6.85
   6   0   6   95.05    6.06
   6   0   6   98.20    5.32
  -6   0   6  104.73    6.40
   6   1   6  196.24    7.08
   6   1   6  197.74    9.73
   6   1  -6  207.44    6.34
   6  -1   6  196.70    6.99
  -6   1   6  171.70    7.37
   6  -1  -6  199.08    8.31
   6  -1  -6  178.37    9.14
  -6  -1  -6  198.48    7.58
   6  -1   6  199.15    8.57
  -6  -1   6  201.03    9.57
   6   1  -6  196.51    9.48
   6   2   6  113.27    8.41
  -6  -2  -6  130.33    6.36
   6  -2  -6  122.79    7.76
   6  -2  -6  125.84    7.73
  -6  -2  -6  125.58    5.67
  -6   2   6  133.29    5.80
   6   2  -6  136.11    4.42
  -6  -2   6  128.17    8.63
   6   2  -6  127.45    7.87
   6  -2   6  117.65    7.30
   6   3   6   61.58    7.70
  -6  -3   6   64.60    7.83
  -6  -3  -6   59.09    4.96
   6  -3  -6   59.84    6.97
   6   3  -6   61.69    6.59
  -6   3   6   62.42    6.85
  -6   3   6   69.06    3.91
  -6  -3  -6   64.52    4.65
   6  -3   6   51.01    6.13
  -6  -4   6  220.33   13.24
   6  -4  -6  199.52   11.80
   6   4   6  217.34   13.31
  -6  -4  -6  219.66   10.05
  -6   4   6  207.79   10.99
   6   4  -6  206.91   10.83
   6  -4   6  203.64   11.18
  -6  -4  -6  198.77    8.88
   6  -5  -6    6.02    4.40
   6  -5   6    5.98    3.42
   6   5   6   11.04    5.20
   6   5  -6   11.04    4.10
  -6  -5   6    9.65    4.85
  -6  -5  -6   12.43    3.78
  -6   5   6   12.88    4.07
  -6  -6  -6   28.44    5.75
  -6  -6   6   29.27    7.35
  -6   6   6   25.97    6.27
   6   6   6   30.64    8.31
   6   6  -6   21.35    5.38
   6  -6   6   18.33    5.64
   6  -6  -6   19.42    6.22
  -6   0   7    0.48    1.96
   6   0  -7    1.75    1.60
   6   0  -7    0.20    2.34
   6   0   7    3.37    2.41
   6   0   7    2.09    1.45
   6  -1   7   42.62    4.75
  -6  -1  -7   42.51    4.41
  -6  -1   7   51.01    6.02
   6   1   7   51.14    6.06
   6  -1  -7   55.85    6.27
  -6   1   7   42.76    4.44
   6  -1   7   48.62    4.04
   6   1  -7   44.57    3.43
   6   1  -7   39.21    5.25
   6   1   7   47.83    3.53
   6  -1  -7   48.58    4.86
   6  -2   7  172.74    8.97
   6  -2  -7  163.86    9.57
  -6   2   7  162.98    6.72
  -6  -2   7  191.83   10.84
   6   2  -7  166.90    5.64
   6   2  -7  163.25    9.02
   6   2   7  165.54   10.17
  -6  -2  -7  150.30    6.33
  -6  -2  -7  153.86    7.45
   6  -2  -7  167.41    8.99
   6  -3  -7   12.29    3.89
  -6  -3   7    9.06    3.88
   6   3   7   10.99    4.68
  -6  -3  -7   13.05    3.01
   6   3  -7   13.60    3.72
  -6   3   7   11.11    3.63
  -6  -3  -7   14.46    2.75
   6  -3   7   11.18    3.65
   6  -4   7   52.35    6.73
  -6   4   7   49.87    6.94
  -6  -4   7   51.52    8.08
   6   4  -7   47.41    6.56
   6  -4  -7   58.55    7.80
  -6  -4  -7   57.19    6.62
   6   4   7   48.20    8.08
  -6  -5  -7  128.27    9.07
   6   5  -7  119.46    8.98
   6  -5  -7  137.77   11.23
   6   5   7  132.05   13.36
  -6  -5   7  140.61   12.08
   6  -5   7  130.71   10.02
  -6   5   7  134.29   10.32
  -6  -6   7    1.20    3.99
   6   6  -7   -3.99    2.74
   6   6   7   -2.22    4.68
  -6   6   7    1.40    3.82
  -6  -6  -7   -1.37    2.78
   6  -6  -7    2.20    4.05
   6  -6   7    3.28    3.60
   6   0  -8  228.18    8.78
  -6   0   8  212.37    9.87
   6   0   8  216.47    8.55
   6   0   8  210.62    9.55
   6   0  -8  212.49   10.73
   6   1  -8   11.76    2.37
   6  -1  -8    8.40    3.31
   6  -1   8   12.94    3.10
   6  -1  -8    6.83    2.56
  -6   1   8   10.86    2.63
   6   1  -8   11.59    3.76
  -6  -1   8    7.65    3.35
   6   1   8   11.40    2.22
   6   1   8   11.52    3.74
  -6  -1  -8    8.11    2.41
   6  -1   8   15.09    2.94
   6   2  -8  152.74    5.87
   6   2   8  157.09   10.29
  -6  -2   8  140.56    9.66
  -6  -2  -8  135.62    5.93
  -6   2   8  151.76    9.73
   6  -2   8  133.65    8.22
  -6  -2  -8  130.19    7.31
   6   2  -8  146.89    8.83
   6  -2  -8  134.31    8.52
  -6   2   8  141.51    7.36
  -6  -3   8   13.25    4.57
  -6   3   8   14.36    4.20
   6  -3  -8   11.24    4.23
   6   3  -8   15.78    4.22
   6   3   8   21.87    5.71
  -6  -3  -8   18.78    3.91
   6  -3   8   14.20    3.75
   6  -4   8  133.78    9.69
   6   4   8  147.90   12.02
  -6   4   8  123.89    9.59
  -6  -4  -8  147.25    9.08
   6   4  -8  136.68    9.18
  -6  -4   8  144.17   11.83
   6  -4  -8  129.25   10.45
  -6  -5   8   14.80    5.64
  -6   5   8    3.74    3.83
  -6  -5  -8    8.77    3.73
   6  -5  -8    8.48    4.63
   6   5  -8    7.84    3.56
   6  -5   8    4.07    3.46
   6   5   8   10.02    5.81
   6   0   9  590.06   17.56
  -6   0   9  612.18   18.20
   6   0  -9  606.14   19.52
   6   0   9  552.14   15.53
   6   0  -9  603.04   16.13
  -6  -1   9   78.91    8.09
   6   1   9   62.14    4.20
  -6   1   9   68.59    5.44
   6   1   9   67.22    7.38
   6  -1   9   58.79    5.43
  -6  -1  -9   68.80    5.59
   6   1  -9   69.55    4.74
   6  -1  -9   72.28    7.94
   6   1  -9   64.86    7.21
   6  -1   9   59.82    6.03
   6  -1  -9   76.00    6.16
   6  -2  -9    8.05    3.45
   6   2  -9   17.23    2.62
  -6  -2  -9   14.63    2.42
  -6  -2  -9   12.81    3.35
   6   2   9   23.44    5.48
   6  -2   9   10.80    3.52
  -6  -2   9   15.88    4.48
  -6   2   9   14.10    4.23
   6   2  -9   12.36    3.90
  -6   3   9   18.07    4.80
  -6  -3   9    6.90    4.01
   6   3   9   24.34    6.24
   6  -3  -9   24.32    5.11
   6   3  -9   11.56    4.13
   6  -3   9    7.13    3.05
  -6  -3  -9   20.26    4.21
  -6  -4  -9   38.79    5.99
  -6   4   9   31.90    6.58
   6   4   9   32.10    7.55
   6  -4  -9   40.27    7.02
  -6  -4   9   40.13    8.00
   6   4  -9   31.87    5.49
   6  -4   9   38.43    6.82
   6   5  -9    8.22    3.92
  -6  -5   9    3.86    4.54
  -6   5   9    9.35    4.63
   6  -5   9   11.24    4.50
   6   5   9    1.20    5.33
  -6  -5  -9    2.61    2.90
   6  -5  -9    2.09    3.53
  -6   0  10    7.89    3.06
   6   0  10    4.24    3.12
   6   0 -10    4.96    2.48
   6   0 -10    3.64    3.14
   6   0  10    4.91    2.07
   6   1  10   37.97    6.12
   6   1 -10   32.08    5.98
   6  -1  10   28.26    4.46
   6  -1 -10   26.69    4.61
   6   1  10   42.14    4.19
   6   1 -10   40.75    4.52
  -6  -1 -10   26.94    4.52
   6  -1 -10   26.95    5.42
  -6  -1  10   43.77    6.22
   6   2  10   68.74    8.88
   6   2 -10   83.18    8.56
  -6  -2 -10   62.14    6.48
   6  -2  10   51.69    6.57
  -6   2  10   62.88    8.10
   6  -2 -10   66.08    7.41
   6   2 -10   72.46    5.08
  -6  -2  10   75.05    9.06
   6   3  10   38.81    7.71
   6  -3 -10   37.98    6.08
  -6  -3  10   33.09    6.85
   6  -3  10   39.18    6.15
   6   3 -10   51.68    6.83
  -6   3  10   34.42    6.49
  -6  -3 -10   41.90    6.05
  -6  -4 -10  116.33    9.01
  -6  -4  10  123.19   13.13
   6   4 -10  119.22    9.06
  -6   4  10  129.93   11.10
   6   4  10  140.83   14.41
   6  -4 -10  133.20   12.67
   6  -4  10  116.09    9.68
  -6   5  10   43.99    8.29
   6   5  10   50.89   10.40
   6  -5 -10   19.73    6.04
   6  -5  10   39.35    7.40
   6   5 -10   36.98    7.34
  -6  -5 -10   26.85    6.10
  -6  -5  10   37.77    8.69
  -6   0 -11   27.64    4.75
   6   0 -11   31.25    5.93
   6   0 -11   28.05    4.56
   6   0  11   30.77    5.37
   6   0  11   31.12    4.13
  -6   0  11   39.82    5.55
  -6  -1  11   61.03    7.57
   6   1 -11   72.22    8.42
  -6   1  11   59.00    7.96
  -6  -1 -11   69.61    7.30
   6   1 -11   74.12    5.87
   6  -1  11   80.85    6.22
   6   1  11   81.35    9.08
   6  -1 -11   64.98    6.90
  -6  -2 -11   94.70    7.31
   6   2 -11   74.69    8.64
   6  -2  11   97.24    7.62
   6   2  11  105.51   11.11
  -6  -2  11   76.26    9.18
  -6   2  11   84.41    9.81
   6  -2 -11   93.66    9.29
   6  -3 -11   23.72    5.17
   6   3 -11   25.19    5.34
  -6  -3  11   23.21    6.32
   6  -3  11   18.03    4.48
  -6  -3 -11   21.12    4.93
   6   3  11   28.92    7.13
  -6   3  11   29.72    6.64
   6   4  11   69.58   10.83
  -6   4  11   56.94    9.33
  -6  -4 -11   55.38    7.81
   6   4 -11   48.49    7.17
   6  -4  11   49.88    7.57
  -6  -4  11   74.76   10.66
   6  -4 -11   61.65    9.05
   6   0 -12  201.13   12.62
   6   0  12  203.29   13.48
   6   0  12  173.63    8.46
  -6   0 -12  164.47    9.62
   6   0 -12  170.35    9.50
   6  -1  12    1.71    2.15
  -6  -1 -12    4.89    2.74
   6  -1 -12    3.15    3.04
   6   1 -12    1.97    2.86
   6   1  12    3.76    3.68
  -6   1  12    0.67    3.12
   6   1 -12    1.23    2.41
  -6  -1  12   -1.71    2.33
  -6   2  12   31.37    6.31
  -6  -2  12   36.08    6.53
   6   2 -12   18.56    5.20
   6   2  12   35.63    7.41
  -6  -2 -12   18.85    4.45
   6  -2  12   17.62    4.26
   6  -2 -12   30.96    6.16
   6  -3  12    6.65    3.46
  -6  -3 -12    4.68    3.17
   6   3 -12    3.71    3.23
   6  -3 -12   -1.77    3.16
   6   3  12    2.01    4.93
  -6  -3  12   -1.02    3.11
  -6   3  12    6.24    4.20
  -6   0  13   84.50    9.98
  -6   0 -13   70.92    7.78
   6   0 -13   74.89    7.79
   6   1 -13   56.12    6.42
  -6   1  13   57.53    8.64
  -6  -1 -13   38.00    6.00
   6   1  13   54.28    8.48
   6   1 -13   45.59    7.72
   6  -1  13   46.76    5.89
   6  -1 -13   53.05    7.14
  -6   2  13    1.05    3.54
   6  -2 -13   -0.31    3.10
  -6  -2 -13    5.97    3.24
   6   2 -13    2.67    3.54
   6  -2  13    5.96    3.16
  -6  -2  13   11.44    4.62
   6   2  13    6.21    4.75
   6   0 -14  128.03    9.40
  -6   0  14  124.15   12.54
  -6   0 -14  115.51    9.15
   7   0   0    0.13    1.66
   7   0   0    1.33    1.20
   7   1   0  838.95   20.27
   7  -1   0  819.34   18.02
  -7  -1   0  793.35   18.86
   7  -1   0  825.32   18.26
  -7  -2   0  323.07   11.50
   7   2   0  337.02   12.80
   7  -2   0  321.69    9.43
   7  -2   0  315.25   10.36
   7  -3   0  272.83   10.01
  -7  -3   0  260.47    6.25
  -7  -3   0  260.96   11.28
   7   3   0  270.11   12.36
  -7   3   0  249.74    8.31
  -7   4   0   57.01    4.25
   7  -4   0   60.10    5.36
   7   4   0   59.14    7.60
  -7  -4   0   59.19    7.06
   7  -5   0  103.46    7.34
  -7  -5   0  100.16    8.92
   7   5   0   77.72    9.30
   7  -6   0   13.84    3.90
  -7  -6   0    5.16    3.81
   7   6   0   -0.31    3.67
   7   0   1   -0.31    0.97
   7   0   1   -1.05    1.70
   7   0  -1   -0.81    1.75
   7  -1  -1  334.16   10.31
   7  -1   1  334.27    9.68
   7   1   1  314.57   11.51
  -7  -1   1  328.54   10.81
   7  -1  -1  331.38    9.81
  -7  -1  -1  336.70   10.53
   7  -1   1  338.87   10.36
   7   1  -1  326.64   11.55
  -7  -2   1  155.76    7.94
   7  -2  -1  142.95    6.42
   7  -2   1  153.92    7.15
   7   2   1  151.37    8.75
  -7  -2  -1  137.48    7.06
   7  -2  -1  144.50    7.55
   7   2  -1  148.90    8.53
  -7  -2  -1  152.79    4.48
   7  -2   1  149.84    5.66
   7  -2  -1  158.73    6.61
  -7   3   1  206.83    8.01
   7   3   1  197.70   10.88
  -7  -3   1  223.28   10.66
  -7   3  -1  205.63    6.71
  -7  -3  -1  206.81    6.48
   7  -3   1  217.73    9.22
   7  -3  -1  212.14    8.35
  -7  -3  -1  201.90    9.57
   7   3  -1  227.28   11.39
   7  -3  -1  223.41   10.60
   7   4   1    4.38    3.63
  -7  -4   1    2.72    2.45
   7  -4   1    0.96    1.90
   7   4  -1    4.03    3.45
   7  -4  -1    0.57    2.49
   7  -4  -1    1.27    1.90
  -7  -4  -1    2.40    2.05
  -7  -4  -1    2.76    2.63
  -7   4   1    3.45    1.99
   7   5  -1   37.15    6.82
   7  -5  -1   42.86    5.22
   7  -5  -1   38.76    6.80
   7  -5   1   34.36    5.22
  -7  -5  -1   46.72    7.11
  -7  -5   1   43.98    7.04
   7   5   1   41.38    7.18
  -7  -6   1   40.83    7.61
  -7  -6  -1   30.67    6.41
   7  -6   1   35.84    5.66
   7   6   1   22.63    6.34
   7   6  -1   29.02    6.53
   7  -6  -1   34.99    5.16
  -7   0   2    1.11    1.30
   7   0   2   -0.57    1.06
   7   0  -2    0.95    1.82
   7   0   2   -0.40    1.84
   7  -1   2  337.88   10.52
   7   1   2  323.13    9.93
   7   1  -2  295.03   11.17
   7   1   2  323.44   11.63
   7  -1  -2  314.93   10.42
   7  -1  -2  322.86    9.56
   7  -1  -2  305.98    9.60
  -7  -1   2  311.43   10.90
   7  -1   2  329.49    9.29
   7  -2  -2   25.63    3.55
   7  -2   2   23.39    2.50
   7  -2  -2   23.31    3.62
  -7  -2  -2   23.89    2.33
  -7  -2  -2   27.16    3.68
   7  -2  -2   21.45    2.85
  -7  -2   2   22.32    3.84
   7   2  -2   21.15    4.15
   7  -2   2   17.79    3.08
   7   2   2   21.18    4.59
  -7  -3  -2  166.68    8.59
   7   3  -2  174.88    9.88
   7   3   2  176.50   10.47
   7  -3  -2  170.75    7.15
  -7   3   2  173.23    7.80
  -7   3  -2  178.05    5.41
  -7  -3   2  180.37   10.03
   7  -3  -2  164.87    9.37
   7  -3   2  173.71    8.56
  -7  -3  -2  190.06    6.57
   7  -4  -2    8.84    2.49
  -7  -4   2   10.69    3.82
   7  -4  -2   11.95    3.94
  -7  -4  -2   13.03    2.59
   7   4   2   12.96    4.71
   7  -4   2    9.63    3.05
  -7  -4  -2    7.23    3.06
   7   4  -2   12.56    4.22
  -7   4   2    9.38    2.81
  -7   5   2   24.43    4.29
   7  -5   2   20.61    4.57
  -7  -5   2   27.69    6.08
   7   5  -2   14.31    4.91
   7  -5  -2   25.63    5.84
   7  -5  -2   24.00    3.88
   7   5   2   16.08    5.54
  -7  -5  -2   23.14    5.07
   7  -6  -2   65.37    9.30
   7   6   2   72.73   10.18
   7  -6  -2   64.19    6.54
  -7  -6  -2   62.99    8.47
   7  -6   2   63.74    7.49
   7   6  -2   74.29    9.47
  -7  -6   2   60.05    9.14
  -7   0   3   -0.80    1.27
   7   0  -3   -0.01    1.90
   7   0  -3    0.66    1.20
   7   0   3    1.83    1.44
   7   0   3   -2.28    1.41
   7   1   3  143.11    7.86
   7  -1  -3  125.89    6.14
   7   1   3  138.38    6.17
   7   1  -3  151.15    7.93
  -7  -1   3  140.09    7.37
   7  -1  -3  137.69    7.11
   7  -1   3  136.08    5.57
   7  -1   3  132.69    6.54
   7  -2  -3  662.26   15.48
  -7  -2  -3  669.39   14.09
   7   2   3  683.92   19.84
   7   2  -3  663.95   19.08
  -7  -2   3  666.71   19.36
  -7  -2  -3  696.59   17.06
   7  -2  -3  655.94   17.73
   7  -2   3  691.89   18.04
   7  -2   3  681.97   13.18
   7  -2  -3  668.93   17.47
   7  -3   3   90.80    6.47
  -7  -3  -3  103.55    6.57
   7   3  -3  107.98    7.80
  -7  -3  -3   99.27    5.16
   7  -3  -3   96.04    7.25
  -7  -3   3   88.25    7.39
   7  -3  -3   94.26    5.13
  -7   3   3  101.81    6.34
   7   3   3   97.08    8.24
   7   4   3  109.32    9.43
   7  -4  -3  125.97    9.39
  -7  -4  -3  123.75    8.00
   7   4  -3  128.49    9.13
  -7  -4  -3  113.80    6.42
   7  -4  -3  124.88    6.20
  -7  -4   3  119.63    9.32
  -7   4   3  116.17    7.23
   7  -4   3  112.20    8.00
   7   5   3   -2.61    3.59
  -7  -5  -3    3.91    2.98
   7  -5  -3   -1.89    3.28
  -7  -5   3    1.16    3.06
   7  -5  -3    4.76    2.25
   7   5  -3   -2.48    2.82
  -7   5   3    6.41    2.74
   7  -5   3    4.81    3.20
  -7  -6  -3    8.30    4.03
   7  -6  -3    8.56    5.03
   7  -6   3    9.87    3.71
   7   6   3    5.51    5.01
   7   6  -3   18.95    5.82
  -7  -6   3    3.52    4.30
   7   0  -4    1.02    1.96
   7   0  -4   -0.24    1.25
  -7   0   4    2.69    1.62
   7   0   4    0.49    1.14
   7   0   4   -1.62    1.84
   7   1  -4  261.09   10.84
  -7  -1   4  268.50   10.80
   7  -1  -4  259.41    9.21
   7   1   4  271.62    9.00
   7  -1   4  275.20    8.32
   7  -1  -4  266.25   10.42
  -7   1   4  274.97    9.19
   7  -1   4  281.15    9.97
   7   1   4  272.68   10.99
   7   1  -4  274.40    5.77
  -7  -2  -4   77.46    4.21
   7  -2  -4   82.56    6.20
   7  -2  -4   85.95    4.62
   7  -2   4   82.09    3.16
   7   2   4   71.21    7.34
   7   2  -4   87.48    6.73
  -7  -2  -4   77.74    5.04
  -7  -2   4   70.55    7.21
   7  -2   4   64.61    5.29
   7  -2  -4   80.32    5.83
   7  -3  -4   69.51    7.41
   7  -3  -4   62.11    4.13
   7  -3   4   51.53    5.83
   7   3   4   56.80    7.34
  -7  -3  -4   64.26    5.21
   7   3  -4   48.53    6.21
  -7  -3  -4   62.59    4.37
  -7  -3   4   71.49    7.89
  -7   3   4   71.03    5.63
  -7   4   4    2.44    2.16
   7   4   4    1.60    3.68
   7  -4   4    2.07    2.59
   7  -4  -4    1.42    1.56
   7   4  -4    2.02    2.88
   7  -4  -4    1.03    2.86
  -7  -4  -4    0.06    1.49
  -7  -4   4    1.06    2.78
  -7  -4  -4    2.53    2.35
  -7  -5   4   10.02    4.45
   7  -5   4   21.74    4.79
   7   5   4   15.77    5.36
  -7   5   4   10.94    3.75
   7   5  -4   11.20    3.93
  -7  -5  -4   13.61    4.15
  -7  -5  -4    9.74    3.25
   7  -5  -4    9.73    4.61
   7  -6  -4    8.16    4.88
   7   6   4   10.57    5.52
   7  -6   4    8.55    3.82
  -7  -6   4   18.36    6.07
  -7   6   4   13.65    5.13
   7   6  -4   11.80    4.88
   7   0  -5   -2.87    1.13
   7   0   5   -0.63    1.25
   7   0  -5   -0.02    1.88
   7   0   5    0.39    2.16
  -7   0   5    0.55    1.73
   7  -1   5  177.53    8.02
   7  -1  -5  187.01    8.00
   7   1  -5  180.98    5.27
   7   1   5  187.84    9.30
  -7   1   5  165.97    7.39
   7   1  -5  181.64    9.12
  -7  -1   5  161.57    8.84
   7   1   5  177.36    7.16
   7  -1   5  173.44    6.68
   7  -1  -5  185.19    9.08
  -7  -2   5   21.89    4.28
   7  -2   5   16.92    3.46
   7   2   5   21.18    4.60
  -7  -2  -5   27.35    3.39
   7   2  -5   23.86    4.55
  -7   2   5   23.76    3.03
   7  -2  -5   26.66    4.42
  -7  -2  -5   24.13    3.37
   7  -2  -5   26.57    4.40
   7   3  -5  166.47    9.61
   7  -3   5  165.40    9.18
  -7  -3  -5  163.27    7.92
   7  -3  -5  174.97   10.13
   7  -3  -5  159.81    6.37
  -7   3   5  184.25    9.39
   7   3   5  171.64   10.90
  -7  -3   5  176.18   10.90
  -7  -3  -5  170.92    7.62
   7   4  -5    4.29    3.27
  -7  -4  -5    6.97    2.74
   7   4   5    8.91    4.49
  -7  -4  -5    6.51    2.63
   7  -4  -5    3.71    1.69
   7  -4   5    5.19    3.13
  -7   4   5    9.52    3.28
  -7  -4   5    2.79    3.06
   7  -4  -5    4.14    3.86
  -7   5   5   27.61    5.52
  -7  -5  -5    4.48    3.08
  -7  -5  -5    7.09    3.00
   7  -5  -5   -4.23    2.65
   7  -5   5    0.44    2.56
   7   5  -5    2.01    3.15
   7   5   5    3.13    4.41
  -7  -5   5    0.52    2.95
   7   6  -5   21.11    5.72
   7  -6   5   16.65    4.98
  -7   6   5   13.73    4.87
   7  -6  -5   12.85    5.61
  -7  -6   5   30.16    7.94
   7   6   5    9.26    5.72
   7   0  -6    0.86    1.46
   7   0  -6    1.20    2.26
   7   0   6   -0.26    1.98
   7   0   6   -1.02    1.22
  -7   0   6   -0.46    1.77
   7   1   6  109.43    7.74
   7  -1   6  118.34    5.62
   7  -1  -6  117.36    7.76
  -7  -1   6  120.86    8.01
   7   1   6  122.06    5.79
  -7   1   6  130.52    6.74
   7   1  -6  121.62    4.84
   7  -1   6  110.50    6.55
  -7  -1  -6  112.45    5.82
   7   1  -6  114.10    7.63
   7  -1  -6  109.47    6.59
   7  -2  -6  109.61    7.55
   7  -2  -6  126.40    8.05
   7   2   6  119.91    8.78
   7   2  -6  122.75    8.34
  -7  -2  -6  112.92    5.83
  -7  -2   6  122.69    8.91
  -7   2   6  116.20    5.94
   7  -2   6  124.60    7.57
  -7  -2  -6  117.97    6.08
  -7   3   6  684.44   20.62
  -7  -3  -6  672.23   17.75
  -7  -3   6  718.76   23.58
  -7   3   6  694.68   15.99
   7   3   6  667.01   23.00
  -7  -3  -6  713.95   18.11
   7   3  -6  694.77   20.85
   7  -3   6  702.24   20.91
   7  -3  -6  634.72   20.60
  -7   4   6    6.20    3.26
   7   4  -6    4.23    2.96
  -7  -4  -6    2.72    2.26
  -7  -4   6    6.09    3.79
   7   4   6    9.36    4.97
   7  -4   6    4.93    3.17
   7  -4  -6    4.31    3.19
  -7  -4  -6    4.91    2.51
  -7  -5  -6    0.01    2.18
  -7   5   6    3.01    3.13
   7   5   6   -0.74    4.09
   7   5  -6   -4.24    2.41
   7  -5   6    1.01    3.10
  -7  -5   6   -1.89    3.13
   7  -5  -6   -4.15    3.53
  -7   6   6   15.89    5.33
   7  -6  -6   16.70    5.85
   7   6   6    5.24    5.77
   7  -6   6   12.55    4.71
   7   6  -6   14.04    5.03
  -7  -6   6   23.57    7.37
   7   0  -7    0.22    1.75
   7   0   7    0.78    2.22
  -7   0   7    2.57    2.26
   7   0  -7    0.31    2.31
   7   0   7   -1.89    1.32
   7  -1  -7   45.57    5.06
   7   1   7   52.87    3.98
  -7   1   7   54.77    4.76
   7   1  -7   44.53    3.51
   7   1   7   52.86    6.31
  -7  -1   7   44.42    5.90
   7  -1   7   47.62    4.37
   7  -1  -7   37.00    5.63
  -7  -1  -7   43.36    4.52
   7   1  -7   49.43    6.17
   7  -1   7   48.62    5.19
  -7   2   7   75.30    5.07
   7   2  -7   75.49    7.62
   7   2   7   69.51    8.01
  -7  -2  -7   76.77    4.86
   7  -2  -7   78.26    8.01
   7  -2   7   86.59    6.55
   7  -2  -7   72.71    7.14
  -7  -2   7   75.95    8.26
  -7  -2  -7   77.40    5.24
  -7  -3   7   72.02    8.66
  -7   3   7   95.80    7.98
   7   3  -7   91.26    7.58
   7  -3   7   64.63    7.16
   7  -3  -7  105.16    8.51
  -7  -3  -7   89.40    6.08
  -7  -3  -7   81.81    5.51
   7   3   7   92.23   10.11
   7  -4  -7   12.45    4.33
   7   4  -7    6.46    3.79
  -7   4   7    6.96    3.77
  -7  -4   7    9.63    4.55
  -7  -4  -7    8.43    3.04
   7  -4   7    8.11    3.55
   7   4   7    4.53    4.23
  -7  -5  -7   12.47    3.95
  -7  -5   7   10.46    5.38
  -7   5   7   15.00    4.92
   7   5   7   10.33    6.51
   7   5  -7   16.56    4.91
   7  -5  -7   23.90    6.03
   7  -5   7   14.43    4.60
   7   0  -8    3.37    2.80
  -7   0   8    1.89    2.35
   7   0  -8    2.32    1.90
   7   0   8    1.11    2.48
   7   0   8   -1.11    1.15
  -7  -1  -8   79.29    5.46
   7   1   8   86.99    8.29
   7   1   8   75.01    4.79
   7  -1  -8   79.97    6.12
  -7  -1   8   74.72    7.95
   7  -1   8   80.79    5.28
  -7   1   8   67.85    5.52
   7  -1  -8   91.24    7.55
   7  -1   8   81.13    5.96
   7   1  -8   83.97    4.89
   7   1  -8   79.38    7.97
  -7  -2   8    1.40    2.69
   7   2  -8    1.29    2.57
   7  -2   8    3.37    2.47
   7  -2  -8    0.88    2.32
   7   2   8    0.50    3.54
  -7  -2  -8    0.82    1.27
  -7  -2  -8    4.20    2.25
  -7   2   8    2.14    2.00
   7  -2  -8   -2.70    2.44
  -7   3   8   45.41    6.74
  -7  -3  -8   52.02    5.97
   7  -3   8   43.22    6.18
   7   3   8   48.65    7.58
   7   3  -8   40.96    6.06
  -7  -3   8   33.43    6.71
   7  -3  -8   44.24    6.76
   7   4   8   -3.99    3.66
  -7  -4   8   -0.46    3.39
  -7  -4  -8    2.82    2.58
  -7   4   8    2.34    2.99
   7  -4   8   -1.16    2.65
   7  -4  -8    3.40    3.74
   7   4  -8    6.63    3.34
   7  -5   8    2.87    3.53
   7   5   8    9.97    6.05
  -7   5   8    4.56    3.86
  -7  -5   8   -0.43    4.31
   7   5  -8    3.77    3.79
   7  -5  -8   -0.24    3.85
  -7  -5  -8    5.54    3.46
   7   0   9    1.00    2.52
  -7   0   9   -1.62    2.11
   7   0  -9   -0.13    2.47
   7   0   9    0.21    1.55
   7   0  -9   -0.38    1.99
  -7  -1  -9  150.33    8.02
   7  -1  -9  141.45    8.33
   7   1  -9  142.31    6.78
  -7   1   9  148.32    8.20
  -7  -1   9  124.90    8.98
   7   1   9  155.84    6.90
   7   1   9  144.62    9.69
   7  -1  -9  142.30    9.98
   7  -1   9  142.02    8.02
   7   1  -9  140.03    9.45
  -7  -2  -9  237.22   10.44
   7   2   9  246.54   13.52
   7  -2  -9  248.95   11.86
   7   2  -9  233.56   12.12
   7  -2   9  217.93   10.97
  -7  -2   9  238.22   13.50
  -7  -2  -9  245.01    8.75
  -7   2   9  234.49   12.68
  -7  -3   9   33.59    6.67
  -7  -3  -9   26.46    4.67
   7  -3  -9   27.76    5.65
  -7   3   9   15.15    4.60
   7  -3   9   22.67    4.88
   7   3   9   21.05    5.93
   7   3  -9   22.99    4.97
  -7  -4   9   44.67    8.25
   7  -4   9   63.47    7.91
  -7  -4  -9   47.75    6.65
   7   4  -9   58.58    7.56
   7  -4  -9   51.77    7.99
   7   4   9   51.93    9.62
  -7   4   9   54.29    8.27
  -7  -5  -9   24.39    5.52
   7   5   9   24.66    8.03
   7   5  -9   26.11    5.81
   7  -5  -9   27.02    6.54
  -7   5   9   33.54    7.05
  -7  -5   9   25.52    7.34
   7  -5   9   21.20    5.68
  -7   0  10   -2.19    2.19
   7   0  10   -0.64    1.58
   7   0 -10    0.38    3.21
   7   0  10    1.38    2.72
   7   0 -10    1.81    2.32
   7   1  10  105.09    8.81
  -7  -1  10  109.38    8.70
  -7  -1 -10  112.24    7.51
   7  -1 -10  106.22    7.71
   7  -1 -10  126.35    9.61
   7   1  10  109.03    5.95
   7   1 -10  118.87    9.37
   7   1 -10  105.46    6.37
   7  -1  10  122.43    7.69
  -7   2  10   86.42    9.66
  -7  -2  10   96.15   10.21
  -7  -2 -10   90.71    6.75
   7  -2  10   99.93    7.73
   7   2 -10   83.36    8.92
   7  -2 -10   82.00    8.26
   7   2  10   78.75    9.44
  -7   3  10   24.26    5.78
   7   3 -10   29.13    5.56
  -7  -3 -10   23.62    4.70
   7  -3  10   14.59    4.18
   7  -3 -10   12.87    4.64
   7   3  10   31.52    7.08
  -7  -3  10   18.72    5.63
  -7   4  10   12.96    4.67
   7  -4 -10   13.99    5.02
   7  -4  10   27.30    5.66
   7   4 -10   16.68    5.14
   7   4  10   10.59    6.11
  -7  -4 -10   14.54    4.15
  -7  -4  10   16.03    6.13
   7   0 -11    0.30    2.18
   7   0  11    3.44    3.26
  -7   0 -11    0.02    1.98
  -7   0  11    5.44    3.18
   7   0 -11    2.55    3.37
   7   0  11    1.31    1.75
   7   1  11   20.21    5.53
  -7  -1 -11    7.88    3.03
  -7  -1  11   20.32    4.98
   7  -1  11   22.63    4.17
   7   1 -11   21.41    5.19
   7  -1 -11   30.13    6.34
   7  -1 -11   21.82    4.65
  -7   2  11   65.19    8.81
   7  -2  11   75.10    7.83
   7   2  11   77.71   10.01
   7  -2 -11   79.78    8.60
  -7  -2  11   89.18    9.96
   7   2 -11   84.21    9.57
  -7  -2 -11   89.02    7.21
   7  -3 -11  126.97   10.54
  -7  -3 -11   93.70    7.74
  -7  -3  11  129.75   13.26
  -7   3  11  123.39   12.59
   7   3  11  100.82   11.80
   7   3 -11  104.46    8.95
   7  -3  11   92.65    9.54
  -7  -4  11    2.14    4.76
   7  -4 -11    7.64    4.89
   7  -4  11    3.29    3.71
  -7   4  11    5.00    4.01
   7   4  11    1.33    4.73
  -7  -4 -11    7.34    3.48
   7   4 -11   11.41    4.38
   7   0 -12   -1.81    2.47
   7   0 -12   -2.22    2.66
   7   0  12    0.23    1.69
  -7   0 -12    4.90    2.85
   7  -1  12   17.76    3.80
  -7  -1 -12   10.60    3.56
   7   1 -12   20.73    5.37
  -7   1  12   21.55    5.83
   7   1  12   11.32    5.04
  -7  -1  12   22.84    5.45
   7  -1 -12   21.81    4.98
  -7   2  12   23.27    6.23
   7   2 -12    8.56    4.64
   7   2  12   15.59    5.67
  -7  -2  12   24.39    6.25
   7  -2 -12   29.09    5.92
  -7  -2 -12   14.14    4.11
   7  -2  12   19.98    4.80
   7   3  12   75.16   11.07
   7   3 -12   85.30    9.60
   7  -3 -12   74.82    9.29
  -7  -3 -12   72.80    8.52
  -7   3  12   75.70   10.46
   7  -3  12   65.17    8.28
  -7  -3  12   68.48   10.06
   7   0 -13   -0.14    2.93
  -7   0 -13   -1.47    2.65
  -7   0  13    3.34    3.78
  -7   1  13   37.65    7.49
   7   1 -13   35.00    6.88
  -7  -1 -13   33.64    5.73
   7  -1  13   39.91    5.74
   7   1  13   49.93    8.56
   7  -1 -13   44.67    6.84
   7   2 -13   15.22    5.48
   7   2  13   15.53    6.06
  -7   2  13   25.77    6.54
  -7  -2 -13    7.84    3.53
  -7  -2  13   16.88    5.39
   7  -2 -13   15.62    4.95
   8   0   0  526.81   14.13
   8   0   0  536.55   14.96
   8  -1   0   26.33    3.43
   8   1   0   33.53    4.74
   8  -1   0   25.72    3.53
  -8  -1   0   22.74    3.48
  -8  -2   0    7.54    2.58
   8  -2   0   11.08    2.41
   8   2   0    6.36    3.29
   8  -2   0   14.81    2.74
   8  -3   0  277.67   10.46
   8  -3   0  263.11    8.96
   8   3   0  281.33   13.17
  -8  -3   0  277.11   12.09
   8  -4   0   37.28    4.76
  -8  -4   0   48.33    6.70
   8   4   0   56.71    7.77
   8  -5   0    4.70    2.74
   8   5   0   17.04    5.19
  -8  -5   0   11.47    4.22
   8   6   0    9.45    5.33
   8  -6   0    3.92    2.82
  -8  -6   0   13.62    5.05
   8   0   1  199.40    7.98
   8   0  -1  216.56    9.09
  -8   0   1  222.12    8.66
   8   0   1  221.80    8.98
  -8  -1   1   39.91    4.57
  -8  -1  -1   37.49    4.28
   8   1  -1   30.90    4.58
   8   1   1   31.63    4.75
   8  -1   1   31.90    3.82
   8  -1  -1   41.31    4.16
   8  -1   1   30.71    3.76
   8  -1  -1   40.54    4.49
  -8  -2   1   64.59    6.52
   8  -2  -1   63.35    4.67
  -8  -2  -1   63.50    2.75
  -8  -2  -1   67.93    5.52
   8  -2  -1   64.10    4.71
   8   2  -1   68.77    7.28
   8  -2   1   58.42    4.80
   8  -2   1   57.79    4.01
   8   2   1   71.68    7.39
   8  -3  -1  544.81   17.39
   8  -3   1  565.43   13.23
   8   3   1  517.81   18.67
   8   3  -1  578.45   19.14
   8  -3   1  554.55   16.13
  -8  -3   1  513.67   17.90
   8  -3  -1  555.81   15.35
   8  -3  -1  563.85   14.85
  -8  -3  -1  563.40   17.74
   8   4   1  256.56   13.68
   8  -4  -1  265.49   10.52
  -8  -4  -1  236.48   12.23
   8  -4  -1  245.74   12.53
  -8   4   1  260.18    9.82
   8  -4   1  263.81   11.28
  -8  -4   1  253.70   13.04
   8   4  -1  292.37   14.12
  -8  -5   1  195.08   12.74
   8   5  -1  178.40   12.09
   8   5   1  209.51   13.29
  -8  -5  -1  165.22   11.05
   8  -5   1  197.04   10.31
   8  -5  -1  192.76    9.49
   8   6  -1   17.88    6.04
   8  -6   1   29.57    5.57
  -8  -6   1   34.02    7.23
  -8  -6  -1   31.36    6.83
   8  -6  -1   28.09    4.80
   8   6   1   19.55    6.48
  -8   0   2   99.41    5.80
   8   0   2   98.54    6.20
   8   0   2  101.71    5.70
   8   0  -2  102.54    6.52
   8  -1  -2  357.54   10.75
   8  -1   2  363.13   10.61
  -8  -1  -2  363.65   11.53
   8   1  -2  331.42   12.56
   8  -1  -2  365.16   11.07
   8  -1   2  328.50   11.06
   8  -1  -2  371.80   11.95
   8   1   2  369.25   13.19
  -8  -1   2  351.29   12.32
   8  -2  -2   11.25    2.27
   8   2  -2   13.94    3.93
   8  -2  -2   11.49    3.28
   8   2   2   10.02    3.81
  -8  -2  -2   14.10    2.96
   8  -2  -2   12.84    2.98
  -8  -2  -2   11.88    1.80
   8  -2   2   11.63    2.09
   8  -2   2   11.82    2.79
  -8  -2   2    9.95    3.14
   8  -3  -2   30.43    4.16
  -8  -3  -2   25.28    4.43
   8  -3  -2   27.24    4.67
   8  -3  -2   22.68    3.23
   8  -3   2   23.46    3.92
  -8  -3  -2   25.55    2.84
   8   3   2   29.10    5.69
  -8  -3   2   22.18    4.47
   8   3  -2   24.40    5.10
   8  -4  -2   94.31    9.25
   8  -4  -2  107.50    6.49
   8  -4   2  124.06    8.14
  -8  -4  -2  113.47    8.34
  -8   4   2  110.63    6.73
  -8  -4   2  110.28    9.02
   8   4  -2  116.77    9.21
   8   4   2  100.57   10.26
   8  -5  -2  173.39   11.89
  -8  -5  -2  188.31   11.50
   8  -5  -2  202.42    9.38
   8   5  -2  195.57   12.51
   8   5   2  196.83   13.23
  -8  -5   2  180.53   12.43
   8  -5   2  219.99   11.24
   8   6  -2   22.68    6.01
  -8  -6  -2   18.94    5.49
   8  -6  -2    7.63    4.92
   8  -6  -2   23.10    4.28
  -8  -6   2   17.65    5.93
   8   6   2   11.52    6.05
   8  -6   2   14.41    4.30
   8   0   3  827.22   19.72
   8   0  -3  829.71   16.14
   8   0   3  817.86   19.15
   8   0  -3  810.16   20.88
  -8   0   3  800.33   19.84
   8  -1  -3   14.35    2.78
   8  -1   3   11.64    2.64
   8   1   3   17.30    3.03
   8  -1   3    7.78    2.21
  -8  -1   3   11.29    3.04
   8   1  -3    9.61    3.16
   8  -1  -3   12.63    2.97
  -8   1   3   13.15    2.69
   8   1   3   16.26    3.66
   8  -2  -3   72.85    5.60
   8  -2   3   70.60    3.71
   8   2  -3   78.22    6.75
   8  -2  -3   75.63    4.71
   8  -2   3   74.90    5.80
   8  -2  -3   75.78    5.96
   8   2   3   65.90    7.23
  -8  -2  -3   75.59    3.85
  -8  -2   3   74.29    6.40
  -8  -2  -3   77.89    5.36
   8  -3   3   36.08    5.02
  -8  -3   3   41.82    6.21
  -8  -3  -3   31.89    4.68
   8   3  -3   37.94    5.90
   8  -3  -3   21.82    4.48
   8  -3  -3   32.10    4.63
   8   3   3   39.35    6.50
   8  -3  -3   40.15    4.12
  -8  -3  -3   39.55    3.86
  -8   4   3   44.66    5.52
   8  -4  -3   61.92    4.69
  -8  -4  -3   43.75    6.05
   8   4  -3   52.95    7.40
   8  -4   3   58.91    6.64
   8   4   3   38.12    6.89
   8  -4  -3   45.84    6.76
  -8  -4   3   49.00    7.48
  -8   5   3  178.22    9.65
   8  -5  -3  177.34    8.29
   8  -5   3  167.48   10.25
   8   5   3  185.90   13.40
  -8  -5   3  179.33   12.93
  -8  -5  -3  165.02   10.70
   8  -5  -3  167.67   12.16
   8   5  -3  179.95   11.74
   8  -6   3   58.14    7.65
   8  -6  -3   59.13    9.48
   8   6  -3   50.21    8.66
  -8  -6   3   60.89    9.98
  -8  -6  -3   65.78    8.76
   8   0   4   71.89    4.88
   8   0   4   63.69    5.14
   8   0  -4   70.79    5.95
   8   0  -4   60.42    3.74
  -8   0   4   65.81    5.20
  -8   1   4  333.71   11.10
   8   1   4  305.72   12.37
   8  -1   4  335.58   11.61
   8   1  -4  341.93   13.20
   8  -1   4  339.82   10.04
   8  -1  -4  329.37   10.75
  -8  -1   4  322.94   12.51
   8   1   4  339.69   10.84
   8  -1  -4  321.14   12.20
   8   2   4  116.24    8.56
  -8  -2   4   97.94    7.77
   8  -2  -4   99.89    5.43
   8   2  -4   95.31    7.40
   8  -2   4  106.25    4.23
   8  -2   4   97.39    6.61
   8  -2  -4  104.46    7.06
  -8  -2  -4  105.71    6.25
  -8  -2  -4  101.45    4.90
   8  -2  -4  114.70    7.31
   8  -3  -4   63.31    4.40
   8  -3  -4   54.27    6.38
   8   3  -4   61.47    7.27
   8   3   4   42.49    6.79
  -8  -3  -4   62.92    4.44
   8  -3   4   53.94    6.17
  -8  -3   4   50.86    6.93
  -8  -3  -4   70.33    5.62
   8  -3  -4   73.55    7.07
   8  -4   4  147.37    9.30
  -8  -4   4  157.57   11.57
   8  -4  -4  156.72    7.12
   8   4  -4  173.47   10.84
   8  -4  -4  173.52   10.99
  -8   4   4  148.81    8.81
   8   4   4  172.67   12.00
  -8  -4  -4  160.63    7.85
  -8  -4  -4  162.90    9.41
  -8  -5  -4    1.71    2.87
   8  -5  -4   -0.40    4.06
   8   5   4    4.68    4.82
  -8   5   4    2.64    2.67
  -8  -5   4    0.49    2.99
   8   5  -4    0.53    3.55
   8  -5   4    6.99    3.40
   8   6   4   -2.39    4.53
   8  -6   4    1.49    3.48
   8   6  -4    5.87    4.15
  -8  -6   4    2.05    4.04
   8  -6  -4    5.49    4.79
   8   0   5  109.84    6.06
   8   0  -5   96.26    7.07
  -8   0   5   99.55    6.54
   8   0  -5  109.56    5.22
   8   0   5   93.07    6.23
   8  -1  -5  264.67   11.57
   8   1  -5  279.96   11.93
   8   1   5  249.82    9.20
   8  -1   5  260.35    8.72
   8   1   5  262.25   11.65
   8  -1  -5  259.63    9.72
  -8   1   5  260.49    9.96
  -8  -1   5  266.13   11.64
   8  -1   5  263.80   10.44
   8  -2  -5   44.42    5.56
   8   2   5   31.01    5.70
  -8  -2  -5   37.73    4.42
   8  -2  -5   33.99    5.24
   8   2  -5   31.82    5.37
  -8  -2   5   39.02    5.94
   8  -2   5   33.43    4.80
  -8   2   5   31.73    3.77
  -8  -2  -5   39.76    4.04
  -8  -3  -5  105.74    6.84
  -8   3   5   92.28    7.00
   8  -3   5   90.38    7.17
   8   3  -5   89.78    7.63
   8  -3  -5  102.35    5.45
  -8  -3  -5   93.40    5.71
   8   3   5  100.44   10.39
  -8  -3   5  102.85    8.74
   8  -3  -5  100.61    8.29
  -8  -4  -5  119.66    7.26
  -8   4   5  110.99    7.96
   8   4   5  138.06   11.14
  -8  -4  -5  119.37    7.99
   8  -4   5  126.38    8.87
   8   4  -5  128.58    9.81
  -8  -4   5  120.14   10.26
   8  -4  -5  114.91    5.85
   8  -4  -5  117.77    9.61
   8   5   5   51.50    8.74
  -8  -5  -5   61.08    7.47
   8   5  -5   62.05    8.25
  -8  -5   5   51.07    9.00
   8  -5   5   45.77    6.91
  -8   5   5   59.89    7.51
   8  -5  -5   52.75    8.14
   8  -6   5   28.11    6.10
   8   6   5   26.70    7.79
   8   6  -5   20.35    6.19
  -8  -6   5   28.38    7.67
   8  -6  -5   17.04    6.62
  -8   6   5   25.03    8.74
  -8   0   6    1.37    2.02
   8   0  -6    4.17    2.03
   8   0   6   -1.28    2.27
   8   0   6    3.31    1.73
   8   0  -6    4.03    2.75
  -8  -1   6  166.75    9.65
   8   1   6  152.31    9.15
   8  -1   6  152.53    7.92
   8  -1   6  155.55    6.76
   8   1   6  157.72    7.13
   8  -1  -6  161.55    9.30
  -8   1   6  149.26    7.82
   8  -1  -6  148.35    7.58
  -8  -1  -6  153.07    6.86
   8   1  -6  147.44    9.03
  -8  -2  -6   68.48    4.95
   8  -2   6   72.83    6.14
   8   2   6   78.27    8.34
   8  -2  -6   65.12    7.15
  -8  -2   6   90.49    7.78
   8   2  -6   72.73    8.00
  -8  -2  -6   63.37    4.58
  -8   2   6   74.51    5.25
   8  -2  -6   71.12    7.00
  -8   3   6   29.23    3.57
   8  -3  -6   20.98    4.90
   8   3  -6   24.90    5.44
  -8   3   6   24.13    4.69
  -8  -3   6   39.25    6.58
  -8  -3  -6   29.97    4.41
   8  -3   6   19.20    4.13
   8   3   6   27.66    6.23
  -8  -3  -6   25.49    3.92
   8   4   6   76.04    9.86
  -8   4   6   65.22    7.92
   8  -4   6   69.14    7.85
   8   4  -6   61.63    7.80
   8  -4  -6   84.89    9.58
  -8  -4  -6   69.70    6.21
  -8  -4   6   63.85    9.09
  -8  -4  -6   70.32    6.87
  -8  -5   6   69.86   10.56
   8   5  -6   46.24    7.30
  -8   5   6   49.25    7.35
   8  -5  -6   52.09    8.48
   8   5   6   47.38    9.03
   8  -5   6   51.26    7.76
  -8   0   7  246.88   11.20
   8   0  -7  253.48   12.04
   8   0  -7  253.04    9.08
   8   0   7  237.16   10.20
   8   0   7  245.51    9.62
   8  -1   7   81.79    5.20
  -8  -1   7   89.94    7.36
  -8  -1  -7   74.28    5.17
   8   1   7   71.46    4.92
   8   1   7   70.78    7.24
   8   1  -7   71.09    7.56
  -8   1   7   78.77    6.00
   8  -1  -7   72.02    7.71
   8  -1   7   63.56    5.57
   8  -1  -7   84.60    6.23
   8  -2  -7   58.97    7.25
   8   2  -7   35.25    5.73
   8  -2  -7   63.89    6.94
   8  -2   7   75.46    6.44
  -8  -2   7   42.45    6.55
  -8  -2  -7   59.37    4.60
  -8  -2  -7   59.41    4.75
   8   2   7   51.49    7.06
  -8   2   7   50.82    5.16
  -8  -3  -7  175.64    8.70
   8  -3  -7  173.24   10.74
   8  -3   7  213.26   11.15
  -8   3   7  180.90   10.75
   8   3  -7  180.82   10.96
  -8  -3   7  187.31   12.57
  -8  -3  -7  191.61    8.87
   8   3   7  215.12   13.04
  -8  -4  -7   29.52    4.94
   8   4   7   21.04    6.49
   8  -4   7   20.14    4.83
  -8  -4   7   11.49    5.06
   8   4  -7   21.31    5.18
  -8   4   7   22.36    5.10
   8  -4  -7   21.96    5.51
   8   5  -7   76.41    9.34
   8  -5   7   80.91    9.32
  -8  -5  -7   92.13   12.17
  -8   5   7   89.17    9.88
   8  -5  -7   85.42   11.01
   8   5   7   85.65   11.74
  -8  -5   7  106.19   13.27
   8   0   8  113.22    6.59
   8   0  -8  122.78    6.84
   8   0   8  117.71    7.74
   8   0  -8  130.62    9.08
  -8   0   8  135.49    8.69
  -8   1   8  108.43    7.26
   8  -1  -8  130.45    7.96
   8  -1   8  117.07    7.46
  -8  -1  -8  119.94    6.84
   8   1   8  116.98    6.33
   8  -1  -8  115.66    8.72
   8   1   8  130.52    8.89
   8   1  -8  137.59    9.38
  -8  -1   8  110.86    8.86
  -8  -2  -8   26.03    3.69
   8  -2  -8   29.00    5.15
   8   2   8   22.76    5.35
   8  -2  -8   22.24    5.04
  -8   2   8   29.19    4.10
  -8  -2  -8   21.48    3.67
   8   2  -8   30.64    5.65
  -8  -2   8   24.93    5.98
   8  -2   8   22.89    4.68
  -8  -3  -8    8.78    2.84
   8  -3  -8    4.77    3.16
   8   3  -8    7.40    4.09
   8   3   8    2.70    4.39
  -8  -3   8    9.53    4.60
  -8   3   8    8.97    3.76
   8  -3   8    4.67    2.85
  -8  -3  -8    9.23    3.03
   8   4  -8   36.16    6.51
  -8   4   8   40.66    6.87
   8   4   8   33.75    7.57
  -8  -4   8   35.04    7.53
   8  -4  -8   31.64    6.46
   8  -4   8   32.23    5.91
  -8  -4  -8   38.39    5.81
   8   5   8   93.25   12.36
  -8   5   8   64.04    9.17
   8  -5   8   61.51    8.51
  -8  -5  -8   68.61    8.05
   8  -5  -8   65.09    9.71
  -8  -5   8   77.80   11.44
   8   5  -8   63.91    8.68
   8   0   9   43.28    5.83
   8   0   9   61.68    5.12
   8   0  -9   52.63    5.34
   8   0  -9   57.97    7.51
  -8   0   9   58.13    7.00
  -8  -1   9   80.80    8.70
  -8   1   9   86.07    6.87
   8  -1  -9   97.65    9.92
   8   1   9   98.33    8.36
  -8  -1  -9   80.21    6.09
   8   1   9   95.00    5.72
   8   1  -9   75.47    8.55
   8  -1  -9  100.24    7.20
   8  -1   9   90.75    6.76
  -8  -2   9   29.79    6.02
   8  -2  -9   31.49    5.62
   8  -2  -9   48.27    7.53
   8   2   9   26.86    6.22
  -8  -2  -9   42.66    4.68
   8  -2   9   31.97    5.33
   8   2  -9   42.95    7.01
  -8  -2  -9   47.72    5.59
  -8  -3  -9   46.93    6.00
   8   3   9   26.64    6.65
  -8  -3   9   32.85    6.69
   8  -3  -9   45.73    6.97
   8  -3   9   46.27    6.62
  -8   3   9   48.29    7.61
   8   3  -9   51.86    7.39
   8  -4  -9   61.44    9.14
  -8  -4  -9   56.66    7.24
   8   4   9   44.81    8.73
  -8  -4   9   62.60    9.82
  -8   4   9   53.59    8.36
   8  -4   9   65.10    8.41
   8   4  -9   63.07    8.47
   8   0  10  219.27   10.98
   8   0 -10  224.12   10.07
   8   0  10  214.03    9.57
   8   0 -10  251.07   13.44
  -8   0  10  212.62   11.69
   8  -1 -10   36.42    5.44
   8   1  10   27.17    5.65
  -8  -1  10   28.56    5.71
  -8  -1 -10   26.20    4.56
   8   1 -10   30.02    5.87
   8  -1 -10   23.18    5.65
   8   1  10   30.15    4.02
   8  -1  10   26.30    4.53
   8  -2 -10   62.87    7.67
  -8  -2  10   44.63    7.47
  -8  -2 -10   40.49    5.56
   8   2  10   56.83    8.19
   8  -2  10   48.60    6.31
   8   2 -10   45.47    7.00
  -8   2  10   57.95    8.39
   8  -3 -10  141.56   10.64
  -8   3  10  116.47   11.83
  -8  -3  10  140.36   11.97
   8  -3  10  131.27    9.57
   8   3  10  118.00   12.62
   8   3 -10  122.75   10.21
  -8  -3 -10  133.33    8.75
  -8  -4 -10   80.42    8.82
  -8   4  10   91.66   10.94
   8  -4  10   92.05    9.96
   8   4 -10   99.38   10.48
   8   4  10   85.92   11.68
  -8  -4  10   89.68   11.81
   8  -4 -10   77.37   10.13
   8   0  11   15.30    3.25
   8   0 -11   16.32    5.02
  -8   0 -11   11.98    3.35
  -8   0  11    7.76    4.00
   8   1 -11   15.17    4.83
  -8  -1  11   22.09    5.55
  -8  -1 -11   14.05    3.93
   8  -1 -11   19.88    5.24
   8  -1 -11   23.23    4.80
   8   1  11   13.64    4.92
   8  -1  11    9.77    3.24
  -8  -2 -11   16.07    3.97
   8  -2 -11   18.10    4.85
  -8   2  11   14.89    5.23
   8   2  11   16.80    6.26
  -8  -2  11   19.37    6.06
   8  -2  11   11.92    3.46
   8   2 -11   13.20    4.84
   8   3  11   54.47    9.17
  -8  -3  11   45.50    8.13
   8  -3 -11   70.72    9.37
   8   3 -11   73.54    9.44
   8  -3  11   57.16    7.76
  -8  -3 -11   49.40    6.84
  -8   3  11   59.94    9.21
  -8   0 -12   12.52    3.67
   8   0 -12   17.12    5.62
   8   0  12   11.43    3.22
  -8  -1  12    7.40    3.94
   8  -1  12    2.92    2.27
   8  -1 -12   -0.94    2.77
  -8   1  12    2.14    3.50
  -8  -1 -12    4.58    2.92
   8   1 -12   -1.67    3.39
   8   1  12    4.68    4.13
   8   2 -12    5.37    4.28
  -8   2  12    8.59    4.63
   8  -2  12    3.68    2.98
  -8  -2  12    8.14    4.50
   8   2  12    4.32    4.92
   8  -2 -12   10.91    4.36
  -8  -2 -12    5.44    3.07
  -8   0 -13   82.40    8.56
   8   0 -13   93.58   11.12
   9   0   0   -0.11    1.32
   9   0   0    1.80    2.11
   9  -1   0   76.98    5.27
   9   1   0   87.61    6.80
  -9  -1   0   79.97    5.80
   9  -1   0   85.89    5.74
   9  -2   0   10.85    2.58
   9   2   0   16.23    4.36
  -9  -2   0    6.24    2.64
   9  -2   0    6.07    2.39
  -9  -3   0  151.96    9.41
   9   3   0  163.17   10.93
   9  -3   0  164.50    7.27
   9  -3   0  172.95    8.46
   9   4   0   44.39    7.24
  -9  -4   0   39.04    6.60
   9  -4   0   42.71    5.22
   9   5   0   21.86    6.21
  -9  -5   0   24.43    6.14
   9  -5   0   16.26    4.03
  -9  -6   0   50.71    8.90
   9  -6   0   52.46    6.91
   9   6   0   36.60    7.94
   9   0   1   -1.27    2.02
   9   0   1    2.16    1.82
   9   0  -1    2.26    2.14
  -9   0   1    0.87    1.56
   9  -1   1    0.06    1.72
   9  -1  -1    1.06    2.01
   9  -1   1    2.07    1.74
   9   1  -1    2.95    2.75
   9   1   1    2.95    2.88
  -9  -1   1    1.15    1.67
   9  -1  -1    3.84    1.81
  -9  -1  -1   -0.35    1.44
   9  -2   1  277.23   10.58
  -9  -2   1  275.58   11.91
   9   2  -1  262.47   12.34
   9  -2   1  269.13    9.13
   9   2   1  261.54   12.43
   9  -2  -1  268.67   10.02
   9  -2  -1  262.63    9.87
  -9  -2  -1  244.41   10.81
   9  -3   1   16.07    3.49
  -9  -3   1   19.62    4.50
   9  -3   1   18.97    2.88
  -9  -3  -1   24.65    4.93
   9  -3  -1   16.42    3.19
   9   3   1   11.35    4.34
   9  -3  -1   16.32    3.18
   9   3  -1   18.48    4.84
   9   4   1   58.73    8.30
  -9  -4   1   67.63    8.55
   9   4  -1   57.44    8.15
  -9   4   1   60.97    5.02
   9  -4   1   50.30    5.91
   9  -4  -1   50.83    5.43
  -9  -4  -1   59.46    7.67
   9  -5   1    5.92    3.40
  -9  -5   1   10.64    4.66
   9  -5  -1    4.60    2.79
   9   5  -1    1.03    3.76
   9   5   1    9.48    4.74
  -9  -5  -1   14.23    4.66
   9   6  -1   52.21    8.82
  -9  -6  -1   55.98    8.83
   9   6   1   53.49    9.25
   9  -6  -1   40.64    5.72
   9  -6   1   52.84    6.90
  -9  -6   1   39.62    8.10
   9   0   2   -1.27    1.19
   9   0  -2    3.10    2.26
  -9   0   2   -3.02    1.13
   9   0   2    3.01    2.14
  -9  -1  -2   57.95    4.83
   9   1   2   51.60    6.10
   9  -1  -2   52.78    4.40
   9  -1  -2   57.50    5.71
   9   1  -2   44.48    5.87
   9  -1   2   60.52    4.75
   9  -1   2   69.42    5.15
  -9  -1   2   48.45    5.46
   9  -2  -2   33.39    4.11
   9  -2   2   35.04    3.66
   9  -2  -2   27.58    4.13
   9  -2   2   23.62    3.77
  -9  -2  -2   29.84    2.34
   9   2  -2   32.26    5.49
  -9  -2   2   28.09    4.79
   9  -2  -2   26.96    4.27
   9   2   2   22.02    5.15
  -9  -2  -2   35.06    4.79
  -9  -3  -2   71.84    7.39
   9   3  -2   63.68    7.83
   9  -3  -2   62.52    5.04
   9  -3  -2   63.57    6.77
  -9  -3   2   60.60    7.41
   9  -3  -2   71.09    5.54
   9   3   2   77.62    8.80
   9  -3   2   71.23    5.96
   9   4   2   39.81    7.10
   9  -4  -2   38.98    6.55
   9  -4   2   31.19    5.27
  -9  -4  -2   28.25    5.44
  -9  -4   2   51.52    7.75
   9   4  -2   42.24    7.01
  -9   4   2   34.09    4.66
   9  -4  -2   28.54    4.08
   9   5  -2   52.22    8.30
   9  -5   2   66.23    7.67
  -9  -5   2   65.97    9.25
  -9  -5  -2   73.31    9.18
   9   5   2   49.36    8.85
   9  -5  -2   61.09    8.49
   9  -5  -2   75.90    6.09
  -9  -6  -2   24.74    6.44
   9  -6   2   14.71    4.47
   9  -6  -2   23.11    4.61
  -9  -6   2   20.77    6.84
   9   6  -2   18.71    6.58
   9   6   2   11.57    6.67
   9   0  -3    1.74    2.18
   9   0   3   -0.16    1.32
   9   0   3    1.84    2.16
  -9   0   3    1.05    1.70
   9   1   3   15.65    3.01
   9  -1   3   13.90    3.05
   9  -1  -3    7.27    2.72
  -9  -1   3   18.64    3.86
   9   1   3   12.69    3.59
   9  -1  -3   12.39    2.86
   9  -1   3   11.68    2.72
  -9   1   3   13.62    3.07
   9   1  -3   12.33    3.90
  -9  -2   3  539.70   18.43
   9   2  -3  549.15   18.26
   9  -2  -3  517.16   16.12
   9  -2   3  523.17   12.57
  -9  -2  -3  504.47   15.68
   9  -2   3  509.15   16.02
  -9  -2  -3  527.96   11.96
   9   2   3  523.00   18.29
   9  -2  -3  521.08   14.51
   9  -2  -3  543.02   16.11
   9  -3  -3   97.02    6.63
   9  -3  -3   96.94    5.76
   9   3   3   84.88    9.36
  -9  -3  -3   96.92    7.25
  -9  -3   3  100.15    8.40
   9   3  -3   82.20    8.81
   9  -3  -3  100.82    8.00
   9  -3   3   96.69    7.01
   9  -4  -3   42.63    4.83
  -9  -4   3   40.34    6.99
   9   4   3   34.94    6.85
  -9  -4  -3   51.52    6.92
   9  -4  -3   46.12    7.09
   9  -4   3   45.60    6.26
   9   4  -3   42.70    6.88
  -9   4   3   53.33    6.12
  -9  -5   3   16.28    5.51
  -9  -5  -3   19.81    4.89
   9  -5   3   14.00    4.34
   9  -5  -3    7.40    4.75
   9   5  -3   13.23    5.32
   9   5   3   12.44    5.10
   9  -5  -3   19.46    3.56
   9  -6   3   43.19    6.59
  -9  -6   3   41.68    8.84
   9   6   3   46.58    9.25
   9   6  -3   45.62    8.31
   9  -6  -3   41.38    8.15
  -9  -6  -3   56.11    8.32
   9   0   4   -0.61    1.20
  -9   0   4    0.21    1.81
   9   0  -4   -1.20    1.35
   9   0  -4    0.34    2.13
   9   0   4    4.13    2.34
   9  -1   4   37.92    4.15
   9  -1   4   32.56    4.33
   9   1  -4   32.73    5.34
   9  -1  -4   27.94    4.53
   9  -1  -4   38.73    4.35
   9   1   4   40.12    4.56
  -9   1   4   29.87    4.16
  -9  -1   4   30.18    4.74
   9   1   4   24.45    4.71
  -9   2   4  285.20   10.44
   9  -2   4  315.80   12.10
   9   2   4  302.91   13.74
  -9  -2  -4  265.75    8.41
  -9  -2  -4  263.34   10.79
   9   2  -4  305.27   13.37
   9  -2  -4  290.40   11.58
  -9  -2   4  295.89   13.52
   9  -2  -4  277.14   11.86
  -9  -3   4  166.53   10.87
   9   3   4  129.69   10.18
   9  -3   4  154.51    9.09
   9  -3  -4  137.46    9.29
  -9  -3  -4  142.15    6.64
   9  -3  -4  160.19    7.28
   9  -3  -4  132.81    8.24
   9   3  -4  140.32    9.76
  -9  -3  -4  123.75    8.05
  -9  -4   4   52.47    8.10
  -9  -4  -4   46.37    6.61
  -9   4   4   61.62    6.93
   9  -4   4   43.56    6.16
   9   4  -4   50.09    7.77
   9   4   4   49.77    8.43
   9  -4  -4   45.24    7.23
   9  -4  -4   45.45    4.73
  -9  -5  -4    4.25    3.44
   9   5  -4    1.01    3.67
   9  -5   4    4.38    3.13
   9  -5  -4    4.44    4.31
   9   5   4    4.80    5.14
  -9  -5   4    8.12    4.87
  -9   5   4    3.62    2.71
   9  -6   4   69.51    8.56
   9  -6  -4   64.57    9.85
   9   0  -5    1.85    2.36
  -9   0   5   -1.04    1.80
   9   0   5    1.81    1.58
   9   0  -5    3.41    1.68
   9   0   5    0.81    2.10
   9   1   5  175.58    8.04
   9   1   5  187.34    9.92
   9   1  -5  193.28   10.35
  -9  -1   5  174.58    9.86
  -9   1   5  195.76    9.05
   9  -1  -5  183.76    9.86
   9  -1  -5  171.30    8.08
   9  -1   5  191.81    7.84
   9  -1   5  174.97    8.67
  -9  -2   5  518.10   19.33
  -9   2   5  572.05   15.91
  -9  -2  -5  544.26   14.01
   9  -2  -5  557.38   18.03
   9   2   5  593.20   19.97
  -9  -2  -5  562.98   16.32
   9   2  -5  606.29   19.78
   9  -2   5  573.62   17.73
   9  -2  -5  571.82   17.51
   9   3  -5   34.23    6.19
   9  -3  -5   19.48    4.45
   9  -3  -5   18.89    4.45
  -9   3   5   19.95    3.44
  -9  -3  -5   24.04    4.24
   9   3   5   18.14    5.38
   9  -3   5   15.98    4.03
  -9  -3  -5   23.12    3.48
  -9  -3   5   21.13    5.30
   9  -4   5  181.92   10.85
   9   4  -5  185.21   12.03
  -9  -4   5  166.59   12.36
   9   4   5  161.72   12.41
  -9   4   5  170.39   10.13
   9  -4  -5  164.16   11.40
  -9  -4  -5  168.19    9.82
   9  -4  -5  153.04    7.28
   9  -5   5    5.53    3.45
   9   5   5    0.76    4.65
   9   5  -5   -3.11    2.98
  -9  -5   5    5.40    4.56
   9  -5  -5   -0.88    3.69
  -9   5   5    1.78    2.81
  -9  -5  -5    2.23    3.19
   9   0  -6   -0.84    2.09
   9   0  -6    1.01    1.90
   9   0   6   -0.77    2.07
  -9   0   6    0.84    2.05
   9   0   6    1.19    1.66
   9  -1   6   38.01    4.92
  -9  -1  -6   39.62    4.24
   9   1  -6   30.39    5.35
   9  -1  -6   40.60    6.21
   9   1   6   34.40    4.30
   9  -1   6   41.09    4.33
  -9  -1   6   32.83    5.71
   9  -1  -6   40.97    4.91
  -9   1   6   25.69    4.21
   9   1   6   38.41    5.75
   9  -2  -6   49.13    6.68
   9  -2   6   45.46    5.64
  -9  -2   6   66.01    7.93
  -9   2   6   48.00    5.09
   9   2   6   47.67    6.99
  -9  -2  -6   49.81    4.16
  -9  -2  -6   54.64    4.68
   9  -2  -6   50.14    6.14
   9   2  -6   43.16    6.51
   9   3   6    1.44    3.43
   9   3  -6    0.31    3.02
  -9   3   6    1.19    2.66
  -9  -3   6   -0.29    2.73
  -9  -3  -6    1.54    1.67
  -9   3   6    1.01    1.84
  -9  -3  -6   -1.75    1.37
   9  -3  -6   -1.04    2.94
   9  -3   6   -0.02    2.38
   9   4  -6    0.73    3.43
  -9  -4  -6    4.79    2.80
   9  -4   6    6.08    3.35
  -9  -4   6    0.21    3.59
   9  -4  -6    0.80    4.08
  -9   4   6    4.44    3.17
   9   4   6    4.12    4.67
  -9   5   6   14.51    4.46
   9   5   6    8.92    5.75
  -9  -5   6   21.04    6.32
   9  -5  -6    7.50    5.20
   9  -5   6   20.75    5.13
   9   5  -6   16.62    5.29
   9   0   7   -2.33    2.01
  -9   0   7    1.00    2.05
   9   0   7   -1.49    1.20
   9   0  -7    0.04    2.56
   9  -1  -7   59.49    5.94
   9   1   7   60.39    4.75
   9  -1  -7   48.65    6.74
  -9  -1  -7   46.28    4.81
  -9  -1   7   56.53    7.25
   9  -1   7   47.55    5.60
  -9   1   7   50.00    5.75
   9   1  -7   52.23    6.84
   9   1   7   64.16    7.03
  -9   2   7  141.62    7.86
   9   2   7  132.53    9.89
   9  -2  -7  129.69    9.29
   9  -2  -7  138.47    8.89
  -9  -2  -7  148.62    7.64
  -9  -2  -7  136.62    7.15
  -9  -2   7  159.71   10.93
   9  -2   7  140.86    8.74
   9   2  -7  142.15    9.89
  -9  -3   7   15.73    5.10
   9  -3  -7    9.70    4.20
   9   3   7   11.40    4.88
   9  -3   7    7.58    3.51
   9   3  -7   10.50    4.33
  -9  -3  -7   10.54    2.95
  -9  -3  -7   16.47    3.53
  -9   3   7   19.11    4.76
   9   4   7    7.49    4.93
  -9  -4  -7    4.04    2.66
  -9   4   7    5.56    3.23
   9  -4   7    7.02    3.81
  -9  -4   7   13.15    5.33
   9  -4  -7    5.41    4.37
   9   4  -7    2.76    4.08
  -9   5   7    5.71    3.94
   9   5   7   10.75    6.45
  -9  -5   7   11.72    5.62
   9  -5   7    1.19    2.98
   9  -5  -7    6.91    4.61
   9   5  -7    9.56    4.70
   9   0   8    3.12    1.91
  -9   0   8   -0.46    2.10
   9   0  -8    4.12    3.20
   9   0   8   -0.12    2.46
   9   1  -8   49.51    7.22
   9  -1   8   42.88    5.50
   9   1   8   60.88    7.42
   9   1   8   61.96    5.01
  -9  -1  -8   61.64    4.99
   9  -1  -8   56.83    7.49
  -9  -1   8   59.66    7.54
   9  -1  -8   58.54    6.22
  -9   1   8   58.01    6.42
   9  -2   8    2.40    2.49
   9  -2  -8    2.88    3.00
   9   2  -8   12.32    4.12
  -9  -2   8   16.54    5.13
   9  -2  -8    7.27    3.74
  -9  -2  -8   10.28    2.79
   9   2   8    4.24    3.94
  -9   2   8    4.19    2.86
  -9  -2  -8    7.95    2.45
   9  -3   8  109.83    8.77
   9   3  -8  122.20   10.01
  -9   3   8  108.90    9.23
  -9  -3  -8  115.02    7.34
  -9  -3  -8  114.11    7.47
   9   3   8  115.14   11.98
   9  -3  -8  145.78   10.40
  -9  -3   8  167.95   12.54
  -9  -4   8   25.06    6.70
   9  -4   8   23.96    5.35
  -9   4   8   36.49    6.83
   9   4  -8   28.55    6.17
   9  -4  -8   30.60    6.90
  -9  -4  -8   35.83    5.53
   9   4   8   32.77    8.16
   9   0   9   -3.02    2.29
   9   0  -9   -3.89    2.23
  -9   0   9   -0.08    2.47
   9   0   9   -0.17    1.61
  -9   1   9    0.80    2.57
   9   1   9    3.95    2.00
   9   1  -9   -0.51    2.66
   9  -1   9   -1.75    1.41
  -9  -1  -9    1.14    1.95
  -9  -1   9   -2.89    2.22
   9  -1  -9    0.93    3.26
   9  -1  -9    0.12    2.76
   9   1   9    1.30    3.37
  -9  -2   9   17.23    5.28
   9  -2  -9   13.95    4.61
   9   2   9   17.62    5.48
  -9  -2  -9   27.45    4.45
  -9  -2  -9   17.11    3.39
   9   2  -9   20.39    5.31
   9  -2   9   20.15    4.40
   9  -2  -9   18.64    4.62
   9   3   9    8.66    4.97
   9   3  -9   13.45    4.62
   9  -3  -9   19.46    5.43
  -9   3   9   14.87    5.44
  -9  -3   9   10.67    5.05
  -9  -3  -9   11.55    3.42
   9  -3   9   11.04    3.93
   9  -4  -9   20.58    5.97
  -9  -4  -9   33.39    5.70
  -9  -4   9   29.33    7.63
   9   4  -9   20.64    5.83
   9  -4   9   32.18    6.64
  -9   4   9   25.57    6.24
   9   4   9   29.61    7.68
   9   0  10   -2.48    1.37
  -9   0  10    1.31    2.86
   9   0 -10    2.93    3.36
   9  -1  10   32.77    5.15
   9   1  10   32.50    4.39
  -9  -1  10   37.56    6.83
  -9  -1 -10   22.92    4.31
   9  -1 -10   14.92    5.00
   9  -1 -10   31.65    5.32
   9   1  10   28.17    5.91
   9   1 -10   30.08    6.15
   9  -2 -10   13.62    4.56
   9   2 -10   19.34    5.05
   9   2  10   11.75    4.89
  -9  -2 -10   17.92    3.94
  -9   2  10   23.39    5.82
   9  -2  10   22.40    4.63
  -9  -2  10   17.10    5.21
   9   3  10   20.39    6.48
  -9   3  10   28.27    6.92
   9  -3 -10   23.69    5.98
   9   3 -10   25.90    6.16
   9  -3  10   21.27    5.00
  -9  -3 -10   24.65    4.81
  -9  -3  10   17.47    5.81
   9   0 -11   -4.17    2.39
  -9   0 -11   -1.18    1.93
   9   0  11   -2.26    1.60
  -9  -1 -11   22.33    4.51
   9  -1  11   30.36    5.09
  -9  -1  11   48.15    7.30
   9   1 -11   30.82    6.48
   9  -1 -11   31.93    6.82
   9   1  11   37.97    6.87
   9  -2  11  298.80   13.79
   9   2 -11  255.46   14.77
  -9   2  11  274.47   16.13
  -9  -2  11  285.02   16.57
   9  -2 -11  260.12   13.95
  -9  -2 -11  261.91   12.28
   9   2  11  283.94   16.01
   9  -3 -11    7.48    4.23
  -9  -3 -11    6.47    3.23
   9   0  12   -2.76    1.57
  -9   0 -12   -1.48    2.19
   9   0 -12    1.23    4.02
   9  -1 -12   22.91    6.37
  -9  -1 -12   20.11    4.41
   9   1 -12   25.80    6.39
   9  -1  12   20.45    4.48
  -9  -1  12   25.28    6.17
 -10   0   0   44.05    5.13
  10   0   0   47.88    5.80
  10  -1   0   38.78    4.61
  10   1   0   25.21    4.67
  10  -1   0   37.76    4.74
 -10  -1   0   38.00    5.15
  10  -2   0    9.35    2.92
  10  -2   0   12.76    2.90
  10   2   0    7.89    3.92
 -10  -2   0    9.23    3.24
  10   3   0  261.62   13.69
  10  -3   0  266.72   11.00
 -10  -3   0  257.07   12.85
  10  -3   0  262.98    9.88
  10  -4   0   16.52    3.60
 -10  -4   0   21.61    5.36
  10   4   0   13.82    5.11
  10   5   0  198.46   13.70
  10  -5   0  207.05   10.97
 -10  -5   0  189.70   13.26
  10   0  -1  202.10    9.91
  10   0   1  224.98    9.50
  10   0   1  217.37    9.84
 -10   0   1  199.50    9.40
  10  -1  -1    1.38    1.97
  10  -1   1    6.48    2.40
  10  -1  -1    4.92    2.08
  10   1   1   11.28    3.88
  10  -1   1    3.60    1.97
  10   1  -1    3.15    3.24
 -10  -1   1    4.85    2.37
 -10  -1  -1    6.51    2.47
  10  -2  -1  186.80    8.58
  10   2  -1  176.90   10.74
 -10  -2   1  167.77    9.89
 -10  -2  -1  187.24    9.82
  10  -2  -1  187.10    8.69
  10  -2   1  185.90    8.03
  10   2   1  172.51   10.52
  10  -2   1  191.91    9.03
  10  -3  -1  126.15    7.13
  10   3  -1  119.51    9.68
  10  -3  -1  127.45    7.37
  10  -3   1  130.12    7.98
  10   3   1  122.05    9.90
 -10  -3   1  130.22    9.36
 -10  -3  -1  127.22    9.06
  10   4   1   71.13    9.38
 -10  -4  -1   83.84    9.56
 -10  -4   1   86.65    9.91
  10  -4  -1   75.13    6.04
  10   4  -1   75.75    9.48
  10  -4   1   84.96    6.95
  10   5  -1   77.20   10.41
  10  -5  -1   79.75    6.87
  10   5   1   90.86   11.15
 -10  -5  -1   89.91   10.76
  10  -5   1   88.45    7.48
 -10  -5   1   86.72   10.88
  10   0   2   63.07    5.12
  10   0  -2   55.38    6.31
  10   0   2   56.25    6.01
 -10   0   2   48.84    5.56
  10   1  -2   11.87    3.73
  10  -1  -2    9.67    2.67
  10   1   2   12.18    3.63
  10  -1  -2   10.59    3.07
  10  -1   2    7.23    2.42
 -10  -1  -2   11.93    3.18
 -10  -1   2   13.81    3.62
  10  -1   2   10.18    2.70
 -10  -2   2    9.32    3.60
  10  -2   2   16.15    2.78
 -10  -2  -2   13.67    3.41
  10   2   2    7.48    3.91
  10   2  -2   12.07    4.16
  10  -2  -2    9.98    3.02
  10  -2  -2    8.85    2.48
  10  -2   2   12.58    3.21
 -10  -3   2    2.97    2.91
  10   3   2    3.27    3.68
  10  -3  -2    5.63    2.42
  10  -3  -2    3.72    2.13
 -10  -3  -2   -1.10    2.03
  10  -3   2    2.83    2.37
  10   3  -2    0.57    3.00
  10   4  -2   11.31    4.91
 -10  -4  -2   13.33    4.50
  10   4   2   21.87    5.69
  10  -4   2   22.93    4.59
 -10   4   2   28.34    4.54
 -10  -4   2   21.47    5.49
  10  -4  -2   20.26    3.80
 -10  -5  -2   17.88    5.47
  10  -5   2   15.24    4.14
 -10  -5   2   12.83    5.16
  10   5   2   21.57    6.22
  10   5  -2   17.99    5.87
 -10   0   3  989.49   24.83
  10   0   3  952.85   23.80
  10   0  -3 1027.57   25.77
  10   0   3 1004.00   23.84
  10  -1  -3  247.09   10.99
 -10  -1   3  219.26   11.04
 -10  -1  -3  229.42   10.01
  10   1  -3  217.79   11.28
  10  -1   3  238.41    9.37
 -10   1   3  234.26   10.05
  10   1   3  228.98   11.29
  10  -1   3  223.95    9.88
  10  -2  -3  105.21    7.13
  10   2  -3  100.74    8.62
  10  -2   3  102.35    7.01
 -10  -2  -3   92.00    6.72
 -10  -2   3   94.71    7.91
  10   2   3  112.27    9.01
  10  -2  -3   95.58    6.10
  10  -2  -3   95.11    6.88
  10  -2   3   96.69    5.32
  10  -3  -3   69.37    5.27
  10   3   3   50.09    7.81
 -10  -3   3   78.25    9.09
  10  -3   3   58.97    6.58
  10   3  -3   74.34    9.04
  10  -3  -3   61.18    6.73
 -10  -3  -3   62.89    7.24
  10  -3  -3   62.53    7.17
 -10   4   3   15.23    3.54
  10  -4  -3   18.98    3.66
 -10  -4  -3   16.33    4.85
  10   4   3   26.95    6.43
  10  -4   3   12.68    3.68
  10   4  -3    9.17    4.47
 -10  -4   3   14.44    4.85
  10  -4  -3   14.89    5.06
 -10  -5   3   29.28    7.26
  10  -5   3   35.38    5.96
 -10  -5  -3   27.36    6.09
  10  -5  -3   29.32    4.51
  10  -5  -3   35.71    7.07
  10   5  -3   24.03    6.23
  10   5   3   36.08    7.75
  10   0  -4   72.55    7.47
 -10   0   4   81.93    6.50
  10   0   4   85.07    6.44
  10   0   4   71.27    5.55
  10  -1  -4   82.54    7.11
 -10  -1   4   98.24    7.58
  10  -1   4   83.61    5.58
  10  -1   4   87.61    6.26
  10   1  -4   75.41    7.90
  10  -1  -4   82.01    5.62
  10   1   4   69.24    7.37
 -10   1   4   75.25    6.05
  10   1   4   87.98    6.16
  10  -2  -4   77.92    7.73
 -10  -2  -4   72.43    5.95
  10   2   4   76.59    8.44
  10  -2  -4   79.02    6.46
 -10   2   4   76.93    5.76
 -10  -2   4   77.25    8.50
 -10  -2  -4   80.36    4.41
  10  -2   4   81.86    6.59
  10   2  -4   82.78    8.69
 -10  -3   4  106.60    9.28
 -10  -3  -4  120.52    8.20
  10   3   4  112.96   11.31
  10  -3  -4  132.59    8.58
  10  -3  -4  105.32    8.44
  10  -3  -4  114.65    6.57
  10  -3   4  100.93    7.69
  10   3  -4   84.69    9.30
 -10  -4  -4   10.25    3.73
  10   4   4    2.45    4.36
  10   4  -4   13.91    4.92
  10  -4  -4    1.96    3.36
 -10  -4   4   -2.56    3.24
  10  -4   4    2.63    2.82
  10  -4  -4    3.77    2.36
 -10   4   4    4.37    2.49
  10   5  -4   13.10    5.01
  10   5   4   12.55    6.48
  10  -5   4   16.49    4.59
 -10  -5   4   26.72    7.20
 -10  -5  -4   19.19    5.32
  10  -5  -4   15.06    5.10
 -10   0   5  330.62   13.56
  10   0   5  332.19   12.56
  10   0  -5  338.64   14.43
  10   0   5  336.79   12.20
  10  -1   5   84.05    5.57
 -10   1   5   82.85    6.51
  10   1   5   85.28    6.09
  10  -1  -5   72.65    7.65
  10   1  -5   77.79    8.15
 -10  -1   5   70.30    7.85
  10   1   5   83.97    8.21
  10  -1  -5   85.22    5.95
  10  -1   5   86.94    6.35
 -10  -1  -5   81.44    4.91
  10  -2   5   48.45    5.92
 -10   2   5   58.07    5.96
 -10  -2  -5   49.44    3.94
 -10  -2  -5   51.28    5.95
  10  -2  -5   42.82    5.64
  10   2  -5   35.64    6.11
 -10  -2   5   42.68    6.68
  10  -2  -5   52.09    6.78
  10   2   5   56.75    7.64
 -10  -3  -5   56.66    6.68
 -10   3   5   67.26    5.46
  10   3   5   50.59    7.96
  10  -3  -5   56.13    6.93
 -10  -3   5   65.25    8.81
  10  -3  -5   69.70    7.76
  10  -3   5   63.80    7.15
  10   3  -5   51.70    7.84
 -10  -4   5  182.90   13.32
  10  -4  -5  182.11   11.91
  10   4   5  191.95   14.22
  10  -4   5  172.14   11.07
 -10   4   5  183.62   10.80
 -10  -4  -5  169.51   10.53
  10  -4  -5  197.65    8.67
  10   4  -5  181.85   12.16
 -10  -5  -5  172.31   11.36
 -10   5   5  118.99    9.36
 -10  -5   5  156.03   13.34
  10   5  -5  163.84   12.20
  10  -5  -5  158.20   12.35
  10   5   5  162.18   15.91
  10  -5   5  149.13   10.82
  10   0  -6   27.46    5.47
  10   0   6   42.11    5.21
 -10   0   6   30.77    5.22
  10   0   6   32.92    4.92
 -10  -1  -6  194.89    8.08
  10   1   6  206.72    9.33
  10  -1  -6  206.01   11.56
  10  -1  -6  213.13    9.31
  10   1  -6  199.80   11.48
  10  -1   6  210.93   10.02
  10   1   6  202.76   11.05
 -10   1   6  198.55   10.17
 -10  -1   6  200.86   11.74
  10  -2  -6   59.10    7.38
 -10  -2  -6   56.00    6.06
 -10  -2  -6   51.73    5.06
  10   2  -6   41.69    6.63
  10   2   6   52.94    7.72
  10  -2   6   53.01    6.30
 -10  -2   6   54.52    7.68
  10  -2  -6   56.96    6.51
 -10   2   6   58.29    6.00
  10   3  -6   43.33    6.97
  10  -3  -6   47.22    6.84
  10  -3   6   55.03    6.82
 -10   3   6   37.56    4.81
  10  -3  -6   35.57    6.17
 -10  -3  -6   52.58    6.64
  10   3   6   52.98    8.26
 -10  -3   6   44.76    7.76
  10   4   6    8.89    5.32
  10   4  -6    7.67    4.57
 -10  -4   6    9.37    5.49
 -10  -4  -6    7.30    3.34
 -10   4   6    6.11    3.57
  10  -4   6    7.45    3.72
  10  -4  -6    6.21    4.49
  10   5  -6    8.79    4.74
 -10   5   6    0.01    2.99
  10   5   6    0.73    4.67
  10  -5  -6   -0.40    4.45
 -10  -5   6    0.34    3.76
  10  -5   6    1.46    3.38
  10   0  -7  154.83   10.30
 -10   0   7  157.77    9.91
  10   0   7  165.05    8.46
  10   0   7  166.98    9.13
  10  -1  -7   85.69    9.26
 -10   1   7   70.44    7.26
  10  -1  -7   80.87    8.99
 -10  -1  -7   55.20    4.65
  10   1   7   67.29    7.88
  10   1   7   73.29    5.69
  10   1  -7   50.96    7.12
 -10  -1   7   52.51    7.38
  10  -1   7   70.59    6.07
  10   2  -7    8.14    3.83
  10  -2  -7    2.53    3.20
  10   2   7   10.40    4.83
 -10  -2  -7   14.06    3.39
 -10  -2  -7    9.26    2.55
  10  -2   7    9.96    3.24
  10  -2  -7    8.90    3.39
 -10   2   7   14.71    3.63
 -10  -2   7    9.79    4.07
  10   3   7    8.33    4.83
  10  -3   7   11.83    3.73
 -10   3   7   11.08    4.07
 -10  -3   7   19.43    5.85
  10  -3  -7   14.11    4.70
  10   3  -7   12.93    4.79
 -10  -3  -7   12.39    3.65
 -10  -3  -7   16.40    3.38
 -10   4   7    1.02    2.51
  10  -4   7    0.75    2.88
 -10  -4   7    8.56    4.65
  10   4  -7    2.23    3.74
  10   4   7    2.84    5.04
  10  -4  -7   -4.05    3.09
  10   0   8   80.09    7.53
  10   0  -8   80.31    9.04
 -10   0   8   69.37    7.91
  10   0   8   76.07    6.14
  10  -1  -8   65.81    8.39
 -10   1   8   55.21    6.62
  10  -1   8   55.14    6.21
  10   1  -8   56.32    7.89
 -10  -1   8   59.39    7.99
  10   1   8   52.41    5.60
  10   1   8   59.71    7.63
 -10  -1  -8   68.49    5.39
  10  -2   8   48.97    6.37
 -10  -2  -8   37.40    4.91
 -10  -2  -8   42.56    5.42
 -10  -2   8   34.20    6.74
  10  -2  -8   38.00    5.96
  10  -2  -8   35.94    6.47
  10   2   8   32.07    6.15
  10   2  -8   26.49    5.96
 -10  -3   8   19.19    6.09
  10   3   8    5.08    5.05
 -10  -3  -8    9.53    2.98
 -10   3   8    6.39    3.79
  10  -3   8    9.26    4.27
  10   3  -8   16.17    5.07
 -10  -3  -8    8.42    3.07
  10  -3  -8    5.84    4.01
  10   4   8   25.39    7.58
  10   4  -8   45.26    7.77
 -10   4   8   30.38    6.43
  10  -4   8   30.31    6.37
  10  -4  -8   31.59    7.24
 -10  -4   8   30.44    7.56
  10   0   9   12.59    3.17
 -10   0   9   16.55    4.76
  10   0  -9   16.08    4.70
 -10  -1  -9    4.54    2.38
  10  -1  -9    3.18    3.41
  10  -1   9    5.53    2.62
  10   1  -9    3.17    3.92
 -10  -1   9    3.66    3.57
  10   1   9    3.98    3.95
  10   1   9    7.94    2.72
 -10   1   9    2.29    2.92
 -10  -2  -9    8.98    3.02
 -10  -2   9   12.29    5.05
  10   2  -9   11.47    5.11
 -10  -2  -9   14.48    3.28
  10  -2  -9   21.96    5.11
  10  -2   9   12.81    3.98
  10   2   9   25.66    5.99
  10  -2  -9   16.98    5.18
 -10   3   9   27.96    6.52
 -10  -3   9   22.96    6.55
  10  -3   9   16.28    4.65
  10   3   9   12.91    5.53
 -10  -3  -9   29.57    5.09
  10   3  -9   30.70    6.65
  10  -3  -9   32.16    6.44
 -10   0  10   19.65    5.16
  10   0  10    6.05    2.51
  10   0 -10   14.68    5.08
  10  -1 -10   77.12    9.71
  10  -1  10   92.98    7.29
  10   1  10   75.91    8.85
  10   1  10   84.69    6.27
  10   1 -10   76.29    9.71
 -10  -1 -10   73.18    7.31
 -10  -1  10   71.21    9.12
  10  -2 -10   20.16    5.90
  10   2  10   17.86    5.71
  10  -2  10   12.98    3.94
  10  -2 -10   15.28    5.62
 -10  -2  10   18.43    5.56
 -10  -2 -10   19.72    4.21
  10   2 -10   12.13    4.94
 -10  -3 -10   62.59    7.46
  10  -3  10   43.77    7.02
 -10   3  10   58.05    9.28
  10  -3 -10   64.33    8.97
 -10  -3  10   58.62    9.68
  10   3  10   49.09    8.80
  10   3 -10   53.81    8.83
 -10   0 -11   61.59    7.00
  10   0 -11   73.66   10.18
  10   0  11   79.54    6.51
 -10  -1 -11   46.92    6.25
  10  -1  11   46.29    6.24
  10   1 -11   45.38    8.02
 -10  -1  11   48.11    7.76
  10  -1 -11   43.07    7.87
 -10  -2 -11   27.39    5.06
  10  -2  11   26.40    5.34
  10   2  11   23.13    6.72
 -10   2  11   28.72    6.63
  10   2 -11   23.45    6.47
  11   0   0   -2.62    1.65
 -11   0   0    2.67    2.08
 -11  -1   0   38.93    5.48
  11  -1   0   36.39    4.99
  11  -1   0   39.88    5.04
  11   1   0   31.75    5.66
  11   2   0  106.84    8.75
 -11  -2   0   72.42    7.97
  11  -2   0   71.77    5.89
  11  -2   0   78.96    5.94
  11  -3   0   13.61    3.46
 -11  -3   0   12.82    4.19
  11  -3   0   15.12    3.67
  11   3   0    7.97    4.36
  11   4   0  119.08   11.99
  11  -4   0  111.20    7.92
 -11  -4   0  105.75   11.31
 -11  -5   0   81.53   10.78
  11   5   0   75.72   10.61
  11  -5   0   70.78    7.81
 -11   0   1    0.68    1.94
  11   0   1   -0.98    1.58
  11   0  -1    1.88    2.45
  11   0   1   -1.99    2.09
  11  -1   1   23.57    4.00
  11  -1  -1   24.14    4.25
  11   1  -1   30.99    5.54
  11   1   1   22.44    4.72
 -11  -1  -1   36.84    5.33
  11  -1  -1   21.24    3.73
  11  -1   1   28.56    4.45
 -11  -1   1   28.20    4.88
  11  -2  -1   11.57    3.20
  11   2   1   10.83    4.31
 -11  -2  -1    9.92    3.44
 -11  -2   1   15.90    4.31
  11  -2  -1   10.17    2.84
  11  -2   1   17.82    3.45
  11   2  -1   17.43    4.69
  11  -2   1   13.13    3.28
 -11  -3   1   49.11    7.16
 -11  -3  -1   55.82    7.54
  11  -3  -1   54.65    5.90
  11  -3   1   55.90    6.22
  11  -3  -1   51.10    5.73
  11   3   1   54.21    8.00
  11   3  -1   56.68    8.02
  11   4   1   14.34    5.92
  11  -4   1    3.49    2.73
  11   4  -1    5.06    4.76
 -11  -4  -1    6.19    3.61
  11  -4  -1    2.80    2.61
 -11  -4   1    4.86    3.62
  11  -5   1    2.69    2.84
 -11  -5   1    7.40    4.52
  11   5  -1   10.17    5.45
 -11  -5  -1   -0.84    3.61
  11  -5  -1    3.48    2.51
  11   5   1    2.23    5.39
  11   0  -2   -0.99    2.11
 -11   0   2   -1.17    1.69
  11   0   2   -0.80    1.63
  11   0   2   -0.37    2.09
 -11   1   2   26.08    4.35
  11  -1   2   18.91    3.63
  11   1  -2   20.20    4.58
 -11  -1  -2   17.87    3.89
 -11  -1   2   18.66    4.26
  11   1   2   16.01    4.53
  11  -1   2   20.62    3.91
  11  -1  -2   22.99    4.38
  11  -2  -2   86.76    6.76
  11   2  -2   86.58    9.19
 -11  -2   2   87.41    7.78
  11   2   2   89.85    9.16
  11  -2  -2   77.08    6.16
  11  -2   2   87.94    5.61
 -11  -2  -2   91.14    7.23
  11  -2   2   74.87    6.27
  11  -3  -2   12.30    3.39
 -11  -3  -2   15.54    4.38
  11   3   2   11.17    4.62
 -11  -3   2   20.62    5.14
  11   3  -2   14.71    4.90
  11  -3   2   15.37    3.76
  11  -3  -2   16.56    3.76
  11   4  -2    6.80    4.31
  11  -4   2    8.70    3.62
 -11  -4  -2    4.91    3.70
  11   4   2   13.38    5.32
 -11  -4   2    6.58    4.27
  11  -4  -2    5.16    2.69
  11   5   2    8.59    5.55
  11  -5  -2   10.70    3.45
 -11  -5   2    9.55    5.00
  11   5  -2   -3.32    3.66
 -11  -5  -2    5.99    4.07
  11  -5   2    6.43    3.47
  11   0   3    1.93    2.56
 -11   0   3    0.23    2.13
  11   0   3    1.24    1.87
  11   0  -3   -1.11    2.20
 -11  -1  -3   42.18    5.58
  11   1  -3   44.52    6.46
  11  -1  -3   42.53    5.84
 -11   1   3   43.45    5.59
  11  -1   3   42.65    5.31
  11   1   3   44.83    6.25
 -11  -1   3   55.62    6.88
  11  -1   3   45.30    5.12
  11  -2  -3   88.79    7.21
  11  -2  -3   72.79    5.79
  11   2   3   95.51   10.02
  11  -2   3   95.39    7.20
 -11  -2   3   74.39    8.67
  11   2  -3   76.25    8.89
 -11  -2  -3   85.31    6.88
  11  -3  -3   35.68    4.73
 -11  -3  -3   33.02    5.87
  11  -3  -3   29.99    5.13
  11   3  -3   26.65    5.92
  11  -3   3   36.70    5.51
  11   3   3   33.91    6.69
 -11  -3   3   37.70    6.77
  11   4   3   18.03    6.08
 -11  -4  -3   22.84    5.46
  11   4  -3   29.47    7.14
  11  -4   3   20.21    4.93
 -11   4   3   22.05    4.41
 -11  -4   3   21.96    6.23
  11  -4  -3   23.12    4.01
  11   5   3   46.03    9.02
  11  -5  -3   33.12    4.98
 -11  -5  -3   34.60    6.64
  11   5  -3   29.45    7.27
 -11  -5   3   28.72    7.60
  11  -5   3   30.51    5.91
  11   0   4   -1.89    2.15
 -11   0   4    5.63    2.80
  11   0   4    0.17    1.77
  11   0  -4   -0.14    2.28
 -11  -1   4   28.99    5.29
  11  -1  -4   27.01    5.18
  11  -1   4   42.30    4.91
  11  -1   4   37.17    4.91
 -11   1   4   32.98    4.80
  11   1  -4   34.83    5.95
 -11  -1  -4   31.46    4.77
 -11  -1  -4   41.96    3.95
  11   1   4   28.97    5.44
 -11  -2  -4   49.33    6.32
  11  -2  -4   43.73    6.35
  11  -2  -4   51.84    6.07
  11   2   4   41.87    6.89
 -11  -2   4   57.26    7.87
  11  -2   4   47.28    5.92
 -11   2   4   52.81    5.89
  11   2  -4   42.67    6.87
 -11  -3  -4   43.97    6.62
  11  -3  -4   38.09    5.87
  11  -3  -4   36.46    6.02
 -11  -3   4   41.39    7.43
  11   3   4   34.33    6.67
  11  -3  -4   36.76    4.72
  11  -3   4   31.63    5.44
  11   3  -4   25.70    6.00
  11   4   4   -1.62    3.83
  11  -4  -4   -1.72    1.83
 -11  -4   4    0.76    3.73
  11  -4   4    1.63    2.89
  11  -4  -4   -2.90    3.24
 -11  -4  -4    1.70    2.92
 -11   4   4    7.96    2.86
  11   4  -4    2.93    3.94
  11  -5  -4   -4.59    3.46
  11  -5   4    1.39    2.89
  11   5  -4   -0.41    3.71
 -11  -5  -4   -1.12    3.08
  11   5   4   -3.96    4.81
 -11  -5   4    6.12    4.75
  11   0   5    1.45    2.31
  11   0   5   -1.54    1.47
 -11   0   5   -3.39    1.84
  11   0  -5   -0.11    2.52
 -11   1   5   43.56    5.84
 -11  -1  -5   40.90    4.08
  11   1   5   26.13    5.28
  11   1   5   41.83    5.30
  11  -1   5   35.21    5.11
  11   1  -5   45.61    6.74
  11  -1  -5   33.80    5.70
 -11  -1   5   30.28    5.95
  11   2   5    3.92    3.69
  11  -2   5   -1.28    1.80
 -11  -2   5   -3.22    2.40
  11  -2  -5    1.91    2.93
  11   2  -5    0.36    3.38
  11  -2  -5    3.91    2.85
 -11  -2  -5   -0.61    1.61
 -11   2   5   -0.61    2.06
  11   3  -5   44.83    7.58
  11  -3   5   26.59    5.12
  11  -3  -5   37.19    6.18
 -11   3   5   32.46    4.70
 -11  -3  -5   38.03    6.08
  11  -3  -5   30.50    5.83
 -11  -3   5   49.55    8.34
  11   3   5   26.78    6.30
  11   4  -5   -1.34    3.33
  11  -4   5    6.24    3.91
 -11   4   5    2.18    2.67
 -11  -4  -5    1.89    2.54
  11   4   5   -0.65    3.96
 -11  -4   5   10.80    5.18
  11  -4  -5    3.06    4.01
 -11   0   6   -1.78    1.94
  11   0   6   -3.95    1.91
  11   0  -6    0.14    2.85
  11   0   6   -1.12    1.26
  11  -1  -6    1.68    2.74
 -11   1   6    8.71    3.20
  11   1   6   14.76    4.28
  11   1  -6    5.43    3.64
  11   1   6   -0.34    1.63
 -11  -1   6    5.36    3.74
  11  -1   6    1.74    2.28
 -11  -1  -6    5.87    2.08
  11  -2  -6  101.70    7.88
  11   2  -6   89.92   10.04
 -11  -2  -6   89.95    6.88
 -11   2   6   87.01    6.98
  11  -2   6   87.82    7.37
  11   2   6   88.84    9.97
 -11  -2   6   89.67   10.28
  11  -2  -6   87.12    9.28
  11  -3   6  139.73    9.68
  11   3  -6  126.52   10.54
  11  -3  -6  150.21   10.51
  11   3   6  149.07   11.75
 -11  -3  -6  137.04    9.12
 -11   3   6  156.27    8.65
  11  -3  -6  143.20   10.12
 -11  -3   6  131.53   11.54
 -11  -4  -6   21.21    4.98
  11  -4  -6   25.41    6.31
 -11  -4   6   15.16    6.13
  11   4   6   22.89    7.39
  11  -4   6   24.02    5.32
  11   4  -6   21.05    5.92
  11   0  -7    1.72    2.64
  11   0   7   -5.34    2.04
  11   0   7   -2.51    1.27
 -11   0   7    1.26    2.45
  11   1  -7   85.92    9.60
  11  -1  -7   71.68    8.63
 -11  -1  -7   87.98    5.79
 -11  -1   7   95.07   10.11
  11   1   7   85.76    6.57
 -11   1   7   94.75    7.73
  11  -1   7  103.04    7.61
  11   1   7   90.38    9.05
  11  -2  -7   24.95    5.70
 -11  -2   7   33.80    6.95
 -11   2   7   25.18    4.68
  11   2  -7   23.82    5.84
 -11  -2  -7   24.44    3.95
  11   2   7   25.99    6.03
  11  -2   7   16.15    4.46
 -11  -2  -7   25.16    4.57
  11  -3   7   42.60    6.41
  11  -3  -7   41.69    6.72
  11   3   7   49.22    8.61
 -11  -3  -7   46.82    6.42
  11   3  -7   29.22    6.28
 -11  -3   7   48.82    8.77
  11  -4  -7   -1.75    3.81
 -11   4   7    4.10    3.52
 -11  -4   7    2.70    4.53
  11  -4   7    5.05    3.49
  11   4   7   -1.73    3.97
  11   4  -7    1.85    4.31
  11   0   8    0.06    1.58
 -11   0   8    3.31    3.33
  11   0  -8    3.92    3.34
  11  -1  -8   18.95    5.52
 -11  -1   8   20.41    5.35
  11   1  -8    4.52    3.92
 -11   1   8   17.96    4.45
 -11  -1  -8   21.73    3.84
  11  -1   8   20.47    4.38
  11   1   8   17.18    3.68
  11   1   8    8.76    4.10
 -11  -2  -8   20.52    3.81
  11   2   8   21.41    6.20
 -11  -2   8   31.18    6.80
  11  -2  -8   19.21    5.23
 -11  -2  -8   21.54    4.15
  11  -2   8   26.70    5.33
  11   2  -8   18.09    5.21
  11   3   8    0.60    4.26
 -11  -3  -8    0.69    2.19
  11  -3   8    2.93    3.02
  11  -3  -8   28.71    6.34
 -11  -3   8    4.18    4.58
  11   3  -8    4.08    3.91
 -11   3   8    3.08    3.46
  11   0  -9   -0.72    3.42
 -11   0   9   -1.87    3.22
  11   0   9    0.39    1.98
  11   1   9   30.72    4.86
  11  -1  -9   23.66    5.99
 -11  -1   9   31.27    6.71
 -11   1   9   31.39    5.66
  11  -1   9   27.12    4.86
  11   1  -9   22.71    5.93
  11   1   9   25.39    5.47
 -11  -1  -9   32.15    4.81
  11   2  -9   69.39    9.85
 -11  -2  -9   76.20    7.43
  11   2   9   86.08   10.27
 -11  -2  -9   72.84    7.41
  11  -2  -9   64.18    9.16
 -11  -2   9   79.19   10.42
  11  -2   9   61.52    7.61
  11   3   9   32.19    8.07
  11  -3   9   11.71    4.24
 -11   3   9   20.00    5.71
  11  -3  -9   22.32    6.03
  11   3  -9   23.44    5.94
  11   0  10   -0.58    1.86
  11   0 -10   -3.11    3.11
 -11   0  10    4.17    3.63
  11  -1 -10    4.97    3.91
  11   1  10    7.49    3.08
  11  -1  10    9.43    3.17
 -11  -1  10   14.04    5.02
 -11  -1 -10    6.30    2.81
  11   1 -10   10.59    5.01
  11   2  10   63.34    9.57
 -11  -2 -10   63.80    7.01
  11  -2 -10   55.21    8.95
  11  -2  10   61.67    7.87
  11   2 -10   75.42    9.83
  12   0   0   17.53    4.23
 -12   0   0   22.74    4.45
 -12  -1   0   26.15    4.98
  12  -1   0   30.25    4.66
  12  -1   0   21.60    4.17
  12   1   0   30.07    5.52
 -12  -2   0   29.79    5.54
  12  -2   0   25.94    4.45
  12   2   0   25.41    5.69
  12  -2   0   34.02    5.12
  12   3   0  124.60   10.58
  12  -3   0  105.47    7.62
 -12  -3   0  138.48   10.66
  12  -4   0   27.46    4.95
  12   4   0   19.32    6.35
 -12  -4   0   17.87    5.40
 -12   0  -1  284.05   12.50
  12   0  -1  271.95   12.64
 -12   0   1  261.23   12.12
  12   0   1  272.92   12.25
 -12  -1  -1   23.29    4.72
 -12  -1   1   21.09    4.52
  12   1   1   14.56    4.34
  12  -1   1   30.89    4.95
  12   1  -1   24.57    5.14
 -12   1   1   28.53    4.73
  12  -1  -1   26.19    4.47
  12  -1   1   27.68    4.59
 -12  -2  -1  130.39    9.25
  12  -2  -1  119.29    7.74
  12  -2   1  131.65    8.23
  12  -2   1  128.93    7.62
  12   2   1  133.66   10.08
 -12  -2   1  129.63    9.68
  12  -2  -1  147.22    8.55
  12   2  -1  124.45    9.86
 -12  -3   1   54.13    8.28
  12  -3  -1   49.30    6.07
 -12  -3  -1   50.81    7.59
  12   3  -1   43.88    7.57
  12  -3  -1   60.83    6.65
  12   3   1   48.36    8.00
  12  -3   1   54.66    6.50
  12  -4   1   60.29    7.04
  12   4  -1   67.21    9.52
  12   4   1   56.55    8.85
 -12  -4   1   75.32   10.26
 -12  -4  -1   80.11   10.30
  12  -4  -1   71.09    7.25
 -12   0   2   37.73    5.59
  12   0   2   31.01    5.06
  12   0  -2   53.93    6.88
  12   0   2   48.61    5.97
  12  -1  -2   60.67    6.94
 -12  -1   2   60.04    7.58
 -12   1   2   51.71    6.27
 -12  -1  -2   64.06    7.08
  12  -1   2   53.56    6.13
  12   1   2   65.70    7.54
  12   1  -2   70.96    8.37
  12  -1   2   58.06    6.25
  12  -2   2   28.20    4.79
  12   2  -2   24.99    5.85
 -12  -2   2   39.03    6.48
  12  -2  -2   27.98    4.66
  12   2   2   29.32    6.09
 -12  -2  -2   36.87    6.16
  12  -2  -2   30.25    5.29
  12  -3  -2   -0.10    2.32
  12  -3  -2    5.80    3.01
  12  -3   2   -0.56    2.00
 -12  -3   2    4.35    3.84
  12   3  -2    9.51    4.54
 -12  -3  -2    1.89    2.73
  12   3   2   -1.26    3.46
  12  -4  -2   24.68    4.53
  12  -4   2   26.48    5.17
 -12  -4  -2   21.67    5.86
  12   4  -2   29.90    7.06
  12   4   2   24.31    7.06
 -12  -4   2   25.64    7.09
  12   0   3   62.75    7.08
 -12   0   3   53.22    6.75
  12   0  -3   78.13    8.29
  12   0   3   80.96    6.75
  12  -1  -3   21.73    4.69
  12  -1   3   21.58    4.34
 -12  -1   3   19.12    4.82
 -12   1   3   28.53    4.92
 -12  -1  -3   25.30    4.87
  12  -1   3   28.29    4.42
  12   1   3   26.13    5.63
  12   1  -3   18.66    4.75
  12   2  -3   23.43    5.82
  12  -2  -3   39.98    6.06
 -12   2   3   52.82    6.26
  12   2   3   44.36    7.24
 -12  -2  -3   44.45    6.68
  12  -2   3   27.54    4.96
 -12  -2   3   49.51    7.53
  12   3   3    3.36    4.40
  12  -3   3    1.35    2.40
  12  -3  -3    5.73    2.99
 -12  -3  -3    0.55    2.89
  12   3  -3    1.32    3.72
  12  -3  -3    2.49    2.65
 -12  -3   3    2.51    3.52
 -12  -4   3   47.85    8.62
  12   4   3   44.43    8.43
  12  -4   3   64.83    7.84
 -12  -4  -3   47.18    7.82
  12   4  -3   42.95    7.78
  12  -4  -3   45.46    5.83
 -12   0   4   -2.25    1.94
  12   0  -4    2.29    3.11
  12   0   4   -2.36    2.11
  12   0   4    0.18    1.98
  12   1  -4  218.47   12.64
  12   1   4  226.75   12.09
  12  -1  -4  231.58   12.35
  12  -1   4  224.46   10.94
 -12  -1   4  237.04   12.92
  12  -1   4  236.21   11.43
 -12   1   4  246.11   11.88
 -12  -1  -4  238.13   11.38
  12  -2  -4   45.84    6.70
  12   2  -4   34.48    6.55
  12   2   4   31.20    5.92
 -12   2   4   38.30    5.34
 -12  -2  -4   26.07    5.06
  12  -2   4   32.59    5.44
 -12  -2   4   36.57    6.68
 -12  -3  -4   10.09    3.92
  12  -3   4   12.95    3.84
 -12   3   4   15.87    3.65
 -12  -3   4   11.32    5.00
  12   3  -4   10.10    4.73
  12   3   4   13.75    5.38
  12  -3  -4   16.67    4.57
 -12  -4   4   11.67    5.41
  12  -4  -4   11.41    3.47
  12  -4   4    9.70    3.94
  12   4  -4   -1.10    3.88
  12   4   4   10.95    5.93
 -12   4   4   12.22    3.91
 -12  -4  -4    7.04    3.70
  12   0   5   49.89    6.28
  12   0  -5   44.84    6.94
 -12   0   5   56.71    7.46
  12   0   5   63.16    6.82
  12  -1   5   59.85    6.76
 -12  -1  -5   66.43    7.20
  12  -1  -5   68.43    8.06
 -12  -1   5   58.35    8.04
  12   1  -5   62.35    8.16
  12   1   5   63.91    7.61
 -12   1   5   48.64    6.41
 -12   2   5   19.84    4.17
 -12  -2  -5   33.85    5.74
  12   2  -5   30.70    6.44
  12   2   5   25.31    5.87
  12  -2  -5   27.82    5.70
 -12  -2   5   18.16    5.33
  12  -2   5   23.73    4.54
 -12   3   5    3.58    2.71
  12   3   5    4.45    4.40
  12  -3  -5    6.87    4.01
  12   3  -5   -0.93    3.38
 -12  -3   5    8.56    4.75
  12  -3  -5    2.22    3.20
  12  -3   5   -0.26    2.90
 -12  -3  -5    2.29    2.69
 -12   4   5   18.09    4.69
  12  -4  -5   15.16    5.44
  12   4  -5   13.88    5.40
 -12  -4   5    4.68    4.84
 -12  -4  -5   12.48    4.39
  12  -4   5   14.36    4.58
  12   4   5   -1.88    4.79
  12   0  -6   96.31   10.00
  12   0   6  109.11    7.85
 -12   0   6  114.02    9.13
  12   0   6  117.98    8.21
 -12  -1  -6  104.65    7.55
 -12  -1   6  129.76   10.25
  12  -1   6  123.21    8.27
  12  -1  -6  109.12    9.14
  12   1  -6  103.30   10.67
  12   1   6  106.01    8.87
 -12   1   6   90.26    7.87
 -12  -2  -6    8.75    3.51
  12   2   6    6.23    3.99
  12  -2   6    1.15    2.54
 -12  -2   6   12.63    4.93
  12   2  -6    4.87    3.75
  12  -2  -6    6.72    3.53
 -12   2   6    9.11    3.51
  12  -3   6    5.85    3.51
 -12  -3   6    8.23    5.13
 -12  -3  -6    3.14    3.02
  12   3  -6    8.86    4.77
  12   3   6    9.17    4.84
  12  -3  -6    8.66    4.42
  12  -3  -6   11.43    4.54
 -12   3   6    6.00    3.13
  12   0   7   96.88    7.26
  12   0  -7   81.59    9.90
 -12   0   7   81.15    9.11
 -12   1   7   14.00    4.15
  12  -1   7   16.64    4.09
  12   1  -7   19.59    5.61
  12  -1  -7   18.72    5.07
 -12  -1  -7   11.22    2.90
  12   1   7   15.69    4.68
 -12  -1   7   20.10    5.52
  12   1   7   14.98    3.66
  12   2  -7   20.75    5.65
  12  -2  -7   22.25    5.82
  12   2   7   26.48    6.47
 -12   2   7   18.88    4.72
 -12  -2   7   28.23    6.48
 -12  -2  -7   15.46    4.17
  12  -2   7   18.40    4.43
  12   3   7   11.46    5.79
  12   3  -7    3.27    4.54
 -12  -3  -7    9.74    3.81
 -12  -3   7   18.74    6.35
  12  -3  -7    9.14    4.63
  12  -3   7   10.47    4.45
 -12   0   8    2.55    3.38
  12   0  -8   -1.33    3.03
  12   0   8    1.75    2.26
 -12   1   8  137.75   10.04
  12   1  -8  128.23   10.94
 -12  -1   8  133.99   11.12
  12  -1  -8  131.80   10.87
  12  -1   8  138.41    9.13
  12   1   8  114.43    9.39
  12   1   8  136.06    8.48
 -12  -1  -8  126.20    7.50
  12   2   8   14.36    5.57
 -12  -2  -8   19.93    4.49
  12  -2   8   18.47    4.60
 -12  -2   8   22.95    6.75
  12   2  -8   22.24    5.88
  12  -2  -8   17.41    5.37
 -12   0   9    7.75    4.30
  12   0   9   10.28    3.70
  12   0  -9    6.40    4.71
  12   1   9   13.11    3.56
  12  -1   9   15.39    4.12
 -12  -1  -9   18.94    3.80
  12  -1  -9   18.32    5.60
 -12   1   9   15.97    5.44
 -12  -1   9   12.15    5.23
  12   1  -9   17.53    5.77
 -13   0   0   -0.36    2.40
  13   0   0   -2.63    2.34
 -13  -1   0   31.71    6.02
  13   1   0   33.75    6.18
  13  -1   0   34.09    5.41
  13  -1   0   44.70    6.09
  13   2   0   -4.37    2.46
  13  -2   0    1.24    2.20
 -13  -2   0    1.14    3.19
  13  -2   0   -2.18    1.80
  13   3   0   19.20    6.13
  13  -3   0   29.62    5.34
 -13  -3   0   20.67    5.80
  13   4   0    2.22    4.39
 -13  -4   0   -2.91    3.42
  13  -4   0   -2.30    1.96
  13   0   1   -0.70    2.49
  13   0  -1   -2.86    2.01
 -13   0   1   -1.72    1.88
 -13   0  -1    2.34    2.26
  13   1  -1    7.20    3.69
 -13   1   1    4.21    3.01
  13  -1  -1    2.03    2.60
 -13  -1  -1    6.05    3.49
 -13  -1   1    6.06    3.22
  13  -1   1    1.49    2.27
  13  -1   1    7.92    3.15
  13   1   1    1.96    3.13
  13   2   1    9.26    4.34
  13  -2  -1    8.94    3.29
 -13  -2  -1   19.52    4.82
 -13  -2   1    8.08    3.96
  13  -2   1   11.17    3.75
  13  -2  -1   11.57    3.40
  13   2  -1    7.53    4.24
 -13  -3  -1   10.93    4.48
  13   3   1   10.12    4.91
  13  -3   1   -0.94    2.13
  13   3  -1   10.79    5.14
 -13  -3   1    7.80    4.23
  13  -3  -1    1.72    2.77
 -13  -4   1   12.25    5.28
  13  -4  -1   14.16    3.87
  13  -4   1   13.84    4.35
  13   4  -1    4.03    4.59
 -13  -4  -1   13.82    5.20
  13   4   1   21.58    6.53
 -13   0   2    0.07    2.47
 -13   0  -2   -0.86    2.01
  13   0  -2   -2.09    2.49
  13   0   2   -3.86    2.06
  13  -1   2    1.36    2.20
 -13  -1   2   -0.34    2.49
 -13   1   2    7.23    3.09
  13  -1   2    1.87    2.43
  13  -1  -2    1.73    2.44
 -13  -1  -2    2.16    2.43
  13   1  -2    2.11    3.07
  13   1   2    7.80    3.99
 -13  -2   2   22.77    5.43
  13  -2   2   18.12    4.27
  13   2  -2   25.35    5.86
  13  -2  -2   20.06    4.69
  13   2   2   18.09    5.22
 -13   2   2   23.67    4.74
 -13  -2  -2   33.61    6.27
  13   3   2   22.30    6.30
  13  -3  -2   21.27    4.73
 -13  -3  -2   27.72    6.15
  13  -3   2   23.02    4.91
 -13  -3   2   17.34    5.89
  13  -3  -2   25.17    4.84
  13   3  -2   27.77    6.77
  13   4   2   14.84    5.93
  13  -4  -2   11.46    3.95
 -13  -4  -2    5.68    4.47
 -13  -4   2   22.07    6.89
  13   4  -2   17.98    5.89
  13  -4   2   22.63    5.27
 -13   0   3    0.39    2.20
  13   0   3   -1.23    1.87
  13   0  -3   -2.03    2.11
  13   0   3   -0.53    2.48
  13   1  -3    4.90    3.55
  13  -1  -3    0.57    2.81
 -13  -1  -3   -0.73    1.99
  13  -1   3    2.50    2.66
  13   1   3    4.32    3.41
  13  -1   3    3.10    2.43
 -13  -1   3    3.64    3.34
 -13   1   3    2.40    2.71
 -13  -2  -3   10.52    4.05
 -13  -2   3    8.60    4.30
  13   2  -3    8.55    4.64
  13  -2   3   13.29    3.73
  13  -2  -3   10.01    3.48
  13   2   3    6.33    4.21
 -13   2   3   10.86    3.54
 -13  -3   3   77.99   10.52
  13  -3   3   60.54    7.43
  13   3  -3   52.11    8.61
 -13  -3  -3   65.36    8.86
  13  -3  -3   77.27    8.74
  13  -3  -3   57.66    6.52
  13   3   3   53.04    8.97
  13   0   4    2.04    3.05
 -13   0   4    1.32    2.83
  13   0   4   -1.26    1.89
  13   0  -4    0.35    3.12
  13   1   4    9.42    3.93
  13   1  -4   21.08    5.55
 -13  -1   4   10.25    4.40
 -13   1   4   10.48    3.88
  13  -1  -4   16.53    4.91
  13  -1   4   14.10    4.11
 -13  -1  -4   13.01    3.93
 -13  -2  -4  130.36    9.43
  13   2   4  142.02   11.26
  13   2  -4  172.10   12.21
 -13  -2   4  141.93   11.37
  13  -2  -4  167.76   11.00
 -13   2   4  147.77    9.50
  13  -2   4  170.79   10.19
  13  -3  -4   23.67    5.31
 -13  -3   4   17.63    5.96
  13  -3   4   20.83    4.86
 -13   3   4   18.06    4.13
  13   3   4   15.66    5.75
 -13  -3  -4   16.97    4.98
  13   3  -4   14.50    5.30
  13   0   5   -0.55    2.08
  13   0  -5    0.53    3.02
 -13   0   5   -0.78    2.41
  13   0   5   -1.50    2.38
  13  -1  -5  141.97   10.39
  13   1   5  139.38   10.23
  13  -1   5  162.49    9.85
  13   1  -5  154.21   11.30
 -13  -1   5  136.13   10.89
 -13  -1  -5  150.38    9.71
 -13   1   5  145.24   10.15
 -13  -2  -5   15.73    4.44
 -13  -2   5   11.78    5.18
  13   2  -5    9.58    4.99
  13  -2   5    7.85    3.31
  13   2   5    7.64    4.59
 -13   2   5    8.85    3.71
  13  -2  -5   11.41    4.59
 -13  -3  -5   20.51    5.76
  13   3  -5   17.69    5.83
 -13   3   5   18.67    4.51
  13  -3  -5   28.02    6.21
  13   3   5   22.47    6.25
 -13  -3   5    8.92    4.95
 -13   0   6   -1.56    2.48
  13   0  -6   -1.61    2.73
  13   0   6   -1.42    1.83
 -13  -1   6    3.80    3.68
  13   1   6    2.44    3.83
  13   1  -6    7.17    4.35
  13  -1   6    2.96    2.52
 -13   1   6    5.76    3.36
  13  -1  -6   12.32    4.59
 -13  -1  -6   12.37    3.85
 -13  -2   6   11.22    5.12
 -13   2   6   14.25    4.36
  13   2  -6   18.92    5.78
 -13  -2  -6   20.61    4.75
  13  -2   6   10.52    3.74
  13   2   6   15.46    5.63
  13  -2  -6   31.06    6.25
 -13   0   7   -1.21    2.46
  13   0  -7   -2.43    2.62
  13   0   7   -0.18    2.15
  13   1   7   41.46    6.87
 -13   1   7   48.80    7.11
 -13  -1   7   41.24    7.97
  13  -1  -7   41.09    7.60
  13   1  -7   44.40    7.73
  13  -1   7   40.58    6.17
 -13  -1  -7   49.69    6.67
 -13   2   7   -0.54    2.82
  13   2  -7   11.93    4.99
  13  -2   7    8.01    3.48
 -13  -2   7    2.65    4.28
  13   2   7    4.23    3.89
 -13  -2  -7    8.56    3.49
  13  -2  -7    4.76    3.60
  13   0   8   -0.69    2.02
 -13   0   8    0.08    3.43
  13   0  -8    0.27    3.82
  13   1  -8   10.67    5.17
 -13  -1  -8    8.48    3.52
  13  -1   8    2.95    2.71
 -13   1   8    8.80    3.94
 -13  -1   8    6.15    4.67
  13  -1  -8    6.01    4.11
 -14   0   0   14.58    4.17
  14   0   0   12.11    4.34
 -14   1   0   22.71    5.12
 -14  -1   0   19.33    5.02
  14   1   0   18.46    4.95
  14  -1   0   18.55    4.46
 -14  -2   0    2.83    3.57
  14   2   0    5.40    4.37
  14  -2   0    6.18    3.35
 -14  -3   0   50.76    8.78
  14  -3   0   53.80    7.04
  14   3   0   34.87    7.72
  14   0  -1   25.19    5.67
 -14   0   1   28.52    5.49
  14   0   1   19.32    4.78
 -14   0  -1   30.09    5.74
 -14  -1   1    1.51    2.85
 -14  -1  -1    3.05    2.91
  14   1  -1    2.00    3.29
  14  -1   1   -0.58    2.48
 -14   1   1   -2.09    2.04
  14  -1   1    6.55    3.26
  14   1   1    0.24    2.80
  14  -1  -1   -1.83    2.06
  14  -2  -1   28.16    5.08
 -14  -2  -1   37.32    7.02
 -14  -2   1   27.06    6.36
  14   2  -1   26.67    6.79
  14   2   1   22.00    6.31
  14  -2   1   25.16    5.08
 -14  -3  -1   24.78    6.36
  14   3  -1   23.83    6.92
  14   3   1   35.64    7.52
  14  -3   1   26.10    5.40
  14  -3  -1   33.57    5.94
 -14  -3   1   21.83    6.15
 -14   0  -2   12.56    4.01
 -14   0   2   20.97    5.13
  14   0   2   18.86    4.78
  14   0  -2   14.36    4.89
 -14  -1   2    2.24    3.23
  14   1   2    5.83    3.47
  14  -1   2    3.68    2.57
  14  -1  -2    0.75    2.96
  14  -1   2   -2.15    1.96
 -14  -1  -2    0.07    2.39
 -14   1   2    5.60    3.49
  14   1  -2    0.77    3.89
  14  -2  -2    7.13    3.52
 -14  -2  -2    2.10    3.51
 -14   2   2    9.99    3.69
  14  -2   2    3.74    3.10
  14   2  -2    1.76    3.32
  14   2   2    2.14    4.02
 -14  -2   2    3.85    3.83
  14  -3  -2    2.80    2.81
 -14  -3  -2    4.13    3.87
  14   3  -2    5.06    4.50
  14   3   2    6.85    4.91
 -14  -3   2    5.23    4.59
  14  -3   2    4.87    3.33
  14   0  -3   36.88    6.66
  14   0   3   20.84    5.02
 -14   0   3   25.39    5.80
 -14   0  -3   28.45    5.49
 -14  -1  -3  132.37    9.80
  14   1  -3  145.93   11.24
  14   1   3  149.28   10.80
 -14   1   3  159.90   10.51
  14  -1  -3  149.41   10.70
  14  -1   3  142.63    9.64
 -14  -1   3  153.83   11.54
  14  -2  -3   14.88    4.63
 -14  -2   3    8.64    5.03
  14  -2   3   19.66    5.00
  14   2  -3   12.13    5.52
 -14   2   3   11.58    3.95
  14   2   3    7.77    4.32
 -14  -2  -3    9.67    3.95
  14  -3   3   14.74    4.71
  14   0   4  123.21    8.99
 -14   0   4  130.57   10.39
  14   0   4  130.16    9.29
  14   0  -4  129.91   10.66
  14  -1   4   76.16    8.37
 -14  -1  -4   61.04    7.81
  14   1   4   56.18    7.62
 -14   1   4   55.43    7.48
  14   1  -4   58.17    8.51
 -14  -1   4   69.67    9.19
  14  -1  -4   64.96    8.43
  14  -2   4   24.21    5.26
  14  -2  -4   26.47    5.97
  14   2  -4   27.03    6.45
  14   2   4   19.19    5.59
 -14   2   4   32.01    6.02
 -14  -2  -4   42.49    7.12
 -14  -2   4   26.56    6.85
  14   0   5  370.61   15.58
  14   0  -5  336.56   17.07
 -14   0   5  335.77   16.95
  14  -1  -5   29.78    6.50
  14   1  -5   34.84    7.48
  14  -1   5   45.38    6.61
 -14   1   5   42.65    6.81
  14   1   5   31.04    6.21
 -14  -1  -5   26.63    5.48
 -14  -1   5   33.82    7.32
 -14  -2  -5   44.61    7.26
 -14  -2   5   45.61    8.75
  14   2  -5   30.14    6.83
  14   2   5   25.44    6.13
 -14   2   5   29.99    5.75
  14  -2   5   46.54    6.93
  14  -2  -5   41.48    7.32
  14   0  -6   21.32    6.05
  14   0   6   19.18    4.66
 -14   0   6   15.82    5.09
  14   1  -6   60.70    9.07
 -14  -1   6   60.47    9.44
  14  -1  -6   54.54    8.28
 -14  -1  -6   69.54    8.29
 -14   1   6   48.12    7.55
  14  -1   6   61.89    7.78
  14   1   6   62.61    8.51
  15   0   0   -2.11    2.66
 -15   0   0    0.97    2.64
  15   1   0    6.54    4.34
 -15  -1   0    7.92    4.43
  15  -1   0   -0.60    2.90
 -15   1   0    3.65    3.37
  15  -2   0    3.14    3.31
  15   2   0    4.04    3.80
  15   0  -1   -1.04    2.52
 -15   0   1    1.63    3.02
 -15   0  -1   -1.15    2.13
  15   0   1   -1.98    2.59
 -15  -1   1   -2.75    2.81
 -15   1  -1    6.44    3.35
  15   1   1    4.01    3.52
 -15   1   1    2.86    2.75
  15  -1  -1   -4.40    2.27
 -15  -1  -1    1.88    3.29
  15  -1   1    0.93    2.65
  15   1  -1    1.87    3.23
 -15   0  -2   -1.78    2.25
  15   0  -2   -1.72    2.81
 -15   0   2    3.57    3.49
  15   0   2   -4.02    2.24
  15   1  -2    7.53    4.37
  15  -1   2   13.09    4.34
 -15   1   2    3.83    3.31
 -15  -1  -2   12.31    4.85
 -15  -1   2    8.12    4.54
  15  -1  -2    3.50    3.66
  15   1   2    3.82    3.81
 -15   0   3    5.87    3.89
  15   0   3   -2.40    2.57
  15   0  -3    0.99    3.13
 -15   0  -3   -1.24    2.40
  15  -1   3   12.63    4.21
 -15  -1  -3   15.02    4.81
  15  -1  -3   -1.24    3.58
  15   1  -3    7.83    4.36
  15   1   3    7.48    4.08
 -15   1   3   10.57    4.24
 -15  -1   3   13.76    5.52
   0   0   0    0.00    0.00
;
_shelx_hkl_checksum              36273
loop_
_space_group_symop_operation_xyz
'x, y, z'
'-x, -y, z+1/2'
'x+1/2, -y+1/2, z'
'-x+1/2, y+1/2, z+1/2'
loop_
_atom_site_label
_atom_site_type_symbol
_atom_site_fract_x
_atom_site_fract_y
_atom_site_fract_z
_atom_site_U_iso_or_equiv
_atom_site_adp_type
_atom_site_occupancy
_atom_site_site_symmetry_order
_atom_site_calc_flag
_atom_site_refinement_flags_posn
_atom_site_refinement_flags_adp
F1 F 0.01885(10) 0.2493(2) 0.98105(12) 0.0181(3) Uani 1 1 d . .
O1 O 0.06999(16) 0.3699(3) 1.19109(15) 0.0286(4) Uani 1 1 d . .
O2 O -0.02123(14) 0.0717(3) 1.26724(15) 0.0258(4) Uani 1 1 d . .
O3 O -0.06505(14) -0.2801(3) 1.03529(15) 0.0239(4) Uani 1 1 d . .
O4 O 0.11405(13) -0.1500(3) 1.04911(16) 0.0255(4) Uani 1 1 d . .
N1 N -0.21097(14) 0.1275(3) 0.93820(14) 0.0116(3) Uani 1 1 d . .
N2 N -0.22441(15) 0.3243(3) 0.87158(16) 0.0157(4) Uani 1 1 d . .
N3 N -0.26402(14) 0.2559(3) 0.77049(17) 0.0176(4) Uani 1 1 d . .
N4 N -0.27780(14) 0.0184(3) 0.76753(16) 0.0178(4) Uani 1 1 d . .
N5 N 0.00979(15) 0.1970(3) 1.18567(16) 0.0162(4) Uani 1 1 d . .
N6 N 0.00783(15) -0.1278(3) 1.04816(16) 0.0164(4) Uani 1 1 d . .
C1 C -0.24381(17) -0.0560(4) 0.87249(18) 0.0152(4) Uani 1 1 d . .
H1 H -0.2427 -0.2145 0.8977 0.018 Uiso 1 1 calc R U
C2 C -0.16816(16) 0.1451(3) 1.05957(17) 0.0124(4) Uani 1 1 d . .
H2A H -0.2033 0.0195 1.1085 0.015 Uiso 1 1 calc R U
H2B H -0.1919 0.2973 1.0939 0.015 Uiso 1 1 calc R U
C3 C -0.03596(16) 0.1241(3) 1.06266(18) 0.0129(4) Uani 1 1 d . .
loop_
_atom_site_aniso_label
_atom_site_aniso_U_11
_atom_site_aniso_U_22
_atom_site_aniso_U_33
_atom_site_aniso_U_23
_atom_site_aniso_U_13
_atom_site_aniso_U_12
F1 0.0178(6) 0.0194(6) 0.0170(6) 0.0041(5) 0.0038(5) -0.0015(5)
O1 0.0349(10) 0.0201(8) 0.0309(9) -0.0011(8) -0.0142(7) -0.0091(7)
O2 0.0269(9) 0.0374(10) 0.0132(7) 0.0032(7) -0.0017(7) -0.0090(7)
O3 0.0287(8) 0.0134(7) 0.0296(9) -0.0029(7) -0.0057(7) 0.0002(6)
O4 0.0184(7) 0.0308(9) 0.0274(8) -0.0004(8) 0.0000(7) 0.0104(6)
N1 0.0127(8) 0.0104(8) 0.0118(8) 0.0011(7) 0.0004(6) 0.0005(6)
N2 0.0197(8) 0.0144(9) 0.0132(8) 0.0020(7) -0.0009(7) 0.0021(7)
N3 0.0209(9) 0.0182(9) 0.0137(8) 0.0007(8) -0.0026(7) 0.0013(7)
N4 0.0207(8) 0.0174(9) 0.0152(7) -0.0017(8) -0.0021(7) 0.0011(7)
N5 0.0152(8) 0.0180(9) 0.0154(8) -0.0032(7) -0.0036(7) 0.0028(7)
N6 0.0182(8) 0.0171(8) 0.0140(8) -0.0003(7) -0.0005(7) 0.0047(7)
C1 0.0168(9) 0.0144(9) 0.0145(9) -0.0007(8) -0.0003(8) -0.0013(7)
C2 0.0138(8) 0.0144(8) 0.0089(8) -0.0013(8) 0.0004(7) 0.0005(7)
C3 0.0153(9) 0.0128(9) 0.0108(9) 0.0000(8) 0.0000(7) 0.0002(7)
loop_
_atom_type_symbol
_atom_type_description
_atom_type_scat_dispersion_real
_atom_type_scat_dispersion_imag
_atom_type_scat_source
C C 0.0033 0.0016 'International Tables Vol C Tables 4.2.6.8 and 6.1.1.4'
H H 0.0000 0.0000 'International Tables Vol C Tables 4.2.6.8 and 6.1.1.4'
N N 0.0061 0.0033 'International Tables Vol C Tables 4.2.6.8 and 6.1.1.4'
O O 0.0106 0.0060 'International Tables Vol C Tables 4.2.6.8 and 6.1.1.4'
F F 0.0171 0.0103 'International Tables Vol C Tables 4.2.6.8 and 6.1.1.4'
loop_
_geom_angle_atom_site_label_1
_geom_angle_atom_site_label_2
_geom_angle_atom_site_label_3
_geom_angle
C1 N1 N2 108.28(16)
C1 N1 C2 131.89(17)
N2 N1 C2 119.83(16)
N3 N2 N1 105.96(17)
N2 N3 N4 111.37(18)
C1 N4 N3 105.43(18)
O1 N5 O2 127.67(19)
O1 N5 C3 117.55(17)
O2 N5 C3 114.77(16)
O3 N6 O4 127.51(18)
O3 N6 C3 117.57(16)
O4 N6 C3 114.91(16)
N4 C1 N1 108.97(19)
N4 C1 H1 125.5
N1 C1 H1 125.5
N1 C2 C3 110.58(15)
N1 C2 H2A 109.5
C3 C2 H2A 109.5
N1 C2 H2B 109.5
C3 C2 H2B 109.5
H2A C2 H2B 108.1
F1 C3 C2 114.43(16)
F1 C3 N6 106.29(15)
C2 C3 N6 113.42(15)
F1 C3 N5 108.42(15)
C2 C3 N5 109.77(15)
N6 C3 N5 103.87(14)
loop_
_geom_bond_atom_site_label_1
_geom_bond_atom_site_label_2
_geom_bond_distance
F1 C3 1.322(2)
O1 N5 1.206(2)
O2 N5 1.217(3)
O3 N6 1.214(2)
O4 N6 1.221(2)
N1 C1 1.337(3)
N1 N2 1.361(2)
N1 C2 1.453(2)
N2 N3 1.285(3)
N3 N4 1.368(3)
N4 C1 1.313(3)
N5 C3 1.536(3)
N6 C3 1.534(3)
C1 H1 0.9500
C2 C3 1.517(2)
C2 H2A 0.9900
C2 H2B 0.9900
loop_
_geom_torsion_atom_site_label_1
_geom_torsion_atom_site_label_2
_geom_torsion_atom_site_label_3
_geom_torsion_atom_site_label_4
_geom_torsion
C1 N1 N2 N3 0.1(2)
C2 N1 N2 N3 -179.33(16)
N1 N2 N3 N4 0.1(2)
N2 N3 N4 C1 -0.3(2)
N3 N4 C1 N1 0.4(2)
N2 N1 C1 N4 -0.3(2)
C2 N1 C1 N4 179.03(18)
C1 N1 C2 C3 89.6(2)
N2 N1 C2 C3 -91.1(2)
N1 C2 C3 F1 45.3(2)
N1 C2 C3 N6 -76.9(2)
N1 C2 C3 N5 167.42(15)
O3 N6 C3 F1 -126.12(19)
O4 N6 C3 F1 52.7(2)
O3 N6 C3 C2 0.5(2)
O4 N6 C3 C2 179.31(17)
O3 N6 C3 N5 119.59(19)
O4 N6 C3 N5 -61.6(2)
O1 N5 C3 F1 11.0(2)
O2 N5 C3 F1 -169.86(17)
O1 N5 C3 C2 -114.7(2)
O2 N5 C3 C2 64.5(2)
O1 N5 C3 N6 123.74(19)
O2 N5 C3 N6 -57.1(2)
