#------------------------------------------------------------------------------
#$Date: 2019-11-24 07:27:20 +0200 (Sun, 24 Nov 2019) $
#$Revision: 237118 $
#$URL: file:///home/coder/svn-repositories/cod/cif/1/55/43/1554312.cif $
#------------------------------------------------------------------------------
#
# This file is available in the Crystallography Open Database (COD),
# http://www.crystallography.net/
#
# All data on this site have been placed in the public domain by the
# contributors.
#
data_1554312
loop_
_publ_author_name
'Li, Sujia'
'Lv, Jian'
'Luo, Sanzhong'
_publ_section_title
;
 Enantioselective indium(i)-catalyzed [4 + 2] annulation of alkoxyallenes
 and \b,\g-unsaturated \a-keto esters
;
_journal_issue                   11
_journal_name_full               'Organic Chemistry Frontiers'
_journal_page_first              1787
_journal_paper_doi               10.1039/C8QO00319J
_journal_volume                  5
_journal_year                    2018
_chemical_absolute_configuration ad
_chemical_formula_moiety         'C16 H17 Br O4'
_chemical_formula_sum            'C16 H17 Br O4'
_chemical_formula_weight         353.20
_space_group_crystal_system      monoclinic
_space_group_IT_number           4
_space_group_name_Hall           'P 2yb'
_space_group_name_H-M_alt        'P 1 21 1'
_atom_sites_solution_hydrogens   geom
_atom_sites_solution_primary     dual
_audit_creation_date             2018-03-01
_audit_creation_method
;
Olex2 1.2
(compiled 2017.08.10 svn.r3458 for OlexSys, GUI svn.r5381)
;
_audit_update_record
;
2018-03-01 deposited with the CCDC.
2018-04-08 downloaded from the CCDC.
;
_cell_angle_alpha                90
_cell_angle_beta                 115.216(5)
_cell_angle_gamma                90
_cell_formula_units_Z            2
_cell_length_a                   10.573(4)
_cell_length_b                   7.311(2)
_cell_length_c                   11.350(4)
_cell_measurement_reflns_used    2735
_cell_measurement_temperature    173(2)
_cell_measurement_theta_max      27.4719
_cell_measurement_theta_min      1.9833
_cell_volume                     793.7(5)
_computing_cell_refinement       'CrystalClear (Rigaku Inc., 2007)'
_computing_data_collection       'CrystalClear (Rigaku Inc., 2007)'
_computing_data_reduction        'CrystalClear (Rigaku Inc., 2007)'
_computing_molecular_graphics    'Olex2 (Dolomanov et al., 2009)'
_computing_publication_material  'CIFTAB (Sheldrick, 2014)'
_computing_structure_refinement  'ShelXL (Sheldrick, 2015)'
_computing_structure_solution    'ShelXT (Sheldrick, 2015)'
_diffrn_ambient_temperature      173.15
_diffrn_measured_fraction_theta_full 0.997
_diffrn_measured_fraction_theta_max 0.996
_diffrn_measurement_device_type  'MM007-HF CCD(Saturn 724+)'
_diffrn_measurement_method       '\w scans at fixed \c = 45\%'
_diffrn_radiation_monochromator  Confocal
_diffrn_radiation_type           MoK\a
_diffrn_radiation_wavelength     0.71073
_diffrn_reflns_av_R_equivalents  0.0504
_diffrn_reflns_av_unetI/netI     0.0500
_diffrn_reflns_Laue_measured_fraction_full 0.997
_diffrn_reflns_Laue_measured_fraction_max 0.996
_diffrn_reflns_limit_h_max       13
_diffrn_reflns_limit_h_min       -13
_diffrn_reflns_limit_k_max       9
_diffrn_reflns_limit_k_min       -9
_diffrn_reflns_limit_l_max       14
_diffrn_reflns_limit_l_min       -14
_diffrn_reflns_number            9096
_diffrn_reflns_point_group_measured_fraction_full 0.992
_diffrn_reflns_point_group_measured_fraction_max 0.990
_diffrn_reflns_theta_full        25.242
_diffrn_reflns_theta_max         27.482
_diffrn_reflns_theta_min         1.983
_diffrn_source                   'Rotating Anode'
_exptl_absorpt_coefficient_mu    2.602
_exptl_absorpt_correction_T_max  1.00000
_exptl_absorpt_correction_T_min  0.73450
_exptl_absorpt_correction_type   multi-scan
_exptl_absorpt_process_details   'CrystalClear (Rigaku Inc., 2007)'
_exptl_crystal_colour            colorless
_exptl_crystal_density_diffrn    1.478
_exptl_crystal_description       plate
_exptl_crystal_F_000             360
_exptl_crystal_size_max          0.242
_exptl_crystal_size_mid          0.203
_exptl_crystal_size_min          0.057
_refine_diff_density_max         0.282
_refine_diff_density_min         -0.249
_refine_diff_density_rms         0.055
_refine_ls_abs_structure_details
;
 Flack x determined using 1332 quotients [(I+)-(I-)]/[(I+)+(I-)]
 (Parsons, Flack and Wagner, Acta Cryst. B69 (2013) 249-259).
;
_refine_ls_abs_structure_Flack   0.016(8)
_refine_ls_extinction_method     none
_refine_ls_goodness_of_fit_ref   1.076
_refine_ls_hydrogen_treatment    constr
_refine_ls_matrix_type           full
_refine_ls_number_parameters     192
_refine_ls_number_reflns         3605
_refine_ls_number_restraints     1
_refine_ls_restrained_S_all      1.076
_refine_ls_R_factor_all          0.0388
_refine_ls_R_factor_gt           0.0359
_refine_ls_shift/su_max          0.001
_refine_ls_shift/su_mean         0.000
_refine_ls_structure_factor_coef Fsqd
_refine_ls_weighting_details
'w=1/[\s^2^(Fo^2^)+(0.0270P)^2^+0.2297P] where P=(Fo^2^+2Fc^2^)/3'
_refine_ls_weighting_scheme      calc
_refine_ls_wR_factor_gt          0.0770
_refine_ls_wR_factor_ref         0.0793
_reflns_Friedel_coverage         0.842
_reflns_Friedel_fraction_full    0.986
_reflns_Friedel_fraction_max     0.982
_reflns_number_gt                3405
_reflns_number_total             3605
_reflns_threshold_expression     'I > 2\s(I)'
_cod_data_source_file            c8qo00319j2.cif
_cod_data_source_block           mx6831a
_cod_database_code               1554312
_shelx_shelxl_version_number     2016/6
_shelx_space_group_comment
;
The symmetry employed for this shelxl refinement is uniquely defined
by the following loop, which should always be used as a source of
symmetry information in preference to the above space-group names.
They are only intended as comments.
;
_shelx_estimated_absorpt_t_max   0.866
_shelx_estimated_absorpt_t_min   0.572
_olex2_refinement_description
;
1. Fixed Uiso
 At 1.2 times of:
  All C(H) groups, All C(H,H) groups
 At 1.5 times of:
  All C(H,H,H) groups
2.a Ternary CH refined with riding coordinates:
 C10(H10), C7(H7)
2.b Secondary CH2 refined with riding coordinates:
 C14(H14A,H14B)
2.c Aromatic/amide H refined with riding coordinates:
 C2(H2), C3(H3), C6(H6), C5(H5), C8(H8)
2.d X=CH2 refined with riding coordinates:
 C16(H16A,H16B)
2.e Idealised Me refined as rotating group:
 C15(H15A,H15B,H15C), C13(H13A,H13B,H13C)
;
_shelx_res_file
;
TITL mx6831a in P2(1)
    mx6831a.res
    created by SHELXL-2016/6 at 10:07:07 on 01-Mar-2018
CELL 0.71073 10.5734 7.3105 11.3498 90 115.216 90
ZERR 2 0.0038 0.0024 0.0042 0 0.005 0
LATT -1
SYMM -X,0.5+Y,-Z
SFAC C H Br O
UNIT 32 34 2 8

L.S. 4
PLAN  20
SIZE 0.242 0.203 0.057
TEMP -100
BOND
CONF
HTAB
fmap 2
ACTA
OMIT 3 -2 4
REM <olex2.extras>
REM <HklSrc "%.\\mx6831a.hkl">
REM </olex2.extras>

WGHT    0.027000    0.229700
FVAR       1.08749
BR1   3    0.689595    0.273650    0.888266    11.00000    0.04798    0.04772 =
         0.03093    0.00747    0.02276   -0.00240
O4    4    0.672820    0.756628    0.158057    11.00000    0.02735    0.03637 =
         0.02503    0.01100    0.01130    0.00351
C10   1    0.797231    0.768002    0.273038    11.00000    0.02562    0.02132 =
         0.03071    0.00233    0.01029   -0.00006
AFIX  13
H10   2    0.836699    0.894313    0.282595    11.00000   -1.20000
AFIX   0
C14   1    0.692628    0.791476    0.042923    11.00000    0.04180    0.03551 =
         0.03075    0.01386    0.01932    0.00306
AFIX  23
H14A  2    0.754808    0.697544    0.032940    11.00000   -1.20000
H14B  2    0.736346    0.912926    0.048818    11.00000   -1.20000
AFIX   0
C15   1    0.552222    0.786099   -0.071448    11.00000    0.04831    0.04624 =
         0.02607    0.00502    0.01577    0.00633
AFIX 137
H15A  2    0.563727    0.803477   -0.151948    11.00000   -1.50000
H15B  2    0.493193    0.883885   -0.063045    11.00000   -1.50000
H15C  2    0.507985    0.667422   -0.074099    11.00000   -1.50000
AFIX   0
C12   1    0.927881    0.324377    0.223694    11.00000    0.02987    0.03203 =
         0.02425    0.00299    0.01202   -0.00125
O1    4    0.898012    0.637242    0.270935    11.00000    0.02311    0.02360 =
         0.03694    0.00327    0.01497   -0.00304
O2    4    0.910243    0.161206    0.221733    11.00000    0.05771    0.02296 =
         0.04756    0.00041    0.02904   -0.00133
C2    1    0.802742    0.309289    0.702926    11.00000    0.03127    0.02874 =
         0.02719    0.00570    0.01230    0.00548
AFIX  43
H2    2    0.877758    0.237737    0.762442    11.00000   -1.20000
AFIX   0
C7    1    0.694814    0.539512    0.373077    11.00000    0.02439    0.02762 =
         0.02220    0.00384    0.00838   -0.00165
AFIX  13
H7    2    0.595442    0.549921    0.307116    11.00000   -1.20000
AFIX   0
O3    4    1.014387    0.405423    0.181159    11.00000    0.03929    0.03084 =
         0.04366   -0.00050    0.02688   -0.00146
C16   1    0.792061    0.843204    0.481372    11.00000    0.03807    0.02798 =
         0.03614    0.00061    0.01444   -0.00456
AFIX  93
H16A  2    0.837782    0.955054    0.481327    11.00000   -1.20000
H16B  2    0.768572    0.815243    0.551357    11.00000   -1.20000
AFIX   0
C3    1    0.802779    0.370040    0.586927    11.00000    0.02825    0.03182 =
         0.02890    0.00256    0.01470    0.00471
AFIX  43
H3    2    0.879853    0.341498    0.568036    11.00000   -1.20000
AFIX   0
C1    1    0.690659    0.355642    0.729592    11.00000    0.03117    0.02584 =
         0.02348    0.00132    0.01259   -0.00215
C6    1    0.580484    0.458221    0.644556    11.00000    0.02760    0.03146 =
         0.03478    0.00195    0.01880   -0.00116
AFIX  43
H6    2    0.504871    0.489023    0.665056    11.00000   -1.20000
AFIX   0
C11   1    0.761270    0.727014    0.384500    11.00000    0.02151    0.02851 =
         0.02692    0.00523    0.00659    0.00005
C13   1    1.088465    0.285182    0.131592    11.00000    0.05589    0.04360 =
         0.06071   -0.00157    0.04037    0.00602
AFIX 137
H13A  2    1.021353    0.220996    0.054489    11.00000   -1.50000
H13B  2    1.141992    0.195766    0.198697    11.00000   -1.50000
H13C  2    1.152409    0.357041    0.107892    11.00000   -1.50000
AFIX   0
C5    1    0.581306    0.516133    0.528336    11.00000    0.02393    0.03052 =
         0.03020    0.00470    0.00847    0.00333
AFIX  43
H5    2    0.505555    0.586693    0.468871    11.00000   -1.20000
AFIX   0
C4    1    0.692475    0.471553    0.498158    11.00000    0.02203    0.02436 =
         0.02544    0.00306    0.00942   -0.00089
C9    1    0.859036    0.458460    0.274583    11.00000    0.02335    0.02146 =
         0.02280    0.00276    0.00549   -0.00336
C8    1    0.766749    0.407242    0.319213    11.00000    0.02975    0.02304 =
         0.02275    0.00186    0.00720   -0.00684
AFIX  43
H8    2    0.744930    0.280876    0.317107    11.00000   -1.20000
AFIX   0
HKLF 4




REM  mx6831a in P2(1)
REM R1 =  0.0359 for    3405 Fo > 4sig(Fo)  and  0.0388 for all    3605 data
REM    192 parameters refined using      1 restraints

END

WGHT      0.0270      0.2297

REM Instructions for potential hydrogen bonds
EQIV $1 x, y+1, z
HTAB C10 O2_$1
EQIV $2 x, y+1, z-1
HTAB C14 Br1_$2
EQIV $3 -x+2, y-1/2, -z+1
HTAB C2 O1_$3
HTAB C2 O3_$3

REM Highest difference peak  0.282,  deepest hole -0.249,  1-sigma level  0.055
Q1    1   0.9267  0.2778  0.3351  11.00000  0.05    0.25
Q2    1   0.8616  0.4187  0.3404  11.00000  0.05    0.22
Q3    1   0.7223  0.2676  1.0369  11.00000  0.05    0.22
Q4    1   0.4311  0.5742  0.4271  11.00000  0.05    0.21
Q5    1   0.9298  0.2620  0.8200  11.00000  0.05    0.21
Q6    1   0.8211  0.3651  0.6523  11.00000  0.05    0.21
Q7    1   0.8023  0.2271  0.6470  11.00000  0.05    0.20
Q8    1   0.7837  0.7646  0.3398  11.00000  0.05    0.20
Q9    1   0.6927  0.7689  0.6417  11.00000  0.05    0.19
Q10   1   0.6874  0.4787  0.4229  11.00000  0.05    0.19
Q11   1   1.0437  0.1129  0.3656  11.00000  0.05    0.18
Q12   1   0.5757  0.4379  0.5800  11.00000  0.05    0.18
Q13   1   0.9624  0.1460  0.7745  11.00000  0.05    0.18
Q14   1   0.9999  0.1240  0.1033  11.00000  0.05    0.18
Q15   1   0.5717  0.2304  0.7790  11.00000  0.05    0.18
Q16   1   0.4656  0.5086  0.7554  11.00000  0.05    0.18
Q17   1   0.6374  0.6904  0.1779  11.00000  0.05    0.18
Q18   1   1.0583  0.2242 -0.0441  11.00000  0.05    0.18
Q19   1   0.7136  0.1305  0.8840  11.00000  0.05    0.17
Q20   1   0.7065  0.6520  0.1575  11.00000  0.05    0.17
;
_shelx_res_checksum              34851
_shelx_hkl_file
;
   0   0   1  481.96   10.08
   0   0  -1  469.21    9.83
   0   0  -1  475.58    9.82
   0   0   2 1446.02   29.40
   0   0  -2 1487.31   29.86
   0   0  -2 1476.55   30.06
   0   0   3 1414.91   29.73
   0   0   3 1482.00   30.44
   0   0   4  726.81   17.55
   0   0  -4  624.71   14.86
   0   0   4  645.36   15.06
   0   0   5 3698.93   83.37
   0   0  -5 3286.31   73.60
   0   0   5 3428.35   76.52
   0   0  -5 3722.40   83.77
   0   0   6  353.82   16.68
   0   0  -6  324.04   14.80
   0   0  -6  314.20   14.94
   0   0   7   35.77    4.98
   0   0  -7   24.93    3.43
   0   0  -7   34.61    5.07
   0   0   8  934.68   56.85
   0   0  -8  842.97   50.52
   0   0  -8  802.18   48.88
   0   0   9   43.92    7.25
   0   0  -9   48.59    5.50
   0   0  -9   47.35    6.68
   0   0  10  299.10   24.76
   0   0 -10  245.02   19.26
   0   0 -10  272.18   22.60
   0   0  11   20.52    9.03
   0   0 -11   17.87    5.29
   0   0 -11   24.33    6.63
   0   0  12   89.45   12.76
   0   0 -12   68.14   11.50
   0   0 -12   86.45   12.45
   0   0  13  121.89   34.08
   0   0 -13  200.41   26.01
   0   1   0    2.83    0.95
   0   1   0    0.94    0.91
   0  -1   0    0.67    0.39
   0   1   0    0.17    0.33
   0   1  -1 4386.97   85.26
   0   1   1 4061.70   78.82
   0   1   1 3821.75   74.48
   0   1  -1 4322.50   83.73
   0   1   2  243.70    6.69
   0  -1  -2  294.85    7.84
   0   1   2  234.63    6.54
   0  -1   3 3192.19   64.70
   0   1  -3 3324.01   66.55
   0  -1  -3 3398.92   67.82
   0   1   3 3429.80   68.38
   0   1  -3 3472.89   67.90
   0  -1   3 3195.45   62.57
   0  -1  -3 3035.22   60.38
   0   1  -3 3415.47   68.34
   0   1  -4  805.62   19.16
   0  -1  -4  884.38   20.52
   0   1   4  671.69   16.29
   0   1  -4  836.47   18.34
   0  -1   4  793.63   17.36
   0  -1  -4  774.71   18.09
   0   1  -4  814.52   19.76
   0   1   5  165.29    7.09
   0  -1  -5  261.25    9.28
   0   1  -5  192.52    6.63
   0  -1   5  223.09    7.34
   0  -1  -5  256.93    9.27
   0   1  -5  218.96    8.65
   0  -1   6 2853.92  111.11
   0   1   6 2207.69   86.66
   0  -1  -6 2461.23   95.72
   0   1  -6 2747.87  105.75
   0  -1   6 2552.87   98.30
   0  -1  -6 2572.87  100.01
   0   1  -6 2697.93  105.19
   0  -1   7 1643.53   63.12
   0   1   7 1361.04   52.98
   0  -1  -7 1382.99   53.04
   0   1  -7 1415.37   53.23
   0  -1  -7 1312.07   50.71
   0   1  -7 1291.51   50.25
   0  -1   8   82.07    8.16
   0   1   8  209.19   16.73
   0  -1  -8   62.54    6.88
   0   1  -8  193.05   13.20
   0  -1  -8   95.12    8.67
   0  -1   9   80.40    9.52
   0   1   9  102.57   10.82
   0  -1  -9   78.24    7.60
   0   1  -9   99.47    7.77
   0  -1  -9   84.24    8.37
   0   1  -9   83.24    7.67
   0  -1  10   15.04    7.37
   0   1  10   70.76    9.81
   0  -1 -10   14.31    5.84
   0   1 -10   38.39    5.64
   0  -1 -10   15.60    4.57
   0   1 -10   30.18    5.88
   0  -1  11  424.82   40.89
   0   1  11  448.56   42.58
   0  -1 -11  442.31   40.80
   0   1 -11  423.23   38.55
   0   1 -11  398.82   37.67
   0  -1 -11  386.31   36.66
   0  -1  12  263.19   64.95
   0   1  12  233.97   27.17
   0  -1 -12  322.16   34.66
   0  -1 -12  245.22   27.68
   0   1 -12  207.70   24.19
   0  -1  13   28.45    7.58
   0   1  13   27.69    8.44
   0  -1 -13   11.76    5.59
   0  -1 -13   19.27    6.68
   0   1 -13   46.67   10.63
   0  -2  -1 9014.76  194.78
   0   2  -1 8961.37  173.73
   0  -2  -1 7837.55  152.13
   0   2   1 9999.00  216.01
   0   2  -2  163.67    6.45
   0  -2  -2  133.70    4.76
   0   2  -2  160.45    4.38
   0  -2  -2  139.65    5.66
   0   2   2  171.42    5.87
   0   2  -2  161.20    4.53
   0   2  -2  172.57    5.33
   0  -2  -2  143.76    3.89
   0   2  -3 1184.03   26.37
   0  -2  -3 1025.35   22.88
   0   2  -3 1050.28   21.75
   0  -2  -3 1093.42   24.82
   0   2  -3 1121.54   23.06
   0   2  -3 1047.36   23.27
   0  -2  -3 1115.89   23.38
   0  -2   4 2009.87   47.35
   0   2  -4 2212.79   49.09
   0  -2   4 2279.43   50.63
   0  -2  -4 2237.28   50.58
   0   2  -4 2130.52   49.48
   0  -2   5 1396.20   36.51
   0   2   5 1342.51   33.54
   0   2  -5 1565.15   35.84
   0  -2   5 1427.45   32.96
   0  -2  -5 1419.28   33.94
   0   2   6  829.09   33.31
   0  -2  -6  937.61   37.30
   0   2  -6  885.71   33.58
   0  -2   6  918.15   34.80
   0  -2  -6  873.28   34.13
   0   2  -6  787.70   31.86
   0   2   7  307.78   17.57
   0  -2  -7  323.43   18.00
   0   2  -7  307.37   15.77
   0  -2   7  260.77   13.84
   0  -2  -7  285.32   15.92
   0   2  -7  295.39   17.16
   0   2   8  305.82   17.24
   0  -2  -8  351.62   17.82
   0   2  -8  240.85   11.47
   0  -2  -8  394.55   19.06
   0   2  -8  226.05   12.96
   0  -2   9  439.46   34.41
   0   2   9  362.10   29.04
   0  -2  -9  426.82   33.23
   0   2  -9  329.27   24.75
   0  -2  -9  467.43   35.65
   0   2  -9  399.26   31.66
   0  -2  10  223.24   48.87
   0   2  10  216.50   23.98
   0  -2 -10  212.15   22.48
   0   2 -10  242.24   23.95
   0  -2 -10  187.14   19.85
   0   2 -10  175.43   18.82
   0  -2  11    4.25    5.79
   0   2  11   10.13    5.49
   0  -2 -11    8.94    5.07
   0  -2 -11   19.17    7.19
   0   2 -11   -1.00    4.85
   0  -2  12   87.56   33.95
   0  -2 -12   98.02   13.46
   0  -2 -12   60.33   15.53
   0   2 -12   92.16   14.25
   0  -2  13   48.17   13.19
   0   2  13  105.59   19.58
   0  -2 -13   66.54   12.72
   0  -2 -13   28.08    7.73
   0   2 -13   82.97   15.37
   0   3   0    1.76    2.40
   0  -3   0    4.98    2.72
   0  -3   0    0.84    1.96
   0   3   0    4.26    2.57
   0   3   0    3.84    1.13
   0   3  -1 2560.63   52.90
   0   3   1 2581.81   52.72
   0  -3  -1 2665.40   54.25
   0   3  -1 2749.70   56.25
   0  -3   1 2787.30   55.88
   0   3  -1 2575.69   51.62
   0  -3  -1 2573.46   52.78
   0   3   1 2336.51   48.00
   0   3  -1 2662.90   52.96
   0  -3   2 2791.04   63.77
   0   3   2 2815.45   63.53
   0  -3  -2 3061.15   68.65
   0  -3   2 3243.74   71.78
   0   3  -2 2870.45   63.30
   0  -3  -2 2919.95   66.35
   0   3  -2 2749.80   61.95
   0  -3  -2 3038.20   65.79
   0  -3   3  507.21   16.04
   0   3   3  488.79   13.98
   0  -3  -3  480.43   13.69
   0   3  -3  515.26   13.04
   0  -3  -3  504.18   14.87
   0   3  -3  496.78   12.65
   0   3  -3  532.32   14.74
   0  -3  -3  553.66   13.39
   0   3  -3  521.89   14.73
   0  -3   4   76.98    5.12
   0   3   4  102.38    6.75
   0   3  -4  110.02    4.40
   0  -3  -4   64.99    5.74
   0   3  -4  110.36    4.37
   0  -3  -4   85.77    4.76
   0   3  -4   95.20    6.43
   0  -3   5  402.61   20.89
   0   3   5  418.09   19.00
   0   3  -5  390.52   16.21
   0  -3  -5  469.54   21.26
   0   3  -5  362.47   15.04
   0  -3  -5  384.66   16.50
   0   3  -5  371.19   17.27
   0  -3   6 1043.06   51.43
   0   3   6  930.63   45.75
   0   3  -6  861.85   40.82
   0  -3  -6 1107.03   54.07
   0   3  -6  981.00   46.22
   0   3  -6  987.46   48.30
   0  -3   7  277.48   19.11
   0   3   7  429.00   27.67
   0  -3  -7  309.85   20.87
   0   3  -7  404.73   24.49
   0  -3   7  277.08   17.32
   0  -3  -7  315.62   20.28
   0   3  -7  394.70   26.12
   0  -3   8   42.46    8.97
   0   3   8   15.56    7.17
   0  -3  -8   27.35    6.74
   0  -3  -8   43.43    5.65
   0   3  -8   24.46    5.48
   0  -3   9   22.87    7.73
   0   3   9   25.71    7.32
   0  -3  -9   35.71    7.04
   0   3  -9   14.37    3.27
   0  -3  -9   21.36    4.44
   0   3  -9    9.08    5.50
   0  -3  10   92.63   32.14
   0   3  10  111.55   19.94
   0  -3 -10  127.29   23.17
   0  -3 -10  103.46   18.54
   0   3 -10  106.82   19.35
   0  -3  11  299.47   32.50
   0   3  11  371.01   39.52
   0  -3 -11  313.28   33.40
   0  -3 -11  319.25   33.42
   0   3 -11  334.86   36.03
   0  -3  12   99.99   32.35
   0   3  12  115.77   15.11
   0  -3 -12  156.94   21.16
   0  -3 -12  106.77   14.07
   0   3 -12  150.99   19.28
   0   4   0 2188.64   50.97
   0  -4   0 2147.95   49.93
   0   4   0 1969.30   43.18
   0   4   0 2085.55   45.70
   0   4   1 1147.34   28.53
   0   4  -1 1041.69   26.66
   0  -4   1 1050.56   26.14
   0  -4  -1 1117.89   28.20
   0   4  -1 1052.35   25.54
   0   4  -1 1076.82   25.98
   0   4  -1 1182.89   27.40
   0   4   2  776.11   31.86
   0   4  -2  694.85   29.33
   0  -4   2  781.52   31.81
   0  -4  -2  801.15   33.21
   0   4  -2  725.02   29.00
   0   4  -2  737.88   29.59
   0   4  -2  765.03   30.66
   0  -4   3  344.25   16.70
   0   4   3  430.35   19.10
   0  -4   3  378.73   16.08
   0   4  -3  384.04   16.00
   0  -4  -3  361.77   16.98
   0  -4  -3  377.41   15.27
   0  -4  -3  378.53   14.96
   0   4  -3  375.02   16.39
   0  -4   4 1883.15   74.34
   0   4   4 2196.55   81.99
   0   4  -4 1780.47   65.28
   0   4  -4 1799.34   66.22
   0  -4  -4 1854.34   67.77
   0  -4  -4 1906.95   69.64
   0   4  -4 1841.78   69.09
   0  -4   5 1196.59   61.60
   0   4   5 1347.06   64.64
   0   4  -5 1178.93   55.52
   0  -4  -5 1248.33   60.76
   0   4  -5 1277.27   59.80
   0  -4  -5 1111.64   52.65
   0  -4  -5 1228.37   57.65
   0   4  -5 1335.48   64.07
   0  -4   6  175.07   14.32
   0   4   6  241.40   17.76
   0   4  -6  236.07   14.68
   0  -4  -6  205.91   15.28
   0   4  -6  267.40   16.49
   0  -4  -6  193.99   12.80
   0   4  -6  243.02   17.15
   0  -4   7   11.70    5.06
   0   4   7   36.52    5.78
   0  -4  -7    5.82    5.22
   0   4  -7   20.24    2.46
   0  -4  -7   16.45    2.77
   0   4  -7   18.04    4.45
   0  -4   8  453.32   36.55
   0   4   8  459.74   36.02
   0  -4  -8  524.84   40.76
   0   4  -8  456.80   33.27
   0  -4  -8  560.99   41.54
   0   4  -8  444.77   34.65
   0  -4   9  157.48   30.84
   0   4   9  169.49   17.05
   0  -4  -9  145.73   25.85
   0  -4  -9  179.31   15.74
   0   4  -9  177.28   16.90
   0  -4  10   63.79   20.84
   0   4  10   77.17   18.24
   0  -4 -10   68.32   17.34
   0  -4 -10   44.00   10.60
   0   4 -10   83.85   19.13
   0  -4  11   11.16    4.60
   0   4  11    5.46    5.55
   0  -4 -11   15.49    6.35
   0  -4 -11    5.40    3.59
   0   4 -11    8.04    5.74
   0  -4  12   38.94   18.79
   0   4  12   95.47   17.19
   0  -4 -12   57.63   11.60
   0  -4 -12   79.78   13.78
   0   4 -12  104.34   18.30
   0   5   0   10.44    3.78
   0   5   0    5.59    1.29
   0   5   0    2.84    0.98
   0   5   1  997.57   39.07
   0   5  -1  927.84   36.88
   0  -5   1  928.54   36.24
   0  -5  -1  877.49   34.95
   0   5  -1  893.11   33.36
   0   5  -1  938.88   35.07
   0   5   2 1061.49   41.51
   0   5  -2 1201.94   46.98
   0  -5   2 1144.37   44.20
   0  -5  -2 1109.36   43.45
   0   5  -2  972.32   36.86
   0   5  -2 1054.82   39.86
   0   5   3  430.73   22.59
   0   5  -3  404.65   22.11
   0  -5   3  558.96   27.69
   0  -5  -3  561.80   29.18
   0   5  -3  387.24   19.34
   0   5  -3  464.49   23.44
   0   5   4  106.94    8.66
   0   5  -4  124.09   10.78
   0   5  -4  101.00    7.24
   0  -5  -4   72.24    7.84
   0   5  -4  101.96    7.42
   0  -5  -4   74.51    5.37
   0  -5  -4   71.30    4.58
   0   5  -4  123.08    9.35
   0  -5   5  432.40   21.88
   0   5   5  503.28   23.29
   0   5  -5  389.28   16.54
   0   5  -5  453.33   19.25
   0  -5  -5  444.13   18.32
   0   5  -5  474.38   22.04
   0  -5   6  241.61   17.06
   0   5   6  338.01   21.36
   0  -5  -6  248.92   17.12
   0   5  -6  365.19   20.65
   0  -5  -6  212.12   12.73
   0   5  -6  369.07   22.95
   0  -5   7  285.46   23.54
   0   5   7  168.61   14.87
   0  -5  -7  290.33   23.99
   0  -5  -7  279.45   20.72
   0   5  -7  170.57   15.05
   0  -5   8  210.70   19.75
   0   5   8  154.15   26.91
   0  -5  -8  166.11   16.64
   0  -5  -8  188.61   15.83
   0   5  -8  165.76   15.80
   0  -5   9   35.35   13.08
   0   5   9   43.48   11.53
   0  -5  -9   41.26   10.69
   0   5  -9   27.93    8.72
   0  -5  10  137.37   17.21
   0   5  10  116.27   16.03
   0  -5 -10  178.29   21.96
   0   5 -10  129.96   16.04
   0  -5  11  102.73   24.66
   0   5  11  121.48   17.34
   0  -5 -11  156.66   21.29
   0   5 -11  153.00   20.32
   0   6   0 1088.69   45.57
   0  -6   0  906.65   38.32
   0   6   1  819.97   35.22
   0   6  -1  957.01   40.80
   0  -6   1  896.23   41.23
   0  -6  -1  877.74   37.40
   0   6  -1  800.88   31.82
   0   6  -1  851.88   33.81
   0   6   2   10.64    3.79
   0   6  -2    8.23    4.09
   0  -6   2   12.96    4.69
   0  -6  -2   11.73    4.12
   0   6  -2    3.33    1.70
   0   6  -2   15.63    3.02
   0   6   3   52.38    6.16
   0   6  -3   44.40    5.36
   0  -6   3   49.38   12.85
   0  -6  -3   57.93    6.07
   0   6  -3   45.90    4.42
   0   6   4  731.27   42.33
   0   6  -4  716.52   42.34
   0  -6  -4  945.33   54.22
   0   6  -4  705.77   39.42
   0   6  -4  758.02   42.75
   0   6   5  815.98   59.07
   0   6  -5  725.00   53.40
   0  -6  -5  666.19   49.22
   0   6  -5  734.74   51.91
   0   6  -5  748.83   53.91
   0   6   6   93.03   11.39
   0   6  -6   80.06   11.75
   0  -6  -6   48.32    9.09
   0   6  -6   84.88   10.05
   0  -6   7   63.47   19.08
   0   6   7   77.55   13.38
   0  -6  -7   91.20   15.17
   0   6  -7   95.16   15.46
   0  -6   8   43.13   25.28
   0   6   8   60.84   10.57
   0  -6  -8   52.49   10.80
   0   6  -8   59.64   10.66
   0  -6   9   51.76   20.29
   0   6   9   83.84   12.36
   0  -6  -9   68.36   17.72
   0   6  -9   66.69   17.49
   0  -6  10   30.96   15.97
   0   6  10   38.22    9.57
   0  -6 -10   57.27   10.31
   0   6 -10   20.65    7.56
   0   7   0   13.04    5.69
   0  -7   0    4.81    5.47
   0   7   1   95.14    9.57
   0   7  -1   83.67    9.34
   0  -7   1  121.70   27.75
   0  -7  -1  160.50   13.85
   0   7   2  437.67   32.86
   0   7  -2  392.07   30.00
   0  -7   2  475.78   35.16
   0  -7  -2  454.74   36.67
   0   7   3   62.13    8.41
   0   7  -3   65.03    9.02
   0  -7   3   30.29    8.11
   0  -7  -3   48.93    9.72
   0   7  -3   45.03    5.66
   0   7   4  179.14   16.39
   0   7  -4  176.66   16.67
   0  -7  -4  165.07   16.20
   0   7  -4  146.88   24.59
   0   7  -4  144.58   24.27
   0   7   5   49.85   10.77
   0   7  -5   29.91    7.50
   0  -7  -5   24.79    6.74
   0   7  -5   36.95    7.43
   0   7   6  151.94   13.23
   0   7  -6  137.51   13.50
   0  -7  -6  187.16   15.90
   0   7  -6  149.81   11.86
   0   7   7  183.27   21.29
   0   7  -7  178.13   22.17
   0  -7  -7  195.81   23.38
   0   7  -7  173.75   19.88
   0   7   8   -2.33    4.89
   0   7  -8   14.08    7.06
   0   7  -8    4.46    5.27
   0   7   9   17.50    5.72
   0   7  -9   14.12    6.32
   0  -7  -9    6.55    7.06
   0   7  -9   17.24    5.28
   0   8   0  362.84   34.12
   0  -8   0  387.94   36.11
   0   8   1  252.77   19.15
   0   8  -1  304.22   22.81
   0  -8   1  263.77   18.99
   0  -8  -1  249.77   18.70
   0   8   2   21.26    7.16
   0   8  -2    9.25    5.25
   0  -8   2   16.82    6.07
   0  -8  -2    9.81    6.03
   0   8   3   46.39    8.28
   0   8  -3   53.18   10.09
   0  -8  -3   46.63   15.27
   0   8   4  145.87   17.33
   0   8  -4  130.38   16.65
   0  -8  -4   92.09   22.59
   0   8   5   95.05   12.66
   0   8  -5   65.43   18.36
   0  -8  -5   66.04   27.85
   0   8   6   15.51    6.27
   0   8  -6   11.10    5.70
   0  -8  -6   16.21    7.07
   0   8   7   49.39   10.13
   0   8  -7   50.87   10.96
   0   9   0    3.30    4.40
   0  -9   0    4.35    3.21
   0   9   1   77.72   12.24
   0   9  -1  109.73   14.38
   0  -9  -1  123.67   15.36
   0   9   2   66.32   10.20
   0   9  -2   51.38    8.83
   0  -9  -2   51.24    9.94
   0   9   3   37.32    8.01
   0  -9  -3   15.29    7.08
   0   9  -4   11.23    5.38
   0  -9  -4    4.04    3.82
   1   0 -13   37.79   10.70
   1   0 -13   32.40   10.01
  -1   0  12  356.07   38.25
   1   0 -12  300.85   31.76
   1   0 -12  306.89   33.21
  -1   0  11  265.70   24.21
   1   0 -11  176.60   16.21
   1   0 -11  193.78   18.29
  -1   0  10  473.16   37.29
   1   0 -10  416.07   32.09
   1   0 -10  424.49   33.24
  -1   0   9  277.27   16.02
   1   0  -9  266.11   14.21
   1   0  -9  265.37   15.00
  -1   0   8  979.39   48.57
   1   0  -8  933.13   45.64
   1   0  -8 1169.87   57.00
  -1   0   7 1080.74   42.66
   1   0  -7 1097.37   42.55
   1   0  -7  957.35   37.96
  -1   0   6 2771.29   64.24
   1   0  -6 2695.68   61.96
   1   0  -5  216.13    7.93
  -1   0   5  178.77    6.78
   1   0  -4 2979.85   60.01
  -1   0   4 2994.82   60.09
   1   0  -4 2550.51   52.14
  -1   0   3 3437.94   68.07
   1   0  -3 3048.57   60.50
   1   0  -3 3580.22   70.71
  -1   0   3 3146.10   62.53
  -1   0   2   41.16    2.11
   1   0  -2   38.04    1.94
   1   0  -2   38.99    2.24
  -1   0   2   38.15    2.06
  -1   0   2   35.54    5.70
   1   0  -2   36.46    2.83
   1   0  -1  149.78    3.64
   1   0  -1  171.28    4.41
  -1   0   1  137.37    3.65
  -1   0   1  165.68    4.16
   1   0   0   18.89    1.82
  -1   0   0    9.28    0.94
   1   0   0   13.41    1.15
   1   0   1   51.32    2.67
  -1   0  -1   50.94    1.92
   1   0   1   67.07    2.69
   1   0   3 3596.48   71.98
  -1   0  -3 3799.76   75.63
  -1   0  -3 4077.73   80.05
   1   0   3 3842.83   75.58
   1   0   3 3281.06   65.87
   1   0   4  794.64   19.37
  -1   0  -4  865.44   19.46
   1   0   4  916.63   20.36
  -1   0  -5 1962.17   45.26
   1   0   5 1793.54   41.58
   1   0   6 1448.35   58.16
  -1   0  -6 1279.41   50.63
  -1   0  -6 1433.84   57.62
   1   0   7 1459.12   70.39
  -1   0  -7 1520.47   71.98
  -1   0  -7 1472.48   70.78
   1   0   8  131.58   10.18
  -1   0  -8  147.30    9.06
  -1   0  -8  163.12   10.77
   1   0   9   17.15    6.25
  -1   0  -9    4.53    2.87
  -1   0  -9    6.46    4.61
   1   0  10  311.73   31.93
  -1   0 -10  302.04   29.63
  -1   0 -10  324.42   33.11
   1   0  11  212.57   17.43
  -1   0 -11  189.91   14.41
  -1   0 -11  188.07   15.88
   1   0  12  121.49   41.65
  -1   0 -12  125.59   16.42
  -1  -1  13  152.92   32.08
  -1   1  13  182.37   22.41
   1  -1 -13  173.82   20.78
   1  -1 -13  108.37   14.07
   1   1 -13  202.75   24.58
  -1  -1  12   20.75    8.10
  -1   1  12   10.79    6.12
   1  -1 -12   32.72    7.62
   1   1 -12   18.32    5.22
   1  -1 -12   31.57    7.18
   1   1 -12   32.37    9.11
  -1  -1  11   66.09   12.99
  -1   1  11   83.63   16.78
   1  -1 -11   69.91   14.45
   1   1 -11   68.19   12.72
   1  -1 -11   64.00   12.77
   1   1 -11   68.86   13.82
  -1  -1  10 1551.38  110.36
  -1   1  10 1334.89   97.73
   1  -1 -10 1311.80   95.41
   1   1 -10 1409.38  101.60
   1  -1 -10 1581.34  111.80
   1   1 -10 1390.35  101.25
  -1  -1   9 1892.57   77.32
  -1   1   9 2106.52   85.85
   1  -1  -9 2171.25   87.36
   1   1  -9 1910.41   76.47
   1  -1  -9 2007.61   81.31
  -1  -1   8   82.42    7.27
  -1   1   8  148.67   10.61
   1  -1  -8  115.07    8.80
   1   1  -8  144.45    9.15
   1  -1  -8   98.86    7.94
   1   1  -8  120.15    9.12
  -1   1   7   41.76    5.22
   1  -1  -7   51.80    5.21
   1   1  -7   45.58    4.11
   1  -1  -7   71.91    5.94
   1   1  -7   59.98    6.39
  -1   1   6  984.75   26.17
   1  -1  -6 1049.16   27.28
   1   1  -6  972.91   24.52
  -1  -1   6  866.00   21.97
   1  -1  -6  891.04   23.66
  -1  -1   5 4537.95  101.14
  -1   1   5 5251.67  116.52
   1  -1  -5 4729.10  105.35
   1   1  -5 4746.13  104.51
  -1  -1   5 4490.75   98.95
   1  -1  -5 4585.61  101.82
  -1  -1   4 3067.94   62.17
   1   1  -4 2764.43   56.06
   1  -1  -4 2867.32   58.58
  -1   1   4 3158.38   63.82
   1   1  -4 3039.10   60.64
  -1  -1   4 3185.14   63.45
   1   1  -4 2870.36   58.41
   1  -1  -4 3192.12   64.01
  -1  -1   3  172.43    5.72
   1   1  -3  156.78    5.16
  -1   1   3  166.71    5.79
   1  -1  -3  189.19    6.40
  -1  -1   3  162.78    5.12
  -1  -1   3  172.32    6.08
   1  -1  -3  179.08    7.69
   1   1  -2 1119.23   22.99
  -1   1   2 1059.25   22.35
  -1   1   2 1133.01   23.80
   1   1  -2 1054.42   21.95
   1   1  -2  931.96   20.39
   1  -1  -2 1201.43   24.18
  -1   1   1 5168.67  100.40
   1   1  -1 4621.09   89.95
  -1   1   1 4423.36   85.88
   1   1  -1 5105.13   98.76
   1   1   1 3351.63   65.21
  -1   1  -1 3811.06   74.53
   1  -1   2 4310.36   85.63
  -1   1  -2 3395.40   68.08
  -1  -1  -2 3677.90   72.25
  -1  -1  -2 3547.30   70.27
  -1   1  -2 3943.38   75.86
  -1  -1  -2 4153.02   81.48
  -1   1  -2 3789.54   75.07
  -1   1  -3  859.46   20.11
   1  -1   4  254.76   16.12
  -1  -1  -4  303.82    9.57
  -1  -1  -4  339.39   10.65
  -1   1  -4  308.49    8.53
   1   1   4  300.33    9.56
   1  -1   4  285.34    7.95
  -1  -1  -4  281.76    9.33
  -1   1  -4  341.05   11.18
   1   1   4  293.62    9.39
   1  -1   5  506.56   18.16
  -1  -1  -5  574.93   16.21
  -1   1  -5  660.95   16.65
   1  -1   5  564.82   14.57
  -1  -1  -5  578.06   16.71
  -1   1  -5  712.98   20.13
   1  -1   6  403.27   18.41
   1   1   6  366.56   17.26
  -1  -1  -6  344.95   15.42
  -1   1  -6  371.66   15.48
   1  -1   6  351.53   14.66
  -1  -1  -6  332.33   15.15
  -1   1  -6  387.04   17.84
   1  -1   7  167.83   14.69
   1   1   7  188.69   12.16
  -1  -1  -7  175.41   10.86
  -1   1  -7  173.50    9.93
  -1  -1  -7  186.73   11.56
  -1   1  -7  159.96   10.80
   1  -1   8  529.30   25.74
   1   1   8  617.57   28.62
  -1  -1  -8  608.22   26.97
  -1   1  -8  518.34   22.39
  -1  -1  -8  573.04   26.18
  -1   1  -8  633.23   28.87
   1  -1   9  826.69   64.14
   1   1   9  789.55   59.24
  -1   1  -9  757.38   55.14
  -1  -1  -9  882.40   64.69
  -1  -1  -9  937.05   69.07
  -1   1  -9  811.02   60.28
   1  -1  10  150.03   40.94
   1   1  10  206.62   19.81
  -1  -1 -10  133.40   22.87
  -1   1 -10  182.63   15.69
  -1  -1 -10  142.36   24.67
   1  -1  11   42.14   11.29
   1   1  11   38.32    7.77
  -1  -1 -11   61.76    9.90
  -1  -1 -11   63.00   10.20
  -1   1 -11   58.16   10.16
   1  -1  12   86.22   20.64
   1   1  12  157.36   22.48
  -1  -1 -12   74.60   11.20
  -1  -1 -12   65.75   10.81
  -1   1 -12  122.92   16.44
  -1  -2  13   30.66   16.19
  -1   2  13   27.27    7.94
   1  -2 -13   29.37    8.23
   1   2 -13   16.81    6.58
  -1  -2  12  203.65   44.32
  -1   2  12  303.94   34.34
   1  -2 -12  256.87   28.82
   1  -2 -12  286.44   31.31
   1   2 -12  269.94   30.14
  -1  -2  11  269.43   54.92
  -1   2  11  239.93   24.57
   1  -2 -11  265.58   26.00
   1   2 -11  213.72   20.59
   1  -2 -11  267.15   25.99
   1   2 -11  192.09   20.07
  -1  -2  10  116.43   19.96
  -1   2  10  142.68   13.98
   1  -2 -10  119.35   13.23
   1   2 -10  108.60    9.69
   1  -2 -10  110.95   10.53
   1   2 -10  132.17   12.84
  -1  -2   9  101.72   21.87
  -1   2   9  111.49   11.46
   1  -2  -9   87.32    8.95
   1   2  -9   89.68    7.02
   1  -2  -9  100.81    8.59
   1   2  -9   99.82   10.34
  -1  -2   8  395.09   26.41
  -1   2   8  393.46   26.06
   1  -2  -8  472.55   30.64
   1   2  -8  377.29   23.50
   1  -2  -8  452.92   28.52
   1   2  -8  376.28   25.07
  -1  -2   7 2379.99   89.58
  -1   2   7 2743.49  102.46
   1  -2  -7 2426.73   91.12
   1   2  -7 2669.28   98.25
   1  -2  -7 2479.76   92.17
   1   2  -7 2579.28   96.84
  -1  -2   6 1152.94   46.80
  -1   2   6  973.03   40.19
   1  -2  -6  992.93   40.88
   1   2  -6  910.04   36.44
  -1  -2   6 1050.49   41.71
   1  -2  -6 1101.16   44.13
  -1  -2   5  130.97    6.50
  -1   2   5   88.14    5.49
   1  -2  -5   95.93    6.20
   1   2  -5  101.95    4.60
  -1  -2   5  102.06    4.61
   1  -2  -5  114.19   13.77
   1  -2  -5  102.06    4.96
  -1  -2   4 2782.89   63.40
   1   2  -4 2415.14   55.18
  -1   2   4 2636.90   60.15
   1  -2  -4 2670.96   61.23
   1   2  -4 2357.34   52.91
  -1  -2   4 2507.01   56.10
   1  -2  -4 2807.99   62.27
   1  -2  -4 2843.53   63.18
  -1  -2   3 2217.14   45.65
   1   2  -3 1812.11   37.72
  -1   2   3 1892.11   39.67
   1   2  -3 1799.12   37.43
  -1   2   3 1715.03   36.39
   1   2  -3 1981.03   40.40
  -1  -2   3 2027.56   41.87
   1   2  -3 1698.01   35.79
   1  -2  -3 2141.24   42.66
  -1  -2   2 1348.02   28.24
   1   2  -2 1382.65   29.19
  -1   2   2 1545.24   32.62
   1  -2  -2 1514.42   31.87
  -1  -2   2 1394.53   29.04
   1   2  -2 1517.98   31.30
   1  -2  -2 1368.78   29.13
  -1   2   2 1485.41   31.30
  -1  -2   2 1340.17   28.07
   1   2  -2 1489.86   30.98
   1  -2  -2 1260.39   24.87
   1  -2  -1  637.64   14.56
   1   2   0   24.52    1.70
  -1   2   0   21.02    2.07
  -1  -2   0    3.89    1.97
  -1  -2   0    6.74    1.33
   1   2   0   23.71    2.23
   1  -2   0    3.45    1.56
   1  -2   0    5.95    1.49
  -1   2  -1 6188.10  121.40
   1   2   1 6714.41  129.94
  -1  -2  -1 6167.08  119.56
   1  -2   1 6146.60  118.25
   1   2   1 6146.69  120.21
   1   2   1 6326.51  122.22
  -1   2  -1 6769.65  131.20
   1  -2   1 6392.26  124.03
   1   2   2 1613.06   33.36
  -1  -2  -2 1851.29   37.86
  -1   2  -2 1696.46   32.87
  -1   2  -2 1787.05   34.67
  -1  -2  -2 1976.30   39.85
   1   2   2 1674.87   34.00
   1  -2   3 1014.65   23.99
   1   2   3  937.38   21.33
  -1  -2  -3 1028.02   22.87
  -1   2  -3 1197.50   24.03
  -1  -2  -3 1031.56   23.92
  -1   2  -3 1123.34   22.20
  -1  -2  -3 1085.53   23.51
   1   2   3 1144.21   24.63
   1  -2   4   48.48    9.23
   1   2   4   24.01    3.01
  -1  -2  -4   43.87    4.02
  -1   2  -4   33.34    1.78
   1  -2   4   35.39    2.00
  -1  -2  -4   26.09    2.95
  -1   2  -4   30.06    3.13
   1   2   4   27.01    2.61
   1  -2   5  638.10   27.99
   1   2   5  786.76   32.85
  -1  -2  -5  776.19   32.52
  -1   2  -5  709.70   27.83
   1  -2   5  740.11   29.10
  -1  -2  -5  770.65   31.60
  -1   2  -5  798.90   33.49
   1  -2   6 1781.58   68.10
   1   2   6 2391.35   89.39
  -1  -2  -6 2162.47   81.26
  -1   2  -6 1880.24   68.86
   1  -2   6 1922.91   70.60
  -1  -2  -6 1945.68   73.02
  -1   2  -6 1902.99   72.36
   1  -2   7  901.26   54.81
   1   2   7 1097.44   65.92
  -1  -2  -7  821.34   49.85
  -1   2  -7 1027.29   60.05
   1  -2   7  830.56   48.99
  -1  -2  -7  871.22   52.40
  -1   2  -7 1121.03   67.31
   1  -2   8  335.53   21.66
   1   2   8  305.47   20.39
  -1  -2  -8  320.82   20.62
  -1   2  -8  261.49   15.51
  -1  -2  -8  391.47   24.08
  -1   2  -8  290.83   19.39
   1  -2   9   12.59    5.67
   1   2   9    6.32    5.42
  -1  -2  -9   10.48    4.81
  -1   2  -9    6.31    2.74
  -1  -2  -9   17.96    5.21
  -1   2  -9    8.98    5.91
   1  -2  10  258.07   23.47
   1   2  10  221.05   20.68
  -1  -2 -10  305.17   26.17
  -1  -2 -10  308.69   26.24
  -1   2 -10  202.05   18.95
   1  -2  11  313.40   33.54
   1   2  11  291.73   32.36
  -1  -2 -11  204.51   22.56
  -1  -2 -11  294.97   31.24
  -1   2 -11  252.69   29.07
   1  -2  12   88.59   42.96
   1   2  12  129.70   17.52
  -1  -2 -12  140.71   17.37
  -1  -2 -12  212.85   25.27
  -1   2 -12  183.31   22.17
  -1  -3  13   27.38   11.94
  -1   3  13   48.01   11.87
   1  -3 -13   37.39    9.83
   1  -3 -13   57.09   11.71
   1   3 -13   29.06    8.76
  -1  -3  12  108.43   19.72
   1  -3 -12  117.17   16.00
   1  -3 -12   82.87   11.50
   1   3 -12   87.90   12.95
  -1  -3  11  139.54   31.07
  -1   3  11  165.00   14.84
   1  -3 -11  141.89   13.36
   1  -3 -11  141.41   11.94
   1   3 -11  150.63   14.48
  -1  -3  10  665.03   64.26
  -1   3  10  919.19   87.36
   1  -3 -10  784.75   75.17
   1   3 -10  797.40   74.79
   1  -3 -10  798.89   75.57
   1   3 -10  788.08   75.47
  -1  -3   9 1127.84   82.72
  -1   3   9 1279.62   93.43
   1  -3  -9 1123.77   82.50
   1   3  -9 1128.61   81.27
   1  -3  -9 1246.52   90.29
   1   3  -9 1049.93   77.20
  -1  -3   8  251.32   14.86
  -1   3   8  273.62   15.68
   1  -3  -8  267.09   15.25
   1   3  -8  285.17   13.49
   1  -3  -8  290.24   14.31
   1   3  -8  271.82   15.28
  -1  -3   7  173.16   12.48
  -1   3   7  179.15   11.77
   1  -3  -7  224.41   14.42
   1   3  -7  161.87    9.71
  -1  -3   7  151.95    9.50
   1  -3  -7  185.52   10.92
   1   3  -7  184.65   12.27
  -1  -3   6 1760.83   67.03
  -1   3   6 1523.22   58.46
   1   3  -6 1630.23   60.53
   1  -3  -6 1633.05   62.58
   1   3  -6 1728.18   64.09
   1  -3  -6 1542.24   58.70
   1  -3  -6 1734.67   64.58
  -1  -3   5 1371.11   55.04
  -1   3   5 1345.65   53.99
   1   3  -5 1249.87   49.01
   1  -3  -5 1267.13   51.31
   1   3  -5 1330.52   52.05
   1  -3  -5 1356.30   53.21
   1  -3  -5 1380.61   53.78
  -1  -3   4 1004.18   26.06
  -1   3   4  859.60   22.77
   1   3  -4  965.34   23.91
   1  -3  -4  907.46   24.20
   1   3  -4 1011.50   24.63
   1  -3  -4  886.44   21.06
   1  -3  -4  980.08   22.81
  -1  -3   3  110.51    6.24
   1   3  -3   61.57    3.54
   1   3  -3   78.63   10.73
   1  -3  -3   97.34    5.84
   1   3  -3   65.17    3.96
   1   3  -3   86.19    9.74
   1  -3  -3   90.54    4.12
   1  -3  -3   92.71    2.92
  -1  -3   2  988.81   24.48
   1   3  -2  846.94   20.91
   1  -3  -2  863.22   22.02
   1   3  -2  923.78   22.37
   1  -3  -2  993.67   24.76
  -1   3   2  873.43   22.07
  -1  -3   2 1013.05   24.32
   1   3  -2  888.51   21.73
   1   3  -1 1411.41   30.24
   1  -3  -1 1501.78   32.56
   1   3  -1 1528.70   32.06
  -1  -3   1 1329.49   31.15
   1   3  -1 1455.10   30.88
   1  -3  -1 1223.02   26.62
  -1   3   1 1369.44   29.27
  -1  -3   1 1424.79   29.61
   1   3  -1 1489.34   30.45
  -1   3   0  101.45    5.38
  -1  -3   0   54.13    3.03
   1  -3   0   55.58    3.69
  -1  -3   0   49.88    3.53
   1   3   0   92.72    4.19
   1   3   1 1120.70   24.22
  -1  -3  -1 1047.00   24.95
  -1   3  -1 1144.89   28.61
   1  -3   1 1064.69   24.86
  -1  -3  -1 1131.07   25.84
  -1   3  -1  983.90   20.69
  -1  -3  -1 1075.94   22.06
   1   3   1  982.26   20.29
  -1   3  -1 1038.55   24.25
   1   3   2  931.51   22.76
  -1  -3  -2  852.95   21.22
   1  -3   2  882.30   20.66
  -1  -3  -2  956.94   24.73
  -1   3  -2 1043.82   23.59
  -1  -3  -2  917.64   21.60
   1   3   2  983.99   22.71
  -1   3  -2 1051.26   25.39
   1   3   3 1063.23   26.24
  -1   3  -3 1096.06   24.39
  -1  -3  -3 1301.83   32.60
  -1   3  -3 1093.15   24.45
  -1   3  -3 1079.14   26.84
   1   3   3 1149.81   26.92
   1  -3   4 1148.16   47.98
   1   3   4 1239.56   49.39
  -1   3  -4 1204.23   46.09
  -1  -3  -4 1058.37   43.44
  -1   3  -4 1248.03   47.70
  -1  -3  -4 1136.38   44.69
  -1   3  -4 1247.90   49.96
   1   3   4 1348.84   52.69
   1  -3   5  554.08   25.47
   1   3   5  512.66   22.07
  -1   3  -5  535.01   20.19
  -1  -3  -5  590.11   25.04
  -1   3  -5  495.01   18.49
  -1  -3  -5  596.33   23.85
  -1   3  -5  573.27   24.03
   1  -3   6  155.17   11.51
   1   3   6  159.94   10.46
  -1   3  -6  173.66    8.85
  -1  -3  -6  196.39   13.11
  -1   3  -6  173.35    8.78
  -1  -3  -6  168.84   10.66
  -1   3  -6  167.86   11.14
   1   3   7  622.69   28.52
  -1  -3  -7  459.43   22.39
  -1   3  -7  525.23   21.30
  -1  -3  -7  433.70   19.95
  -1   3  -7  565.98   26.28
   1   3   8  260.54   21.76
  -1  -3  -8  336.20   26.78
  -1   3  -8  222.99   16.55
  -1  -3  -8  366.26   28.20
  -1   3  -8  277.34   22.64
   1   3   9  512.63   49.95
  -1  -3  -9  340.36   33.77
  -1  -3  -9  451.31   43.68
  -1   3  -9  425.14   41.69
   1  -3  10   23.57    7.88
   1   3  10   29.99    8.52
  -1  -3 -10   11.78    5.36
  -1  -3 -10   33.95    9.66
  -1   3 -10   29.64    8.97
   1  -3  11    8.16    4.02
   1   3  11    2.93    5.82
  -1  -3 -11    9.06    7.17
  -1  -3 -11    3.58    4.20
  -1   3 -11    4.47    5.54
   1  -3  12   61.43   24.54
   1   3  12  137.75   23.18
  -1  -3 -12   71.46   13.46
  -1  -3 -12   56.82   11.08
  -1   3 -12   74.41   14.30
  -1  -4  12   42.39   15.47
  -1   4  12   41.74    9.79
   1  -4 -12   56.97   10.52
   1  -4 -12   38.06    7.63
   1   4 -12   66.77   10.87
  -1  -4  11  145.07   35.48
  -1   4  11  170.14   20.69
   1  -4 -11  191.64   23.05
   1  -4 -11  160.76   18.76
   1   4 -11  192.31   22.56
  -1  -4  10  128.20   38.40
  -1   4  10  126.82   20.52
   1  -4 -10  143.36   16.52
   1  -4 -10  170.61   16.91
   1   4 -10  128.55   20.78
  -1  -4   9   30.90   11.56
  -1   4   9   29.64    7.44
   1  -4  -9   58.83    9.60
   1   4  -9   43.03    5.51
   1  -4  -9   46.08    6.15
   1   4  -9   65.03    9.77
  -1  -4   8  931.87   68.81
  -1   4   8  930.32   68.84
   1  -4  -8  935.85   69.45
   1   4  -8  801.23   57.95
   1  -4  -8  887.75   64.37
   1   4  -8  814.91   60.52
  -1  -4   7  257.86   14.20
  -1   4   7  411.47   20.52
   1  -4  -7  316.80   17.36
   1   4  -7  432.26   18.99
   1  -4  -7  320.76   14.75
   1   4  -7  328.05   17.60
  -1  -4   6  849.84   51.75
  -1   4   6  903.34   54.58
   1   4  -6  700.06   41.47
   1  -4  -6  870.38   52.96
   1   4  -6  858.42   50.72
   1  -4  -6  793.64   46.79
   1  -4  -6  851.33   50.10
   1   4  -6  873.33   52.76
  -1  -4   5    6.69    3.42
  -1   4   5   12.66    3.72
   1   4  -5    8.94    1.93
   1  -4  -5    5.58    6.13
   1   4  -5   10.92    2.31
   1  -4  -5    9.92    2.46
   1  -4  -5   12.23    1.79
  -1  -4   4  462.13   21.13
  -1   4   4  513.17   22.01
   1   4  -4  450.01   19.13
   1  -4  -4  473.40   20.87
   1   4  -4  484.75   19.84
   1  -4  -4  487.67   18.52
   1  -4  -4  497.51   18.60
  -1  -4   3 1285.48   51.41
  -1   4   3 1303.46   52.25
  -1  -4   3 1354.49   53.41
   1   4  -3 1198.80   47.55
   1  -4  -3 1374.00   54.95
   1   4  -3 1188.25   48.30
   1   4  -2 1685.48   65.94
  -1   4   2 1831.78   72.04
   1   4  -2 1727.89   67.66
  -1  -4   2 1965.65   77.10
   1   4  -2 1619.92   63.16
   1  -4  -2 1791.25   70.33
   1   4  -2 1687.08   65.40
   1   4  -1  185.28    9.25
  -1   4   1  168.32    7.26
   1   4  -1  198.84    8.12
  -1  -4   1  150.81    6.65
   1  -4  -1  148.29    6.96
  -1  -4   1  160.61    5.46
   1   4  -1  186.15    5.84
   1   4   0 2143.04   49.38
  -1   4   0 1927.47   46.19
  -1  -4   0 2209.59   50.92
  -1  -4   0 2056.31   49.61
   1  -4   0 2289.81   52.29
  -1   4   0 2058.85   47.17
  -1  -4   0 2198.91   48.76
  -1   4   0 2098.38   46.75
   1   4   0 1981.22   43.97
  -1   4   0 2141.18   47.05
   1   4   1 1676.70   65.44
  -1  -4  -1 1381.90   54.34
  -1   4  -1 1744.85   68.98
   1  -4   1 1448.77   56.59
  -1  -4  -1 1575.63   62.28
  -1   4  -1 1552.62   60.15
  -1   4  -1 1760.16   68.28
  -1  -4  -1 1232.12   47.50
  -1   4  -1 1607.83   62.02
   1   4   2  860.88   34.79
  -1   4  -2 1025.60   42.25
   1  -4   2  968.53   38.92
  -1  -4  -2 1034.52   42.26
  -1   4  -2  776.16   30.54
  -1   4  -2  825.26   34.44
  -1  -4  -2 1003.57   38.83
   1   4   2  781.83   30.38
  -1   4  -2  918.22   36.60
   1  -4   3   13.15    3.92
   1   4   3   19.47    3.16
  -1  -4  -3    7.43    4.61
  -1   4  -3   18.22    1.49
  -1   4  -3   18.28    1.86
  -1  -4  -3   13.28    2.02
  -1   4  -3   34.80    4.09
   1   4   3   17.98    1.77
   1  -4   4  134.73    8.95
   1   4   4  132.26    7.89
  -1  -4  -4  182.93   10.84
  -1   4  -4  133.52    5.61
  -1   4  -4  140.72    5.96
  -1  -4  -4  153.52    7.41
  -1   4  -4  140.31    8.10
   1  -4   5  178.86   35.57
   1   4   5  127.64   10.09
  -1   4  -5  137.99    8.34
  -1  -4  -5  120.63   10.35
  -1   4  -5  140.77    8.53
  -1  -4  -5  145.82   10.00
  -1   4  -5  124.04    9.79
   1  -4   6 1105.67   47.64
   1   4   6 1178.10   49.08
  -1   4  -6 1046.03   40.46
  -1  -4  -6 1174.93   50.10
  -1   4  -6 1086.76   42.05
  -1  -4  -6  905.36   37.20
  -1   4  -6 1180.76   49.50
   1  -4   7  350.67   27.94
   1   4   7  389.24   30.49
  -1  -4  -7  324.17   25.97
  -1  -4  -7  310.79   23.94
  -1   4  -7  333.91   26.55
   1  -4   8  316.64   31.91
   1   4   8  311.75   31.61
  -1  -4  -8  339.78   34.27
  -1  -4  -8  352.85   34.17
  -1   4  -8  286.78   29.32
   1  -4   9   69.52   30.94
   1   4   9   61.45   11.80
  -1  -4  -9   90.26   16.01
  -1  -4  -9   62.29   10.70
  -1   4  -9   55.30   11.20
   1  -4  10  223.88   38.70
   1   4  10  238.98   27.20
  -1  -4 -10  237.35   26.83
  -1  -4 -10  240.98   26.31
  -1   4 -10  253.33   29.42
   1  -4  11  206.77   34.27
   1   4  11  220.68   26.46
  -1  -4 -11  181.58   22.15
  -1  -4 -11  225.28   25.65
  -1   4 -11  260.89   30.31
  -1  -5  11   60.34   34.10
  -1   5  11  101.12   14.02
   1  -5 -11   96.14   14.48
   1   5 -11  103.09   15.31
  -1  -5  10  311.28   33.62
  -1   5  10  429.90   45.35
   1  -5 -10  283.10   31.33
   1   5 -10  386.46   40.58
  -1  -5   9  461.51   43.58
  -1   5   9  513.30   47.63
   1  -5  -9  424.14   40.04
   1   5  -9  480.54   44.49
  -1  -5   8  298.08   30.72
  -1   5   8  276.96   28.56
   1  -5  -8  354.30   35.69
   1  -5  -8  275.48   26.49
   1   5  -8  280.72   28.69
  -1  -5   7   93.62   26.76
  -1   5   7   97.41   11.31
   1  -5  -7  152.08   14.82
   1   5  -7  101.35    8.70
   1  -5  -7   99.01    8.19
   1   5  -7  111.53   11.12
  -1  -5   6  303.70   20.38
  -1   5   6  295.87   19.50
   1  -5  -6  267.22   17.79
   1   5  -6  273.44   16.84
   1  -5  -6  273.32   15.62
   1   5  -6  266.72   17.45
  -1  -5   5 1880.81   76.90
  -1   5   5 1792.17   72.79
   1  -5  -5 2016.56   81.84
   1   5  -5 1750.11   69.48
   1  -5  -5 1749.59   67.53
   1  -5  -5 1745.75   67.42
   1   5  -5 1800.08   72.42
  -1   5   4  248.86   17.09
   1   5  -4  254.20   17.69
   1  -5  -4  140.27   11.60
   1   5  -4  282.59   18.14
  -1   5   3    4.42    5.09
   1   5  -3   12.61    5.47
  -1  -5   3   21.04    4.70
   1  -5  -3    5.99    5.22
  -1   5   2  273.75   13.60
   1   5  -2  261.86   12.67
  -1  -5   2  285.86   13.61
   1  -5  -2  282.70   13.90
   1   5  -2  257.22   11.25
  -1   5   1  488.89   21.44
   1   5  -1  485.38   20.42
  -1  -5   1  630.74   26.01
   1  -5  -1  630.01   25.69
   1   5  -1  447.61   17.45
   1   5   0  391.24   16.91
  -1   5   0  320.87   15.29
  -1  -5   0  283.61   13.89
   1  -5   0  309.50   13.85
  -1   5   0  357.00   13.57
   1   5   0  355.19   13.77
  -1   5   0  351.60   13.39
   1   5   1   77.86    5.54
  -1   5  -1   70.65    6.04
   1  -5   1   50.46    7.93
  -1  -5  -1   52.58    9.27
  -1  -5  -1   44.81    5.27
  -1   5  -1   66.83   10.44
   1   5   1   69.17    3.14
  -1   5  -1   78.68    4.37
   1   5   2   57.50    5.24
  -1   5  -2   60.03    6.23
   1  -5   2   71.09   14.63
  -1  -5  -2   68.51    6.71
  -1   5  -2   49.69    3.86
  -1   5  -2   59.26    8.10
  -1  -5  -2   50.59    3.16
  -1   5  -2   60.94    4.50
   1   5   2   61.96    3.43
   1   5   3  869.45   42.44
  -1   5  -3  890.97   54.27
   1  -5   3  870.26   51.08
  -1  -5  -3  859.25   42.99
  -1   5  -3  777.24   45.60
  -1  -5  -3  812.75   38.03
  -1   5  -3  898.69   53.33
   1   5   4  472.46   29.52
  -1   5  -4  594.64   37.81
  -1   5  -4  434.99   25.79
  -1   5  -4  501.54   29.72
  -1  -5  -4  460.24   27.46
  -1   5  -4  470.51   29.29
   1  -5   5  400.37   25.75
   1   5   5  433.04   25.91
  -1  -5  -5  477.92   29.34
  -1   5  -5  401.95   22.05
  -1  -5  -5  429.51   24.32
  -1   5  -5  397.82   24.18
   1  -5   6   69.67   19.11
   1   5   6   63.12    6.97
  -1  -5  -6   84.95   10.37
  -1  -5  -6   72.52    6.90
  -1   5  -6  107.71   10.97
   1  -5   7   24.82    9.66
   1   5   7   25.48    5.27
  -1  -5  -7   21.08    6.58
  -1  -5  -7   23.43    4.46
  -1   5  -7   28.88    6.61
   1  -5   8  256.26   38.90
   1   5   8  368.76   35.13
  -1  -5  -8  228.46   23.63
  -1  -5  -8  243.43   23.02
  -1   5  -8  246.35   24.28
   1  -5   9   60.96   18.07
   1   5   9   66.65   11.69
  -1  -5  -9   96.52   12.72
  -1   5  -9   87.01   12.14
   1  -5  10   62.87   18.95
   1   5  10   70.06   11.94
  -1  -5 -10   70.12   11.67
  -1   5 -10  121.85   16.14
  -1  -6  10   23.28    7.32
  -1   6  10   60.83   12.01
   1  -6 -10   30.11   11.92
   1   6 -10   50.89   10.09
  -1  -6   9   26.42   13.92
  -1   6   9   34.56    8.38
   1  -6  -9   39.38   11.14
   1   6  -9   35.75    8.33
  -1  -6   8  477.72   33.26
  -1   6   8  453.48   31.53
   1  -6  -8  417.29   29.58
   1   6  -8  397.93   27.32
  -1  -6   7  116.59   37.32
  -1   6   7  115.88   20.45
   1  -6  -7  177.09   17.18
   1   6  -7  122.03   21.27
  -1   6   6  107.05   11.47
   1   6  -6   54.79    7.35
   1  -6  -6   53.90    9.11
   1   6  -6   87.35    8.07
   1   6  -6   89.48    8.75
  -1   6   5  270.19   22.29
   1   6  -5  190.41   16.79
   1  -6  -5  215.09   18.84
   1   6  -5  229.93   18.19
   1   6  -5  205.18   16.98
  -1   6   4  376.21   23.31
   1   6  -4  411.59   25.38
   1  -6  -4  373.28   23.54
   1   6  -4  397.46   23.55
   1   6  -4  442.17   26.00
  -1   6   3  860.08   37.54
   1   6  -3  799.32   34.71
  -1  -6   3  780.97   33.50
   1  -6  -3  811.68   35.43
   1   6  -3  839.52   34.68
  -1   6   2  487.92   22.97
   1   6  -2  426.47   19.80
   1  -6  -2  557.05   25.19
   1   6  -2  379.40   16.37
   1   6  -2  432.16   18.61
  -1   6   1   25.00    5.02
   1   6  -1   38.82    4.66
  -1  -6   1    6.64    3.90
   1  -6  -1   21.66    4.50
   1   6  -1   23.26    2.03
   1   6  -1   27.15    2.64
   1   6   0   63.34    5.40
  -1   6   0   63.19    6.77
  -1  -6   0   97.76   19.50
   1  -6   0   90.77   19.98
  -1   6   0   46.09    2.08
  -1   6   0   52.26    2.35
   1   6   0   59.87    3.13
   1   6   1  285.67   14.38
  -1   6  -1  254.07   14.37
   1  -6   1  244.23   12.52
  -1  -6  -1  223.52   12.91
  -1   6  -1  201.64    9.69
  -1   6  -1  251.08   11.04
   1   6   2  705.52   30.36
  -1   6  -2  620.41   28.76
   1  -6   2  633.77   27.91
  -1  -6  -2  619.52   29.67
  -1   6  -2  629.62   26.21
   1   6   3  385.92   23.23
  -1   6  -3  442.33   27.81
   1  -6   3  351.53   20.42
  -1  -6  -3  397.94   25.03
   1   6   4   40.40    5.75
  -1   6  -4   29.37    5.82
  -1  -6  -4   25.41    6.69
  -1   6  -4   21.56    2.79
  -1   6  -4   37.20    5.15
   1   6   5  291.43   22.67
  -1   6  -5  275.28   23.19
  -1  -6  -5  235.25   20.08
  -1   6  -5  329.34   25.30
   1   6   6   84.13   15.11
  -1   6  -6  109.39   20.31
  -1  -6  -6  124.49   22.51
  -1   6  -6   98.12   17.42
   1  -6   7  336.09   25.50
   1   6   7  355.94   24.53
  -1  -6  -7  312.09   22.86
  -1   6  -7  310.39   22.09
   1  -6   8  229.18   27.34
   1   6   8  193.76   22.07
  -1  -6  -8  214.68   25.29
  -1   6  -8  246.69   28.01
   1  -6   9   34.22   18.94
   1   6   9   58.35    9.44
  -1  -6  -9   61.13   12.13
  -1   6  -9   36.87   10.89
  -1  -7   9  181.26   24.20
  -1   7   9  233.79   30.09
   1   7  -9  195.79   24.67
  -1   7   8   35.13   11.24
   1   7  -8   33.59   11.11
   1  -7  -8   17.72    7.74
   1   7  -8    8.72    4.54
  -1   7   7   77.47   13.16
   1   7  -7   67.10   12.00
   1  -7  -7   36.71    8.56
   1   7  -7   64.83   10.67
  -1   7   6   33.94    9.27
   1   7  -6   33.56    9.50
   1  -7  -6   86.14   19.75
  -1   7   5  283.36   24.31
   1   7  -5  353.31   29.74
   1  -7  -5  355.70   30.45
   1   7  -5  334.96   27.19
   1   7  -5  313.89   25.75
  -1   7   4  554.00   53.24
   1   7  -4  642.74   61.52
   1  -7  -4  642.34   61.71
   1   7  -4  582.94   55.46
   1   7  -4  612.75   57.91
  -1   7   3   18.18    5.70
   1   7  -3   27.26    5.93
  -1  -7   3   22.28    6.55
   1  -7  -3   15.55    4.45
   1   7  -3   14.62    3.06
  -1   7   2  372.99   28.75
   1   7  -2  363.89   27.60
  -1  -7   2  476.62   35.70
   1  -7  -2  396.73   30.13
  -1   7   1  131.48   13.00
   1   7  -1  164.41   13.82
  -1  -7   1  110.40   20.67
   1  -7  -1  119.73   26.06
   1   7   0  122.75   11.24
  -1   7   0  118.96   12.66
  -1  -7   0   63.54   11.56
   1  -7   0   67.63   14.25
   1   7   1   55.09    6.59
  -1   7  -1   56.06    8.18
   1  -7   1   59.47   14.97
  -1  -7  -1   54.72   15.97
   1   7   2   22.90    5.23
  -1   7  -2   26.31    7.22
   1  -7   2   25.57    6.98
  -1  -7  -2   15.86    3.18
   1   7   3  177.27   18.54
  -1   7  -3  175.71   19.59
   1  -7   3  129.59   13.36
  -1  -7  -3  191.67   42.00
  -1   7  -3  186.47   18.53
   1   7   4  228.08   19.73
  -1   7  -4  231.55   21.14
  -1  -7  -4  228.48   40.55
  -1   7  -4  241.92   20.18
   1   7   5   30.77    8.60
  -1   7  -5   28.04    8.88
  -1  -7  -5    7.56    5.36
  -1   7  -5   23.66    6.92
   1   7   6   38.16    7.85
  -1   7  -6   35.03    8.51
  -1  -7  -6   25.75    6.82
  -1   7  -6   38.12    7.09
   1   7   7   23.07    8.05
  -1   7  -7   19.92    7.75
  -1  -7  -7   15.14    6.66
  -1   7  -7   30.76    9.32
   1   7   8   56.46   11.20
  -1   7  -8   70.44   12.75
  -1  -7  -8   50.01   11.77
  -1   7  -8   88.12   13.25
  -1   8   7   80.57   12.64
   1   8  -7   87.64   14.18
   1  -8  -7   87.96   14.32
  -1   8   6   13.42    7.73
   1   8  -6   42.07   11.64
   1  -8  -6   16.51    8.40
  -1   8   5   14.84    7.17
   1   8  -5   13.89    4.98
   1  -8  -5    8.71    5.86
  -1   8   4   14.10    5.00
   1   8  -4   14.38    6.26
   1  -8  -4   24.08    7.61
  -1   8   3  268.62   20.23
   1   8  -3  239.25   17.75
  -1  -8   3  262.14   25.59
   1  -8  -3  257.60   19.71
  -1   8   2   31.70    9.24
   1   8  -2   43.76   10.86
  -1  -8   2   44.30   16.38
   1  -8  -2   32.43   11.12
  -1   8   1   20.17    7.49
   1   8  -1    9.17    5.67
  -1  -8   1    8.30    4.52
   1  -8  -1    8.04    4.18
   1   8   0    4.92    5.26
  -1   8   0    3.89    4.59
   1  -8   0    5.56    5.28
  -1  -8   0   19.05    7.02
   1   8   1   26.86    7.79
  -1   8  -1   17.99    6.98
   1  -8   1   19.62    5.94
  -1  -8  -1   27.50    8.53
   1   8   2  316.82   21.89
  -1   8  -2  286.26   22.06
  -1  -8  -2  343.51   24.50
   1   8   3  145.52   16.33
  -1   8  -3  116.59   14.81
  -1  -8  -3  116.95   23.56
   1   8   4   15.88    5.53
  -1   8  -4   14.92    6.59
  -1  -8  -4   10.81    5.37
   1   8   5   40.23   11.04
  -1   8  -5   27.43    8.89
  -1  -8  -5   37.00   11.20
  -1   8  -6  116.39   17.25
  -1  -8  -6  127.15   39.29
  -1   9   4  102.62   17.11
   1   9  -4   93.01   16.34
   1  -9  -4   52.00   24.52
  -1   9   3    7.04    4.86
   1   9  -3   17.52    6.28
   1  -9  -3   11.10    2.92
  -1   9   2   76.74   11.62
   1   9  -2   72.59   10.27
  -1  -9   2   47.12   16.53
   1  -9  -2   67.53   26.04
  -1   9   1   15.43    5.68
  -1  -9   1   10.44   10.71
   1  -9  -1   14.69    8.46
  -1   9   0   35.66   10.70
  -1  -9   0   38.45   11.32
  -1   9  -1   10.32    5.73
  -1  -9  -1   20.91    8.74
  -1   9  -2   23.23    8.11
  -1  -9  -2   11.48    7.50
  -1   9  -3   62.70   12.38
  -1  -9  -3   60.42   26.31
  -2   0  14  374.16   57.80
   2   0 -14  308.94   46.78
   2   0 -14  356.50   54.41
  -2   0  13  107.49   14.88
   2   0 -13  100.36   13.48
   2   0 -13  125.74   16.64
  -2   0  12   50.74   13.41
   2   0 -12   34.35    9.24
   2   0 -12   37.79   11.19
  -2   0  11  228.64   24.42
   2   0 -11  211.73   22.55
   2   0 -11  277.02   28.86
  -2   0  10  544.79   33.32
   2   0 -10  514.27   30.91
   2   0 -10  598.48   35.87
  -2   0   9  198.90   15.15
   2   0  -9  219.07   16.45
   2   0  -9  223.10   16.73
  -2   0   8   17.00    6.76
   2   0  -8    0.15    3.59
  -2   0   7  283.83   14.14
   2   0  -7  285.23   14.31
   2   0  -6 2029.38   47.88
  -2   0   5  647.75   16.18
  -2   0   5  643.84   16.83
  -2   0   4   59.47    3.80
   2   0  -4   78.31    3.84
   2   0  -4   66.84    4.03
  -2   0   4   67.45    4.56
   2   0  -4   75.89   11.30
  -2   0   3   13.96    1.60
   2   0  -3    8.65    1.46
   2   0  -3   10.10    1.87
  -2   0   3   10.34    1.73
  -2   0   3   14.62    2.38
   2   0  -2 1713.37   34.29
   2   0  -2 1515.58   31.19
  -2   0   2 1506.37   30.89
  -2   0   2 1473.03   30.26
   2   0  -2 1553.39   31.66
   2   0  -1 2776.13   54.18
  -2   0   1 3033.57   59.65
  -2   0   1 3073.56   60.63
  -2   0   0 7495.96  144.82
   2   0   1 4769.49   93.28
  -2   0  -1 4802.83   93.87
   2   0   1 4679.39   90.93
   2   0   1 5462.55  106.82
   2   0   2   31.57    5.04
  -2   0  -2   29.66    2.58
  -2   0  -2   30.45    4.98
   2   0   2   24.57    1.84
  -2   0  -2   27.78    2.44
   2   0   2   22.30    2.28
   2   0   3  223.74   11.41
  -2   0  -3  203.84    7.18
  -2   0  -3  208.48    6.26
   2   0   3  212.13    6.32
  -2   0  -3  204.02    7.79
   2   0   3  205.24    7.10
  -2   0  -4 2367.72   53.48
   2   0   4 2538.01   57.14
   2   0   5 3010.21  111.82
  -2   0  -5 2848.09  109.56
   2   0   5 3011.69  110.18
   2   0   6  255.69   13.37
  -2   0  -6  286.64   12.82
  -2   0  -6  225.32   11.89
   2   0   7 1741.28  102.96
  -2   0  -7 1684.70   98.60
  -2   0  -7 1669.40   98.79
   2   0   8 1554.23  112.77
  -2   0  -8 1609.03  115.36
  -2   0  -8 1439.67   80.40
   2   0   9    9.53    5.73
  -2   0  -9    4.28    3.25
  -2   0  -9    3.53    5.15
   2   0  10  126.02   29.22
  -2   0 -10  126.26   19.68
  -2   0 -10   97.33   16.33
   2   0  11  114.79   34.42
  -2   0 -11  134.90   16.86
   2   0  12  155.62   37.04
  -2   0 -12  186.14   24.16
  -2   1  14    3.84    6.64
   2  -1 -14   56.92   11.78
   2   1 -14   27.77    8.61
  -2  -1  13  364.07   80.86
  -2   1  13  332.91   38.17
   2  -1 -13  351.70   39.40
   2   1 -13  339.00   37.05
   2  -1 -13  349.21   39.16
   2   1 -13  416.49   92.06
  -2  -1  12  268.21   21.73
  -2   1  12  225.61   17.95
   2  -1 -12  253.25   18.97
   2   1 -12  315.24   21.93
   2   1 -12  295.22   22.67
   2  -1 -12  290.45   21.68
  -2  -1  11  103.86   13.49
  -2   1  11  102.08   13.35
   2  -1 -11   87.74   11.20
   2   1 -11   64.48    8.66
   2  -1 -11   97.91   12.19
   2   1 -11   76.66   10.62
  -2  -1  10   66.52    8.83
  -2   1  10  104.20   10.83
   2  -1 -10   84.86    8.85
   2   1 -10   97.56    9.67
   2  -1 -10   97.69   10.37
   2   1 -10  106.95   11.34
  -2  -1   9  280.52   15.34
  -2   1   9  446.20   22.15
   2  -1  -9  293.79   15.75
   2   1  -9  417.24   19.84
   2  -1  -9  341.46   17.30
  -2  -1   8 1277.64   62.04
  -2   1   8 1312.20   63.54
   2  -1  -8 1367.10   65.95
   2   1  -8 1226.79   59.00
  -2  -1   7 2377.23   93.22
  -2   1   7 2047.57   80.90
   2  -1  -7 2179.27   85.79
   2   1  -7 2030.89   79.47
  -2  -1   6  387.56   12.57
  -2   1   6  544.57   16.53
   2  -1  -6  426.71   13.76
   2   1  -6  554.96   15.98
  -2  -1   5 3169.95   71.56
   2  -1  -5 3083.27   70.21
   2   1  -5 2879.32   64.95
  -2  -1   5 2972.48   66.89
  -2  -1   5 2897.23   66.06
  -2   1   5 2776.88   62.98
   2  -1  -5 3120.06   70.21
  -2  -1   4 1499.53   31.70
   2   1  -4 1472.95   31.03
   2  -1  -4 1620.15   34.42
   2  -1  -4 1694.66   36.30
  -2  -1   4 1647.05   34.56
  -2   1   4 1566.02   33.76
   2   1  -4 1625.80   34.67
  -2  -1   3 4288.22   83.98
   2   1  -3 5041.54   98.20
   2  -1  -3 4311.52   85.20
  -2   1   3 4735.39   93.35
   2   1  -3 4727.32   93.18
  -2  -1   3 4134.75   82.27
   2   1  -3 4774.12   93.98
   2  -1  -3 4385.42   85.82
  -2  -1   2 3038.23   59.17
   2   1  -2 3145.32   61.17
  -2   1   2 3086.30   61.52
   2  -1  -2 3493.65   69.11
   2   1  -2 2908.01   57.97
  -2   1   2 2925.79   58.15
   2   1  -2 3335.59   66.38
   2   1  -2 3214.10   63.65
   2  -1  -2 3268.78   64.06
   2   1  -1 5743.43  112.18
   2   1  -1 5840.97  113.53
  -2   1   1 5658.47  109.80
   2  -1  -1 5585.39  108.29
   2   1   0 1361.71   26.68
  -2  -1   0 1153.84   24.46
   2  -1   0 1087.72   21.87
   2  -1   1 8583.03  167.10
  -2  -1  -1 9523.03  204.90
  -2  -1  -1 8715.72  168.85
   2   1   1 8165.94  158.37
  -2   1  -1 8526.41  165.33
   2  -1   2 4947.72   98.61
   2   1   2 6112.61  119.26
  -2  -1  -2 4934.98   96.56
  -2   1  -2 5826.74  112.13
  -2  -1  -2 5456.53  107.14
   2   1   2 5061.35   99.58
  -2   1  -2 5915.19  116.35
   2  -1   3 1035.18   26.24
   2   1   3  888.26   22.15
  -2  -1  -3 1062.13   25.70
  -2   1  -3  921.81   21.00
  -2  -1  -3 1037.86   25.47
   2   1   3  876.93   21.86
   2  -1   3 1056.91   23.94
  -2  -1  -3 1011.60   25.12
  -2   1  -3  962.60   24.40
   2   1   3  848.45   21.47
   2  -1   4  522.64   16.53
   2   1   4  515.61   15.18
  -2  -1  -4  592.39   16.46
  -2   1  -4  595.07   14.55
   2  -1   4  493.95   12.47
  -2  -1  -4  469.37   14.13
  -2   1  -4  588.96   17.35
   2  -1   5 1531.50   61.55
   2   1   5 1595.11   63.29
  -2  -1  -5 1854.10   72.69
  -2   1  -5 1527.54   59.11
   2  -1   5 1614.71   62.46
  -2  -1  -5 1719.61   67.97
  -2   1  -5 1456.11   58.46
   2  -1   6  907.92   37.01
   2   1   6  690.75   28.83
  -2  -1  -6  739.99   29.73
  -2   1  -6  665.73   25.78
   2  -1   6  736.65   28.44
  -2  -1  -6  874.15   35.12
  -2   1  -6  640.15   27.00
   2  -1   7  295.71   20.23
   2   1   7  375.79   24.78
  -2  -1  -7  274.12   18.17
  -2   1  -7  407.15   24.83
  -2  -1  -7  268.71   18.36
  -2   1  -7  396.00   25.98
   2  -1   8  414.23   26.37
   2   1   8  407.95   25.78
  -2  -1  -8  447.08   26.74
  -2   1  -8  376.18   21.93
  -2  -1  -8  467.35   28.55
  -2   1  -8  417.03   26.14
   2  -1   9  160.84   26.79
   2   1   9  167.75   19.14
  -2   1  -9  161.68   16.42
  -2  -1  -9  166.31   17.34
  -2  -1  -9  138.95   15.40
  -2   1  -9  179.09   19.66
   2  -1  10  116.05   29.51
   2   1  10  109.11   18.14
  -2  -1 -10  114.78   18.04
  -2  -1 -10  106.07   17.13
   2  -1  11  309.13   34.60
   2   1  11  252.60   58.86
  -2  -1 -11  353.70   37.95
  -2  -1 -11  363.69   39.41
  -2   1 -11  285.16   31.66
   2  -1  12    6.13    5.97
   2   1  12    9.11    5.73
  -2  -1 -12   12.30    7.81
  -2   1 -12   14.17    5.77
  -2  -2  13   73.91   18.23
  -2   2  13   89.38   14.50
   2  -2 -13  108.88   14.98
   2  -2 -13   99.51   13.30
   2   2 -13  101.94   14.74
  -2  -2  12   31.21    8.28
  -2   2  12   45.14   10.08
   2  -2 -12   16.04    5.86
   2   2 -12   30.47    6.07
   2  -2 -12    9.60    4.44
   2   2 -12   45.76    9.84
  -2  -2  11  476.11   40.00
  -2   2  11  395.88   33.61
   2  -2 -11  439.85   37.14
   2   2 -11  381.58   31.01
   2  -2 -11  417.01   34.32
   2   2 -11  355.13   30.47
  -2  -2  10  499.53   40.39
  -2   2  10  531.49   40.93
   2  -2 -10  565.99   43.62
   2   2 -10  532.74   39.81
   2  -2 -10  600.99   45.17
   2   2 -10  521.18   40.59
  -2  -2   9   78.72    8.01
  -2   2   9  137.15   10.61
   2  -2  -9   85.77    8.18
   2   2  -9  146.21    9.25
   2  -2  -9   92.11    8.22
  -2  -2   8   55.26    5.71
  -2   2   8   51.11    6.43
   2  -2  -8   76.27    7.74
   2   2  -8   66.95    6.49
   2  -2  -8   66.17    6.60
  -2  -2   7  341.27   15.79
  -2   2   7  291.62   14.34
   2  -2  -7  383.06   18.06
   2   2  -7  277.40   13.48
  -2  -2   6  593.51   25.51
  -2   2   6  664.33   28.23
   2  -2  -6  614.21   26.74
   2   2  -6  723.36   29.60
  -2  -2   5 2154.86   50.20
  -2   2   5 2441.50   56.83
   2  -2  -5 2088.76   49.73
  -2  -2   5 1927.43   44.65
   2  -2  -5 2102.22   47.98
   2   2  -4 1116.43   26.78
  -2   2   4 1032.37   25.97
   2  -2  -4 1328.49   32.66
   2   2  -4 1075.11   26.36
  -2  -2   4 1252.79   29.91
  -2   2   4 1036.97   24.52
   2  -2  -4 1367.51   32.04
  -2  -2   3  327.57    8.77
   2   2  -3  370.61    9.42
  -2   2   3  407.99   11.53
   2   2  -3  335.43    9.80
   2  -2  -3  343.81   10.21
  -2   2   3  343.33    9.82
   2   2  -3  352.04    9.91
  -2   2   3  386.64    9.39
  -2  -2   3  282.94    8.67
   2  -2  -3  292.11    7.28
  -2  -2   2  828.39   17.80
  -2   2   2  849.22   19.82
   2  -2  -2  809.94   18.44
  -2  -2   2  883.99   20.90
  -2   2   2  817.31   17.03
   2   2  -2  796.06   17.78
   2  -2  -2  820.43   17.09
   2   2  -1 1342.21   26.92
  -2   2   1 1287.62   28.19
   2   2  -1 1417.58   28.05
   2   2  -1 1304.39   27.93
  -2   2   1 1393.58   28.83
   2   2  -1 1312.06   27.42
  -2   2   1 1363.17   27.73
  -2   2   0 5207.03  103.07
   2   2   0 4697.44   90.61
  -2  -2   0 4714.76   91.06
   2   2   0 5137.28  101.28
   2  -2   0 4886.31   94.67
  -2   2   0 4988.81   96.67
  -2  -2   0 4880.65   95.60
   2   2   0 4926.08   96.35
  -2   2   0 5251.61  102.30
   2  -2   0 4690.83   91.50
   2  -2   1  173.45    7.24
  -2   2  -1  167.12    6.57
   2   2   1  164.26    4.71
  -2  -2  -1  181.02    5.05
  -2  -2  -1  184.11    8.23
   2  -2   1  173.30    3.95
  -2   2  -1  166.60    3.82
  -2  -2  -1  170.11    5.89
   2   2   1  156.39    5.15
  -2   2  -1  152.40    5.34
   2  -2   1  181.68    5.83
   2  -2   2  692.04   18.67
   2   2   2  810.94   17.97
  -2  -2  -2  802.60   17.83
  -2  -2  -2  746.83   18.39
  -2  -2  -2  785.95   18.16
  -2   2  -2  692.25   16.92
   2   2   2  705.36   16.39
   2  -2   2  785.01   18.41
   2  -2   3  910.36   24.93
   2   2   3  941.25   23.34
  -2  -2  -3  916.98   22.60
  -2  -2  -3 1008.78   25.81
  -2  -2  -3  910.75   22.86
   2   2   3  870.16   21.89
   2  -2   4 1470.63   59.05
   2   2   4 1308.12   51.77
  -2   2  -4 1275.88   48.61
  -2  -2  -4 1547.19   61.48
   2  -2   4 1414.54   53.84
  -2  -2  -4 1330.67   52.65
  -2   2  -4 1209.35   48.71
   2  -2   5  607.08   25.87
   2   2   5  520.84   22.02
  -2   2  -5  615.90   22.94
  -2  -2  -5  534.29   22.75
   2  -2   5  552.58   20.79
  -2  -2  -5  565.22   23.39
  -2   2  -5  710.93   29.31
   2  -2   6   22.24    4.85
   2   2   6   13.98    3.90
  -2  -2  -6   21.18    4.75
  -2   2  -6    9.44    1.61
   2  -2   6   16.11    2.22
  -2  -2  -6    9.77    3.58
  -2   2  -6   10.82    5.92
   2  -2   7 1539.55   63.86
   2   2   7 1631.23   66.68
  -2  -2  -7 1478.67   60.56
  -2   2  -7 1548.16   60.67
   2  -2   7 1375.44   54.29
  -2  -2  -7 1589.16   64.89
  -2   2  -7 1591.47   65.62
   2  -2   8  673.73   51.71
   2   2   8  752.42   56.12
  -2  -2  -8  808.00   59.69
  -2   2  -8  634.77   45.83
  -2  -2  -8  754.42   56.31
  -2   2  -8  750.74   56.13
   2  -2   9  151.63   33.74
   2   2   9   93.90   12.49
  -2  -2  -9  141.71   15.60
  -2  -2  -9  181.54   19.53
  -2   2  -9  133.41   15.64
   2  -2  10   31.28   11.20
   2   2  10   27.94    9.81
  -2  -2 -10   41.28   10.61
  -2  -2 -10   30.12    9.31
  -2   2 -10   52.71   13.48
   2  -2  11   21.28   11.57
   2   2  11   30.49   11.01
  -2  -2 -11   53.94   14.44
  -2  -2 -11   51.36   14.15
  -2   2 -11   56.08   15.51
  -2  -3  13  131.63   18.31
  -2   3  13  121.86   17.58
   2  -3 -13  172.55   22.89
   2  -3 -13  110.77   14.94
   2   3 -13  136.56   19.63
  -2  -3  12  199.84   49.59
  -2   3  12  241.54   28.31
   2  -3 -12  227.57   26.18
   2  -3 -12  245.29   27.04
   2   3 -12  218.72   25.74
  -2  -3  11  121.94   33.12
  -2   3  11  103.91   17.89
   2  -3 -11  119.05   20.61
   2   3 -11  115.40   17.75
   2  -3 -11  132.01   29.17
   2   3 -11   87.58   14.67
  -2  -3  10  104.89   19.27
  -2   3  10   76.21   11.25
   2  -3 -10   82.07   12.08
   2   3 -10  115.85   13.16
   2  -3 -10  109.41   12.33
   2   3 -10  104.29   13.91
  -2  -3   9  373.87   24.01
  -2   3   9  380.99   24.84
   2  -3  -9  390.36   24.98
   2   3  -9  352.81   21.46
   2  -3  -9  373.14   22.64
   2   3  -9  375.96   24.22
  -2  -3   8  700.47   33.59
  -2   3   8  734.01   33.03
   2  -3  -8  729.39   32.86
   2   3  -8  739.73   31.16
   2  -3  -8  770.04   32.66
  -2  -3   7 1024.45   50.27
  -2   3   7  933.46   46.34
   2  -3  -7 1084.43   53.38
   2   3  -7 1002.87   48.27
   2  -3  -7 1119.40   53.56
  -2  -3   6   94.23   14.88
  -2   3   6   88.33    6.82
   2  -3  -6  105.15    7.80
   2   3  -6  130.16    7.22
   2  -3  -6   88.48   13.06
   2  -3  -6  112.53    6.18
  -2  -3   5  350.68   16.38
  -2   3   5  400.16   18.50
   2   3  -5  372.82   16.46
   2  -3  -5  360.53   17.25
   2   3  -5  415.33   18.08
  -2  -3   5  358.79   16.56
   2  -3  -5  307.34   15.60
  -2  -3   4 3890.03   87.42
   2   3  -4 3383.88   75.79
   2   3  -4 3457.60   77.69
   2  -3  -4 3709.07   84.13
   2   3  -4 3551.82   79.86
  -2  -3   4 3892.99   87.67
   2  -3  -4 3641.46   79.61
  -2  -3   3 1902.26   44.61
   2   3  -3 2151.10   49.07
  -2   3   3 2333.00   54.56
   2   3  -3 2202.54   50.54
   2  -3  -3 1982.71   46.50
  -2   3   3 2202.38   48.24
  -2  -3   3 2270.34   52.33
   2   3  -3 2042.92   48.53
   2  -3  -3 2050.32   44.97
   2   3  -2  699.77   18.29
  -2   3   2  641.11   18.00
   2   3  -2  712.47   17.64
  -2  -3   2  757.71   20.34
   2   3  -2  662.31   17.41
   2  -3  -2  684.11   18.06
  -2   3   2  735.50   19.10
  -2  -3   2  701.27   17.97
  -2   3   2  698.69   16.12
   2   3  -2  645.99   16.40
   2  -3  -2  631.75   14.36
   2   3  -1  562.44   13.94
  -2   3   1  492.05   14.61
   2   3  -1  558.00   13.76
  -2  -3   1  573.25   16.05
   2   3  -1  513.98   14.74
   2  -3  -1  536.26   14.09
  -2   3   1  562.13   14.66
  -2  -3   1  501.32   13.20
   2   3  -1  547.78   13.98
  -2   3   1  550.36   13.17
   2  -3  -1  529.71   12.52
   2   3   0  311.07    8.44
  -2   3   0  335.09   11.27
  -2   3   0  291.37    8.19
  -2  -3   0  423.12   11.19
  -2   3   0  293.59    8.28
   2  -3   0  422.90   10.94
   2   3   1 5215.18  113.55
  -2  -3  -1 4708.56  102.91
  -2   3  -1 6030.86  230.59
  -2  -3  -1 4420.87   99.50
   2  -3   1 4787.60  103.70
  -2   3  -1 5021.38  108.66
  -2  -3  -1 4617.78  101.31
   2   3   1 5071.44  110.74
  -2   3  -1 4975.73  109.05
   2  -3   1 4724.31  103.65
   2   3   2  663.15   16.98
  -2  -3  -2  770.06   21.26
  -2   3  -2  627.89   13.78
  -2   3  -2  645.38   14.18
  -2  -3  -2  781.95   19.63
   2   3   2  657.90   16.76
  -2   3  -2  655.89   17.47
   2  -3   2  812.04   20.77
   2  -3   3  271.51   19.23
   2   3   3  234.39   11.34
  -2  -3  -3  266.89   12.19
  -2  -3  -3  256.20   13.02
  -2  -3  -3  257.86   11.93
  -2   3  -3  248.16   12.22
   2   3   3  190.85    8.93
   2  -3   4    9.79    4.28
   2   3   4    8.65    3.03
  -2  -3  -4    4.16    3.72
  -2  -3  -4    5.49    2.55
  -2   3  -4    8.55    3.83
   2  -3   5  710.17   41.15
   2   3   5  605.74   30.69
  -2  -3  -5  796.58   39.90
  -2  -3  -5  638.83   31.75
  -2   3  -5  594.53   30.45
   2  -3   6 1390.62   83.19
   2   3   6 1429.00   84.56
  -2  -3  -6 1453.54   86.42
  -2  -3  -6 1226.28   72.66
  -2   3  -6 1409.60   83.83
   2  -3   7   61.08   16.31
   2   3   7   73.96    7.96
  -2  -3  -7   64.19    6.97
  -2  -3  -7   92.10    8.38
  -2   3  -7   57.38    6.53
   2  -3   8   42.78   11.44
   2   3   8   42.55    6.16
  -2  -3  -8   53.02    7.91
  -2  -3  -8   30.82    5.21
  -2   3  -8   44.00    7.10
   2  -3   9  242.12   24.48
   2   3   9  318.65   30.87
  -2  -3  -9  262.79   25.93
  -2   3  -9  293.22   28.65
   2  -3  10  149.52   28.84
   2   3  10  198.95   22.62
  -2  -3 -10  230.03   25.12
  -2  -3 -10  216.47   23.60
  -2   3 -10  179.49   20.86
   2  -3  11   60.03   31.64
   2   3  11   81.33   11.89
  -2  -3 -11  100.99   14.38
  -2  -3 -11  129.15   16.62
  -2   3 -11  118.41   15.20
  -2  -4  12    7.88    6.93
  -2   4  12   10.36    6.61
   2  -4 -12    4.86    8.55
   2  -4 -12    3.25    3.58
   2   4 -12    6.59    5.76
  -2  -4  11  312.18   33.64
   2  -4 -11  391.14   41.10
   2  -4 -11  302.52   31.31
   2   4 -11  306.76   32.92
  -2  -4  10  257.33   23.64
  -2   4  10  343.49   29.51
   2  -4 -10  309.76   27.16
   2   4 -10  320.94   26.04
   2  -4 -10  323.79   26.55
   2   4 -10  304.66   26.67
  -2  -4   9   20.84    7.27
  -2   4   9   25.75    7.94
   2  -4  -9   14.68    6.18
   2   4  -9    7.56    2.94
   2  -4  -9   24.08    4.19
   2   4  -9   23.82    6.64
  -2  -4   8   87.27   23.50
  -2   4   8   64.57    8.68
   2  -4  -8   95.42   10.85
   2   4  -8   57.43    5.29
   2  -4  -8   94.27    7.49
  -2  -4   7  140.61   25.61
  -2   4   7   98.12    7.84
   2  -4  -7  173.14   11.55
   2   4  -7  115.07    6.95
   2  -4  -7  146.01    7.87
  -2  -4   6  645.54   32.92
  -2   4   6  667.31   34.31
   2   4  -6  617.27   30.66
   2  -4  -6  541.35   26.42
   2  -4  -6  596.08   28.69
  -2  -4   5  332.87   15.42
  -2   4   5  367.42   17.24
   2  -4  -5  318.58   15.70
   2   4  -5  301.63   13.73
   2  -4  -5  350.44   13.79
   2  -4  -5  316.94   12.57
  -2  -4   4  315.01   14.46
  -2   4   4  324.65   15.41
   2  -4  -4  321.69   14.94
   2   4  -4  326.33   14.54
  -2  -4   4  314.27   14.18
   2  -4  -4  306.49   11.61
   2  -4  -4  283.65   10.74
   2   4  -3  236.07   11.78
  -2   4   3  245.33   12.87
   2   4  -3  277.86   12.93
  -2  -4   3  292.44   14.05
   2  -4  -3  280.53   13.68
  -2  -4   3  265.19   12.47
   2   4  -2  350.31   15.01
  -2   4   2  356.98   17.00
   2   4  -2  367.73   15.74
  -2  -4   2  272.35   13.43
   2  -4  -2  225.00   11.01
  -2  -4   2  231.44   10.67
   2   4  -2  366.33   15.56
   2   4  -1  439.59   18.44
   2   4  -1  462.70   19.19
  -2   4   1  486.63   21.69
  -2  -4   1  574.13   24.70
   2  -4  -1  560.24   23.41
  -2   4   1  418.70   17.92
  -2  -4   1  566.56   23.54
   2   4  -1  471.26   19.31
  -2   4   1  488.44   19.14
   2   4   0 1582.10   61.40
  -2   4   0 1856.80   73.65
  -2  -4   0 1720.96   66.75
  -2  -4   0 1745.63   69.02
   2  -4   0 1812.96   70.22
  -2   4   0 1648.92   63.95
  -2  -4   0 1663.64   64.63
   2   4   0 1578.32   60.99
  -2   4   0 1794.98   68.94
   2   4   1  872.42   34.73
  -2  -4  -1  848.94   34.01
  -2   4  -1  841.66   35.59
  -2  -4  -1  801.22   37.29
   2  -4   1  791.20   32.22
  -2   4  -1  824.95   32.46
  -2  -4  -1  803.49   31.70
   2   4   1  777.65   30.73
  -2   4  -1  776.37   30.96
   2   4   2  840.26   32.22
  -2  -4  -2  697.67   27.22
  -2   4  -2  862.72   35.23
   2  -4   2  780.80   29.71
  -2  -4  -2  817.98   33.19
  -2   4  -2  815.51   30.14
  -2  -4  -2  841.70   32.03
  -2   4  -2  823.52   31.88
   2   4   2  774.48   29.36
   2  -4   3 1750.29   67.54
   2   4   3 1864.56   69.42
  -2  -4  -3 2129.00   80.57
  -2  -4  -3 1959.22   72.41
  -2   4  -3 1910.82   71.53
   2   4   3 1766.68   65.23
   2  -4   4  532.09   34.48
   2   4   4  479.89   24.69
  -2  -4  -4  548.22   28.72
  -2  -4  -4  575.77   28.41
  -2   4  -4  520.78   26.69
   2  -4   5   87.69   18.95
   2   4   5  110.97    8.94
  -2  -4  -5   60.81    7.47
  -2  -4  -5   64.92    5.92
  -2   4  -5   80.01    7.68
   2  -4   6   81.82   20.46
   2   4   6   88.52    7.95
  -2  -4  -6   72.72    8.56
  -2  -4  -6   60.63    5.90
  -2   4  -6   57.87    6.69
   2  -4   7  217.29   19.02
   2   4   7  206.35   17.40
  -2  -4  -7  258.87   21.54
  -2  -4  -7  265.79   20.61
  -2   4  -7  234.18   19.83
   2   4   8  576.00   46.08
  -2  -4  -8  615.03   49.63
  -2  -4  -8  580.68   45.91
  -2   4  -8  622.93   50.23
   2   4   9   53.84   14.06
  -2  -4  -9   52.85   13.53
  -2  -4  -9   49.16   12.33
  -2   4  -9   35.47   10.48
   2   4  10    5.46    5.55
  -2  -4 -10   -6.05    5.36
  -2  -4 -10   20.06    6.94
  -2   4 -10    5.67    6.04
   2  -4  11   20.33   10.26
  -2  -4 -11   52.52   11.06
  -2  -4 -11   23.19    6.63
  -2   4 -11   16.78    6.87
  -2  -5  12   54.75   23.67
  -2   5  12   66.15   12.54
   2  -5 -12  110.61   20.25
   2   5 -12   59.45   12.59
  -2  -5  11  163.63   43.67
  -2   5  11  178.06   21.89
   2  -5 -11  254.85   29.84
   2   5 -11  229.03   27.03
  -2  -5  10   40.45    8.77
  -2   5  10   28.02    9.12
   2  -5 -10   28.46    7.40
   2   5 -10   16.89    6.18
  -2  -5   9  413.03   34.59
  -2   5   9  391.59   33.49
   2  -5  -9  418.29   35.30
   2   5  -9  377.09   31.71
  -2  -5   8  412.73   40.78
  -2   5   8  484.33   47.53
   2  -5  -8  439.73   43.55
   2   5  -8  507.87   48.20
   2  -5  -8  420.50   39.68
   2   5  -8  465.91   45.94
  -2  -5   7   85.08   21.69
  -2   5   7  130.19   12.91
   2  -5  -7  139.31   13.27
   2   5  -7  146.66   12.16
   2  -5  -7  107.83    8.61
  -2  -5   6  123.83   22.96
  -2   5   6  111.86    9.22
   2  -5  -6  100.79    8.20
   2   5  -6  140.35    8.32
   2  -5  -6   94.48    4.72
  -2  -5   5  259.57   18.13
  -2   5   5  326.24   21.75
   2  -5  -5  315.27   21.43
   2   5  -5  374.18   23.92
  -2   5   4 1627.34   96.21
   2   5  -4 1497.28   88.19
   2  -5  -4 1399.58   82.92
   2   5  -4 1392.98   82.14
  -2   5   3 1436.54   69.31
   2   5  -3 1355.52   64.61
  -2  -5   3 1340.74   64.27
   2  -5  -3 1255.00   60.54
  -2  -5   3 1369.10   64.81
  -2   5   2  357.71   19.84
   2   5  -2  350.20   18.16
  -2  -5   2  367.20   20.11
   2  -5  -2  338.49   18.21
  -2  -5   2  334.05   17.17
   2   5  -2  319.88   16.36
   2   5  -1   33.08    8.89
   2   5  -1   55.02    4.31
  -2   5   1   59.26    5.68
  -2  -5   1   67.54   13.96
   2  -5  -1   46.15    4.88
  -2  -5   1   54.97    5.81
   2   5  -1   49.41    3.32
   2   5   0  483.50   24.10
  -2   5   0  430.29   23.43
  -2  -5   0  390.06   21.04
   2  -5   0  387.24   19.64
  -2   5   0  383.77   18.55
  -2  -5   0  411.44   20.65
   2   5   0  408.71   19.94
  -2   5   0  461.71   22.18
   2   5   1  488.68   24.39
  -2   5  -1  462.40   24.97
  -2  -5  -1  495.97   27.79
   2  -5   1  494.60   25.92
  -2   5  -1  370.52   18.59
  -2   5  -1  436.41   21.63
  -2  -5  -1  490.46   24.09
   2   5   1  418.24   20.29
  -2   5  -1  436.98   21.49
   2   5   2  833.16   40.25
  -2   5  -2  790.58   40.00
   2  -5   2  936.60   44.63
  -2  -5  -2  853.36   44.37
  -2   5  -2  836.83   39.49
  -2  -5  -2  925.32   43.60
  -2   5  -2  892.80   42.86
   2   5   2  853.96   40.27
   2   5   3   45.99    4.68
  -2   5  -3   39.48    6.88
  -2   5  -3   40.49    3.08
  -2   5  -3   36.77    2.91
  -2  -5  -3   69.97    5.51
  -2   5  -3   42.25    4.69
   2   5   3   32.54    3.07
   2   5   4  101.85    6.88
  -2   5  -4   81.48    7.76
  -2  -5  -4  139.69    9.48
  -2  -5  -4  140.94    7.89
  -2   5  -4  120.97    8.05
   2  -5   5  252.29   21.36
   2   5   5  292.39   22.90
  -2  -5  -5  292.19   24.20
  -2  -5  -5  285.12   21.72
  -2   5  -5  287.61   22.88
   2  -5   6  302.17   25.82
   2   5   6  360.90   27.44
  -2  -5  -6  316.79   25.71
  -2  -5  -6  294.67   22.09
  -2   5  -6  351.06   27.34
   2  -5   7  220.47   44.06
   2   5   7  193.36   17.32
  -2  -5  -7  236.71   21.64
  -2   5  -7  200.76   18.41
   2  -5   8   21.95   10.24
   2   5   8   33.87    8.68
  -2  -5  -8   52.01   14.22
  -2   5  -8   51.84   13.42
   2  -5   9  216.96   26.34
   2   5   9  250.41   28.68
  -2   5  -9  194.36   23.09
   2  -5  10   70.77   43.97
   2   5  10  150.19   20.05
  -2  -5 -10  131.37   18.02
  -2   5 -10  154.99   20.64
  -2  -6  11    8.74    4.33
  -2   6  11   22.94    8.88
   2  -6 -11   12.84    7.04
   2   6 -11   26.60    8.17
  -2  -6  10   59.53   27.30
  -2   6  10   67.29   10.94
   2  -6 -10   87.96   14.43
   2   6 -10   83.83   12.38
  -2  -6   9   56.77   29.39
  -2   6   9   61.44   10.93
   2  -6  -9   78.26   13.65
   2   6  -9   69.48   12.05
  -2  -6   8   62.83   16.86
  -2   6   8   66.93   12.48
   2  -6  -8   65.94   13.25
   2   6  -8   52.75   10.01
  -2  -6   7  166.90   15.76
  -2   6   7  223.58   21.31
   2  -6  -7  173.68   17.45
   2   6  -7  166.76   14.45
   2   6  -7  185.65   16.92
  -2   6   6  182.76   16.45
   2   6  -6  194.23   16.64
   2  -6  -6  239.13   19.78
   2   6  -6  184.35   14.88
  -2   6   5  444.70   34.55
   2   6  -5  419.79   32.26
   2  -6  -5  428.29   33.39
   2   6  -5  440.99   33.44
  -2   6   4   13.69    5.31
   2   6  -4   18.49    4.04
   2  -6  -4   38.83    5.22
  -2   6   3  139.14   10.49
   2   6  -3  128.65    8.03
  -2  -6   3  175.02   12.62
   2  -6  -3  162.07   10.33
  -2   6   2  147.74   11.17
   2   6  -2  111.91    7.29
  -2  -6   2   70.35   17.10
   2  -6  -2   56.04    5.97
   2   6  -1  996.50   41.08
  -2   6   1 1018.56   43.79
  -2  -6   1  844.49   39.66
   2  -6  -1  866.11   36.44
  -2  -6   1  762.68   30.89
   2   6  -1  890.44   35.75
   2   6   0  181.29    9.68
  -2   6   0  233.09   13.99
  -2  -6   0  260.36   14.38
   2  -6   0  255.90   12.73
  -2  -6   0  261.86   11.84
  -2   6   0  206.01    9.02
  -2   6   0  184.87    8.11
   2   6   0  191.84    8.82
   2   6   1  103.51    7.33
  -2   6  -1  103.57    8.47
   2  -6   1  158.66   17.89
  -2  -6  -1  117.87   27.51
  -2  -6  -1  121.93    5.89
   2   6   2   63.28    5.83
  -2   6  -2   59.80    7.30
   2  -6   2   76.77   12.77
  -2  -6  -2   75.47   15.87
  -2  -6  -2   71.98    4.88
  -2   6  -2   40.49    3.79
   2   6   3  416.46   31.27
  -2   6  -3  350.86   28.41
  -2  -6  -3  363.23   29.13
  -2   6  -3  338.44   24.73
  -2  -6  -3  305.55   22.32
  -2   6  -3  329.01   25.04
   2   6   4  323.36   24.49
  -2   6  -4  273.40   22.90
  -2  -6  -4  425.19   32.56
  -2   6  -4  334.73   25.22
   2   6   5  151.88   16.07
  -2   6  -5  137.35   16.74
  -2  -6  -5  106.97   22.51
  -2   6  -5  166.23   17.50
   2   6   6   22.22    5.27
  -2   6  -6   21.05    7.23
  -2  -6  -6   42.98    9.19
  -2   6  -6   20.73    5.97
   2  -6   7  359.59   38.77
   2   6   7  299.41   31.71
  -2  -6  -7  281.99   30.47
  -2   6  -7  353.94   36.89
   2  -6   8   43.62   24.62
   2   6   8   44.85   12.63
  -2  -6  -8   36.16   11.93
  -2   6  -8   57.74   15.72
   2  -6   9   51.99   38.54
   2   6   9   93.97   16.13
  -2  -6  -9  121.83   21.24
  -2   6  -9   97.59   17.09
  -2  -7   9   75.89   12.69
  -2   7   9  109.70   16.17
   2  -7  -9   98.86   15.28
   2   7  -9   86.56   13.03
  -2   7   8  168.93   21.07
   2   7  -8  175.15   21.48
   2  -7  -8  181.43   22.70
   2   7  -8  182.14   21.37
  -2   7   7  175.45   21.09
   2   7  -7  183.62   21.06
   2  -7  -7  166.72   19.30
   2   7  -7  180.60   20.40
  -2   7   6   17.93    6.27
   2   7  -6   17.11    4.93
   2  -7  -6   14.09    5.29
   2   7  -6   24.07    5.57
   2   7  -6   25.52    6.40
  -2   7   5   51.70   11.00
   2   7  -5   53.52   10.42
   2  -7  -5   26.33    7.97
   2   7  -5   45.80    9.40
   2   7  -5   51.92   10.14
  -2   7   4  334.32   33.26
   2   7  -4  391.28   38.11
   2  -7  -4  305.06   30.53
   2   7  -4  391.72   37.62
  -2   7   3  180.23   19.37
   2   7  -3  171.33   17.80
  -2  -7   3  162.47   17.27
   2  -7  -3  172.14   18.51
  -2   7   2  664.01   49.34
   2   7  -2  682.04   49.26
  -2  -7   2  751.04   55.90
   2  -7  -2  737.28   53.40
   2   7  -1   -2.09    3.21
  -2   7   1    1.36    5.39
  -2  -7   1    5.62    2.91
   2  -7  -1    5.39    4.09
   2   7   0  129.81   11.39
  -2   7   0  124.96   12.29
  -2  -7   0  177.82   17.11
   2  -7   0  164.50   27.72
   2   7   1  276.25   27.11
  -2   7  -1  312.16   32.36
   2  -7   1  237.01   23.48
  -2  -7  -1  272.49   35.85
   2   7   2  291.74   28.59
  -2   7  -2  285.66   30.05
   2  -7   2  251.76   24.69
  -2  -7  -2  193.68   35.86
   2   7   3   55.37   10.46
  -2   7  -3   56.62   11.45
  -2  -7  -3   36.40   12.11
  -2   7  -3   52.11    9.34
   2   7   4   44.10    8.37
  -2   7  -4   76.89   14.35
  -2  -7  -4   47.74   17.64
  -2   7  -4   46.99    8.13
   2   7   5  113.94   13.60
  -2   7  -5  141.28   17.89
  -2  -7  -5  106.77   21.88
  -2   7  -5  102.39   12.39
   2   7   6  224.87   25.07
  -2   7  -6  186.25   22.69
  -2  -7  -6  223.99   26.46
  -2   7  -6  210.92   23.89
   2   7   7    5.65    3.95
  -2   7  -7    5.98    8.35
  -2  -7  -7   20.24   11.38
  -2   7  -7   12.84    4.87
  -2   8   7   16.09    6.18
   2   8  -7   19.36    6.57
   2  -8  -7   33.99    9.53
  -2   8   6  162.40   20.36
   2   8  -6  142.00   17.99
   2  -8  -6  189.90   23.23
  -2   8   5   31.56    7.03
   2   8  -5   47.66    8.91
   2  -8  -5   24.49    6.19
  -2   8   4   68.57   10.79
   2   8  -4   89.21   11.22
   2  -8  -4   72.46   11.77
   2   8  -4   85.39   11.09
  -2   8   3  121.46   14.90
   2   8  -3  142.51   16.17
  -2  -8   3   71.24   26.05
   2  -8  -3  109.03   14.46
  -2   8   2   85.77   19.71
   2   8  -2   36.15    9.02
  -2  -8   2   32.39   12.87
   2  -8  -2   38.55   15.34
   2   8  -1  153.98   11.97
  -2   8   1  111.98   10.92
  -2  -8   1  155.08   20.77
   2  -8  -1  114.37   27.91
   2   8   0   28.05    7.29
  -2   8   0   51.43   13.16
  -2  -8   0   42.94   17.63
   2  -8   0   46.13   12.96
   2   8   1   23.12    6.32
  -2   8  -1   20.02    7.52
  -2  -8  -1   29.71   10.15
  -2   8  -2   75.62   12.78
  -2  -8  -2   63.12   28.21
  -2   8  -3    7.30    7.76
  -2  -8  -3   21.67    7.42
  -2   8  -4  143.11   19.21
  -2  -8  -4  139.98   30.65
  -2  -8  -5   35.31   12.90
  -2   9   4   56.27   11.79
   2  -9  -4   41.62   17.94
  -2   9   3   68.61   11.57
   2  -9  -3   44.65   23.07
  -2   9   2   91.01   13.01
  -2  -9   2   51.36   18.03
   2  -9  -2   39.29   16.05
  -2   9   1   10.42    7.50
  -2  -9   1    2.60    3.48
  -2   9   0    7.91    5.82
  -2  -9   0    8.53    4.82
  -2   9  -1  130.30   20.05
  -2  -9  -1   72.86   23.72
  -2   9  -2   85.28   14.33
  -2  -9  -2   35.36   20.32
  -3   0  14  172.47   23.31
   3   0 -14  157.86   20.66
   3   0 -14  152.16   20.71
  -3   0  13  223.69   25.89
   3   0 -13  201.49   23.34
   3   0 -13  271.01   30.78
  -3   0  12  402.75   38.77
   3   0 -12  386.87   36.68
   3   0 -12  406.90   38.58
  -3   0  11   59.27    8.67
   3   0 -11   53.47    8.47
   3   0 -11   26.71    6.87
  -3   0  10   17.17    5.13
   3   0 -10   14.60    7.28
  -3   0   9 1196.18   71.76
   3   0  -9 1061.59   63.82
  -3   0   8 1170.13   46.18
   3   0  -8 1041.12   41.28
  -3   0   7 1090.19   44.62
   3   0  -7 1059.63   43.28
  -3   0   7 1015.47   41.67
  -3   0   6  756.33   20.74
   3   0  -6  711.57   19.71
  -3   0   6  633.77   19.06
  -3   0   5 1464.24   35.12
   3   0  -5 1550.39   36.51
   3   0  -5 1327.87   32.33
  -3   0   5 1580.77   38.14
  -3   0   4 3586.18   71.75
   3   0  -4 3561.99   71.04
   3   0  -4 3493.50   70.47
  -3   0   4 3448.94   69.48
  -3   0   4 3764.78   76.06
   3   0  -4 3617.12   72.68
  -3   0   3  170.99    5.39
   3   0  -3  180.35    5.70
   3   0  -3  183.17    6.46
  -3   0   3  210.74    6.73
  -3   0   3  231.26   10.18
  -3   0   2  246.34    6.55
   3   0  -2  289.28    7.39
  -3   0   2  255.00    7.38
  -3   0   2  261.57    7.71
   3   0  -2  221.66    6.65
  -3   0   1 2487.84   49.45
   3   0  -1 3044.35   59.93
  -3   0   1 2940.16   59.30
   3   0   0 2105.94   42.53
  -3   0   0 1981.02   40.08
   3   0   0 2371.55   48.07
  -3   0   0 2123.72   43.97
   3   0   1 5037.60   99.55
  -3   0  -1 4901.04   96.59
  -3   0  -1 5549.04  108.74
   3   0   2 1363.24   30.45
  -3   0  -2 1255.77   27.62
  -3   0  -2 1341.60   28.58
   3   0   2 1382.12   29.03
   3   0   3 4383.01   98.88
  -3   0  -3 4331.80   95.71
   3   0   3 4328.98   95.35
  -3   0  -3 4273.28   95.91
   3   0   4 1842.47   75.14
  -3   0  -4 1965.09   76.56
   3   0   4 1962.37   76.01
   3   0   5   36.92    7.20
  -3   0  -5   23.80    2.83
  -3   0  -5   31.32    4.96
   3   0   6  124.29   21.88
  -3   0  -6  122.39    8.87
  -3   0  -6  130.00   10.58
   3   0   7  448.31   22.54
  -3   0  -7  471.96   21.03
  -3   0  -7  474.93   23.01
   3   0   8  280.61   23.09
  -3   0  -8  278.75   21.22
  -3   0  -8  285.12   23.79
   3   0   9   60.33   15.38
  -3   0  -9   38.89    7.93
  -3   0  -9   58.30   12.77
   3   0  10  235.23   31.46
  -3   0 -10  236.09   25.71
   3   0  11   15.43   11.85
  -3   0 -11   18.22    6.54
  -3  -1  14   23.55   17.94
  -3   1  14   91.55   14.55
   3  -1 -14  104.91   16.59
   3   1 -14   87.94   13.71
   3   1 -14   86.44   14.15
   3  -1 -14   65.06   12.39
  -3  -1  13   49.95   11.67
  -3   1  13   52.40   11.55
   3  -1 -13   41.92    9.01
   3   1 -13   26.35    7.15
   3  -1 -13   50.73   10.34
   3   1 -13   50.03   11.77
  -3  -1  12  216.10   22.32
  -3   1  12  242.50   24.69
   3  -1 -12  173.19   18.11
   3   1 -12  209.96   21.16
   3  -1 -12  196.72   20.59
   3   1 -12  269.17   27.07
  -3  -1  11  417.83   41.23
  -3   1  11  280.57   29.29
   3  -1 -11  422.70   41.68
   3   1 -11  319.69   31.74
   3  -1 -11  485.31   47.23
   3   1 -11  318.99   32.26
  -3  -1  10  780.58   45.76
  -3   1  10  809.41   47.11
   3  -1 -10  810.62   46.95
   3   1 -10  895.64   50.97
  -3  -1   9  298.16   20.51
  -3   1   9  328.83   22.25
   3  -1  -9  275.85   19.43
   3   1  -9  330.22   21.87
  -3  -1   8  179.09   11.83
  -3   1   8  171.36   11.61
   3  -1  -8  169.87   11.31
   3   1  -8  169.29   10.74
  -3  -1   7  172.20    9.61
  -3   1   7  298.54   15.05
   3  -1  -7  162.04    9.57
  -3  -1   7  194.62   11.01
  -3  -1   6 1457.10   35.49
   3  -1  -6 1268.57   32.32
   3   1  -6 1617.22   39.09
  -3  -1   6 1422.50   35.89
  -3   1   6 1633.42   39.43
  -3  -1   5 5601.15  213.49
   3   1  -5 5331.49  117.21
   3  -1  -5 6519.75  248.76
  -3  -1   5 5259.68  117.03
  -3   1   5 5107.84  113.28
   3  -1  -5 5157.48  113.62
  -3  -1   4  185.97    5.97
   3   1  -4  192.42    6.04
  -3   1   4  175.94    6.62
   3  -1  -4  204.94    7.37
  -3   1   4  168.28    6.41
   3   1  -4  183.69    7.16
  -3   1   4  186.80    6.80
   3   1  -4  160.01   18.44
   3  -1  -4  151.52    5.42
  -3  -1   3 2876.08   56.80
   3   1  -3 2558.42   50.67
  -3   1   3 2655.37   54.06
   3  -1  -3 2987.97   60.19
  -3   1   3 2812.32   56.97
   3   1  -3 2643.21   54.33
   3   1  -3 2800.64   56.71
   3  -1  -3 2980.27   59.53
   3  -1  -2 7707.64  149.97
   3   1  -2 5910.69  116.31
   3   1  -2 7688.99  149.77
  -3  -1   1 3845.38   74.04
   3  -1  -1 3997.11   79.18
  -3  -1   1 4125.24   82.41
   3   1  -1 3993.74   79.84
   3  -1  -1 3870.01   76.12
  -3   1   1 3760.79   73.93
  -3   1   1 3895.21   77.44
   3   1  -1 3479.49   69.40
   3  -1  -1 3703.78   73.45
  -3   1   0  382.84   10.73
   3   1   0  342.03    8.66
  -3  -1   0  376.27    8.40
  -3  -1   0  364.50   13.81
   3  -1   0  410.89    9.78
  -3  -1   0  470.32   12.47
  -3   1   0  398.65   10.80
   3   1   0  361.89    9.93
   3  -1   1  133.47    5.72
  -3   1  -1   90.33    4.65
   3   1   1   91.48    4.47
  -3  -1  -1  108.68    4.88
   3   1   1   96.98    4.40
   3  -1   1  139.48    4.26
  -3   1  -1   98.85    4.75
   3   1   1   96.31    4.61
   3  -1   2 3921.71   89.23
   3   1   2 3745.46   83.73
  -3  -1  -2 4449.90   97.74
  -3   1  -2 4116.39   89.62
  -3  -1  -2 4184.37   93.50
   3   1   2 3922.44   87.11
   3  -1   2 4149.56   90.13
  -3   1  -2 3946.57   88.35
   3  -1   3 2211.77   53.93
  -3  -1  -3 1905.23   44.12
  -3   1  -3 1901.84   42.96
  -3  -1  -3 2156.53   50.38
   3  -1   3 2183.08   48.40
  -3  -1  -3 2191.77   51.32
  -3   1  -3 2189.38   51.49
   3  -1   4 1824.03   72.37
   3   1   4 2076.88   82.03
  -3   1  -4 1995.75   77.33
  -3  -1  -4 1820.08   71.19
   3  -1   4 1735.28   66.82
  -3  -1  -4 1903.15   74.87
  -3   1  -4 2086.23   82.13
   3  -1   5  218.82   21.48
   3   1   5  179.34   10.65
  -3   1  -5  163.71   12.12
  -3  -1  -5  180.27    9.46
   3  -1   5  180.73    8.54
  -3  -1  -5  173.01    9.91
  -3   1  -5  206.35   11.12
   3  -1   6  230.50   16.42
   3   1   6  315.74   21.12
  -3   1  -6  260.17   16.16
  -3  -1  -6  254.47   16.84
   3  -1   6  219.95   14.12
  -3  -1  -6  272.95   18.73
  -3   1  -6  239.74   17.03
   3  -1   7  881.92   51.49
   3   1   7  947.41   62.49
  -3   1  -7  982.11   53.89
  -3  -1  -7  964.51   54.03
  -3  -1  -7  972.57   55.50
  -3   1  -7  903.05   52.03
   3  -1   8  136.19   20.90
   3   1   8   94.41   17.31
  -3  -1  -8  117.93   10.81
  -3   1  -8   88.70    7.92
  -3  -1  -8  120.11   11.55
  -3   1  -8  101.73   12.17
   3  -1   9   10.78    9.67
   3   1   9    9.34    4.28
  -3  -1  -9    4.26    3.35
  -3  -1  -9    8.73    5.15
   3  -1  10    5.75    7.56
   3   1  10   23.20    7.18
  -3  -1 -10   22.00    5.67
  -3  -1 -10   23.86    6.41
   3  -1  11   21.38   10.39
   3   1  11   27.37   12.01
  -3  -1 -11   20.87    6.46
  -3  -1 -11   12.19    5.97
  -3   1 -11   40.04   11.54
  -3  -2  14  167.12   51.90
  -3   2  14  163.64   27.38
   3  -2 -14  202.26   32.37
   3  -2 -14  227.26   35.49
  -3  -2  13  293.59   35.67
  -3   2  13  301.19   35.14
   3  -2 -13  288.85   33.20
   3   2 -13  243.43   27.52
   3   2 -13  248.50   28.66
  -3  -2  12  254.97   30.74
  -3   2  12  244.23   19.70
   3  -2 -12  250.03   19.29
   3   2 -12  238.27   17.43
   3  -2 -12  241.24   18.56
   3   2 -12  286.53   21.77
  -3  -2  11  104.01   12.65
  -3   2  11  119.53   14.48
   3  -2 -11  112.18   14.41
   3   2 -11  113.65   13.12
   3  -2 -11  118.81   14.05
   3   2 -11   95.52   12.84
  -3  -2  10   -4.34    4.95
  -3   2  10   22.03    5.31
   3  -2 -10   -0.71    4.73
   3   2 -10   20.69    4.58
   3  -2 -10   10.82    4.93
  -3  -2   9  784.56   34.65
  -3   2   9  783.50   35.31
   3  -2  -9  625.95   28.96
   3   2  -9  722.85   31.33
  -3  -2   8 1752.41   83.65
  -3   2   8 1508.76   72.76
   3  -2  -8 2025.86   96.60
   3   2  -8 1690.37   80.29
  -3  -2   7  785.67   31.95
  -3   2   7  748.46   31.02
   3  -2  -7  677.33   28.42
   3   2  -7  775.84   30.98
  -3  -2   6    2.90    3.20
  -3   2   6   13.90    6.37
   3  -2  -6   13.89    3.29
   3   2  -6   11.38    4.30
  -3   2   6   10.67    2.45
  -3  -2   5  673.75   18.03
   3   2  -5  553.51   15.02
   3  -2  -5  658.43   18.91
   3   2  -5  588.39   16.84
  -3  -2   5  603.23   18.41
  -3   2   5  514.29   16.32
   3  -2  -5  652.87   17.63
  -3  -2   4 1859.00   42.51
   3   2  -4 1514.24   34.76
   3   2  -4 1577.24   37.95
  -3   2   4 1657.26   38.24
   3  -2  -4 1706.38   38.93
  -3  -2   3 1923.99   39.34
   3   2  -3 2142.98   42.69
  -3   2   3 1953.69   40.95
   3   2  -3 2188.18   46.09
  -3  -2   3 1777.15   38.05
  -3   2   3 2057.45   42.41
   3   2  -3 2121.85   44.14
   3  -2  -3 1857.95   37.86
  -3  -2   2   53.37    2.99
  -3   2   2   81.43    4.45
   3  -2  -2   49.39    3.38
   3   2  -2   91.15    4.65
   3  -2  -2   53.18    3.34
  -3   2   2   88.30    4.03
  -3  -2   2   50.86    3.58
  -3   2   2   94.29    3.81
   3   2  -2   85.05    4.10
  -3   2   1 3172.88   64.95
   3   2  -1 3162.14   64.26
   3  -2  -1 3284.76   65.18
  -3   2   1 3372.06   66.68
  -3  -2   1 3514.42   70.40
   3   2  -1 3449.44   69.13
   3  -2  -1 3025.92   60.36
   3   2   0 1380.27   27.16
  -3  -2   0 1276.69   25.21
  -3   2   0 1580.31   34.77
  -3  -2   0 1462.86   32.09
   3  -2   0 1391.87   28.30
  -3   2   0 1557.79   31.42
  -3  -2   0 1233.55   27.29
   3   2   0 1491.36   31.79
  -3   2   0 1401.18   29.93
   3  -2   0 1362.82   29.04
   3   2   1 3967.56   86.44
  -3  -2  -1 3760.98   82.03
   3  -2   1 3912.74   84.56
  -3  -2  -1 4134.36   92.99
   3  -2   1 3856.90   83.29
  -3  -2  -1 3877.43   86.46
   3   2   1 3899.89   86.68
  -3   2  -1 4272.35   94.77
   3  -2   1 4108.63   91.15
   3  -2   2  174.54   23.22
   3   2   2   72.36    3.75
  -3   2  -2   67.11    4.74
   3  -2   3  209.57   18.90
   3   2   3  217.30   10.36
  -3  -2  -3  209.37    9.81
  -3  -2  -3  217.94   12.03
  -3  -2  -3  204.45   10.96
  -3   2  -3  215.02   11.22
   3  -2   4    0.03    0.36
   3  -2   5  721.22   37.81
   3   2   5  698.86   34.87
  -3   2  -5  667.25   31.37
  -3  -2  -5  744.55   37.29
   3  -2   5  702.11   32.83
  -3  -2  -5  777.00   38.53
  -3   2  -5  618.08   31.78
   3  -2   6  262.29   19.47
   3   2   6  340.78   22.47
  -3   2  -6  268.52   16.26
  -3  -2  -6  347.95   22.73
   3  -2   6  328.43   19.71
  -3  -2  -6  351.65   23.04
  -3   2  -6  261.88   18.99
   3  -2   7  123.24   26.69
   3   2   7  159.20   12.32
  -3   2  -7  128.30    7.94
  -3  -2  -7  139.88   11.01
  -3  -2  -7  131.15   10.83
  -3   2  -7  104.23    9.32
   3  -2   8   17.76    7.88
   3   2   8   23.73    6.18
  -3  -2  -8   11.17    6.28
  -3  -2  -8   14.52    4.78
  -3   2  -8   31.79    6.58
   3  -2   9  253.83   26.63
   3   2   9  341.97   32.69
  -3  -2  -9  242.74   23.81
  -3  -2  -9  310.33   29.79
  -3   2  -9  237.43   24.18
   3  -2  10   78.22   15.99
   3   2  10   80.77   18.49
  -3  -2 -10   82.58   11.47
  -3  -2 -10   60.07   10.36
  -3   2 -10   77.36   12.70
   3  -2  11   51.95   17.72
   3   2  11   47.66   22.18
  -3  -2 -11   51.29    9.41
  -3  -2 -11   62.85   10.71
  -3   2 -11   41.76    9.18
  -3  -3  13    3.46    3.95
  -3   3  13    9.99    6.59
   3  -3 -13    8.26    5.47
   3  -3 -13   10.63    4.73
   3   3 -13   19.83   10.04
  -3  -3  12   28.43   12.18
  -3   3  12   53.15   11.00
   3  -3 -12   44.87    8.52
   3   3 -12   53.68    8.54
   3  -3 -12   52.21    8.81
   3   3 -12   74.87   13.24
  -3  -3  11  280.29   27.70
  -3   3  11  229.88   23.75
   3  -3 -11  288.63   28.51
   3   3 -11  251.19   24.05
   3  -3 -11  250.38   24.42
   3   3 -11  232.46   24.06
  -3  -3  10  365.77   28.50
  -3   3  10  359.57   28.91
   3  -3 -10  344.33   27.95
   3   3 -10  301.76   23.60
   3  -3 -10  348.38   26.47
  -3  -3   9  284.12   18.78
  -3   3   9  385.47   24.80
   3  -3  -9  332.13   22.38
   3   3  -9  361.26   22.12
   3  -3  -9  314.12   19.45
  -3  -3   8   60.90   14.76
  -3   3   8   98.53   10.12
   3  -3  -8   88.05    9.20
   3   3  -8   86.66    8.06
  -3  -3   7  385.47   21.62
  -3   3   7  542.40   28.60
   3  -3  -7  478.70   25.94
   3   3  -7  511.87   26.15
  -3  -3   6  798.03   31.81
  -3   3   6  618.47   26.10
   3  -3  -6  770.55   31.90
   3   3  -6  767.85   30.76
  -3  -3   6  788.17   32.03
   3  -3  -6  729.44   28.52
  -3  -3   5 1393.82   55.31
  -3   3   5 1432.56   57.52
   3  -3  -5 1399.78   56.29
   3   3  -5 1379.27   54.97
  -3   3   5 1452.68   56.78
  -3  -3   5 1368.80   55.77
   3  -3  -5 1354.51   52.67
  -3  -3   4 1169.49   30.43
   3   3  -4 1285.56   30.28
  -3   3   4 1207.59   31.04
   3  -3  -4 1173.70   29.98
   3   3  -4 1290.81   32.29
  -3   3   4 1440.39   34.45
  -3  -3   4 1340.05   35.94
   3  -3  -4 1337.32   30.69
  -3  -3   3 1301.83   30.45
   3   3  -3 1367.75   31.33
  -3   3   3 1442.18   36.02
  -3  -3   3 1333.16   33.20
   3  -3  -3 1273.48   31.50
  -3  -3   3 1416.39   34.38
  -3   3   3 1318.93   30.76
   3  -3  -3 1279.47   29.20
   3   3  -2 5169.26  111.95
  -3   3   2 5417.06  207.50
   3   3  -2 5251.87  113.77
  -3  -3   2 5236.85  117.16
   3  -3  -2 5447.32  207.68
  -3   3   2 4762.77  105.05
  -3  -3   2 5093.87  113.03
   3   3  -2 4592.36  101.43
  -3   3   2 5122.40  111.44
   3  -3  -2 4981.37  108.30
   3   3  -1 2680.98   58.38
   3   3  -1 2679.32   58.33
  -3   3   1 3108.17   71.57
  -3  -3   1 3101.34   71.27
   3  -3  -1 2787.79   62.26
  -3   3   1 2741.93   61.21
  -3  -3   1 3028.81   67.89
   3   3  -1 2720.44   61.26
  -3   3   1 2887.18   64.21
   3  -3  -1 2802.15   62.07
   3   3   0  430.83   10.49
  -3  -3   0  346.62    8.85
  -3   3   0  446.50   14.29
   3  -3   0  344.84    9.25
  -3   3   0  438.84   11.29
  -3  -3   0  394.80   11.59
  -3   3   0  467.67   12.86
   3  -3   0  355.76   10.22
   3   3   1   30.79    2.26
  -3  -3  -1   24.97    2.09
  -3   3  -1   27.89    4.71
  -3  -3  -1   35.25    7.25
   3  -3   1   28.57    1.55
  -3   3  -1   36.54    1.77
  -3  -3  -1   30.84    3.04
   3   3   1   25.09    2.52
  -3   3  -1   29.46    2.81
   3  -3   1   26.00    2.56
   3   3   2 2014.99   77.61
  -3  -3  -2 1751.32   67.75
  -3  -3  -2 1946.23   76.80
  -3  -3  -2 1930.12   75.22
  -3   3  -2 1929.07   75.32
   3  -3   3 2020.46   79.44
   3   3   3 1927.25   71.29
  -3  -3  -3 2000.85   73.97
  -3  -3  -3 1887.45   71.53
  -3  -3  -3 1964.03   73.29
  -3   3  -3 2101.25   78.65
   3  -3   4  498.37   28.14
   3   3   4  637.44   31.64
  -3  -3  -4  507.68   26.43
  -3  -3  -4  498.61   25.50
  -3   3  -4  661.42   33.29
   3  -3   5    0.53    3.51
   3   3   5   14.61    4.93
  -3  -3  -5    8.85    4.74
  -3  -3  -5    2.79    2.77
  -3   3  -5    7.07    4.75
   3  -3   6  102.61   22.71
   3   3   6   74.16    7.52
  -3  -3  -6  102.58    9.75
  -3  -3  -6  106.97    8.98
  -3   3  -6   77.47    8.59
   3  -3   7  141.91   33.58
   3   3   7  189.51   16.05
  -3  -3  -7  119.24   11.91
  -3  -3  -7  104.77    9.76
  -3   3  -7  208.83   18.02
   3  -3   8  187.14   17.69
   3   3   8  153.60   26.29
  -3  -3  -8  179.87   17.08
  -3  -3  -8  197.00   17.81
  -3   3  -8  166.60   17.25
   3  -3   9   47.26   24.93
   3   3   9   45.41   12.59
  -3  -3  -9   69.38   16.60
  -3  -3  -9  105.75   11.38
  -3   3  -9   59.30   14.36
   3  -3  10   34.42   21.44
   3   3  10   49.74   13.49
  -3  -3 -10   48.43   13.72
  -3  -3 -10   52.31   13.94
  -3   3 -10   30.03    9.28
  -3  -4  13  131.21   45.91
  -3   4  13  186.25   29.86
   3  -4 -13  190.93   30.54
   3   4 -13  184.89   30.11
  -3  -4  12   94.34   39.56
  -3   4  12  187.48   23.48
   3  -4 -12   99.11   13.81
   3  -4 -12  101.24   12.75
   3   4 -12  140.16   18.32
  -3  -4  11  151.39   37.27
  -3   4  11  156.12   13.91
   3  -4 -11  168.20   15.28
   3   4 -11  134.57   11.42
   3  -4 -11  161.49   12.48
   3   4 -11  159.98   14.21
  -3  -4  10    6.19    4.04
  -3   4  10    3.29    6.01
   3  -4 -10    5.75    5.92
   3   4 -10   14.22    6.85
   3  -4 -10    9.74    4.28
  -3  -4   9  651.84   47.83
  -3   4   9  776.27   57.36
   3  -4  -9  858.46   63.26
   3   4  -9  726.06   52.26
   3  -4  -9  705.15   50.50
  -3  -4   8 1022.26   57.79
  -3   4   8 1169.55   66.13
   3  -4  -8  954.09   55.05
   3   4  -8  979.87   54.70
   3  -4  -8  986.21   54.55
  -3  -4   7   49.90    9.79
  -3   4   7   64.87    8.16
   3   4  -7   68.99    6.51
   3  -4  -7   27.27    2.91
   3  -4  -7   44.86    3.90
  -3  -4   6  260.99   20.48
  -3   4   6  247.57   15.25
   3  -4  -6  277.27   16.25
   3   4  -6  339.73   18.50
  -3  -4   6  252.75   14.69
   3  -4  -6  209.68   11.03
   3  -4  -6  294.88   15.00
  -3  -4   5   88.20   11.03
  -3   4   5   37.50    5.56
   3  -4  -5   85.83    7.09
   3   4  -5   41.86    4.82
  -3  -4   5   93.76   14.80
   3  -4  -5   80.34    4.17
  -3  -4   4 1823.25   69.62
   3   4  -4 1724.00   63.94
  -3   4   4 2012.28   76.24
   3  -4  -4 1865.95   70.53
   3   4  -4 1648.42   62.67
  -3   4   4 1732.65   63.08
  -3  -4   4 1960.25   73.61
   3  -4  -4 1778.05   64.71
   3   4  -3  895.03   35.46
  -3   4   3  735.76   31.63
   3   4  -3  958.89   38.05
  -3  -4   3 1033.64   44.22
   3  -4  -3 1095.43   44.20
  -3  -4   3 1135.75   45.49
  -3   4   3  895.96   34.67
   3  -4  -3 1089.02   41.81
   3   4  -2    0.85    1.48
  -3   4   2    6.33    4.32
   3   4  -2    5.42    1.40
  -3  -4   2   19.54    3.59
   3  -4  -2    9.81    2.67
  -3  -4   2   13.49    3.10
  -3   4   2    3.44    1.30
   3   4  -2    6.94    2.67
   3  -4  -2    4.86    1.10
   3   4  -1  932.70   36.67
   3   4  -1  930.99   36.39
  -3   4   1 1134.86   46.71
  -3  -4   1 1169.11   47.52
   3  -4  -1  944.22   37.67
  -3   4   1  810.76   32.52
  -3  -4   1  985.86   39.58
   3   4  -1  885.58   35.40
  -3   4   1  984.15   38.55
   3  -4  -1 1024.43   39.87
   3   4   0 1413.11   54.54
  -3   4   0 1468.70   59.49
  -3  -4   0 1453.89   56.21
  -3  -4   0 1527.84   61.17
   3  -4   0 1541.77   59.77
  -3   4   0 1459.90   56.58
  -3  -4   0 1426.03   55.76
   3   4   0 1309.77   51.37
  -3   4   0 1470.95   57.28
   3  -4   0 1430.22   55.61
  -3  -4  -1  318.09   13.22
  -3   4  -1  494.67   22.55
  -3  -4  -1  325.10   16.64
   3  -4   1  356.39   13.94
  -3  -4  -1  307.99   13.36
   3   4   1  519.53   20.77
   3   4   2  830.68   31.82
  -3  -4  -2  862.98   33.01
  -3   4  -2  747.84   31.36
  -3  -4  -2  963.99   39.12
  -3  -4  -2  973.53   37.54
  -3   4  -2  765.82   30.28
   3   4   3   83.93    6.04
  -3   4  -3   76.05    7.30
  -3  -4  -3   99.62   16.59
  -3  -4  -3   74.68    5.67
  -3   4  -3   75.23    6.23
   3  -4   4  401.29   27.54
   3   4   4  392.52   24.53
  -3  -4  -4  488.60   31.48
  -3  -4  -4  385.66   24.14
  -3   4  -4  441.16   27.96
   3  -4   5  790.59   49.03
   3   4   5  811.12   45.67
  -3  -4  -5  773.19   45.11
  -3  -4  -5  786.89   44.38
  -3   4  -5  771.71   44.72
   3  -4   6  175.16   16.61
   3   4   6  174.36   14.76
  -3  -4  -6  160.92   14.44
  -3  -4  -6  182.69   15.51
  -3   4  -6  200.18   17.06
   3  -4   7   10.48    5.53
   3   4   7   22.49    4.78
  -3  -4  -7   10.76    5.72
  -3  -4  -7   11.40    4.81
  -3   4  -7   17.12    5.00
   3  -4   8   37.10   12.74
   3   4   8   37.80    9.37
  -3  -4  -8   43.23   10.66
  -3  -4  -8   34.65    8.98
  -3   4  -8   49.05   12.70
   3   4   9   33.48    8.44
  -3  -4  -9   33.41    7.97
  -3  -4  -9   50.22    9.83
  -3   4  -9   49.80   10.92
   3  -4  10   90.13   43.19
   3   4  10  157.04   20.82
  -3  -4 -10  134.13   17.95
  -3  -4 -10  167.94   21.20
  -3   4 -10  161.89   21.27
  -3  -5  12   35.77   19.45
  -3   5  12   53.36   12.70
   3  -5 -12   42.91    9.38
   3   5 -12   43.21   10.01
  -3  -5  11   56.31   25.77
  -3   5  11   82.88   12.97
   3  -5 -11   67.45   17.59
   3   5 -11  170.25   21.33
  -3  -5  10  225.23   17.90
  -3   5  10  212.85   17.85
   3  -5 -10  244.15   19.61
   3   5 -10  256.99   20.03
  -3  -5   9  367.91   31.65
  -3   5   9  291.92   26.00
   3   5  -9  344.68   28.30
  -3  -5   8    9.00    4.69
  -3   5   8   13.86    5.99
   3  -5  -8   16.24    5.30
   3   5  -8   10.83    3.40
   3  -5  -8   12.64    2.54
  -3  -5   7  501.03   38.06
  -3   5   7  460.33   35.65
   3  -5  -7  601.53   45.71
   3   5  -7  442.82   33.42
   3  -5  -7  519.04   37.54
  -3  -5   6  349.78   17.44
  -3   5   6  361.89   19.14
   3  -5  -6  369.17   19.32
   3   5  -6  357.58   17.80
   3  -5  -6  317.45   13.07
  -3  -5   5  541.86   24.20
  -3   5   5  489.08   23.56
   3  -5  -5  484.27   22.71
   3   5  -5  498.84   22.88
  -3  -5   5  481.27   22.35
  -3   5   4  124.76   11.11
   3   5  -4  149.56   10.58
   3  -5  -4  119.62   10.49
   3   5  -4  127.20   10.37
  -3  -5   4  140.44   19.99
   3   5  -3  397.40   19.98
  -3   5   3  441.05   24.31
   3   5  -3  457.57   22.85
  -3  -5   3  337.03   18.94
   3  -5  -3  347.25   18.88
  -3  -5   3  365.58   26.87
   3   5  -2 1348.93   63.34
  -3   5   2 1549.13   74.81
   3   5  -2 1484.00   69.66
  -3  -5   2 1567.71   75.40
   3  -5  -2 1482.54   70.48
  -3   5   2 1360.13   62.64
  -3  -5   2 1491.21   70.86
  -3   5   2 1415.84   65.20
   3   5  -1 1292.05   60.70
   3   5  -1 1232.32   57.99
  -3   5   1 1525.42   73.81
  -3  -5   1 1429.34   72.67
   3  -5  -1 1400.70   66.32
  -3  -5   1 1427.26   67.87
  -3   5   1 1367.42   63.65
   3   5  -1 1179.85   55.83
   3   5   0   66.01    7.68
   3   5   0   79.55    5.17
  -3   5   0   58.61    7.08
  -3  -5   0   64.57   11.79
   3  -5   0   64.08    5.42
  -3   5   0   72.64    5.14
  -3  -5   0   66.38   10.32
   3   5   0   63.45    4.57
  -3   5   0   72.56    4.86
   3   5   1   46.78    4.17
  -3   5  -1   45.18    6.95
  -3  -5  -1   64.33    5.25
  -3  -5  -1   82.74   15.85
   3  -5   1   66.99    5.57
  -3   5  -1   47.07    3.81
  -3  -5  -1   66.55    5.16
  -3   5  -1   65.06    5.38
   3   5   1   39.42    3.56
   3   5   2  545.83   32.88
  -3   5  -2  638.91   40.67
   3  -5   2  426.93   25.37
  -3   5  -2  501.48   29.37
  -3  -5  -2  449.44   27.30
  -3   5  -2  555.06   33.71
   3   5   2  480.21   28.99
   3   5   3 1433.99   57.43
  -3   5  -3 1707.10   71.27
  -3  -5  -3 1776.32   73.11
  -3  -5  -3 1696.45   67.53
  -3   5  -3 1487.44   60.17
   3   5   4  105.01    7.87
  -3   5  -4  107.77   10.53
  -3  -5  -4  121.02   18.15
  -3  -5  -4   62.47    5.38
  -3   5  -4  102.09    8.53
   3  -5   5    8.29    4.93
   3   5   5    5.87    4.21
  -3  -5  -5    7.24    3.79
  -3  -5  -5    9.85    4.10
  -3   5  -5    7.35    4.62
   3  -5   6  202.89   19.28
   3   5   6  116.45   20.13
  -3  -5  -6  213.74   40.54
  -3  -5  -6  195.11   16.82
  -3   5  -6  141.52   24.71
   3  -5   7   37.06   13.58
   3   5   7   72.14   16.36
  -3  -5  -7   40.20   11.31
  -3  -5  -7   38.55    9.37
  -3   5  -7   58.27   14.30
   3  -5   8   40.50   23.09
   3   5   8   56.89    9.88
  -3  -5  -8   47.17   14.18
  -3  -5  -8   57.18    9.81
  -3   5  -8   73.97   11.34
   3  -5   9   47.98   20.28
   3   5   9   44.38    8.61
  -3  -5  -9   44.87   18.20
  -3   5  -9   29.71    8.69
  -3  -6  11   65.45   38.32
  -3   6  11  184.50   24.95
   3  -6 -11  151.91   21.50
   3   6 -11  226.88   30.11
  -3  -6  10   98.49   25.17
  -3   6  10  102.32   14.71
   3  -6 -10  121.89   16.61
   3   6 -10  116.58   15.95
  -3  -6   9  162.98   19.19
  -3   6   9  245.41   27.28
   3  -6  -9  188.31   22.17
   3   6  -9  240.69   26.35
  -3  -6   8  155.35   36.79
  -3   6   8  202.61   21.18
   3  -6  -8  170.65   18.83
   3   6  -8  201.63   19.77
  -3  -6   7   44.90   15.20
  -3   6   7   50.10   11.54
   3  -6  -7   63.69   12.94
   3   6  -7   60.48   11.26
  -3   6   6  155.96   15.26
   3   6  -6  148.43   13.13
   3  -6  -6  127.81   12.84
   3   6  -6  130.79   12.68
  -3   6   5  157.03   15.42
   3   6  -5  141.31   12.29
   3  -6  -5  109.48   10.63
   3   6  -5  143.03   12.76
  -3   6   4  409.18   26.18
   3   6  -4  472.60   27.83
  -3  -6   4  488.47   29.82
   3  -6  -4  499.78   29.94
  -3  -6   4  502.26   29.33
  -3   6   3  982.03   56.38
   3   6  -3  829.12   46.26
  -3  -6   3 1110.99   63.19
   3  -6  -3 1062.86   59.85
  -3  -6   3 1011.31   57.06
  -3   6   2  205.65   15.19
   3   6  -2  233.80   14.52
  -3  -6   2  286.29   20.32
   3  -6  -2  236.83   15.58
  -3  -6   2  268.81   16.23
   3   6  -1  584.60   32.96
  -3   6   1  569.11   34.60
  -3  -6   1  613.21   38.36
   3  -6  -1  620.60   35.41
  -3  -6   1  638.98   35.79
  -3   6   1  497.02   26.92
   3   6   0  323.58   19.06
  -3   6   0  348.27   23.12
  -3  -6   0  400.35   26.82
   3  -6   0  430.07   25.01
  -3  -6   0  445.28   25.21
  -3   6   0  316.02   18.02
   3   6   1  367.84   21.39
  -3   6  -1  457.47   28.90
  -3  -6  -1  352.81   22.88
   3  -6   1  267.68   15.97
  -3  -6  -1  277.25   18.07
  -3   6  -1  354.63   20.49
   3   6   2  232.40   18.04
  -3   6  -2  317.55   26.21
   3  -6   2  250.46   18.68
  -3  -6  -2  275.30   24.21
  -3  -6  -2  237.07   17.87
  -3   6  -2  260.72   20.00
   3   6   3  140.23   11.67
  -3   6  -3  125.46   13.84
  -3  -6  -3  110.05   31.33
  -3  -6  -3  104.66    8.56
  -3   6  -3  139.60   12.24
   3   6   4  238.14   23.71
  -3   6  -4  273.43   28.91
  -3  -6  -4  304.74   32.39
  -3   6  -4  247.44   24.97
   3   6   5   84.22   13.96
  -3   6  -5   68.20   13.66
  -3  -6  -5  110.73   24.55
  -3   6  -5   74.58   12.65
   3   6   6   53.46   12.42
  -3   6  -6   51.60   13.10
  -3  -6  -6   66.15   17.85
  -3   6  -6   75.49   17.53
   3   6   7   81.04   11.60
  -3   6  -7   91.08   13.41
  -3  -6  -7   64.03   24.05
  -3   6  -7   48.44   12.68
   3  -6   8   21.12    7.06
   3   6   8   18.47    6.86
  -3  -6  -8   14.79    6.32
  -3   6  -8    2.98    5.07
  -3  -7   9   77.04   11.84
  -3   7   9   53.97   10.06
   3  -7  -9  123.17   16.74
   3   7  -9   74.71   11.12
  -3   7   8   10.80    5.77
   3   7  -8   31.07    7.45
   3  -7  -8   27.15    7.35
   3   7  -8    8.74    4.12
  -3   7   7   62.82   11.63
   3   7  -7   75.29   11.83
   3  -7  -7   71.02   12.75
   3   7  -7   70.51   10.60
  -3   7   6  135.93   12.63
   3   7  -6  127.31   11.10
   3  -7  -6  180.36   15.59
   3   7  -6  134.00   11.74
  -3   7   5  212.01   20.20
   3   7  -5  181.27   16.86
   3  -7  -5  209.80   18.89
   3   7  -5  219.42   19.29
  -3   7   4   27.02    9.55
   3   7  -4    9.60    3.76
  -3  -7   4   28.32    7.52
   3  -7  -4   37.08    8.64
  -3   7   3  271.34   28.09
   3   7  -3  297.39   28.99
  -3  -7   3  287.97   29.56
   3  -7  -3  278.40   27.68
   3   7  -2  271.75   26.56
  -3   7   2  279.69   28.97
  -3  -7   2  245.90   29.61
   3  -7  -2  225.46   23.00
   3   7  -1   67.16    8.22
  -3   7   1   83.01   11.39
  -3  -7   1   60.78   36.91
   3  -7  -1   65.29    9.04
   3   7   0  206.09   20.38
  -3   7   0  169.45   19.25
  -3  -7   0  201.70   21.88
   3  -7   0  204.64   20.62
   3   7   1    8.26    2.77
  -3   7  -1   21.62    6.01
  -3  -7  -1   16.27    6.96
   3  -7   1   12.05    3.34
   3   7   2  248.46   20.32
  -3   7  -2  270.39   25.08
  -3  -7  -2  286.02   26.88
  -3   7  -3  372.02   36.05
  -3  -7  -3  326.66   31.35
  -3   7  -3  302.86   27.92
  -3   7  -4   69.09   13.21
  -3  -7  -4   47.51   13.98
  -3   7  -4   63.15    9.31
  -3   7  -5   31.92   10.32
  -3  -7  -5   55.24   18.33
  -3   7  -5   51.75    9.42
  -3   7  -6   38.50   11.78
  -3  -7  -6   31.91   26.92
  -3   7  -6   35.01    9.89
  -3   7  -7   38.55   11.32
  -3  -7  -7   11.31    8.58
  -3   8   7  118.03   17.88
   3  -8  -7   75.01   12.35
  -3   8   6   36.76   10.74
   3  -8  -6   31.43   10.20
  -3   8   5   14.38    6.17
   3  -8  -5   25.16    6.38
   3   8  -5   12.02    5.01
  -3   8   4  118.60   15.39
   3  -8  -4  168.75   19.93
  -3   8   3  128.65   16.68
  -3  -8   3  150.04   17.47
   3  -8  -3  178.43   20.44
  -3   8   2   11.03    5.90
  -3  -8   2   19.31    6.75
   3  -8  -2    9.37    4.46
  -3   8   1   52.21   10.44
  -3  -8   1   47.97   23.54
   3  -8  -1   59.33   17.80
  -3   8   0  138.91   17.94
  -3  -8   0  158.33   41.42
  -3   8  -1   89.06   13.64
  -3  -8  -1   78.55   25.32
  -3   8  -2   25.69    8.16
  -3  -8  -2    8.14    5.18
  -3   8  -3    6.89    6.23
  -3  -8  -3    6.77    3.73
  -3   8  -4  106.11   16.00
  -3  -8  -4   70.78   32.88
  -3   8  -5   36.14   10.34
  -3  -8  -5   26.68   19.34
  -3   9   4   14.27    6.16
   3  -9  -4   12.04    4.99
  -3   9   3  137.94   19.17
  -3  -9   3   58.70   17.35
   3  -9  -3   54.28   25.56
  -3   9   2   76.89   12.79
  -3  -9   2   74.46   29.41
  -3   9   1   29.21    8.91
  -3  -9   1   38.79   22.62
  -3   9   0   37.89   10.25
  -3  -9   0   18.76    8.59
  -3   9  -1    9.83    8.60
  -3  -9  -1   22.23   12.34
  -4   0  14  325.91   37.41
   4   0 -14  389.10   54.20
   4   0 -14  298.06   34.18
  -4   0  13  143.84   18.52
   4   0 -13  110.98   14.99
   4   0 -13  119.94   16.27
  -4   0  12  744.13  108.71
   4   0 -12  718.93   57.26
  -4   0  11  663.50   49.70
   4   0 -11  666.40   49.40
  -4   0  10  584.80   35.29
   4   0 -10  603.67   35.96
  -4   0   9   13.51    7.28
   4   0  -9   13.92    6.51
  -4   0   8  776.48   32.15
   4   0  -8  878.06   35.50
  -4   0   8  850.23   40.07
  -4   0   7 2750.20  107.06
   4   0  -7 3015.53  111.82
  -4   0   7 2807.51  109.81
  -4   0   6 2998.42   68.73
   4   0  -6 2787.91   64.67
  -4   0   6 2757.02   64.29
  -4   0   5  274.75    9.37
   4   0  -5  261.45    8.72
   4   0  -5  250.20    9.23
  -4   0   5  309.46   11.47
  -4   0   4   20.26    2.50
   4   0  -4   25.22    2.48
  -4   0   4   40.53    8.06
   4   0  -4   18.46    2.50
   4   0  -3 1038.16   22.50
  -4   0   3 1015.09   22.98
  -4   0   3 1074.51   24.36
  -4   0   2 6139.00  119.74
   4   0  -2 6252.58  121.75
  -4   0   2 6375.86  125.68
  -4   0   1   17.39    3.83
  -4   0   1   10.79    1.82
   4   0  -1   21.56    3.04
   4   0  -1   14.92    2.39
  -4   0   1   12.46    2.79
   4   0  -1    7.77    1.70
  -4   0   0   57.30    8.06
  -4   0   0   34.79    3.34
   4   0   0   26.40    3.46
  -4   0   0   41.56    3.77
   4   0   0   29.91    3.20
   4   0   1   78.47   12.93
  -4   0  -1   81.42   12.96
  -4   0  -1   77.90    5.24
   4   0   1   80.13   13.20
  -4   0  -1   58.36    4.07
   4   0   2  684.85   18.60
  -4   0  -2  616.92   17.07
  -4   0  -2  646.24   20.56
   4   0   2  631.62   16.47
   4   0   3  177.03    9.28
  -4   0  -3  209.50   10.09
   4   0   3  181.47    8.83
  -4   0  -3  215.33   11.66
   4   0   4  715.67   29.51
  -4   0  -4  750.74   29.39
  -4   0  -4  832.34   33.75
   4   0   5  186.39   25.94
  -4   0  -5  171.74    9.95
   4   0   6 1554.99   64.23
  -4   0  -6 1501.45   60.34
  -4   0  -6 1346.18   56.42
   4   0   7  362.45   29.17
  -4   0  -7  361.23   27.57
  -4   0  -7  356.20   28.18
   4   0   8   18.14    8.06
  -4   0  -8   14.85    6.97
  -4   0  -8   30.76    8.65
   4   0   9   -0.19    5.31
  -4   0  -9    4.11    3.64
  -4   0  -9   -3.60    4.54
   4   0  10    5.49    5.35
  -4   0 -10   17.67    7.57
  -4  -1  14  148.87   20.94
   4  -1 -14  119.73   16.82
   4   1 -14  101.83   14.48
   4   1 -14   99.20   15.52
   4  -1 -14  138.19   18.99
  -4  -1  13  177.02   20.89
   4  -1 -13  177.69   20.48
   4   1 -13  195.00   22.24
   4  -1 -13  227.69   25.98
   4   1 -13  163.51   19.69
  -4  -1  12   82.72   15.07
  -4   1  12  109.29   18.53
   4  -1 -12   83.23   14.71
   4   1 -12   76.22   13.30
   4  -1 -12   72.54   13.43
  -4  -1  11   11.21    5.48
  -4   1  11   15.32    5.20
   4  -1 -11   11.33    5.44
   4   1 -11   24.75    6.84
  -4  -1  10  459.37   28.69
  -4   1  10  475.36   29.84
   4  -1 -10  423.44   26.87
   4   1 -10  508.26   30.67
  -4  -1   9 1228.63   73.50
  -4   1   9 1022.51   61.93
   4  -1  -9 1277.86   76.47
   4   1  -9 1059.04   63.60
  -4  -1   8 1495.07   71.65
  -4   1   8 1329.36   64.36
   4  -1  -8 1480.61   71.26
   4   1  -8 1456.24   69.90
  -4   1   8 1508.60   72.33
  -4  -1   8 1405.47   68.53
  -4  -1   7   60.31    5.00
  -4   1   7  103.18    8.74
   4  -1  -7   71.23    6.48
   4   1  -7  112.07    7.35
  -4   1   7  122.14   19.98
  -4  -1   7   85.17   11.29
  -4  -1   6 1714.43   67.18
  -4   1   6 1660.29   65.62
   4  -1  -6 1629.45   64.86
   4   1  -6 1837.06   72.42
  -4  -1   6 2000.58   79.10
  -4   1   6 1549.34   63.42
  -4  -1   5 3553.66   79.38
   4   1  -5 3310.68   73.81
  -4   1   5 3818.61   85.92
   4   1  -5 3618.47   82.32
  -4  -1   4  211.38    6.94
   4  -1  -4  218.64    7.98
  -4  -1   3 1733.23   35.03
   4   1  -3 1812.35   36.46
   4  -1  -3 1763.51   37.59
  -4   1   3 1847.30   38.88
   4   1  -3 1725.98   36.87
   4  -1  -3 1835.09   38.47
  -4  -1   2  107.10    3.27
  -4   1   2  101.86    4.63
   4   1  -2  116.82    3.44
   4  -1  -2  124.34    5.19
   4  -1  -2  111.30    5.39
  -4   1   2  130.42    5.08
   4   1  -2  128.87    6.16
  -4  -1   2  115.92    5.60
   4   1  -2  110.71    4.95
   4  -1  -2   94.69    4.35
  -4  -1   1  752.28   16.13
  -4  -1   1  819.03   17.05
  -4   1   1  872.53   20.61
   4  -1  -1  801.99   18.77
  -4  -1   1  781.89   19.05
   4  -1  -1  875.06   19.78
  -4   1   1  819.32   18.37
  -4   1   1  955.50   22.45
   4   1  -1  936.04   21.68
   4  -1  -1  704.14   17.03
   4   1   0 1875.54   38.71
  -4   1   0 1869.92   42.11
  -4  -1   0 1968.55   39.51
  -4   1   0 2159.93   45.46
   4  -1   0 2099.02   42.83
   4   1   0 2018.78   42.39
   4  -1   0 2059.21   42.22
  -4  -1   0 1783.46   38.79
  -4   1   0 2176.97   46.00
   4  -1   1  695.85   23.76
   4   1   1  597.20   15.43
  -4  -1  -1  764.67   18.74
  -4  -1  -1  722.48   19.48
   4  -1   1  715.05   17.87
   4   1   1  637.92   17.70
   4  -1   1  777.79   18.93
  -4   1  -1  670.69   18.57
   4  -1   2    9.25    3.84
   4   1   2   21.07    4.71
  -4  -1  -2    7.46    1.94
  -4   1  -2   22.15    1.98
  -4  -1  -2    9.49    1.79
   4  -1   2    8.48    1.36
  -4  -1  -2   16.35    3.46
  -4   1  -2   23.52    3.20
   4  -1   3  296.84   16.28
   4   1   3  479.46   22.96
  -4   1  -3  485.70   20.25
  -4  -1  -3  324.00   16.33
   4  -1   3  432.56   17.69
  -4  -1  -3  383.99   17.74
  -4   1  -3  455.87   20.62
   4  -1   4  383.90   17.96
   4   1   4  254.69   12.80
  -4   1  -4  274.64   11.96
  -4  -1  -4  402.57   17.53
   4  -1   4  384.89   15.59
  -4  -1  -4  330.53   15.93
  -4   1  -4  278.42   14.07
   4  -1   5  631.32   40.85
   4   1   5  692.71   47.40
  -4   1  -5  658.57   39.05
  -4  -1  -5  777.81   46.88
   4  -1   5  630.07   37.45
  -4  -1  -5  695.64   42.77
  -4   1  -5  667.89   41.42
   4  -1   6  361.52   19.63
   4   1   6  364.62   18.61
  -4   1  -6  410.61   19.80
  -4  -1  -6  371.82   17.62
  -4  -1  -6  368.81   19.31
  -4   1  -6  338.27   18.07
   4  -1   7  249.69   34.21
   4   1   7  195.40   16.79
  -4   1  -7  222.11   17.33
  -4  -1  -7  240.75   30.48
  -4  -1  -7  205.56   17.73
  -4   1  -7  258.87   22.31
   4  -1   8  388.28   34.69
   4   1   8  414.55   34.41
  -4  -1  -8  440.01   35.36
  -4  -1  -8  427.46   35.32
  -4   1  -8  504.00   41.39
   4  -1   9  298.28   52.01
   4   1   9  356.04   58.81
  -4  -1  -9  296.17   30.66
  -4  -1  -9  317.31   34.09
  -4   1  -9  292.38   31.50
   4  -1  10  105.97   25.82
   4   1  10   91.58   19.99
  -4  -1 -10   99.02   13.79
  -4  -2  14  102.86   35.56
  -4   2  14  120.41   17.53
   4  -2 -14  121.82   17.23
   4   2 -14  151.80   19.74
   4  -2 -14   82.64   12.16
  -4  -2  13   26.35    7.73
  -4   2  13   15.14    8.73
   4  -2 -13   19.79    6.30
   4   2 -13   13.75    4.84
   4  -2 -13    4.68    4.78
   4   2 -13   30.54    7.65
  -4  -2  12  434.38   41.11
  -4   2  12  461.43   43.31
   4  -2 -12  425.08   40.19
   4   2 -12  432.30   40.15
   4  -2 -12  416.06   38.94
  -4  -2  11 1088.13  103.02
  -4   2  11 1131.00  106.89
   4  -2 -11 1074.27  101.58
   4   2 -11 1005.13   95.00
  -4  -2  10  237.13   19.86
  -4   2  10  199.92   17.68
   4  -2 -10  281.51   23.52
   4   2 -10  168.04   14.98
  -4  -2   9   56.79    6.39
  -4   2   9   79.29    7.47
   4  -2  -9   66.91    7.65
   4   2  -9   86.22    7.15
  -4  -2   8  764.10   38.25
  -4   2   8  785.49   39.61
   4  -2  -8  744.28   37.85
   4   2  -8  795.88   39.60
  -4  -2   8  758.59   38.49
  -4  -2   7 2077.17   77.76
  -4   2   7 2142.36   80.95
   4   2  -7 2147.85   80.77
  -4   2   7 2167.71   81.05
  -4  -2   7 2234.28   84.74
  -4  -2   6 2651.88  102.61
   4  -2  -6 2831.75  110.67
   4   2  -6 2754.24  107.32
  -4   2   6 3115.39  114.89
  -4  -2   5 1010.40   24.79
   4   2  -5  839.24   20.82
   4  -2  -5  931.05   24.90
   4   2  -5  862.68   23.68
  -4   2   5  934.23   23.78
  -4  -2   5  960.41   25.86
   4  -2  -5  845.10   21.37
  -4  -2   4  467.25   12.27
   4   2  -4  457.46   11.78
   4  -2  -4  481.20   14.54
   4   2  -4  530.72   16.29
  -4   2   4  481.10   13.59
   4  -2  -4  446.20   12.41
  -4  -2   3 4424.18   96.01
   4   2  -3 3902.14   84.62
   4  -2  -3 4450.26   99.02
  -4   2   3 3519.60   78.95
   4   2  -3 3861.31   87.27
  -4  -2   3 4391.26   98.17
   4  -2  -3 3976.25   87.91
  -4   2   2  720.85   20.04
   4  -2  -2  807.35   20.46
  -4  -2   2  811.61   21.11
  -4   2   2  708.04   18.37
   4  -2  -2  802.87   20.17
  -4  -2   1  467.57   14.48
   4  -2  -1  414.99   11.36
  -4   2   1  576.50   14.71
   4   2  -1  514.01   14.49
  -4   2   1  573.68   15.78
   4  -2  -1  449.65   12.93
   4   2   0  586.34   13.98
  -4  -2   0  654.43   14.93
  -4  -2   0  635.14   19.40
   4  -2   0  565.45   14.09
  -4   2   0  566.33   14.00
  -4  -2   0  633.83   18.03
  -4   2   0  616.60   17.01
   4  -2   0  542.14   15.04
   4   2   1 1118.95   26.74
  -4  -2  -1  935.87   21.89
   4  -2   1  955.25   22.52
  -4  -2  -1  963.40   28.39
   4  -2   1  959.03   21.97
  -4  -2  -1  998.83   25.99
  -4   2  -1 1066.72   27.12
   4  -2   2  479.86   21.95
  -4  -2  -2  473.85   20.99
   4  -2   2  483.55   18.85
   4  -2   2  446.34   17.48
  -4  -2  -2  441.30   19.74
   4  -2   3  614.17   26.58
   4   2   3  469.89   19.37
  -4  -2  -3  521.08   24.07
   4  -2   3  655.92   24.02
   4  -2   3  601.26   22.11
  -4  -2  -3  568.72   23.99
  -4   2  -3  541.19   23.00
   4  -2   4   73.24   21.75
   4   2   4   38.68    3.93
  -4  -2  -4   95.66   14.94
   4  -2   4   62.98    3.45
   4  -2   4   63.26    3.48
  -4  -2  -4   55.59    5.77
  -4   2  -4   47.48    5.75
   4  -2   5   63.33   18.11
   4   2   5   53.90    6.33
  -4   2  -5   46.41    4.43
  -4  -2  -5   79.48   16.75
   4  -2   5   54.85    3.80
  -4  -2  -5   76.83    8.50
  -4   2  -5   47.23    6.08
   4  -2   6  421.03   26.87
   4   2   6  465.58   33.14
  -4   2  -6  468.83   25.77
  -4  -2  -6  410.66   25.00
  -4  -2  -6  413.42   25.65
  -4   2  -6  427.02   27.00
   4  -2   7  452.59   36.88
   4   2   7  570.08   42.32
  -4  -2  -7  515.09   38.30
  -4  -2  -7  574.74   42.59
  -4   2  -7  611.85   46.25
   4  -2   8  221.43   22.64
   4   2   8  263.33   28.08
  -4  -2  -8  246.51   23.71
  -4  -2  -8  305.49   29.98
  -4   2  -8  313.91   30.75
   4  -2   9  102.89   32.60
   4   2   9   86.38   26.78
  -4  -2  -9   66.10   30.17
  -4  -2  -9  101.11   13.01
   4  -2  10   11.18   11.81
   4   2  10   15.27    9.13
  -4  -2 -10   11.38    7.46
  -4  -2 -10   49.57   10.33
  -4   2 -10   28.02    9.49
  -4  -3  13  273.69   42.27
  -4   3  13  330.86   37.59
   4  -3 -13  332.15   37.22
   4   3 -13  320.18   34.98
   4  -3 -13  283.67   31.39
   4   3 -13  309.58   35.35
  -4  -3  12  113.62   28.62
  -4   3  12   93.93   14.18
   4  -3 -12   95.80   13.26
   4   3 -12  125.98   15.18
   4  -3 -12  104.94   12.78
  -4  -3  11  147.09   36.44
  -4   3  11  128.47   23.05
   4  -3 -11  173.22   17.18
   4   3 -11  138.74   24.07
   4  -3 -11  156.38   26.72
  -4  -3  10  343.49   27.79
  -4   3  10  329.06   27.16
   4  -3 -10  326.31   26.98
   4   3 -10  282.05   22.18
  -4  -3   9  855.90   48.92
  -4   3   9  827.47   48.29
   4  -3  -9  861.83   50.32
   4   3  -9  730.58   41.98
  -4  -3   8  535.40   24.53
  -4   3   8  552.31   26.04
   4  -3  -8  516.25   24.77
   4   3  -8  504.03   23.15
  -4  -3   8  537.06   25.61
  -4  -3   7    2.79    1.76
  -4   3   7   14.08    5.75
   4  -3  -7    9.64    4.71
   4   3  -7   30.61    5.73
  -4   3   7   21.26    2.94
  -4  -3   7    4.52    3.19
  -4  -3   6  881.28   34.51
   4  -3  -6  817.70   33.42
   4   3  -6  785.11   32.15
  -4   3   6  872.08   34.21
  -4  -3   6  890.01   39.03
   4  -3  -6  706.74   27.52
  -4  -3   5 1012.74   40.95
   4   3  -5 1329.75   49.58
  -4   3   5 1094.43   45.12
   4  -3  -5 1101.65   43.22
   4   3  -5 1411.53   56.95
  -4  -3   5 1026.86   40.55
  -4   3   5 1344.83   50.63
   4  -3  -5  918.64   36.52
  -4  -3   4 1675.91   64.95
   4   3  -4 1529.74   59.04
  -4   3   4 1669.88   66.83
   4  -3  -4 1625.57   64.49
   4   3  -4 1604.10   63.96
  -4  -3   4 1751.56   69.31
  -4   3   4 1520.50   59.55
   4  -3  -4 1803.50   69.71
   4  -3  -3   81.99    5.78
  -4  -3   3   84.62   17.81
   4  -3  -3   78.97    4.50
  -4   3   2   21.46    6.91
   4  -3  -2    6.14    3.88
  -4   3   2   11.34    3.07
  -4  -3   2    0.79    2.83
  -4   3   2   13.52    2.96
   4  -3  -2    9.96    2.05
  -4  -3   1  108.77   20.03
   4  -3  -1   72.95    3.85
   4   3   0 1756.38   66.79
  -4  -3   0 1914.58   72.82
  -4   3   0 1766.47   70.43
  -4  -3   0 1880.79   74.34
   4  -3   0 1819.16   69.91
  -4   3   0 1909.56   73.31
  -4  -3   0 1915.38   75.02
  -4   3   0 1761.72   68.86
   4   3   1  976.14   37.95
  -4  -3  -1 1051.05   40.81
  -4   3  -1  992.70   41.58
   4  -3   1 1039.93   39.91
  -4  -3  -1 1069.89   43.83
   4  -3   1  972.90   37.36
  -4  -3  -1 1075.30   43.51
  -4   3  -1 1004.80   40.60
   4   3   2   38.69    2.97
  -4  -3  -2   28.84    2.77
  -4   3  -2   43.28    6.24
  -4  -3  -2   35.42    5.81
  -4  -3  -2   38.86    4.40
  -4   3  -2   36.27    4.16
   4  -3   3   18.42    5.25
   4   3   3   25.66    3.10
  -4  -3  -3   13.68    2.30
  -4  -3  -3   14.17    3.91
  -4  -3  -3   15.36    3.55
  -4   3  -3   40.79    5.01
   4  -3   4  595.71   38.42
   4   3   4  530.57   32.49
  -4  -3  -4  639.83   40.32
  -4  -3  -4  644.35   39.53
  -4   3  -4  555.16   34.79
   4  -3   5  464.30   29.54
   4   3   5  575.49   33.30
  -4  -3  -5  720.28   42.11
  -4  -3  -5  556.77   32.73
  -4   3  -5  620.37   36.89
   4  -3   6  359.32   29.28
   4   3   6  400.22   31.04
  -4  -3  -6  356.95   28.24
  -4  -3  -6  352.03   27.56
  -4   3  -6  365.46   29.09
   4  -3   7   12.35    7.51
   4   3   7    8.07    3.83
  -4  -3  -7    6.19    2.24
  -4  -3  -7    7.53    4.27
  -4   3  -7   14.70    7.84
   4  -3   8  144.38   15.06
   4   3   8  176.61   14.69
  -4  -3  -8  112.69   31.74
  -4  -3  -8  117.77   11.05
  -4   3  -8  130.75   12.03
   4  -3   9  146.35   19.46
   4   3   9  123.99   35.36
  -4  -3  -9  103.03   30.93
  -4  -3  -9  118.83   15.25
  -4   3  -9  157.21   19.38
   4  -3  10   53.72   19.97
   4   3  10   56.64   25.47
  -4  -3 -10   25.89   17.53
  -4  -3 -10   94.11   16.52
  -4   3 -10   54.39   12.21
  -4  -4  13    7.72    5.05
  -4   4  13   15.06    6.73
   4  -4 -13   21.72    9.29
   4   4 -13   11.52    6.65
  -4  -4  12  114.88   39.57
  -4   4  12  230.48   27.96
   4  -4 -12  189.85   23.07
   4  -4 -12  153.34   17.80
  -4  -4  11  388.94   27.81
  -4   4  11  327.09   24.34
   4  -4 -11  330.97   24.57
   4   4 -11  408.09   27.59
   4  -4 -11  395.42   26.25
  -4  -4  10  468.15   38.27
  -4   4  10  442.39   37.34
   4  -4 -10  453.58   38.24
   4   4 -10  460.75   37.22
   4  -4 -10  467.65   37.27
  -4  -4   9   14.94    5.49
  -4   4   9   15.56    6.62
   4  -4  -9   17.41    6.24
   4   4  -9   13.83    4.75
   4  -4  -9   15.11    4.12
  -4  -4   8   78.63   20.39
  -4   4   8  132.69   11.53
   4   4  -8  139.29   11.39
  -4  -4   7 1745.08   71.37
  -4   4   7 1635.06   67.69
   4  -4  -7 1836.94   74.98
   4   4  -7 1779.28   72.12
  -4  -4   7 1725.09   72.31
  -4  -4   6 1756.81  103.42
  -4   4   6 1950.46   79.20
   4  -4  -6 1864.82  110.12
   4   4  -6 2041.41   82.11
  -4   4   6 1942.80   76.16
  -4  -4   6 1929.59   78.23
   4  -4  -6 1744.26  101.26
  -4  -4   5  133.75    8.27
   4   4  -5  176.43    9.92
  -4   4   5  154.94   10.45
   4  -4  -5  125.70    9.13
   4   4  -5  207.23   13.14
  -4   4   5  174.94    9.49
  -4  -4   5  121.33    9.38
   4  -4  -5  108.68    6.26
  -4  -4   4  277.68   12.18
   4   4  -4  261.03   11.11
  -4   4   4  346.38   17.29
   4  -4  -4  261.15   12.90
   4   4  -4  270.72   13.64
  -4  -4   4  279.42   13.66
  -4   4   4  253.89   12.80
   4  -4  -4  252.61   10.58
   4   4  -3  842.90   31.41
  -4   4   3  721.78   30.10
   4   4  -3  806.74   30.22
  -4  -4   3  790.75   32.34
   4  -4  -3  772.10   30.78
  -4  -4   3  821.36   34.76
  -4   4   3  854.35   32.12
   4  -4  -3  727.94   27.48
   4   4  -2  576.47   21.48
   4   4  -2  578.81   21.60
  -4   4   2  546.51   23.93
  -4  -4   2  558.52   25.78
   4  -4  -2  513.58   21.07
  -4  -4   2  519.98   22.94
  -4   4   2  562.89   21.99
   4  -4  -2  516.31   20.08
   4   4  -1  273.57   10.65
   4   4  -1  252.33    9.67
  -4   4   1  243.11   13.17
  -4  -4   1  300.00   16.48
   4  -4  -1  322.33   13.85
  -4   4   1  266.05   11.53
  -4  -4   1  300.75   13.44
  -4   4   1  273.73   11.97
   4  -4  -1  294.67   12.43
   4   4   0    5.78    1.13
  -4   4   0    7.69    4.67
  -4  -4   0    3.74    0.95
  -4  -4   0    6.83    3.37
   4  -4   0    3.76    1.03
  -4   4   0    0.77    1.42
  -4  -4   0   10.00    3.79
  -4   4   0    5.40    3.15
   4   4   1  273.98   13.66
  -4  -4  -1  271.30   13.60
  -4   4  -1  304.16   18.01
  -4  -4  -1  284.71   16.72
   4  -4   1  286.64   13.88
  -4   4  -1  289.88   14.01
  -4  -4  -1  329.63   17.66
  -4   4  -1  275.27   15.25
   4   4   2  836.26   39.80
  -4  -4  -2  704.19   33.86
  -4   4  -2  764.07   39.17
  -4  -4  -2  784.49   42.45
  -4  -4  -2  856.72   42.04
  -4   4  -2  860.65   42.21
   4   4   3   70.62    5.85
  -4   4  -3   48.65    6.36
  -4  -4  -3   36.41   14.10
  -4  -4  -3   49.34    5.82
  -4   4  -3   67.75    7.10
   4  -4   4   38.87    6.66
   4   4   4   16.08    3.14
  -4  -4  -4   49.11   12.84
  -4  -4  -4   37.23    4.64
  -4   4  -4   26.18    5.37
   4  -4   5   15.67    8.73
   4   4   5   14.12    4.46
  -4  -4  -5   14.61    4.96
  -4  -4  -5    7.64    4.29
  -4   4  -5   18.86    5.54
   4  -4   6   54.99   17.95
   4   4   6   85.73   10.18
  -4  -4  -6   76.26   24.23
  -4  -4  -6   67.03    8.65
  -4   4  -6  131.86   15.46
   4  -4   7  441.07   42.62
   4   4   7  482.23   44.22
  -4  -4  -7  527.49   48.75
  -4  -4  -7  504.47   46.13
  -4   4  -7  509.10   47.20
   4  -4   8   51.47   31.19
   4   4   8  119.12   14.56
  -4  -4  -8   88.99   24.10
  -4  -4  -8  122.76   14.82
  -4   4  -8   80.36   12.00
   4  -4   9   11.60    5.57
   4   4   9   21.17    7.41
  -4  -4  -9    7.45    6.14
  -4  -4  -9   40.89   11.42
  -4   4  -9   24.29    8.12
  -4  -5  12   55.34   14.02
   4  -5 -12   58.42   11.00
   4   5 -12   83.28   13.82
  -4  -5  11    4.36    4.60
  -4   5  11   25.85    9.51
   4  -5 -11   20.33    9.25
  -4  -5  10  421.68   28.99
  -4   5  10  445.29   31.25
   4  -5 -10  551.83   68.21
   4   5 -10  386.32   25.97
  -4  -5   9  316.31   26.86
  -4   5   9  323.08   28.63
   4  -5  -9  367.36   32.39
   4   5  -9  396.93   32.43
  -4  -5   8   36.87   14.26
  -4   5   8   84.04    9.42
   4  -5  -8   36.45    7.48
   4   5  -8  103.60    9.84
   4  -5  -8   37.85    4.10
  -4  -5   7  364.96   29.53
  -4   5   7  367.88   29.30
   4  -5  -7  411.10   32.51
   4   5  -7  382.52   29.74
  -4  -5   7  399.52   31.07
   4  -5  -7  367.72   26.97
  -4  -5   6   81.48   19.02
  -4   5   6   60.90    8.13
   4  -5  -6   77.16    8.07
   4   5  -6   90.85    8.29
  -4  -5   6   98.88   17.77
   4  -5  -6   79.45    5.30
  -4   5   5  770.76   34.92
   4   5  -5  783.57   32.88
   4  -5  -5  938.69   40.57
   4   5  -5  773.37   33.90
  -4  -5   5  878.61   37.55
   4  -5  -5  798.64   31.38
   4   5  -4  748.65   44.25
  -4   5   4  835.69   51.62
   4   5  -4  771.64   45.70
   4  -5  -4  817.76   49.54
   4   5  -4  740.14   45.49
  -4   5   4  772.63   44.88
  -4  -5   4  703.85   44.68
   4  -5  -4  722.52   41.94
   4   5  -3  102.70    7.05
  -4   5   3  101.95    9.74
   4   5  -3  113.42    7.72
  -4  -5   3  106.29   19.84
   4  -5  -3   93.11    7.78
  -4  -5   3  106.26    8.75
  -4   5   3  110.49    7.18
   4  -5  -3   92.23    5.98
   4   5  -2  198.11   12.38
   4   5  -2  209.63   12.99
  -4   5   2  220.20   16.53
  -4  -5   2  250.30   17.80
   4  -5  -2  259.01   16.91
  -4  -5   2  187.25   13.47
  -4   5   2  175.99   11.06
   4  -5  -2  219.82   13.57
   4   5  -1   54.78    4.36
   4   5  -1   61.01    4.33
  -4   5   1   83.72    8.73
  -4  -5   1  101.22   13.18
   4  -5  -1   77.87    6.39
  -4  -5   1   68.61   12.39
  -4   5   1   76.75    5.92
   4  -5  -1   69.59    5.46
   4   5   0  314.47   20.37
   4   5   0  336.55   20.18
  -4   5   0  432.26   29.13
  -4  -5   0  304.41   23.88
   4  -5   0  270.24   16.84
  -4   5   0  323.40   19.79
  -4  -5   0  314.54   19.87
  -4   5   0  396.69   24.48
   4   5   1  383.82   16.30
  -4   5  -1  382.83   20.38
  -4  -5  -1  315.97   13.79
  -4  -5  -1  318.77   17.62
   4  -5   1  340.87   14.21
  -4   5  -1  371.29   15.49
  -4  -5  -1  339.34   15.59
  -4   5  -1  403.70   18.38
   4   5   2   81.90    5.59
  -4   5  -2   90.09    9.39
  -4  -5  -2   90.48   18.21
  -4  -5  -2   77.29    5.76
  -4   5  -2  101.10    7.02
   4   5   3  154.65   12.34
  -4   5  -3  240.42   20.99
  -4  -5  -3  188.76   40.63
  -4  -5  -3  196.57   15.85
  -4   5  -3  174.46   15.18
   4   5   4  128.33   10.91
  -4   5  -4  162.59   15.66
  -4  -5  -4  102.44   23.60
  -4  -5  -4  132.17   11.61
  -4   5  -4  130.37   11.50
   4   5   5  266.69   22.53
  -4   5  -5  284.33   29.78
  -4  -5  -5  258.65   28.30
  -4  -5  -5  272.37   27.22
  -4   5  -5  267.73   23.15
   4  -5   6  216.28   23.09
   4   5   6  174.25   17.46
  -4  -5  -6  176.95   39.19
  -4  -5  -6  190.56   18.76
  -4   5  -6  199.69   20.37
   4  -5   7    0.71    4.06
   4   5   7   12.67    3.76
  -4  -5  -7    9.04    5.50
  -4  -5  -7    6.95    3.35
  -4   5  -7    7.83    5.08
   4  -5   8   76.44   37.53
   4   5   8   63.25    9.61
  -4  -5  -8   66.55   31.67
  -4  -5  -8   48.02    8.66
  -4   5  -8   61.36   10.95
  -4  -6  11  157.43   21.20
  -4   6  11  174.46   23.42
   4   6 -11  124.55   17.68
  -4  -6  10  162.25   19.49
   4  -6 -10  209.96   25.27
  -4  -6   9    4.27    4.64
  -4   6   9    7.67    6.16
   4  -6  -9   11.14    5.25
   4   6  -9   31.98    6.71
  -4  -6   8  235.08   22.96
  -4   6   8  215.02   22.46
   4  -6  -8  270.97   26.91
   4   6  -8  204.71   20.39
  -4  -6   7  556.97   45.86
  -4   6   7  583.56   47.72
   4  -6  -7  676.66   54.27
   4   6  -7  615.58   49.08
  -4   6   6  329.40   33.43
   4   6  -6  277.71   27.32
   4  -6  -6  226.83   23.57
   4   6  -6  308.00   30.66
  -4  -6   6  279.32   27.86
  -4   6   5   85.26   10.66
   4   6  -5  109.69    9.52
   4  -6  -5   74.81    9.69
   4   6  -5  105.92   10.93
  -4  -6   5   72.79   21.59
  -4   6   4    1.75    5.45
   4   6  -4   13.58    3.05
  -4  -6   4   22.77    5.04
   4  -6  -4   26.64    6.49
  -4  -6   4   18.85    4.04
  -4   6   3  400.85   31.83
   4   6  -3  325.61   24.21
  -4  -6   3  286.77   24.12
   4  -6  -3  301.71   23.68
  -4  -6   3  256.88   20.15
   4   6  -2  438.14   24.67
  -4   6   2  393.83   25.66
  -4  -6   2  347.34   22.94
   4  -6  -2  340.68   21.03
  -4  -6   2  330.57   19.94
   4   6  -1  261.79   15.19
  -4   6   1  309.85   20.70
  -4  -6   1  347.25   25.07
   4  -6  -1  327.87   19.71
  -4  -6   1  335.27   20.91
  -4   6   1  243.79   14.19
   4   6   0  183.09   13.91
  -4   6   0  197.45   18.22
  -4  -6   0  210.21   18.78
   4  -6   0  191.41   14.90
  -4  -6   0  197.08   15.83
  -4   6   0  213.36   16.37
   4   6   1  156.93   12.27
  -4   6  -1  199.96   18.54
  -4  -6  -1  207.25   36.82
   4  -6   1  225.82   17.16
  -4  -6  -1  228.33   17.69
  -4   6  -1  187.52   14.87
   4   6   2  126.99   10.17
  -4   6  -2  176.86   17.23
  -4  -6  -2  181.76   14.14
  -4   6  -2  161.49   13.16
   4   6   3  281.48   27.22
  -4   6  -3  325.79   33.97
  -4  -6  -3  263.70   48.67
  -4  -6  -3  241.61   23.68
  -4   6  -3  324.59   31.86
  -4   6  -4   17.92    8.87
  -4  -6  -4    8.38    5.10
  -4  -6  -4    6.63    3.04
  -4   6  -4   -1.50    2.98
  -4   6  -5   33.25   11.00
  -4  -6  -5    5.10    4.08
  -4   6  -5   14.38    5.19
  -4   6  -6  136.67   18.55
  -4  -6  -6   57.15   15.80
  -4   6  -6  106.31   13.20
  -4   6  -7  176.56   22.54
  -4  -6  -7   81.52   37.23
  -4   6  -7  128.25   16.37
  -4   7   9  148.40   18.52
   4   7  -9  186.77   21.95
   4  -7  -9  135.59   18.27
  -4   7   8  100.10   14.18
   4   7  -8  105.31   13.55
   4  -7  -8  105.87   14.96
   4   7  -8   95.03   12.41
  -4   7   7   91.30   12.73
   4   7  -7   82.39   12.98
   4  -7  -7   95.76   12.87
   4   7  -7   79.01   11.87
  -4   7   6   97.48   14.18
   4   7  -6  110.59    9.26
   4  -7  -6  147.15   12.81
   4   7  -6  135.86   12.89
  -4   7   5  125.81   20.74
   4   7  -5  115.08   17.71
   4  -7  -5  120.00   19.51
   4   7  -5  129.67   21.36
  -4   7   4  449.36   37.78
  -4  -7   4  390.36   33.12
   4  -7  -4  400.69   32.99
  -4   7   3  102.96   19.55
  -4  -7   3   26.54    7.85
   4  -7  -3   37.63    7.80
  -4  -7   3   26.63    8.35
  -4   7   2   10.25    6.77
  -4  -7   2    5.27    5.72
   4  -7  -2    1.64    3.36
  -4  -7   2    2.56    1.90
  -4   7   1  260.93   24.37
  -4  -7   1  304.14   27.00
   4  -7  -1  319.58   26.11
  -4   7   0   73.08   15.48
  -4  -7   0   45.38   20.39
  -4   7  -1   46.25   10.35
  -4  -7  -1   44.71   12.74
  -4   7  -2   99.55   17.34
  -4  -7  -2   66.01   19.28
  -4   7  -3  170.14   20.58
  -4  -7  -3  118.65   37.16
  -4   7  -4  209.61   25.49
  -4  -7  -4  225.60   40.89
  -4   7  -4  149.55   17.39
  -4   7  -5   65.35   11.14
  -4  -7  -5   56.54   15.44
  -4   7  -5   46.44   11.87
  -4   7  -6   83.01   16.80
  -4  -7  -6   64.66   15.16
  -4   7  -6   67.74   12.10
  -4   8   7  107.13   16.43
   4  -8  -7   86.89   12.85
  -4   8   6   45.20   12.07
   4  -8  -6   73.90   11.22
   4   8  -6   67.05   10.71
  -4   8   5  104.82   15.14
   4  -8  -5   70.74   18.27
   4   8  -5   77.39   18.51
  -4   8   4    9.27    5.90
  -4   8   3  123.91   16.78
  -4  -8   3  106.88   13.92
   4  -8  -3  115.98   14.42
  -4   8   2   50.71   11.61
  -4  -8   2   34.79   12.21
   4  -8  -2   32.45    5.75
  -4   8   1   82.22   12.08
  -4  -8   1   57.00   35.53
  -4   8   0   10.33    5.97
  -4  -8   0    4.49    3.00
  -4   8  -1   25.94    8.24
  -4  -8  -1   42.99   12.82
  -4   8  -2  157.72   19.88
  -4  -8  -2   99.45   35.48
  -4   8  -3   25.45    8.73
  -4  -8  -3    5.60    5.51
  -4   8  -4    8.43    7.06
  -4  -8  -4   29.24   14.77
  -4   9   3   14.76    6.48
  -4  -9   3    3.34    4.44
  -4   9   2   35.37    9.44
  -4   9   1   74.18   14.48
  -4  -9   1   32.42   20.60
  -5   0  14  130.20   17.64
   5   0 -14   73.96   11.80
   5   0 -14   85.38   13.03
  -5   0  13  224.24   24.94
   5   0 -13  240.09   26.69
  -5   0  12  192.25   18.78
   5   0 -12  182.86   17.72
  -5   0  11  152.40   14.17
   5   0 -11  167.00   15.63
  -5   0  10  904.37   52.35
   5   0 -10  879.55   50.74
  -5   0  10  896.00   51.65
  -5   0   9  560.06   35.25
   5   0  -9  589.52   37.13
  -5   0   9  628.57   49.63
  -5   0   8  875.74   43.41
   5   0  -8  842.92   42.15
  -5   0   8  850.57   42.38
  -5   0   7  283.24   13.72
   5   0  -7  247.66   12.85
  -5   0   7  269.52   13.85
  -5   0   6 1407.13   55.89
   5   0  -6 1203.71   48.92
  -5   0   6 1413.69   57.65
  -5   0   5 1581.37   37.68
   5   0  -5 1572.10   39.02
  -5   0   4  470.05   13.18
   5   0  -4  441.85   12.40
  -5   0   4  383.39   12.37
  -5   0   3  544.31   14.55
   5   0  -3  711.75   17.96
  -5   0   3  759.48   20.70
  -5   0   2   81.02    4.36
   5   0  -2   97.64    4.28
   5   0  -2   81.32    4.42
   5   0  -2  101.69    5.65
  -5   0   2  113.37    6.08
  -5   0   1 3319.01   75.42
  -5   0   1 3646.65   81.12
   5   0  -1 3716.79   86.25
   5   0  -1 3296.49   74.59
  -5   0   1 3734.34   84.75
  -5   0   0 2421.76   56.13
  -5   0   0 2615.88   59.50
   5   0   0 2261.96   52.54
   5   0   0 2510.07   57.64
  -5   0   0 2618.57   61.34
   5   0   1 1644.82   65.36
  -5   0  -1 1620.75   66.31
  -5   0  -1 1684.72   68.68
   5   0   1 1844.23   71.73
  -5   0  -1 1584.84   63.29
   5   0   2    7.39    2.66
  -5   0  -2   11.45    3.77
   5   0   2    4.57    1.41
  -5   0  -2   11.40    4.57
   5   0   3  427.86   19.19
  -5   0  -3  476.44   19.74
  -5   0  -3  427.66   19.60
   5   0   4  407.65   26.04
  -5   0  -4  411.23   26.06
  -5   0  -4  481.11   30.81
   5   0   5  304.72   21.45
  -5   0  -5  287.88   14.90
   5   0   6  121.04   33.11
  -5   0  -6  142.13   12.05
  -5   0  -6  172.08   15.97
   5   0   7   61.79   18.52
  -5   0  -7   70.26   19.68
  -5   0  -7   70.74   10.49
   5   0   8  453.84   32.57
  -5   0  -8  592.43   72.90
   5   0   9   53.30   27.75
  -5   0  -9  104.46   15.27
   5   0  10   13.73    5.59
  -5   0 -10   28.58    8.29
  -5  -1  14   28.43   10.93
  -5   1  14   12.65    6.81
   5  -1 -14    7.86    6.66
   5   1 -14    7.78    4.83
   5   1 -14    9.37    5.87
   5  -1 -14    8.27    5.25
  -5  -1  13  264.15   29.55
  -5   1  13  222.04   24.91
   5  -1 -13  284.08   31.03
   5   1 -13  285.54   31.17
  -5  -1  12  660.42   60.34
  -5   1  12  816.64  172.07
   5  -1 -12  734.86   66.75
   5   1 -12  876.94  184.53
  -5  -1  11  193.22   17.02
  -5   1  11  110.90   11.73
   5  -1 -11  152.85   14.97
   5   1 -11   90.35   10.75
  -5  -1  10   10.49    4.34
  -5   1  10   40.48    5.58
   5  -1 -10   24.05    5.62
   5   1 -10   42.69    6.93
  -5  -1  10   14.42    7.57
  -5  -1   9    9.23    4.34
  -5   1   9   41.41    6.79
   5  -1  -9   10.14    5.57
   5   1  -9   35.17    5.74
  -5  -1   9   16.52    3.29
  -5   1   9   38.84    9.58
  -5  -1   8  405.63   21.64
  -5   1   8  343.65   19.58
   5  -1  -8  411.81   22.71
   5   1  -8  359.69   20.00
  -5   1   8  371.87   20.29
  -5  -1   8  418.90   28.65
  -5  -1   7  700.96   28.49
  -5   1   7  734.31   29.98
   5  -1  -7  668.82   28.05
   5   1  -7  646.30   27.12
  -5   1   7  721.14   31.15
  -5  -1   7  667.82   28.38
  -5  -1   6  474.91   20.42
  -5   1   6  277.39   13.57
   5  -1  -6  424.73   19.73
   5   1  -6  302.58   15.27
  -5  -1   6  498.90   22.88
  -5   1   6  311.58   15.80
  -5  -1   5   28.55    3.16
  -5   1   5   28.62    3.25
   5   1  -5   34.14    2.61
   5  -1  -5   29.06    3.91
   5   1  -5   39.18    4.72
  -5   1   5   36.54    6.90
  -5  -1   5   50.89    9.79
  -5  -1   4 1316.79   30.71
  -5   1   4 1184.35   29.64
   5   1  -4 1255.75   29.27
   5  -1  -4 1241.46   31.19
   5   1  -4 1296.97   33.25
  -5   1   4 1138.49   28.57
  -5  -1   3 1492.36   33.80
  -5   1   3 1549.90   37.39
   5   1  -3 1528.14   34.57
   5  -1  -3 1473.90   35.14
   5  -1  -3 1612.74   38.78
  -5   1   3 1651.39   39.56
  -5  -1   2 2310.49   51.10
  -5   1   2 2551.92   58.73
   5  -1  -2 2084.11   48.20
   5  -1  -2 2551.10   58.52
  -5   1   2 2517.69   57.21
   5   1  -2 2706.83   62.78
  -5  -1   2 2434.22   56.92
  -5   1   1  238.50    8.54
  -5  -1   1  323.66    9.38
  -5  -1   1  329.67    9.01
  -5   1   1  264.50   10.00
   5  -1  -1  347.07   10.33
   5  -1  -1  353.88   11.15
  -5   1   1  256.77    9.68
  -5  -1   0  228.04    8.01
  -5   1   0  243.25    9.69
  -5  -1   0  242.57    7.47
  -5  -1   0  280.60   10.97
   5  -1   0  222.78    9.77
   5  -1   0  270.80    8.97
  -5   1   0  250.35   10.22
   5   1   1  668.70   27.28
  -5  -1  -1  647.65   26.26
  -5  -1  -1  760.07   32.34
   5  -1   1  647.20   27.56
   5  -1   1  640.51   26.08
  -5  -1  -1  716.48   30.41
  -5   1  -1  601.39   26.17
   5  -1   2 2808.63  132.65
   5   1   2 2841.39  132.17
  -5  -1  -2 3179.19  149.09
   5  -1   2 2769.71  128.25
   5  -1   2 2810.62  130.24
  -5  -1  -2 2705.56  101.07
  -5   1  -2 2631.45   98.09
   5  -1   3  657.73   27.85
   5   1   3  480.67   27.10
  -5   1  -3  550.26   23.68
  -5  -1  -3  626.81   26.01
   5  -1   3  652.99   25.31
  -5  -1  -3  704.38   29.61
  -5   1  -3  591.23   25.72
   5  -1   4   17.18    5.42
   5   1   4   10.03    5.73
  -5   1  -4    8.95    4.35
  -5  -1  -4   12.61    5.27
   5  -1   4   12.04    2.05
  -5  -1  -4   27.27    5.47
  -5   1  -4   13.08    6.58
   5  -1   5  279.92   16.64
   5   1   5  350.69   33.06
  -5   1  -5  374.05   18.24
  -5  -1  -5  300.99   18.01
  -5  -1  -5  327.84   18.14
  -5   1  -5  326.06   17.78
   5  -1   6  519.27   44.36
   5   1   6  440.76   34.06
  -5   1  -6  581.19   42.64
  -5  -1  -6  535.85   41.28
  -5  -1  -6  574.94   43.76
  -5   1  -6  601.80   45.95
   5  -1   7  191.63   17.67
   5   1   7   88.35   26.92
  -5  -1  -7  128.93   23.73
  -5  -1  -7  171.63   16.77
  -5   1  -7  138.46   24.79
   5  -1   8    3.77    3.99
   5   1   8    5.41    3.40
  -5  -1  -8    5.10    2.63
  -5  -1  -8    6.39    4.85
  -5   1  -8   -1.68    4.95
   5  -1   9   71.63   33.58
   5   1   9   61.14   20.57
  -5  -1  -9   98.51   13.74
  -5   1  -9   64.42   17.47
   5  -1  10   56.12   21.34
   5   1  10   60.98   32.60
  -5  -1 -10   79.15   15.36
  -5  -2  14  386.66   58.75
   5  -2 -14  344.77   41.56
   5   2 -14  382.80   57.69
   5  -2 -14  361.31   43.45
  -5  -2  13  180.76   21.89
   5  -2 -13  228.72   26.51
   5   2 -13  181.84   21.08
   5  -2 -13  175.91   20.97
  -5  -2  12   33.53    8.69
  -5   2  12   37.16   10.19
   5  -2 -12   28.75    7.78
   5   2 -12   25.13    7.77
  -5  -2  11  200.85   21.56
  -5   2  11  261.05   27.36
   5  -2 -11  189.63   20.92
   5   2 -11  176.15   19.25
  -5  -2  10  148.44   13.94
  -5   2  10  232.98   19.87
   5  -2 -10  134.96   13.46
   5   2 -10  202.06   17.74
  -5  -2  10  131.35   13.31
  -5  -2   9 1618.95   66.11
  -5   2   9 1570.83   65.03
   5  -2  -9 1478.82   62.17
   5   2  -9 1535.30   63.30
  -5   2   9 1663.72   67.79
  -5  -2   9 1587.16   66.04
  -5  -2   8   71.87    7.07
  -5   2   8  108.16    9.92
   5  -2  -8   54.70    6.00
   5   2  -8   97.30    8.68
  -5   2   8  131.28   23.15
  -5  -2   8   72.20   16.52
  -5  -2   7   97.27    6.77
  -5   2   7   87.77    7.29
   5  -2  -7  103.67    8.12
   5   2  -7  107.06    8.01
  -5  -2   7  111.77   23.99
  -5   2   7  118.44   17.70
  -5  -2   6  489.81   19.96
  -5   2   6  569.40   24.33
   5  -2  -6  442.78   19.83
   5   2  -6  637.68   27.04
  -5   2   6  660.75   27.04
  -5  -2   5  671.52   27.12
   5   2  -5  801.01   31.77
  -5   2   5  885.09   36.82
   5  -2  -5  637.83   27.41
   5   2  -5  872.08   37.04
  -5  -2   5  766.52   32.70
  -5   2   5  796.33   32.77
  -5  -2   4 1670.62   64.22
   5   2  -4 1685.64   64.70
  -5   2   4 1617.75   64.29
   5  -2  -4 1336.71   53.53
   5   2  -4 1516.74   60.86
  -5  -2   4 1807.12   71.37
  -5   2   4 1629.17   63.91
  -5  -2   3  922.67   20.74
  -5   2   3 1058.72   27.90
   5   2  -3  894.34   20.10
   5  -2  -3  910.85   23.64
   5   2  -3  882.04   24.48
  -5  -2   3  850.54   22.94
  -5   2   3 1006.67   25.53
  -5   2   2  285.08   10.76
  -5  -2   2  205.06    9.23
   5  -2  -2  205.67    7.73
  -5  -2   2  198.84    8.43
  -5   2   1 3743.97   85.53
  -5  -2   1 4232.20   96.66
   5  -2  -1 3937.51   87.35
  -5   2   1 3903.65   86.35
  -5  -2   1 3949.40   89.83
  -5   2   1 3813.06   86.34
   5   2   0 1633.13   62.52
  -5  -2   0 1997.39   76.19
  -5   2   0 1548.54   61.98
   5  -2   0 1957.62   76.27
  -5  -2   0 2229.82   87.82
   5  -2   0 1923.69   74.16
  -5  -2   0 2211.16   86.72
  -5   2   0 1733.68   68.47
   5   2   1  870.30   36.04
  -5  -2  -1  814.55   32.13
  -5   2  -1 1084.80   44.66
  -5  -2  -1  900.98   37.34
   5  -2   1  860.22   34.26
   5  -2   1  863.68   33.98
  -5  -2  -1  948.47   39.42
  -5   2  -1  766.54   32.36
   5  -2   2  219.26   29.69
   5   2   2  156.94    7.89
  -5  -2  -2  140.88    7.20
  -5  -2  -2  203.49   12.25
   5  -2   2  190.49    7.99
   5  -2   2  178.17    7.64
  -5  -2  -2  206.56   11.32
  -5   2  -2  171.56    9.98
   5  -2   3  597.38   33.66
   5   2   3  621.07   30.90
  -5  -2  -3  592.08   32.43
   5  -2   3  577.25   27.25
   5  -2   3  581.64   27.52
  -5  -2  -3  515.88   26.91
  -5   2  -3  572.04   30.36
   5  -2   4  735.45   33.33
   5   2   4  715.25   30.66
  -5  -2  -4  670.76   29.56
   5  -2   4  647.52   25.68
   5  -2   4  664.34   26.33
  -5  -2  -4  662.07   29.66
  -5   2  -4  705.42   31.95
   5  -2   5  217.16   20.20
   5   2   5  253.36   17.95
  -5  -2  -5  199.17   23.81
   5  -2   5  207.05   11.72
  -5  -2  -5  215.43   15.03
  -5   2  -5  259.01   18.24
   5  -2   6    9.22    3.51
   5   2   6    4.89    3.86
  -5  -2  -6    1.00    2.77
  -5  -2  -6    6.14    3.91
  -5   2  -6   16.63    8.99
   5  -2   7  149.89   27.02
   5   2   7  151.13   26.32
  -5  -2  -7  130.67   30.73
  -5  -2  -7  133.64   23.66
  -5   2  -7   86.08   16.62
   5  -2   8  118.67   15.83
   5   2   8   99.32   24.55
  -5  -2  -8  100.63   18.72
  -5  -2  -8  120.47   14.82
  -5   2  -8  140.53   18.14
   5  -2   9  118.71   29.67
   5   2   9   98.26   12.83
  -5  -2  -9  104.14   13.28
  -5  -2  -9  116.50   15.35
  -5   2  -9  121.88   16.20
  -5  -3  13   29.86   16.85
  -5   3  13   29.23    9.53
   5  -3 -13   51.75   15.37
   5   3 -13   75.10   19.02
   5  -3 -13   59.56   15.58
  -5  -3  12  301.99   32.78
  -5   3  12  342.47   37.17
   5  -3 -12  235.97   26.67
   5   3 -12  285.34   30.41
   5  -3 -12  280.51   29.71
  -5  -3  11  259.81   23.25
  -5   3  11  264.30   23.97
   5  -3 -11  219.83   20.85
   5   3 -11  270.09   23.28
  -5  -3  10  250.30   20.40
  -5   3  10  222.59   19.09
   5  -3 -10  197.13   17.28
   5   3 -10  197.42   16.54
  -5  -3   9   95.62   24.28
  -5   3   9   64.01    8.06
   5  -3  -9   77.17    8.80
   5   3  -9   56.75    6.86
  -5  -3   9  105.63   25.82
  -5  -3   8  995.18   41.84
  -5   3   8 1014.62   43.61
   5   3  -8  942.59   40.71
  -5   3   8  864.59   36.33
  -5  -3   8  890.16   41.25
  -5  -3   7  419.50   26.20
  -5   3   7  458.13   29.33
   5  -3  -7  445.06   28.71
   5   3  -7  395.63   25.88
  -5   3   7  381.25   29.15
  -5  -3   7  400.38   27.57
  -5   3   6   90.42    8.14
   5   3  -6   63.28    6.56
  -5   3   6   88.13   14.36
  -5  -3   5   11.56    2.30
   5   3  -5    5.94    1.40
  -5   3   5    5.14    4.37
   5  -3  -5   10.37    6.14
   5   3  -5   11.20    4.27
  -5  -3   5   11.82    3.54
  -5   3   5    1.76    2.07
   5  -3  -5    8.10    1.87
  -5  -3   4  664.32   25.57
   5   3  -4  596.81   22.35
   5  -3  -4  718.22   29.30
   5   3  -4  661.91   27.97
  -5  -3   4  622.79   26.90
  -5   3   4  586.74   23.45
   5  -3  -4  623.93   24.57
   5  -3  -3 1359.66   54.16
   5   3  -3 1507.18   60.82
  -5  -3   3 1313.47   52.74
  -5   3   3 1701.42   66.52
   5  -3  -3 1443.18   56.64
  -5  -3   2  861.85   36.91
   5  -3  -2  927.46   37.42
  -5   3   2  736.81   29.99
  -5  -3   2  778.91   32.50
  -5   3   2  867.23   35.28
  -5   3   1   52.94    5.98
  -5  -3   1   46.74   10.62
   5  -3  -1   31.47    2.89
  -5   3   1   52.35    3.49
  -5  -3   1   30.67    4.08
  -5   3   1   58.81    4.85
  -5   3   0  159.49   10.18
  -5  -3   0  154.64   11.46
   5  -3   0  145.31    6.93
  -5   3   0  123.55    5.87
  -5  -3   0  123.51    7.99
  -5   3   0  117.39    7.88
   5   3   1  199.01    8.77
  -5  -3  -1  124.78    5.72
  -5   3  -1  234.69   12.72
   5  -3   1  141.27    6.51
  -5  -3  -1  166.26   20.00
   5  -3   1  134.74    5.79
  -5  -3  -1  139.71    8.52
  -5   3  -1  232.50   12.22
   5   3   2 1289.77   60.97
  -5  -3  -2 1237.48   58.20
  -5   3  -2 1437.88   69.98
  -5  -3  -2 1204.20   63.16
  -5  -3  -2 1264.36   61.16
  -5   3  -2 1244.15   60.00
   5  -3   3 1047.34   63.82
   5   3   3 1128.39   67.92
  -5  -3  -3 1171.67   72.55
  -5  -3  -3 1028.94   61.71
  -5   3  -3 1196.24   71.62
   5  -3   4   73.89   14.99
   5   3   4   65.56   15.86
  -5  -3  -4   67.38   13.40
  -5  -3  -4   61.04    6.59
  -5   3  -4   64.72    7.90
   5  -3   5  195.95   32.11
   5   3   5  237.09   19.24
  -5  -3  -5  233.10   20.66
  -5  -3  -5  189.91   16.18
  -5   3  -5  234.14   19.86
   5  -3   6  218.80   38.41
   5   3   6  156.98   27.70
  -5  -3  -6  190.08   31.46
  -5  -3  -6  197.22   20.92
  -5   3  -6  141.15   16.05
   5  -3   7  178.48   33.38
   5   3   7  140.29   19.07
  -5  -3  -7  194.31   30.79
  -5  -3  -7  209.81   17.47
  -5   3  -7  136.25   12.34
   5  -3   8   53.10   12.54
   5   3   8   47.12   15.48
  -5  -3  -8   38.53   12.48
  -5  -3  -8   77.52   11.40
  -5   3  -8   68.13   11.89
   5  -3   9   16.05   13.06
   5   3   9   43.05   24.28
  -5  -3  -9   33.87   12.38
  -5  -3  -9   30.21    6.82
  -5   3  -9   35.97    9.04
  -5  -4  13   72.00   33.42
  -5   4  13  149.70   21.03
   5  -4 -13  103.98   15.88
  -5  -4  12   18.77    6.10
  -5   4  12    1.42    6.12
   5  -4 -12   48.43   11.47
   5   4 -12    2.05    4.30
   5  -4 -12    6.90    3.20
  -5  -4  11   67.95   23.36
  -5   4  11   89.27   14.73
   5  -4 -11   58.07   14.67
   5   4 -11   86.35   19.45
   5  -4 -11   57.78   13.27
  -5  -4  10  379.20   31.40
  -5   4  10  363.63   31.52
   5  -4 -10  390.75   33.12
   5   4 -10  263.24   22.68
  -5  -4   9  326.56   26.51
  -5   4   9  369.41   29.87
   5  -4  -9  360.48   29.25
   5   4  -9  416.81   31.74
  -5  -4   9  395.34   30.80
  -5  -4   8  103.97   23.75
  -5   4   8  141.98   14.26
   5  -4  -8  106.29   11.41
   5   4  -8  127.78   13.17
  -5  -4   8  122.91   21.61
  -5  -4   7  141.93   13.72
  -5   4   7  163.66   11.93
   5  -4  -7  172.48   12.00
   5   4  -7  137.41   10.52
  -5   4   7  126.72    7.34
  -5  -4   7  161.15   22.97
  -5  -4   6  109.08    8.17
  -5   4   6  250.65   18.24
   5  -4  -6  107.89    9.52
   5   4  -6  230.39   16.90
  -5  -4   6  121.48   21.71
   5  -4  -6   96.99    7.04
  -5  -4   5  433.65   26.18
   5   4  -5  285.07   17.49
  -5   4   5  222.72   16.39
   5  -4  -5  432.31   27.74
   5   4  -5  294.01   20.08
  -5   4   5  286.68   18.20
  -5  -4   5  452.89   28.95
   5  -4  -5  335.59   20.61
   5   4  -4 2287.44  105.68
  -5   4   4 2621.27  153.59
   5   4  -4 2493.49  143.84
   5  -4  -4 2434.87  142.15
   5   4  -4 2257.64  107.21
  -5  -4   4 2441.15  142.55
  -5   4   4 2279.59  106.66
   5  -4  -4 2205.53  102.63
  -5   4   3  390.99   21.89
  -5  -4   3  358.92   20.19
   5  -4  -3  344.03   18.30
  -5  -4   3  347.07   18.83
  -5   4   3  312.56   16.07
   5  -4  -3  332.75   16.96
  -5   4   2  448.62   24.69
  -5  -4   2  529.26   28.36
  -5  -4   2  473.48   24.59
  -5   4   2  439.75   22.17
   5  -4  -2  456.26   22.69
  -5   4   1 1012.95   50.61
  -5  -4   1  730.94   41.54
   5  -4  -1  742.85   35.89
  -5   4   1  797.98   38.30
  -5  -4   1  809.88   39.78
  -5   4   1  879.99   42.71
  -5   4   0  742.94   37.94
  -5  -4   0  491.28   27.28
   5  -4   0  717.71   34.15
  -5   4   0  735.20   34.93
  -5  -4   0  697.93   34.96
  -5   4   0  720.99   35.74
   5   4   1  498.19   29.30
  -5  -4  -1  464.03   27.41
  -5   4  -1  515.90   33.19
   5  -4   1  435.67   25.63
  -5  -4  -1  485.58   32.03
   5  -4   1  473.71   27.65
  -5  -4  -1  486.77   30.42
  -5   4  -1  432.00   27.19
   5   4   2  144.34    7.55
  -5  -4  -2   95.52    5.64
  -5   4  -2  159.75   11.62
  -5  -4  -2  137.60   21.90
  -5  -4  -2   98.80    7.04
  -5   4  -2  140.80    9.14
   5   4   3  383.37   22.15
  -5   4  -3  379.83   24.36
  -5  -4  -3  553.57   52.48
  -5  -4  -3  503.06   29.82
  -5   4  -3  386.06   24.23
   5   4   4  881.05   63.96
  -5  -4  -4  974.93   72.08
  -5  -4  -4  802.28   59.19
  -5   4  -4  861.03   63.70
   5  -4   5   34.15    8.57
   5   4   5    7.15    3.78
  -5  -4  -5   58.48   16.86
  -5  -4  -5   36.07    5.67
  -5   4  -5   12.53    5.58
   5  -4   6    6.73    4.69
   5   4   6    5.55    6.12
  -5  -4  -6    4.45    3.38
  -5  -4  -6   11.71    5.62
  -5   4  -6    9.22    4.59
   5  -4   7   51.45   17.30
   5   4   7   38.39   12.84
  -5  -4  -7   38.78   11.31
  -5  -4  -7   58.02    9.44
  -5   4  -7   42.98    7.94
   5  -4   8   27.78   16.98
   5   4   8   32.09   19.04
  -5  -4  -8   29.71   12.09
  -5  -4  -8   36.21    9.57
  -5   4  -8   47.49   10.43
  -5  -5  12   42.83   17.10
  -5   5  12   72.22   13.61
   5  -5 -12   54.08   12.48
  -5  -5  11  199.43   48.42
  -5   5  11  231.05   26.94
   5  -5 -11  310.35   34.69
   5   5 -11  199.82   22.92
  -5  -5  10   67.13   23.45
  -5   5  10  120.12   12.61
   5  -5 -10   85.46   20.49
   5   5 -10  104.37    9.80
  -5  -5   9   34.97   13.07
  -5   5   9   52.16   12.31
   5  -5  -9   52.63   12.30
   5   5  -9   53.90   11.02
  -5  -5   8  506.24   48.73
  -5   5   8  377.57   38.00
   5  -5  -8  491.68   48.02
   5   5  -8  374.01   36.89
  -5  -5   8  503.39   48.94
  -5  -5   7  455.66   34.36
  -5   5   7  580.17   44.76
   5  -5  -7  505.80   39.42
   5   5  -7  648.86   48.99
  -5  -5   7  389.73   31.41
  -5  -5   6    6.26    3.33
  -5   5   6   15.60    6.15
   5  -5  -6    9.97    5.91
   5   5  -6   27.13    4.86
  -5   5   6   22.47    2.63
  -5  -5   6    8.08    3.33
  -5   5   5  280.22   19.25
   5   5  -5  269.07   15.91
   5  -5  -5  279.64   18.16
   5   5  -5  226.49   16.28
  -5   5   5  234.23   13.57
  -5  -5   5  300.46   20.22
   5   5  -4  266.46   11.57
  -5   5   4  306.99   17.45
   5   5  -4  284.07   12.27
   5  -5  -4  213.96   12.50
   5   5  -4  277.23   15.87
  -5  -5   4  177.01   10.43
  -5   5   4  297.46   13.47
   5   5  -3  907.27   35.47
   5   5  -3  874.90   34.25
  -5   5   3  814.25   36.60
  -5  -5   3  977.33   42.52
   5  -5  -3  959.73   40.13
  -5  -5   3  905.21   45.93
  -5   5   3  841.41   33.93
   5  -5  -3  888.38   35.59
  -5   5   2  616.00   29.36
  -5  -5   2  729.98   34.44
   5  -5  -2  738.21   31.11
  -5  -5   2  781.03   33.62
  -5   5   2  767.46   31.60
   5  -5  -2  646.17   26.65
  -5   5   1   29.90    8.47
  -5  -5   1   52.59    9.69
   5  -5  -1   59.94    4.44
  -5  -5   1   51.90    4.92
  -5   5   1   39.11    3.83
   5   5   0   62.63    2.97
  -5   5   0   71.47    8.82
  -5  -5   0   92.79   24.89
   5  -5   0   87.09    5.08
  -5  -5   0   71.40    5.89
  -5   5   0   55.42    4.93
   5   5   1  162.66    9.58
  -5   5  -1  181.16   14.82
  -5  -5  -1  212.69   37.92
   5  -5   1  179.20   10.22
  -5  -5  -1  181.70   12.42
  -5   5  -1  178.81   12.09
   5   5   2  355.90   26.14
  -5   5  -2  395.24   32.16
  -5  -5  -2  339.70   28.90
  -5  -5  -2  340.13   26.30
  -5   5  -2  358.24   27.55
   5   5   3  420.87   30.42
  -5   5  -3  449.39   35.34
  -5  -5  -3  442.00   34.62
  -5  -5  -3  433.23   32.16
  -5   5  -3  418.28   31.35
   5   5   4   23.29    5.06
  -5   5  -4   15.84    7.06
  -5  -5  -4   31.61    8.89
  -5  -5  -4   31.45    7.20
  -5   5  -4   36.87    8.79
  -5   5  -5  131.31   21.16
  -5  -5  -5  135.11   36.78
  -5  -5  -5  129.24   20.02
  -5   5  -5  130.97   21.65
  -5   5  -6   78.25   13.70
  -5  -5  -6   90.67   25.39
  -5  -5  -6   91.59   11.19
  -5   5  -6   74.42   11.72
   5  -5   7   45.51   12.99
  -5  -5  -7   31.91   17.11
  -5  -5  -7   50.65    8.89
  -5   5  -7   86.69   13.05
  -5  -6  11    6.59    4.29
  -5   6  11    9.06    6.56
   5  -6 -11    7.02    5.90
  -5  -6  10  220.61   25.64
  -5   6  10  291.16   33.40
   5  -6 -10  279.77   32.73
   5   6 -10  276.09   30.77
  -5  -6   9  150.51   19.36
  -5   6   9  122.15   15.78
   5  -6  -9  104.67   13.34
   5   6  -9  135.30   16.42
  -5  -6   8   40.36   18.32
  -5   6   8   72.24   17.61
   5  -6  -8   58.84   14.74
   5   6  -8   41.59   10.79
  -5   6   7   45.38   11.73
   5   6  -7   27.56    5.81
   5  -6  -7   25.13    9.38
   5   6  -7   38.50    8.90
  -5  -6   7    5.94    4.28
  -5   6   6  145.66   16.71
   5   6  -6  121.91   12.62
   5  -6  -6  122.71   14.89
   5   6  -6  128.10   15.12
  -5  -6   6  120.12   32.51
  -5   6   5  482.09   37.60
   5   6  -5  402.49   29.09
   5  -6  -5  435.43   33.08
   5   6  -5  392.95   30.53
  -5  -6   5  463.82   34.97
  -5   6   4  232.14   20.21
   5  -6  -4  198.22   16.63
  -5  -6   4  209.25   20.52
  -5   6   3  202.67   18.96
  -5  -6   3  151.80   33.85
   5  -6  -3  156.17   13.44
  -5  -6   3  167.56   28.67
  -5   6   2  292.55   25.13
  -5  -6   2  314.59   26.11
   5  -6  -2  267.56   20.88
  -5  -6   2  269.12   21.18
  -5   6   2  288.09   21.33
  -5   6   1  108.93   13.33
  -5  -6   1  100.41   24.22
   5  -6  -1   91.95    8.12
  -5  -6   1   92.31   11.40
  -5   6   1   72.94    6.59
  -5   6   0  430.96   33.65
  -5  -6   0  387.12   30.28
   5  -6   0  355.11   25.64
  -5  -6   0  382.26   28.27
  -5   6   0  470.96   34.27
  -5   6  -1  176.74   20.56
  -5  -6  -1  146.92   15.03
  -5   6  -1  167.01   17.32
  -5   6  -2  208.86   20.81
  -5  -6  -2  208.38   20.67
  -5  -6  -2  178.03   15.33
  -5   6  -2  222.68   19.06
  -5   6  -3  235.50   24.40
  -5  -6  -3  290.54   54.30
  -5  -6  -3  259.56   24.39
  -5   6  -3  262.30   25.12
  -5   6  -4  207.79   24.51
  -5  -6  -4  218.66   27.42
  -5   6  -4  175.77   19.90
  -5   6  -5   66.60   13.83
  -5  -6  -5   64.78   23.81
  -5   6  -5   79.03   10.82
  -5   6  -6   30.97   12.28
  -5  -6  -6    9.49    5.41
  -5   6  -6   24.28    8.17
  -5   7   9   31.56   10.39
   5  -7  -9   34.63    9.48
   5  -7  -8  127.53   17.28
   5   7  -8   86.47   12.18
  -5   7   7   57.22   10.71
   5  -7  -7   21.26    6.49
   5   7  -7   79.06   11.99
  -5   7   6   26.57    6.98
   5  -7  -6   30.93    7.36
   5   7  -6   24.88    6.61
  -5  -7   6   27.57    6.09
  -5   7   5  128.11   13.74
   5  -7  -5  108.86    9.89
   5   7  -5  131.02   12.27
  -5  -7   5  113.86    9.75
  -5   7   4   24.67    8.12
   5  -7  -4   52.68    9.81
  -5  -7   4   27.09   12.61
  -5   7   3  439.31   41.59
  -5  -7   3  375.53   36.46
   5  -7  -3  313.47   29.27
  -5  -7   3  405.50   37.02
  -5   7   2  184.64   20.66
  -5  -7   2  207.35   29.92
   5  -7  -2  190.51   18.37
  -5  -7   2  150.75   14.97
  -5   7   1   92.21   16.34
  -5  -7   1   70.34   30.70
  -5   7   0   25.05    9.23
  -5  -7   0    6.79    6.68
  -5   7  -1  205.25   18.39
  -5  -7  -1  242.07   21.65
  -5   7  -2  157.08   20.85
  -5  -7  -2  146.29   41.07
  -5   7  -3   81.50   13.75
  -5  -7  -3   40.88   11.15
  -5   7  -4   19.57    8.68
  -5  -7  -4   13.34    7.35
  -5   7  -5   43.12   11.63
  -5  -7  -5   10.68    6.81
  -5   8   7    5.54    6.08
   5  -8  -7   54.30   11.43
   5   8  -7   24.81    8.13
  -5   8   6  109.97   15.25
   5  -8  -6   96.14   13.09
   5   8  -6  103.85   13.88
  -5   8   5   51.83   15.34
   5  -8  -5   76.27   17.93
   5   8  -5   63.11   17.31
  -5   8   4   96.43   13.57
   5  -8  -4   31.06    9.14
   5   8  -4   78.80   19.99
  -5   8   3   22.70   10.83
  -5  -8   3    6.55    7.33
   5  -8  -3   -1.05    3.37
  -5   8   2   51.60   15.26
  -5  -8   2   15.84    7.16
  -5   8   1   94.19   14.88
  -5  -8   1   57.03   29.49
  -5   8   0  102.83   15.98
  -5  -8   0   64.94   30.20
  -5   8  -1   45.46   14.17
  -5  -8  -1   27.60   11.30
  -5   8  -2   24.56   10.26
  -5  -8  -2    8.70    6.59
  -6   0  14   18.09    9.39
   6   0 -14   11.43    6.34
  -6   0  13  599.68   61.63
   6   0 -13  609.90   83.68
  -6   0  12  109.67   18.24
   6   0 -12  165.81   18.16
  -6   0  11   88.88    9.50
   6   0 -11   84.13   10.21
  -6   0  11   78.57    9.96
  -6   0  10    8.95    4.29
   6   0 -10    6.28    5.27
  -6   0  10    5.40    6.72
  -6   0   9   12.63    4.87
   6   0  -9    5.56    5.65
  -6   0   9   15.03    6.33
  -6   0   8 1596.09   76.30
   6   0  -8 1497.75   72.60
  -6   0   8 1366.29   67.40
  -6   0   7 2391.80   89.34
   6   0  -7 2098.25   79.75
  -6   0   7 2269.70   89.39
  -6   0   6  909.77   35.65
   6   0  -6  890.09   36.28
  -6   0   6  911.09   42.04
  -6   0   5  191.18    9.59
  -6   0   5  225.61   11.77
  -6   0   4 1772.66   69.10
   6   0  -4 1623.71   63.39
   6   0  -4 1743.55   69.37
  -6   0   4 1709.89   67.92
  -6   0   3 2708.71  104.35
   6   0  -3 2577.21   99.21
   6   0  -3 2778.76  108.32
  -6   0   3 2886.84  112.41
  -6   0   2  510.28   21.38
  -6   0   2  548.99   22.98
   6   0  -2  596.51   25.78
  -6   0   2  580.87   25.69
  -6   0   1  269.98   12.24
  -6   0   1  252.07   11.95
   6   0  -1  286.44   13.85
  -6   0   1  277.20   14.27
  -6   0   0  228.80   11.33
  -6   0   0  263.32   12.50
   6   0   0  273.10   13.37
  -6   0   0  275.17   14.38
   6   0   1  988.53   38.52
  -6   0  -1 1077.73   41.77
  -6   0  -1  814.69   33.40
   6   0   2  900.08   48.80
  -6   0  -2  776.41   38.35
  -6   0  -2  914.53   45.45
   6   0   3   10.02    3.00
  -6   0  -3    4.93    3.43
  -6   0  -3   17.10    5.90
   6   0   4   37.01   11.20
  -6   0  -4   73.58    9.26
  -6   0  -4   37.67    6.24
   6   0   5  258.20   21.58
  -6   0  -5  243.25   20.10
   6   0   6  195.41   20.70
  -6   0  -6  223.83   23.78
  -6   0  -6  217.35   23.19
   6   0   7    6.75    4.54
  -6   0  -7    4.20    5.94
   6   0   8   25.10   15.65
  -6   0  -8   30.26    8.56
   6   0   9    5.96    4.51
  -6   0  -9   10.18    5.55
  -6  -1  14  278.10   32.03
  -6   1  14  232.08   27.47
   6  -1 -14  168.52   20.61
   6   1 -14  214.54   25.36
  -6  -1  13  257.32   28.40
  -6   1  13  269.91   29.62
   6  -1 -13  300.92   32.79
   6   1 -13  300.70   32.39
  -6  -1  12   33.70    9.40
  -6   1  12   17.91    6.29
   6  -1 -12   15.14    6.16
   6   1 -12   33.73    8.46
  -6  -1  11  515.08   50.00
  -6   1  11  647.32   62.42
   6  -1 -11  539.04   52.75
   6   1 -11  710.76   68.23
  -6  -1  11  510.12   50.20
  -6   1  11  394.21   38.78
  -6  -1  10 1394.61  101.25
  -6   1  10 1428.23  103.81
   6  -1 -10 1391.87  101.75
   6   1 -10 1498.63  106.42
  -6  -1  10 1646.76  117.09
  -6   1  10 1439.72  105.89
  -6  -1   9  903.94   38.92
  -6   1   9  768.95   34.11
   6  -1  -9  939.24   41.18
   6   1  -9  795.49   35.64
  -6  -1   9  827.91   40.20
  -6   1   9  658.45   29.93
  -6  -1   8  522.46   32.42
  -6   1   8  570.38   35.66
   6  -1  -8  477.76   30.67
   6   1  -8  623.99   39.29
  -6  -1   8  502.49   32.31
  -6   1   8  618.65   42.84
  -6  -1   7  329.59   17.76
  -6   1   7  365.14   20.05
   6  -1  -7  251.06   14.86
   6   1  -7  342.68   19.62
  -6  -1   7  279.72   16.55
  -6   1   7  401.08   31.00
  -6  -1   6 1403.55   53.01
  -6   1   6 1282.00   49.55
   6  -1  -6 1310.36   51.14
   6   1  -6 1449.44   56.40
  -6   1   6 1533.59   58.77
  -6  -1   6 1393.49   54.33
  -6  -1   5 1394.66   54.71
  -6   1   5 1206.59   48.60
   6   1  -5 1249.68   49.02
   6  -1  -5 1251.27   50.86
   6   1  -5 1373.71   56.00
  -6  -1   5 1261.99   51.39
  -6   1   5 1148.03   46.74
  -6  -1   4  790.57   31.47
  -6   1   4  666.91   28.11
   6   1  -4  609.47   24.53
   6  -1  -4  824.18   34.43
   6   1  -4  578.82   25.61
  -6  -1   4  772.56   32.77
  -6   1   4  684.56   28.96
  -6  -1   3  114.36    5.68
  -6   1   3  157.44    8.78
   6   1  -3  100.99    5.15
   6  -1  -3  141.33    8.87
   6   1  -3  104.07    7.43
  -6  -1   3  160.79    9.74
  -6   1   3  107.36    7.11
  -6  -1   2 1549.58   60.50
  -6  -1   2 1656.21   63.88
  -6   1   2 1540.13   61.06
   6  -1  -2 1600.47   63.46
   6   1  -2 1574.25   62.84
  -6  -1   2 1708.38   68.18
  -6   1   2 1606.91   64.22
  -6  -1   1 1675.70   65.17
  -6  -1   1 1734.56   67.01
  -6   1   1 1773.18   69.91
   6  -1  -1 1797.24   70.58
   6   1  -1 1774.14   70.33
  -6  -1   1 1764.90   70.43
  -6   1   1 1866.21   74.11
  -6  -1   0  600.12   23.49
  -6   1   0  767.53   30.79
  -6  -1   0  598.71   23.48
  -6  -1   0  549.35   23.19
   6  -1   0  627.35   24.96
   6  -1   0  580.09   23.51
  -6   1   0  778.59   31.92
   6   1   1  221.06   19.69
  -6  -1  -1  175.35    8.72
  -6   1  -1  214.42   11.27
  -6  -1  -1  203.60   16.69
   6  -1   1  178.60   11.80
   6  -1   1  219.29   10.30
  -6  -1  -1  228.64   12.75
  -6   1  -1  219.64   12.26
   6  -1   2  609.76   31.52
   6   1   2  584.60   29.54
  -6  -1  -2  686.72   36.02
   6  -1   2  563.65   27.63
   6  -1   2  594.02   29.23
  -6  -1  -2  635.82   33.02
  -6   1  -2  577.83   30.24
   6  -1   3  679.47   49.03
   6   1   3  579.76   35.45
  -6  -1  -3  728.76   44.56
   6  -1   3  627.73   37.47
   6  -1   3  710.30   42.25
  -6  -1  -3  831.31   51.20
  -6   1  -3  667.21   41.67
   6  -1   4  166.82   22.30
   6   1   4  165.76   12.77
  -6   1  -4  186.49   11.65
  -6  -1  -4  162.20   11.45
  -6  -1  -4  180.47   13.77
  -6   1  -4  176.82   15.02
   6  -1   5  130.71   23.27
   6   1   5  162.58   15.25
  -6   1  -5  137.44   11.38
  -6  -1  -5  176.67   15.20
  -6  -1  -5  155.54   14.44
  -6   1  -5  158.60   15.76
   6  -1   6   39.43   20.81
   6   1   6   54.20   14.46
  -6  -1  -6   50.54   13.84
  -6  -1  -6   44.07   10.30
  -6   1  -6   73.92   14.93
   6  -1   7   26.59   20.55
   6   1   7   43.56   17.90
  -6  -1  -7   36.16   11.22
  -6  -1  -7   60.98   15.22
  -6   1  -7   44.26   12.04
   6  -1   8  206.80   24.73
   6   1   8  257.80   29.34
  -6  -1  -8  232.64   27.57
  -6   1  -8  264.51   30.68
   6  -1   9   20.14    8.40
   6   1   9   26.19    9.79
  -6  -1  -9   42.99   11.33
  -6   1  -9   55.46   13.58
   6  -2 -14   37.03   10.92
   6   2 -14   28.56    7.84
   6  -2 -14   31.09    7.75
  -6  -2  13  261.98   29.54
  -6   2  13  246.11   28.30
   6  -2 -13  254.13   28.87
   6   2 -13  245.91   28.30
  -6  -2  12  412.41   29.03
  -6   2  12  419.37   29.85
   6  -2 -12  373.43   27.25
   6   2 -12  369.35   27.05
  -6  -2  11  188.82   20.01
  -6   2  11  138.15   16.21
   6  -2 -11  190.82   21.93
   6   2 -11  142.85   16.47
  -6  -2  11  216.55   24.10
  -6  -2  10   83.35    9.07
  -6   2  10   66.18    9.25
   6  -2 -10   75.60   10.08
   6   2 -10   71.34    8.76
  -6   2  10   56.51    7.95
  -6  -2  10   66.21   16.66
  -6  -2   9  356.25   22.14
  -6   2   9  269.54   18.83
   6  -2  -9  348.84   23.04
   6   2  -9  210.97   15.42
  -6  -2   9  363.05   23.40
  -6   2   9  224.20   20.27
  -6  -2   8  741.27   44.90
  -6   2   8  655.95   40.98
   6  -2  -8  731.41   45.22
   6   2  -8  803.67   49.79
  -6  -2   8  657.59   41.51
  -6   2   8  674.76   43.03
  -6  -2   7 2194.88  102.90
  -6   2   7 2386.96  139.77
   6  -2  -7 2064.58   98.35
   6   2  -7 2232.64  106.27
  -6   2   7 2196.86  104.36
  -6  -2   7 2200.78  109.75
  -6  -2   6  453.29   18.66
  -6   2   6  452.19   20.46
   6   2  -6  406.67   16.72
   6  -2  -6  424.61   19.57
   6   2  -6  401.33   18.91
  -6   2   6  408.80   18.26
  -6  -2   5  407.02   16.35
  -6   2   5  371.47   17.11
   6   2  -5  364.00   14.59
   6  -2  -5  370.37   16.97
   6   2  -5  464.31   21.18
  -6  -2   5  467.71   21.07
  -6   2   5  424.51   18.75
  -6  -2   4  935.91   34.68
  -6   2   4  831.64   33.77
   6   2  -4  818.79   30.45
   6  -2  -4  859.93   34.44
   6   2  -4  867.13   35.55
  -6  -2   4  941.97   37.59
  -6   2   4  885.33   34.93
  -6  -2   3 1010.27   38.72
  -6  -2   3  976.54   37.36
  -6   2   3  849.72   35.78
   6  -2  -3 1077.65   43.59
   6   2  -3 1142.63   47.50
  -6  -2   3  976.02   40.53
  -6   2   3 1160.38   47.03
  -6   2   2  545.94   24.25
   6  -2  -2  355.36   16.07
   6   2  -2  461.65   21.36
  -6  -2   2  387.59   18.26
  -6   2   2  536.00   23.81
  -6  -2   1   70.87    3.27
  -6   2   1   89.86    7.53
  -6  -2   1   96.18   13.26
   6  -2  -1   77.03    4.94
  -6   2   1   67.44    4.38
  -6  -2   1   85.70    6.80
  -6   2   1   56.60    5.05
  -6  -2   0  509.65   19.45
  -6   2   0  859.19   35.01
  -6  -2   0  544.05   20.78
   6  -2   0  609.49   24.78
  -6  -2   0  597.83   27.63
   6  -2   0  620.92   24.53
  -6  -2   0  678.10   28.53
  -6   2   0  798.14   32.31
   6   2   1 1374.14   64.62
  -6  -2  -1 1333.92   62.48
  -6   2  -1 1497.53   72.06
  -6  -2  -1 1686.92   80.89
   6  -2   1 1284.96   61.12
   6  -2   1 1483.41   69.50
  -6  -2  -1 1426.82   68.85
  -6   2  -1 1320.26   63.93
   6   2   2  361.71   23.03
  -6  -2  -2  418.94   25.60
  -6   2  -2  399.29   26.13
  -6  -2  -2  471.50   30.02
   6  -2   2  456.53   27.20
   6  -2   2  506.75   30.28
  -6  -2  -2  464.88   29.82
  -6   2  -2  404.32   26.20
   6  -2   3   77.16   14.54
   6   2   3   41.39    7.65
  -6  -2  -3   97.64   17.13
   6  -2   3   78.66    4.47
  -6  -2  -3   89.88    7.42
  -6   2  -3   54.22    6.62
   6  -2   4  120.51   16.90
   6   2   4   99.13   20.88
  -6  -2  -4  144.48   20.10
   6  -2   4  139.99    8.44
  -6  -2  -4  129.99   10.79
  -6   2  -4   90.97    9.07
   6  -2   5  252.38   23.66
   6   2   5  227.00   18.17
  -6  -2  -5  192.84   34.00
  -6  -2  -5  245.46   20.39
  -6   2  -5  225.37   19.57
   6  -2   6  113.92   37.02
   6   2   6  142.67   33.33
  -6  -2  -6  113.36   25.90
  -6  -2  -6   88.51   16.70
  -6   2  -6  115.65   20.94
   6  -2   7   59.56   35.15
   6   2   7   44.03   23.10
  -6  -2  -7   45.54   15.94
  -6  -2  -7   98.74   13.13
  -6   2  -7   62.95   11.53
   6  -2   8    8.45    5.51
   6   2   8    5.05    4.72
  -6  -2  -8   13.27    7.01
  -6  -2  -8   22.57    8.53
  -6   2  -8   -1.53    5.66
  -6  -3  13   84.88   31.75
   6  -3 -13  143.93   19.02
   6   3 -13  120.45   16.08
  -6  -3  12   59.32   19.65
   6  -3 -12   47.60    9.27
   6   3 -12   73.82   11.99
  -6  -3  11  310.46   30.56
   6  -3 -11  268.13   26.87
   6   3 -11  380.50   36.18
  -6  -3  11  256.13   25.75
  -6  -3  10  318.67   31.66
  -6   3  10  269.12   28.01
   6  -3 -10  406.48   40.41
   6   3 -10  285.38   29.09
  -6  -3  10  379.62   38.32
  -6  -3   9  847.41   62.28
  -6   3   9  778.37   58.20
   6   3  -9  852.01   63.37
  -6   3   9  755.11   55.85
  -6  -3   9  842.06   63.00
  -6  -3   8  311.58   15.35
  -6   3   8  388.02   20.08
   6  -3  -8  276.53   16.48
   6   3  -8  363.14   19.20
  -6   3   8  377.99   18.25
  -6  -3   8  323.01   17.72
  -6  -3   7   16.94    3.50
  -6   3   7   50.17    7.27
   6  -3  -7   28.14    6.90
   6   3  -7   37.47    6.92
  -6   3   7   43.98    7.41
  -6  -3   7   22.65    5.30
  -6  -3   6 1608.39   93.73
   6   3  -6 1428.06   83.10
  -6   3   6 1530.88   90.97
   6  -3  -6 1474.48   87.64
   6   3  -6 1478.85   88.10
  -6  -3   6 1693.84  101.66
  -6   3   6 1644.03   99.21
  -6  -3   5 1005.81   47.54
   6   3  -5  932.26   43.67
  -6   3   5 1058.41   52.22
   6  -3  -5 1115.32   54.52
   6   3  -5 1040.39   51.65
  -6  -3   5 1143.18   55.97
  -6   3   5  916.21   44.40
  -6  -3   4  648.07   23.82
  -6   3   4  512.45   22.88
   6   3  -4  535.67   19.67
   6  -3  -4  648.86   26.97
   6   3  -4  534.74   23.95
  -6  -3   4  544.59   24.03
  -6   3   4  494.89   20.81
  -6   3   3  122.10    9.38
   6  -3  -3  128.71    8.63
   6   3  -3   95.93    7.19
  -6  -3   3   85.76    6.22
  -6   3   3   92.11    6.61
  -6   3   2 1211.12   48.32
  -6  -3   2 1195.60   47.40
  -6  -3   2 1360.39   52.73
  -6   3   2 1181.50   46.00
  -6   3   1 1668.23   80.21
  -6  -3   1 1558.64   78.13
   6  -3  -1 1537.36   72.37
  -6   3   1 1522.60   71.39
  -6  -3   1 1647.08   78.86
  -6   3   1 1913.19   90.51
  -6   3   0  281.07   17.05
   6  -3   0  302.11   16.18
  -6  -3   0  391.88   22.07
   6  -3   0  368.95   18.44
  -6  -3   0  354.20   19.80
  -6   3   0  294.44   16.62
   6   3   1  239.04   14.97
  -6  -3  -1  244.14   14.89
  -6   3  -1  227.29   16.90
  -6  -3  -1  316.08   21.61
   6  -3   1  256.29   17.14
   6  -3   1  272.67   16.55
  -6  -3  -1  286.95   19.23
  -6   3  -1  194.32   14.10
   6   3   2  574.08   26.19
  -6  -3  -2  554.54   23.11
  -6   3  -2  608.85   28.73
  -6  -3  -2  719.21   32.34
   6  -3   2  659.35   25.59
  -6  -3  -2  727.04   32.51
  -6   3  -2  638.92   29.16
   6   3   3  230.80   15.31
  -6   3  -3  247.69   17.34
  -6  -3  -3  190.15   34.52
  -6  -3  -3  196.77   13.98
  -6   3  -3  275.72   18.85
   6  -3   4  317.72   25.71
   6   3   4  304.53   23.16
  -6  -3  -4  293.61   23.92
  -6  -3  -4  292.67   23.22
  -6   3  -4  320.00   25.61
   6  -3   5   65.06   24.49
   6   3   5   96.19   19.06
  -6  -3  -5   64.95   16.80
  -6  -3  -5   69.20   13.32
  -6   3  -5  105.06   19.63
   6  -3   6    7.90    5.12
   6   3   6    9.05    4.80
  -6  -3  -6   11.77    4.28
  -6  -3  -6   10.76    5.25
  -6   3  -6   10.92    5.28
   6  -3   7   48.72   26.14
   6   3   7   78.28   19.91
  -6  -3  -7   65.47   22.40
  -6  -3  -7   92.39   12.55
  -6   3  -7   62.31   11.89
   6  -3   8   37.88   20.70
   6   3   8   42.81   28.42
  -6  -3  -8   37.15   15.90
  -6  -3  -8   72.59   11.47
  -6   3  -8   76.01   11.80
  -6  -4  13   66.73   37.63
  -6   4  13   88.50   14.99
   6  -4 -13  108.65   16.35
   6   4 -13  135.19   18.40
  -6  -4  12  295.05   33.11
  -6   4  12  344.57   39.04
   6  -4 -12  317.08   36.60
   6   4 -12  331.54   36.84
   6  -4 -12  252.83   28.18
  -6  -4  11  142.54   31.87
  -6   4  11  122.22   13.09
   6  -4 -11  180.51   16.21
   6   4 -11  133.66   12.37
  -6  -4  10   22.40    8.43
  -6   4  10   16.58    6.42
   6  -4 -10   40.15   10.42
   6   4 -10   44.76    9.61
  -6  -4  10   46.05   10.24
  -6  -4   9  244.08   24.70
  -6   4   9  258.04   26.94
   6  -4  -9  267.98   27.62
   6   4  -9  247.95   25.82
  -6   4   9  229.76   22.92
  -6  -4   9  272.45   39.81
  -6  -4   8  428.81   32.23
  -6   4   8  573.22   44.01
   6  -4  -8  446.64   34.83
   6   4  -8  541.62   41.92
  -6   4   8  550.88   41.07
  -6  -4   8  471.55   36.50
  -6  -4   7  813.61   45.36
  -6   4   7  690.39   40.98
   6  -4  -7  788.14   45.88
   6   4  -7  819.96   47.94
  -6  -4   7  843.12   48.57
  -6  -4   6  109.41   15.41
   6   4  -6  110.13    5.96
  -6   4   6  135.76    9.68
   6  -4  -6  118.81    9.24
   6   4  -6  105.78    9.92
  -6   4   6  114.28    9.27
  -6  -4   6  123.41   17.01
  -6  -4   5  269.10   17.19
   6   4  -5  226.83   13.77
  -6   4   5  245.74   17.72
   6  -4  -5  253.96   18.00
   6   4  -5  246.74   18.15
  -6  -4   5  261.73   18.29
  -6   4   5  246.68   19.71
  -6   4   4  256.43   18.38
   6  -4  -4  202.91   14.19
   6   4  -4  327.51   22.76
  -6  -4   4  200.23   15.45
  -6   4   4  269.22   17.29
  -6  -4   3  591.07   37.42
   6  -4  -3  587.17   36.03
  -6  -4   3  570.38   35.26
  -6   4   3  351.99   22.14
  -6  -4   2  782.05   49.73
   6  -4  -2  754.82   45.20
  -6  -4   2  755.62   46.10
  -6   4   2  858.72   51.46
  -6   4   1   41.02    6.70
  -6  -4   1   30.95    6.81
   6  -4  -1   44.24    4.73
  -6   4   1   36.47    3.88
  -6  -4   1   44.63    5.52
  -6   4   1   39.04    4.88
  -6   4   0  402.56   20.43
  -6  -4   0  323.19   19.08
   6  -4   0  339.52   14.64
  -6  -4   0  362.00   17.92
  -6   4   0  374.65   17.93
   6   4   1  615.78   33.46
  -6   4  -1  713.36   42.37
  -6  -4  -1  742.45   43.93
   6  -4   1  700.00   37.75
  -6  -4  -1  785.42   45.14
  -6   4  -1  561.35   32.81
   6   4   2  187.91   15.47
  -6   4  -2  204.54   18.42
  -6  -4  -2  170.22   25.94
  -6  -4  -2  168.23   15.23
  -6   4  -2  253.05   20.52
   6   4   3   71.26    7.45
  -6   4  -3   71.29    9.61
  -6  -4  -3   82.04   15.58
  -6  -4  -3   68.20    8.26
  -6   4  -3   58.23    7.61
   6   4   4   55.17   13.56
  -6   4  -4   76.83   10.52
  -6  -4  -4   44.92   15.24
  -6  -4  -4   52.04    7.24
  -6   4  -4   70.85    9.81
   6   4   5   66.60   14.46
  -6   4  -5  101.62   18.33
  -6  -4  -5   87.93   29.46
  -6  -4  -5  125.47   19.86
  -6   4  -5   99.12   17.33
   6  -4   6  113.34   16.24
  -6  -4  -6   86.48   18.94
  -6  -4  -6  114.97   14.34
  -6   4  -6  113.30   14.86
   6  -4   7   17.21   15.84
  -6  -4  -7   18.88   15.96
  -6  -4  -7   79.61   12.04
  -6   4  -7   63.68   10.86
  -6  -5  12   12.75    4.74
  -6   5  12   73.20   14.16
   6  -5 -12   58.68   13.76
   6   5 -12   13.30    6.93
  -6  -5  11   51.38   32.35
  -6   5  11  126.78   17.72
   6  -5 -11   91.84   13.48
   6   5 -11  125.38   15.93
  -6  -5  10  251.43   32.01
  -6   5  10  236.33   28.19
   6  -5 -10  255.39   28.25
   6   5 -10  295.82   32.29
  -6  -5   9  182.11   24.86
  -6   5   9  212.03   22.23
   6  -5  -9  172.26   18.68
   6   5  -9  204.43   20.74
  -6  -5   9  214.44   22.40
  -6  -5   8  134.67   14.18
  -6   5   8  142.61   16.25
   6  -5  -8  120.68   14.17
   6   5  -8  163.28   18.16
  -6  -5   8  147.43   39.85
  -6  -5   7   30.80    6.46
  -6   5   7   92.05   12.57
   6  -5  -7   60.76    8.03
   6   5  -7  100.79   11.27
  -6   5   7   63.19   10.36
  -6  -5   7   44.19    9.17
  -6   5   6  674.33   51.11
   6   5  -6  656.65   47.51
   6  -5  -6  836.77   62.24
   6   5  -6  713.73   53.86
  -6   5   6  635.02   47.33
  -6  -5   6  785.74   58.58
  -6   5   5  801.98   60.26
   6   5  -5  773.93   55.33
   6  -5  -5  843.42   62.05
   6   5  -5  794.52   59.56
  -6  -5   5  788.80   60.02
  -6   5   5  841.77   60.81
  -6   5   4   82.14    9.86
   6  -5  -4   70.94    6.96
   6   5  -4  106.31   10.13
  -6  -5   4   77.08   15.90
  -6   5   4   98.18    6.77
  -6   5   3   81.56    9.79
  -6  -5   3  106.38   10.57
   6  -5  -3  130.58   10.26
  -6  -5   3  128.57   14.03
  -6   5   3  114.75    8.18
  -6   5   2  740.31   44.44
  -6  -5   2  590.78   35.48
   6  -5  -2  555.62   31.69
  -6  -5   2  594.91   34.60
  -6   5   2  587.58   33.47
  -6   5   1  173.02   14.38
  -6  -5   1  140.54   17.89
   6  -5  -1  144.58    9.71
  -6  -5   1  136.81   10.22
  -6   5   1  144.54   10.58
  -6   5   0  246.41   21.90
  -6  -5   0  292.16   24.52
   6  -5   0  280.01   20.74
  -6  -5   0  295.54   23.20
  -6   5   0  289.42   22.69
  -6   5  -1   67.49    9.88
  -6  -5  -1   63.94   21.18
  -6  -5  -1   63.73    7.22
  -6   5  -1   61.88    6.86
  -6   5  -2  311.88   32.49
  -6  -5  -2  311.78   32.13
  -6  -5  -2  316.82   31.64
  -6   5  -2  326.85   32.70
  -6  -5  -3  230.08   23.70
  -6  -5  -3  245.28   21.02
  -6   5  -3  248.82   21.58
  -6   5  -4   60.78   15.57
  -6  -5  -4   66.31   20.67
  -6  -5  -4   55.18   13.12
  -6   5  -4   63.34   15.19
  -6  -5  -5   24.53    6.32
  -6   5  -5   33.10    7.68
  -6  -5  -6   19.60   11.99
  -6  -5  -6   18.63    6.72
  -6   5  -6   13.44    7.45
  -6   6  11   46.41   11.95
   6  -6 -11   44.83   10.55
   6   6 -11   40.73    9.36
  -6   6  10   48.63   11.27
   6  -6 -10   42.14   12.49
   6   6 -10   38.68   11.19
  -6   6   9  143.07   18.10
   6  -6  -9  106.49   15.22
   6   6  -9  102.87   15.01
  -6  -6   9  131.50   16.47
  -6   6   8  210.87   17.81
   6  -6  -8  193.46   16.33
   6   6  -8  240.71   19.29
  -6  -6   8  203.84   16.36
  -6   6   7  311.99   31.33
   6  -6  -7  277.49   27.08
   6   6  -7  255.66   25.23
  -6  -6   7  328.92   31.50
  -6   6   6   43.27    9.94
   6  -6  -6   83.90   15.52
   6   6  -6   56.92   12.41
  -6  -6   6   60.20   23.28
  -6   6   5   48.27    9.81
   6  -6  -5   30.43    6.05
   6   6  -5   61.44   10.62
  -6  -6   5   25.51    7.24
  -6   6   4  142.76   17.66
   6  -6  -4  136.90   14.92
   6   6  -4   54.06    8.41
  -6  -6   4  138.87   15.70
  -6   6   3  753.68   72.60
  -6  -6   3  768.38   74.82
   6  -6  -3  744.73   70.40
  -6  -6   3  809.34   76.46
  -6   6   2   53.83   10.09
  -6  -6   2   48.58   23.88
   6  -6  -2   66.80    8.26
  -6  -6   2   66.28   15.07
  -6   6   2   38.11    4.86
  -6   6   1   12.53    6.62
  -6  -6   1    4.65    3.57
   6  -6  -1    0.54    1.91
  -6  -6   1   -0.42    2.86
  -6   6   1    4.49    2.52
  -6   6   0  122.46   22.06
  -6  -6   0  154.52   26.05
  -6   6   0  129.58   21.99
  -6   6  -1  212.62   23.35
  -6  -6  -1  262.58   27.19
  -6  -6  -1  187.00   18.23
  -6   6  -1  181.23   17.86
  -6   6  -2  204.24   17.85
  -6  -6  -2   94.11   39.81
  -6  -6  -2  138.01   11.20
  -6   6  -2  157.44   12.57
  -6   6  -3   95.23   14.68
  -6  -6  -3   69.93   18.40
  -6  -6  -3   63.27    9.70
  -6   6  -3   89.03   11.29
  -6   6  -4   30.74   12.35
  -6  -6  -4   10.45    6.58
  -6   6  -4   19.51    7.21
  -6   6  -5   97.07   16.48
  -6  -6  -5   83.19   25.35
  -6   6  -5  119.22   16.13
  -6   7   9  133.32   19.18
   6  -7  -9  146.88   20.69
   6   7  -9  150.75   19.84
  -6   7   8   61.01   11.76
   6  -7  -8   50.84    8.47
   6   7  -8   47.04    9.60
  -6   7   7   -0.75    5.91
   6  -7  -7   17.62    7.55
   6   7  -7   18.63    6.39
  -6  -7   7   14.36    4.57
  -6   7   6  223.81   25.98
   6  -7  -6  271.10   29.14
   6   7  -6  224.60   26.33
  -6  -7   6  236.56   26.33
  -6   7   5   58.35   11.94
   6  -7  -5  134.61   15.86
   6   7  -5   84.74   13.08
  -6  -7   5   52.43   22.62
  -6   7   4   88.10   13.66
   6  -7  -4   72.16   16.42
   6   7  -4   95.34   14.91
  -6  -7   4   33.35   19.21
  -6   7   3   49.53   13.30
  -6  -7   3   47.48   15.28
   6  -7  -3   45.00   10.75
  -6  -7   3   46.72   13.93
  -6   7   2   71.11   17.77
  -6  -7   2   33.92   17.62
  -6  -7   2   36.55   18.85
  -6   7   1  125.64   12.34
  -6  -7   1  168.78   27.67
  -6   7   0   14.37    9.12
  -6  -7   0   28.29    9.86
  -6   7  -1   18.35    8.04
  -6  -7  -1   34.51    7.45
  -6   7  -2   37.45   11.33
  -6  -7  -2   46.27   23.24
  -6   7  -3  107.45   16.81
  -6  -7  -3   58.92   29.73
  -6   7  -4  152.82   26.84
  -6  -7  -4   89.56   43.23
  -6   8   6   99.45   16.18
   6  -8  -6   88.48   13.31
   6   8  -6  100.56   15.69
  -6   8   5   19.23    7.43
   6  -8  -5   12.12    5.90
   6   8  -5   32.44    9.09
  -6   8   4  330.85   38.13
   6   8  -4  355.44   49.88
  -6   8   3   84.76   14.98
  -6  -8   3   35.15    9.87
  -6   8   2   19.56    8.49
  -6  -8   2   18.19    8.14
  -6   8   1   19.54    8.38
  -6  -8   1   14.03    5.89
  -6   8   0    1.47    6.79
  -6  -8   0   21.43   10.74
  -6   8  -1   50.81   11.40
  -6  -8  -1   49.90   28.62
  -7   0  14  175.96   21.29
   7   0 -14  211.70   25.35
  -7   0  13   70.21   18.21
   7   0 -13   72.08   11.69
  -7   0  12  132.88   29.73
   7   0 -12  135.45   30.47
  -7   0  12  171.42   18.87
  -7   0  11 1254.25  117.88
   7   0 -11 1537.83  249.88
  -7   0  11 1533.93  249.28
  -7   0  10  342.97   27.39
   7   0 -10  353.76   28.92
  -7   0  10  382.31   31.26
  -7   0   9  112.45   10.18
   7   0  -9  106.82   10.62
  -7   0   9  106.69   22.22
  -7   0   8   26.74    5.59
   7   0  -8   30.58    7.16
  -7   0   8   23.19    5.29
  -7   0   7 1600.86   76.13
   7   0  -7 1573.01   76.06
  -7   0   7 1617.25   78.41
  -7   0   6  735.58   36.19
  -7   0   6  660.07   34.23
  -7   0   5  207.79   10.24
   7   0  -5  202.19   12.02
  -7   0   5  216.59   11.95
  -7   0   4    9.34    4.04
   7   0  -4   10.50    4.03
  -7   0   4   12.47    5.12
  -7   0   3   30.83    3.92
   7   0  -3   17.88    2.68
   7   0  -3   21.68    4.89
  -7   0   3   17.45    4.58
  -7   0   2  702.88   31.16
  -7   0   2 1064.39   40.98
   7   0  -2  983.02   39.41
  -7   0   2 1077.62   43.34
  -7   0   1 1918.90   71.59
   7   0  -1 1971.54   74.48
  -7   0   1 1957.91   75.06
  -7   0   0  125.55    8.35
   7   0   0  120.94    8.62
  -7   0   0  161.14   11.38
  -7   0  -1  233.93   15.72
   7   0   1  212.76   14.56
  -7   0  -1  196.80   15.23
   7   0   2   31.59   10.68
  -7   0  -2   30.57    4.72
  -7   0  -2   12.85    4.87
   7   0   3  155.99   11.94
  -7   0  -3  123.39   17.99
  -7   0  -3  127.37   10.69
   7   0   4  356.35   27.56
  -7   0  -4  315.54   23.88
  -7   0  -4  388.73   30.70
   7   0   5   36.57   18.95
  -7   0  -5   45.32   15.53
   7   0   6   85.98   21.42
  -7   0  -6   89.60   13.74
   7   0   7   68.76   35.88
  -7   0  -7  106.71   14.66
  -7  -1  14  133.99   17.28
  -7   1  14   87.97   13.29
   7  -1 -14  139.37   18.61
   7   1 -14   96.10   14.15
  -7  -1  13  381.13   41.56
  -7   1  13  326.98   36.39
   7  -1 -13  364.68   40.37
   7   1 -13  298.62   33.30
  -7  -1  12  379.80   36.03
  -7   1  12  355.54   34.21
   7  -1 -12  430.85   40.95
   7   1 -12  321.04   31.40
  -7  -1  12  427.17   40.86
  -7   1  12  335.80   32.50
  -7  -1  11   26.03    7.10
  -7   1  11   38.59    7.84
   7  -1 -11   28.31    8.77
   7   1 -11   48.65    9.50
  -7  -1  11   16.55    8.19
  -7   1  11   39.22   17.59
  -7  -1  10    7.97    5.04
  -7   1  10   21.51    6.12
   7  -1 -10    8.68    5.80
   7   1 -10   10.74    5.69
  -7  -1  10   14.02    4.87
  -7   1  10   12.50    5.18
  -7  -1   9  380.41   23.80
  -7   1   9  288.10   19.10
   7  -1  -9  367.29   24.02
   7   1  -9  256.83   18.23
  -7   1   9  309.81   20.48
  -7  -1   9  331.74   48.31
  -7  -1   8 2608.34  141.61
  -7   1   8 2685.26  146.11
   7  -1  -8 2477.35   99.76
   7   1  -8 2502.71  100.90
  -7   1   8 2676.71  146.26
  -7  -1   8 2886.36  157.81
  -7  -1   7 1071.13   63.69
  -7   1   7  992.10   59.71
   7  -1  -7 1024.07   61.91
   7   1  -7 1176.92   71.04
  -7   1   7 1208.43   72.33
  -7  -1   7 1175.50   70.86
  -7  -1   6  353.61   18.50
  -7   1   6  249.98   14.53
   7  -1  -6  337.09   19.44
   7   1  -6  324.11   18.85
  -7   1   6  304.88   18.16
  -7  -1   6  351.61   36.39
  -7  -1   5  791.27   30.60
  -7   1   5  756.73   30.70
   7   1  -5  658.20   25.71
   7  -1  -5  812.48   33.44
   7   1  -5  775.49   32.73
  -7  -1   5  808.36   33.48
  -7   1   5  814.09   33.27
  -7  -1   4 1087.15   40.87
  -7   1   4 1216.76   47.22
   7   1  -4 1095.12   41.06
   7  -1  -4 1150.89   45.40
   7   1  -4 1139.11   45.75
  -7  -1   4 1102.17   43.90
  -7   1   4 1103.28   43.70
  -7  -1   3  255.88   10.89
  -7  -1   3  263.40   11.20
  -7   1   3  402.22   17.93
   7  -1  -3  265.99   13.37
   7   1  -3  380.01   18.06
  -7  -1   3  298.58   15.53
  -7   1   3  365.18   17.66
  -7  -1   2  266.21   11.96
  -7  -1   2  339.60   14.06
  -7   1   2  282.09   13.56
   7  -1  -2  294.60   14.13
   7   1  -2  264.25   13.37
  -7  -1   2  319.64   15.96
  -7   1   2  291.96   14.78
  -7  -1   1    6.01    2.65
  -7  -1   1   15.53    2.37
  -7   1   1   24.23    3.75
   7  -1  -1   11.87    3.64
   7   1  -1   24.37    4.41
  -7  -1   1   17.04    3.85
  -7   1   1   20.87    5.04
  -7  -1   0  415.08   20.98
  -7   1   0  444.68   23.38
  -7  -1   0  464.34   23.24
   7  -1   0  469.53   24.12
  -7   1   0  468.08   25.29
  -7   1  -1  139.13   10.90
  -7  -1  -1  196.68   13.26
  -7  -1  -1  199.59   15.52
   7  -1   1  200.37   13.53
  -7  -1  -1  193.74   14.48
  -7   1  -1  164.10   13.13
   7   1   2  214.57   11.28
  -7   1  -2  257.24   14.31
  -7  -1  -2  237.93   17.27
   7  -1   2  259.29   12.77
  -7  -1  -2  207.69   13.38
  -7   1  -2  208.87   12.47
   7  -1   3    5.75    2.73
   7   1   3    5.94    2.87
  -7  -1  -3    7.05    4.32
   7  -1   3   13.14    4.21
  -7  -1  -3    7.07    4.82
  -7   1  -3   10.57    5.78
   7  -1   4  102.71   32.39
   7   1   4  106.50   17.75
  -7  -1  -4  122.40   15.04
   7  -1   4   99.39    8.66
  -7  -1  -4  104.82   11.55
  -7   1  -4  126.10   12.98
   7  -1   5  248.79   22.68
   7   1   5  252.96   22.90
  -7  -1  -5  297.25   26.39
  -7  -1  -5  239.15   22.07
  -7   1  -5  244.64   22.53
   7  -1   6  100.04   34.65
   7   1   6   93.72   20.14
  -7  -1  -6   93.62   22.98
  -7  -1  -6  144.47   14.08
  -7   1  -6  184.66   16.60
   7  -1   7    3.79    4.10
   7   1   7    1.90    3.23
  -7  -1  -7    9.18    5.83
  -7   1  -7   13.29    6.40
   7  -1   8    2.20    5.58
   7   1   8    4.98    4.36
  -7  -1  -8    6.07    5.28
  -7   1  -8   11.08    6.94
  -7  -2  14  197.30   25.33
  -7   2  14  185.38   24.76
   7  -2 -14  181.18   23.98
   7   2 -14  193.85   26.33
  -7  -2  13   58.12   16.42
  -7   2  13   40.36   12.30
   7  -2 -13   18.46    7.59
   7   2 -13   43.17   13.40
  -7  -2  12  142.80   13.60
  -7   2  12  135.79   13.98
   7  -2 -12  114.37   12.34
   7   2 -12  131.95   13.58
  -7  -2  12  176.87   16.20
  -7  -2  11  626.48   50.06
  -7   2  11  675.14   54.36
   7  -2 -11  485.15   40.42
   7   2 -11  566.32   46.09
  -7   2  11  647.64   51.73
  -7  -2  11  646.47   52.85
  -7  -2  10  303.33   23.79
  -7   2  10  237.73   20.05
   7  -2 -10  271.57   23.43
   7   2 -10  235.20   20.50
  -7  -2  10  246.81   21.09
  -7   2  10  256.03   21.18
  -7  -2   9  402.85   30.87
  -7   2   9  322.36   26.17
   7  -2  -9  339.00   27.34
   7   2  -9  292.86   24.16
  -7  -2   9  437.40   35.00
  -7   2   9  301.51   24.02
  -7  -2   8  496.76   22.53
  -7   2   8  439.90   21.43
   7  -2  -8  472.05   23.20
   7   2  -8  438.51   22.58
  -7  -2   8  459.09   33.35
  -7   2   8  403.66   20.04
  -7  -2   7  850.22   50.70
  -7   2   7  726.51   44.71
   7  -2  -7  861.45   52.90
   7   2  -7  803.00   49.83
  -7   2   7  881.41   53.43
  -7  -2   7  939.82   57.59
  -7  -2   6  809.94   38.87
  -7   2   6  883.97   44.10
   7   2  -6  773.71   37.00
   7  -2  -6  876.87   43.93
   7   2  -6  942.40   47.53
  -7   2   6  938.84   46.27
  -7  -2   5  289.94   14.62
  -7   2   5  305.53   17.88
   7   2  -5  293.87   14.70
   7  -2  -5  265.96   15.71
   7   2  -5  322.85   18.96
  -7  -2   5  227.82   14.11
  -7   2   5  363.57   19.58
  -7  -2   4   22.93    2.02
  -7   2   4   18.56    4.55
   7   2  -4   18.94    1.69
   7  -2  -4   21.28    3.96
   7   2  -4   26.84    5.46
  -7  -2   4   44.07    6.97
  -7   2   4   18.38    4.03
  -7  -2   3  507.08   23.80
  -7  -2   3  558.02   26.11
  -7   2   3  605.32   31.27
   7  -2  -3  604.03   30.40
   7   2  -3  548.27   28.91
  -7  -2   3  631.01   32.67
  -7   2   3  639.96   32.71
  -7  -2   2  407.39   19.11
  -7  -2   2  482.92   22.60
  -7   2   2  360.65   20.48
   7  -2  -2  471.81   24.26
   7   2  -2  415.67   22.83
  -7  -2   2  536.01   28.62
  -7   2   2  430.00   23.11
  -7  -2   1 1298.52   60.22
  -7  -2   1 1491.72   69.19
  -7   2   1 1641.87   78.87
  -7  -2   1 1561.19   75.09
   7  -2  -1 1558.49   73.73
  -7  -2   1 1703.60   81.92
  -7   2   1 1697.14   81.36
  -7  -2   0   97.50    6.67
  -7  -2   0  101.42    7.04
  -7   2   0  128.32   10.87
  -7  -2   0  122.55   22.63
   7  -2   0   64.70   16.22
   7  -2   0   96.61    7.48
  -7  -2   0  110.87   10.35
  -7   2   0  176.17   13.92
  -7  -2  -1   34.09    3.29
  -7   2  -1   41.53    6.12
  -7  -2  -1   47.45   10.54
   7  -2   1   30.36    7.41
   7  -2   1   44.82    3.96
  -7  -2  -1   43.24    6.71
  -7   2  -1   48.30    6.68
   7   2   2   47.15    7.19
  -7   2  -2   65.14    7.34
  -7  -2  -2   18.28    7.73
   7  -2   2   12.67    2.33
  -7  -2  -2   19.81    5.41
  -7   2  -2   62.67    8.08
   7   2   3  389.66   30.59
  -7   2  -3  503.95   38.99
  -7  -2  -3  409.32   31.93
   7  -2   3  372.38   27.35
  -7  -2  -3  295.18   24.01
  -7   2  -3  430.74   33.77
   7  -2   4  239.33   25.24
   7   2   4  191.32   21.22
  -7  -2  -4  268.58   27.13
  -7  -2  -4  235.65   24.22
  -7   2  -4  228.64   24.64
   7  -2   5   -0.18    5.06
   7   2   5    7.20    6.29
  -7  -2  -5   -0.51    4.47
  -7  -2  -5    0.24    4.02
  -7   2  -5   17.94    5.97
   7  -2   6    8.14    5.95
   7   2   6   11.15    3.94
  -7  -2  -6    6.47    5.36
  -7  -2  -6   14.32    6.96
  -7   2  -6   14.61    8.57
   7  -2   7  137.62   33.21
   7   2   7  113.41   18.47
  -7  -2  -7  131.56   22.80
  -7  -2  -7  134.99   17.25
  -7   2  -7  125.56   17.19
  -7  -3  13  152.21   39.89
  -7   3  13  167.18   21.38
   7  -3 -13  177.67   22.46
   7   3 -13  186.64   22.71
  -7  -3  12  472.42   48.60
  -7   3  12  564.12   58.15
   7  -3 -12  416.28   44.17
   7   3 -12  439.88   45.69
  -7  -3  12  436.26   45.93
  -7  -3  11   76.48   15.71
  -7   3  11   83.32   14.55
   7  -3 -11   66.16   12.50
   7   3 -11   80.08   14.19
  -7   3  11   76.07   12.96
  -7  -3  11   61.38   25.52
  -7  -3  10   91.19   10.89
  -7   3  10   74.52   11.23
   7   3 -10   82.56   11.64
  -7   3  10   37.78   20.25
  -7  -3  10   97.96   23.34
  -7  -3   9  906.87   64.91
  -7   3   9  899.14   65.58
   7  -3  -9  937.07   89.00
   7   3  -9  805.02   59.20
  -7   3   9  945.90   89.11
  -7  -3   9  901.71   71.64
  -7  -3   8  509.60   29.67
  -7   3   8  428.09   27.13
   7  -3  -8  508.48   31.18
   7   3  -8  377.15   24.94
  -7   3   8  408.85   24.82
  -7  -3   8  521.73   32.09
  -7  -3   7  252.96   12.15
  -7   3   7  395.43   20.32
   7  -3  -7  237.91   15.02
   7   3  -7  382.75   21.05
  -7  -3   7  239.47   24.18
  -7   3   7  321.83   16.11
  -7  -3   6   95.07    5.37
  -7   3   6   87.50    7.79
   7  -3  -6  116.55    8.89
   7   3  -6   74.87    8.31
  -7  -3   6   99.55   19.55
  -7   3   6  119.20   17.24
  -7  -3   5  249.39   15.17
  -7   3   5  247.30   18.20
   7   3  -5  221.74   13.34
   7  -3  -5  268.59   18.45
   7   3  -5  234.77   17.54
  -7  -3   5  255.24   23.08
  -7   3   5  233.61   15.81
  -7   3   4 1103.77   67.04
   7  -3  -4  817.84   49.49
   7   3  -4  899.92   55.20
  -7  -3   4  816.44   49.93
  -7   3   4  990.07   59.14
  -7   3   3  341.92   23.10
   7  -3  -3  305.65   19.89
   7   3  -3  299.95   20.59
  -7  -3   3  317.36   21.08
  -7   3   3  284.54   18.86
  -7   3   2  371.82   24.79
  -7  -3   2  340.32   23.76
   7  -3  -2  397.96   25.01
  -7  -3   2  335.62   22.27
  -7   3   2  378.03   24.46
  -7   3   1   62.65    7.43
  -7  -3   1   58.16   16.44
   7  -3  -1   42.28    4.66
  -7  -3   1   49.75    6.57
  -7   3   1   57.02    6.24
  -7   3  -1  254.19   17.71
  -7  -3  -1  222.47   26.01
   7  -3   1  207.03   12.43
  -7  -3  -1  209.44   15.60
  -7   3  -1  215.04   15.39
   7   3   2  195.42   14.99
  -7   3  -2  231.75   20.01
  -7  -3  -2  243.97   33.26
  -7  -3  -2  241.51   20.69
  -7   3  -2  195.44   17.08
   7   3   3   15.10    7.54
  -7   3  -3   32.14    7.64
  -7  -3  -3   27.10   10.84
  -7  -3  -3   36.18    5.86
  -7   3  -3   37.00    6.44
   7   3   4  305.45   25.94
  -7   3  -4  310.32   27.07
  -7  -3  -4  368.44   32.48
  -7  -3  -4  436.00   36.04
  -7   3  -4  352.08   30.74
   7  -3   5   31.53   10.16
   7   3   5   32.71   21.41
  -7  -3  -5   20.84   13.11
  -7  -3  -5   43.02   11.09
  -7   3  -5   59.25   14.88
   7  -3   6   52.77   21.40
  -7  -3  -6   49.82   18.23
  -7  -3  -6   48.98    9.54
  -7   3  -6   44.67    9.87
   7  -3   7   11.99    4.52
  -7  -3  -7   16.18    6.40
  -7  -3  -7   20.68    5.96
  -7   3  -7   26.77    7.21
  -7  -4  13    8.59   10.26
  -7   4  13   26.29   10.61
   7  -4 -13   51.72   13.02
   7   4 -13   33.15    8.48
  -7  -4  12   39.53   12.46
   7  -4 -12   31.02   11.14
   7   4 -12   45.69   12.73
  -7  -4  11  155.82   31.32
   7  -4 -11  138.16   17.24
   7   4 -11  126.37   15.75
  -7  -4  11  150.06   18.02
  -7  -4  10  369.25   34.22
   7  -4 -10  375.37   36.36
   7   4 -10  403.71   38.27
  -7   4  10  402.86   37.34
  -7  -4  10  403.63   38.98
  -7  -4   9   95.13   16.59
  -7   4   9   79.71   15.57
   7  -4  -9  100.05   19.00
   7   4  -9   87.88   16.67
  -7   4   9   50.23   17.19
  -7  -4   9   72.17   23.03
  -7  -4   8  129.83   10.73
  -7   4   8  137.44   13.25
   7  -4  -8  100.03   10.97
   7   4  -8  146.24   15.06
  -7  -4   8  150.42   27.30
  -7   4   8   87.88   15.23
  -7  -4   7  637.63   47.10
  -7   4   7  524.12   40.26
   7  -4  -7  696.35   52.20
   7   4  -7  746.87   56.40
  -7  -4   7  747.06   56.07
  -7   4   7  643.59   48.89
  -7  -4   6  562.15   31.70
  -7   4   6  812.03   47.85
   7  -4  -6  621.77   37.03
   7   4  -6  704.86   42.25
  -7  -4   6  639.57   37.99
  -7   4   6  819.51   46.74
  -7   4   5  295.30   19.75
   7  -4  -5  439.38   26.81
   7   4  -5  377.58   25.14
  -7  -4   5  389.80   24.83
  -7   4   5  430.47   25.34
  -7   4   4   34.32    8.05
   7  -4  -4   17.83    4.01
   7   4  -4   10.84    5.77
  -7  -4   4   20.32    4.73
  -7   4   4   10.71    3.06
  -7   4   3  402.80   21.14
   7  -4  -3  432.95   20.06
   7   4  -3  408.60   21.63
  -7  -4   3  396.44   19.52
  -7   4   3  384.30   18.19
  -7   4   2  706.20   32.81
  -7  -4   2  800.75   36.20
   7  -4  -2  723.02   30.80
  -7  -4   2  739.63   32.60
  -7   4   2  777.89   33.72
  -7   4   1  119.60   11.81
  -7  -4   1   76.73   15.24
   7  -4  -1   56.72    5.09
  -7  -4   1   53.54    6.72
  -7   4   1  117.61    9.13
  -7   4   0  206.03   17.81
  -7  -4   0  257.59   29.58
   7  -4   0  235.57   17.75
  -7  -4   0  253.91   20.80
  -7   4   0  207.11   17.42
  -7   4  -1   37.81    8.08
  -7  -4  -1   37.97   14.75
  -7  -4  -1   42.44    6.13
  -7   4  -1   39.79    6.44
  -7   4  -2   19.13    7.25
  -7  -4  -2   48.84   10.90
  -7  -4  -2   29.99    5.42
  -7   4  -2   29.82    7.32
  -7   4  -3  254.74   23.24
  -7  -4  -3  318.02   32.53
  -7  -4  -3  304.89   26.23
  -7   4  -3  239.73   21.25
  -7   4  -4  128.23   13.32
  -7  -4  -4  106.78   10.86
  -7  -4  -4  124.72   11.94
  -7   4  -4  157.42   14.96
  -7   4  -5    3.75    5.72
  -7  -4  -5    5.18    4.87
  -7  -4  -5    5.16    4.39
  -7   4  -5   12.85    6.77
  -7   4  -6   17.38    8.09
  -7  -4  -6   16.12   10.04
  -7  -4  -6    8.30    4.79
  -7   4  -6   13.84    6.54
  -7   5  12   40.47    9.89
   7  -5 -12  164.68   27.62
   7   5 -12  117.37   19.56
  -7   5  11  140.77   18.90
   7  -5 -11  151.66   19.85
   7   5 -11  197.06   23.41
  -7  -5  11  186.12   22.91
  -7   5  10   54.72   11.24
   7  -5 -10   96.86   13.51
   7   5 -10   80.41   13.81
  -7  -5  10   73.89   23.53
  -7   5   9  326.03   23.92
   7  -5  -9  315.87   23.73
   7   5  -9  297.28   22.31
  -7  -5   9  345.82   27.00
  -7   5   8  378.08   36.11
   7  -5  -8  374.44   35.92
   7   5  -8  459.83   43.17
  -7  -5   8  427.84   48.07
  -7   5   7   59.32   10.30
   7  -5  -7   26.12    6.66
   7   5  -7   59.34   10.53
  -7   5   7   35.03   13.94
  -7  -5   7   14.16    4.63
  -7   5   6   14.51    9.23
   7  -5  -6   23.43    5.50
   7   5  -6   10.33    6.25
  -7  -5   6   18.15    3.95
  -7   5   6   11.69    4.23
  -7   5   5  148.74   15.12
   7  -5  -5  152.60   13.36
   7   5  -5  169.86   16.00
  -7  -5   5  110.50   21.35
  -7   5   5  188.72   15.57
  -7   5   4  129.25   13.55
   7  -5  -4  218.16   17.54
   7   5  -4  124.61   13.38
  -7  -5   4  247.11   19.95
  -7   5   4  120.25   10.03
  -7  -5   3 1210.64   88.81
   7  -5  -3 1081.10   78.53
  -7  -5   3  912.60   71.86
  -7   5   3  999.60   72.49
  -7  -5   2  203.90   18.57
   7  -5  -2  164.29   13.13
  -7  -5   2  185.72   15.78
  -7   5   2  220.89   17.55
  -7   5   1   91.87   10.30
  -7  -5   1   67.29   21.40
   7  -5  -1   73.17    6.90
  -7  -5   1   57.95    7.34
  -7   5   1   73.86    8.14
  -7   5   0  120.69   15.02
  -7  -5   0  106.08   37.54
  -7  -5   0  100.00   11.73
  -7   5   0  122.57   13.68
  -7   5  -1  146.38   26.26
  -7  -5  -1   51.73   23.96
  -7  -5  -1   69.77   13.03
  -7   5  -1   79.23   14.42
  -7   5  -2  118.01   20.06
  -7  -5  -2   83.85   22.56
  -7  -5  -2   98.59   16.10
  -7   5  -2   79.91   13.42
  -7   5  -3   20.32    7.62
  -7  -5  -3   20.77    9.00
  -7  -5  -3   14.15    4.69
  -7   5  -3    9.15    4.42
  -7   5  -4  121.91   16.95
  -7  -5  -4   64.22   19.64
  -7  -5  -4   84.29   11.46
  -7   5  -4  104.61   13.80
  -7   5  -5  179.00   22.58
  -7  -5  -5  119.10   25.53
  -7  -5  -5  137.86   17.01
  -7   5  -5  165.40   21.03
  -7   6  10   97.87   13.87
   7  -6 -10  130.88   17.69
   7   6 -10   81.85   12.50
  -7  -6  10  180.99   23.01
  -7   6   9   43.86   13.15
   7  -6  -9   60.50   15.78
   7   6  -9   60.90   16.25
  -7  -6   9   35.09   14.15
  -7   6   8   76.78   14.37
   7  -6  -8   91.20   13.07
   7   6  -8   64.04   11.47
  -7  -6   8  105.04   13.13
  -7   6   7  259.26   21.24
   7  -6  -7  250.39   19.80
   7   6  -7  238.36   19.35
  -7  -6   7  276.02   20.99
  -7   6   6  315.87   31.49
   7  -6  -6  180.43   18.37
   7   6  -6  215.04   22.60
  -7  -6   6  179.20   40.41
  -7   6   5   90.24   16.67
   7  -6  -5   45.50    8.85
   7   6  -5   48.80   10.18
  -7  -6   5   61.86   24.12
  -7   6   4   -0.60    5.68
   7  -6  -4    0.13    3.12
   7   6  -4    1.97    5.45
  -7  -6   4    1.82    4.38
  -7   6   3   53.85   12.10
  -7  -6   3   53.90   11.48
   7  -6  -3   56.39   10.72
  -7  -6   3   56.15   18.13
  -7   6   2  274.59   27.97
  -7  -6   2  131.08   45.40
  -7  -6   2  179.79   17.93
  -7   6   1   91.91   16.31
  -7  -6   1   90.37   14.92
  -7   6   1   56.21    9.45
  -7   6   0   49.87   13.45
  -7  -6   0   44.12   11.92
  -7  -6   0   47.23   11.25
  -7   6   0   53.44   12.54
  -7   6  -1   33.91    9.78
  -7  -6  -1    9.15    8.31
  -7  -6  -1    6.14    3.58
  -7   6  -1   32.47    6.35
  -7   6  -2   17.65    6.79
  -7  -6  -2   35.42   10.14
  -7  -6  -2   31.18    7.17
  -7   6  -2   21.29    5.85
  -7   6  -3  121.90   17.29
  -7  -6  -3  107.73   47.86
  -7  -6  -3  163.69   19.22
  -7   6  -3  127.12   15.77
  -7   6  -4   71.41   13.93
  -7  -6  -4   33.06   16.92
  -7   6  -4   78.67   13.25
  -7   7   9   91.64   17.64
   7  -7  -9  106.42   19.02
   7   7  -9  115.90   19.89
  -7  -7   9  120.51   20.63
  -7   7   8  235.38   30.02
   7  -7  -8  141.62   19.71
   7   7  -8  208.50   26.95
  -7  -7   8  151.43   19.74
  -7   7   7   77.88   13.02
   7  -7  -7   46.13   12.71
   7   7  -7   86.74   12.93
  -7  -7   7   36.97   16.90
  -7   7   6   47.35   14.90
   7  -7  -6   26.96    8.62
   7   7  -6   46.76   15.76
  -7  -7   6   13.32   13.33
  -7   7   5   75.14   12.95
   7  -7  -5   45.27    9.12
   7   7  -5   50.13   10.49
  -7  -7   5   38.56   14.68
  -7   7   4  168.84   22.41
   7  -7  -4  160.41   18.51
   7   7  -4  124.86   16.90
  -7  -7   4  145.19   34.42
  -7   7   3  233.79   28.63
  -7  -7   3  182.70   22.30
  -7  -7   3  130.95   28.70
  -7   7   2   19.70    8.61
  -7  -7   2   15.81    4.88
  -7  -7   2    4.89    2.44
  -7   7   1   35.27   11.24
  -7  -7   1   43.78   12.57
  -7   7   0    5.83    7.14
  -7  -7   0   13.74    5.48
  -7   7  -1   35.30   11.25
  -7  -7  -1    7.92    8.78
  -7   7  -2   34.48   12.09
  -7  -7  -2   12.03   10.97
  -7   8   5    5.42    7.55
   7   8  -5    9.57    8.52
  -7   8   4   35.65   11.73
   7   8  -4   15.69    6.65
  -7   8   3   11.39    7.69
  -7  -8   3   -4.00    5.52
  -7   8   2  246.62   39.51
  -7  -8   2  106.65   37.29
  -7   8   1   69.87   15.52
  -7  -8   1   29.88   19.11
  -8   0  14   38.42   10.06
   8   0 -14   28.22    9.06
  -8   0  13  474.88   50.63
   8   0 -13  582.22  135.75
  -8   0  13  533.55  124.59
  -8   0  12  171.74   14.89
   8   0 -12  168.02   15.08
  -8   0  12  126.83   31.43
  -8   0  11   24.34    6.94
   8   0 -11   18.18    6.39
  -8   0  11   17.77    6.89
  -8   0  10  376.19   28.80
   8   0 -10  333.70   27.73
  -8   0  10  453.25   48.81
  -8   0   9  240.25   19.77
   8   0  -9  233.60   20.76
  -8   0   9  215.16   19.61
  -8   0   8 1468.13   60.29
   8   0  -8 1536.78   64.47
  -8   0   8 1311.97   59.22
  -8   0   7    7.73    3.60
  -8   0   7    7.70    5.91
  -8   0   6  185.16   12.94
   8   0  -6  241.13   17.82
  -8   0   6  208.13   15.39
  -8   0   5  902.10   43.85
   8   0  -5 1231.01   60.59
  -8   0   5 1022.25   50.71
  -8   0   4  248.02   13.85
   8   0  -4  245.88   15.79
  -8   0   4  217.19   14.61
  -8   0   3  123.41    8.02
   8   0  -3  112.46    8.83
  -8   0   3  116.32    9.90
  -8   0   2   93.69    7.75
   8   0  -2   65.96    6.51
  -8   0   2   89.25    8.66
  -8   0   1    6.49    2.93
   8   0  -1    7.59    3.69
  -8   0   1   15.05    8.63
  -8   0   0 1904.63   76.23
   8   0   0 1778.99   71.95
  -8   0   0 1774.21   73.41
  -8   0  -1  613.35   35.44
   8   0   1  664.87   38.27
  -8   0  -1  556.37   33.67
  -8   0  -2   57.21    7.35
   8   0   2   40.33    5.47
  -8   0  -2   62.89    9.36
   8   0   3  191.65   28.53
   8   0   3  210.94   21.22
  -8   0  -3  201.78   22.04
   8   0   4  137.09   36.05
  -8   0  -4  161.22   16.31
   8   0   5  183.51   21.01
   8   0   6   21.16    8.05
  -8   0  -6   38.25   12.38
   8   0   7    2.59    2.46
  -8   0  -7    8.08    6.01
  -8  -1  14   70.95   11.18
  -8   1  14   76.79   12.16
   8  -1 -14   92.17   14.76
   8   1 -14  107.22   16.28
  -8   1  13   18.01    7.93
   8  -1 -13   44.61   10.89
  -8  -1  13   19.39    9.02
  -8   1  13   44.84    9.30
  -8  -1  12  475.30   32.21
  -8   1  12  455.20   32.35
   8  -1 -12  443.29   31.39
   8   1 -12  452.52   31.61
  -8  -1  12  425.66   31.52
  -8   1  12  447.04   40.24
  -8  -1  11  615.01   49.40
  -8   1  11  726.50   58.56
   8  -1 -11  640.18   52.15
   8   1 -11  654.82   53.18
  -8  -1  11  634.35   51.32
  -8   1  11  694.81   56.81
  -8  -1  10  130.04   12.11
  -8   1  10   78.90    9.94
   8  -1 -10  138.43   14.55
   8   1 -10   80.99   10.24
  -8  -1  10  168.29   37.45
  -8   1  10   72.24   16.91
  -8  -1   9   40.88    5.63
  -8   1   9   44.28    6.90
   8  -1  -9   46.44    6.84
   8   1  -9   37.15    8.10
  -8   1   9   54.67   17.02
  -8  -1   9   53.64   13.74
  -8  -1   8  174.23   12.06
  -8   1   8  132.66   10.60
   8  -1  -8  133.62   11.47
   8   1  -8   91.18    8.96
  -8   1   8  109.21   16.16
  -8  -1   8  190.57   31.26
  -8  -1   7   99.55    6.96
  -8   1   7  157.35   10.39
   8  -1  -7   85.87    8.20
   8   1  -7  146.54   10.40
  -8   1   7  164.84   25.93
  -8  -1   7  123.43   26.03
  -8  -1   6 1222.58   72.03
  -8   1   6 1232.79   73.43
   8  -1  -6 1131.35   68.27
   8   1  -6 1057.90   64.39
  -8   1   6 1135.37   68.36
  -8  -1   6 1182.78   71.38
  -8  -1   5  586.43   35.30
  -8   1   5  652.39   39.95
   8   1  -5  477.32   28.83
   8  -1  -5  539.15   34.39
   8   1  -5  580.55   36.98
  -8  -1   5  608.14   38.13
  -8   1   5  587.31   36.94
  -8  -1   4   39.34    3.65
  -8   1   4   57.73    6.18
   8   1  -4   43.29    4.01
   8  -1  -4   34.55    5.12
   8   1  -4   65.84    8.07
  -8   1   4   41.28    6.40
  -8  -1   4   51.15    6.95
  -8  -1   3  314.59   19.89
  -8  -1   3  398.87   24.21
  -8   1   3  324.13   21.33
   8  -1  -3  381.83   24.88
   8   1  -3  326.25   22.10
  -8  -1   3  355.82   23.76
  -8   1   3  322.27   22.06
  -8  -1   2  553.59   34.15
  -8  -1   2  715.33   42.39
  -8   1   2  785.06   47.55
   8  -1  -2  648.97   39.84
   8   1  -2  741.49   45.84
  -8  -1   2  718.93   44.67
  -8   1   2  775.24   48.00
  -8  -1   1  559.24   33.99
  -8  -1   1  682.41   40.69
  -8   1   1  718.16   43.81
   8  -1  -1  615.31   37.95
   8   1  -1  720.07   44.39
  -8  -1   1  619.50   39.22
  -8   1   1  803.11   49.81
  -8   1   0   95.65    7.81
  -8  -1   0   87.34    5.69
   8  -1   0   77.86    6.29
   8   1   0   82.97    7.12
  -8   1   0   80.60    8.28
  -8   1  -1  641.42   37.51
  -8  -1  -1  571.68   32.66
  -8  -1  -1  529.13   31.46
   8  -1   1  523.01   30.30
  -8  -1  -1  501.41   30.95
  -8   1  -1  579.82   35.25
  -8   1  -2  264.44   21.69
  -8  -1  -2  285.80   22.19
  -8  -1  -2  319.08   25.21
   8  -1   2  289.46   22.32
  -8  -1  -2  282.33   23.80
  -8   1  -2  272.24   23.04
   8   1   3  146.77   24.52
  -8   1  -3  171.60   18.49
  -8  -1  -3  182.19   21.35
   8  -1   3  188.74   18.84
  -8  -1  -3  210.65   22.44
  -8   1  -3  183.12   20.50
   8  -1   4   58.85   26.37
   8   1   4   39.64   16.05
  -8  -1  -4   48.41   21.53
  -8   1  -4   67.46   12.28
  -8  -1  -4   68.97   13.03
   8  -1   5    6.13    6.36
   8   1   5   17.17    8.06
  -8  -1  -5    5.46    5.36
  -8  -1  -5   15.71    5.20
  -8   1  -5   20.77    9.28
   8  -1   6  131.70   16.78
   8   1   6  143.60   17.90
  -8  -1  -6  222.69   26.95
  -8   1  -6  194.51   24.72
   8  -1   7   18.80   17.41
   8   1   7   12.55   14.87
  -8  -1  -7   51.11   11.48
  -8   1  -7   40.88   11.61
  -8  -2  14  150.20   24.63
  -8   2  14  176.89   29.33
   8  -2 -14  159.67   27.01
   8   2 -14  107.90   19.38
  -8  -2  13  379.50   83.77
  -8   2  13  423.18   93.35
   8  -2 -13  299.53   34.45
   8   2 -13  352.46   39.43
  -8  -2  13  364.83   80.95
  -8  -2  12  141.38   17.11
  -8   2  12  123.71   16.37
   8  -2 -12  145.37   18.78
   8   2 -12  123.77   16.25
  -8   2  12  152.57   18.43
  -8  -2  12   94.40   37.28
  -8  -2  11    3.28    4.33
  -8   2  11    3.79    4.77
   8  -2 -11   -3.34    4.92
   8   2 -11   12.93    6.09
  -8   2  11    9.35    3.76
  -8  -2  11    0.89    6.59
  -8  -2  10  230.57   23.33
  -8   2  10  236.02   25.18
   8  -2 -10  198.60   22.38
   8   2 -10  258.39   27.33
  -8  -2  10  240.09   38.15
  -8   2  10  242.30   44.61
  -8  -2   9  403.09   30.02
  -8   2   9  378.40   29.55
   8  -2  -9  435.66   33.62
   8   2  -9  378.89   30.37
  -8   2   9  388.11   30.06
  -8  -2   9  400.18   34.15
  -8  -2   8  162.85   11.31
  -8   2   8  299.72   20.10
   8  -2  -8  150.39   12.48
   8   2  -8  261.39   20.09
  -8  -2   8  142.11   13.70
  -8   2   8  329.44   27.79
  -8  -2   7  659.07   27.95
  -8   2   7  602.70   27.98
   8  -2  -7  575.66   27.89
   8   2  -7  615.51   30.28
  -8   2   7  588.87   28.36
  -8  -2   7  603.15   28.61
  -8  -2   6  403.61   17.54
  -8   2   6  418.86   20.78
   8   2  -6  406.99   17.62
   8  -2  -6  376.71   19.08
   8   2  -6  320.06   17.38
  -8  -2   6  424.26   21.28
  -8   2   6  478.38   22.80
  -8  -2   5  945.04   55.25
  -8   2   5  903.05   55.06
   8   2  -5  812.47   47.57
   8  -2  -5  866.29   52.83
   8   2  -5  837.40   51.91
  -8   2   5  771.71   47.17
  -8  -2   4  299.26   18.44
  -8  -2   4  371.27   22.06
  -8   2   4  261.00   18.54
   8  -2  -4  337.65   22.53
   8   2  -4  273.12   19.73
  -8  -2   4  363.37   24.39
  -8   2   4  295.62   20.23
  -8  -2   3   67.77    6.41
  -8  -2   3   82.61    5.36
  -8   2   3  109.77    9.54
   8  -2  -3   98.65    8.43
   8   2  -3  102.60    9.74
  -8  -2   3   80.22    7.99
  -8   2   3   96.85    8.91
  -8  -2   2   59.13    3.29
  -8  -2   2   79.20    4.04
  -8   2   2  102.26    8.40
   8  -2  -2   62.58    5.84
   8   2  -2   98.67    9.27
  -8  -2   2   89.26    9.34
  -8   2   2  115.68    9.46
  -8  -2   1  543.61   22.05
  -8   2   1  636.87   28.80
   8  -2  -1  494.22   22.11
   8   2  -1  525.99   24.86
  -8  -2   1  580.41   27.89
  -8   2   1  521.92   24.83
  -8  -2   0  896.85   49.05
  -8   2   0  928.89   53.00
  -8  -2   0  858.26   49.77
   8  -2   0  797.01   44.78
  -8  -2   0  841.68   48.80
  -8   2   0  859.04   49.82
  -8   2  -1  869.54   64.27
  -8  -2  -1  972.84   69.98
  -8  -2  -1  945.46   72.85
   8  -2   1  895.56   64.73
  -8  -2  -1  932.34   69.24
  -8   2  -1  949.40   70.24
   8   2   2    3.73    2.49
  -8   2  -2   26.69    5.20
  -8  -2  -2   16.48    7.30
   8  -2   2   10.54    2.55
  -8  -2  -2   14.56    4.45
  -8   2  -2   28.00    5.76
   8   2   3  109.28   18.88
  -8   2  -3  103.83   18.80
  -8  -2  -3   91.66   22.47
  -8  -2  -3   85.47   15.94
  -8   2  -3   55.64   12.39
   8   2   4   26.86   16.01
  -8   2  -4   86.29   20.35
  -8  -2  -4   71.69   28.55
  -8  -2  -4   65.75   15.96
  -8   2  -4   60.43   14.72
   8  -2   5  186.66   22.22
   8   2   5  173.57   19.46
  -8  -2  -5  173.91   25.62
  -8  -2  -5  196.45   23.13
  -8   2  -5  248.37   28.73
   8  -2   6   52.82   22.02
  -8  -2  -6   36.74   20.53
  -8  -2  -6   51.64    8.73
  -8   2  -6   62.68   11.62
  -8  -3  13   60.37   10.58
  -8   3  13   41.98   10.62
   8  -3 -13   67.88   13.86
   8   3 -13   52.49   11.91
  -8  -3  13   21.42    9.79
  -8  -3  12  240.32   26.84
  -8   3  12  274.34   31.42
   8  -3 -12  184.74   22.30
   8   3 -12  230.55   26.41
  -8   3  12  208.89   23.67
  -8  -3  12  219.13   36.68
  -8  -3  11  267.76   19.43
  -8   3  11  273.37   20.61
   8   3 -11  220.63   17.86
  -8   3  11  231.87   17.73
  -8  -3  10  291.10   24.27
  -8   3  10  286.19   25.70
   8  -3 -10  321.85   28.42
   8   3 -10  275.80   24.68
  -8   3  10  293.86   25.10
  -8  -3  10  338.21   29.58
  -8  -3   9   36.48    5.58
  -8   3   9   69.14   10.17
   8  -3  -9   24.47    7.32
   8   3  -9   64.33   10.92
  -8  -3   9   45.60   10.93
  -8   3   9   37.31   11.44
  -8  -3   8  118.95   10.14
  -8   3   8   93.74    9.80
   8  -3  -8   96.93   10.74
   8   3  -8   70.16    9.71
  -8   3   8   59.79   18.22
  -8  -3   8  122.68   26.71
  -8  -3   7  321.36   23.95
  -8   3   7  376.68   30.30
   8  -3  -7  324.20   26.15
   8   3  -7  475.87   37.72
  -8  -3   7  333.44   27.28
  -8   3   7  333.42   28.61
  -8  -3   6  640.22   35.34
  -8   3   6  645.05   38.43
   8  -3  -6  589.02   35.19
   8   3  -6  613.06   37.49
  -8  -3   6  590.79   36.23
  -8   3   6  606.87   35.38
  -8   3   5   20.53    7.57
   8  -3  -5   24.09    4.84
   8   3  -5   26.59    9.60
  -8  -3   5   21.92    5.10
  -8   3   5   20.04    4.38
  -8   3   4   45.95    6.55
   8  -3  -4   27.61    4.75
   8   3  -4   64.18    7.82
  -8  -3   4   40.60    6.92
  -8   3   4   35.20    4.93
  -8   3   3   20.78    4.92
   8  -3  -3   71.60    6.05
  -8  -3   3   50.07    6.85
  -8   3   3   39.67    5.50
  -8   3   2  621.34   36.97
   8  -3  -2  685.39   38.98
   8   3  -2  660.76   39.27
  -8  -3   2  758.34   44.38
  -8   3   2  695.20   40.68
  -8   3   1  407.09   25.76
  -8  -3   1  306.79   20.77
   8  -3  -1  345.06   20.81
  -8  -3   1  310.25   20.40
  -8   3   1  422.59   26.74
  -8   3   0  101.61   10.69
  -8  -3   0  152.04   15.82
   8  -3   0  117.49    9.89
  -8  -3   0  105.26   10.81
  -8   3   0  141.62   13.93
  -8   3  -1   35.89    6.81
  -8  -3  -1   23.29    5.62
  -8  -3  -1   13.77    4.24
  -8   3  -1   54.70    8.76
  -8   3  -2  302.23   30.93
  -8  -3  -2  422.85   42.79
  -8  -3  -2  380.64   37.92
  -8   3  -2  284.36   29.16
  -8   3  -3  183.79   19.95
  -8  -3  -3  195.25   41.20
  -8  -3  -3  169.53   18.52
  -8   3  -3  167.44   17.85
  -8   3  -4   73.35   12.06
  -8  -3  -4   67.59   27.47
  -8  -3  -4   69.90   11.34
  -8   3  -4   69.57   12.32
  -8   3  -5   17.94    7.88
  -8  -3  -5    7.36    5.51
  -8  -3  -5   11.93    5.80
  -8   3  -5    0.17    6.37
  -8   3  -6  122.43   18.07
  -8  -3  -6   66.64   35.89
  -8  -3  -6   98.55   13.76
  -8   3  -6  128.94   18.28
  -8   4  12  148.70   19.24
   8  -4 -12  114.76   16.19
   8   4 -12  117.31   15.99
  -8  -4  12  117.98   16.24
  -8   4  11   20.98    9.34
   8  -4 -11   18.78    7.00
   8   4 -11   23.27    7.62
  -8   4  11   32.04    6.75
  -8  -4  11   26.82    5.60
  -8   4  10  168.18   15.85
   8  -4 -10  130.39   12.84
   8   4 -10  159.76   14.91
  -8   4  10  190.07   14.81
  -8  -4  10  160.56   13.78
  -8   4   9   82.33   14.53
   8  -4  -9  157.10   16.98
   8   4  -9   82.17   15.00
  -8  -4   9  128.50   20.56
  -8   4   9   83.85   13.92
  -8   4   8  165.40   19.15
   8  -4  -8  164.85   19.42
   8   4  -8  173.15   20.26
  -8   4   8  140.01   17.30
  -8  -4   8  173.49   42.10
  -8   4   7   22.13    6.84
   8  -4  -7   15.03    7.06
   8   4  -7   19.77    6.25
  -8  -4   7   28.66    7.37
  -8   4   7   18.75   11.35
  -8   4   6   51.79    9.12
   8  -4  -6    8.42    3.91
   8   4  -6   48.09    8.67
  -8  -4   6   30.65    6.18
  -8   4   6   26.28    5.78
  -8   4   5  522.46   40.80
   8  -4  -5  512.94   39.05
   8   4  -5  549.81   43.05
  -8  -4   5  458.17   37.59
  -8   4   5  460.97   34.82
  -8   4   4  226.76   19.68
   8  -4  -4  205.84   17.34
   8   4  -4  174.26   16.79
  -8  -4   4  180.12   15.80
  -8   4   4  239.63   19.44
  -8   4   3  355.30   29.72
   8  -4  -3  437.89   33.24
   8   4  -3  339.50   28.19
  -8  -4   3  445.18   34.35
  -8   4   3  417.22   32.05
  -8   4   2   70.93   10.52
  -8  -4   2   58.95    9.14
   8  -4  -2   42.55    5.62
  -8  -4   2   38.52    6.15
  -8   4   2   49.21    6.53
  -8   4   1  456.09   35.19
  -8  -4   1  450.49   36.44
   8  -4  -1  455.21   32.91
  -8  -4   1  488.30   37.06
  -8   4   1  539.39   40.26
  -8   4   0 1024.18   97.22
  -8  -4   0  853.82   81.66
  -8  -4   0  875.76   83.11
  -8   4   0  959.59   90.62
  -8   4  -1   69.18   13.23
  -8  -4  -1   57.45   25.32
  -8  -4  -1   69.67   13.08
  -8   4  -1   57.00   11.94
  -8   4  -2    8.92    5.53
  -8  -4  -2   15.73    4.26
  -8  -4  -2   26.67    7.29
  -8   4  -2   17.09    5.41
  -8   4  -3   -0.45    6.63
  -8  -4  -3   13.57    7.47
  -8  -4  -3   17.19    7.11
  -8   4  -3    6.70    5.25
  -8   4  -4   91.89   13.90
  -8  -4  -4  112.20   28.50
  -8   4  -4  109.49   14.61
  -8   4  -5  116.06   17.70
  -8  -4  -5  151.14   31.59
  -8  -4  -5  148.59   19.90
  -8   4  -5  150.33   21.09
   8  -5 -11  198.03   25.12
   8   5 -11  250.93   29.22
  -8  -5  11  178.30   22.01
   8  -5 -10  108.73   17.28
   8   5 -10   46.53   13.50
  -8  -5  10   72.13   30.91
  -8   5   9   67.80   12.53
   8  -5  -9   70.68   11.80
   8   5  -9   87.60   12.99
  -8  -5   9   77.66   18.14
  -8   5   8   34.43   11.67
   8  -5  -8   34.64    9.99
   8   5  -8   14.15    6.72
  -8  -5   8   34.62   13.29
  -8   5   7  157.44   18.50
   8  -5  -7  165.40   17.47
   8   5  -7  191.58   20.80
  -8  -5   7  176.01   18.65
  -8   5   7  144.27   14.30
  -8   5   6  230.23   21.47
   8  -5  -6  194.48   18.11
   8   5  -6  209.51   21.02
  -8  -5   6  188.63   17.56
  -8   5   6  176.58   15.26
  -8   5   5   60.65   12.14
   8  -5  -5   59.13   10.99
   8   5  -5   70.85   14.73
  -8  -5   5   36.05   14.67
  -8   5   5   68.83   12.36
  -8   5   4   85.26   11.94
   8  -5  -4   82.48   10.14
   8   5  -4   86.27   14.06
  -8  -5   4   67.80   14.37
  -8   5   4   90.82   10.38
  -8   5   3   74.27   11.08
   8  -5  -3   54.10    6.99
   8   5  -3   75.80   11.55
  -8  -5   3   61.58    8.90
  -8   5   3   96.57   11.12
  -8   5   2  107.22   19.92
  -8  -5   2   82.43   16.39
   8  -5  -2   90.12   15.59
  -8  -5   2   94.95   17.25
  -8   5   2   72.25   13.30
  -8   5   1  264.62   24.29
  -8  -5   1  272.64   32.42
  -8  -5   1  242.92   21.52
  -8   5   1  248.39   21.48
  -8   5   0  116.03   20.46
  -8  -5   0   78.18   29.62
  -8  -5   0   71.10   12.52
  -8   5   0  142.93   15.13
  -8   5  -1   57.60   14.83
  -8  -5  -1   54.40   24.09
  -8  -5  -1   79.53   18.32
  -8   5  -1   73.00   17.10
  -8   5  -2  194.96   23.16
  -8  -5  -2  157.87   19.25
  -8  -5  -2  177.05   20.41
  -8   5  -2  165.02   19.52
  -8   5  -3   91.61   15.51
  -8  -5  -3   36.46   13.11
  -8  -5  -3   24.79    8.21
  -8   5  -3   86.42   11.89
  -8   5  -4   22.79    7.60
  -8  -5  -4   27.87   17.21
  -8  -5  -4   27.62    6.37
  -8   5  -4   27.06    7.62
  -8   6  10   72.65   13.99
   8  -6 -10   64.35   12.33
   8   6 -10   75.67   12.82
  -8  -6  10   43.30   11.12
  -8   6   9  129.18   17.34
   8  -6  -9  140.12   18.81
   8   6  -9  174.75   22.16
  -8  -6   9  165.56   21.07
  -8   6   8   38.34   12.29
   8  -6  -8   32.13   10.00
   8   6  -8   29.93    9.81
  -8  -6   8   35.51   13.31
  -8   6   7   47.24   10.83
   8  -6  -7   71.90   11.33
   8   6  -7   30.72   10.01
  -8  -6   7   48.29   24.08
  -8   6   6   33.85    8.33
   8  -6  -6   18.78    6.06
   8   6  -6   10.35    6.45
  -8  -6   6   21.12    5.40
  -8   6   5  121.36   13.82
   8  -6  -5   87.95   12.76
  -8  -6   5  112.98   28.47
  -8   6   4  263.96   21.70
   8  -6  -4  192.74   14.76
   8   6  -4  256.52   21.14
  -8  -6   4  288.39   21.19
  -8   6   3   50.28   13.99
  -8  -6   3   45.05   12.12
  -8  -6   3   29.38   11.46
  -8  -6   2   33.28    7.62
  -8  -6   1  152.86   35.48
  -8  -6   1  134.67   15.69
  -8   6   1  110.49   13.13
  -8   6   0  137.87   17.94
  -8  -6   0   67.55   26.95
  -8  -6   0   61.19   10.70
  -8   6   0  111.94   13.62
  -8   6  -1  182.04   22.33
  -8  -6  -1  201.11   28.66
  -8  -6  -1  132.31   16.27
  -8   6  -1  125.86   15.49
  -8   6  -2   18.06    9.68
  -8  -6  -2   10.90    4.83
  -8  -6  -2    3.57    3.83
  -8   6  -2    2.90    3.87
  -8   6  -3   21.39    9.93
  -8  -6  -3   22.06    8.35
  -8   6  -3   13.60    4.79
  -8   7   8   18.40    8.66
   8  -7  -8   10.42    5.17
   8   7  -8   23.27    7.21
  -8  -7   8   10.08    4.95
  -8   7   7   26.08   11.65
   8  -7  -7    7.45    4.68
   8   7  -7   23.03    7.58
  -8  -7   7   -0.56    4.22
  -8   7   6  199.85   26.13
   8  -7  -6  156.23   18.71
   8   7  -6  152.50   19.94
  -8  -7   6  126.78   38.00
  -8   7   5   46.70   14.88
   8  -7  -5   41.16   11.27
   8   7  -5   64.66   11.66
  -8  -7   5   27.27   12.92
  -8   7   4   31.06   10.49
   8   7  -4   22.40    9.95
  -8  -7   4    9.58    5.43
  -8   7   3   32.93   10.80
  -8  -7   3   63.56   12.31
  -8  -7   3   44.20   19.45
  -8   7   2   92.23   15.73
  -8  -7   2  113.41   15.32
  -8   7   1   65.57   13.04
  -8  -7   1   41.86   32.21
  -8   7   0   10.99    7.79
  -8  -7   0   11.34    7.59
  -9   0  14   44.49   10.70
   9   0 -14   35.62   11.00
  -9   0  14   16.18    5.98
  -9   0  13   65.14   17.42
   9   0 -13  115.28   17.86
  -9   0  13   33.12   25.02
  -9   0  12  206.16   22.90
   9   0 -12  245.33   28.33
  -9   0  12  212.22   37.83
  -9   0  11  314.84   30.87
   9   0 -11  244.58   25.21
  -9   0  11  276.81   27.53
  -9   0  10  141.78   15.82
   9   0 -10  117.69   14.71
  -9   0  10  144.67   34.94
  -9   0   9   10.76    5.35
   9   0  -9   -1.06    6.19
  -9   0   9   25.20    7.29
  -9   0   8  231.86   18.89
   9   0  -8  196.65   17.71
  -9   0   8  158.40   32.69
  -9   0   7 1020.47   57.10
   9   0  -7 1033.85   59.51
  -9   0   7 1050.64   60.27
  -9   0   6 1055.17   58.73
   9   0  -6  997.63   57.48
  -9   0   6 1085.55   62.04
  -9   0   5   17.27    3.49
   9   0  -5   27.30    7.53
  -9   0   5   22.44    6.18
  -9   0   4  379.65   17.99
   9   0  -4  412.24   20.84
  -9   0   4  441.83   22.75
  -9   0   3  970.02   40.22
   9   0  -3  986.37   43.03
  -9   0   3  723.73   33.71
  -9   0   2  157.57   10.86
   9   0  -2  165.35   12.58
  -9   0   2  162.55   13.00
  -9   0   1   78.90    6.87
   9   0  -1   86.21    8.36
  -9   0   1   77.75   10.10
  -9   0   0  452.51   34.10
   9   0   0  440.55   33.87
  -9   0   0  582.79   44.96
  -9   0  -1  213.68   17.08
   9   0   1  194.13   16.44
  -9   0  -1  229.41   20.41
  -9   0  -2    7.85    4.94
   9   0   2    1.11    3.35
  -9   0  -2    4.16    5.21
  -9   0  -3   84.28   19.11
   9   0   3  115.89   10.01
  -9   0  -3   98.77   14.89
  -9   0  -4    7.20    4.30
  -9   0  -4    5.49    5.18
   9   0   5   46.00   20.95
  -9  -1  14  154.99   25.62
  -9   1  14  127.94   22.14
   9  -1 -14  181.23   30.24
   9   1 -14   96.28   17.75
  -9  -1  14  158.68   26.53
  -9  -1  13  130.71   16.70
  -9   1  13  176.16   21.60
   9  -1 -13  117.35   16.56
   9   1 -13  140.36   19.99
  -9  -1  13   80.62   43.22
  -9   1  13  144.69   23.82
  -9  -1  12   15.04    5.46
  -9   1  12   35.70    8.27
   9  -1 -12   13.06   10.76
   9   1 -12    5.00    6.01
  -9  -1  12    7.61    5.03
  -9   1  12   28.53    9.92
  -9  -1  11  114.97   19.12
  -9   1  11  120.70   19.66
   9  -1 -11   51.68   10.94
   9   1 -11  103.69   18.00
  -9  -1  11   77.65   28.83
  -9   1  11  144.20   31.08
  -9  -1  10  498.68   40.04
  -9   1  10  485.03   39.62
   9  -1 -10  561.64   46.08
   9   1 -10  499.91   41.95
  -9  -1  10  477.72   40.69
  -9   1  10  494.70   40.85
  -9  -1   9  905.92   64.80
  -9   1   9  944.55   89.17
   9  -1  -9 1015.50   96.34
   9   1  -9  921.61   87.99
  -9   1   9  802.26   61.89
  -9  -1   9  874.64   64.76
  -9  -1   8  312.75   24.23
  -9   1   8  393.47   30.52
   9  -1  -8  296.00   24.96
   9   1  -8  289.18   25.33
  -9  -1   8  318.89   51.12
  -9   1   8  444.92   50.31
  -9  -1   7  159.06   11.03
  -9   1   7  191.27   13.89
   9  -1  -7  164.81   13.65
   9   1  -7  158.24   13.27
  -9   1   7  166.28   25.21
  -9  -1   7  218.18   16.47
  -9  -1   6  660.29   37.28
  -9   1   6  497.55   29.51
   9  -1  -6  610.38   36.88
   9   1  -6  574.43   35.08
  -9  -1   6  560.04   34.30
  -9   1   6  559.99   33.86
  -9  -1   5  183.78    9.49
  -9   1   5  179.82   10.87
   9  -1  -5  199.33   12.92
   9   1  -5  170.49   11.63
  -9  -1   5  179.46   12.52
  -9   1   5  197.02   13.53
  -9  -1   4  485.33   20.76
  -9   1   4  619.43   28.06
   9  -1  -4  533.62   25.54
   9   1  -4  543.39   26.75
  -9   1   4  573.62   27.73
  -9  -1   3   70.50    5.85
  -9   1   3   69.00    6.61
   9  -1  -3   73.33    7.60
   9   1  -3   68.56    7.42
  -9  -1   3   70.37    8.54
  -9   1   3   85.02    9.01
  -9  -1   2   13.71    2.81
  -9   1   2   38.11    5.19
   9  -1  -2   11.59    3.85
   9   1  -2   42.19    6.72
  -9  -1   2   32.22    6.94
  -9   1   2   36.95    7.56
  -9  -1   1  585.22   42.84
  -9   1   1  447.70   33.95
   9  -1  -1  551.20   41.51
   9   1  -1  400.60   31.37
  -9  -1   1  537.04   41.78
  -9   1   1  440.56   34.50
  -9   1   0  552.66   41.58
  -9  -1   0  484.13   35.93
   9  -1   0  466.58   35.27
   9   1   0  576.65   43.43
  -9   1   0  614.63   47.21
  -9   1  -1    4.87    5.72
  -9  -1  -1   35.22    5.25
   9  -1   1   20.49    4.06
   9   1   1    4.76    5.21
  -9  -1  -1   19.38    5.08
  -9   1  -1    8.00    6.57
  -9   1  -2   12.86    5.05
  -9  -1  -2   16.26    4.74
   9  -1   2    9.86    3.74
   9   1   2   21.47    5.98
  -9  -1  -2   15.64    6.19
  -9   1  -2    9.30    6.29
  -9   1  -3   65.83   16.24
  -9  -1  -3   44.88   11.12
  -9  -1  -3   36.73    9.15
  -9  -1  -3   61.42   16.42
  -9   1  -3   60.83   15.39
   9   1   4   23.88   16.48
  -9   1  -4   67.14   12.03
  -9  -1  -4   82.63   11.27
  -9  -1  -4   89.21   13.13
  -9   1  -4   90.37   12.79
  -9  -1  -5   12.29    6.33
  -9   1  -5   20.90    8.52
  -9  -2  13   25.96    7.90
  -9   2  13   18.91    8.87
   9   2 -13   22.80    9.99
  -9   2  13   11.56    5.96
  -9  -2  13    5.92    4.97
  -9  -2  12  191.76   22.07
  -9   2  12  219.57   25.94
   9  -2 -12  181.03   22.38
   9   2 -12  162.22   20.44
  -9   2  12  172.38   41.19
  -9  -2  12  211.75   26.38
  -9  -2  11  352.53   24.42
  -9   2  11  373.53   27.32
   9   2 -11  399.39   28.93
  -9   2  11  330.66   24.47
  -9  -2  11  416.44   33.29
  -9  -2  10  132.82   28.89
  -9   2  10  161.24   17.59
   9  -2 -10  182.52   20.22
   9   2 -10  155.42   17.35
  -9  -2  10  165.62   30.14
  -9   2  10  115.22   28.97
  -9  -2   9   17.16    4.14
  -9   2   9   12.85    5.61
   9  -2  -9   18.76    9.09
   9   2  -9   13.56    9.37
  -9   2   9    4.75    3.65
  -9  -2   9   27.94   10.37
  -9  -2   8  284.08   21.44
  -9   2   8  188.74   16.90
   9  -2  -8  257.82   21.69
   9   2  -8  191.18   18.62
  -9  -2   8  267.80   25.78
  -9   2   8  187.02   28.35
  -9  -2   7 1113.35   80.06
  -9   2   7 1117.65   81.91
   9  -2  -7  932.79   69.22
   9   2  -7  910.58   68.59
  -9  -2   7 1097.07   86.27
  -9   2   7  955.39   75.72
  -9  -2   6  311.70   23.18
  -9   2   6  452.35   34.93
   9  -2  -6  360.64   28.66
   9   2  -6  433.35   34.23
  -9  -2   6  352.33   28.54
  -9   2   6  417.85   32.88
  -9  -2   5  124.80    8.01
  -9   2   5  119.85   10.72
   9  -2  -5  123.54   10.60
   9   2  -5  128.39   11.00
  -9   2   5  126.88   11.00
  -9  -2   4  337.20   18.84
  -9   2   4  376.56   23.76
   9  -2  -4  338.62   22.11
   9   2  -4  404.59   26.35
  -9  -2   4  313.87   20.83
  -9   2   4  365.09   23.71
  -9  -2   3  567.56   30.91
  -9   2   3  632.35   37.31
   9  -2  -3  679.34   39.32
   9   2  -3  727.29   43.50
  -9  -2   3  678.34   40.46
  -9   2   3  609.49   36.67
  -9  -2   2  336.95   24.44
  -9   2   2  268.04   21.85
   9  -2  -2  354.91   27.46
   9   2  -2  296.98   24.43
  -9  -2   2  340.94   27.59
  -9   2   2  287.04   23.89
  -9   2   1  146.29   13.52
   9  -2  -1   91.32    8.81
   9   2  -1  146.40   13.90
  -9  -2   1   86.57    9.73
  -9   2   1  139.68   13.25
  -9   2   0  132.98   12.59
   9  -2   0  113.86   10.03
   9   2   0  111.94   11.32
  -9  -2   0  115.29   12.44
  -9   2   0  161.59   15.47
  -9   2  -1  249.81   25.92
  -9  -2  -1  188.69   20.17
   9  -2   1  166.58   16.79
  -9  -2  -1  183.27   20.07
  -9   2  -1  195.19   21.45
  -9   2  -2   77.14   13.42
  -9  -2  -2   99.76   16.42
  -9  -2  -2  107.60   17.61
  -9   2  -2   79.62   14.62
  -9   2  -3   86.54   12.15
  -9  -2  -3  109.84   16.40
  -9  -2  -3  112.11   14.86
  -9   2  -3   99.29   13.83
  -9   2  -4   22.44    7.99
  -9  -2  -4   18.82    7.11
  -9  -2  -4   14.07    8.48
  -9   2  -4    6.60    6.28
  -9   2  -5  139.70   19.32
  -9  -2  -5   52.16   27.38
  -9  -2  -5  108.31   16.60
  -9   2  -5   78.67   12.93
  -9   3  13   34.83   10.54
   9  -3 -13    4.70    6.92
   9   3 -13   37.54    9.82
  -9  -3  13    3.01    7.26
  -9   3  13   49.82    9.57
  -9   3  12  100.96   14.39
   9  -3 -12   88.70   14.18
   9   3 -12   93.10   13.40
  -9  -3  12  106.97   32.06
  -9   3  12   76.41   18.12
  -9  -3  11  109.14   13.09
  -9   3  11  149.85   19.01
   9  -3 -11  160.58   19.78
   9   3 -11  144.44   18.74
  -9   3  11  121.13   14.94
  -9   3  10  456.91   31.77
   9  -3 -10  429.06   30.22
   9   3 -10  473.31   32.93
  -9  -3  10  413.62   29.45
  -9   3  10  500.20   33.94
  -9   3   9  321.63   27.92
   9  -3  -9  361.24   30.93
   9   3  -9  401.05   34.39
  -9  -3   9  469.95   39.65
  -9   3   9  301.65   33.33
  -9   3   8  209.06   22.02
   9  -3  -8  270.25   27.91
   9   3  -8  219.81   24.65
  -9   3   8  211.94   34.99
  -9  -3   8  301.90   33.76
  -9   3   7  142.77   13.44
   9  -3  -7  137.43   13.36
   9   3  -7  143.12   15.36
  -9  -3   7  163.56   15.88
  -9   3   7  154.53   35.12
  -9   3   6  463.65   35.63
   9  -3  -6  406.05   31.95
   9   3  -6  504.82   39.26
  -9  -3   6  396.66   32.27
  -9   3   6  447.57   33.75
  -9   3   5  829.51   62.03
   9  -3  -5  789.24   58.63
   9   3  -5  887.30   66.60
  -9  -3   5  808.37   60.97
  -9   3   5  755.34   56.13
  -9   3   4  411.36   32.28
   9  -3  -4  373.63   29.21
   9   3  -4  414.75   33.05
  -9  -3   4  373.42   30.07
  -9   3   4  484.43   37.42
  -9   3   3   14.27    4.45
   9  -3  -3   19.23    3.70
   9   3  -3    8.24    5.50
  -9  -3   3    8.84    5.11
  -9   3   3   10.70    4.82
  -9   3   2   60.39    8.31
   9  -3  -2   99.98   10.16
   9   3  -2   74.01    8.74
  -9  -3   2   71.33    9.08
  -9   3   2   42.33    6.53
  -9   3   1  300.14   30.70
   9  -3  -1  287.98   28.13
   9   3  -1  291.57   29.86
  -9  -3   1  319.08   32.27
  -9   3   1  225.60   23.86
  -9   3   0   81.66   15.43
  -9  -3   0  116.14   21.43
  -9  -3   0  130.56   23.28
  -9   3   0   85.71   15.69
  -9   3  -1   61.23   11.84
  -9  -3  -1   29.05    9.63
  -9  -3  -1   31.30    7.64
  -9   3  -1   96.47   16.91
  -9   3  -2  136.05   13.15
  -9  -3  -2   65.98   30.00
  -9  -3  -2  114.14   11.80
  -9   3  -2  107.98   11.46
  -9   3  -3    4.12    5.45
  -9  -3  -3   10.19    4.73
  -9  -3  -3   14.75    5.92
  -9   3  -3    0.27    4.65
  -9   3  -4   34.04    9.55
  -9  -3  -4   28.70   19.13
  -9  -3  -4   66.65   10.74
  -9   3  -4   35.68   11.75
  -9   3  -5   10.13    6.22
  -9  -3  -5   11.55    4.36
  -9  -3  -5   12.94    7.14
  -9   3  -5   22.05    9.37
  -9   4  12   82.04   13.52
   9  -4 -12  107.53   16.14
   9   4 -12   80.64   13.39
  -9  -4  12   34.39   21.36
  -9   4  11  275.41   32.99
   9  -4 -11  297.70   34.38
   9   4 -11  261.92   30.60
  -9   4  11  251.50   30.70
  -9  -4  11  376.75   83.54
  -9   4  10   91.43   14.40
   9  -4 -10   50.41   11.31
   9   4 -10   65.38   13.12
  -9   4  10   66.96   22.25
  -9  -4  10   72.47   13.79
  -9   4   9   59.15   14.89
   9  -4  -9   20.71    7.07
   9   4  -9   73.00   17.95
  -9   4   9   52.37   18.85
  -9  -4   9   33.83   12.97
  -9   4   8  387.70   37.57
   9  -4  -8  454.37   42.75
   9   4  -8  492.26   46.62
  -9  -4   8  371.60   35.47
  -9   4   8  353.89   33.06
  -9   4   7  222.07   20.44
   9  -4  -7  219.85   19.99
   9   4  -7  225.02   20.99
  -9  -4   7  210.97   19.68
  -9   4   7  242.36   21.78
  -9   4   6  311.06   27.44
   9  -4  -6  277.06   24.64
   9   4  -6  301.17   27.34
  -9  -4   6  277.42   24.39
  -9   4   6  249.18   21.45
  -9   4   5   75.60   10.76
   9  -4  -5   75.29    9.76
   9   4  -5   87.68   13.00
  -9  -4   5   42.84   16.35
  -9   4   5   61.16    8.40
  -9   4   4   81.72   11.25
   9  -4  -4   87.11   10.46
   9   4  -4   66.26   10.86
  -9  -4   4   99.22   12.54
  -9   4   4   49.91    7.21
  -9   4   3  202.92   22.01
   9  -4  -3  244.96   24.45
  -9  -4   3  225.49   23.85
  -9   4   3  146.96   15.81
  -9   4   2  166.45   16.50
   9  -4  -2  173.13   15.13
   9   4  -2  169.58   17.02
  -9  -4   2  149.21   26.46
  -9   4   2  147.40   25.36
  -9   4   1    5.13    5.57
  -9  -4   1   27.54    9.37
  -9  -4   1   20.70    6.67
  -9   4   1   20.48    7.05
  -9   4   0    4.26    5.50
  -9  -4   0    9.91    5.25
  -9  -4   0   15.45    5.58
  -9   4   0    9.15    6.22
  -9   4  -1  129.50   15.89
  -9  -4  -1   69.27   27.13
  -9  -4  -1  142.52   17.29
  -9   4  -1  116.08   14.71
  -9   4  -2  288.64   32.48
  -9  -4  -2  220.95   25.26
  -9  -4  -2  267.26   29.90
  -9   4  -2  266.68   29.91
  -9   4  -3   11.09    6.42
  -9  -4  -3    6.82    6.55
  -9  -4  -3    6.89    5.64
  -9   4  -3   13.26    6.09
  -9   4  -4   20.43    8.97
  -9  -4  -4   10.07    5.05
  -9  -4  -4   18.25    6.33
  -9   4  -4   14.39    5.77
  -9   5  11    8.62    6.38
   9  -5 -11   11.01    6.35
   9   5 -11   12.45    6.64
  -9  -5  11   18.61    7.64
  -9   5  10  225.10   27.55
   9  -5 -10  174.36   21.38
   9   5 -10  180.09   22.84
  -9  -5  10  227.32   27.08
  -9   5   9  265.88   30.83
   9  -5  -9  217.85   25.56
   9   5  -9  248.72   28.28
  -9  -5   9  214.39   24.91
  -9   5   8   85.92   12.57
   9  -5  -8   89.55   12.63
   9   5  -8   91.69   14.08
  -9  -5   8  100.51   25.27
  -9   5   7   59.31   11.36
   9  -5  -7   59.47   10.35
   9   5  -7   47.24   10.40
  -9  -5   7   41.65   12.70
  -9   5   7   17.99    6.47
  -9   5   6   81.45   19.93
   9  -5  -6   16.53    6.39
   9   5  -6   35.71   10.99
  -9  -5   6   10.06    4.30
  -9   5   6   25.67    9.08
  -9   5   5  449.67   42.96
   9  -5  -5  504.47   46.59
   9   5  -5  477.79   44.94
  -9  -5   5  473.52   44.68
  -9   5   5  442.44   40.47
  -9   5   4  185.15   20.49
   9  -5  -4  209.27   20.87
   9   5  -4  218.91   23.33
  -9  -5   4  202.73   41.63
  -9   5   4  172.86   17.45
  -9   5   3   75.62   18.50
   9  -5  -3   32.97    8.78
   9   5  -3   32.05   10.16
  -9  -5   3   21.77    7.14
  -9   5   3   38.87   10.16
  -9   5   2  121.17   12.19
  -9  -5   2  177.19   15.86
  -9  -5   2  155.32   13.40
  -9   5   2  162.53   13.23
  -9   5   1   89.18   12.93
  -9  -5   1   75.81   13.21
  -9  -5   1  105.29   13.85
  -9   5   1  110.25   13.51
  -9   5   0   37.21    8.27
  -9  -5   0   10.53   10.67
  -9  -5   0   15.49    4.94
  -9   5   0   32.64    6.70
  -9   5  -1   29.42   11.32
  -9  -5  -1   36.36   17.02
  -9  -5  -1   33.40   10.07
  -9   5  -1   16.59    7.65
  -9   5  -2   40.40   13.08
  -9  -5  -2   34.59   11.89
  -9  -5  -2   19.73    8.23
  -9   5  -2   21.70    7.86
  -9   5  -3   41.86    9.78
  -9  -5  -3   21.00   18.89
  -9  -5  -3   44.43   10.02
  -9   5  -3   26.92    7.05
  -9   6   9    6.76    7.04
   9  -6  -9    7.24    5.21
   9   6  -9    8.89    6.72
  -9  -6   9   -0.63    5.11
  -9   6   8  134.84   17.62
   9  -6  -8  170.78   21.59
   9   6  -8  186.30   23.38
  -9  -6   8  124.12   30.85
  -9   6   7  125.39   16.84
   9  -6  -7  192.46   23.38
   9   6  -7  198.54   24.68
  -9  -6   7  163.97   21.74
  -9   6   6   43.18   13.58
   9  -6  -6   36.52   10.51
   9   6  -6   26.83    9.60
  -9  -6   6   25.83   14.71
  -9   6   5   67.41   13.18
   9  -6  -5   42.25    8.52
   9   6  -5   57.63   10.85
  -9  -6   5   43.12   11.87
  -9   6   4  110.66   16.24
   9   6  -4   81.95   13.43
  -9  -6   4   46.78   14.41
  -9   6   3  100.67   14.23
   9   6  -3  105.49   15.43
  -9  -6   3   83.44   21.29
  -9   6   2   88.32   14.39
  -9  -6   2  133.20   18.98
  -9  -6   2   97.85   12.81
  -9   6   1    4.65    7.22
  -9  -6   1    0.08    6.61
  -9  -6   1    3.64    4.32
  -9   6   0    9.37    6.73
  -9  -6   0   24.07   11.72
  -9  -6   0   27.98    8.85
  -9   6   0   24.94    7.75
  -9   6  -1   72.61   16.30
  -9  -6  -1   37.93   26.69
  -9  -6  -1   41.34    8.67
  -9   7   6   35.17   10.34
   9   7  -6   14.91    6.82
  -9  -7   6   37.79   10.46
  -9   7   5   22.91    8.51
   9   7  -5   24.20    8.11
  -9  -7   5    5.72    2.95
  -9   7   4  115.29   21.58
   9   7  -4  128.06   22.44
  -9  -7   4   45.35   28.47
  -9   7   3   44.12   13.14
   9   7  -3   28.44    8.14
  -9  -7   3   18.12    7.04
  -9  -7   2   60.67   14.75
 -10   0  13  337.38   40.99
  10   0 -13  290.86   35.83
 -10   0  13  280.83   36.28
 -10   0  12   13.92    5.37
  10   0 -12    6.29    6.94
 -10   0  12   18.28    8.56
 -10   0  11  186.31   20.88
  10   0 -11  171.07   21.25
 -10   0  11  161.32   19.67
 -10   0  10  386.68   36.37
  10   0 -10  394.27   38.14
 -10   0  10  439.63   41.78
 -10   0   9   65.70   13.12
  10   0  -9   52.02   12.06
 -10   0   9   61.73   13.74
 -10   0   8    7.95    3.87
  10   0  -8    7.56    5.22
 -10   0   8    8.07    4.33
 -10   0   7   33.03    5.41
  10   0  -7   37.71    7.93
 -10   0   7   20.34    6.61
 -10   0   6  157.90   13.28
  10   0  -6  126.34   12.65
 -10   0   6  128.05   12.51
 -10   0   5  286.09   22.31
  10   0  -5  291.42   24.68
 -10   0   5  235.25   20.29
 -10   0   4   57.77    6.46
  10   0  -4   45.44    8.13
 -10   0   4   77.95   11.29
 -10   0   3   24.25    4.96
  10   0  -3   17.72    4.97
 -10   0   3   29.89    8.42
 -10   0   2  108.35   10.84
  10   0  -2  116.19   11.41
 -10   0   2  100.30   11.61
 -10   0   1   87.81   10.51
  10   0  -1   78.71    9.66
 -10   0   1   63.76    9.56
 -10   0   0  711.34   55.69
  10   0   0  764.07  110.90
 -10   0   0  741.90  108.70
 -10   0  -1    3.89    4.55
  10   0   1    8.81    4.56
 -10   0  -1   18.16    6.33
 -10   0  -2   30.16    6.35
  10   0   2   38.03    6.85
 -10   0  -2   53.89   10.80
 -10   0  -3   55.36   14.30
 -10   0  -3   65.85   18.10
 -10   0  -4   11.09    5.48
 -10   0  -4    5.90    6.06
 -10  -1  13  234.26   28.95
 -10   1  13  188.57   24.47
  10  -1 -13  257.70   32.63
  10   1 -13  197.18   25.72
 -10   1  13  205.69   42.94
 -10  -1  13  205.97   26.83
 -10  -1  12  322.11   36.07
  10  -1 -12  287.89   33.11
  10   1 -12  305.23   35.33
 -10   1  12  326.49   37.29
 -10  -1  12  327.31   37.22
 -10  -1  11  138.90   16.38
 -10   1  11  113.87   14.49
  10  -1 -11  109.10   14.97
  10   1 -11   87.75   13.75
 -10   1  11  107.33   25.92
 -10  -1  11   86.97   23.83
 -10  -1  10   39.93    7.85
 -10   1  10   30.03    7.40
  10  -1 -10   47.92   11.52
  10   1 -10   33.28    8.44
 -10   1  10   33.93   10.91
 -10  -1  10   33.56   11.66
 -10  -1   9  237.34   20.13
 -10   1   9  260.74   22.82
  10  -1  -9  295.34   26.82
  10   1  -9  272.33   24.89
 -10   1   9  250.95   51.73
 -10  -1   9  307.82   51.31
 -10  -1   8  231.51   23.13
 -10   1   8  262.07   26.41
  10  -1  -8  231.33   25.34
 -10   1   8  306.70   54.59
 -10  -1   8  231.59   25.75
 -10  -1   7  458.46   33.55
 -10   1   7  432.55   32.67
  10  -1  -7  446.21   34.60
  10   1  -7  357.82   28.72
 -10  -1   7  426.26   38.03
 -10   1   7  464.49   36.24
 -10  -1   6  176.78   13.99
 -10   1   6  198.19   16.59
  10  -1  -6  173.74   16.10
  10   1  -6  182.47   17.05
 -10   1   6  193.95   17.20
 -10  -1   6  206.37   18.78
 -10  -1   5  623.02   44.42
 -10   1   5  625.18   45.78
  10  -1  -5  685.84   50.88
  10   1  -5  619.59   46.69
 -10   1   5  685.30   51.14
 -10  -1   5  598.97   45.38
 -10  -1   4  611.41   43.56
 -10   1   4  692.43   50.39
  10  -1  -4  684.36   50.25
  10   1  -4  793.85   58.52
 -10  -1   4  771.09   57.47
 -10   1   4  716.28   53.25
 -10  -1   3   85.12    7.55
 -10   1   3   62.74    7.24
  10  -1  -3  135.94   12.75
  10   1  -3   46.35    6.88
 -10  -1   3   76.06    9.67
 -10   1   3   75.37   10.20
 -10  -1   2   29.50    4.25
 -10   1   2   25.15    6.42
  10  -1  -2   26.11    5.29
  10   1  -2   30.89    7.35
 -10  -1   2   39.78    7.49
 -10   1   2   20.84    6.11
 -10  -1   1  153.02   15.60
 -10   1   1  134.50   14.81
  10  -1  -1  125.79   14.03
  10   1  -1  123.75   14.47
 -10  -1   1  170.63   19.25
 -10   1   1  175.14   19.53
 -10  -1   0   35.38    7.28
 -10   1   0   73.24   13.60
  10  -1   0   54.79   10.70
  10   1   0   83.34   15.53
 -10   1   0   74.32   15.36
 -10   1  -1  313.52   22.89
  10  -1   1  310.83   21.28
  10   1   1  276.46   19.94
 -10   1  -1  290.71   21.68
 -10  -1  -1  312.61   23.56
 -10   1  -2   44.98    8.27
  10   1   2   51.53    8.93
 -10  -1  -2   59.37   10.65
 -10   1  -2   30.69    7.51
 -10   1  -3   22.81    7.60
  10   1   3   24.93    8.00
 -10   1  -3   44.18   13.42
 -10  -1  -3    7.68    6.16
 -10   1  -4   12.63    4.98
 -10  -1  -4   21.60    8.45
 -10   1  -4   10.44    8.74
 -10   2  13  245.85   38.84
  10  -2 -13  194.82   31.95
  10   2 -13  239.54   37.93
 -10  -2  13  216.68   35.13
 -10   2  13  138.22   22.54
 -10  -2  12   64.18   16.64
 -10   2  12  108.67   15.27
  10   2 -12   70.81   19.38
 -10  -2  12   68.85   34.56
 -10   2  12   26.44   18.48
 -10  -2  11  116.40   14.81
 -10   2  11   87.16   13.12
  10  -2 -11  109.17   15.64
  10   2 -11  116.76   16.91
 -10  -2  11  114.45   38.96
 -10   2  11   51.44   22.05
 -10  -2  10  379.55   25.44
 -10   2  10  404.49   28.83
  10  -2 -10  370.98   26.96
  10   2 -10  385.34   28.36
 -10  -2  10  408.98   29.86
 -10   2  10  406.82   28.34
 -10  -2   9   88.71   14.19
 -10   2   9   88.28   15.05
  10  -2  -9  101.18   18.09
  10   2  -9  103.76   18.48
 -10   2   9   84.63   19.91
 -10  -2   9  108.54   35.63
 -10  -2   8    3.56    3.15
 -10   2   8    6.92    5.16
  10  -2  -8   14.35    6.28
  10   2  -8   10.40    6.58
 -10   2   8    4.45    4.09
 -10  -2   8   10.99    4.96
 -10   2   7   29.82    6.92
  10  -2  -7   18.53    6.36
  10   2  -7   31.72    8.67
 -10  -2   7   19.07    5.76
 -10   2   7   20.84    6.31
 -10   2   6  289.86   29.33
  10  -2  -6  369.97   36.84
  10   2  -6  316.34   32.22
 -10  -2   6  410.97   41.40
 -10   2   6  314.11   32.15
 -10   2   5  326.28   25.70
  10  -2  -5  259.45   21.14
  10   2  -5  320.68   26.34
 -10   2   5  327.37   26.54
 -10   2   4   91.53    9.74
  10  -2  -4   15.74    3.65
  10   2  -4   49.10    7.63
 -10  -2   4   21.78    5.26
 -10   2   4   70.08    9.70
 -10   2   3   10.64    4.69
  10  -2  -3    6.16    5.72
  10   2  -3    1.67    5.03
 -10  -2   3    8.48    6.64
 -10   2   3    5.51    5.97
 -10   2   2  116.26   13.78
  10  -2  -2   70.13    8.88
  10   2  -2  131.60   15.56
 -10  -2   2   50.87    7.90
 -10   2   2  158.49   18.35
 -10   2   1  219.23   19.65
  10  -2  -1  228.07   19.70
  10   2  -1  185.06   17.60
 -10  -2   1  261.12   24.40
 -10   2   1  217.38   20.39
  10   2   0  144.77   16.89
 -10  -2   0  116.22   19.26
 -10   2   0   98.73   16.56
 -10   2  -1   71.81   16.95
  10   2   1   48.57   11.83
 -10  -2  -1   87.65   20.87
 -10   2  -2   94.66   13.27
  10   2   2   57.46    9.88
 -10   2  -2  104.65   14.91
 -10   2  -3   26.23    9.28
 -10  -2  -3    1.43    3.98
 -10  -2  -3   20.11    7.66
 -10   2  -3   12.49    6.57
 -10   2  -4   19.52    7.91
 -10  -2  -4   22.96    6.37
 -10  -2  -4   10.81    6.33
 -10   2  -4    2.42    6.38
 -10   3  12  181.05   24.08
  10  -3 -12  234.41   29.63
  10   3 -12  148.99   20.84
 -10  -3  12  217.09   32.62
 -10   3  12  171.62   21.95
 -10   3  11  102.58   15.16
  10  -3 -11   85.44   13.52
  10   3 -11  102.57   15.09
 -10   3  11   66.53   31.21
 -10   3  10    6.29    5.46
  10  -3 -10   10.32    6.75
  10   3 -10    7.29    9.88
 -10   3  10    1.98    5.67
 -10  -3  10   13.74    8.07
 -10   3   9  266.04   20.65
  10  -3  -9  238.71   19.55
  10   3  -9  238.70   19.77
 -10  -3   9  278.18   24.27
 -10   3   9  239.84   20.56
 -10   3   8  282.58   28.08
  10  -3  -8  293.55   29.29
  10   3  -8  308.76   31.57
 -10  -3   8  300.67   35.55
 -10   3   8  270.99   32.63
 -10   3   7  174.64   16.80
  10  -3  -7  111.01   20.06
  10   3  -7  204.61   20.20
 -10  -3   7  119.40   26.45
 -10   3   7  182.00   17.46
 -10   3   6   46.23   10.52
  10  -3  -6   86.10   16.48
  10   3  -6   60.79   13.78
 -10  -3   6   79.70   20.11
 -10   3   6   65.31   12.83
 -10   3   5   51.41   10.85
  10  -3  -5   49.32   11.27
  10   3  -5   25.21    7.31
 -10  -3   5   62.59   13.44
 -10   3   5   63.41   12.32
 -10   3   4  205.83   19.01
  10  -3  -4  193.66   18.10
  10   3  -4  235.92   22.09
 -10  -3   4  161.72   25.44
 -10   3   4  197.34   18.35
 -10   3   3  273.62   23.87
  10  -3  -3  268.29   22.67
  10   3  -3  305.16   27.12
 -10  -3   3  283.26   24.95
 -10   3   3  276.73   24.49
 -10   3   2  186.36   19.39
  10  -3  -2  155.03   15.52
  10   3  -2  201.02   20.94
 -10  -3   2  171.73   18.46
 -10   3   2  168.44   17.91
 -10   3   1   14.08    5.77
  10   3  -1    8.04    5.50
 -10  -3   1    3.08    4.86
 -10   3   1   18.23    5.51
 -10   3   0   15.31    7.31
  10   3   0   13.38    7.07
 -10  -3   0   16.21    7.22
 -10   3   0   14.43    8.87
 -10   3  -1  172.25   20.51
 -10  -3  -1  113.04   14.64
 -10  -3  -1  129.36   16.30
 -10   3  -1  169.48   20.84
 -10   3  -2  148.87   18.92
 -10  -3  -2  193.69   23.32
 -10  -3  -2  223.81   26.61
 -10   3  -2  200.29   24.32
 -10   3  -3   29.29    8.34
 -10  -3  -3   23.43   12.01
 -10  -3  -3   33.39    9.52
 -10   3  -3   16.91    5.90
 -10   4  11   76.29   14.60
  10  -4 -11   98.81   16.77
  10   4 -11  105.45   17.00
 -10  -4  11   54.59   35.84
 -10   4  10  215.17   25.84
  10  -4 -10  191.99   23.38
  10   4 -10  212.65   26.26
 -10  -4  10  164.20   38.96
 -10   4  10  157.69   20.75
 -10   4   9  156.30   19.99
  10  -4  -9  195.83   23.38
  10   4  -9  156.68   20.37
 -10   4   9   88.26   28.24
 -10   4   8    7.03    6.90
  10  -4  -8   11.78    7.29
  10   4  -8   20.35   10.60
 -10   4   8   10.53    3.25
 -10  -4   8    7.27    4.84
 -10   4   7   27.69    8.45
  10  -4  -7   42.66   11.62
  10   4  -7   36.80   10.44
 -10  -4   7   38.02   12.53
 -10   4   7   17.92    7.18
 -10   4   6  186.34   16.57
  10  -4  -6  151.63   13.64
  10   4  -6  177.33   16.32
 -10  -4   6  149.82   32.97
 -10   4   6  166.68   13.54
 -10   4   5  166.60   18.63
  10  -4  -5  177.34   18.38
  10   4  -5  231.85   24.15
 -10  -4   5  225.29   23.07
 -10   4   5  176.82   18.52
 -10   4   4   28.48    7.42
  10  -4  -4   17.60    5.01
 -10   4   4   26.85    6.76
 -10   4   3   35.95   10.80
  10  -4  -3   31.57    8.28
  10   4  -3   41.18   11.21
 -10  -4   3   22.42    7.06
 -10   4   3   32.79    9.10
 -10   4   2   29.88    8.79
  10   4  -2   43.16   11.97
 -10  -4   2   40.66   11.10
 -10   4   2   39.66   11.13
 -10   4   1   18.70    5.18
  10   4  -1   29.08    8.00
 -10  -4   1   26.96    6.20
 -10   4   1   53.95   10.15
 -10   4   0  102.99   14.78
 -10  -4   0   62.40   11.95
 -10  -4   0   49.07    9.78
 -10   4   0  108.25   13.84
 -10   4  -1   28.73   11.03
 -10  -4  -1   20.04    9.47
 -10  -4  -1    8.90    5.50
 -10   4  -1   24.80    9.45
 -10   4  -2   20.52    7.16
 -10  -4  -2    7.21    3.59
 -10  -4  -2    5.33    5.18
 -10   4  -2   24.20    8.37
 -10   5  10   88.48   16.61
  10  -5 -10   79.79   15.21
  10   5 -10   51.59   12.23
 -10  -5  10   27.64   13.94
 -10   5   9   65.15   11.85
  10  -5  -9   97.82   14.51
  10   5  -9   54.60   12.79
 -10  -5   9   89.45   23.48
 -10   5   8  297.51   34.45
  10  -5  -8  246.66   28.74
  10   5  -8  253.44   30.72
 -10  -5   8  240.84   54.22
 -10   5   7   51.13   12.89
  10  -5  -7   42.11    8.85
  10   5  -7   31.29    8.68
 -10  -5   7   43.79   14.26
 -10   5   6   30.18   10.97
  10  -5  -6   16.67    6.17
  10   5  -6    5.27    6.38
 -10  -5   6    0.75    6.08
 -10   5   5   42.31   12.00
  10  -5  -5   49.31    9.47
 -10  -5   5   28.19   12.08
 -10   5   5   51.25    8.93
 -10   5   4  155.71   19.54
  10   5  -4  164.80   20.87
 -10  -5   4  147.57   17.77
 -10   5   4  148.65   17.65
 -10   5   3  142.05   18.94
  10   5  -3  124.16   16.72
 -10  -5   3   77.26   11.45
 -10   5   3  123.46   15.10
 -10   5   2   58.68   16.53
  10   5  -2   55.15   15.55
 -10  -5   2   42.86   12.68
 -10   5   2   55.45   14.66
 -10   5   1   52.03   15.16
 -10  -5   1   36.77   12.22
 -10  -5   1   45.32   12.73
 -10   5   1   37.21   10.27
 -10   5   0   55.81   11.93
 -10  -5   0   35.85   10.13
 -10  -5   0   34.93   10.58
 -10   5   0   42.19   11.12
 -10   5  -1   38.13   10.42
 -10  -5  -1   22.95   17.89
 -10  -5  -1   58.29   11.92
 -10   5  -1   47.13   10.18
 -10   6   8    2.15    6.13
  10  -6  -8   10.70    5.03
  10   6  -8   19.84    7.76
 -10  -6   8   13.28    7.53
 -10   6   7   38.39   11.05
  10   6  -7   30.46    9.86
 -10  -6   7   10.34    4.45
 -10   6   6    9.49    6.93
  10  -6  -6   31.10    7.77
  10   6  -6   25.62   10.00
 -10  -6   6   23.94   11.86
 -10   6   5  208.28   27.72
  10   6  -5  204.31   26.77
 -10  -6   5  123.09   40.12
 -10   6   4   21.31    7.93
  10   6  -4   11.98    7.05
 -10  -6   4   26.82   11.13
 -10   6   3   26.11    8.44
 -10  -6   3    4.78    4.21
 -10   6   2    3.89    6.23
  10   6  -2   16.19    9.23
 -10  -6   2   13.58    6.98
 -11   0  13  190.88   30.22
  11   0 -13  256.02   40.78
 -11   0  13  197.37   44.06
 -11   0  12   84.78   11.93
  11   0 -12   79.66   12.66
 -11   0  12   81.91   24.90
 -11   0  11   15.67    7.40
  11   0 -11   12.29    6.87
 -11   0  11    8.01    4.92
 -11   0  10   27.86    6.74
  11   0 -10   20.90    9.23
 -11   0  10   15.18    8.09
 -11   0   9  340.21   23.48
  11   0  -9  354.77   26.98
 -11   0   9  344.10   53.92
 -11   0   8  287.16   27.13
  11   0  -8  311.37   30.83
 -11   0   8  271.89   31.14
 -11   0   7   62.09   11.77
  11   0  -7   81.72   16.03
 -11   0   7   71.51   13.93
 -11   0   6   22.76    5.92
  11   0  -6   49.51   11.86
 -11   0   6   44.66   11.67
 -11   0   5   91.36   15.93
  11   0  -5   91.16   17.42
 -11   0   5   62.14   13.45
 -11   0   4   89.88   15.94
  11   0  -4   91.03   17.15
 -11   0   4  119.57   21.98
 -11   0   3   51.00   10.41
  11   0  -3   39.62    9.13
 -11   0   3   45.67   11.41
 -11   0   2    9.37    4.20
  11   0  -2   13.11    5.40
 -11   0   2   10.95    6.83
 -11   0   1   26.77    7.06
  11   0  -1   25.64    7.76
 -11   0   1   33.72    9.88
  11   0   0  252.06   26.88
 -11   0   0  251.81   28.66
  11   0   1   47.90   12.63
 -11   0  -1   23.12    8.91
 -11   0  -2   51.41   11.07
 -11  -1  12   18.08    5.92
 -11   1  12   45.45   12.60
  11  -1 -12   69.45   12.22
  11   1 -12   67.14   12.51
 -11  -1  12   33.10   12.06
 -11   1  12   37.60   15.82
 -11  -1  11  109.71   14.26
 -11   1  11  103.27   14.16
  11  -1 -11  118.94   17.12
  11   1 -11  104.76   16.24
 -11  -1  11  111.80   43.14
 -11   1  11   59.00   31.01
 -11  -1  10  253.06   26.92
 -11   1  10  274.83   29.61
  11  -1 -10  296.35   32.70
  11   1 -10  230.54   26.96
 -11   1  10  233.40   28.33
 -11  -1  10  292.20   32.10
 -11  -1   9  131.26   11.05
 -11   1   9  156.75   13.40
  11  -1  -9  135.79   13.92
 -11  -1   9  123.79   40.72
 -11   1   9  136.24   33.45
 -11  -1   8   13.01    4.16
 -11   1   8   11.47    6.20
  11  -1  -8    0.12    5.07
  11   1  -8    8.26    6.78
 -11   1   8   13.99    5.67
 -11  -1   8   -2.23    6.51
 -11   1   7   67.21   11.98
  11  -1  -7   99.10   17.29
  11   1  -7  104.56   18.33
 -11   1   7   75.65   14.01
 -11  -1   7  102.17   17.76
 -11   1   6  175.90   16.44
  11  -1  -6  155.28   26.96
  11   1  -6  181.43   18.18
 -11   1   6  178.19   17.20
 -11  -1   6  150.05   26.34
 -11   1   5  153.49   26.15
  11  -1  -5  179.35   17.07
  11   1  -5  181.04   17.92
 -11  -1   5  226.35   21.97
 -11   1   5  184.83   18.42
 -11   1   4  185.14   16.80
  11  -1  -4  213.13   20.28
  11   1  -4  240.74   22.30
 -11  -1   4  174.27   17.39
 -11   1   4  163.83   16.53
 -11   1   3  136.05   29.52
  11  -1  -3   74.43   13.23
  11   1  -3  149.14   16.72
 -11  -1   3  164.48   18.59
 -11   1   3  131.26   21.14
 -11   1   2  446.34   41.11
  11  -1  -2  447.54   41.65
  11   1  -2  462.19   43.12
 -11  -1   2  390.39   37.35
 -11   1   2  439.64   41.71
 -11   1   1  182.25   14.25
  11  -1  -1  129.69   11.32
  11   1  -1  144.40   13.52
 -11   1   1  154.93   14.39
 -11  -1   1  171.36   15.40
 -11   1   0   19.06    4.96
  11  -1   0    3.41    3.12
  11   1   0   11.46    4.86
 -11   1   0   16.96    9.97
 -11   1  -1    8.71    5.72
  11   1   1   16.76    7.23
 -11  -1  -1   25.46    9.05
 -11   1  -1   38.34   12.29
 -11   1  -2   39.57    8.32
  11   1   2   52.61    9.54
 -11   1  -2   81.72   14.13
 -11  -1  -2   52.57   11.20
 -11   2  12   50.33   10.73
  11   2 -12   66.09   13.22
 -11  -2  12   68.45   14.81
 -11   2  12   46.98   14.41
 -11   2  11   53.45    9.92
  11  -2 -11   27.92   11.44
  11   2 -11   53.38   10.09
 -11  -2  11   55.04   16.44
 -11   2  11   30.88   17.89
 -11   2  10    8.85    5.24
  11  -2 -10   -2.65    6.07
  11   2 -10    8.66    7.18
 -11   2  10   -2.23    5.01
 -11  -2  10   14.33    7.80
 -11   2   9  148.35   18.67
  11  -2  -9  142.96   18.61
  11   2  -9  155.23   20.05
 -11  -2   9  100.59   38.28
 -11   2   9   87.46   33.90
 -11   2   8  230.40   17.89
  11  -2  -8  199.69   17.28
  11   2  -8  246.46   20.84
 -11  -2   8  198.92   22.36
 -11   2   8  141.62   25.02
 -11   2   7  212.05   21.37
  11  -2  -7  154.80   17.66
  11   2  -7  239.59   25.65
 -11  -2   7  179.20   32.25
 -11   2   7  264.50   26.06
 -11   2   6   16.97    7.55
  11  -2  -6   13.70    6.77
  11   2  -6   24.24    7.63
 -11  -2   6   -4.19    5.34
 -11   2   6   31.78    9.33
 -11   2   5  129.66   21.18
  11   2  -5  156.36   17.93
 -11   2   5  141.81   16.31
 -11   2   4  127.18   20.63
  11  -2  -4  231.46   23.11
  11   2  -4  162.08   18.13
 -11  -2   4  246.30   25.46
 -11   2   4  162.25   17.22
 -11   2   3  207.98   21.83
  11  -2  -3  204.27   20.19
  11   2  -3  225.45   23.55
 -11  -2   3  304.66   30.71
 -11   2   3  226.27   23.03
 -11   2   2   14.90    5.93
  11  -2  -2    8.60    3.93
  11   2  -2   19.15    7.27
 -11  -2   2   38.55   12.47
 -11   2   2   20.84    9.20
 -11   2   1   69.03   11.04
  11   2  -1   61.70   11.37
 -11  -2   1   63.60   10.71
 -11   2   1   79.18   14.10
 -11   2   0   53.86   10.00
  11   2   0   48.13   10.61
 -11  -2   0   19.05    6.66
 -11   2   0   41.46   10.15
 -11   2  -1  206.40   24.01
  11   2   1  251.02   28.64
 -11  -2  -1  265.45   31.11
 -11   2  -1  221.97   26.19
 -11   2  -2   19.07    5.90
  11   2   2   16.14    5.34
 -11  -2  -2   11.99    6.40
 -11   2  -2   17.73    6.83
 -11   3  11  269.21   34.41
  11  -3 -11  155.44   23.20
  11   3 -11  192.32   25.65
 -11   3  11  180.52   23.18
 -11   3  10  106.00   14.05
  11  -3 -10  149.73   19.52
  11   3 -10  117.02   17.34
 -11   3  10  124.84   18.42
 -11  -3  10  175.00   23.42
 -11   3   9   27.28    7.95
  11  -3  -9   80.26   12.71
  11   3  -9   40.73   11.51
 -11   3   9   56.00   16.04
 -11  -3   9   32.00   10.54
 -11   3   8    6.72    5.36
  11  -3  -8   23.21    8.75
  11   3  -8   14.79    7.40
 -11  -3   8    3.51    3.33
 -11   3   8    9.67    7.15
 -11   3   7   64.48   10.81
  11  -3  -7  118.72   15.30
  11   3  -7   82.58   14.24
 -11  -3   7  115.66   23.29
 -11   3   7   87.98   11.62
 -11   3   6  246.93   20.30
  11  -3  -6  252.60   20.36
  11   3  -6  319.71   25.04
 -11  -3   6  239.57   19.39
 -11   3   6  291.45   22.03
 -11   3   5   73.28   18.03
  11  -3  -5   42.57   11.21
  11   3  -5   52.57   14.68
 -11  -3   5   64.78   16.06
 -11   3   5   45.19   11.77
 -11   3   4   40.33   10.46
  11  -3  -4   44.44   11.08
  11   3  -4   58.08   14.89
 -11  -3   4   64.75   15.56
 -11   3   4   76.91   17.81
 -11   3   3   49.70    9.57
  11  -3  -3   64.91   10.27
  11   3  -3   80.45   15.08
 -11  -3   3   44.87    8.47
 -11   3   3   61.33   11.94
 -11   3   2   63.56   10.78
  11   3  -2   66.49   11.89
 -11  -3   2   63.84   12.33
 -11   3   2   29.10    7.75
 -11   3   1  170.93   20.48
  11   3  -1  212.91   25.68
 -11  -3   1  156.82   19.41
 -11   3   1  198.22   23.61
 -11   3   0   43.52   12.10
  11   3   0   54.40    9.54
 -11  -3   0   62.26   10.09
 -11   3   0   43.18   11.78
 -11   3  -1   28.20    8.02
 -11  -3  -1   26.47    8.12
 -11   3  -1   28.66    9.71
 -11   4  10    8.36    7.18
  11  -4 -10   -1.00    5.98
  11   4 -10   -8.24    6.02
 -11   4  10    4.00    2.89
 -11  -4  10    9.84    4.68
 -11   4   9  126.41   17.86
  11  -4  -9   35.43   10.99
  11   4  -9  100.84   16.19
 -11  -4   9   44.45   19.57
 -11   4   9   34.68   24.16
 -11   4   8  189.13   23.36
  11   4  -8  150.99   20.18
 -11  -4   8  202.50   26.08
 -11   4   8  116.05   45.39
 -11   4   7   95.50   14.44
  11  -4  -7   89.37   13.55
  11   4  -7   79.45   14.24
 -11  -4   7   76.50   21.90
 -11   4   7   61.57   21.98
 -11   4   6   20.86    7.14
  11  -4  -6   22.50    7.20
  11   4  -6   13.81    7.45
 -11  -4   6   13.16    7.57
 -11   4   6   14.03    4.96
 -11   4   5    5.50    5.89
  11  -4  -5    6.56    4.31
 -11  -4   5    2.97    5.83
 -11   4   5    5.01    4.32
 -11   4   4  112.33   15.38
  11  -4  -4   79.86   11.23
  11   4  -4   76.30   12.57
 -11  -4   4   85.49   13.10
 -11   4   4   79.44   11.63
 -11   4   3   91.90   14.67
  11   4  -3   63.88   18.14
 -11  -4   3   90.29   12.79
 -11   4   3  104.43   14.10
 -11   4   2   15.06    6.68
  11   4  -2   15.40    8.59
 -11  -4   2   36.12   12.10
 -11   4   2   28.90   10.18
 -11   4   1   12.36    6.39
  11   4  -1   29.71   10.40
 -11  -4   1   10.85    5.61
 -11   4   1    4.25    5.62
 -11   4   0  111.74   16.81
  11   4   0  154.87   21.36
 -11  -4   0  138.13   19.04
 -11   4   0  159.05   21.22
 -11   5   8   92.25   15.62
  11  -5  -8   72.54   12.09
  11   5  -8  106.98   17.83
 -11  -5   8   55.85   26.21
 -11   5   7   45.56   10.28
  11  -5  -7   59.69   10.38
  11   5  -7   39.97   11.06
 -11  -5   7   34.94   25.36
 -11   5   6    9.09    9.83
  11  -5  -6   20.38    7.59
  11   5  -6   22.22   11.62
 -11  -5   6   12.11    5.24
 -11   5   5  234.73   28.07
  11   5  -5  204.50   25.61
 -11  -5   5  209.92   24.95
 -11   5   5  166.31   19.84
 -11   5   4   14.66    7.57
  11   5  -4   14.31    7.23
 -11  -5   4    7.42    7.88
 -11   5   4    2.45    4.62
 -11   5   3   44.79   10.68
  11   5  -3   39.04    9.87
 -11  -5   3    9.77    5.60
 -11   5   2   94.31   17.54
  11   5  -2   76.26   14.07
 -11  -5   2   47.24   10.20
 -11   5   2   66.02   12.55
  12   0 -11  109.36   17.12
 -12   0  11   80.72   41.08
  12   0 -10  162.71   21.59
 -12   0  10  191.56   23.65
 -12   0   9    5.32    3.51
  12   0  -9   12.25    6.55
 -12   0   9    7.80    5.25
  12   0  -8   25.65    8.39
 -12   0   8   49.58   17.05
  12   0  -7  175.47   20.93
 -12   0   7  234.40   26.72
  12   0  -6  553.00   56.96
 -12   0   6  490.11   51.53
  12   0  -5   36.19    8.83
 -12   0   5   54.41   11.15
  12   0  -4   52.67    9.72
 -12   0   4   75.65   13.16
  12   0  -3   24.46    6.16
 -12   0   3   47.12   11.30
  12   0  -2  180.40   21.22
 -12   0   2  142.42   18.04
  12   0  -1    9.06    6.00
 -12   0   1   17.99   10.59
 -12   0   0   12.29    7.17
 -12   1  11    9.70    6.54
  12  -1 -11    8.85    6.48
  12   1 -11   -1.26    6.63
 -12   1  11    8.34    5.51
 -12  -1  11   17.94    4.84
 -12   1  10   16.05    7.46
  12  -1 -10   18.93   10.17
  12   1 -10   27.27   10.25
 -12   1  10    8.66    5.53
 -12  -1  10   17.94   13.84
 -12   1   9  190.94   22.06
  12  -1  -9  140.43   19.04
  12   1  -9  178.40   22.84
 -12   1   9  165.70   49.37
 -12  -1   9  150.35   38.08
 -12   1   8  179.06   20.53
  12  -1  -8  138.25   17.15
  12   1  -8  198.33   23.88
 -12   1   8  169.35   49.40
 -12  -1   8  127.78   41.70
 -12   1   7   39.43    7.45
  12  -1  -7   67.06   11.86
  12   1  -7   44.18   10.84
 -12   1   7   30.11    8.82
 -12  -1   7   36.92    8.97
 -12   1   6   27.44    6.30
  12  -1  -6   25.17    6.44
  12   1  -6   19.71    7.33
 -12   1   6   14.90   10.31
 -12  -1   6   16.58    7.00
 -12   1   5  379.77   39.18
  12  -1  -5  400.77   42.45
  12   1  -5  446.53   46.73
 -12  -1   5  381.65   40.65
 -12   1   5  371.11   39.67
 -12   1   4   26.94    6.26
  12  -1  -4   18.25    6.26
  12   1  -4   26.98    7.24
 -12   1   4   21.02    6.49
 -12  -1   4   33.22    8.14
 -12   1   3   36.83    7.50
  12  -1  -3   18.85    6.64
  12   1  -3   20.83    7.58
 -12   1   3   13.99    6.96
 -12  -1   3   29.36    8.16
 -12   1   2   27.04    8.24
  12  -1  -2   18.35    7.05
 -12   1   2   33.61   11.22
 -12  -1   2   61.18   16.95
  12   1  -1    5.87    4.90
 -12  -1   1   32.64   11.33
 -12   1   1   17.40    7.74
  12   1   0  114.49   15.98
 -12   1   0  157.94   21.75
 -12   2  11  186.61   29.82
  12  -2 -11  256.84   40.58
  12   2 -11  237.40   38.71
 -12   2  11  178.49   57.12
 -12  -2  11  251.70   39.76
 -12   2  10   32.98    9.16
  12  -2 -10   57.66   12.43
  12   2 -10   45.66   14.73
 -12  -2  10   47.29   16.27
 -12   2   9   17.07    7.75
  12  -2  -9   15.82    7.16
  12   2  -9   33.47   11.84
 -12   2   9   13.77    7.68
 -12  -2   9    5.14    4.21
 -12   2   8   88.40   12.65
  12  -2  -8  119.34   17.25
  12   2  -8  140.73   19.62
 -12   2   8  114.89   29.77
 -12  -2   8  102.58   23.87
 -12   2   7  192.52   22.14
  12  -2  -7  172.35   20.78
  12   2  -7  198.19   23.58
 -12   2   7  179.50   21.55
 -12  -2   7  193.59   26.60
 -12   2   6  178.68   20.98
  12  -2  -6  174.04   20.96
 -12   2   6  189.78   22.53
 -12  -2   6  218.26   26.02
 -12   2   5  114.97   14.41
  12  -2  -5   88.38   12.17
  12   2  -5  121.29   16.21
 -12   2   5  138.44   17.92
 -12   2   4   53.24   10.12
  12  -2  -4   50.24    9.45
  12   2  -4   42.86    9.50
 -12  -2   4   47.86    9.44
 -12   2   4   56.43   11.22
 -12   2   3   79.46   11.44
  12  -2  -3   52.81   14.30
  12   2  -3   76.31   19.39
 -12  -2   3  101.32   14.74
 -12   2   3  102.89   14.88
 -12   2   2   60.68   15.90
  12   2  -2   62.70   16.93
 -12  -2   2   39.41   11.76
 -12   2   2   74.46   19.35
 -12   2   1   46.80   11.99
  12   2  -1   34.36   10.56
 -12  -2   1   71.30   11.47
 -12   2   1   50.91   10.45
 -12   2   0    4.21    4.36
  12   2   0    7.57    5.15
 -12  -2   0    5.04    5.77
 -12   2   0    1.58    6.95
 -12   3  10   61.20   12.83
  12  -3 -10   42.76   10.76
  12   3 -10   22.27    8.24
 -12   3  10   15.36   18.82
 -12  -3  10   21.13   12.15
 -12   3   9  210.70   26.74
  12  -3  -9  187.98   25.62
  12   3  -9  197.00   26.75
 -12  -3   9  157.86   21.21
 -12   3   9  142.62   18.92
 -12   3   8  113.88   15.76
  12  -3  -8  128.00   16.96
  12   3  -8  139.38   19.79
 -12  -3   8   95.22   23.54
 -12   3   8   67.66   30.97
 -12   3   7   10.29    5.82
  12  -3  -7   31.34   10.33
  12   3  -7   13.90    7.49
 -12  -3   7   14.94    6.99
 -12   3   7   27.73    9.77
 -12   3   6   -0.40    5.07
  12  -3  -6   10.25    5.72
  12   3  -6   13.95    8.24
 -12  -3   6    8.06    6.87
 -12   3   6    8.88    5.82
 -12   3   5   82.51   12.42
  12  -3  -5   73.82   18.72
  12   3  -5   79.56   12.74
 -12  -3   5   56.03   17.25
 -12   3   5   97.46   14.19
 -12   3   4  299.27   33.71
  12  -3  -4  240.57   27.08
  12   3  -4  300.83   34.60
 -12  -3   4  207.17   25.35
 -12   3   4  216.20   25.34
 -12   3   3   31.18   10.41
  12   3  -3   53.16   11.28
 -12  -3   3   33.03   11.27
 -12   3   3   46.54   13.53
 -12   3   2   29.09    8.44
  12   3  -2   14.76    5.41
 -12  -3   2   15.71    6.85
 -12   3   2   43.14    9.89
  12   3  -1   39.38    9.99
 -12  -3   1   19.08    9.56
 -12   3   1   15.28    5.62
  12  -4  -8   69.66   13.95
  12   4  -8   48.17   11.61
 -12  -4   8   54.48   26.04
 -12   4   7   46.13   10.71
  12  -4  -7   48.58   10.81
  12   4  -7   73.34   13.32
 -12  -4   7   68.08   22.80
 -12   4   7   83.45   12.64
 -12   4   6  170.36   23.23
  12  -4  -6   88.82   14.35
  12   4  -6  123.21   18.35
 -12  -4   6  104.68   31.23
 -12   4   6   95.91   14.18
 -12   4   5   87.79   13.81
 -12  -4   5   70.80   13.29
 -12   4   5   45.44    9.61
 -12   4   4    5.07    5.94
  12   4  -4    0.95    5.95
 -12  -4   4    7.22    5.82
 -12   4   4   16.55    6.81
 -12   4   3  124.89   20.92
  12   4  -3  130.31   22.58
 -12  -4   3  127.57   22.18
 -12   4   3   75.15   13.78
  13   0 -10   56.41   12.38
 -13   0  10   54.47   29.53
  13   0  -9  125.72   19.38
 -13   0   9   91.37   37.25
  13   0  -8   60.27   11.96
  13   0  -7    8.40    5.51
 -13   0   7    0.91    6.44
  13   0  -6   43.52   11.72
 -13   0   6   39.74   11.54
  13   0  -5   53.37   10.06
 -13   0   5   66.89   12.64
  13   0  -4   55.44   10.26
 -13   0   4   79.72   12.39
  13   0  -3   24.64    6.39
 -13   0   3   10.32    6.61
  13   0  -2    1.75    3.89
 -13   0   2   12.47    6.86
  13  -1 -10    7.19    6.64
  13   1 -10   16.00    7.31
 -13   1  10   10.86    7.19
 -13  -1  10   20.34    9.75
  13  -1  -9   11.88    6.75
  13   1  -9   -2.36    6.25
 -13   1   9    9.04    6.95
 -13  -1   9   14.07    5.06
  13  -1  -8   27.46    8.33
  13   1  -8   34.40   12.27
 -13   1   8   12.25    8.97
 -13  -1   8   18.45    8.20
  13  -1  -7   23.45    7.95
  13   1  -7   41.06   12.66
 -13   1   7   90.72   13.12
 -13  -1   7   48.67   10.37
  13  -1  -6    9.34    7.50
  13   1  -6   28.33   10.41
 -13  -1   6   20.65    8.71
 -13   1   6   15.99    7.74
  13  -1  -5   18.26    6.63
  13   1  -5   32.68   10.78
 -13   1   5   30.47   11.14
 -13  -1   5   60.56   12.56
  13  -1  -4    3.94    4.36
  13   1  -4   12.53    7.91
 -13   1   4   13.01    6.85
 -13  -1   4    7.71    7.47
  13  -1  -3   89.40   12.87
  13   1  -3   62.97   11.42
 -13   1   3  101.90   15.18
 -13  -1   3  104.57   17.16
  13   1  -2   25.79    8.07
 -13  -1   2   36.13   11.29
 -13   1   2   31.21    8.95
 -13   2   9  135.76   22.46
  13  -2  -9  156.63   26.08
  13   2  -9  146.41   24.78
 -13   2   9  152.62   27.95
 -13  -2   9  236.04   38.48
  13  -2  -8   33.95    9.85
 -13   2   8   29.86   14.05
 -13  -2   8   11.55    9.50
 -13   2   7   13.85    6.00
  13  -2  -7   10.69    5.53
  13   2  -7   21.62    8.07
 -13   2   7    5.24    6.23
 -13  -2   7   21.35   10.93
 -13   2   6   57.98   10.25
  13  -2  -6   54.56   10.96
  13   2  -6   60.37   12.71
 -13   2   6   81.40   13.43
 -13  -2   6   48.05   10.42
 -13   2   5   37.21    8.44
  13  -2  -5    9.87    4.78
  13   2  -5   16.89    6.92
 -13   2   4   46.88    8.97
  13   2  -4   81.06   14.53
 -13  -2   4   99.04   16.34
 -13   2   4   67.49   12.74
 -13   2   3   40.61    8.81
  13   2  -3   16.33    7.43
 -13  -2   3   12.19    6.62
 -13   2   3   43.81   11.38
 -13   3   6   12.50    5.63
  13  -3  -6    3.69    4.48
  13   3  -6   12.07    6.41
 -13  -3   6    6.19    5.79
 -13   3   6    6.88    5.18
   0   0   0    0.00    0.00

_computing_structure_solution     'SHELXT 2014/5 (Sheldrick, 2014)'
;
_shelx_hkl_checksum              93708
_olex2_submission_special_instructions 'No special instructions were received'
loop_
_space_group_symop_operation_xyz
'x, y, z'
'-x, y+1/2, -z'
loop_
_atom_site_label
_atom_site_type_symbol
_atom_site_fract_x
_atom_site_fract_y
_atom_site_fract_z
_atom_site_U_iso_or_equiv
_atom_site_adp_type
_atom_site_occupancy
_atom_site_site_symmetry_order
_atom_site_calc_flag
_atom_site_refinement_flags_posn
Br1 Br 0.68960(4) 0.27365(6) 0.88827(3) 0.04015(14) Uani 1 1 d .
O4 O 0.6728(2) 0.7566(5) 0.1581(2) 0.0295(6) Uani 1 1 d .
C10 C 0.7972(3) 0.7680(7) 0.2730(3) 0.0265(7) Uani 1 1 d .
H10 H 0.836699 0.894313 0.282595 0.032 Uiso 1 1 calc R
C14 C 0.6926(4) 0.7915(8) 0.0429(4) 0.0347(9) Uani 1 1 d .
H14A H 0.754808 0.697544 0.032940 0.042 Uiso 1 1 calc R
H14B H 0.736346 0.912926 0.048818 0.042 Uiso 1 1 calc R
C15 C 0.5522(4) 0.7861(9) -0.0714(4) 0.0402(9) Uani 1 1 d .
H15A H 0.563727 0.803477 -0.151948 0.060 Uiso 1 1 calc GR
H15B H 0.493193 0.883885 -0.063045 0.060 Uiso 1 1 calc GR
H15C H 0.507985 0.667422 -0.074099 0.060 Uiso 1 1 calc GR
C12 C 0.9279(4) 0.3244(6) 0.2237(4) 0.0285(10) Uani 1 1 d .
O1 O 0.8980(3) 0.6372(4) 0.2709(3) 0.0271(6) Uani 1 1 d .
O2 O 0.9102(4) 0.1612(4) 0.2217(4) 0.0404(9) Uani 1 1 d .
C2 C 0.8027(4) 0.3093(6) 0.7029(4) 0.0291(9) Uani 1 1 d .
H2 H 0.877758 0.237737 0.762442 0.035 Uiso 1 1 calc R
C7 C 0.6948(4) 0.5395(6) 0.3731(4) 0.0253(8) Uani 1 1 d .
H7 H 0.595442 0.549921 0.307116 0.030 Uiso 1 1 calc R
O3 O 1.0144(3) 0.4054(4) 0.1812(3) 0.0347(7) Uani 1 1 d .
C16 C 0.7921(5) 0.8432(6) 0.4814(4) 0.0345(10) Uani 1 1 d .
H16A H 0.837782 0.955054 0.481327 0.041 Uiso 1 1 calc R
H16B H 0.768572 0.815243 0.551357 0.041 Uiso 1 1 calc R
C3 C 0.8028(4) 0.3700(6) 0.5869(4) 0.0288(9) Uani 1 1 d .
H3 H 0.879853 0.341498 0.568036 0.035 Uiso 1 1 calc R
C1 C 0.6907(4) 0.3556(5) 0.7296(4) 0.0265(8) Uani 1 1 d .
C6 C 0.5805(4) 0.4582(6) 0.6446(4) 0.0294(9) Uani 1 1 d .
H6 H 0.504871 0.489023 0.665056 0.035 Uiso 1 1 calc R
C11 C 0.7613(4) 0.7270(5) 0.3845(4) 0.0269(9) Uani 1 1 d .
C13 C 1.0885(5) 0.2852(10) 0.1316(5) 0.0480(11) Uani 1 1 d .
H13A H 1.021353 0.220996 0.054489 0.072 Uiso 1 1 calc GR
H13B H 1.141992 0.195766 0.198697 0.072 Uiso 1 1 calc GR
H13C H 1.152409 0.357041 0.107892 0.072 Uiso 1 1 calc GR
C5 C 0.5813(4) 0.5161(6) 0.5283(4) 0.0293(9) Uani 1 1 d .
H5 H 0.505555 0.586693 0.468871 0.035 Uiso 1 1 calc R
C4 C 0.6925(4) 0.4716(5) 0.4982(4) 0.0242(8) Uani 1 1 d .
C9 C 0.8590(4) 0.4585(5) 0.2746(4) 0.0240(8) Uani 1 1 d .
C8 C 0.7667(4) 0.4072(5) 0.3192(4) 0.0266(8) Uani 1 1 d .
H8 H 0.744930 0.280876 0.317107 0.032 Uiso 1 1 calc R
loop_
_atom_site_aniso_label
_atom_site_aniso_U_11
_atom_site_aniso_U_22
_atom_site_aniso_U_33
_atom_site_aniso_U_23
_atom_site_aniso_U_13
_atom_site_aniso_U_12
Br1 0.0480(2) 0.0477(3) 0.0309(2) 0.0075(2) 0.02276(17) -0.0024(2)
O4 0.0274(12) 0.0364(16) 0.0250(12) 0.0110(15) 0.0113(10) 0.0035(15)
C10 0.0256(15) 0.0213(17) 0.0307(16) 0.002(2) 0.0103(13) 0.000(2)
C14 0.042(2) 0.036(2) 0.0307(18) 0.014(2) 0.0193(16) 0.003(2)
C15 0.048(2) 0.046(3) 0.0261(17) 0.005(3) 0.0158(17) 0.006(3)
C12 0.030(2) 0.032(3) 0.0242(19) 0.0030(16) 0.0120(17) -0.0013(16)
O1 0.0231(13) 0.0236(14) 0.0369(16) 0.0033(12) 0.0150(12) -0.0030(11)
O2 0.058(2) 0.0230(16) 0.048(2) 0.0004(14) 0.0290(18) -0.0013(15)
C2 0.0313(18) 0.029(3) 0.0272(17) 0.0057(16) 0.0123(15) 0.0055(17)
C7 0.024(2) 0.028(2) 0.0222(18) 0.0038(15) 0.0084(16) -0.0017(15)
O3 0.0393(16) 0.0308(16) 0.0437(18) -0.0005(14) 0.0269(14) -0.0015(13)
C16 0.038(2) 0.028(2) 0.036(2) 0.0006(17) 0.0144(19) -0.0046(17)
C3 0.028(2) 0.032(2) 0.029(2) 0.0026(17) 0.0147(17) 0.0047(17)
C1 0.031(2) 0.0258(19) 0.0235(19) 0.0013(15) 0.0126(16) -0.0022(16)
C6 0.028(2) 0.031(2) 0.035(2) 0.0019(18) 0.0188(17) -0.0012(17)
C11 0.0215(17) 0.029(2) 0.0269(19) 0.0052(15) 0.0066(15) 0.0000(14)
C13 0.056(3) 0.044(3) 0.061(3) -0.002(3) 0.040(2) 0.006(3)
C5 0.024(2) 0.031(2) 0.030(2) 0.0047(17) 0.0085(17) 0.0033(16)
C4 0.0220(18) 0.0244(19) 0.0254(18) 0.0031(15) 0.0094(15) -0.0009(15)
C9 0.0233(18) 0.0215(19) 0.0228(18) 0.0028(15) 0.0055(15) -0.0034(15)
C8 0.030(2) 0.0230(19) 0.0227(18) 0.0019(15) 0.0072(16) -0.0068(16)
loop_
_atom_type_symbol
_atom_type_description
_atom_type_scat_dispersion_real
_atom_type_scat_dispersion_imag
_atom_type_scat_source
C C 0.0033 0.0016 'International Tables Vol C Tables 4.2.6.8 and 6.1.1.4'
H H 0.0000 0.0000 'International Tables Vol C Tables 4.2.6.8 and 6.1.1.4'
Br Br -0.2901 2.4595 'International Tables Vol C Tables 4.2.6.8 and 6.1.1.4'
O O 0.0106 0.0060 'International Tables Vol C Tables 4.2.6.8 and 6.1.1.4'
loop_
_geom_angle_atom_site_label_1
_geom_angle_atom_site_label_2
_geom_angle_atom_site_label_3
_geom_angle
C10 O4 C14 113.2(3)
O4 C10 O1 110.6(3)
O4 C10 C11 107.3(3)
O1 C10 C11 109.7(3)
O4 C14 C15 108.0(3)
O2 C12 O3 123.7(4)
O2 C12 C9 124.4(4)
O3 C12 C9 111.9(3)
C9 O1 C10 113.4(3)
C1 C2 C3 118.3(4)
C4 C7 C11 114.0(3)
C8 C7 C11 108.5(3)
C8 C7 C4 112.4(3)
C12 O3 C13 116.0(4)
C4 C3 C2 121.3(4)
C2 C1 Br1 118.7(3)
C6 C1 Br1 119.4(3)
C6 C1 C2 121.9(4)
C1 C6 C5 119.1(4)
C10 C11 C7 112.5(4)
C16 C11 C10 121.0(4)
C16 C11 C7 126.4(4)
C6 C5 C4 120.6(4)
C3 C4 C7 120.8(3)
C3 C4 C5 118.8(4)
C5 C4 C7 120.4(3)
O1 C9 C12 114.5(3)
C8 C9 C12 121.7(4)
C8 C9 O1 123.8(4)
C9 C8 C7 123.4(4)
loop_
_geom_bond_atom_site_label_1
_geom_bond_atom_site_label_2
_geom_bond_distance
Br1 C1 1.903(4)
O4 C10 1.406(4)
O4 C14 1.432(4)
C10 O1 1.439(5)
C10 C11 1.498(5)
C14 C15 1.499(6)
C12 O2 1.206(5)
C12 O3 1.341(5)
C12 C9 1.477(6)
O1 C9 1.376(5)
C2 C3 1.390(5)
C2 C1 1.384(5)
C7 C11 1.520(5)
C7 C4 1.514(5)
C7 C8 1.511(6)
O3 C13 1.442(6)
C16 C11 1.316(6)
C3 C4 1.387(5)
C1 C6 1.376(6)
C6 C5 1.389(6)
C5 C4 1.396(5)
C9 C8 1.330(5)
loop_
_geom_torsion_atom_site_label_1
_geom_torsion_atom_site_label_2
_geom_torsion_atom_site_label_3
_geom_torsion_atom_site_label_4
_geom_torsion
Br1 C1 C6 C5 -179.4(3)
O4 C10 O1 C9 -66.6(4)
O4 C10 C11 C7 58.4(4)
O4 C10 C11 C16 -124.3(4)
C10 O4 C14 C15 -176.8(4)
C10 O1 C9 C12 158.0(3)
C10 O1 C9 C8 -21.7(5)
C14 O4 C10 O1 -59.8(5)
C14 O4 C10 C11 -179.5(4)
C12 C9 C8 C7 179.5(4)
O1 C10 C11 C7 -61.8(4)
O1 C10 C11 C16 115.5(4)
O1 C9 C8 C7 -0.8(6)
O2 C12 O3 C13 -0.2(7)
O2 C12 C9 O1 178.0(4)
O2 C12 C9 C8 -2.2(7)
C2 C3 C4 C7 179.0(4)
C2 C3 C4 C5 1.4(6)
C2 C1 C6 C5 0.4(6)
O3 C12 C9 O1 -1.1(5)
O3 C12 C9 C8 178.6(3)
C3 C2 C1 Br1 -179.9(3)
C3 C2 C1 C6 0.4(6)
C1 C2 C3 C4 -1.3(6)
C1 C6 C5 C4 -0.2(6)
C6 C5 C4 C7 -178.3(4)
C6 C5 C4 C3 -0.7(6)
C11 C10 O1 C9 51.7(4)
C11 C7 C4 C3 -89.8(5)
C11 C7 C4 C5 87.8(4)
C11 C7 C8 C9 -8.1(5)
C4 C7 C11 C10 164.4(3)
C4 C7 C11 C16 -12.7(6)
C4 C7 C8 C9 -135.1(4)
C9 C12 O3 C13 179.0(3)
C8 C7 C11 C10 38.3(4)
C8 C7 C11 C16 -138.9(4)
C8 C7 C4 C3 34.3(5)
C8 C7 C4 C5 -148.1(4)
