#------------------------------------------------------------------------------
#$Date: 2019-11-24 14:48:24 +0200 (Sun, 24 Nov 2019) $
#$Revision: 238230 $
#$URL: file:///home/coder/svn-repositories/cod/cif/1/55/49/1554945.cif $
#------------------------------------------------------------------------------
#
# This file is available in the Crystallography Open Database (COD),
# http://www.crystallography.net/
#
# All data on this site have been placed in the public domain by the
# contributors.
#
data_1554945
loop_
_publ_author_name
'Wang, Yu-Chao'
'Wang, Rui-Xiang'
'Qiu, Guanyinsheng'
'Zhou, Hongwei'
'Xie, Wenlin'
'Liu, Jin-Biao'
_publ_section_title
;
 ortho-Amide-directed 2,4-dibromohydration of conjugated enynes
;
_journal_issue                   14
_journal_name_full               'Organic Chemistry Frontiers'
_journal_page_first              2471
_journal_paper_doi               10.1039/C9QO00540D
_journal_volume                  6
_journal_year                    2019
_chemical_formula_sum            'C17 H15 Br2 N O2'
_chemical_formula_weight         425.12
_space_group_crystal_system      triclinic
_space_group_IT_number           2
_space_group_name_Hall           '-P 1'
_space_group_name_H-M_alt        'P -1'
_atom_sites_solution_hydrogens   mixed
_audit_creation_method           SHELXL-2014/7
_audit_update_record
;
2019-04-19 deposited with the CCDC.	2019-05-27 downloaded from the CCDC.
;
_cell_angle_alpha                110.338(4)
_cell_angle_beta                 100.049(4)
_cell_angle_gamma                106.048(4)
_cell_formula_units_Z            2
_cell_length_a                   7.5896(8)
_cell_length_b                   10.9767(11)
_cell_length_c                   11.9609(13)
_cell_measurement_reflns_used    5946
_cell_measurement_temperature    296(2)
_cell_measurement_theta_max      56.93
_cell_measurement_theta_min      3.59
_cell_volume                     856.49(16)
_computing_cell_refinement       'Bruker SAINT'
_computing_data_collection       'Bruker APEX2'
_computing_data_reduction        'Bruker SAINT'
_computing_molecular_graphics    'Bruker SHELXTL'
_computing_publication_material  'Bruker SHELXTL'
_computing_structure_refinement  'SHELXL-2014/7 (Sheldrick, 2014)'
_computing_structure_solution    'SHELXS-97 (Sheldrick 2008)'
_diffrn_ambient_temperature      296(2)
_diffrn_measured_fraction_theta_full 0.978
_diffrn_measured_fraction_theta_max 0.980
_diffrn_measurement_device_type  'Bruker APEX-II CCD'
_diffrn_measurement_method       '\f and \w scans'
_diffrn_radiation_type           GaK\a
_diffrn_radiation_wavelength     1.34138
_diffrn_reflns_av_R_equivalents  0.0465
_diffrn_reflns_av_unetI/netI     0.0469
_diffrn_reflns_Laue_measured_fraction_full 0.978
_diffrn_reflns_Laue_measured_fraction_max 0.980
_diffrn_reflns_limit_h_max       9
_diffrn_reflns_limit_h_min       -9
_diffrn_reflns_limit_k_max       13
_diffrn_reflns_limit_k_min       -13
_diffrn_reflns_limit_l_max       14
_diffrn_reflns_limit_l_min       -13
_diffrn_reflns_number            9260
_diffrn_reflns_point_group_measured_fraction_full 0.978
_diffrn_reflns_point_group_measured_fraction_max 0.980
_diffrn_reflns_theta_full        53.594
_diffrn_reflns_theta_max         55.490
_diffrn_reflns_theta_min         5.524
_exptl_absorpt_coefficient_mu    4.006
_exptl_absorpt_correction_T_max  0.751
_exptl_absorpt_correction_T_min  0.496
_exptl_absorpt_correction_type   multi-scan
_exptl_absorpt_process_details   sadabs
_exptl_crystal_colour            colorless
_exptl_crystal_density_diffrn    1.648
_exptl_crystal_description       block
_exptl_crystal_F_000             420
_exptl_crystal_size_max          0.250
_exptl_crystal_size_mid          0.220
_exptl_crystal_size_min          0.180
_refine_diff_density_max         0.576
_refine_diff_density_min         -0.578
_refine_diff_density_rms         0.059
_refine_ls_extinction_method     none
_refine_ls_goodness_of_fit_ref   1.050
_refine_ls_hydrogen_treatment    mixed
_refine_ls_matrix_type           full
_refine_ls_number_parameters     207
_refine_ls_number_reflns         3263
_refine_ls_number_restraints     2
_refine_ls_restrained_S_all      1.050
_refine_ls_R_factor_all          0.0566
_refine_ls_R_factor_gt           0.0484
_refine_ls_shift/su_max          0.000
_refine_ls_shift/su_mean         0.000
_refine_ls_structure_factor_coef Fsqd
_refine_ls_weighting_details
'w=1/[\s^2^(Fo^2^)+(0.0603P)^2^+0.6277P] where P=(Fo^2^+2Fc^2^)/3'
_refine_ls_weighting_scheme      calc
_refine_ls_wR_factor_gt          0.1295
_refine_ls_wR_factor_ref         0.1367
_reflns_Friedel_coverage         0.000
_reflns_number_gt                2762
_reflns_number_total             3263
_reflns_threshold_expression     'I > 2\s(I)'
_cod_data_source_file            c9qo00540d2.cif
_cod_data_source_block           ga_81211a_a
_cod_original_cell_volume        856.48(16)
_cod_database_code               1554945
_shelx_shelxl_version_number     2014/7
_shelx_space_group_comment
; 
The symmetry employed for this shelxl refinement is uniquely defined 
by the following loop, which should always be used as a source of 
symmetry information in preference to the above space-group names. 
They are only intended as comments. 
;
_shelx_estimated_absorpt_t_min   0.434
_shelx_estimated_absorpt_t_max   0.532
_shelx_res_file
; 
  
    ga_81211a_a.res created by SHELXL-2014/7 
  
TITL ga_81211a_a.res in P-1 
CELL  1.34138   7.5896  10.9767  11.9609  110.338  100.049  106.048 
ZERR    2.000   0.0008   0.0011   0.0013    0.004    0.004    0.004 
LATT 1 
SFAC C  H  Br N  O 
UNIT 34 30 4 2 4 
OMIT  -2.00 111.00 
L.S. 5 
ACTA 
BOND $H 
FMAP 2 
PLAN 1 
LIST 6 
HTAB O1 O2_$1 
EQIV $1 x+1, y, z 
HTAB N1 O1 
DFIX 0.86 0.02 N1 H1' 
DFIX 0.82 0.02 O1 H1 
CONF 
SIZE 0.18 0.22 0.25 
TEMP 23 
WGHT    0.060300    0.627700 
FVAR       1.34140 
BR1   3    0.734256    0.498860    0.432285    11.00000    0.07096    0.06101 = 
         0.12280    0.05345    0.02817    0.01838 
BR2   3    1.031970    0.667390    0.854428    11.00000    0.08374    0.12066 = 
         0.08140   -0.00861    0.01207    0.00800 
N1    4    0.342843    0.146019    0.500725    11.00000    0.03345    0.05252 = 
         0.06843    0.03036    0.01706    0.01560 
H1'   2    0.448428    0.158941    0.544098    11.00000    0.03762 
O1    5    0.710399    0.163757    0.516520    11.00000    0.04275    0.06663 = 
         0.08617    0.04370    0.02322    0.02792 
H1    2    0.816840    0.160145    0.528403    11.00000    0.09258 
O2    5    0.055910    0.162259    0.507836    11.00000    0.04704    0.10099 = 
         0.11789    0.06182    0.03771    0.03964 
C1    1    0.494646    0.161122    0.342849    11.00000    0.04688    0.04069 = 
         0.05932    0.02235    0.01690    0.01485 
C2    1    0.327274    0.117543    0.373688    11.00000    0.04294    0.04052 = 
         0.06220    0.02353    0.01173    0.01050 
C3    1    0.150693    0.044008    0.279088    11.00000    0.04502    0.06179 = 
         0.08632    0.03190    0.00537    0.00251 
AFIX  43 
H3    2    0.038200    0.013598    0.298930    11.00000   -1.20000 
AFIX   0 
C4    1    0.144167    0.017008    0.157240    11.00000    0.07967    0.07560 = 
         0.06851    0.02460   -0.00980    0.00466 
AFIX  43 
H4    2    0.026464   -0.030858    0.094990    11.00000   -1.20000 
AFIX   0 
C5    1    0.305695    0.058785    0.126390    11.00000    0.09742    0.07847 = 
         0.05935    0.02309    0.01099    0.01705 
AFIX  43 
H5    2    0.299409    0.038930    0.043288    11.00000   -1.20000 
AFIX   0 
C6    1    0.480490    0.131119    0.218454    11.00000    0.07643    0.06349 = 
         0.06405    0.02607    0.02815    0.01918 
AFIX  43 
H6    2    0.591236    0.160372    0.196504    11.00000   -1.20000 
AFIX   0 
C7    1    0.690931    0.237163    0.441084    11.00000    0.03740    0.05015 = 
         0.06546    0.02907    0.02273    0.01777 
AFIX  13 
H7    2    0.789446    0.236835    0.397927    11.00000   -1.20000 
AFIX   0 
C8    1    0.724482    0.387328    0.522132    11.00000    0.03202    0.04690 = 
         0.07288    0.02377    0.01440    0.01171 
C9    1    0.751797    0.440546    0.643541    11.00000    0.05055    0.06542 = 
         0.07523    0.01515    0.01206    0.01690 
AFIX  43 
H9    2    0.748067    0.380390    0.682666    11.00000   -1.20000 
AFIX   0 
C10   1    0.788312    0.589360    0.724040    11.00000    0.07994    0.08824 = 
         0.09142   -0.00992    0.00474    0.02882 
AFIX  23 
H10A  2    0.685378    0.594593    0.761311    11.00000   -1.20000 
H10B  2    0.792204    0.642355    0.673755    11.00000   -1.20000 
AFIX   0 
C11   1    0.215032    0.170233    0.560999    11.00000    0.04563    0.04637 = 
         0.08717    0.03931    0.03221    0.01766 
C12   1    0.282552    0.212977    0.698142    11.00000    0.06055    0.04735 = 
         0.08781    0.03493    0.04202    0.01927 
C13   1    0.419967    0.173689    0.754018    11.00000    0.10022    0.07221 = 
         0.07840    0.03831    0.03836    0.04493 
AFIX  43 
H13   2    0.473956    0.117439    0.705007    11.00000   -1.20000 
AFIX   0 
C14   1    0.476503    0.217605    0.881468    11.00000    0.14542    0.10527 = 
         0.08178    0.04519    0.03400    0.05537 
AFIX  43 
H14   2    0.568439    0.191395    0.919224    11.00000   -1.20000 
AFIX   0 
C15   1    0.394913    0.301226    0.952763    11.00000    0.18652    0.09379 = 
         0.08256    0.03536    0.06611    0.04517 
AFIX  43 
H15   2    0.433027    0.331679    1.039135    11.00000   -1.20000 
AFIX   0 
C16   1    0.258803    0.339963    0.898231    11.00000    0.15986    0.09438 = 
         0.11851    0.04409    0.09001    0.05925 
AFIX  43 
H16   2    0.205648    0.396652    0.947576    11.00000   -1.20000 
AFIX   0 
C17   1    0.201609    0.295944    0.772829    11.00000    0.09182    0.07760 = 
         0.10972    0.04236    0.06428    0.04031 
AFIX  43 
H17   2    0.107503    0.321216    0.736093    11.00000   -1.20000 
AFIX   0 
HKLF 4 
  
REM  ga_81211a_a.res in P-1 
REM R1 =  0.0484 for    2762 Fo > 4sig(Fo)  and  0.0566 for all    3263 data 
REM    207 parameters refined using      2 restraints 
  
END 
  
WGHT      0.0603      0.6277 
  
REM Highest difference peak  0.576,  deepest hole -0.578,  1-sigma level  0.059 
Q1    1   0.7848  0.4422  0.3906  11.00000  0.05    0.58 
;
_shelx_res_checksum              46914
_shelx_hkl_file
; 
  -1   0   0  185.18   11.90 
  -1   0   0  195.48   11.90 
   1   0   0  174.58   11.90 
   1   0   0  188.68   12.00 
  -3   0   0 4572.14  271.87 
   3   0   0 4394.76  271.57 
   4   0   0 7469.65  433.86 
   4   0   0 6871.01  435.96 
  -5   0   0  325.57   23.20 
  -5   0   0  274.47   20.10 
   5   0   0  319.67   19.40 
   5   0   0  316.17   24.50 
   5   0   0  321.17   21.40 
  -6   0   0   24.00    6.50 
  -6   0   0   19.40    3.20 
   6   0   0   22.10    6.50 
   6   0   0   24.20    2.40 
  -7   0   0   75.99   10.70 
  -7   0   0   61.99    9.60 
   7   0   0   63.09    5.00 
   7   0   0   69.39   13.40 
  -8   0   0    5.90    3.50 
  -8   0   0    8.90    5.70 
  -8   1   0  426.96   32.50 
  -8   1   0  350.26   29.80 
   7  -1   0  135.89    9.60 
  -7   1   0  149.69   15.40 
  -7   1   0  150.48   15.90 
   6  -1   0  564.04   34.50 
   6  -1   0  556.44   40.20 
  -6   1   0  600.94   40.80 
  -6   1   0  465.65   35.80 
  -6   1   0  628.54   40.50 
   5  -1   0  359.76   28.40 
   5  -1   0  399.86   23.90 
   5  -1   0  386.76   26.40 
  -5   1   0  332.77   24.10 
  -5   1   0  393.66   27.40 
  -5   1   0  452.35   28.40 
   4  -1   0 8329.97  555.24 
  -4   1   0 9999.00  554.94 
   3  -1   0 1094.59   65.99 
   3  -1   0  987.80   65.69 
  -3   1   0 1099.79   66.49 
   2  -1   0 2104.29  128.19 
   1  -1   0   36.60    3.30 
  -1   1   0   42.10    2.40 
  -1   1   0   32.30    3.30 
  -3  -1   0  893.11   52.19 
   3   1   0  820.02   51.19 
   3   1   0  739.83   54.09 
  -4  -1   0  701.63   44.00 
   4   1   0  663.83   42.60 
   4   1   0  649.14   45.50 
   4   1   0  662.53   40.90 
  -5  -1   0  138.39   12.40 
   5   1   0  127.39   13.40 
   5   1   0  113.89   11.30 
   5   1   0  119.39    8.30 
  -6  -1   0  658.73   43.00 
  -6  -1   0  520.65   37.50 
   6   1   0  602.04   43.00 
   6   1   0  578.74   36.20 
  -7  -1   0    3.60    2.80 
  -7  -1   0   12.10    5.40 
   7   1   0    8.10    1.70 
  -8  -1   0    9.70    5.60 
  -9   2   0    9.20    5.80 
  -9   2   0    5.00    2.70 
  -8   2   0  145.99   15.50 
   7  -2   0  425.66   27.90 
  -7   2   0  465.35   34.60 
  -7   2   0  454.05   34.40 
   6  -2   0   38.10    7.80 
   6  -2   0   44.20    3.60 
  -6   2   0   47.40    7.70 
  -6   2   0   46.10    7.50 
   5  -2   0   64.49    8.60 
   5  -2   0   47.70    6.10 
   5  -2   0   60.29    4.30 
  -5   2   0   54.49    7.20 
  -5   2   0   61.39    4.10 
   4  -2   0 2153.68  142.39 
   4  -2   0 2353.76  141.39 
   4  -2   0 2395.96  138.69 
  -4   2   0 2256.87  138.49 
  -4   2   0 2549.94  142.79 
  -4   2   0 2077.99  140.89 
   3  -2   0  665.03   44.40 
   3  -2   0  694.13   45.60 
  -3   2   0  769.92   46.40 
  -3   2   0  736.33   43.20 
   0  -2   0  212.28   13.80 
   0   2   0  198.98   13.90 
  -1  -2   0 2043.20  115.89 
   1   2   0 1739.03  115.99 
  -3  -2   0 1706.73  106.29 
   3   2   0 1705.33  104.99 
   3   2   0 1716.83  107.79 
  -4  -2   0  277.47   20.00 
   4   2   0  243.78   17.70 
   4   2   0  265.47   21.60 
   4   2   0  263.47   16.50 
  -5  -2   0  716.53   46.90 
   5   2   0  687.33   49.00 
   5   2   0  653.83   42.10 
  -6  -2   0  475.95   35.10 
  -6  -2   0  574.64   38.90 
   6   2   0  490.95   32.40 
   6   2   0  562.24   41.10 
  -7  -2   0    2.00    2.30 
  -7  -2   0    5.20    4.20 
   7   2   0    0.50    1.60 
  -8  -2   0   35.80    8.10 
  -9   3   0    2.40    2.20 
  -9   3   0    1.00    4.60 
  -8   3   0   44.30    7.80 
  -8   3   0   43.00    9.50 
   7  -3   0  118.69   13.20 
   7  -3   0   93.29    7.10 
  -7   3   0   97.79   12.10 
   6  -3   0  374.76   30.70 
   6  -3   0  432.66   26.20 
  -6   3   0  432.96   31.60 
  -6   3   0  430.76   31.00 
   5  -3   0  584.44   34.20 
   5  -3   0  498.05   38.30 
  -5   3   0  577.24   38.60 
   4  -3   0  701.53   44.50 
   4  -3   0  645.34   45.10 
   4  -3   0  743.23   41.40 
   4  -3   0  606.84   42.30 
  -4   3   0  697.43   45.60 
  -4   3   0  635.44   43.70 
  -4   3   0  707.03   44.50 
   3  -3   0  129.99   10.70 
   3  -3   0  138.69    8.90 
  -3   3   0  125.59   11.20 
  -3   3   0  125.19   10.30 
   0   3   0 3206.28  195.28 
  -2  -3   0 6173.48  376.16 
   2   3   0 5942.61  376.26 
   2   3   0 6435.26  374.86 
  -3  -3   0   14.90    4.00 
  -3  -3   0   16.50    4.30 
   3   3   0   14.50    4.70 
  -4  -3   0  536.55   36.60 
   4   3   0  484.15   33.20 
   4   3   0  561.74   39.20 
   4   3   0  522.95   32.40 
  -5  -3   0 1131.59   73.19 
   5   3   0 1090.19   75.59 
  -6  -3   0  111.49   10.60 
  -6  -3   0  157.78   15.20 
   6   3   0  142.89   15.60 
   6   3   0  126.09    9.00 
  -7  -3   0   10.50    5.50 
   7   3   0   14.80    2.00 
  -9   4   0   21.40    6.90 
  -9   4   0   14.50    4.70 
  -8   4   0   84.49   12.10 
  -8   4   0   66.39    9.70 
   7  -4   0   27.20    7.10 
   7  -4   0   20.20    2.50 
  -7   4   0   36.20    8.50 
  -7   4   0   20.50    5.40 
   6  -4   0 1706.33  103.99 
   6  -4   0 1574.64  108.69 
  -6   4   0 1759.92  109.29 
  -6   4   0 1803.72  109.79 
   5  -4   0  904.51   64.29 
   5  -4   0 1012.20   60.09 
  -5   4   0  942.01   63.69 
  -5   4   0 1072.09   64.99 
   4  -4   0   12.60    4.20 
   4  -4   0    7.20    1.60 
  -4   4   0    7.40    2.80 
  -4   4   0    8.00    2.20 
   3  -4   0 2322.87  151.28 
  -3   4   0 2271.17  152.58 
  -3   4   0 2687.33  152.78 
  -3   4   0 2701.33  154.78 
   1  -4   0  209.68   14.10 
  -1   4   0  200.28   13.60 
  -1   4   0  169.38   14.10 
  -1   4   0  214.58   15.00 
   0   4   0   13.10    3.00 
  -1  -4   0  599.44   41.70 
  -1  -4   0  611.54   39.90 
   1   4   0  601.04   40.60 
  -2  -4   0 1911.91  117.19 
  -2  -4   0 1765.12  116.79 
   2   4   0 1886.11  116.49 
   2   4   0 1928.51  118.39 
  -3  -4   0  261.47   20.10 
  -3  -4   0  269.97   20.30 
   3   4   0  221.08   17.70 
  -4  -4   0  390.36   26.90 
  -4  -4   0  313.47   25.40 
   4   4   0  333.97   27.90 
   4   4   0  304.67   20.90 
  -5  -4   0   28.90    7.00 
   5   4   0   32.50    9.10 
   5   4   0   29.40    3.00 
  -6  -4   0    0.30    3.90 
   6   4   0    1.30    0.90 
   6   4   0   -6.00    7.40 
  -7  -4   0  151.68   15.70 
  -9   5   0   -1.90    1.70 
  -9   5   0    2.60    4.20 
  -8   5   0   22.70    7.30 
  -8   5   0   19.10    5.10 
   7  -5   0    7.00    1.70 
   7  -5   0   12.30    6.40 
  -7   5   0   11.10    5.20 
  -7   5   0    8.20    3.40 
   6  -5   0   12.20    2.00 
   6  -5   0   23.00    5.90 
  -6   5   0   19.50    4.40 
  -6   5   0   12.10    4.70 
   5  -5   0   35.20    3.40 
   5  -5   0   46.60    7.50 
  -5   5   0   41.90    6.20 
  -5   5   0   41.70    6.50 
   4  -5   0  298.47   22.20 
   4  -5   0  260.37   18.10 
   4  -5   0  302.37   18.10 
   4  -5   0  254.37   18.20 
  -4   5   0  305.27   21.40 
  -4   5   0  313.87   21.20 
   3  -5   0  472.85   31.40 
  -3   5   0  542.85   33.00 
  -3   5   0  475.55   33.20 
   2  -5   0 1531.15  104.59 
   2  -5   0 1617.74  102.89 
  -2   5   0 1801.82  105.79 
  -2   5   0 1724.63  105.29 
  -2   5   0 1710.83  103.19 
   1  -5   0  170.08   14.10 
   1  -5   0  174.48   13.30 
  -1   5   0  182.38   14.30 
   0  -5   0 1293.97   85.09 
   0  -5   0 1408.86   84.69 
   0   5   0 1326.77   84.89 
   0   5   0 1359.16   85.49 
  -1  -5   0   27.30    5.20 
  -1  -5   0   14.30    4.20 
   1   5   0   25.80    5.80 
   1   5   0   18.60    4.30 
  -2  -5   0   29.90    5.80 
  -2  -5   0   30.30    6.30 
   2   5   0   24.50    4.70 
   2   5   0   36.50    8.30 
  -3  -5   0  714.13   49.70 
  -3  -5   0  747.73   49.99 
   3   5   0  720.53   51.99 
  -4  -5   0  550.64   39.70 
   4   5   0  528.45   34.00 
   4   5   0  564.14   42.30 
  -5  -5   0    5.20    4.10 
  -5  -5   0    8.40    3.30 
   5   5   0   19.40    7.20 
   5   5   0   11.70    1.90 
  -6  -5   0    4.10    4.00 
   6   5   0    6.60    1.40 
  -9   6   0   12.00    3.50 
  -9   6   0   25.60    6.80 
   8  -6   0   69.59    8.60 
  -8   6   0   76.99   10.30 
  -8   6   0   86.39   11.90 
   7  -6   0    1.00    1.20 
  -7   6   0    1.90    3.70 
  -7   6   0   -1.00    1.70 
   6  -6   0  187.48   17.70 
  -6   6   0  209.18   18.00 
  -6   6   0  214.98   18.50 
   5  -6   0    3.50    4.20 
   5  -6   0    3.20    1.30 
  -5   6   0   12.10    4.10 
  -5   6   0    3.90    2.20 
   4  -6   0  947.31   64.59 
   4  -6   0 1081.09   69.79 
  -4   6   0 1104.19   69.09 
  -4   6   0 1155.08   68.49 
   3  -6   0  311.97   23.80 
   3  -6   0  304.57   20.70 
  -3   6   0  307.97   22.80 
  -3   6   0  327.37   22.00 
   2  -6   0   35.00    4.60 
   2  -6   0   42.20    6.40 
  -2   6   0   34.90    5.50 
  -2   6   0   39.70    4.70 
   1  -6   0  267.97   21.60 
   1  -6   0  289.27   20.60 
  -1   6   0  298.67   21.80 
   0  -6   0 6349.96  395.86 
   0  -6   0 6669.53  395.16 
   0   6   0 6473.35  396.16 
  -1  -6   0  165.58   15.20 
  -1  -6   0  162.78   14.60 
   1   6   0  173.98   15.80 
  -2  -6   0  139.79   14.00 
  -2  -6   0  146.99   14.10 
   2   6   0  144.09   15.20 
   2   6   0  130.69   13.30 
  -3  -6   0  278.37   23.20 
  -3  -6   0  290.57   23.60 
   3   6   0  253.47   24.70 
  -4  -6   0  582.94   39.60 
   4   6   0  524.55   33.60 
   4   6   0  505.05   41.50 
  -5  -6   0    8.30    4.20 
   5   6   0    3.30    1.40 
   5   6   0    0.50    7.70 
  -6  -6   0    6.80    4.50 
   6   6   0    3.40    1.10 
  -9   7   0   13.10    5.20 
   8  -7   0   34.80    7.10 
  -8   7   0   31.20    7.80 
  -8   7   0   18.40    4.50 
  -7   7   0  271.17   24.00 
  -7   7   0  323.47   25.90 
   6  -7   0  146.79   15.50 
  -6   7   0  170.68   15.30 
  -6   7   0  170.28   16.30 
   5  -7   0   72.79    9.80 
  -5   7   0   81.29   10.10 
  -5   7   0   80.09    9.10 
   4  -7   0 1175.78   77.59 
  -4   7   0 1199.48   77.09 
  -4   7   0 1187.88   75.89 
   3  -7   0  328.07   22.40 
   3  -7   0  322.07   25.50 
  -3   7   0  335.37   25.30 
  -3   7   0  354.56   23.80 
   2  -7   0  650.43   43.20 
   2  -7   0  657.33   45.40 
  -2   7   0  671.63   45.20 
   1  -7   0    7.00    2.70 
   1  -7   0   -1.00    2.00 
   1  -7   0    1.00    4.30 
  -1   7   0    2.30    2.90 
   0  -7   0  484.45   34.50 
   0  -7   0  481.25   33.10 
   0  -7   0  504.45   35.70 
   0   7   0  496.35   35.90 
  -1  -7   0  117.89   13.50 
  -1  -7   0  123.19   12.80 
   1   7   0  137.09   14.20 
  -2  -7   0  353.96   27.60 
  -2  -7   0  331.57   27.60 
   2   7   0  361.76   29.90 
  -3  -7   0   56.99    9.40 
   3   7   0   52.69   11.40 
  -4  -7   0   13.60    4.10 
  -4  -7   0   23.60    6.50 
   4   7   0   20.60    7.40 
   4   7   0   24.00    2.70 
  -5  -7   0   46.90    8.00 
   5   7   0   36.30    3.40 
   8  -8   0    2.60    3.20 
  -8   8   0    0.90    2.10 
  -8   8   0    4.70    4.30 
  -7   8   0  152.48   16.30 
  -7   8   0  143.09   14.60 
   6  -8   0   49.10    9.50 
  -6   8   0   73.19   10.20 
  -6   8   0   57.29    8.10 
   5  -8   0  251.57   21.70 
  -5   8   0  258.17   20.70 
  -5   8   0  278.57   22.60 
   4  -8   0   78.19   10.90 
  -4   8   0   99.89    9.50 
  -4   8   0   84.99   10.80 
   3  -8   0  427.46   33.60 
  -3   8   0  480.45   31.60 
  -3   8   0  464.95   34.00 
   2  -8   0  326.77   24.10 
   2  -8   0  338.17   26.90 
  -2   8   0  358.96   27.00 
   1  -8   0    5.00    3.70 
   1  -8   0    8.80    3.80 
   1  -8   0   11.40    3.70 
  -1   8   0    7.20    4.60 
   0  -8   0  208.88   16.70 
   0  -8   0  215.28   18.20 
   0  -8   0  224.58   19.90 
   0   8   0  205.08   19.40 
  -1  -8   0  276.77   24.50 
  -1  -8   0  273.57   22.60 
   1   8   0  258.27   23.90 
  -2  -8   0  609.44   44.30 
   2   8   0  615.44   46.50 
  -3  -8   0    3.60    4.10 
   3   8   0    3.60    5.50 
   3   8   0    5.00    1.40 
  -4  -8   0   18.20    5.50 
   4   8   0   21.00    2.50 
   4   8   0   21.10    7.40 
   8  -9   0   14.90    4.90 
  -8   9   0    9.10    3.20 
  -8   9   0   24.70    6.40 
   7  -9   0    5.30    3.40 
  -7   9   0    6.20    2.90 
  -7   9   0    6.90    4.50 
   6  -9   0  116.69   13.80 
  -6   9   0  117.89   14.20 
  -6   9   0  118.99   12.30 
  -5   9   0    4.60    2.40 
  -5   9   0    8.80    4.80 
   4  -9   0  110.69   13.00 
  -4   9   0  125.39   11.50 
  -4   9   0  117.49   13.80 
   3  -9   0   23.60    6.40 
   3  -9   0   44.50    8.30 
  -3   9   0   42.90    7.90 
   2  -9   0  572.84   42.50 
   2  -9   0  581.74   41.00 
  -2   9   0  597.54   42.80 
   1  -9   0   27.90    7.60 
   1  -9   0   23.20    5.50 
   1  -9   0   27.90    6.50 
   0  -9   0  338.97   26.90 
   0  -9   0  270.57   24.50 
   0   9   0  277.97   25.50 
  -1  -9   0   78.69   11.50 
   1   9   0   89.99   12.70 
  -2  -9   0  232.38   20.20 
   2   9   0  197.58   21.40 
  -3  -9   0    0.00    3.50 
   3   9   0   -1.90    5.30 
   3   9   0    3.40    1.20 
   8 -10   0   13.10    4.00 
  -8  10   0   15.70    3.60 
  -8  10   0   16.20    6.10 
   7 -10   0   13.80    5.60 
  -7  10   0   40.70    9.10 
  -7  10   0   20.00    4.60 
   6 -10   0  245.78   21.40 
  -6  10   0  218.98   19.30 
  -6  10   0  254.17   22.40 
   5 -10   0   20.30    6.40 
   5 -10   0   14.70    6.20 
  -5  10   0   22.40    7.20 
   4 -10   0  152.18   15.40 
   4 -10   0  132.09   15.20 
  -4  10   0  162.78   16.80 
   3 -10   0    4.30    4.90 
   3 -10   0    9.80    4.30 
  -3  10   0   10.00    5.40 
   2 -10   0  366.46   29.40 
   2 -10   0  346.57   27.50 
  -2  10   0  375.06   30.10 
   1 -10   0   -1.20    3.30 
   1 -10   0    0.90    4.40 
  -1  10   0    2.30    4.40 
   0 -10   0   66.99   10.10 
   0  10   0   44.30   10.10 
  -1 -10   0   17.00    6.20 
   1  10   0   21.30    7.40 
  -2 -10   0   58.59    9.20 
   2  10   0   60.39   11.10 
   7 -11   0   -0.60    2.20 
  -7  11   0   10.20    5.00 
   6 -11   0    2.90    3.40 
  -6  11   0    3.40    4.60 
   5 -11   0   31.90    7.60 
  -5  11   0   32.70    8.20 
   4 -11   0   31.60    7.30 
   4 -11   0   49.10    8.20 
  -4  11   0   34.80    8.60 
   3 -11   0   40.50    8.10 
   3 -11   0   30.10    7.30 
   2 -11   0  109.09   12.90 
   2 -11   0  110.09   11.50 
  -2  11   0  111.59   13.90 
   1 -11   0   15.70    5.90 
  -1  11   0   10.70    5.90 
   0 -11   0  177.68   17.50 
   0  11   0  187.38   19.30 
  -1 -11   0   -1.90    3.50 
   1  11   0   11.20    5.60 
   6 -12   0   47.20    7.40 
  -6  12   0   53.79    9.40 
   5 -12   0    1.50    3.60 
  -5  12   0    8.40    4.90 
   4 -12   0   81.09   10.00 
  -4  12   0   82.19   11.60 
   3 -12   0   -7.40    4.80 
   3 -12   0    1.30    3.60 
  -3  12   0    0.00    4.50 
   2 -12   0   34.50    7.10 
   2 -12   0   36.40    6.90 
  -2  12   0   29.70    7.90 
   1 -12   0   -7.30    3.70 
  -1  12   0    0.20    4.00 
  -2  13  -1   41.20    8.50 
  -3  13  -1    3.60    4.30 
   3 -13   1    5.00    7.30 
  -4  13  -1   34.90    7.80 
   4 -13   1   35.60    6.10 
   0  12  -1   96.29   12.70 
  -1  12  -1   29.30    7.60 
   1 -12   1   11.90    5.20 
  -2  12  -1   43.80    9.30 
   2 -12   1   39.70    7.50 
   2 -12   1   53.69    7.60 
  -3  12  -1    6.10    4.60 
   3 -12   1    1.90    2.90 
  -4  12  -1   80.49   11.80 
   4 -12   1   68.49    9.80 
  -5  12  -1   29.00    7.60 
   5 -12   1   26.50    6.20 
  -6  12  -1   23.90    6.90 
   6 -12   1   20.80    5.50 
   2  11  -1  113.79    8.10 
   2  11  -1  127.29   17.20 
  -2 -11   1  114.19   14.60 
   1  11  -1   -7.00    4.00 
  -1 -11   1    2.90    4.00 
   0  11  -1   77.49   11.90 
  -1  11  -1   45.60   10.00 
   1 -11   1   48.10    7.90 
   1 -11   1   45.30    8.40 
  -2  11  -1  127.69   15.50 
   2 -11   1  145.09   14.40 
   2 -11   1  133.89   13.70 
  -3  11  -1  272.07   23.70 
   3 -11   1  254.47   21.80 
   3 -11   1  231.78   20.60 
  -4  11  -1   12.30    5.90 
   4 -11   1   16.80    6.10 
  -5  11  -1   53.29    9.60 
   5 -11   1   39.10    8.30 
  -6  11  -1    7.40    5.00 
   6 -11   1    7.10    4.30 
  -7  11  -1   38.10    8.40 
   7 -11   1   20.80    5.50 
   3  10  -1    5.30    1.40 
   3  10  -1   -8.90    4.50 
  -3 -10   1    2.20    3.50 
   2  10  -1   84.69   13.00 
  -2 -10   1   82.29   10.50 
   1  10  -1    5.80    5.10 
  -1 -10   1    9.40    4.90 
  -1 -10   1    3.10    2.70 
   0  10  -1   20.80    7.10 
   0 -10   1   18.90    6.30 
   0 -10   1   18.10    3.50 
  -1  10  -1   64.59   10.20 
   1 -10   1   38.60    5.50 
   1 -10   1   63.49    9.60 
   1 -10   1   56.59    7.90 
  -2  10  -1  373.46   30.20 
   2 -10   1  382.76   28.40 
   2 -10   1  357.26   28.70 
  -3  10  -1   96.69   12.40 
   3 -10   1   85.79   10.80 
  -4  10  -1  369.46   30.60 
   4 -10   1  389.66   29.90 
  -5  10  -1  176.68   15.60 
  -5  10  -1  190.78   19.00 
   5 -10   1  192.08   17.90 
  -6  10  -1  111.39   13.30 
  -6  10  -1   91.69   10.50 
   6 -10   1  113.09   12.40 
  -7  10  -1   43.70    7.30 
  -7  10  -1   79.79   11.70 
   7 -10   1   68.69    8.90 
  -8  10  -1   46.10    9.00 
   8 -10   1   39.40    6.50 
   4   9  -1   57.29   13.60 
   4   9  -1   49.99    4.10 
  -4  -9   1   60.99    8.20 
   3   9  -1    3.70    6.00 
   3   9  -1    7.80    1.70 
  -3  -9   1    4.90    4.10 
   2   9  -1  260.27   24.80 
  -2  -9   1  247.28   21.60 
   1   9  -1   20.60    7.40 
  -1  -9   1   17.80    5.80 
  -1  -9   1   26.00    8.90 
   0  -9   1 1451.05   94.59 
   0  -9   1 1463.65   93.49 
  -1   9  -1   40.80    9.30 
   1  -9   1   58.79    7.60 
   1  -9   1   47.80    7.20 
   1  -9   1   46.40    8.50 
  -2   9  -1  105.19   12.60 
   2  -9   1   97.79    9.30 
   2  -9   1   95.49   11.80 
   2  -9   1  108.89   11.30 
  -3   9  -1   29.50    7.40 
   3  -9   1   35.40    6.80 
   3  -9   1   19.80    5.60 
  -4   9  -1  738.93   50.19 
  -4   9  -1  715.63   47.10 
   4  -9   1  720.13   49.60 
   4  -9   1  667.13   48.20 
  -5   9  -1  116.89   13.60 
  -5   9  -1  126.99   11.80 
   5  -9   1   97.69   12.50 
   5  -9   1  118.69   12.90 
  -6   9  -1  105.19   13.10 
  -6   9  -1  104.09   11.20 
   6  -9   1   98.49   11.90 
  -7   9  -1   61.49    8.50 
  -7   9  -1   71.69   10.80 
   7  -9   1   61.99    9.00 
  -8   9  -1   43.00    8.30 
  -8   9  -1   33.60    6.30 
   8  -9   1   25.60    5.50 
  -5  -8   1    6.90    4.00 
   4   8  -1  138.09   16.90 
   4   8  -1  119.69    8.90 
  -4  -8   1  137.69   13.70 
   3   8  -1  122.99   16.60 
  -3  -8   1  136.29   14.10 
   2   8  -1  200.68   22.10 
  -2  -8   1  219.18   19.50 
  -2  -8   1  250.57   20.80 
   1   8  -1  108.49   13.50 
  -1  -8   1  114.49   11.70 
  -1  -8   1   90.39   11.80 
   0   8  -1 1041.20   69.19 
   0  -8   1  966.00   65.79 
   0  -8   1 1081.79   66.99 
   0  -8   1 1019.50   67.89 
  -1   8  -1   16.10    5.00 
   1  -8   1   16.70    4.90 
   1  -8   1   14.40    3.60 
   1  -8   1   11.50    3.60 
  -2   8  -1  410.36   31.70 
   2  -8   1  430.56   31.40 
   2  -8   1  448.96   28.90 
   2  -8   1  427.06   30.90 
  -3   8  -1 2045.40  130.09 
  -3   8  -1 2136.99  127.79 
   3  -8   1 2002.60  129.59 
  -4   8  -1   61.79    8.80 
  -4   8  -1   63.19    7.40 
   4  -8   1   70.99    9.40 
  -5   8  -1   86.59   10.50 
  -5   8  -1   85.99    9.20 
   5  -8   1   56.89    9.60 
  -6   8  -1   17.10    6.10 
  -7   8  -1  246.28   22.00 
  -7   8  -1  226.98   20.10 
   7  -8   1  231.68   20.00 
  -8   8  -1   57.99    9.80 
  -8   8  -1   42.80    7.20 
   8  -8   1   48.90    7.00 
   5   7  -1   40.30   10.20 
   5   7  -1   41.60    3.50 
  -5  -7   1   37.40    7.60 
   4   7  -1  301.77   21.20 
   4   7  -1  340.27   30.70 
  -4  -7   1  371.86   26.70 
   3   7  -1    8.90    6.80 
  -3  -7   1    7.30    4.80 
  -3  -7   1   19.50    6.10 
   2   7  -1   90.99   13.10 
  -2  -7   1  105.79   11.40 
  -2  -7   1   97.99   11.50 
   1   7  -1  908.61   60.29 
  -1  -7   1  911.51   58.09 
  -1  -7   1  849.52   56.19 
  -1  -7   1  840.42   58.19 
   0   7  -1  343.17   27.00 
   0  -7   1  349.87   24.70 
   0  -7   1  366.86   25.50 
   1  -7   1  129.49   11.10 
   1  -7   1  128.09   10.60 
   1  -7   1  113.39   11.80 
  -2   7  -1  493.55   35.50 
  -2   7  -1  538.55   33.70 
   2  -7   1  520.75   33.20 
   2  -7   1  491.35   35.30 
  -3   7  -1   82.59    9.50 
  -3   7  -1   88.69    8.30 
   3  -7   1   96.19    9.70 
   3  -7   1   93.09    6.30 
  -4   7  -1   31.60    4.90 
  -4   7  -1   25.30    5.60 
   4  -7   1   35.20    6.10 
  -5   7  -1  773.92   51.99 
  -5   7  -1  794.12   51.29 
   5  -7   1  726.83   51.89 
  -6   7  -1  115.09   17.60 
   6  -7   1   74.59    6.40 
  -7   7  -1  128.89   14.60 
  -7   7  -1  137.09   14.10 
   7  -7   1  122.19   12.50 
  -8   7  -1   37.80    6.70 
   8  -7   1   27.40    5.40 
  -9   7  -1   64.19    9.90 
  -9   7  -1   50.79    8.00 
  -6  -6   1    5.40    4.10 
   5   6  -1    2.70    1.10 
   5   6  -1   -1.40    6.50 
  -5  -6   1   -2.00    2.50 
  -5  -6   1    3.80    3.70 
   4   6  -1  760.52   52.49 
   4   6  -1  939.11   63.39 
  -4  -6   1  891.41   57.69 
   3   6  -1   -0.70    4.70 
  -3  -6   1    1.20    3.70 
  -3  -6   1    3.50    3.30 
   2   6  -1 1178.68   79.99 
   2   6  -1 1216.68   81.79 
  -2  -6   1 1188.28   79.19 
  -2  -6   1 1332.67   79.79 
   1   6  -1   39.40    6.70 
  -1  -6   1   22.80    5.20 
  -1  -6   1   30.50    5.60 
  -1  -6   1   27.50    4.70 
   0   6  -1 1442.46   95.19 
   0  -6   1 1635.44   94.09 
   0  -6   1 1425.16   94.49 
  -1   6  -1 5070.59  314.97 
   1  -6   1 5463.65  313.57 
   1  -6   1 4964.20  314.67 
  -2   6  -1  598.84   39.90 
  -2   6  -1  555.64   39.20 
   2  -6   1  636.34   37.90 
  -3   6  -1  424.56   30.20 
  -3   6  -1  459.65   29.60 
   3  -6   1  437.76   30.70 
  -4   6  -1  152.98   11.90 
   4  -6   1  130.49   12.40 
   4  -6   1  119.89    9.10 
  -5   6  -1 1429.36   84.39 
  -5   6  -1 1382.16   84.39 
   5  -6   1 1318.07   83.59 
   5  -6   1 1118.99   79.89 
  -6   6  -1  277.37   22.70 
  -6   6  -1  265.47   22.40 
  -7   6  -1    0.00    1.70 
  -7   6  -1    3.20    3.80 
   7  -6   1    2.00    1.10 
   7  -6   1    1.10    2.30 
  -8   6  -1   -5.60    3.50 
  -8   6  -1    2.60    2.20 
   8  -6   1    1.20    1.40 
  -9   6  -1   29.10    7.30 
  -9   6  -1   35.30    6.60 
   6   5  -1  118.79   15.90 
   6   5  -1  112.69    7.90 
   5   5  -1    1.50    5.10 
   5   5  -1    3.80    1.20 
  -5  -5   1    4.90    2.40 
  -5  -5   1    0.80    3.30 
   4   5  -1  117.29    8.50 
   4   5  -1  129.99   16.20 
  -4  -5   1  127.69   12.60 
   3   5  -1  634.94   45.90 
   3   5  -1  731.83   49.70 
  -3  -5   1  664.13   45.60 
   2   5  -1 2195.38  139.79 
   2   5  -1 2232.68  141.29 
  -2  -5   1 2423.96  139.49 
  -2  -5   1 2094.69  138.79 
   1   5  -1  229.28   18.00 
  -1  -5   1  201.98   16.60 
  -1  -5   1  225.48   16.70 
   0  -5   1    9.30    2.80 
   0  -5   1   12.10    3.70 
  -1   5  -1  794.42   56.99 
  -1   5  -1  922.11   58.09 
  -1   5  -1  946.61   55.89 
   1  -5   1  932.91   56.19 
  -2   5  -1 8069.59  489.65 
  -3   5  -1  470.25   29.40 
  -3   5  -1  417.66   29.40 
   3  -5   1  430.56   27.40 
  -4   5  -1   23.10    4.40 
  -4   5  -1   28.20    4.40 
   4  -5   1   21.90    2.50 
   4  -5   1   26.80    5.20 
  -5   5  -1  347.57   24.70 
  -5   5  -1  324.27   24.20 
   5  -5   1  314.77   24.00 
   5  -5   1  308.37   21.30 
  -6   5  -1   22.60    6.10 
  -6   5  -1   12.50    4.20 
   6  -5   1   19.00    2.30 
  -7   5  -1  415.26   29.70 
  -7   5  -1  414.36   30.10 
   7  -5   1  298.37   22.60 
   7  -5   1  319.37   30.40 
  -8   5  -1   14.70    4.60 
  -8   5  -1   21.70    6.90 
   8  -5   1   10.50    2.00 
  -9   5  -1   -6.40    3.30 
  -9   5  -1   -0.80    1.50 
  -7  -4   1    7.50    4.80 
   6   4  -1  224.78   15.70 
   6   4  -1  263.97   24.80 
  -6  -4   1  261.77   21.70 
   5   4  -1   58.79    4.70 
  -5  -4   1   68.29    9.20 
   4   4  -1  144.19   12.80 
   4   4  -1  141.69    9.90 
   4   4  -1  149.09   16.80 
  -4  -4   1  169.78   14.10 
   3   4  -1 1212.88   81.69 
   3   4  -1 1243.88   84.49 
  -3  -4   1 1392.86   82.29 
   2   4  -1 4869.21  301.07 
   2   4  -1 4828.02  299.87 
  -2  -4   1 5401.26  299.57 
  -2  -4   1 4558.14  298.97 
   1   4  -1  279.97   20.90 
  -1  -4   1  287.17   20.20 
   0  -4   1  452.15   29.30 
  -1   4  -1 2810.22  171.58 
  -1   4  -1 2528.85  171.98 
   1  -4   1 3152.98  171.78 
  -2   4  -1  574.14   37.40 
  -2   4  -1  544.45   35.90 
   2  -4   1  547.05   34.20 
   2  -4   1  619.14   34.20 
   2  -4   1  540.25   34.60 
  -3   4  -1  288.77   25.60 
  -3   4  -1  260.17   19.70 
  -3   4  -1  274.47   19.90 
   3  -4   1  321.27   18.10 
  -4   4  -1 1021.70   68.49 
  -4   4  -1 1050.59   68.09 
   4  -4   1 1148.69   65.49 
  -5   4  -1   68.29    8.10 
   5  -4   1   64.39    4.80 
   5  -4   1   52.89    8.20 
   6  -4   1   99.89    7.20 
  -7   4  -1   69.19   10.10 
  -7   4  -1   51.89    9.40 
   7  -4   1   46.10    4.30 
  -8   4  -1  168.78   16.30 
   8  -4   1  129.09    9.80 
  -9   4  -1   -4.30    3.50 
  -9   4  -1   -1.50    2.10 
   7   3  -1   16.30    8.30 
   6   3  -1  158.78   10.90 
   6   3  -1  179.78   18.90 
  -6  -3   1  193.48   16.80 
  -6  -3   1  142.59   12.50 
   5   3  -1  445.46   29.10 
   5   3  -1  531.85   38.50 
  -5  -3   1  407.16   30.60 
  -5  -3   1  517.85   34.10 
   4   3  -1  760.02   51.49 
   4   3  -1  853.71   56.19 
   4   3  -1  727.33   48.60 
  -4  -3   1  857.31   52.49 
   3   3  -1  342.97   27.20 
   3   3  -1  373.86   25.50 
  -3  -3   1  360.96   25.10 
   2   3  -1 4490.05  274.97 
   2   3  -1 4641.84  274.07 
  -2  -3   1 4363.66  273.37 
  -1  -3   1 1739.73  106.89 
  -2   3  -1 1228.68   74.19 
  -2   3  -1 1148.89   73.29 
  -3   3  -1 3114.29  196.98 
  -3   3  -1 3653.13  198.28 
   3  -3   1 2943.81  194.98 
  -4   3  -1 4350.86  242.18 
  -4   3  -1 3895.11  241.08 
  -4   3  -1 3757.82  240.18 
   4  -3   1 3422.36  238.48 
   4  -3   1 4302.67  237.78 
   5  -3   1    9.00    4.10 
   5  -3   1   12.90    1.70 
  -6   3  -1   84.79   10.70 
  -6   3  -1   84.39   10.10 
   6  -3   1   82.09    6.10 
  -7   3  -1   76.39   10.50 
  -7   3  -1   76.79   10.10 
   7  -3   1   60.39    5.30 
  -8   3  -1    9.20    4.10 
  -8   3  -1    8.40    5.30 
   8  -3   1    6.00    2.00 
  -9   3  -1   -0.80    2.20 
  -9   3  -1   -0.20    3.70 
  -8  -2   1   26.40    6.60 
   7   2  -1   -0.20    6.70 
  -7  -2   1    7.90    5.20 
  -7  -2   1    2.30    2.50 
   6   2  -1  409.46   25.30 
  -6  -2   1  397.46   27.00 
   5   2  -1  493.85   35.60 
   5   2  -1  456.35   30.30 
   5   2  -1  429.76   27.40 
  -5  -2   1  388.36   28.70 
  -5  -2   1  467.15   31.90 
   4   2  -1 2427.26  150.98 
   4   2  -1 2491.45  154.38 
   4   2  -1 2324.47  147.99 
  -4  -2   1 2568.14  151.38 
   3   2  -1  793.32   55.79 
   3   2  -1  898.01   54.39 
  -3  -2   1  856.51   53.99 
   2   2  -1   42.00    4.80 
  -2  -2   1   45.60    4.90 
   1   2  -1  744.53   52.59 
  -1  -2   1  946.71   52.69 
  -2   2  -1  377.76   23.70 
   2  -2   1  344.47   22.20 
  -3   2  -1 3228.58  180.38 
   3  -2   1 2676.33  178.68 
  -4   2  -1 2348.17  133.59 
  -4   2  -1 1953.20  132.29 
   4  -2   1 2169.88  130.19 
  -5   2  -1  122.99   11.50 
  -5   2  -1  157.58   13.60 
  -5   2  -1  112.09    8.10 
   5  -2   1  131.39    8.40 
   5  -2   1  119.89   12.10 
  -6   2  -1  124.49   13.10 
  -6   2  -1  127.89   13.70 
   6  -2   1  128.59    8.70 
  -7   2  -1  188.98   17.60 
  -7   2  -1  181.88   17.80 
   7  -2   1  146.49   11.10 
  -8   2  -1   -0.10    2.70 
   8  -2   1    4.40    1.40 
  -8  -1   1   68.79    9.10 
  -8  -1   1   94.79   12.10 
   7   1  -1  336.37   29.10 
  -7  -1   1  375.66   29.00 
  -7  -1   1  323.07   26.70 
   6   1  -1   37.00    3.10 
   6   1  -1   37.00    8.60 
  -6  -1   1   30.00    4.20 
  -6  -1   1   47.40    8.20 
   5   1  -1    7.80    1.20 
   5   1  -1   11.20    4.60 
   5   1  -1   10.10    3.00 
  -5  -1   1    9.30    2.20 
  -5  -1   1   10.60    3.90 
   4   1  -1 4898.31  301.77 
   4   1  -1 5192.28  304.87 
   4   1  -1 4996.10  307.27 
  -4  -1   1 4959.70  304.57 
   3   1  -1 2703.03  159.88 
   3   1  -1 2263.77  158.48 
  -3  -1   1 2782.32  157.88 
   2   1  -1  433.26   29.70 
   2   1  -1  489.05   29.90 
  -1   1  -1   29.20    2.20 
  -1   1  -1   33.40    1.90 
  -1   1  -1   22.70    2.40 
   1  -1   1   25.60    2.20 
  -3   1  -1  657.43   40.30 
   3  -1   1  610.04   39.60 
  -4   1  -1  111.89    9.70 
  -4   1  -1  127.79    9.60 
   4  -1   1  101.59   10.40 
   4  -1   1  113.09    7.40 
  -5   1  -1  609.14   40.70 
   5  -1   1  557.84   41.00 
   5  -1   1  629.84   37.00 
  -6   1  -1  563.94   40.70 
   6  -1   1  576.94   35.40 
  -7   1  -1    7.60    4.90 
  -7   1  -1    4.60    3.00 
   7  -1   1    4.00    1.20 
  -8   1  -1   35.40    8.30 
  -8   1  -1   27.00    6.30 
   8  -1   1   27.00    3.00 
  -8   0   1   67.59    9.10 
   7   0  -1   29.00    8.10 
  -7   0   1   29.30    6.00 
  -7   0   1   42.10    9.20 
   6   0  -1   39.10    3.30 
   6   0  -1   38.00    8.30 
  -6   0   1   39.70    4.20 
  -6   0   1   45.00    7.50 
  -6   0   1   50.69    7.50 
   5   0  -1    0.70    0.50 
   5   0  -1   -4.40    2.90 
   5   0  -1    5.60    2.70 
  -5   0   1   -0.90    2.00 
  -5   0   1    1.20    1.10 
   4   0  -1 3079.89  203.98 
   4   0  -1 3490.35  202.58 
  -4   0   1 2959.70  200.08 
  -4   0   1 3781.92  203.58 
  -4   0   1 3252.57  201.98 
   3   0  -1  696.13   42.50 
  -3   0   1  571.54   40.50 
  -3   0   1  725.73   42.80 
  -1   0   1  141.99    9.30 
  -1   0   1  125.49    8.20 
  -3   0  -1  209.58   15.10 
  -3   0  -1  214.28   15.20 
  -4   0  -1   12.90    3.60 
  -4   0  -1   22.00    4.30 
   4   0   1   20.80    1.90 
   4   0   1   15.90    4.90 
  -5   0  -1 3299.77  197.28 
   5   0   1 3038.90  197.48 
   5   0   1 3243.28  192.98 
  -6   0  -1  504.95   34.20 
   6   0   1  547.75   33.30 
   6   0   1  555.34   39.80 
  -7   0  -1    0.60    2.20 
  -7   0  -1    0.70    3.70 
   7   0   1   -0.10    1.00 
  -8   0  -1   11.70    6.10 
  -8   0  -1    7.00    3.20 
  -9   1   1   16.50    6.20 
  -9   1   1   12.50    3.50 
  -8   1   1  285.97   23.50 
   7  -1  -1   72.79   12.20 
  -7   1   1   87.99   11.30 
  -7   1   1   84.79   10.60 
   6  -1  -1 3444.96  226.28 
   6  -1  -1 3643.24  229.48 
   6  -1  -1 3973.80  222.48 
  -6   1   1 3906.81  228.18 
  -6   1   1 3455.95  222.68 
   5  -1  -1  299.17   18.20 
   5  -1  -1  284.57   21.50 
   5  -1  -1  280.27   23.20 
  -5   1   1  327.37   23.50 
  -5   1   1  283.47   21.90 
  -5   1   1  276.37   18.50 
   4  -1  -1  673.33   42.70 
   4  -1  -1  629.74   43.80 
  -4   1   1  724.73   43.90 
  -4   1   1  603.34   39.80 
  -4   1   1  632.24   42.00 
  -3   1   1 6146.08  372.66 
   1  -1  -1   53.79    3.60 
  -1   1   1   58.99    3.60 
   0  -1  -1   31.90    3.40 
   0  -1  -1   39.50    3.00 
   0   1   1   29.60    3.30 
   0   1   1   36.60    2.90 
  -3  -1  -1    4.00    2.30 
  -3  -1  -1    4.30    2.50 
   3   1   1    4.90    1.00 
   3   1   1    3.90    0.90 
  -4  -1  -1   40.90    5.80 
  -4  -1  -1   42.90    5.90 
   4   1   1   29.20    5.90 
   4   1   1   32.60    2.80 
  -5  -1  -1  180.18   15.50 
   5   1   1  167.98   15.80 
   5   1   1  168.08   11.30 
  -6  -1  -1   50.69    5.50 
  -6  -1  -1   57.09    9.00 
   6   1   1   45.40    4.10 
  -7  -1  -1  116.69   12.90 
  -7  -1  -1  125.79   14.40 
   7   1   1   88.29    7.20 
  -8  -1  -1    3.70    2.70 
  -8  -1  -1    1.80    4.40 
  -9   2   1   -0.20    4.40 
  -9   2   1    3.90    2.70 
  -8   2   1   11.20    3.90 
  -8   2   1   16.20    6.70 
   7  -2  -1   44.30    8.80 
  -7   2   1   43.10    7.90 
  -7   2   1   53.69    8.30 
   6  -2  -1  413.06   32.60 
   6  -2  -1  435.96   34.60 
   6  -2  -1  499.95   28.80 
  -6   2   1  467.05   33.90 
  -6   2   1  492.25   34.00 
   5  -2  -1  509.75   38.00 
   5  -2  -1  521.75   36.60 
  -5   2   1  501.95   40.80 
  -5   2   1  546.35   36.90 
  -5   2   1  575.14   32.70 
   4  -2  -1  782.72   49.99 
   4  -2  -1  676.63   51.69 
  -4   2   1  840.22   46.50 
  -4   2   1  691.53   49.00 
  -4   2   1  785.72   49.60 
  -4   2   1  814.02   51.09 
   3  -2  -1 3067.49  189.18 
  -3   2   1 3214.88  189.78 
  -3   2   1 2999.70  188.38 
   0  -2  -1 1706.03  110.49 
   0   2   1 1902.61  109.99 
  -1  -2  -1 1921.21  118.19 
  -2  -2  -1  209.88   15.80 
   2   2   1  209.68   13.90 
  -3  -2  -1  156.18   13.70 
  -3  -2  -1  179.68   13.90 
   3   2   1  140.69   13.70 
   3   2   1  170.48   10.50 
   3   2   1  163.58   10.50 
  -4  -2  -1  627.44   40.10 
  -4  -2  -1  552.84   39.50 
   4   2   1  591.94   35.60 
   4   2   1  534.35   40.10 
  -5  -2  -1   59.59    8.70 
   5   2   1   61.59    4.80 
   5   2   1   62.69    9.70 
  -6  -2  -1    7.00    2.70 
  -6  -2  -1   -0.10    3.80 
   6   2   1    3.80    1.30 
  -7  -2  -1   84.09   11.30 
  -7  -2  -1  116.79   14.40 
   7   2   1  103.39    7.20 
  -9   3   1    5.90    3.00 
  -9   3   1    9.30    5.40 
  -8   3   1   40.50    7.80 
  -8   3   1   59.79   10.60 
   7  -3  -1  207.48   20.50 
  -7   3   1  240.98   20.70 
  -7   3   1  255.47   21.50 
   6  -3  -1 1152.98   83.09 
   6  -3  -1 1299.97   77.39 
  -6   3   1 1356.36   82.89 
   5  -3  -1   68.39    9.30 
   5  -3  -1   76.99    5.30 
   5  -3  -1   66.99    8.20 
  -5   3   1   74.69    8.40 
   4  -3  -1 1321.67   83.19 
   4  -3  -1 1312.87   84.19 
  -4   3   1 1237.88   82.19 
  -4   3   1 1378.16   82.69 
   3  -3  -1  644.84   40.40 
  -3   3   1  524.35   39.00 
  -3   3   1  652.03   41.00 
  -3   3   1  626.24   39.30 
   2  -3  -1 2374.56  142.19 
   2  -3  -1 2091.49  141.09 
  -2   3   1 2479.15  142.59 
   1  -3  -1 4044.40  249.28 
  -1   3   1 4169.18  249.58 
  -1  -3  -1    6.90    2.80 
  -1  -3  -1    7.10    3.10 
  -2  -3  -1  299.97   21.20 
  -2  -3  -1  276.37   21.00 
   2   3   1  250.27   24.60 
   2   3   1  291.37   19.10 
   2   3   1  286.97   18.70 
  -3  -3  -1 5466.95  303.17 
   3   3   1 4959.30  303.37 
   3   3   1 4568.04  298.07 
   3   3   1 4815.02  298.07 
  -4  -3  -1 2051.39  121.59 
  -4  -3  -1 1893.71  120.99 
   4   3   1 1795.32  121.59 
  -5  -3  -1    3.70    4.80 
  -5  -3  -1    9.40    4.60 
   5   3   1    9.80    2.20 
   5   3   1   11.50    5.70 
  -6  -3  -1   21.40    7.30 
  -6  -3  -1   14.20    4.10 
   6   3   1   21.20    2.50 
  -7  -3  -1   97.99   11.70 
  -7  -3  -1  141.29   14.90 
   7   3   1  112.69    7.90 
  -9   4   1    6.80    5.20 
  -9   4   1    6.60    2.90 
  -8   4   1  165.58   16.30 
  -8   4   1  164.78   17.70 
   7  -4  -1  235.58   22.00 
  -7   4   1  259.27   22.40 
  -7   4   1  265.07   21.90 
   6  -4  -1  998.10   66.09 
   6  -4  -1 1031.80   71.89 
  -6   4   1 1156.28   71.49 
  -6   4   1 1152.18   71.69 
   5  -4  -1  230.08   19.50 
   5  -4  -1  211.68   14.60 
   5  -4  -1  229.58   18.80 
  -5   4   1  227.58   18.20 
  -5   4   1  246.48   18.60 
   4  -4  -1 2715.03  176.28 
   4  -4  -1 3079.89  181.48 
  -4   4   1 2971.70  179.48 
   3  -4  -1    0.80    1.80 
   3  -4  -1    1.80    1.50 
   3  -4  -1    1.40    2.50 
  -3   4   1    4.50    1.70 
  -3   4   1   -1.30    2.10 
  -3   4   1    1.60    1.90 
   2  -4  -1  673.43   43.50 
  -2   4   1  727.63   45.00 
  -2   4   1  611.54   43.50 
  -2   4   1  705.03   43.10 
  -1   4   1 4799.92  292.07 
   0  -4  -1 4424.26  292.27 
   0  -4  -1 4948.60  292.27 
   0   4   1 4731.43  292.27 
   0   4   1 5089.99  291.77 
  -1  -4  -1  221.68   18.40 
  -1  -4  -1  245.38   18.80 
   1   4   1  258.77   17.50 
   1   4   1  249.28   18.90 
  -2  -4  -1   52.79    7.50 
  -2  -4  -1   53.69    7.60 
   2   4   1   60.89    6.10 
   2   4   1   57.49    7.90 
   2   4   1   52.09    5.50 
  -3  -4  -1 2192.28  137.39 
  -3  -4  -1 2231.78  137.39 
   3   4   1 2117.79  137.99 
  -4  -4  -1  262.27   21.30 
  -4  -4  -1  240.38   20.70 
   4   4   1  221.78   21.10 
   4   4   1  237.68   15.60 
  -5  -4  -1   59.79    9.00 
   5   4   1   40.00    9.20 
   5   4   1   46.10    4.20 
   6   4   1    1.60    1.00 
  -9   5   1    8.00    3.10 
  -9   5   1   16.10    6.00 
  -8   5   1   75.59   11.70 
  -8   5   1   61.59    9.20 
   7  -5  -1   37.80    3.60 
   6  -5  -1  175.78   17.10 
   6  -5  -1  143.49   11.60 
  -6   5   1  201.68   16.60 
  -6   5   1  206.08   17.10 
   5  -5  -1   34.60    3.20 
   5  -5  -1   32.50    4.10 
   5  -5  -1   41.20    7.10 
  -5   5   1   42.30    6.40 
  -5   5   1   40.30    6.30 
   4  -5  -1 2008.00  137.19 
   4  -5  -1 2284.97  140.79 
  -4   5   1 2276.67  139.19 
  -4   5   1 2401.16  138.99 
   3  -5  -1  101.69    8.80 
   3  -5  -1  105.89   10.70 
  -3   5   1   94.79    9.30 
  -3   5   1  109.19    9.00 
   2  -5  -1  490.55   32.90 
   2  -5  -1  486.05   34.30 
  -2   5   1  492.15   33.30 
  -2   5   1  501.25   32.20 
   1  -5  -1 1462.45   91.99 
   1  -5  -1 1377.06   92.79 
  -1   5   1 1572.14   93.09 
  -1   5   1 1459.15   92.29 
   0  -5  -1  653.73   44.00 
   0  -5  -1  631.84   44.40 
   0   5   1  688.93   44.50 
   0   5   1  663.03   43.80 
  -1  -5  -1 1200.68   80.59 
  -1  -5  -1 1244.58   80.49 
   1   5   1 1312.37   81.09 
  -2  -5  -1  203.98   18.30 
  -2  -5  -1  210.38   18.30 
   2   5   1  206.58   16.10 
   2   5   1  234.68   19.20 
  -3  -5  -1   60.39    9.20 
  -3  -5  -1   61.99    9.00 
   3   5   1   51.89    9.40 
  -4  -5  -1   24.90    6.70 
   4   5   1   25.40    2.80 
   4   5   1    9.40    8.70 
  -5  -5  -1  171.18   16.40 
   5   5   1  148.09   10.70 
  -6  -5  -1   91.09   11.10 
   6   5   1   65.89    5.30 
  -9   6   1    3.30    2.30 
  -9   6   1    3.60    3.70 
  -8   6   1   43.50    9.50 
  -8   6   1   28.80    6.00 
   7  -6  -1   33.90    7.90 
  -7   6   1   30.10    7.50 
  -7   6   1   30.70    6.40 
   6  -6  -1   20.50    6.30 
  -6   6   1   21.10    4.80 
  -6   6   1   21.80    6.00 
   5  -6  -1  217.48   20.20 
  -5   6   1  232.98   19.50 
  -5   6   1  248.48   19.10 
   4  -6  -1  113.39    9.80 
   4  -6  -1  137.29   14.70 
  -4   6   1  134.99   12.10 
  -4   6   1  124.29   11.20 
   3  -6  -1  135.69   11.00 
   3  -6  -1  136.49   13.40 
  -3   6   1  129.89   11.10 
  -3   6   1  131.09   12.10 
   2  -6  -1 1400.26   88.89 
   2  -6  -1 1428.46   90.89 
  -2   6   1 1412.66   89.79 
   1  -6  -1  245.58   19.00 
   1  -6  -1  233.78   19.70 
  -1   6   1  247.98   19.40 
   0  -6  -1  440.46   39.30 
   0  -6  -1  481.45   33.60 
   0   6   1  484.65   34.00 
  -1  -6  -1  468.25   35.20 
  -1  -6  -1  467.15   34.70 
   1   6   1  507.35   35.60 
  -2  -6  -1 1433.66   93.79 
  -2  -6  -1 1401.76   93.39 
   2   6   1 1475.65   94.69 
  -3  -6  -1   10.80    5.50 
   3   6   1   10.70    1.90 
   3   6   1   15.20    6.30 
  -4  -6  -1    6.80    4.90 
   4   6   1    2.70    1.30 
   4   6   1    4.50    5.50 
  -5  -6  -1  181.48   16.30 
   5   6   1  139.09   10.40 
   9  -7  -1   -0.30    4.00 
  -9   7   1   -0.60    1.50 
  -9   7   1    6.80    4.80 
  -8   7   1   27.40    7.40 
  -8   7   1   11.10    3.60 
   7  -7  -1    3.00    5.30 
  -7   7   1   11.30    5.50 
  -7   7   1    9.80    3.20 
   6  -7  -1  807.92   59.09 
  -6   7   1  852.01   59.39 
  -6   7   1  941.31   58.99 
   5  -7  -1    4.60    3.90 
  -5   7   1    4.30    2.30 
  -5   7   1    1.80    2.90 
   4  -7  -1  235.08   20.20 
  -4   7   1  227.78   17.60 
  -4   7   1  207.88   18.50 
   3  -7  -1  427.86   32.60 
   3  -7  -1  406.86   29.30 
  -3   7   1  466.35   30.00 
  -3   7   1  419.36   31.30 
   2  -7  -1 2418.86  155.78 
   2  -7  -1 2547.55  158.48 
  -2   7   1 2586.14  157.48 
   1  -7  -1    5.20    3.90 
   1  -7  -1    3.70    2.80 
  -1   7   1    6.60    3.50 
   0  -7  -1    5.00    3.00 
   0  -7  -1    5.80    4.30 
   0  -7  -1   -0.80    3.00 
   0   7   1   11.00    4.40 
  -1  -7  -1  869.21   60.29 
  -1  -7  -1  854.21   59.59 
   1   7   1  902.21   60.59 
  -2  -7  -1  445.06   35.60 
  -2  -7  -1  494.95   36.70 
  -3  -7  -1   30.30    7.70 
   3   7   1   11.70    6.30 
   3   7   1   12.00    2.00 
   4   7   1    1.00    7.10 
   4   7   1    2.00    1.50 
  -5  -7  -1   23.40    5.70 
   5   7   1   13.50    2.00 
   8  -8  -1   -3.80    2.00 
  -8   8   1    2.60    2.20 
  -8   8   1   -0.60    3.30 
   7  -8  -1    0.00    5.70 
  -7   8   1   22.60    6.90 
  -7   8   1    6.90    3.10 
   6  -8  -1   12.50    5.70 
  -6   8   1    7.80    3.10 
  -6   8   1   16.60    5.80 
   5  -8  -1  206.88   20.10 
  -5   8   1  230.18   18.40 
   4  -8  -1  225.78   20.80 
  -4   8   1  241.78   18.50 
  -4   8   1  217.48   19.90 
   3  -8  -1   34.60    8.00 
   3  -8  -1   40.10    5.90 
  -3   8   1   38.70    7.10 
   2  -8  -1  647.64   45.90 
   2  -8  -1  595.24   42.70 
  -2   8   1  649.64   45.00 
   1  -8  -1   20.90    6.20 
   1  -8  -1   15.90    4.90 
   1  -8  -1   16.50    4.40 
  -1   8   1   25.40    6.70 
   0  -8  -1  502.95   37.70 
   0  -8  -1  472.55   36.30 
   0   8   1  506.25   37.40 
  -1  -8  -1  191.98   18.80 
  -1  -8  -1  177.58   19.00 
   1   8   1  193.48   19.20 
  -2  -8  -1  151.38   16.20 
   2   8   1  146.69   17.30 
  -3  -8  -1  106.09   12.60 
   3   8   1   90.09    6.80 
   3   8   1   70.19   12.40 
  -4  -8  -1   44.70    8.20 
   4   8   1   39.30    3.60 
   8  -9  -1   15.00    5.00 
  -8   9   1   18.40    6.30 
  -7   9   1    1.00    2.00 
  -7   9   1    2.40    4.00 
   6  -9  -1  141.69   16.10 
  -6   9   1  160.88   14.60 
  -6   9   1  159.98   16.80 
   5  -9  -1    1.70    4.50 
  -5   9   1   -0.10    3.50 
  -5   9   1    1.80    2.10 
   4  -9  -1  202.48   21.30 
  -4   9   1  215.28   20.00 
   3  -9  -1   14.10    8.80 
  -3   9   1    8.50    4.70 
   2  -9  -1  143.09   14.10 
   2  -9  -1  148.99   14.00 
  -2   9   1  147.19   15.70 
   1  -9  -1   98.29   11.00 
   1  -9  -1  110.59   14.00 
   1  -9  -1  118.39   14.10 
  -1   9   1  121.99   13.80 
   0  -9  -1  224.38   22.30 
   0   9   1  260.07   23.00 
  -1  -9  -1    1.40    4.30 
   1   9   1    3.80    4.70 
   2   9   1   19.20    6.80 
  -3  -9  -1   64.29    9.30 
   3   9   1   58.29    4.80 
   8 -10  -1   27.00    5.50 
  -8  10   1   17.40    4.00 
   7 -10  -1   16.30    5.20 
  -7  10   1   14.10    5.90 
  -7  10   1    8.10    4.40 
   6 -10  -1  139.19   14.80 
  -6  10   1  154.08   16.50 
   5 -10  -1    2.60    5.10 
  -5  10   1    4.70    4.40 
   4 -10  -1  165.18   17.80 
   4 -10  -1  169.28   16.90 
  -4  10   1  180.78   18.10 
   3 -10  -1    3.20    3.30 
   3 -10  -1   -0.20    4.50 
  -3  10   1   -5.20    3.40 
   2 -10  -1  130.79   15.20 
   2 -10  -1  112.99   12.20 
  -2  10   1  131.09   14.80 
   1 -10  -1  124.69   15.00 
  -1  10   1  121.89   15.10 
   0 -10  -1  131.19   15.30 
   0  10   1  131.19   15.50 
  -1 -10  -1    4.70    4.90 
   1  10   1    4.40    5.40 
  -2 -10  -1    8.60    4.30 
   2  10   1    3.40    7.40 
   2  10   1    5.40    1.40 
   7 -11  -1   -0.10    2.50 
  -7  11   1    5.20    4.70 
   6 -11  -1   -2.40    2.40 
  -6  11   1   -1.20    3.70 
   5 -11  -1    2.00    3.30 
   5 -11  -1    6.50    5.30 
  -5  11   1    3.90    5.00 
   4 -11  -1   75.29    9.90 
  -4  11   1   81.49   11.40 
   3 -11  -1    7.20    4.30 
   3 -11  -1    5.30    5.30 
  -3  11   1    8.70    4.50 
   2 -11  -1   12.50    4.60 
  -2  11   1   30.80    8.80 
   1 -11  -1   -0.70    4.70 
  -1  11   1   12.10    5.30 
   0 -11  -1   64.69   10.40 
   0  11   1   61.09   10.20 
   5 -12  -1    2.60    3.10 
  -5  12   1   -4.30    3.40 
   4 -12  -1   59.79   11.80 
   4 -12  -1   38.30    6.60 
  -4  12   1   39.80    8.20 
   3 -12  -1    3.00    3.70 
   3 -12  -1    4.80    4.80 
  -3  12   1    2.60    4.20 
   2 -12  -1   46.50    8.80 
  -2  12   1   46.80    9.00 
   1 -12  -1   25.00    9.10 
  -1  13  -2   27.60    7.20 
  -2  13  -2   24.90    7.30 
   2 -13   2   34.70    9.00 
  -3  13  -2   32.20    7.60 
   3 -13   2   21.50    5.20 
  -4  13  -2   39.30    8.30 
   4 -13   2   25.90    5.60 
  -5  13  -2   61.59   10.00 
   5 -13   2   58.39    8.30 
   1  12  -2   30.80    7.60 
   0  12  -2   99.09   13.40 
  -1  12  -2   37.80    9.20 
   1 -12   2   59.09    8.10 
  -2  12  -2   85.89   15.60 
   2 -12   2   57.89    8.90 
  -3  12  -2   19.20    6.80 
   3 -12   2   26.10    9.00 
   4 -12   2   43.40    9.60 
  -5  12  -2   31.40    8.30 
   5 -12   2   26.00    6.30 
  -6  12  -2    9.30    5.20 
   6 -12   2    7.70    3.60 
   2  11  -2  129.39   15.50 
  -2 -11   2  105.99   11.40 
   1  11  -2   19.40    7.00 
  -1 -11   2   14.80    4.50 
   0  11  -2   93.39   13.30 
   0 -11   2   87.89   10.30 
  -1  11  -2   93.49   12.60 
   1 -11   2   64.39    9.30 
   1 -11   2   73.09    9.20 
  -2  11  -2    7.00    4.80 
   2 -11   2   20.50    5.90 
   2 -11   2   16.40    5.30 
  -3  11  -2  341.87   29.00 
   3 -11   2  361.46   28.00 
  -4  11  -2    5.80    4.30 
   4 -11   2    0.90    3.20 
  -5  11  -2   55.79   10.00 
   5 -11   2   50.89    8.50 
  -6  11  -2   15.20    6.40 
  -6  11  -2   10.40    3.00 
   6 -11   2   20.80    5.90 
  -7  11  -2   27.30    5.20 
  -7  11  -2   31.80    7.70 
   7 -11   2   30.20    6.20 
   3  10  -2   58.79   10.70 
   3  10  -2   52.49    4.40 
  -3 -10   2   59.99    7.80 
   2  10  -2    9.40    6.10 
   1  10  -2  178.88   18.30 
  -1 -10   2  165.58   14.60 
  -1 -10   2  119.89   11.60 
   0  10  -2   81.79   12.20 
   0 -10   2   59.89    7.00 
   0 -10   2   79.19    9.00 
   0 -10   2   91.99   13.00 
   0 -10   2   87.69   10.00 
  -1  10  -2  156.28   16.10 
   1 -10   2  119.19   10.50 
   1 -10   2  161.58   14.00 
  -2  10  -2   26.10    7.20 
   2 -10   2   16.40    5.20 
   2 -10   2   16.30    5.10 
  -3  10  -2  119.09   13.00 
   3 -10   2   90.49   11.20 
   3 -10   2  100.39   11.60 
  -4  10  -2   60.29   10.00 
   4 -10   2   70.79    9.60 
  -5  10  -2  175.68   16.60 
  -5  10  -2  109.79   15.60 
   5 -10   2  152.18   15.10 
  -6  10  -2   16.30    3.60 
  -6  10  -2   28.70    7.70 
   6 -10   2   36.00    7.60 
  -7  10  -2   75.09    9.20 
  -7  10  -2   97.59   12.40 
   7 -10   2   89.09   10.40 
  -8  10  -2   30.70    5.60 
  -8  10  -2   52.79    8.70 
   8 -10   2   36.30    6.90 
   4   9  -2  238.78   22.60 
   4   9  -2  206.18   14.30 
  -4  -9   2  237.88   18.50 
   3   9  -2    1.10    5.10 
  -3  -9   2   -0.30    3.50 
   2   9  -2  437.86   35.90 
  -2  -9   2  422.56   31.50 
   1   9  -2  377.16   31.00 
  -1  -9   2  413.46   36.50 
  -1  -9   2  343.77   28.00 
   0   9  -2  784.12   57.09 
   0  -9   2  917.01   54.89 
   0  -9   2  776.92   53.89 
   0  -9   2  796.72   54.89 
  -1   9  -2  488.55   37.10 
   1  -9   2  519.25   35.30 
   1  -9   2  489.75   35.30 
  -2   9  -2  420.56   31.80 
   2  -9   2  411.16   29.90 
   2  -9   2  383.26   26.20 
   2  -9   2  455.75   30.90 
  -3   9  -2 1027.10   68.59 
   3  -9   2  985.00   66.09 
   3  -9   2 1064.49   67.99 
  -4   9  -2  148.19   12.90 
  -4   9  -2  151.08   15.40 
   4  -9   2  160.58   15.10 
  -5   9  -2  554.44   40.90 
  -5   9  -2  647.44   44.20 
   5  -9   2  615.44   43.10 
  -6   9  -2  130.19   12.90 
  -6   9  -2  135.59   14.90 
   6  -9   2  132.59   13.70 
  -7   9  -2   63.79   10.30 
  -7   9  -2   61.29    8.50 
   7  -9   2   62.19    8.30 
  -8   9  -2    5.20    4.40 
   8  -9   2    6.10    3.20 
   5   8  -2    9.00    6.50 
   5   8  -2   13.50    2.00 
  -5  -8   2   19.40    5.00 
   4   8  -2   25.50    2.80 
   4   8  -2   31.30    9.60 
  -4  -8   2   25.10    5.70 
   3   8  -2   22.80    8.00 
  -3  -8   2   16.00    5.10 
  -3  -8   2    9.80    3.10 
   2   8  -2  527.85   43.10 
  -2  -8   2  584.44   40.70 
   1   8  -2  194.78   19.10 
  -1  -8   2  231.78   17.60 
  -1  -8   2  185.08   16.90 
  -1  -8   2  179.78   15.70 
   0   8  -2  519.45   39.70 
   0  -8   2  545.25   38.40 
   0  -8   2  511.75   37.30 
   0  -8   2  638.24   38.10 
  -1   8  -2 1093.99   71.59 
   1  -8   2 1110.99   70.39 
   1  -8   2 1054.29   69.89 
  -2   8  -2 1718.43  108.69 
   2  -8   2 1603.84  103.89 
   2  -8   2 1727.53  107.39 
   2  -8   2 1793.42  107.99 
  -3   8  -2  699.63   48.40 
  -3   8  -2  726.03   46.20 
   3  -8   2  729.93   48.30 
   3  -8   2  691.83   47.00 
  -4   8  -2  123.79   11.10 
  -4   8  -2  114.29   12.20 
   4  -8   2  137.19   12.90 
  -5   8  -2  599.84   41.40 
  -5   8  -2  611.04   42.90 
   5  -8   2  605.34   42.50 
  -6   8  -2    3.70    2.40 
  -6   8  -2    8.60    4.80 
   6  -8   2    3.10    1.50 
   6  -8   2    7.80    3.50 
  -7   8  -2  223.18   19.90 
  -7   8  -2  192.18   18.20 
   7  -8   2  203.88   17.70 
  -8   8  -2   48.70    8.40 
  -8   8  -2   60.49   10.20 
   8  -8   2   62.19    7.70 
   6   7  -2   46.40   11.00 
  -6  -7   2   69.59    9.00 
   5   7  -2   34.20    9.40 
   5   7  -2   25.50    2.60 
  -5  -7   2   17.50    7.70 
   4   7  -2  317.67   20.50 
   4   7  -2  348.97   31.00 
  -4  -7   2  278.37   22.60 
  -4  -7   2  355.86   25.50 
  -3  -7   2 1039.10   65.99 
   2   7  -2 1003.50   68.79 
   2   7  -2  841.02   66.49 
  -2  -7   2  969.30   65.09 
  -2  -7   2 1163.98   66.49 
   1   7  -2  233.28   20.30 
  -1  -7   2  223.18   18.40 
  -1  -7   2  218.88   17.50 
  -1  -7   2  263.27   18.80 
   0   7  -2    1.70    2.50 
   0  -7   2    1.50    2.10 
   0  -7   2    2.90    2.20 
   0  -7   2    3.50    3.00 
  -1   7  -2 3259.77  205.98 
   1  -7   2 3432.06  204.98 
   1  -7   2 3333.77  205.08 
  -2   7  -2   38.50    5.80 
  -2   7  -2   36.20    4.20 
   2  -7   2   32.50    5.80 
   2  -7   2   30.90    2.90 
   2  -7   2   35.10    5.30 
  -3   7  -2   87.69    9.30 
  -3   7  -2   81.69    7.40 
   3  -7   2   61.49    5.80 
  -4   7  -2   -0.90    1.20 
  -4   7  -2    1.10    2.40 
   4  -7   2    2.40    1.30 
  -5   7  -2  604.34   39.20 
  -5   7  -2  590.64   38.40 
   5  -7   2  460.55   34.30 
  -6   7  -2   58.89    8.30 
  -6   7  -2   60.89    8.60 
   6  -7   2   62.59    8.90 
   6  -7   2   49.00    5.30 
  -7   7  -2   78.79   10.60 
  -7   7  -2   73.39   10.30 
   7  -7   2   76.59    9.00 
  -8   7  -2   24.10    5.50 
   8  -7   2   19.40    2.60 
   6   6  -2  150.48   18.20 
  -6  -6   2  160.98   15.20 
   5   6  -2   18.60    8.40 
   5   6  -2   18.70    2.30 
  -5  -6   2   19.70    4.40 
  -5  -6   2   18.50    5.80 
   4   6  -2  100.89   14.90 
   4   6  -2   82.39    6.60 
  -4  -6   2   88.69    8.80 
  -4  -6   2  104.59   11.00 
   3   6  -2  224.28   21.20 
   3   6  -2  250.67   23.50 
  -3  -6   2  211.48   18.80 
  -3  -6   2  283.47   20.80 
   2   6  -2 2953.80  177.88 
   2   6  -2 2720.53  176.28 
  -2  -6   2 2857.71  174.38 
  -2  -6   2 2754.42  174.58 
   1   6  -2 1483.95   92.39 
  -1  -6   2 1387.96   90.19 
   0   6  -2 2089.59  128.19 
   0  -6   2 2034.30  126.49 
   0  -6   2 2032.60  127.09 
  -1   6  -2 1844.22  118.39 
   1  -6   2 1952.70  117.99 
   1  -6   2 1919.01  117.99 
  -2   6  -2 1830.82  120.79 
  -2   6  -2 2015.80  119.69 
   2  -6   2 2003.70  117.99 
  -3   6  -2 3168.88  182.18 
  -3   6  -2 2962.50  182.68 
   3  -6   2 2798.82  180.08 
  -4   6  -2  225.28   16.70 
  -4   6  -2  222.98   16.80 
   4  -6   2  188.98   14.00 
  -5   6  -2  336.07   24.30 
  -5   6  -2  325.77   24.10 
   5  -6   2  287.97   20.20 
  -6   6  -2    3.00    3.60 
  -6   6  -2    1.30    2.50 
   6  -6   2    2.60    1.30 
   6  -6   2    1.80    2.80 
  -7   6  -2  121.89   14.50 
   7  -6   2  103.29    8.60 
   7  -6   2  142.99   11.90 
  -8   6  -2    0.30    2.20 
   8  -6   2    5.40    1.50 
  -9   6  -2   24.80    6.50 
  -9   6  -2   11.60    3.80 
  -7  -5   2   58.19    8.80 
   6   5  -2  303.67   28.80 
  -6  -5   2  291.67   24.00 
   5   5  -2  243.58   23.80 
   5   5  -2  186.58   12.80 
  -5  -5   2  181.18   15.00 
  -5  -5   2  204.38   17.60 
   4   5  -2   66.29    5.10 
   4   5  -2   73.49   12.50 
  -4  -5   2   84.99    9.30 
  -4  -5   2   58.29    6.80 
   3   5  -2  348.97   27.10 
   3   5  -2  363.76   29.30 
  -3  -5   2  332.17   25.00 
   2   5  -2  630.04   43.20 
   2   5  -2  610.54   42.40 
  -2  -5   2  594.04   40.40 
   1   5  -2  470.75   36.20 
  -1  -5   2  593.64   35.50 
   0   5  -2 1985.10  140.49 
   0  -5   2 2579.44  139.89 
   1  -5   2   64.59    5.10 
   1  -5   2   72.39    5.20 
   1  -5   2   82.89    7.00 
  -2   5  -2  478.95   33.20 
  -2   5  -2  492.35   34.00 
  -2   5  -2  474.85   31.80 
   2  -5   2  464.45   30.60 
   2  -5   2  557.94   30.20 
  -3   5  -2 3617.74  228.08 
  -3   5  -2 3627.54  226.88 
   3  -5   2 3927.61  224.98 
  -4   5  -2  783.22   51.29 
  -4   5  -2  743.03   50.79 
   4  -5   2  824.72   48.20 
  -5   5  -2  190.08   16.00 
   5  -5   2  189.78   12.60 
  -6   5  -2  204.38   17.20 
  -6   5  -2  183.08   17.20 
   6  -5   2  167.88   12.10 
   6  -5   2  172.88   14.60 
  -7   5  -2  534.65   39.40 
  -7   5  -2  547.45   37.60 
   7  -5   2  420.46   30.90 
  -8   5  -2   11.40    5.70 
  -8   5  -2    4.90    4.00 
   8  -5   2    6.70    1.80 
  -9   5  -2    2.20    4.30 
  -9   5  -2   -0.20    2.10 
   7   4  -2    0.20    6.90 
  -7  -4   2   -3.00    3.10 
   6   4  -2    4.90    1.20 
   6   4  -2   17.40    8.20 
  -6  -4   2    8.10    4.20 
  -6  -4   2    0.90    2.80 
  -6  -4   2    1.20    2.10 
   5   4  -2   38.40    3.30 
   5   4  -2   52.89   12.50 
  -5  -4   2   45.50    7.20 
  -5  -4   2   37.20    5.10 
   4   4  -2 1881.61  118.59 
   4   4  -2 2071.49  123.19 
  -4  -4   2 1579.74  114.79 
  -4  -4   2 1981.50  117.29 
   3   4  -2   56.89    8.80 
   3   4  -2   55.19    7.80 
  -3  -4   2   63.99    6.80 
   2   4  -2 2120.59  137.69 
   2   4  -2 2298.77  137.59 
  -2  -4   2 2189.08  135.59 
  -2   4  -2  509.85   33.60 
  -2   4  -2  542.15   35.00 
  -3   4  -2 1570.64   98.69 
  -3   4  -2 1429.86   97.39 
   3  -4   2 1717.43   95.39 
  -4   4  -2  157.38   13.90 
  -4   4  -2  141.09   12.60 
  -4   4  -2  134.79   11.60 
   4  -4   2  156.48    9.80 
  -5   4  -2  170.48   14.30 
  -5   4  -2  161.48   15.30 
   5  -4   2  174.68   11.30 
  -6   4  -2    1.60    2.50 
  -6   4  -2   -1.60    1.80 
   6  -4   2    1.70    2.50 
   6  -4   2    2.20    1.10 
  -7   4  -2   20.30    5.30 
   7  -4   2   19.00    2.80 
  -8   4  -2    4.80    4.80 
  -8   4  -2    4.70    3.20 
   8  -4   2    3.80    1.40 
  -8  -3   2   14.30    5.40 
   7   3  -2    2.10    7.50 
  -7  -3   2    1.30    3.90 
  -7  -3   2   -0.40    2.70 
   6   3  -2   14.20    1.90 
   6   3  -2   31.90    9.40 
  -6  -3   2   12.70    2.80 
  -6  -3   2   15.90    5.40 
  -6  -3   2    8.70    3.10 
   5   3  -2  670.73   45.90 
   5   3  -2  861.71   56.79 
  -5  -3   2  808.72   50.69 
  -5  -3   2  702.33   47.70 
   4   3  -2 1745.73  111.99 
   4   3  -2 1972.70  116.89 
   4   3  -2 2039.40  120.49 
  -4  -3   2 1947.61  115.49 
  -4  -3   2 1585.54  113.29 
   3   3  -2   20.60    5.60 
   3   3  -2   20.20    4.60 
  -3  -3   2   16.30    3.70 
  -3  -3   2   23.20    4.80 
   2   3  -2 2054.09  120.89 
   2   3  -2 1827.72  120.79 
   1  -3   2   25.30    1.90 
  -2   3  -2 2744.53  167.48 
  -3   3  -2 3453.35  212.08 
   3  -3   2 3492.95  209.38 
  -4   3  -2  322.47   24.20 
  -4   3  -2  379.06   25.50 
   4  -3   2  367.26   22.10 
  -5   3  -2 1446.06   91.89 
   5  -3   2 1419.16   90.29 
   5  -3   2 1494.45   88.39 
  -6   3  -2  131.39   13.10 
  -6   3  -2  133.29   14.30 
   6  -3   2  127.09    9.00 
  -7   3  -2    0.70    3.70 
   7  -3   2    1.10    1.10 
  -8   3  -2   26.20    6.30 
  -8   3  -2   38.30   13.30 
   8  -3   2   27.90    3.00 
  -8  -2   2  205.18   18.90 
   7   2  -2    0.40    6.60 
  -7  -2   2    2.40    2.00 
   6   2  -2  768.82   54.89 
  -6  -2   2  655.43   45.80 
  -6  -2   2  720.23   49.00 
  -6  -2   2  766.92   50.39 
   5   2  -2  286.97   18.80 
   5   2  -2  326.07   26.80 
   5   2  -2  302.87   23.30 
  -5  -2   2  286.77   20.30 
  -5  -2   2  323.47   23.00 
   4   2  -2  784.62   53.49 
   4   2  -2  742.83   47.00 
   4   2  -2  789.92   51.19 
  -4  -2   2  819.62   50.09 
  -4  -2   2  736.03   48.30 
   3   2  -2  566.44   39.20 
   3   2  -2  620.84   38.40 
  -3  -2   2  522.85   35.40 
   1   2  -2    6.30    2.30 
   1   2  -2   10.00    2.40 
  -1  -2   2    8.80    2.00 
   0   2  -2  868.21   47.70 
   0  -2   2  690.43   47.20 
  -3   2  -2  294.37   20.50 
  -3   2  -2  327.07   19.70 
   3  -2   2  310.47   19.10 
   3  -2   2  282.77   18.70 
  -4   2  -2   27.00    4.30 
  -5   2  -2  893.21   60.09 
   5  -2   2  958.20   56.69 
  -6   2  -2   80.99   10.00 
   6  -2   2   75.59    5.80 
  -7   2  -2   15.40    5.90 
  -7   2  -2   12.00    4.60 
   7  -2   2   14.10    2.10 
  -8   2  -2   41.90    7.20 
   8  -2   2   29.00    3.00 
   8   1  -2    7.50    7.50 
  -8  -1   2    1.30    2.90 
  -8  -1   2   13.70    5.80 
   7   1  -2    5.40    6.20 
  -7  -1   2    0.60    3.70 
  -7  -1   2    2.10    3.50 
   6   1  -2   36.60    8.80 
  -6  -1   2   43.50    4.50 
  -6  -1   2   31.10    7.40 
   5   1  -2  460.35   29.30 
   5   1  -2  470.15   36.30 
   5   1  -2  494.15   33.90 
  -5  -1   2  459.15   30.50 
  -5  -1   2  509.95   33.40 
   4   1  -2   64.09    7.60 
   4   1  -2   76.09    9.20 
  -4  -1   2   80.99    7.50 
  -4  -1   2   72.29    5.90 
   3   1  -2 2491.05  165.38 
   3   1  -2 2684.53  164.68 
  -3  -1   2 2896.81  164.88 
  -3  -1   2 2653.03  164.08 
   0   1  -2  102.79    7.40 
   0  -1   2   92.49    6.10 
  -2   1  -2 2125.79  113.59 
  -2   1  -2 1896.41  114.09 
   2  -1   2 1587.04  113.99 
  -3   1  -2 2082.89  123.99 
  -3   1  -2 2143.49  125.09 
   3  -1   2 1894.11  123.19 
   3  -1   2 2051.09  123.59 
  -4   1  -2  188.08   14.70 
   4  -1   2  199.78   12.40 
  -5   1  -2  659.93   45.40 
   5  -1   2  693.63   41.70 
  -6   1  -2   72.09   10.80 
   6  -1   2   80.49    5.90 
  -7   1  -2  115.99   13.60 
  -7   1  -2  104.19   13.60 
   7  -1   2   93.59    7.30 
  -8   1  -2   50.19    8.90 
  -8   1  -2   64.49   10.50 
   8  -1   2   44.00    4.00 
  -8   0   2    3.60    2.50 
   7   0  -2  133.59   17.40 
  -7   0   2  143.19   14.20 
  -7   0   2  173.78   16.30 
   6   0  -2 1467.95   94.89 
   6   0  -2 1318.67   90.99 
  -6   0   2 1358.26   86.99 
  -6   0   2 1546.85   91.99 
  -6   0   2 1417.76   91.09 
   5   0  -2  826.92   47.90 
   5   0  -2  747.43   52.09 
  -5   0   2  759.22   48.70 
  -5   0   2  804.42   51.89 
  -5   0   2  792.12   51.79 
   4   0  -2  115.29   10.50 
   4   0  -2  113.49   11.60 
  -4   0   2  113.59    7.90 
  -4   0   2  114.19   10.80 
  -4   0   2  106.39    9.80 
  -4   0   2  114.99    9.70 
   3   0  -2   19.20    3.80 
  -3   0   2   16.20    3.50 
   1   0  -2   61.89    5.90 
  -1   0   2   71.79    4.30 
  -1   0   2   52.79    5.30 
   1   0   2 2142.79  130.79 
  -2   0  -2 1755.62  107.99 
  -3   0  -2 7431.46  449.86 
  -4   0  -2  650.03   40.60 
  -4   0  -2  536.55   40.00 
   4   0   2  636.04   37.30 
  -5   0  -2  142.89   13.40 
   5   0   2  149.39    9.80 
  -6   0  -2   55.89    8.60 
   6   0   2   44.40    4.10 
  -7   0  -2  211.78   19.70 
   7   0   2  170.78   12.40 
  -8   0  -2    4.30    4.10 
  -8   0  -2   -0.60    2.20 
   8   0   2    1.70    1.20 
  -9   1   2   56.09    7.80 
  -9   1   2   82.99   11.50 
   8  -1  -2  218.28   20.90 
  -8   1   2  210.98   18.40 
   7  -1  -2   -6.10    4.50 
  -7   1   2    8.60    5.00 
  -7   1   2    2.70    2.40 
   6  -1  -2 2452.65  154.68 
   6  -1  -2 2245.98  151.58 
  -6   1   2 2572.34  152.28 
  -6   1   2 2334.47  146.89 
  -6   1   2 2529.25  151.88 
   5  -1  -2    6.50    3.90 
  -5   1   2    8.50    1.50 
  -5   1   2    6.50    2.50 
   4  -1  -2 1081.89   75.29 
   4  -1  -2 1193.28   74.59 
  -4   1   2 1261.77   75.59 
  -4   1   2 1184.38   71.09 
  -4   1   2 1113.59   73.29 
  -4   1   2 1184.28   73.59 
   3  -1  -2 2034.90  129.19 
  -3   1   2 2013.30  127.99 
  -3   1   2 2166.88  126.39 
  -3   1   2 2152.58  129.59 
   2  -1  -2 1186.68   74.59 
  -2   1   2 1299.67   72.29 
  -2   1   2 1111.59   73.29 
  -2   1   2 1180.38   74.59 
  -1  -1  -2  250.57   15.90 
   1   1   2  192.48   13.20 
  -2  -1  -2 1585.44   97.59 
   2   1   2 1549.05   94.59 
  -3  -1  -2 5110.09  293.97 
  -3  -1  -2 4526.65  293.47 
  -4  -1  -2 1121.29   75.09 
  -4  -1  -2 1311.37   75.79 
   4   1   2 1038.00   74.49 
   4   1   2 1210.18   71.19 
  -5  -1  -2    5.20    3.80 
  -5  -1  -2    6.20    3.90 
   5   1   2    5.60    1.30 
  -6  -1  -2  162.58   15.80 
  -6  -1  -2  125.39   11.20 
   6   1   2  147.59   10.00 
   7   1   2  187.38   12.60 
  -9   2   2    5.80    4.70 
   8  -2  -2   65.69   12.50 
  -8   2   2   92.39   10.40 
  -8   2   2   93.89   13.00 
  -7   2   2    7.80    3.10 
   6  -2  -2   24.40    5.60 
   6  -2  -2   27.90    7.40 
  -6   2   2   19.80    5.40 
  -6   2   2   18.30    4.50 
   5  -2  -2  545.25   41.00 
   5  -2  -2  548.45   39.80 
  -5   2   2  594.34   39.30 
  -5   2   2  614.14   35.40 
   4  -2  -2 5543.85  330.67 
   4  -2  -2 5301.17  331.57 
   3  -2  -2  481.85   32.70 
  -3   2   2  500.35   29.50 
  -3   2   2  489.15   33.00 
  -3   2   2  461.15   31.30 
   2  -2  -2 2961.90  173.48 
  -2   2   2 2635.94  171.98 
  -2   2   2 2907.91  173.58 
  -1  -2  -2  163.48   13.00 
   1   2   2  160.18   10.80 
  -2  -2  -2  595.94   41.00 
  -2  -2  -2  591.94   40.70 
  -3  -2  -2 2217.78  137.49 
  -3  -2  -2 2206.18  137.29 
   3   2   2 2178.48  132.99 
  -4  -2  -2  369.86   29.00 
  -4  -2  -2  428.16   29.60 
   4   2   2  408.36   24.60 
   4   2   2  359.66   28.30 
  -5  -2  -2  148.39   13.80 
   5   2   2  111.19    8.60 
  -6  -2  -2   29.90    8.20 
  -6  -2  -2   19.00    4.20 
   6   2   2   28.40    3.00 
  -7  -2  -2   19.30    6.40 
  -7  -2  -2    0.80    2.80 
   7   2   2    7.00    1.60 
  -9   3   2    7.90    3.20 
  -9   3   2   16.50    6.00 
   8  -3  -2   96.89   13.20 
  -8   3   2   94.69   12.90 
  -8   3   2   82.89   10.60 
   7  -3  -2   13.70    8.50 
  -7   3   2   -0.70    1.80 
  -7   3   2    3.70    3.80 
   6  -3  -2    4.10    4.20 
  -6   3   2    1.40    2.00 
  -6   3   2    6.60    4.10 
   5  -3  -2 1118.19   74.59 
   5  -3  -2 1206.28   79.49 
   5  -3  -2 1256.17   80.99 
  -5   3   2 1261.07   78.79 
  -5   3   2 1310.87   78.69 
   4  -3  -2 2302.47  149.99 
   4  -3  -2 2370.26  149.19 
  -4   3   2 2672.43  144.79 
  -4   3   2 2484.65  147.89 
  -4   3   2 2156.38  147.59 
   3  -3  -2   98.19   10.30 
   3  -3  -2  115.99   10.30 
  -3   3   2  107.39    6.70 
  -3   3   2   97.79    8.40 
  -3   3   2   94.29    8.80 
  -3   3   2  109.19   10.20 
   2  -3  -2  583.04   36.60 
   2  -3  -2  512.35   36.00 
  -2   3   2  542.55   35.00 
  -2   3   2  560.34   36.70 
  -1  -3  -2  508.25   34.20 
   1   3   2  484.45   31.60 
  -2  -3  -2 2010.60  126.09 
  -2  -3  -2 2125.89  126.39 
   2   3   2 1896.61  126.29 
  -3  -3  -2  464.55   33.00 
  -3  -3  -2  469.95   32.70 
   3   3   2  447.96   27.60 
   3   3   2  398.96   31.40 
  -4  -3  -2    2.90    4.30 
  -4  -3  -2   -1.40    3.50 
   4   3   2    6.10    1.40 
   4   3   2    0.50    4.70 
  -5  -3  -2  697.73   48.90 
   5   3   2  678.13   42.60 
  -6  -3  -2   60.09   10.50 
   6   3   2   75.19    5.70 
  -7  -3  -2    9.80    4.80 
  -7  -3  -2    1.60    4.20 
   7   3   2    2.90    1.10 
  -9   4   2    5.40    4.50 
  -9   4   2    2.40    2.40 
  -8   4   2  434.16   33.30 
  -8   4   2  387.66   30.90 
  -7   4   2    0.80    2.10 
  -7   4   2   -1.80    3.00 
   6  -4  -2 1291.37   87.49 
   6  -4  -2 1221.18   86.39 
  -6   4   2 1337.97   85.89 
  -6   4   2 1427.36   85.99 
   5  -4  -2  455.55   33.50 
   5  -4  -2  446.96   34.30 
  -5   4   2  441.06   32.20 
  -5   4   2  487.45   32.20 
   4  -4  -2 2393.56  142.89 
   4  -4  -2 2262.27  143.39 
  -4   4   2 2189.58  141.09 
   3  -4  -2 2934.91  178.28 
   3  -4  -2 3127.39  177.98 
   3  -4  -2 2638.84  176.18 
  -3   4   2 2659.63  175.98 
  -3   4   2 3009.70  175.78 
   2  -4  -2 6453.95  392.56 
   2  -4  -2 6587.14  395.86 
  -2   4   2 6893.91  393.56 
  -2   4   2 5936.01  391.86 
   1  -4  -2  979.80   60.89 
   1  -4  -2  880.21   62.79 
  -1   4   2  914.31   60.09 
  -1   4   2  991.60   60.59 
   0  -4  -2  105.89   10.60 
   0   4   2  102.89    9.80 
   0   4   2  109.69    9.40 
  -1  -4  -2 6244.98  387.96 
  -1  -4  -2 6434.46  388.06 
   1   4   2 6412.36  385.46 
  -2  -4  -2  567.74   40.10 
  -2  -4  -2  568.14   40.10 
   2   4   2  593.74   39.60 
   2   4   2  568.14   35.20 
   2   4   2  542.45   35.20 
  -3  -4  -2   -3.10    3.10 
  -3  -4  -2   -1.70    2.80 
   3   4   2    1.10    1.00 
   3   4   2   12.20    4.50 
  -4  -4  -2  271.17   22.90 
  -4  -4  -2  278.47   23.00 
   4   4   2  209.18   21.30 
   4   4   2  271.17   16.80 
  -5  -4  -2  345.97   27.70 
   5   4   2  317.17   21.10 
  -6  -4  -2   20.60    6.50 
   6   4   2   10.40    1.80 
  -9   5   2    7.90    4.70 
  -9   5   2    5.70    2.60 
   8  -5  -2   65.19   11.00 
  -8   5   2   77.49   10.10 
  -8   5   2   78.99   11.70 
   7  -5  -2    1.10    4.40 
  -7   5   2    8.10    4.90 
  -7   5   2    1.70    2.40 
   6  -5  -2  184.38   18.90 
  -6   5   2  191.18   17.70 
  -6   5   2  211.08   17.50 
   5  -5  -2   22.60    4.00 
   5  -5  -2   36.90    7.00 
  -5   5   2   16.90    4.30 
  -5   5   2   20.00    5.10 
   4  -5  -2   31.80    7.50 
   4  -5  -2   31.50    5.00 
  -4   5   2   36.70    5.30 
  -4   5   2   34.90    5.50 
   3  -5  -2  995.70   66.39 
   3  -5  -2 1035.00   68.39 
  -3   5   2 1125.39   65.89 
  -3   5   2  992.40   66.39 
   2  -5  -2 2375.66  148.59 
   2  -5  -2 2409.86  147.29 
  -2   5   2 2335.27  146.89 
   1  -5  -2  165.88   15.00 
   1  -5  -2  165.48   14.40 
  -1   5   2  168.68   14.10 
   0  -5  -2   17.50    4.90 
   0  -5  -2   18.90    5.10 
   0   5   2   20.20    4.90 
   0   5   2   13.60    3.90 
  -1  -5  -2 2860.51  179.08 
  -1  -5  -2 2914.01  178.98 
   1   5   2 3021.80  178.48 
   1   5   2 2683.63  176.08 
  -2  -5  -2  966.10   67.19 
  -2  -5  -2 1021.60   67.79 
   2   5   2 1020.70   66.89 
  -3  -5  -2   10.90    4.80 
  -3  -5  -2    5.20    4.60 
   3   5   2    2.00    4.20 
   3   5   2   10.90    1.80 
  -4  -5  -2   10.20    5.50 
   4   5   2   10.20    1.90 
  -5  -5  -2   80.89   14.40 
   5   5   2   43.70    5.70 
  -6  -5  -2    5.30    4.40 
   6   5   2    2.40    1.30 
   9  -6  -2   -5.90    3.70 
  -9   6   2    3.30    2.50 
  -9   6   2   -3.60    3.40 
   8  -6  -2   12.30    7.30 
  -8   6   2    1.00    3.80 
  -8   6   2    1.70    2.40 
   7  -6  -2  147.89   16.40 
  -7   6   2  172.58   15.80 
  -7   6   2  157.98   16.60 
   6  -6  -2  260.17   24.80 
  -6   6   2  277.07   23.80 
  -6   6   2  348.57   25.60 
   5  -6  -2   -1.70    3.70 
   5  -6  -2   -0.70    2.20 
  -5   6   2   -1.10    2.50 
  -5   6   2    3.70    2.10 
   4  -6  -2    0.30    3.20 
  -4   6   2    2.20    2.50 
  -4   6   2    1.40    1.70 
   3  -6  -2  764.42   53.79 
   3  -6  -2  841.12   56.69 
  -3   6   2  895.61   53.59 
  -3   6   2  795.62   54.59 
   2  -6  -2  580.24   40.20 
  -2   6   2  589.74   40.40 
   1  -6  -2   35.70    6.80 
   1  -6  -2   26.30    5.90 
  -1   6   2   27.20    5.30 
  -1   6   2   25.70    2.30 
   0  -6  -2  204.88   16.00 
   0  -6  -2  225.98   19.70 
   0  -6  -2  219.48   19.00 
   0   6   2  218.48   18.40 
  -1  -6  -2   46.90    8.50 
  -1  -6  -2   47.50    9.50 
   1   6   2   46.30    7.60 
  -2  -6  -2  159.08   16.50 
  -2  -6  -2  165.38   16.70 
   2   6   2  140.89   15.40 
  -3  -6  -2  224.48   20.80 
   3   6   2  213.28   14.00 
   3   6   2  186.68   18.90 
  -4  -6  -2  195.58   18.70 
   4   6   2  177.68   12.40 
  -5  -6  -2   -1.90    3.10 
   5   6   2    0.00    0.90 
   9  -7  -2    1.10    3.60 
  -9   7   2    0.70    1.70 
  -9   7   2    3.30    4.10 
   8  -7  -2   32.80    7.90 
  -8   7   2   22.50    5.10 
   7  -7  -2   25.10    7.10 
  -7   7   2   16.60    4.20 
  -7   7   2   16.30    5.90 
   6  -7  -2  276.67   25.20 
  -6   7   2  304.77   24.80 
  -6   7   2  290.27   23.30 
   5  -7  -2   27.40    7.50 
  -5   7   2    7.60    3.00 
  -5   7   2    7.70    4.20 
   4  -7  -2  348.07   27.90 
   4  -7  -2  425.96   32.60 
  -4   7   2  431.96   29.10 
  -4   7   2  419.36   30.60 
   3  -7  -2  216.58   20.00 
   3  -7  -2  212.18   17.60 
  -3   7   2  226.58   19.10 
   2  -7  -2  447.16   33.10 
   2  -7  -2  449.76   35.00 
  -2   7   2  481.05   33.90 
   1  -7  -2  730.63   51.89 
   1  -7  -2  725.13   50.59 
  -1   7   2  743.43   50.49 
   0  -7  -2  660.83   48.10 
   0  -7  -2  627.84   46.70 
   0   7   2  696.73   46.90 
  -1  -7  -2   29.40    7.60 
   1   7   2   17.00    5.80 
  -2  -7  -2   11.50    6.00 
   2   7   2   12.60    6.10 
  -3  -7  -2  298.57   24.80 
   3   7   2  240.38   23.50 
   3   7   2  266.67   17.50 
  -4  -7  -2   53.59    9.40 
   4   7   2   52.79    4.50 
  -8   8   2   21.70    4.70 
  -8   8   2   21.70    7.10 
   7  -8  -2    7.40    5.10 
  -7   8   2    9.90    5.60 
  -7   8   2    6.00    2.90 
   6  -8  -2   18.30    6.10 
  -6   8   2   11.00    5.30 
   5  -8  -2   87.09   12.00 
  -5   8   2   76.39   11.00 
  -5   8   2   80.79    9.60 
   4  -8  -2  445.26   36.00 
  -4   8   2  476.65   35.20 
   3  -8  -2   15.70    4.40 
   3  -8  -2   13.80    6.10 
  -3   8   2   11.20    4.80 
   2  -8  -2   15.60    5.50 
   2  -8  -2   22.20    7.20 
  -2   8   2   24.90    6.90 
  -2   8   2   19.70    2.10 
   1  -8  -2  344.37   28.80 
   1  -8  -2  322.77   26.80 
   1  -8  -2  311.47   24.30 
  -1   8   2  356.66   27.40 
   0  -8  -2  398.66   31.10 
   0  -8  -2  336.47   29.00 
   0   8   2  342.47   30.20 
  -1  -8  -2    2.40    5.00 
   1   8   2    7.50    4.90 
  -2  -8  -2   -1.20    4.40 
   2   8   2    0.20    1.20 
  -3  -8  -2   82.69   11.40 
   3   8   2   65.29    5.40 
   8  -9  -2    5.80    3.30 
  -8   9   2    8.80    2.90 
  -8   9   2   11.80    5.70 
   7  -9  -2   -4.60    5.60 
  -7   9   2   -0.40    1.70 
   6  -9  -2   63.99   11.30 
  -6   9   2   83.39   11.90 
  -6   9   2   84.19    9.80 
   5  -9  -2   35.90    8.90 
  -5   9   2   36.60    8.50 
   4  -9  -2  277.37   25.50 
  -4   9   2  299.37   25.10 
   3  -9  -2   -2.90    4.30 
  -3   9   2    5.60    4.70 
  -3   9   2    4.00    1.20 
   2  -9  -2   61.99   11.60 
   2  -9  -2   77.19    9.20 
   2  -9  -2   78.59   12.00 
  -2   9   2   70.99   10.60 
   1  -9  -2  170.48   18.00 
   1  -9  -2  134.29   13.20 
  -1   9   2  144.89   15.90 
   0  -9  -2   90.89   13.20 
   0   9   2   82.89   11.80 
  -1  -9  -2   56.29   10.50 
   1   9   2   53.19   10.40 
  -2  -9  -2   17.00    6.30 
   2   9   2   18.10    2.40 
   7 -10  -2    3.90    3.30 
  -7  10   2    3.40    3.80 
   6 -10  -2   76.89   11.30 
   5 -10  -2   25.90    7.40 
  -5  10   2   13.80    5.80 
   4 -10  -2   34.30    7.70 
   4 -10  -2   29.50    8.20 
  -4  10   2   48.40    9.00 
  -4  10   2   35.10    3.20 
   3 -10  -2   29.00    6.70 
   3 -10  -2   30.50    8.00 
  -3  10   2   25.60    7.70 
   2 -10  -2   72.19   12.10 
   2 -10  -2   62.19    8.90 
  -2  10   2   78.59   11.10 
   1 -10  -2    5.00    5.10 
  -1  10   2    3.90    4.50 
   0 -10  -2   -1.80    4.80 
   0  10   2   -0.40    4.70 
  -1 -10  -2   63.79    9.80 
   1  10   2   52.19    4.50 
   1  10   2   35.80   11.40 
   6 -11  -2   21.30    7.10 
   6 -11  -2   15.80    5.10 
  -6  11   2   11.80    5.40 
   5 -11  -2   -0.60    4.90 
   5 -11  -2    4.00    3.60 
  -5  11   2    1.20    4.20 
  -5  11   2    0.20    1.50 
   4 -11  -2   24.40    5.80 
   4 -11  -2   37.20    8.00 
  -4  11   2   29.30    7.50 
   3 -11  -2   47.10    7.40 
   3 -11  -2   35.60    9.00 
  -3  11   2   45.40    8.80 
   2 -11  -2   24.60    7.30 
  -2  11   2   29.10    7.40 
   1 -11  -2   11.90    5.40 
  -1  11   2   20.00    6.50 
   0 -11  -2    0.30    3.80 
   0  11   2    3.20    6.80 
   4 -12  -2   16.70    6.40 
   4 -12  -2    1.00    6.30 
  -4  12   2   26.90    6.40 
  -3  12   2   12.10    6.10 
  -1  13  -3   88.89   12.10 
  -2  13  -3    8.10    4.90 
  -3  13  -3   24.60    7.30 
   3 -13   3   18.10    5.30 
  -4  13  -3    3.30    4.00 
   4 -13   3    0.30    3.00 
  -5  13  -3   38.10    8.60 
   5 -13   3   45.60    7.40 
   1  12  -3  170.28   18.00 
   0  12  -3   65.99   11.40 
   1 -12   3  120.19   12.40 
  -2  12  -3   55.09   10.20 
   2 -12   3   58.59    8.80 
  -3  12  -3  372.36   31.00 
   3 -12   3  377.46   29.10 
  -4  12  -3   10.50    7.60 
   4 -12   3    5.90    4.50 
  -5  12  -3   60.39   10.30 
   5 -12   3   54.19    8.40 
  -6  12  -3    4.80    5.00 
   6 -12   3    5.50    3.30 
   2  11  -3   13.40    6.10 
  -2 -11   3   20.20    6.60 
   1  11  -3   70.69   11.90 
  -1 -11   3   57.99    8.20 
   0  11  -3   78.69   11.50 
   0 -11   3   77.29    8.40 
   0 -11   3   52.29    6.90 
   0 -11   3   54.69    8.20 
  -1  11  -3  159.58   18.10 
   1 -11   3  183.08   16.10 
  -2  11  -3   40.00    9.20 
   2 -11   3   64.69    8.80 
  -3  11  -3  168.38   17.70 
   3 -11   3  167.18   16.20 
  -4  11  -3   15.20    6.10 
   4 -11   3   17.20    5.60 
  -5  11  -3  104.19   13.10 
   5 -11   3   91.39   11.50 
  -6  11  -3   52.79    8.30 
  -6  11  -3   65.99   10.70 
   6 -11   3   65.59    8.90 
  -7  11  -3    2.30    2.00 
  -7  11  -3    2.60    4.30 
   7 -11   3    5.40    3.30 
   3  10  -3  205.58   14.10 
   3  10  -3  245.68   23.10 
  -3 -10   3  216.38   17.20 
   2  10  -3    6.00    5.50 
  -2 -10   3    7.30    3.30 
  -2 -10   3   10.20    4.00 
   1  10  -3  103.69   14.50 
  -1 -10   3  115.39   10.90 
  -1 -10   3  102.49    9.40 
   0  10  -3   -0.30    3.70 
   0 -10   3   -2.60    1.80 
   0 -10   3   -2.00    5.00 
   0 -10   3    2.30    3.30 
  -1  10  -3  392.06   29.40 
   1 -10   3  316.57   22.80 
   1 -10   3  354.56   31.10 
   1 -10   3  343.87   25.20 
  -2  10  -3   28.60    7.00 
   2 -10   3   28.90    6.70 
  -3  10  -3   -2.40    3.20 
   3 -10   3   -1.90    2.60 
  -4  10  -3   -3.30    2.80 
  -4  10  -3   -0.60    1.40 
   4 -10   3    1.00    2.70 
  -5  10  -3  130.29   14.40 
   5 -10   3  117.89   13.20 
  -6  10  -3   24.10    7.00 
   6 -10   3   22.90    6.30 
  -7  10  -3   24.70    7.30 
  -7  10  -3   42.50    9.00 
   7 -10   3   28.40    6.10 
   4   9  -3   28.80    2.70 
   4   9  -3   43.60   10.80 
  -4  -9   3   23.60    5.20 
   3   9  -3   22.40    8.00 
  -3  -9   3   17.10    4.70 
  -3  -9   3   11.70    3.60 
   2   9  -3  568.94   41.30 
  -2  -9   3  426.26   32.80 
  -2  -9   3  517.35   34.90 
   1   9  -3  333.17   28.40 
  -1  -9   3  359.16   25.00 
  -1  -9   3  357.36   24.50 
  -1  -9   3  283.57   22.50 
   0   9  -3  166.08   16.90 
   0  -9   3  153.98   12.20 
   0  -9   3  185.68   15.10 
   0  -9   3  162.98   14.30 
  -1   9  -3  907.81   59.49 
   1  -9   3  793.92   53.89 
   1  -9   3  925.21   57.79 
   1  -9   3  854.81   56.29 
  -2   9  -3  669.73   46.00 
   2  -9   3  675.43   40.30 
   2  -9   3  555.54   43.60 
   2  -9   3  700.53   45.10 
  -3   9  -3 1204.98   79.79 
  -3   9  -3 1273.27   82.69 
   3  -9   3 1312.97   82.09 
  -4   9  -3    1.10    1.60 
   4  -9   3   -1.10    2.40 
  -5   9  -3  259.17   20.80 
  -5   9  -3  274.67   23.20 
   5  -9   3  274.17   22.40 
  -6   9  -3   36.30    6.00 
  -6   9  -3   39.50    7.70 
   6  -9   3   34.20    7.30 
  -7   9  -3   81.69   11.50 
  -7   9  -3   75.79    9.30 
   7  -9   3   78.29   12.30 
  -8   9  -3    4.10    2.30 
  -8   9  -3   11.30    4.90 
   8  -9   3    0.20    5.60 
   5   8  -3   19.80    7.30 
  -5  -8   3   15.90    4.90 
   4   8  -3   23.10    8.50 
   4   8  -3   30.30    3.00 
  -4  -8   3   39.40    5.80 
  -4  -8   3   33.90    6.80 
   3   8  -3  521.15   39.30 
  -3  -8   3  462.25   32.40 
  -3  -8   3  398.76   30.40 
   2   8  -3  671.23   46.10 
  -2  -8   3  623.34   40.40 
  -2  -8   3  490.35   37.90 
   1   8  -3  400.66   31.00 
  -1  -8   3  386.16   27.50 
  -1  -8   3  374.76   27.50 
   0   8  -3  486.55   34.40 
   0  -8   3  404.76   29.60 
   0  -8   3  476.35   32.10 
   0  -8   3  482.95   32.00 
  -1   8  -3  896.71   58.09 
   1  -8   3  829.22   53.49 
   1  -8   3  847.42   56.49 
   1  -8   3  886.61   55.79 
   2  -8   3   49.60    4.10 
   2  -8   3   52.99    7.30 
   2  -8   3   52.39    7.00 
  -3   8  -3 1198.68   75.79 
  -3   8  -3 1180.18   78.09 
   3  -8   3 1247.08   78.09 
  -4   8  -3   56.19    6.60 
  -4   8  -3   63.09    8.30 
   4  -8   3   48.00    4.80 
   4  -8   3   56.19    7.50 
  -5   8  -3  564.94   39.90 
  -5   8  -3  543.65   38.50 
   5  -8   3  563.94   39.40 
  -6   8  -3  192.88   17.50 
  -6   8  -3  202.78   18.60 
   6  -8   3  203.38   17.40 
  -7   8  -3  178.48   17.10 
  -7   8  -3  192.68   18.20 
   7  -8   3  188.08   16.10 
  -8   8  -3   22.90    6.50 
  -8   8  -3    8.90    3.20 
   6   7  -3   90.79   14.60 
  -6  -7   3   93.29   10.50 
   5   7  -3   37.20   10.60 
   5   7  -3   38.50    3.40 
  -5  -7   3   43.30    7.50 
   4   7  -3  313.47   20.90 
   4   7  -3  361.16   31.80 
  -4  -7   3  312.77   23.30 
  -4  -7   3  348.27   25.20 
   3   7  -3  630.94   45.70 
  -3  -7   3  501.55   37.20 
  -3  -7   3  597.74   39.30 
   2   7  -3    2.60    3.80 
   2   7  -3   -0.60    4.00 
  -2  -7   3    7.40    3.40 
  -2  -7   3    3.60    3.20 
  -2  -7   3    2.30    2.80 
  -2  -7   3    2.10    1.70 
   1   7  -3 1855.21  116.19 
  -1  -7   3 1817.02  113.29 
  -1  -7   3 1787.42  113.39 
   0   7  -3   64.09    8.00 
   0  -7   3   65.99    7.10 
   0  -7   3   55.59    6.90 
   0  -7   3   54.89    5.20 
  -1   7  -3 2397.96  150.98 
   1  -7   3 2353.86  149.29 
   1  -7   3 2497.45  150.38 
   1  -7   3 2477.75  147.59 
  -2   7  -3  251.67   23.00 
  -2   7  -3  317.27   22.80 
   2  -7   3  360.96   23.10 
  -3   7  -3 1077.69   66.29 
  -3   7  -3 1072.29   67.69 
   3  -7   3 1142.69   68.09 
   3  -7   3  918.21   64.39 
  -4   7  -3   34.80    6.00 
  -4   7  -3   30.40    5.20 
   4  -7   3   42.20    5.90 
   4  -7   3   39.20    3.70 
  -5   7  -3  151.08   13.50 
  -5   7  -3  143.39   13.20 
   5  -7   3  112.19    9.50 
   5  -7   3  148.39   13.20 
  -6   7  -3    1.00    2.40 
  -6   7  -3    1.20    3.30 
   6  -7   3   -2.10    3.40 
   6  -7   3    0.00    1.10 
  -7   7  -3   97.59   11.70 
  -7   7  -3   85.39   10.70 
   7  -7   3   85.79    9.00 
   7  -7   3   61.29    6.10 
  -8   7  -3    9.10    3.40 
  -8   7  -3    0.00    3.90 
   8  -7   3    4.20    1.40 
   6   6  -3   12.80    8.10 
  -6  -6   3   11.90    4.80 
   5   6  -3  435.26   28.70 
   5   6  -3  542.95   41.90 
  -5  -6   3  475.85   33.70 
  -5  -6   3  434.76   31.10 
   4   6  -3  310.37   20.30 
  -4  -6   3  357.36   24.90 
  -4  -6   3  300.37   22.40 
   3   6  -3  367.56   29.60 
   3   6  -3  326.57   27.60 
  -3  -6   3  351.36   24.40 
  -3  -6   3  291.87   22.40 
   2   6  -3  174.98   17.10 
   2   6  -3  221.98   17.90 
  -2  -6   3  156.38   14.20 
  -2  -6   3  178.98   14.50 
  -2  -6   3  188.38   14.50 
   1   6  -3 7345.36  437.86 
  -1  -6   3 6938.21  435.36 
  -1  -6   3 7277.37  435.56 
   0   6  -3 3000.10  179.68 
   0  -6   3 2991.80  178.48 
   0  -6   3 2754.02  176.58 
  -1   6  -3  320.77   25.00 
  -1   6  -3  392.66   24.00 
  -1   6  -3  393.16   26.10 
   1  -6   3  382.26   25.70 
   1  -6   3  373.16   23.50 
  -2   6  -3  230.88   16.70 
  -2   6  -3  227.18   15.60 
   2  -6   3  209.98   14.50 
   2  -6   3  227.78   16.80 
  -3   6  -3 3622.64  225.08 
  -3   6  -3 3634.54  224.68 
   3  -6   3 3731.63  225.68 
   3  -6   3 3752.92  222.78 
  -4   6  -3   18.80    4.30 
  -4   6  -3   16.70    3.70 
   4  -6   3   23.40    2.60 
   4  -6   3   19.00    4.90 
  -5   6  -3  497.25   34.40 
  -5   6  -3  513.15   35.10 
   5  -6   3  450.55   30.60 
   5  -6   3  490.75   33.90 
  -6   6  -3    0.20    1.90 
  -6   6  -3   -1.80    2.60 
   6  -6   3   -4.00    1.90 
   6  -6   3    2.90    1.40 
  -7   6  -3  117.49   12.70 
  -7   6  -3  107.49   12.80 
   7  -6   3   83.49    7.40 
  -8   6  -3   21.10    5.30 
  -8   6  -3   26.20    7.30 
   7   5  -3   43.00   10.30 
  -7  -5   3   38.50    7.50 
   6   5  -3  129.79   17.80 
  -6  -5   3   93.49    9.00 
  -6  -5   3  105.69   11.90 
   5   5  -3  596.44   38.80 
   5   5  -3  734.13   52.19 
  -5  -5   3  587.94   41.10 
  -5  -5   3  647.34   43.70 
   4   5  -3 1249.47   80.69 
   4   5  -3 1410.56   91.59 
   4   5  -3 1304.47   88.09 
  -4  -5   3 1253.67   82.59 
  -4  -5   3 1436.06   84.79 
   3   5  -3  389.36   30.20 
   3   5  -3  404.96   31.30 
  -3  -5   3  396.36   26.20 
  -3  -5   3  339.37   25.20 
  -3  -5   3  389.26   26.70 
   2   5  -3 1092.39   68.69 
   2   5  -3 1017.40   68.29 
  -2  -5   3 1004.90   65.49 
  -2  -5   3 1033.80   65.39 
   1   5  -3 2244.48  130.39 
  -1  -5   3 1894.11  126.99 
  -1  -5   3 2134.59  128.49 
   0   5  -3  502.65   33.10 
   0  -5   3  468.05   29.80 
   0  -5   3  458.75   31.10 
  -1   5  -3 2510.85  152.68 
  -1   5  -3 2374.16  153.08 
   1  -5   3 2805.42  152.18 
   1  -5   3 2545.25  154.18 
   1  -5   3 2347.07  152.18 
  -2   5  -3  187.78   14.10 
  -2   5  -3  184.88   16.10 
   2  -5   3  188.08   15.60 
   2  -5   3  223.48   12.60 
   2  -5   3  211.58   13.10 
  -3   5  -3 1869.91  114.69 
  -3   5  -3 1708.23  114.09 
   3  -5   3 2013.40  112.39 
   3  -5   3 1817.82  114.79 
  -4   5  -3   11.90    3.30 
  -4   5  -3    7.50    2.40 
   4  -5   3    8.60    1.60 
   4  -5   3    7.10    2.80 
  -5   5  -3 1300.87   81.19 
  -5   5  -3 1244.18   82.09 
   5  -5   3 1254.97   80.29 
  -6   5  -3  120.09   13.30 
  -6   5  -3  122.79   12.20 
   6  -5   3  101.39    7.90 
   6  -5   3  103.59   10.10 
  -7   5  -3  105.69   12.30 
  -7   5  -3   89.49   11.20 
   7  -5   3   68.39    6.20 
  -8   5  -3   80.39   11.30 
   8  -5   3   63.29    5.40 
   7   4  -3    1.30    6.80 
  -7  -4   3    4.90    4.00 
   6   4  -3    5.80    6.10 
  -6  -4   3   -1.90    3.20 
  -6  -4   3   -2.00    1.90 
   5   4  -3  162.48   18.90 
   5   4  -3  153.78    9.20 
  -5  -4   3  134.49   13.30 
  -5  -4   3  117.59   11.50 
  -5  -4   3  131.49   11.10 
   4   4  -3  139.09   14.20 
   4   4  -3  130.09   15.20 
   4   4  -3  122.39    8.40 
  -4  -4   3  136.89   11.60 
  -4  -4   3  121.79   10.10 
   3   4  -3 1031.30   64.89 
   3   4  -3  945.81   64.99 
  -3  -4   3  881.61   59.89 
  -3  -4   3  997.70   62.49 
  -3  -4   3  973.80   61.09 
   2   4  -3  638.04   40.90 
   2   4  -3  604.14   40.60 
  -2  -4   3  516.85   36.90 
  -2  -4   3  611.94   38.10 
  -1  -4   3  381.56   24.20 
   0   4  -3 1574.24  101.59 
   0  -4   3 1736.43  100.49 
  -2   4  -3   66.99    7.30 
  -2   4  -3   60.19    6.20 
   2  -4   3   85.79    5.20 
   2  -4   3   77.79    4.80 
  -3   4  -3  414.36   29.80 
   3  -4   3  475.65   26.80 
   3  -4   3  401.36   28.70 
  -4   4  -3 1863.11  111.19 
  -4   4  -3 1667.93  108.99 
   4  -4   3 1850.91  106.79 
   4  -4   3 1665.63  108.99 
  -5   4  -3  944.21   60.79 
   5  -4   3  984.20   57.39 
   5  -4   3  874.61   59.29 
  -6   4  -3    4.70    2.90 
  -6   4  -3    4.50    3.60 
   6  -4   3    9.30    1.90 
  -7   4  -3   30.30    7.20 
   7  -4   3   30.90    3.20 
  -8   4  -3    9.70    5.30 
  -8   4  -3    8.30    4.40 
  -8  -3   3    2.00    3.50 
   7   3  -3  142.79   19.30 
  -7  -3   3  152.58   15.40 
   6   3  -3  223.58   24.50 
  -6  -3   3  201.68   16.80 
  -6  -3   3  207.78   16.20 
  -6  -3   3  228.08   19.10 
   5   3  -3  124.69   15.70 
   5   3  -3  109.49   13.10 
  -5  -3   3  113.59    9.30 
  -5  -3   3  123.09   11.50 
  -5  -3   3  103.89   10.20 
   4   3  -3   74.69   10.40 
   4   3  -3   77.89   11.20 
   4   3  -3   67.19    4.50 
  -4  -3   3   57.19    5.80 
  -4  -3   3   62.39    6.60 
   3   3  -3 2709.43  154.08 
   3   3  -3 2399.66  153.88 
  -3  -3   3 2441.26  150.38 
  -3  -3   3 2290.77  149.39 
   2   3  -3 1326.17   86.49 
   2   3  -3 1434.46   86.89 
  -2  -3   3 1347.77   83.59 
   1   3  -3   18.30    3.90 
  -1  -3   3   19.30    2.30 
   0   3  -3  830.32   52.09 
   0  -3   3  859.11   51.49 
  -2   3  -3  228.28   15.80 
   2  -3   3  216.68   13.70 
  -3   3  -3 3180.98  199.38 
   3  -3   3 3328.07  197.28 
   3  -3   3 3287.97  196.98 
  -4   3  -3  586.84   40.10 
  -4   3  -3  647.84   40.70 
   4  -3   3  620.74   37.90 
  -5   3  -3  827.52   55.09 
   5  -3   3  857.91   51.69 
  -6   3  -3    1.70    3.30 
   6  -3   3    1.80    1.10 
  -7   3  -3   43.80    8.20 
  -7   3  -3   20.90    5.80 
   7  -3   3   32.70    3.30 
  -8   3  -3    2.70    4.20 
  -8   3  -3    3.00    3.10 
   8  -3   3    3.70    1.30 
   8   2  -3   43.90   10.90 
  -8  -2   3   64.59    9.30 
   7   2  -3  353.06   30.90 
  -7  -2   3  322.37   25.30 
  -7  -2   3  250.87   21.90 
   6   2  -3  930.51   62.99 
  -6  -2   3  772.82   57.39 
  -6  -2   3  806.52   52.09 
  -6  -2   3  824.72   54.59 
   5   2  -3   -3.30    2.90 
   5   2  -3    8.70    5.20 
  -5  -2   3    0.60    2.40 
  -5  -2   3    0.20    1.30 
  -5  -2   3    1.80    1.70 
   4   2  -3  131.19   12.90 
   4   2  -3  133.19   14.00 
  -4  -2   3  142.89   10.60 
  -4  -2   3  137.39   11.30 
  -4  -2   3  129.89    9.80 
  -4  -2   3  132.29   10.80 
   2   2  -3  267.77   19.80 
  -2  -2   3  263.17   17.00 
   1   2  -3 2739.23  156.78 
   1   2  -3 2414.16  158.68 
   0  -2   3  565.04   34.50 
  -1   2  -3 1732.73  105.69 
  -2   2  -3  426.16   27.40 
  -2   2  -3  436.86   27.60 
  -3   2  -3 2500.65  157.78 
  -3   2  -3 2682.43  157.88 
   3  -2   3 2522.55  156.58 
   3  -2   3 2675.03  156.88 
  -4   2  -3  433.76   26.80 
  -4   2  -3  393.86   27.20 
   4  -2   3  383.36   24.90 
  -5   2  -3   16.40    4.40 
   5  -2   3   15.30    2.00 
   6  -2   3  317.87   21.50 
  -7   2  -3  259.67   22.40 
  -7   2  -3  249.28   23.50 
   7  -2   3  226.78   15.90 
  -8   2  -3    3.30    2.90 
   8  -2   3    0.70    1.00 
   8   1  -3   16.30    7.90 
   7   1  -3   26.90    9.00 
  -7  -1   3   26.90    7.00 
  -7  -1   3   15.00    3.80 
   6   1  -3   -4.50    5.00 
   6   1  -3    7.20    5.40 
  -6  -1   3    3.50    1.80 
  -6  -1   3    6.10    4.00 
  -6  -1   3    1.80    2.00 
   5   1  -3  182.08   18.30 
   5   1  -3  168.08   16.00 
  -5  -1   3  184.28   12.50 
  -5  -1   3  183.88   14.40 
  -5  -1   3  171.98   14.80 
   4   1  -3  475.35   33.80 
   4   1  -3  460.05   34.90 
  -4  -1   3  487.85   31.80 
  -4  -1   3  474.75   32.00 
  -4  -1   3  495.05   30.30 
   3   1  -3   17.10    4.10 
   3   1  -3   20.80    5.10 
  -3  -1   3   20.20    2.50 
  -3  -1   3   25.60    4.30 
  -3  -1   3   20.50    2.90 
   2   1  -3    4.40    2.30 
  -2  -1   3    6.80    2.30 
   0   1  -3  341.57   21.90 
   0  -1   3  327.47   20.50 
  -1   1  -3   85.79    6.10 
  -1   1  -3   72.69    6.80 
   1  -1   3   83.79    5.40 
  -2   1  -3 2293.47  140.29 
  -3   1  -3 4967.80  315.97 
  -3   1  -3 5460.55  316.57 
  -4   1  -3  301.07   23.70 
  -4   1  -3  280.17   21.40 
   4  -1   3  322.37   19.00 
  -5   1  -3   15.00    4.30 
  -5   1  -3   18.20    4.80 
   5  -1   3   18.20    2.00 
  -6   1  -3   58.19    9.00 
   6  -1   3   62.79    5.00 
  -7   1  -3  207.98   18.90 
   7  -1   3  169.38   12.40 
  -8   1  -3   10.10    5.10 
  -8   1  -3   12.70    4.40 
   8  -1   3    6.90    1.70 
  -9   0   3    0.90    4.10 
   8   0  -3    2.50    6.50 
   7   0  -3    1.20    5.20 
  -7   0   3    0.60    2.10 
  -7   0   3   -0.60    3.20 
   6   0  -3    8.70    7.50 
   6   0  -3    9.80    5.30 
  -6   0   3    2.70    2.30 
  -6   0   3    3.70    4.00 
  -6   0   3    6.00    1.70 
   5   0  -3 1063.59   70.19 
   5   0  -3  990.00   71.59 
  -5   0   3 1091.19   68.79 
  -5   0   3 1120.99   68.49 
  -5   0   3 1068.99   65.59 
   4   0  -3 1947.51  126.19 
   4   0  -3 1936.71  125.19 
  -4   0   3 2096.99  121.39 
  -4   0   3 2051.59  123.39 
  -4   0   3 1958.70  123.49 
   3   0  -3  646.94   48.20 
   3   0  -3  717.53   47.00 
  -3   0   3  707.83   45.00 
  -3   0   3  752.42   43.90 
  -3   0   3  744.13   47.00 
   2   0  -3 1950.10  106.39 
  -2   0   3 1456.65  102.99 
  -2   0   3 1607.74  104.79 
  -2   0   3 1781.32  102.59 
  -1   0  -3    3.00    2.00 
  -2   0  -3  116.89   10.90 
   2   0   3  144.39    8.50 
  -3   0  -3 4881.71  289.07 
  -3   0  -3 4289.97  288.37 
   3   0   3 5047.69  285.87 
  -4   0  -3  185.98   15.20 
   4   0   3  178.58   11.70 
  -5   0  -3  289.47   23.90 
   5   0   3  329.07   19.90 
  -6   0  -3    2.10    3.70 
   6   0   3    0.60    1.00 
   7   0   3   23.80    2.90 
  -9   1   3   -5.30    3.70 
  -9   1   3    3.40    2.50 
   8  -1  -3  555.74   45.40 
  -8   1   3  635.44   44.30 
   7  -1  -3    0.00    4.70 
  -7   1   3   -0.70    1.60 
   6  -1  -3  309.67   27.20 
  -6   1   3  309.97   24.10 
  -6   1   3  312.37   23.60 
  -6   1   3  312.77   19.90 
   5  -1  -3 1620.44  107.79 
  -5   1   3 1719.63  103.09 
  -5   1   3 1745.73  106.29 
   4  -1  -3 5698.63  343.97 
   4  -1  -3 5696.73  344.97 
  -4   1   3 5514.45  342.07 
   3  -1  -3 2612.04  161.38 
   3  -1  -3 2445.36  161.28 
  -3   1   3 2782.82  161.48 
  -3   1   3 2603.64  159.08 
   2  -1  -3  428.06   28.80 
  -2   1   3  380.36   26.90 
  -2   1   3  466.75   26.10 
  -2   1   3  416.76   28.50 
   0  -1  -3   15.20    2.40 
   0  -1  -3   16.60    3.70 
   0   1   3   15.30    2.20 
   0   1   3   15.60    1.70 
  -2  -1  -3  334.07   23.80 
  -2  -1  -3  336.27   23.90 
   2   1   3  321.07   20.30 
  -3  -1  -3  202.48   17.10 
  -3  -1  -3  193.98   16.80 
   3   1   3  213.68   13.50 
   3   1   3  226.38   13.40 
  -4  -1  -3  416.56   30.10 
  -4  -1  -3  387.16   29.60 
   4   1   3  415.66   25.40 
  -5  -1  -3  745.23   46.70 
  -5  -1  -3  554.24   44.80 
   5   1   3  647.54   40.10 
  -6  -1  -3    3.70    4.20 
   6   1   3    3.50    1.30 
  -7  -1  -3    3.40    4.10 
   7   1   3    0.50    0.90 
  -9   2   3   21.80    4.50 
   8  -2  -3  171.78   19.70 
  -8   2   3  168.48   16.00 
  -8   2   3  192.68   18.80 
   7  -2  -3   11.70    6.90 
  -7   2   3   15.20    5.60 
  -7   2   3    7.60    3.00 
   6  -2  -3    0.90    4.00 
   6  -2  -3    6.70    4.80 
  -6   2   3    4.40    3.80 
  -6   2   3    2.60    2.10 
   5  -2  -3  276.17   22.50 
   5  -2  -3  261.17   30.30 
  -5   2   3  297.97   18.80 
  -5   2   3  279.07   20.90 
   4  -2  -3   24.10    5.20 
   4  -2  -3   31.70    7.00 
  -4   2   3   21.60    3.80 
  -4   2   3   23.10    2.20 
  -4   2   3   23.90    4.40 
   3  -2  -3  115.09   11.20 
   3  -2  -3  119.99   11.20 
  -3   2   3  101.69    9.30 
  -3   2   3  121.99   11.00 
  -3   2   3  120.09    9.20 
   2  -2  -3 2460.25  147.09 
  -2   2   3 2373.26  146.89 
  -2   2   3 2324.37  145.29 
   1  -2  -3   54.49    5.60 
   1  -2  -3   46.90    6.10 
  -1   2   3   50.29    5.30 
  -1   2   3   50.29    3.80 
   0  -2  -3  950.70   60.69 
   0   2   3  935.21   58.59 
  -1  -2  -3 8203.58  497.45 
  -2  -2  -3 3139.09  196.18 
  -2  -2  -3 3056.39  196.08 
   2   2   3 3334.97  191.78 
  -3  -2  -3   81.99    9.60 
  -3  -2  -3   80.49    9.80 
   3   2   3   87.89    5.90 
   3   2   3   81.79    5.80 
  -4  -2  -3  516.85   37.30 
  -4  -2  -3  483.65   37.00 
   4   2   3  522.75   31.70 
  -5  -2  -3  720.53   55.39 
  -5  -2  -3  888.71   57.29 
   5   2   3  815.72   49.80 
  -6  -2  -3   79.39   11.50 
   6   2   3   73.79    5.90 
  -7  -2  -3    4.60    4.70 
   7   2   3    5.40    1.30 
   9  -3  -3    0.30    7.70 
  -9   3   3    1.50    2.10 
  -9   3   3   -0.10    3.40 
   8  -3  -3   14.90    7.20 
  -8   3   3   13.40    3.70 
  -8   3   3   18.00    6.00 
   7  -3  -3  113.49   15.30 
  -7   3   3  129.19   13.90 
  -7   3   3  120.79   12.70 
   6  -3  -3  364.36   31.30 
   6  -3  -3  376.36   29.80 
  -6   3   3  392.56   28.20 
  -6   3   3  386.56   28.80 
   5  -3  -3    6.90    3.60 
   5  -3  -3   18.70    6.30 
  -5   3   3    5.40    3.00 
  -5   3   3    6.70    1.10 
  -5   3   3    7.10    2.30 
   4  -3  -3  297.77   24.30 
   4  -3  -3  303.87   23.60 
  -4   3   3  281.27   21.90 
  -4   3   3  328.87   19.10 
  -4   3   3  311.07   21.70 
   3  -3  -3 3972.20  239.88 
   3  -3  -3 4003.50  240.58 
  -3   3   3 4063.49  237.68 
  -3   3   3 3586.74  238.68 
   2  -3  -3 2782.62  163.48 
   2  -3  -3 2609.24  163.98 
   2  -3  -3 2413.26  163.18 
  -2   3   3 2683.03  166.68 
  -2   3   3 2755.42  161.68 
   1  -3  -3  116.79    9.80 
   1  -3  -3  105.79   10.30 
   1  -3  -3  103.59   10.50 
  -1   3   3  122.89   10.00 
   0  -3  -3   19.50    4.80 
   0  -3  -3   27.20    5.30 
   0   3   3   17.20    3.10 
  -1  -3  -3 2780.52  175.28 
  -1  -3  -3 2926.71  175.78 
   1   3   3 2784.52  171.68 
  -2  -3  -3 1683.93  104.79 
  -2  -3  -3 1588.84  104.39 
  -3  -3  -3  110.49   12.80 
  -3  -3  -3  111.79   13.30 
   3   3   3  120.99   12.40 
   3   3   3  126.49    8.20 
  -4  -3  -3   26.40    6.90 
   4   3   3   19.70    3.10 
  -5  -3  -3  107.89   13.20 
   5   3   3  107.39    7.90 
  -6  -3  -3    3.10    4.70 
   6   3   3    0.50    1.00 
   9  -4  -3   -1.70    7.50 
  -9   4   3    3.00    1.90 
  -9   4   3    5.60    4.30 
   8  -4  -3   61.49   11.30 
  -8   4   3   67.29    9.10 
  -8   4   3   81.99   11.30 
   7  -4  -3  376.96   33.70 
  -7   4   3  443.46   31.60 
  -7   4   3  427.06   32.50 
   6  -4  -3 1185.38   83.49 
  -6   4   3 1303.97   80.59 
  -6   4   3 1231.88   81.09 
   5  -4  -3   -1.20    2.90 
   5  -4  -3    0.40    2.60 
  -5   4   3    1.10    1.60 
  -5   4   3    2.80    2.50 
   4  -4  -3  260.37   21.40 
   4  -4  -3  264.37   21.00 
  -4   4   3  257.07   18.70 
  -4   4   3  230.58   18.90 
   3  -4  -3 6143.58  354.86 
   3  -4  -3 5976.10  355.46 
   3  -4  -3 5563.34  353.86 
  -3   4   3 5547.75  352.76 
   2  -4  -3 2297.17  144.09 
   2  -4  -3 2356.76  144.89 
  -2   4   3 2288.37  142.79 
   1  -4  -3  868.61   56.99 
   1  -4  -3  855.41   56.69 
  -1   4   3  885.51   55.79 
  -1   4   3  807.62   51.99 
  -1   4   3  871.51   55.29 
   0  -4  -3    8.00    3.70 
   0  -4  -3    5.50    3.40 
   0   4   3    3.70    2.40 
  -1  -4  -3  744.53   49.80 
  -1  -4  -3  731.83   49.80 
   1   4   3  725.53   47.70 
   1   4   3  686.73   45.50 
  -2  -4  -3  118.79   12.90 
   2   4   3  106.79   11.40 
  -3  -4  -3  561.34   40.80 
  -3  -4  -3  531.15   40.00 
   3   4   3  528.95   33.50 
  -4  -4  -3   13.20    5.90 
   4   4   3   18.10    2.60 
  -5  -4  -3    6.80    4.50 
   5   4   3    8.60    1.80 
  -6  -4  -3  142.89   14.80 
   6   4   3  121.89    8.90 
  -9   5   3    6.30    2.60 
  -9   5   3   16.00    5.80 
   8  -5  -3   75.09   12.50 
  -8   5   3  111.39   13.20 
  -8   5   3  102.99   11.20 
   7  -5  -3  110.69   14.50 
  -7   5   3  115.19   12.40 
  -7   5   3  124.69   13.90 
   6  -5  -3  137.99   17.60 
   6  -5  -3  136.89   16.20 
  -6   5   3  146.39   14.50 
  -6   5   3  138.39   13.70 
   5  -5  -3  474.65   37.60 
  -5   5   3  520.05   34.90 
  -5   5   3  491.15   35.30 
   4  -5  -3  279.67   23.90 
   4  -5  -3  333.87   26.60 
  -4   5   3  321.27   24.30 
  -4   5   3  367.06   24.20 
   3  -5  -3   95.39   11.70 
   3  -5  -3   95.29   10.40 
  -3   5   3  120.29   10.10 
  -3   5   3   99.29   10.00 
   2  -5  -3   37.00    6.60 
   2  -5  -3   22.90    5.70 
  -2   5   3   24.10    5.40 
   1  -5  -3 1598.04   98.89 
   1  -5  -3 1568.34   99.39 
  -1   5   3 1443.76   93.19 
  -1   5   3 1557.14   97.29 
   0  -5  -3  300.87   24.10 
   0  -5  -3  269.67   23.30 
   0   5   3  294.47   18.00 
   0   5   3  307.27   22.30 
   0   5   3  271.37   21.70 
  -1  -5  -3   72.69   10.30 
   1   5   3   81.39    9.40 
  -2  -5  -3  694.43   47.90 
  -2  -5  -3  654.23   47.30 
   2   5   3  609.74   44.80 
  -3  -5  -3  274.57   26.40 
  -3  -5  -3  338.17   27.20 
   3   5   3  298.47   19.50 
  -4  -5  -3   97.29   12.50 
   4   5   3   82.49    6.60 
  -5  -5  -3   15.40    5.80 
   5   5   3   16.90    2.30 
  -9   6   3   -1.70    3.90 
  -9   6   3    0.80    1.70 
  -8   6   3   -3.60    3.60 
  -8   6   3   -2.10    1.50 
   7  -6  -3    5.10    5.30 
  -7   6   3    6.40    4.50 
  -7   6   3    1.10    2.30 
   6  -6  -3   38.30   12.90 
  -6   6   3   40.30    7.20 
   5  -6  -3  305.67   26.10 
   5  -6  -3  252.97   21.80 
  -5   6   3  320.77   23.90 
   4  -6  -3  533.05   40.20 
   4  -6  -3  576.74   43.20 
  -4   6   3  589.04   40.90 
  -4   6   3  643.94   40.10 
   3  -6  -3  115.19   12.00 
   3  -6  -3  120.79   13.80 
  -3   6   3  123.59   12.30 
   2  -6  -3   21.20    5.50 
   2  -6  -3   21.40    6.80 
  -2   6   3   25.60    4.90 
   1  -6  -3 1236.98   80.19 
   1  -6  -3 1221.88   79.19 
  -1   6   3 1140.19   72.69 
  -1   6   3 1205.68   77.69 
   0  -6  -3  938.11   64.59 
   0  -6  -3  894.21   63.69 
   0   6   3  976.30   62.39 
  -1  -6  -3   19.60    6.90 
  -1  -6  -3   10.50    5.50 
   1   6   3   23.10    5.70 
  -2  -6  -3   41.20   10.00 
  -2  -6  -3   26.60    8.10 
   2   6   3   26.30    7.70 
   2   6   3   32.70    3.30 
  -3  -6  -3  320.57   25.90 
   3   6   3  239.18   17.30 
  -4  -6  -3    5.70    4.80 
   4   6   3    1.70    1.20 
  -9   7   3   21.50    5.80 
   8  -7  -3   63.89   11.80 
  -8   7   3   85.99   10.00 
  -8   7   3   88.89   11.50 
   7  -7  -3   11.60    5.60 
  -7   7   3    3.10    2.40 
  -7   7   3   -0.40    3.20 
   6  -7  -3   24.10    7.70 
  -6   7   3   30.70    6.40 
  -6   7   3   21.70    6.90 
   5  -7  -3  121.19   15.30 
  -5   7   3  124.29   12.10 
  -5   7   3  117.89   13.40 
   4  -7  -3  319.47   27.50 
   4  -7  -3  286.67   23.90 
  -4   7   3  330.07   25.30 
   3  -7  -3   15.00    4.90 
   3  -7  -3    7.30    5.30 
  -3   7   3   15.20    5.30 
   2  -7  -3    8.80    5.00 
   2  -7  -3   22.80    7.60 
  -2   7   3   15.40    5.50 
  -2   7   3   18.30    1.90 
   1  -7  -3  185.88   18.30 
   1  -7  -3  203.78   19.80 
  -1   7   3  195.88   17.50 
   0  -7  -3   23.80    7.60 
   0  -7  -3   24.90    7.10 
   0   7   3   31.40    6.90 
  -1  -7  -3  112.79   14.60 
  -1  -7  -3   94.09   20.60 
  -2  -7  -3   35.40    9.40 
   2   7   3   40.50    3.90 
  -4  -7  -3    6.00    4.70 
   4   7   3    3.70    1.20 
   8  -8  -3   45.60    9.00 
  -8   8   3   56.29    7.90 
  -8   8   3   69.99   10.10 
   7  -8  -3   -2.70    4.80 
  -7   8   3    1.70    3.70 
  -7   8   3    1.00    2.50 
   6  -8  -3   48.40   10.40 
  -6   8   3   49.60    8.60 
  -6   8   3   35.50    6.90 
   5  -8  -3   42.30   10.20 
  -5   8   3   55.09    9.30 
   4  -8  -3  121.89   15.60 
  -4   8   3  133.99   14.50 
   3  -8  -3  184.18   17.00 
   3  -8  -3  182.28   26.60 
  -3   8   3  177.68   11.80 
  -3   8   3  176.88   18.90 
   2  -8  -3   63.39   11.30 
   2  -8  -3   57.69    9.50 
  -2   8   3   55.09    4.50 
  -2   8   3   69.19   10.00 
   1  -8  -3   16.20    6.70 
   1  -8  -3    6.90    4.00 
   1  -8  -3   22.40    7.70 
  -1   8   3   13.70    5.50 
   0  -8  -3   27.60    8.30 
   0   8   3   14.80    6.40 
  -1  -8  -3  358.86   29.30 
   1   8   3  280.97   25.30 
   2   8   3    5.00    1.70 
  -3  -8  -3    9.10    5.70 
   3   8   3    3.60    1.30 
  -8   9   3    1.30    3.80 
  -7   9   3    0.60    4.40 
   6  -9  -3   77.29   11.70 
  -6   9   3   78.09   11.60 
   5  -9  -3   -2.70    4.50 
  -5   9   3    0.80    4.00 
   4  -9  -3    3.70    5.30 
  -4   9   3   17.70    6.30 
  -4   9   3    7.80    1.60 
   3  -9  -3  103.69   13.80 
  -3   9   3  111.09   12.80 
  -3   9   3   75.19    5.90 
   2  -9  -3  169.98   18.60 
   2  -9  -3  149.79   14.60 
  -2   9   3  170.28   16.80 
   1  -9  -3   10.10    6.00 
  -1   9   3    2.60    4.50 
   0  -9  -3   -3.40    4.50 
   0   9   3   -0.20    5.40 
  -1  -9  -3   96.29   13.50 
   1   9   3   82.79    6.50 
  -2  -9  -3   63.79    9.70 
   2   9   3   45.70    4.10 
   7 -10  -3   21.40    7.30 
  -7  10   3   22.60    6.60 
   6 -10  -3   33.50    7.80 
  -6  10   3   35.80    8.30 
  -5  10   3    1.70    1.20 
   4 -10  -3    2.60    4.60 
   4 -10  -3    6.80    3.80 
  -4  10   3    2.00    1.30 
  -4  10   3    0.30    4.30 
   3 -10  -3   55.79   11.00 
   3 -10  -3   45.60    7.50 
  -3  10   3   56.69    9.90 
   2 -10  -3   36.80    8.90 
   1 -10  -3   16.60    6.80 
  -1  10   3   15.70    6.00 
   0 -10  -3    1.40    3.90 
   6 -11  -3    4.20    3.50 
   6 -11  -3    6.60    5.20 
  -6  11   3    3.70    1.30 
  -6  11   3    5.80    4.20 
   5 -11  -3    9.80    5.30 
   5 -11  -3    3.30    3.40 
  -5  11   3    0.70    4.00 
   4 -11  -3   12.50    4.60 
   4 -11  -3   14.40    5.90 
  -4  11   3   17.10    5.90 
   3 -11  -3    4.10    4.80 
   3 -11  -3   -1.30    3.60 
  -3  11   3    4.00    4.50 
   2 -11  -3    5.70    5.00 
  -2  11   3    2.10    4.90 
   1 -11  -3   43.90    8.90 
   0  13  -4   33.30    8.00 
  -1  13  -4   41.20    9.20 
   1 -13   4   42.20    8.50 
  -2  13  -4   39.10    8.50 
   2 -13   4   35.30    6.90 
  -3  13  -4   -0.10    4.50 
   3 -13   4    9.50    4.40 
  -4  13  -4   34.20    8.00 
   4 -13   4   30.80    6.70 
  -5  13  -4   34.80    7.70 
   5 -13   4   22.60    6.10 
   1  12  -4  152.08   17.10 
   0  12  -4   -1.60    3.70 
   0 -12   4    2.20    4.00 
  -1  12  -4  326.57   27.60 
   1 -12   4  284.67   30.70 
  -2  12  -4    7.80    5.80 
   2 -12   4   10.80    4.80 
  -3  12  -4  288.57   25.60 
   3 -12   4  285.07   23.80 
  -4  12  -4   47.60   13.00 
   4 -12   4   54.39    8.60 
  -5  12  -4   59.29   10.50 
   5 -12   4   59.19    8.80 
  -6  12  -4   10.50    5.30 
   6 -12   4   -1.90    2.40 
   3  11  -4  124.89   14.70 
   3  11  -4  110.19    7.60 
   2  11  -4    2.20    5.60 
   1  11  -4  104.99   14.30 
   0  11  -4   11.50    5.70 
   0 -11   4    8.80    3.40 
   0 -11   4    5.50    3.70 
  -1  11  -4  304.17   27.20 
   1 -11   4  334.87   25.40 
  -2  11  -4    7.20    4.70 
   2 -11   4    4.70    3.60 
  -3  11  -4  157.78   16.40 
   3 -11   4  155.98   15.70 
  -4  11  -4   29.20    7.40 
   4 -11   4   15.30    5.20 
  -5  11  -4   51.49    9.40 
   5 -11   4   71.89    9.40 
  -6  11  -4   76.09    8.80 
  -6  11  -4  114.49   12.90 
  -7  11  -4    2.60    3.70 
  -7  11  -4    5.40    4.40 
   7 -11   4   -0.50    2.10 
   4  10  -4   -3.50    4.60 
   3  10  -4  131.39   16.60 
  -3 -10   4  130.39   13.40 
   2  10  -4   -4.10    4.30 
  -2 -10   4   -1.90    3.30 
  -2 -10   4    1.80    2.80 
   1  10  -4  230.58   21.40 
  -1 -10   4  191.78   15.50 
  -1 -10   4  178.68   14.70 
  -1 -10   4  207.28   16.70 
   0  10  -4  179.68   18.40 
   0 -10   4  177.68   15.80 
  -1  10  -4  169.48   16.90 
   1 -10   4  161.88   16.80 
   1 -10   4  159.48   11.60 
   2 -10   4   46.00    7.70 
  -3  10  -4   80.59   10.50 
   3 -10   4   76.59    9.40 
  -4  10  -4    9.30    2.70 
  -4  10  -4   23.10    6.10 
   4 -10   4   14.30    4.80 
  -5  10  -4   17.30    5.90 
   5 -10   4   19.80    6.00 
  -6  10  -4    2.40    4.20 
  -6  10  -4    4.30    2.30 
   6 -10   4    2.70    2.70 
  -7  10  -4   15.00    3.70 
  -7  10  -4   18.00    6.20 
   7 -10   4   22.20    5.30 
   4   9  -4   -1.60    4.70 
   4   9  -4    0.00    1.00 
  -4  -9   4    2.20    3.90 
   3   9  -4   92.29   14.50 
  -3  -9   4   85.59    9.20 
   2   9  -4   17.90    8.10 
  -2  -9   4   38.50    5.80 
  -2  -9   4   29.00    5.00 
  -1  -9   4  880.21   53.79 
  -1  -9   4  742.23   51.09 
  -1  -9   4  803.72   52.09 
   0   9  -4  386.86   29.70 
   0  -9   4  335.87   24.20 
   0  -9   4  405.56   27.50 
   0  -9   4  353.16   25.30 
  -1   9  -4  503.95   36.70 
   1  -9   4  493.55   35.20 
   1  -9   4  494.45   31.60 
   2  -9   4    7.20    1.40 
   2  -9   4    5.60    3.10 
  -3   9  -4  679.63   45.70 
  -3   9  -4  590.84   41.80 
   3  -9   4  689.73   45.30 
  -4   9  -4    2.00    1.30 
  -4   9  -4    3.70    3.20 
   4  -9   4    1.90    1.50 
   4  -9   4   -0.90    2.60 
  -5   9  -4  116.49   11.90 
  -5   9  -4  148.49   14.60 
   5  -9   4  146.39   14.00 
  -6   9  -4    8.60    3.30 
  -6   9  -4   14.60    5.80 
   6  -9   4   11.40    4.40 
  -7   9  -4   53.19    8.90 
  -7   9  -4   39.80    6.60 
   7  -9   4   47.00    6.80 
  -8   9  -4   11.50    3.30 
  -8   9  -4   10.50    4.70 
   5   8  -4   96.39   14.50 
  -5  -8   4   98.49   10.70 
   4   8  -4  418.96   34.90 
   4   8  -4  371.96   23.50 
  -4  -8   4  366.46   27.20 
  -4  -8   4  358.86   26.40 
   3   8  -4  344.17   29.90 
  -3  -8   4  295.77   22.80 
  -3  -8   4  302.07   22.00 
   2   8  -4   90.89   12.50 
  -2  -8   4   86.39    8.80 
  -2  -8   4   75.59    7.60 
   1   8  -4  652.43   48.00 
   1   8  -4  695.73   47.60 
  -1  -8   4  621.64   42.30 
  -1  -8   4  694.83   44.60 
  -1  -8   4  661.63   43.40 
   0   8  -4  371.56   27.90 
   0  -8   4  354.66   24.70 
   0  -8   4  357.56   24.60 
   0  -8   4  365.36   26.40 
  -1   8  -4  635.54   44.20 
   1  -8   4  659.43   40.30 
   1  -8   4  637.14   43.50 
  -2   8  -4   58.19    5.60 
  -2   8  -4   53.09    7.70 
   2  -8   4   63.99    4.70 
   2  -8   4   69.99    8.00 
  -3   8  -4 1234.08   82.09 
  -3   8  -4 1320.97   84.59 
   3  -8   4 1406.76   84.79 
  -4   8  -4    5.80    2.10 
  -4   8  -4    5.50    3.50 
   4  -8   4    7.30    3.60 
   4  -8   4    2.60    1.50 
  -5   8  -4  350.16   26.30 
  -5   8  -4  358.16   27.20 
   5  -8   4  346.67   26.60 
  -6   8  -4  220.18   22.70 
  -6   8  -4  231.18   20.20 
   6  -8   4  232.08   19.00 
  -7   8  -4   42.20    7.40 
   7  -8   4   26.30    3.50 
   7  -8   4   36.20    6.90 
  -8   8  -4   32.30    7.20 
  -8   8  -4   29.60    5.60 
   6   7  -4   28.10    9.10 
  -6  -7   4   19.70    5.10 
   5   7  -4  180.98   20.40 
  -5  -7   4  158.18   14.40 
  -5  -7   4  137.39   14.10 
   4   7  -4  106.19    7.50 
   4   7  -4  133.19   17.50 
  -4  -7   4   97.39    9.70 
  -4  -7   4  118.29   11.40 
   3   7  -4  153.58   17.50 
  -3  -7   4  147.09   12.70 
  -3  -7   4  135.89   11.60 
   2   7  -4   -5.00    4.90 
  -2  -7   4    1.10    1.70 
  -2  -7   4    1.30    2.30 
  -2  -7   4    3.70    3.50 
   1   7  -4 2283.47  140.09 
  -1  -7   4 2126.19  136.49 
  -1  -7   4 2256.57  137.69 
   0   7  -4  809.32   51.89 
   0  -7   4  820.62   48.50 
   0  -7   4  820.52   50.79 
   0  -7   4  649.83   51.69 
  -1   7  -4 1126.09   75.29 
   1  -7   4 1164.88   74.99 
   1  -7   4 1245.98   72.29 
  -2   7  -4   89.49    9.10 
  -2   7  -4   86.79    7.60 
   2  -7   4  106.49    6.60 
  -3   7  -4   67.49    6.70 
  -3   7  -4   68.29    7.60 
   3  -7   4   78.29    8.10 
   3  -7   4   61.29    5.40 
  -4   7  -4  485.25   33.60 
  -4   7  -4  502.25   33.40 
   4  -7   4  490.65   33.90 
   4  -7   4  453.15   30.40 
  -5   7  -4  158.08   14.50 
  -5   7  -4  167.78   14.70 
   5  -7   4  158.88   14.10 
   5  -7   4  144.39   11.00 
  -6   7  -4    3.20    2.70 
  -6   7  -4    2.90    3.30 
   6  -7   4    2.40    1.20 
   6  -7   4    6.10    3.40 
  -7   7  -4   23.10    5.40 
  -7   7  -4   34.40    7.30 
   7  -7   4   24.60    3.20 
   7  -7   4   30.50    5.50 
  -8   7  -4    1.50    2.60 
  -8   7  -4   -2.20    3.50 
   8  -7   4   -0.70    1.10 
   6   6  -4   -1.20    6.70 
  -6  -6   4   -1.70    3.30 
   5   6  -4  529.45   42.30 
  -5  -6   4  443.56   33.70 
   4   6  -4    2.50    1.00 
  -4  -6   4    4.00    2.80 
  -4  -6   4    0.10    1.80 
   3   6  -4  848.52   58.79 
   3   6  -4  813.72   58.39 
  -3  -6   4  794.52   52.99 
  -3  -6   4  803.62   52.09 
  -3  -6   4  847.12   53.59 
   2   6  -4   78.69   10.40 
   2   6  -4   92.59   10.50 
  -2  -6   4   67.89    7.20 
  -2  -6   4   74.59    8.10 
   1   6  -4  851.41   56.19 
  -1  -6   4  834.22   54.49 
  -1  -6   4  846.22   53.49 
  -1  -6   4  857.31   52.89 
   0   6  -4    8.00    3.30 
   0  -6   4   15.70    3.40 
   0  -6   4   10.60    2.10 
  -1   6  -4 4536.95  264.47 
  -1   6  -4 4063.59  262.37 
  -1   6  -4 4638.44  261.27 
   1  -6   4 3762.72  260.87 
   1  -6   4 4619.64  263.67 
  -2   6  -4    1.10    0.80 
   2  -6   4    1.60    2.00 
   2  -6   4    1.50    0.70 
   2  -6   4    5.20    1.20 
  -3   6  -4  851.51   57.99 
  -3   6  -4  878.31   57.89 
   3  -6   4  935.51   58.79 
   3  -6   4  976.80   55.99 
  -4   6  -4  324.67   24.10 
  -4   6  -4  337.77   24.70 
   4  -6   4  339.87   21.50 
   4  -6   4  345.77   24.40 
  -5   6  -4 1021.70   66.99 
  -5   6  -4 1050.69   68.19 
   5  -6   4 1015.10   63.29 
   5  -6   4 1026.60   66.39 
  -6   6  -4    6.80    3.20 
  -6   6  -4    7.30    4.20 
   6  -6   4   10.40    3.80 
   6  -6   4    8.80    2.00 
  -7   6  -4   44.40    7.60 
  -7   6  -4   35.30    7.30 
   7  -6   4   33.60    3.70 
  -8   6  -4   12.80    5.20 
  -8   6  -4   10.20    4.00 
   8  -6   4    9.20    1.90 
   7   5  -4  201.08   22.20 
  -7  -5   4  196.28   17.20 
   6   5  -4  256.97   26.80 
  -6  -5   4  238.88   20.00 
  -6  -5   4  225.28   17.20 
   5   5  -4  149.19   18.70 
  -5  -5   4  135.29   13.20 
  -5  -5   4  140.19   11.50 
   4   5  -4   14.80    7.30 
   4   5  -4   10.10    1.50 
  -4  -5   4   11.10    3.80 
  -4  -5   4    9.00    2.80 
   3   5  -4 6496.25  386.56 
   3   5  -4 6346.47  386.46 
  -3  -5   4 5960.20  380.86 
  -3  -5   4 6336.77  381.86 
   2   5  -4  266.07   21.40 
   2   5  -4  262.97   20.50 
  -2  -5   4  254.07   18.50 
  -2  -5   4  238.18   16.90 
  -2  -5   4  234.28   17.30 
   1   5  -4  911.71   60.99 
  -1  -5   4  939.11   59.99 
  -1  -5   4  985.10   58.49 
   0  -5   4  176.18   11.50 
  -1   5  -4 5845.02  372.26 
   1  -5   4 6488.85  373.86 
   2  -5   4   24.10    4.00 
   2  -5   4   26.50    2.50 
   2  -5   4   24.00    2.60 
   2  -5   4   26.10    2.10 
  -3   5  -4 1615.34  104.09 
  -3   5  -4 1544.85  103.39 
   3  -5   4 1645.14  104.19 
   3  -5   4 1891.71  101.79 
  -4   5  -4  125.49   11.50 
  -4   5  -4  130.79   12.20 
   4  -5   4  135.99   11.40 
   4  -5   4  142.59    9.20 
  -5   5  -4  361.86   28.10 
  -5   5  -4  369.86   26.60 
   5  -5   4  377.96   23.20 
   5  -5   4  341.27   25.30 
  -6   5  -4  351.86   28.60 
   6  -5   4  335.17   22.10 
  -7   5  -4   74.39   10.10 
  -7   5  -4   63.69   10.30 
   7  -5   4   58.29    5.40 
  -8   5  -4   25.30    6.50 
  -8   5  -4   41.00    7.80 
   8  -5   4   28.50    3.10 
   7   4  -4   63.69   14.70 
  -7  -4   4   65.59    9.40 
   6   4  -4  118.69   17.30 
  -6  -4   4  103.69    9.20 
  -6  -4   4  107.79   12.00 
   5   4  -4  157.28   19.00 
   5   4  -4  175.28   30.10 
  -5  -4   4  151.88   14.10 
  -5  -4   4  153.98   12.10 
   4   4  -4   10.10    5.60 
   4   4  -4    8.50    4.40 
  -4  -4   4    2.40    3.00 
  -4  -4   4    0.90    1.90 
  -4  -4   4    2.60    2.70 
   3   4  -4 2552.84  157.48 
   3   4  -4 2597.24  157.88 
  -3  -4   4 2491.35  153.68 
  -3  -4   4 2479.85  152.08 
  -3  -4   4 2365.76  152.78 
   2   4  -4 1175.98   79.09 
   2   4  -4 1267.67   80.19 
  -2  -4   4 1270.67   77.69 
  -2  -4   4 1235.18   75.99 
   1   4  -4 5047.40  293.67 
  -1  -4   4 4562.64  291.37 
   0   4  -4 2017.80  130.79 
   0  -4   4 2270.37  129.89 
  -1   4  -4 2971.10  179.78 
   2  -4   4  919.81   59.69 
   2  -4   4 1051.19   59.39 
   2  -4   4 1040.50   59.69 
   2  -4   4  892.41   61.29 
  -3   4  -4 2295.67  149.19 
   3  -4   4 2472.45  146.39 
   3  -4   4 2473.85  145.99 
  -4   4  -4  402.46   27.20 
  -4   4  -4  350.26   25.40 
   4  -4   4  352.26   25.10 
   4  -4   4  381.16   23.20 
  -5   4  -4   82.29    9.20 
   5  -4   4   97.19    6.70 
  -6   4  -4  235.78   22.20 
   6  -4   4  237.08   15.70 
  -7   4  -4  106.29   14.00 
   7  -4   4  106.09    8.00 
  -8   4  -4    1.10    3.20 
  -8   4  -4   -3.30    2.20 
   8  -4   4   -0.30    0.90 
   8   3  -4   -8.50    6.80 
   7   3  -4  348.57   31.30 
  -7  -3   4  331.67   24.90 
  -7  -3   4  243.28   21.40 
   6   3  -4   43.40   12.10 
  -6  -3   4   37.00    7.60 
   5   3  -4  723.03   52.19 
   5   3  -4  666.03   49.30 
  -5  -3   4  694.43   43.10 
  -5  -3   4  670.63   45.40 
  -5  -3   4  631.14   43.50 
   4   3  -4    6.80    4.10 
   4   3  -4    1.20    2.90 
  -4  -3   4    2.70    2.50 
  -4  -3   4    2.30    1.60 
  -4  -3   4    2.40    1.30 
  -4  -3   4    9.50    3.10 
   3   3  -4  160.28   15.10 
   3   3  -4  176.28   15.70 
  -3  -3   4  160.98   11.80 
  -3  -3   4  177.98   11.90 
  -3  -3   4  151.28   13.00 
  -3  -3   4  178.68   13.30 
   2   3  -4 1250.67   81.59 
   2   3  -4 1172.58   80.49 
  -2  -3   4 1390.56   77.99 
   0   3  -4 2212.38  126.29 
   0  -3   4 1937.71  125.39 
   1  -3   4   57.49    4.10 
  -2   3  -4 2144.29  151.18 
   2  -3   4 2524.95  150.58 
   2  -3   4 2672.93  150.78 
   2  -3   4 2636.54  150.58 
  -3   3  -4 4114.29  262.27 
  -3   3  -4 4402.36  261.37 
   3  -3   4 4432.46  260.57 
  -4   3  -4  202.98   13.90 
  -4   3  -4  177.28   14.60 
   4  -3   4  212.18   12.80 
  -5   3  -4   32.10    5.30 
   5  -3   4   32.20    3.10 
  -6   3  -4   41.50    7.00 
   6  -3   4   37.80    3.80 
  -7   3  -4   83.09   10.30 
  -7   3  -4   65.69   11.30 
   7  -3   4   57.59    5.30 
  -8   3  -4   -2.30    2.00 
  -8   3  -4    1.80    3.70 
   8  -3   4   -0.40    1.00 
   8   2  -4   86.79   15.10 
   7   2  -4  167.48   19.70 
  -7  -2   4  120.39   10.40 
  -7  -2   4  124.29   11.90 
  -7  -2   4  152.38   14.70 
   6   2  -4   14.10    7.50 
  -6  -2   4   12.40    5.00 
  -6  -2   4   12.20    2.60 
  -6  -2   4   14.10    3.10 
   5   2  -4 1695.43  113.39 
   5   2  -4 1857.41  116.29 
  -5  -2   4 1796.32  107.59 
  -5  -2   4 1724.93  110.19 
  -5  -2   4 1699.13  108.69 
   4   2  -4 1261.77   82.09 
   4   2  -4 1204.88   82.59 
  -4  -2   4 1340.27   77.09 
  -4  -2   4 1257.77   78.39 
  -4  -2   4 1201.08   78.59 
  -4  -2   4 1241.78   77.69 
   3   2  -4 2053.89  132.29 
   3   2  -4 2125.39  132.59 
  -3  -2   4 1979.70  129.29 
  -3  -2   4 2271.67  128.39 
  -3  -2   4 2022.60  128.39 
  -3  -2   4 2216.58  130.09 
   2   2  -4 1702.53  110.19 
  -2  -2   4 1805.72  106.69 
   0   2  -4  501.55   33.20 
   0  -2   4  509.35   31.10 
  -1   2  -4  845.92   50.29 
  -1   2  -4  734.43   50.29 
   1  -2   4  807.12   48.50 
  -2   2  -4 2764.92  181.08 
  -2   2  -4 2906.71  180.38 
   2  -2   4 3078.99  179.28 
   2  -2   4 3140.09  179.58 
  -3   2  -4 2312.37  152.88 
   3  -2   4 2562.34  150.98 
   3  -2   4 2624.54  151.38 
  -4   2  -4   19.40    4.00 
  -4   2  -4   18.80    3.50 
   4  -2   4   19.70    2.10 
   4  -2   4   19.30    2.40 
  -5   2  -4  112.19   11.30 
   5  -2   4  133.29    8.70 
  -6   2  -4  114.79   12.10 
   6  -2   4  100.49    7.70 
  -7   2  -4   12.20    5.00 
  -7   2  -4    3.00    2.90 
   7  -2   4    6.50    1.60 
  -8   2  -4    6.90    3.60 
   8  -2   4    7.10    1.50 
   8   1  -4   22.80    9.30 
  -8  -1   4   15.10    8.30 
   7   1  -4   21.80    8.30 
  -7  -1   4    7.30    2.60 
  -7  -1   4   10.00    5.00 
   6   1  -4  317.87   28.60 
  -6  -1   4  321.77   24.30 
  -6  -1   4  298.87   20.40 
  -6  -1   4  297.87   22.50 
   5   1  -4 1288.77   84.39 
   5   1  -4 1219.38   82.49 
  -5  -1   4 1282.77   78.69 
  -5  -1   4 1219.58   76.69 
  -5  -1   4 1233.68   79.59 
   4   1  -4  285.67   23.50 
   4   1  -4  296.47   22.90 
  -4  -1   4  273.37   19.50 
  -4  -1   4  282.07   20.10 
  -4  -1   4  280.37   20.40 
  -4  -1   4  296.87   18.60 
   3   1  -4  112.59   11.00 
   3   1  -4   96.19   10.50 
  -3  -1   4  109.09   10.40 
  -3  -1   4  118.49    7.80 
  -3  -1   4  112.79    9.10 
  -3  -1   4  105.89    8.10 
   2   1  -4  376.46   27.40 
  -2  -1   4  367.66   26.80 
  -2  -1   4  424.36   24.50 
  -1  -1   4 2692.13  164.48 
   0   1  -4   36.40    4.50 
   0  -1   4   48.40    3.40 
  -2   1  -4  323.57   23.00 
   2  -1   4  331.37   20.50 
  -3   1  -4   76.09    7.90 
   3  -1   4   73.19    5.20 
   3  -1   4   77.99    5.60 
  -4   1  -4  540.15   34.70 
  -4   1  -4  419.36   34.30 
   4  -1   4  526.95   31.00 
   4  -1   4  514.05   31.40 
  -5   1  -4 1064.39   63.89 
  -5   1  -4  863.61   62.79 
   5  -1   4  971.10   59.19 
  -6   1  -4   53.69    8.30 
   6  -1   4   39.70    3.90 
  -7   1  -4   -2.20    3.20 
   7  -1   4    1.90    1.00 
   9   0  -4  -12.90    8.60 
  -9   0   4    5.00    4.10 
   8   0  -4   -4.10    5.90 
  -8   0   4   -2.60    1.70 
  -8   0   4   -4.00    3.50 
   7   0  -4    7.00    7.00 
  -7   0   4    4.60    2.50 
   6   0  -4   -1.00    5.20 
   6   0  -4   10.70    6.20 
  -6   0   4    2.20    1.90 
  -6   0   4    3.50    3.00 
   5   0  -4  591.04   42.70 
   5   0  -4  601.84   44.00 
  -5   0   4  623.34   39.50 
  -5   0   4  597.44   37.10 
  -5   0   4  556.24   39.90 
   4   0  -4  116.79   12.30 
   4   0  -4  127.79   13.20 
  -4   0   4  137.19    8.90 
  -4   0   4  120.69   10.60 
  -4   0   4  125.09   11.40 
   3   0  -4 2918.61  178.88 
   3   0  -4 2793.32  178.98 
  -3   0   4 3088.89  176.78 
  -3   0   4 2834.72  178.48 
  -3   0   4 2839.52  175.98 
   2   0  -4  534.45   36.80 
  -2   0   4  535.95   36.40 
  -2   0   4  577.84   33.90 
   1   0  -4  596.24   39.50 
  -1   0   4  664.63   37.30 
  -1   0   4  554.94   38.80 
   0   0  -4  680.83   41.50 
   0   0  -4  599.94   42.80 
   0   0   4  737.73   40.10 
   0   0   4  589.14   40.90 
  -2   0  -4 1664.03  108.89 
   2   0   4 1806.32  105.39 
   2   0   4 1754.22  105.59 
  -3   0  -4    7.20    3.40 
  -3   0  -4   -2.70    2.50 
   3   0   4    1.80    0.80 
   3   0   4    2.40    0.80 
  -4   0  -4  752.82   54.49 
  -4   0  -4  863.41   55.89 
   4   0   4  826.32   51.19 
   4   0   4  878.01   50.89 
  -5   0  -4  477.55   31.00 
   5   0   4  330.27   26.70 
  -6   0  -4   38.10    8.20 
   6   0   4   48.60    4.20 
  -7   0  -4    1.90    3.80 
   7   0   4   -0.40    0.90 
   9  -1  -4   13.00    7.00 
  -9   1   4    6.20    4.90 
  -9   1   4   14.60    5.50 
   8  -1  -4   31.10    9.60 
  -8   1   4   20.90    4.40 
   7  -1  -4  564.64   46.60 
  -7   1   4  580.84   40.70 
  -7   1   4  624.84   43.10 
   6  -1  -4  945.31   67.69 
   6  -1  -4 1019.80   70.19 
  -6   1   4  985.40   64.69 
  -6   1   4  986.30   61.09 
  -6   1   4 1041.30   66.09 
   5  -1  -4  117.69   13.10 
   5  -1  -4  124.39   14.30 
  -5   1   4  128.99    8.90 
  -5   1   4  129.79   11.20 
  -5   1   4  141.49   13.20 
   4  -1  -4  111.49   12.20 
   4  -1  -4  102.89   12.50 
  -4   1   4   99.09    9.50 
  -4   1   4  118.49    7.50 
  -4   1   4  101.89    9.00 
  -2   1   4 4122.29  251.57 
   1  -1  -4   23.80    5.00 
  -1   1   4   22.80    3.40 
  -1   1   4   20.30    2.20 
   0  -1  -4 3483.85  224.28 
   0  -1  -4 3832.22  222.18 
   0   1   4 3656.63  221.88 
  -1  -1  -4 3954.70  239.18 
   1   1   4 3841.82  235.08 
  -2  -1  -4  189.58   16.50 
  -2  -1  -4  185.78   16.30 
   2   1   4  211.98   12.60 
  -3  -1  -4  117.49   12.50 
  -3  -1  -4  122.09   12.50 
   3   1   4  130.29    8.60 
   3   1   4  132.99    8.50 
  -4  -1  -4  237.18   20.10 
  -4  -1  -4  237.68   20.50 
   4   1   4  237.88   15.30 
  -5  -1  -4  120.39   13.10 
  -5  -1  -4   82.49   11.20 
   5   1   4   86.09    6.80 
  -6  -1  -4  125.89   14.10 
   6   1   4  119.29    8.70 
  -7  -1  -4   23.90    6.30 
   7   1   4   14.90    2.10 
   9  -2  -4   33.60    8.50 
  -9   2   4   28.90    6.70 
  -9   2   4   18.40    3.80 
   8  -2  -4   26.40    8.90 
  -8   2   4   30.40    5.50 
  -8   2   4   27.60    7.40 
   7  -2  -4  424.46   36.10 
  -7   2   4  422.36   31.20 
  -7   2   4  436.96   33.00 
   6  -2  -4  292.37   26.10 
  -6   2   4  266.77   17.60 
  -6   2   4  276.97   22.30 
  -6   2   4  281.47   21.40 
   5  -2  -4  110.19   12.30 
   5  -2  -4  115.59   13.40 
  -5   2   4  112.99    7.70 
  -5   2   4  103.99   10.60 
  -5   2   4  113.49   10.30 
   4  -2  -4   49.60    7.30 
   4  -2  -4   52.39    8.30 
  -4   2   4   57.59    4.20 
  -4   2   4   49.50    6.10 
  -4   2   4   52.19    5.80 
   3  -2  -4 2966.60  178.78 
   3  -2  -4 3012.10  178.28 
  -3   2   4 2592.44  175.58 
  -3   2   4 2939.21  175.38 
   2  -2  -4   76.09    8.60 
   2  -2  -4   79.99    8.30 
  -2   2   4   82.69    6.70 
  -2   2   4   75.99    9.00 
  -2   2   4   73.99    5.60 
   1  -2  -4  481.45   30.20 
   1  -2  -4  426.46   31.40 
  -1   2   4  417.46   29.60 
  -1   2   4  468.35   27.70 
  -1   2   4  423.66   27.30 
   0  -2  -4  921.91   58.19 
   0   2   4  849.22   53.39 
   0   2   4  866.61   54.99 
  -1  -2  -4  352.16   26.70 
  -1  -2  -4  355.76   26.20 
   1   2   4  359.36   22.10 
  -2  -2  -4  910.41   61.69 
  -2  -2  -4  942.61   62.19 
   2   2   4  904.91   56.89 
   2   2   4  957.10   56.69 
  -3  -2  -4  377.66   31.30 
  -3  -2  -4  377.16   31.00 
   3   2   4  426.36   25.70 
   3   2   4  445.56   25.70 
  -4  -2  -4   44.70    9.20 
  -4  -2  -4   55.59    9.20 
   4   2   4   58.49    4.60 
  -5  -2  -4   10.50    4.80 
   5   2   4    7.20    1.80 
  -6  -2  -4   80.49   11.80 
   6   2   4   88.19    6.60 
   9  -3  -4    8.60    6.80 
  -9   3   4    4.00    2.50 
  -9   3   4   16.60    5.90 
   8  -3  -4   34.10    9.10 
  -8   3   4   34.50    5.80 
  -8   3   4   22.80    6.60 
   7  -3  -4   59.29   11.60 
  -7   3   4   57.99    9.20 
  -7   3   4   62.49    8.20 
   6  -3  -4   89.19   13.10 
  -6   3   4   89.29   10.50 
  -6   3   4   94.49    9.90 
   5  -3  -4  115.69   14.20 
   5  -3  -4  105.49   13.00 
  -5   3   4  132.29    8.50 
  -5   3   4  128.19   12.00 
  -5   3   4  132.99   11.50 
   4  -3  -4  214.28   19.60 
   4  -3  -4  215.78   19.00 
  -4   3   4  233.98   14.30 
  -4   3   4  205.78   16.90 
  -4   3   4  229.38   16.60 
   3  -3  -4  107.59   10.80 
   3  -3  -4  110.49   11.70 
  -3   3   4  102.19    7.20 
  -3   3   4  113.89    9.10 
  -3   3   4   90.39    9.00 
   2  -3  -4    9.70    3.70 
   2  -3  -4    5.30    3.00 
  -2   3   4    6.50    2.80 
  -2   3   4    6.60    2.80 
   1  -3  -4 5080.19  320.57 
   1  -3  -4 5599.14  319.07 
   1  -3  -4 5195.88  320.27 
  -1   3   4 5076.09  318.57 
   0  -3  -4 2895.21  174.28 
   0  -3  -4 2778.02  173.38 
   0   3   4 2740.63  168.48 
   0   3   4 2756.62  170.58 
  -1  -3  -4    1.00    3.50 
  -1  -3  -4    3.90    3.20 
   1   3   4    6.10    1.10 
  -2  -3  -4 1162.08   78.89 
  -2  -3  -4 1215.98   79.19 
   2   3   4 1156.08   72.49 
   2   3   4 1237.98   72.59 
  -3  -3  -4 1942.81  130.89 
  -3  -3  -4 2030.30  131.19 
   3   3   4 2147.19  123.99 
  -4  -3  -4   20.90    6.70 
   4   3   4   23.30    2.80 
  -5  -3  -4   -3.00    3.50 
   5   3   4    2.30    1.20 
  -6  -3  -4   83.19   11.20 
   6   3   4   74.09    5.80 
   9  -4  -4    7.90    6.90 
  -9   4   4    8.30    2.90 
  -9   4   4   23.70    5.90 
   8  -4  -4  106.29   15.20 
  -8   4   4  127.29   13.90 
  -8   4   4  105.49   11.90 
   7  -4  -4   25.90    7.90 
  -7   4   4   19.20    4.30 
  -7   4   4   27.10    6.60 
   6  -4  -4   32.20    9.00 
  -6   4   4   54.99    7.80 
  -6   4   4   39.90    6.60 
   5  -4  -4  967.60   68.19 
   5  -4  -4 1025.10   69.69 
  -5   4   4 1022.00   65.39 
  -5   4   4 1016.90   66.09 
   4  -4  -4  736.73   50.39 
   4  -4  -4  769.02   51.49 
   4  -4  -4  650.23   49.00 
  -4   4   4  705.53   48.00 
  -4   4   4  758.82   47.50 
   3  -4  -4   26.30    5.90 
   3  -4  -4   35.60    6.50 
   3  -4  -4   25.00    5.90 
  -3   4   4   35.20    4.70 
  -3   4   4   23.20    4.70 
   2  -4  -4  920.41   61.79 
   2  -4  -4  974.80   62.49 
  -2   4   4  887.51   59.49 
   1  -4  -4 2533.25  152.98 
   1  -4  -4 2383.06  152.58 
  -1   4   4 2418.76  149.88 
  -1   4   4 2386.26  146.79 
  -1   4   4 2429.86  150.78 
   0  -4  -4  248.98   21.00 
   0  -4  -4  252.47   21.50 
   0   4   4  244.78   15.70 
   0   4   4  242.68   18.60 
   0   4   4  258.67   18.40 
  -1  -4  -4   38.30    7.20 
  -1  -4  -4   34.50    8.00 
   1   4   4   39.30    6.60 
   1   4   4   38.70    3.10 
  -2  -4  -4  510.35   39.80 
  -2  -4  -4  583.84   40.90 
   2   4   4  511.35   33.00 
  -3  -4  -4  288.47   25.30 
  -3  -4  -4  229.18   24.00 
   3   4   4  300.37   18.00 
  -4  -4  -4    6.60    5.10 
   4   4   4    9.50    2.00 
  -5  -4  -4    5.20    4.80 
   9  -5  -4   47.30    9.70 
  -9   5   4   51.79    7.40 
  -9   5   4   75.39   10.30 
   8  -5  -4  150.78   17.20 
  -8   5   4  147.09   14.40 
  -8   5   4  160.78   16.40 
   7  -5  -4   16.00    6.60 
  -7   5   4    6.30    3.40 
  -7   5   4    8.00    5.10 
   6  -5  -4   45.60   10.60 
  -6   5   4   43.20    8.00 
  -6   5   4   52.79    7.50 
   5  -5  -4  759.02   59.39 
   5  -5  -4  903.41   63.09 
  -5   5   4  899.31   59.79 
  -5   5   4 1018.80   59.29 
   4  -5  -4  253.57   22.60 
   4  -5  -4  276.77   24.50 
  -4   5   4  317.37   21.80 
  -4   5   4  291.67   22.30 
   3  -5  -4  150.78   15.20 
   3  -5  -4  127.69   13.60 
  -3   5   4  141.39   13.00 
   2  -5  -4  434.36   33.00 
   2  -5  -4  458.85   34.10 
  -2   5   4  424.36   27.30 
  -2   5   4  451.45   31.30 
   1  -5  -4  457.45   34.40 
   1  -5  -4  466.25   34.90 
  -1   5   4  457.25   31.90 
  -1   5   4  443.86   28.10 
   0  -5  -4  289.87   22.70 
   0   5   4  228.68   18.60 
   0   5   4  217.98   14.90 
  -1  -5  -4  177.38   18.80 
  -1  -5  -4  205.08   19.70 
  -2  -5  -4   54.29   10.10 
  -2  -5  -4   58.19   11.00 
   2   5   4   57.39    4.70 
  -3  -5  -4  112.09   14.80 
   3   5   4  115.49    8.30 
  -4  -5  -4  274.37   29.30 
   4   5   4  247.38   16.80 
  -5  -5  -4   25.30    6.90 
   5   5   4   25.20    2.70 
   9  -6  -4   11.70    7.30 
  -9   6   4   11.60    5.00 
   8  -6  -4   -2.20    4.90 
  -8   6   4    1.00    1.80 
   7  -6  -4   33.40    9.00 
  -7   6   4   13.70    5.30 
  -7   6   4   12.00    3.80 
   6  -6  -4    2.50    4.50 
  -6   6   4    3.90    3.90 
  -6   6   4    2.60    2.20 
   5  -6  -4   31.40    8.50 
  -5   6   4   42.10    6.40 
  -5   6   4   31.20    7.20 
   4  -6  -4   19.90    7.20 
   4  -6  -4   21.80    6.00 
  -4   6   4   20.50    5.90 
   3  -6  -4   50.99    9.10 
   3  -6  -4   45.20    9.10 
  -3   6   4   53.49    7.50 
   2  -6  -4  138.19   16.50 
   2  -6  -4  150.88   16.30 
  -2   6   4  140.59    9.50 
  -2   6   4  143.19   13.50 
   1  -6  -4   56.89    9.30 
   1  -6  -4   50.49   10.00 
  -1   6   4   55.79    7.70 
  -1   6   4   53.59    4.60 
   0  -6  -4  226.58   21.00 
   0  -6  -4  208.88   20.60 
   0   6   4  192.48   17.30 
  -1  -6  -4  418.96   34.80 
  -1  -6  -4  491.15   36.30 
   1   6   4  398.56   31.50 
  -2  -6  -4  155.98   17.90 
   2   6   4  142.59   10.10 
  -3  -6  -4   -2.30    4.40 
   3   6   4    0.50    1.10 
  -4  -6  -4   82.69   11.20 
   4   6   4   61.09    5.20 
   8  -7  -4    7.50    5.20 
  -8   7   4    8.90    4.80 
  -8   7   4    3.90    2.30 
   7  -7  -4   34.10    8.50 
  -7   7   4   21.20    4.70 
   6  -7  -4   94.39   13.80 
  -6   7   4   95.99   12.70 
  -6   7   4   81.59   11.50 
   5  -7  -4    5.50    5.30 
  -5   7   4   10.90    4.90 
   4  -7  -4   18.00    7.70 
   4  -7  -4   16.80    6.30 
  -4   7   4   13.40    5.00 
   3  -7  -4  573.64   45.00 
   3  -7  -4  671.93   48.50 
  -3   7   4  626.34   39.20 
  -3   7   4  668.63   44.90 
   2  -7  -4  127.09   15.70 
   2  -7  -4  115.49   14.10 
  -2   7   4  136.29   13.40 
  -2   7   4  117.49    8.30 
   1  -7  -4   15.70    7.10 
   1  -7  -4   20.50   10.90 
  -1   7   4   19.20    5.60 
   0  -7  -4  181.08   20.50 
   0  -7  -4  220.68   21.70 
   0   7   4  196.48   17.90 
  -1  -7  -4  165.58   18.80 
  -2  -7  -4   12.40    6.70 
   2   7   4    7.90    1.80 
  -3  -7  -4    7.30    5.10 
   3   7   4    5.70    1.60 
   8  -8  -4   -4.50    5.20 
  -8   8   4   11.80    5.20 
   7  -8  -4   10.90    6.40 
  -7   8   4    8.20    7.40 
   6  -8  -4   26.70    8.50 
  -6   8   4   15.30    6.10 
   5  -8  -4   -5.30    3.70 
  -5   8   4    3.10    4.10 
   4  -8  -4    4.20    5.30 
  -4   8   4    3.50    1.20 
  -4   8   4    6.20    3.60 
   3  -8  -4   77.39   12.20 
   3  -8  -4   54.49   10.40 
  -3   8   4   61.29    5.00 
  -3   8   4   75.99   10.00 
   2  -8  -4    5.20    5.20 
  -2   8   4    4.20    3.60 
   1  -8  -4   77.09   13.00 
  -1   8   4   77.19   10.60 
   0  -8  -4   50.29   11.80 
   0   8   4   34.20    7.70 
  -1  -8  -4   28.20    8.40 
   1   8   4   19.70    2.60 
  -2  -8  -4   65.29   11.00 
   2   8   4   57.09    4.80 
   7  -9  -4   -4.20    4.30 
  -7   9   4    0.80    4.00 
   6  -9  -4   11.50    7.40 
  -6   9   4    9.50    5.30 
   5  -9  -4   52.59   11.40 
  -5   9   4   44.10    4.00 
   4  -9  -4   -0.70    4.70 
  -4   9   4    0.90    1.10 
  -4   9   4    3.00    3.60 
   3  -9  -4   18.40    7.40 
  -3   9   4    9.60    5.20 
   2  -9  -4    3.70    5.80 
   2  -9  -4    8.70    4.30 
  -2   9   4    6.00    4.80 
   1  -9  -4  175.78   18.80 
  -1   9   4  129.39   19.00 
   0  -9  -4   57.89   11.40 
  -1  -9  -4    0.50    4.80 
   1   9   4   -0.20    1.00 
   6 -10  -4   11.10    5.60 
  -6  10   4    5.70    4.70 
  -6  10   4    4.60    1.40 
   5 -10  -4   20.00    7.30 
  -5  10   4   21.90    2.40 
  -5  10   4   27.10    6.70 
   4 -10  -4   74.09    9.60 
   4 -10  -4   74.49   12.60 
  -4  10   4   85.69   10.80 
   3 -10  -4   21.50    6.00 
   3 -10  -4   30.50    8.30 
  -3  10   4   32.50    7.20 
  -2  10   4    0.90    5.60 
   1 -10  -4   20.40    6.80 
   0 -10  -4   18.50    6.80 
   0  10   4   19.30    2.20 
   4 -11  -4    9.60    5.50 
   4 -11  -4    4.50    3.40 
  -4  11   4   14.30    5.70 
   3 -11  -4    8.40    5.60 
   0  13  -5  102.09   13.40 
  -1  13  -5    9.00    5.20 
   1 -13   5    4.70    3.80 
  -2  13  -5   44.60    9.40 
   2 -13   5   34.50    6.60 
  -3  13  -5   21.20    6.80 
   3 -13   5   18.90    5.30 
  -4  13  -5  106.29   12.80 
   4 -13   5   88.09   10.70 
  -5  13  -5    5.90    4.80 
   5 -13   5    4.10    3.10 
   2  12  -5    9.20    5.90 
   1  12  -5  169.68   18.60 
   0  12  -5   17.60    6.80 
   0 -12   5    8.00    4.50 
  -1  12  -5  238.48   22.80 
   1 -12   5  238.58   20.50 
  -2  12  -5  128.29   15.20 
   2 -12   5  129.39   13.40 
  -3  12  -5   81.99   12.10 
   3 -12   5   81.09   10.70 
  -4  12  -5   77.19   15.40 
   4 -12   5   88.09   12.00 
  -5  12  -5   22.90    7.10 
   5 -12   5   19.00    5.40 
  -6  12  -5   43.90    8.50 
   6 -12   5   39.40    6.80 
   3  11  -5  158.28   16.70 
   3  11  -5  119.79    8.40 
   2  11  -5   20.30    7.20 
   1  11  -5  128.79   16.40 
  -1 -11   5  145.69   13.00 
   0  11  -5    9.00    5.10 
   0 -11   5   17.30    4.70 
   0 -11   5    6.60    2.60 
  -1  11  -5  162.78   17.20 
   1 -11   5  150.18   15.10 
  -2  11  -5  227.08   21.20 
   2 -11   5  225.98   20.10 
  -3  11  -5  131.39   14.40 
   3 -11   5  119.09   13.10 
  -4  11  -5  121.29   13.80 
   4 -11   5  111.19   12.70 
  -5  11  -5   10.80    5.10 
   5 -11   5   12.80    4.60 
  -6  11  -5  126.09   13.90 
   6 -11   5  126.39   12.50 
  -7  11  -5   -3.10    4.30 
   7 -11   5    5.10    3.30 
   4  10  -5    3.10    5.60 
   3  10  -5   25.00    9.50 
   2  10  -5  120.59   16.30 
  -2 -10   5  131.09   13.10 
   1  10  -5  301.57   26.60 
  -1 -10   5  275.87   20.50 
  -1 -10   5  317.77   23.20 
   0  10  -5  496.35   37.00 
   0 -10   5  479.25   34.40 
   0 -10   5  461.05   32.80 
  -1  10  -5   43.60    8.60 
   1 -10   5   52.09    7.80 
   1 -10   5   51.89    4.90 
   2 -10   5  195.98   17.50 
  -3  10  -5   26.80    7.00 
   3 -10   5   28.10    6.60 
  -4  10  -5  169.28   16.10 
  -4  10  -5  143.69   12.60 
   4 -10   5  167.18   15.60 
  -5  10  -5    3.80    4.10 
  -5  10  -5   -1.70    1.80 
   5 -10   5   -0.60    1.10 
   5 -10   5    1.20    2.90 
  -6  10  -5    8.30    2.70 
   6 -10   5   12.70    4.30 
   6 -10   5    4.70    2.00 
  -7  10  -5    4.50    2.30 
  -7  10  -5   -0.60    3.60 
   7 -10   5   10.80    3.60 
   5   9  -5   53.59   11.30 
   4   9  -5   15.20    7.30 
   3   9  -5   72.59   12.30 
  -3  -9   5   63.89    7.30 
   2   9  -5   42.60   10.20 
  -2  -9   5   43.20    7.50 
  -2  -9   5   42.90    5.50 
  -1  -9   5  399.76   28.20 
  -1  -9   5  371.26   25.70 
   0   9  -5    2.40    3.80 
   0  -9   5   -0.10    1.50 
   0  -9   5    1.70    3.00 
  -1   9  -5  512.65   37.70 
   1  -9   5  519.35   33.00 
   1  -9   5  535.95   37.10 
  -2   9  -5   97.09   10.80 
   2  -9   5   84.29    6.60 
   2  -9   5  107.19   10.90 
  -3   9  -5  228.48   18.20 
  -3   9  -5  180.58   14.60 
   3  -9   5  206.18   17.60 
  -4   9  -5   81.59    9.70 
  -4   9  -5   65.09    7.40 
   4  -9   5   53.39    5.70 
   4  -9   5   86.59    9.70 
  -5   9  -5  168.98   15.10 
  -5   9  -5  195.58   17.20 
   5  -9   5  180.18   16.50 
  -6   9  -5   11.30    4.60 
  -6   9  -5    2.80    2.30 
   6  -9   5    3.60    1.60 
   6  -9   5    2.80    3.30 
  -7   9  -5    4.10    2.90 
  -7   9  -5    3.40    4.10 
   7  -9   5    9.90    4.00 
   7  -9   5    7.50    1.70 
   5   8  -5  168.08   19.30 
  -5  -8   5  123.89   12.60 
   4   8  -5   21.90    8.10 
  -4  -8   5   19.10    4.30 
  -4  -8   5   26.50    5.40 
   3   8  -5  851.81   60.99 
  -3  -8   5  813.72   56.79 
  -3  -8   5  826.92   53.19 
   2   8  -5    2.70    4.80 
  -2  -8   5    1.20    2.80 
  -2  -8   5    0.40    2.20 
  -2  -8   5    3.80    3.40 
   1   8  -5  506.15   36.70 
  -1  -8   5  500.35   34.10 
  -1  -8   5  467.85   31.80 
   0   8  -5  118.99   11.90 
   0  -8   5  107.69   11.00 
   0  -8   5  112.29    8.70 
  -1   8  -5 1593.04  105.29 
   1  -8   5 1666.23  105.09 
   1  -8   5 1733.13  101.59 
  -2   8  -5  159.68   14.90 
   2  -8   5  190.38   11.60 
   2  -8   5  170.98   15.10 
  -3   8  -5  347.27   23.90 
  -3   8  -5  378.76   26.30 
   3  -8   5  393.06   26.60 
   3  -8   5  294.07   22.50 
  -4   8  -5  265.27   20.20 
  -4   8  -5  304.27   21.90 
   4  -8   5  293.77   22.00 
   4  -8   5  237.28   17.90 
  -5   8  -5   51.19    7.00 
   5  -8   5   59.99    7.80 
   5  -8   5   43.90    4.70 
  -6   8  -5  172.08   16.00 
  -6   8  -5  210.68   17.30 
   6  -8   5  141.89   12.20 
   6  -8   5  195.18   15.80 
  -7   8  -5   -3.00    3.00 
  -7   8  -5   -0.80    1.60 
   7  -8   5   -2.50    3.80 
   7  -8   5    2.60    1.30 
  -8   8  -5   22.90    4.80 
  -8   8  -5   44.70   11.50 
   8  -8   5   17.20    2.40 
   6   7  -5   37.50   10.80 
  -6  -7   5   16.40    5.10 
   5   7  -5   72.09   13.70 
  -5  -7   5   69.99    7.20 
  -5  -7   5   60.89    8.50 
   4   7  -5    6.20    5.90 
  -4  -7   5    2.80    2.50 
  -4  -7   5    0.10    2.70 
   3   7  -5  982.70   66.69 
  -3  -7   5 1013.60   61.29 
  -3  -7   5  883.71   58.89 
  -3  -7   5  862.51   59.39 
   2   7  -5   57.89    9.00 
   2   7  -5   51.39   10.00 
  -2  -7   5   48.70    5.90 
  -2  -7   5   54.89    7.20 
  -2  -7   5   54.79    5.70 
   1   7  -5  528.25   37.40 
   1   7  -5  469.65   38.20 
  -1  -7   5  547.75   35.90 
  -1  -7   5  547.95   35.40 
   0   7  -5 1239.78   81.49 
   0  -7   5 1353.86   78.49 
   0  -7   5 1228.28   82.39 
  -1   7  -5 1028.00   68.09 
   1  -7   5 1135.89   65.19 
   1  -7   5 1017.80   69.09 
  -2   7  -5  154.28   12.80 
  -2   7  -5  150.88   11.10 
   2  -7   5  173.08   13.60 
   2  -7   5  137.89   10.40 
  -3   7  -5   99.49    9.10 
  -3   7  -5  110.89   10.30 
   3  -7   5  110.79    8.00 
   3  -7   5  115.39   10.80 
  -4   7  -5  647.64   43.50 
   4  -7   5  647.44   43.90 
   4  -7   5  647.54   40.50 
  -5   7  -5   65.99    8.80 
  -5   7  -5   65.89    8.70 
   5  -7   5   68.59    8.30 
   5  -7   5   53.19    5.80 
  -6   7  -5   93.29   10.70 
  -6   7  -5   74.49   13.10 
   6  -7   5   99.09    9.70 
   6  -7   5   82.69    7.00 
  -7   7  -5    9.70    3.50 
   7  -7   5   13.90    2.30 
  -8   7  -5    3.20    2.40 
  -8   7  -5    6.00    3.70 
   7   6  -5  145.09   18.00 
  -6  -6   5    2.80    3.80 
   5   6  -5  112.39   16.30 
  -5  -6   5   90.59    8.90 
  -5  -6   5  108.39   10.90 
  -4  -6   5  125.09   12.10 
  -4  -6   5  132.29   10.80 
  -4  -6   5  130.49   11.90 
   3   6  -5  387.16   30.30 
   3   6  -5  338.17   30.00 
  -3  -6   5  353.76   23.90 
  -3  -6   5  380.06   26.00 
  -3  -6   5  311.47   24.10 
   2   6  -5  131.79   14.00 
   2   6  -5  137.19   13.70 
  -2  -6   5  117.89   10.20 
  -2  -6   5  134.29   10.20 
  -2  -6   5  136.39   11.80 
   1   6  -5  951.40   63.09 
   1   6  -5  966.10   64.89 
  -1  -6   5  956.10   61.99 
  -1  -6   5  999.60   60.09 
   0   6  -5   75.89    8.10 
   0  -6   5   93.09    6.50 
   0  -6   5   72.09    7.90 
  -1   6  -5  184.48   15.20 
  -1   6  -5  214.38   16.30 
   1  -6   5  227.28   16.80 
   1  -6   5  254.17   14.40 
   1  -6   5  246.68   14.20 
   1  -6   5  191.28   14.20 
  -2   6  -5  313.17   23.30 
  -2   6  -5  305.87   23.90 
   2  -6   5  332.97   24.80 
   2  -6   5  407.66   22.10 
   2  -6   5  386.06   22.40 
   2  -6   5  364.16   22.40 
  -3   6  -5  753.92   51.19 
  -3   6  -5  754.92   51.29 
   3  -6   5  785.52   52.49 
   3  -6   5  892.21   49.30 
  -4   6  -5    2.80    2.50 
  -4   6  -5    0.40    1.90 
   4  -6   5    0.50    1.00 
   4  -6   5    5.00    3.10 
  -5   6  -5  153.78   13.60 
  -5   6  -5  159.48   14.70 
   5  -6   5  142.79   10.40 
   5  -6   5  139.99   12.60 
  -6   6  -5    9.80    4.10 
  -6   6  -5   18.40    5.00 
   6  -6   5   11.30    2.30 
  -7   6  -5   55.89    8.50 
  -7   6  -5   67.99    9.30 
   7  -6   5   45.20    4.70 
  -8   6  -5   -0.70    3.10 
  -8   6  -5    0.70    2.10 
   8  -6   5   -0.20    1.00 
   7   5  -5  128.79   18.40 
  -7  -5   5  125.99   12.10 
   6   5  -5   52.39   13.20 
  -6  -5   5   79.29    8.70 
  -6  -5   5   62.69    8.80 
   5   5  -5  445.26   38.70 
  -5  -5   5  439.66   29.60 
   4   5  -5    1.40    3.90 
   4   5  -5   -2.70    5.80 
  -4  -5   5    0.50    1.80 
  -4  -5   5    5.00    3.50 
  -4  -5   5    2.50    2.80 
   3   5  -5 1722.53  108.99 
   3   5  -5 1698.53  107.99 
  -3  -5   5 1654.63  104.19 
  -3  -5   5 1509.25  102.49 
  -3  -5   5 1717.43  102.09 
   2   5  -5  197.18   17.00 
   2   5  -5  172.98   17.40 
  -2  -5   5  204.48   14.00 
  -2  -5   5  221.08   16.00 
  -1  -5   5 4924.21  299.37 
   0  -5   5   12.30    2.20 
   0  -5   5   16.30    3.70 
   0  -5   5   15.20    1.90 
  -1   5  -5 1195.88   87.99 
   1  -5   5 1327.97   89.59 
   1  -5   5 1487.05   87.39 
   1  -5   5 1604.94   87.59 
   1  -5   5 1576.24   87.39 
  -2   5  -5 2172.18  155.98 
   2  -5   5 2736.83  154.88 
   2  -5   5 2380.36  156.98 
   2  -5   5 2837.12  154.58 
   2  -5   5 2650.53  154.68 
  -3   5  -5 2400.56  158.68 
   3  -5   5 2763.12  157.38 
   3  -5   5 2431.06  159.48 
   3  -5   5 2781.12  157.08 
  -4   5  -5   82.89    8.30 
   4  -5   5   87.79    6.20 
   4  -5   5   76.09    8.10 
  -5   5  -5    7.10    2.70 
  -5   5  -5    1.40    2.50 
   5  -5   5    5.10    3.00 
   5  -5   5    4.90    1.50 
  -6   5  -5  486.85   33.90 
  -6   5  -5  467.35   36.40 
   6  -5   5  448.46   29.50 
  -7   5  -5   18.60    5.30 
  -7   5  -5   11.70    4.20 
   7  -5   5    7.90    1.70 
  -8   5  -5   12.60    4.10 
   8  -5   5   20.00    2.50 
  -7  -4   5   14.50    5.00 
   6   4  -5   25.90   10.40 
  -6  -4   5   23.90    4.20 
  -6  -4   5   38.10    7.50 
   5   4  -5 1116.99   77.79 
  -5  -4   5 1049.09   69.99 
  -5  -4   5 1089.39   67.89 
   4   4  -5  180.88   18.70 
   4   4  -5  181.18   18.80 
  -4  -4   5  179.38   13.40 
  -4  -4   5  176.38   14.50 
  -4  -4   5  193.98   15.30 
   3   4  -5  279.37   24.20 
   3   4  -5  308.67   24.20 
  -3  -4   5  287.07   21.10 
  -3  -4   5  301.27   19.40 
  -3  -4   5  261.27   19.80 
   2   4  -5 1711.93  108.29 
   2   4  -5 1576.54  106.59 
  -2  -4   5 1700.53  105.59 
  -2  -4   5 1789.42  103.59 
   1   4  -5 5123.29  305.77 
  -1  -4   5 4863.91  303.17 
   0  -4   5  290.97   21.50 
   0  -4   5  334.07   20.00 
  -1   4  -5 1235.98   70.99 
   1  -4   5 1148.49   68.79 
   1  -4   5 1127.19   68.69 
   1  -4   5 1152.08   68.59 
   1  -4   5  987.30   70.49 
   2  -4   5 1738.43  102.59 
   2  -4   5 1676.43  102.49 
   2  -4   5 1664.23  102.79 
  -3   4  -5  476.25   33.00 
   3  -4   5  496.45   30.20 
   3  -4   5  449.36   31.70 
   3  -4   5  498.35   29.80 
  -4   4  -5  426.76   30.10 
   4  -4   5  433.66   29.80 
   4  -4   5  447.26   28.60 
   4  -4   5  480.55   28.00 
  -5   4  -5   84.69    9.20 
   5  -4   5   92.69    6.70 
  -6   4  -5   60.99    8.10 
   6  -4   5   50.49    4.70 
  -7   4  -5    4.50    3.50 
  -7   4  -5    5.40    4.40 
   7  -4   5    3.50    1.40 
  -8   4  -5    6.20    4.00 
  -8   4  -5   10.40    4.60 
   8  -4   5   14.80    2.20 
   8   3  -5    3.20    6.80 
  -8  -3   5    1.40    4.40 
   7   3  -5   71.69   16.00 
  -7  -3   5   87.99   10.20 
  -7  -3   5   75.29    7.60 
   6   3  -5  161.48   20.60 
  -6  -3   5  168.18   13.60 
  -6  -3   5  174.98   15.80 
   5   3  -5 1229.48   89.89 
   5   3  -5 1350.16   91.79 
  -5  -3   5 1419.86   82.89 
  -5  -3   5 1326.17   85.09 
   4   3  -5    8.90    4.10 
   4   3  -5    5.20    4.00 
  -4  -3   5    1.40    2.40 
  -4  -3   5    5.40    2.20 
   3   3  -5  626.34   44.70 
   3   3  -5  587.04   42.50 
  -3  -3   5  625.64   40.50 
  -3  -3   5  546.55   39.00 
  -3  -3   5  667.33   38.50 
   2   3  -5 1190.48   86.19 
   2   3  -5 1343.17   88.19 
  -2  -3   5 1466.35   83.79 
  -2  -3   5 1493.75   90.79 
   1   3  -5 3232.98  194.68 
  -1  -3   5 3085.89  192.58 
   0   3  -5  433.36   30.50 
   0  -3   5  450.15   27.60 
  -1   3  -5 2179.48  129.49 
  -1   3  -5 1839.42  128.79 
   1  -3   5 2164.58  126.69 
   1  -3   5 2188.18  126.59 
  -2   3  -5  123.09   10.10 
  -2   3  -5  108.19    9.50 
   2  -3   5  127.49    8.00 
   2  -3   5  132.89    8.70 
   2  -3   5  121.89    8.40 
  -3   3  -5    3.40    1.50 
  -3   3  -5    4.10    1.70 
  -3   3  -5    4.70    1.70 
   3  -3   5    7.90    2.30 
   3  -3   5    2.20    1.00 
  -4   3  -5  501.45   36.20 
   4  -3   5  561.14   34.90 
   4  -3   5  598.04   34.30 
  -5   3  -5  198.28   16.90 
   5  -3   5  227.58   14.20 
  -6   3  -5   32.70    6.40 
   6  -3   5   35.40    3.60 
  -7   3  -5   15.70    5.20 
  -7   3  -5   21.80    5.80 
   8   2  -5   15.50    8.10 
  -8  -2   5   10.40    4.80 
   7   2  -5  302.07   28.80 
  -7  -2   5  247.68   18.10 
   6   2  -5    8.40    9.50 
  -6  -2   5    4.60    3.80 
  -6  -2   5    4.50    2.10 
  -6  -2   5    5.40    2.00 
   5   2  -5  972.90   66.39 
   5   2  -5  866.41   72.59 
  -5  -2   5  869.51   58.29 
  -5  -2   5 1001.00   57.99 
  -5  -2   5  911.91   60.29 
   4   2  -5  240.68   21.90 
   4   2  -5  237.58   21.50 
  -4  -2   5  278.07   19.10 
  -4  -2   5  226.78   16.90 
  -4  -2   5  247.08   18.40 
  -4  -2   5  278.07   17.00 
   3   2  -5 5730.53  340.37 
   3   2  -5 5456.75  339.37 
  -3  -2   5 5825.62  337.37 
  -3  -2   5 5195.28  334.77 
   2   2  -5  245.58   20.10 
  -2  -2   5  224.98   18.00 
  -2  -2   5  291.27   16.70 
   1   2  -5    9.00    3.20 
  -1  -2   5    7.60    1.50 
   0   2  -5 2128.89  131.39 
   0  -2   5 2124.39  128.99 
  -1   2  -5 4268.77  256.67 
  -1   2  -5 4072.29  257.57 
   1  -2   5 4324.07  254.57 
  -2   2  -5  480.65   35.00 
  -2   2  -5  547.35   33.40 
  -2   2  -5  542.45   33.20 
   2  -2   5  517.05   32.60 
   2  -2   5  543.85   32.30 
  -3   2  -5   -0.50    1.90 
  -3   2  -5    2.90    2.10 
   3  -2   5    1.40    0.80 
   3  -2   5    2.60    1.10 
  -4   2  -5  690.23   47.10 
  -4   2  -5  697.53   47.00 
   4  -2   5  759.22   44.20 
   4  -2   5  722.93   44.70 
  -5   2  -5  226.38   18.80 
   5  -2   5  253.67   15.80 
  -6   2  -5   33.00    6.40 
   6  -2   5   27.90    3.20 
  -7   2  -5   -1.60    3.30 
  -7   2  -5    0.90    2.50 
   7  -2   5    1.80    1.10 
   8   1  -5   -4.20    5.90 
  -8  -1   5    3.60    4.30 
   7   1  -5  196.08   22.20 
  -7  -1   5  133.19   13.00 
  -7  -1   5  182.78   16.60 
   6   1  -5   67.49   12.50 
  -6  -1   5   73.59    7.40 
  -6  -1   5   64.09    5.80 
   5   1  -5   49.20    9.30 
  -5  -1   5   46.60    5.30 
  -5  -1   5   47.90    6.40 
  -5  -1   5   47.80    4.50 
   4   1  -5  378.36   30.60 
   4   1  -5  377.36   30.30 
  -4  -1   5  418.16   27.70 
  -4  -1   5  431.76   25.50 
  -4  -1   5  376.86   26.10 
   3   1  -5 4845.62  304.97 
   3   1  -5 5123.09  305.67 
  -3  -1   5 5196.88  302.87 
  -3  -1   5 4765.12  300.97 
   2   1  -5  537.55   36.10 
  -2  -1   5  497.65   34.00 
  -2  -1   5  536.65   35.40 
  -2  -1   5  517.95   32.30 
   1   1  -5    7.60    2.70 
  -1  -1   5    7.30    1.40 
  -1  -1   5    5.40    2.00 
  -1   1  -5 2813.12  183.48 
   1  -1   5 3092.79  179.68 
   1  -1   5 3023.70  180.18 
   1  -1   5 2987.20  179.98 
  -3   1  -5    4.70    2.70 
  -3   1  -5    2.50    2.40 
   3  -1   5    2.00    1.20 
   3  -1   5    4.40    1.10 
  -4   1  -5  244.48   18.50 
   4  -1   5  253.57   15.70 
   4  -1   5  230.48   16.00 
  -5   1  -5   26.20    8.30 
   5  -1   5   30.50    3.10 
  -6   1  -5   10.20    4.20 
   6  -1   5   15.60    2.40 
  -7   1  -5   18.10    5.80 
   7  -1   5   17.50    2.40 
   9   0  -5   33.00   14.10 
  -9   0   5   26.20    6.50 
   8   0  -5   75.49   14.10 
  -8   0   5   45.20    6.60 
   7   0  -5  173.08   20.90 
  -7   0   5  155.38   13.80 
  -7   0   5  165.38   16.20 
   6   0  -5  102.19   14.30 
  -6   0   5   95.09    9.10 
  -6   0   5   84.99    7.10 
  -6   0   5   96.39   10.50 
   5   0  -5   39.00    9.00 
   5   0  -5   31.80    7.30 
  -5   0   5   37.40    3.60 
  -5   0   5   35.00    5.80 
  -5   0   5   36.20    4.80 
   4   0  -5  197.28   18.60 
   4   0  -5  221.48   19.40 
  -4   0   5  225.28   14.10 
  -4   0   5  204.58   16.10 
  -4   0   5  205.68   15.20 
  -4   0   5  221.88   16.30 
   3   0  -5  776.72   53.89 
   3   0  -5  779.02   53.59 
  -3   0   5  870.91   49.50 
  -3   0   5  812.02   51.39 
  -3   0   5  772.82   50.19 
   2   0  -5  475.45   32.20 
  -2   0   5  446.16   31.50 
  -2   0   5  477.45   28.60 
  -2   0   5  459.65   30.20 
  -2   0   5  438.56   28.10 
  -1   0   5 4314.57  262.47 
   0   0  -5  732.23   51.89 
   0   0  -5  790.62   49.90 
   0   0   5  810.22   47.80 
   0   0   5  797.32   48.20 
  -1   0  -5 1017.90   67.69 
   1   0   5 1076.29   63.19 
   1   0   5 1029.30   63.49 
  -2   0  -5  929.21   63.29 
  -2   0  -5  944.21   64.59 
   2   0   5  970.80   60.19 
   2   0   5 1083.59   59.89 
  -3   0  -5 1375.26   89.59 
  -3   0  -5 1349.86   90.79 
   3   0   5 1495.55   85.59 
  -4   0  -5   25.30    5.80 
  -4   0  -5   38.60    7.80 
   4   0   5   27.60    3.10 
   4   0   5   31.80    3.00 
  -5   0  -5   12.30    4.20 
   5   0   5   10.10    1.90 
  -6   0  -5  160.68   16.00 
   6   0   5  172.98   11.60 
  -7   0  -5   32.40    6.70 
   7   0   5   34.30    3.20 
   9  -1  -5   13.70    7.10 
  -9   1   5    0.30    3.70 
   8  -1  -5   10.30    7.30 
  -8   1   5    3.20    2.20 
   7  -1  -5  419.06   37.00 
  -7   1   5  379.66   29.40 
  -7   1   5  451.75   32.00 
   6  -1  -5   91.39   13.80 
  -6   1   5   91.99   10.50 
  -6   1   5   82.79    8.70 
  -6   1   5   79.39    6.90 
   5  -1  -5 1007.60   72.29 
   5  -1  -5 1139.99   74.09 
  -5   1   5 1059.29   69.19 
  -5   1   5 1118.29   65.99 
  -5   1   5 1047.10   68.19 
   4  -1  -5    1.40    2.70 
   4  -1  -5   -3.90    2.80 
  -4   1   5    1.10    1.20 
  -4   1   5    0.00    2.10 
  -4   1   5    2.20    1.00 
   3  -1  -5  876.21   60.59 
   3  -1  -5  940.71   60.79 
  -3   1   5  950.50   58.09 
  -3   1   5  819.62   58.19 
  -3   1   5  977.00   55.99 
   2  -1  -5 1782.82  112.19 
   2  -1  -5 1716.93  112.29 
  -2   1   5 1935.91  108.49 
  -2   1   5 1652.23  111.49 
  -2   1   5 1839.52  111.19 
   1  -1  -5 2219.98  124.09 
   1  -1  -5 1832.32  125.29 
  -1   1   5 1914.31  120.49 
  -1   1   5 2137.49  120.99 
  -1   1   5 1865.61  122.99 
   0  -1  -5 1458.25   82.89 
   0   1   5 1218.08   82.09 
   0   1   5 1216.88   81.29 
   0   1   5 1435.36   80.59 
  -1  -1  -5  419.96   30.60 
  -1  -1  -5  384.86   29.20 
   1   1   5  430.26   25.40 
   1   1   5  410.46   25.60 
  -2  -1  -5 2045.70  132.59 
  -2  -1  -5 2130.09  133.79 
   2   1   5 2115.59  127.99 
   2   1   5 2156.58  127.99 
  -3  -1  -5 1160.98   77.89 
  -3  -1  -5 1151.38   78.89 
   3   1   5 1201.68   72.99 
   3   1   5 1252.47   72.79 
  -4  -1  -5  131.19   13.90 
  -4  -1  -5  156.98   15.70 
  -5  -1  -5   15.90    5.70 
   5   1   5   16.70    2.50 
  -6  -1  -5   93.99   12.00 
   6   1   5   97.49    7.20 
   9  -2  -5  100.09   15.60 
  -9   2   5  124.09   12.80 
  -9   2   5   90.29    9.60 
   8  -2  -5   51.79   12.50 
  -8   2   5   55.29    9.10 
   7  -2  -5   17.80    7.40 
  -7   2   5   14.80    4.90 
   6  -2  -5  221.68   22.60 
  -6   2   5  204.88   18.10 
  -6   2   5  205.68   17.00 
  -6   2   5  218.58   14.00 
   5  -2  -5 2048.79  136.29 
   5  -2  -5 2225.58  137.99 
  -5   2   5 2167.68  129.39 
  -5   2   5 2017.90  132.89 
  -5   2   5 2203.18  132.39 
   4  -2  -5  498.25   36.10 
   4  -2  -5  474.05   35.20 
  -4   2   5  492.45   29.70 
  -4   2   5  428.26   31.90 
  -4   2   5  483.15   31.80 
   3  -2  -5   10.60    4.20 
   3  -2  -5   14.10    5.00 
  -3   2   5   13.80    3.60 
  -3   2   5    9.70    2.20 
  -3   2   5   14.70    2.00 
   2  -2  -5 3081.89  194.78 
   2  -2  -5 3236.78  194.28 
  -2   2   5 3117.99  194.38 
   1  -2  -5 4947.50  300.37 
   1  -2  -5 4532.85  302.47 
   1  -2  -5 5309.07  304.27 
   0  -2  -5   31.70    6.70 
   0  -2  -5   30.30    5.50 
   0   2   5   18.70    2.90 
   0   2   5   17.90    1.90 
  -1  -2  -5  191.88   17.70 
  -1  -2  -5  201.98   17.10 
   1   2   5  200.48   12.30 
   1   2   5  181.58   12.50 
  -2  -2  -5  771.12   54.09 
  -2  -2  -5  790.92   53.49 
   2   2   5  755.12   47.50 
   2   2   5  778.92   47.40 
  -3  -2  -5  125.09   15.10 
  -3  -2  -5  134.19   14.30 
   3   2   5  127.09    8.80 
   3   2   5  129.29    8.80 
  -4  -2  -5  165.38   16.80 
  -4  -2  -5  171.58   19.20 
   4   2   5  175.28   11.60 
  -5  -2  -5    4.00    4.30 
   5   2   5    4.00    1.40 
  -6  -2  -5   -2.00    3.40 
   6   2   5    2.30    1.10 
   9  -3  -5   -4.00    6.50 
  -9   3   5    8.00    5.00 
  -9   3   5    5.00    2.30 
   8  -3  -5   -3.00    5.80 
  -8   3   5   -1.40    1.30 
  -8   3   5    2.10    3.80 
   7  -3  -5    1.50    5.20 
  -7   3   5   -0.60    1.70 
  -7   3   5    1.90    3.70 
   6  -3  -5  133.19   17.30 
  -6   3   5  135.39   12.60 
  -6   3   5  137.29   13.50 
   5  -3  -5  604.34   45.50 
   5  -3  -5  554.84   43.80 
  -5   3   5  634.34   40.70 
  -5   3   5  591.14   41.10 
  -5   3   5  611.84   37.30 
   4  -3  -5  181.98   16.90 
   4  -3  -5  192.08   18.10 
  -4   3   5  161.58   14.40 
  -4   3   5  176.88   11.90 
  -4   3   5  189.28   14.30 
   3  -3  -5   38.40    7.10 
   3  -3  -5   30.50    6.80 
   3  -3  -5   34.60    8.40 
  -3   3   5   42.50    5.20 
  -3   3   5   42.30    5.60 
  -3   3   5   43.80    3.70 
   2  -3  -5  133.19   13.00 
   2  -3  -5  113.49   12.50 
   2  -3  -5  125.39   11.80 
  -2   3   5  119.09    7.90 
  -2   3   5  104.39   10.00 
   1  -3  -5  445.86   34.20 
   1  -3  -5  467.05   33.60 
  -1   3   5  463.45   31.70 
  -1   3   5  449.56   28.20 
   0  -3  -5  139.39   14.10 
   0  -3  -5  128.19   14.30 
   0   3   5  136.89    9.00 
   0   3   5  141.09   11.10 
  -1  -3  -5  778.62   53.99 
  -1  -3  -5  735.73   54.19 
   1   3   5  751.22   47.50 
   1   3   5  829.92   47.50 
  -2  -3  -5   15.50    6.20 
  -2  -3  -5   23.30    7.00 
   2   3   5   14.30    2.00 
   2   3   5   13.70    1.80 
  -3  -3  -5   34.70    9.80 
  -3  -3  -5   26.80    8.70 
   3   3   5   28.60    3.00 
  -4  -3  -5  422.96   33.80 
   4   3   5  433.16   27.10 
  -5  -3  -5  285.47   23.80 
   5   3   5  274.77   18.10 
   9  -4  -5    6.10    6.20 
  -9   4   5    8.40    4.60 
  -9   4   5    2.70    2.10 
   8  -4  -5   75.39   13.70 
  -8   4   5   87.79   11.10 
  -8   4   5   73.49    9.10 
   7  -4  -5   63.39   12.30 
  -7   4   5   82.49   10.40 
  -7   4   5   70.59    8.70 
   6  -4  -5   53.39   13.10 
  -6   4   5   67.09    8.00 
  -6   4   5   56.59    8.80 
   5  -4  -5  116.89   14.70 
   5  -4  -5   85.89   12.00 
  -5   4   5  117.69   10.80 
  -5   4   5  100.89   11.00 
   4  -4  -5   69.59    9.70 
   4  -4  -5   51.29    9.20 
   4  -4  -5   66.19   10.60 
  -4   4   5   70.49    8.10 
   3  -4  -5 2642.84  160.78 
   3  -4  -5 2460.45  160.98 
   3  -4  -5 2652.73  161.98 
  -3   4   5 2463.05  157.78 
   2  -4  -5   29.30    7.70 
   2  -4  -5   16.50    5.40 
  -2   4   5   20.60    2.20 
  -2   4   5   19.80    4.60 
   1  -4  -5   37.10    8.20 
   1  -4  -5   42.00    7.80 
  -1   4   5   38.30    6.00 
  -1   4   5   39.80    3.20 
   0  -4  -5 1864.81  115.29 
   0  -4  -5 1779.52  115.69 
   0   4   5 1695.23  107.59 
  -1  -4  -5 1963.10  120.89 
  -1  -4  -5 1749.12  120.49 
   1   4   5 1857.31  112.99 
  -2  -4  -5   16.10    6.50 
  -2  -4  -5   15.70    5.60 
  -3  -4  -5  135.09   16.20 
   3   4   5  131.09    9.30 
  -4  -4  -5  256.27   22.60 
   4   4   5  230.38   15.70 
  -5  -4  -5   53.99    8.50 
   5   4   5   44.50    4.00 
   9  -5  -5   40.90    9.80 
  -9   5   5   61.39    8.80 
  -9   5   5   38.80    6.30 
  -8   5   5   -0.20    1.80 
   7  -5  -5  124.69   16.60 
  -7   5   5  139.69   13.50 
  -7   5   5  133.79   14.40 
   6  -5  -5    5.50    5.40 
   6  -5  -5   -9.50    5.10 
  -6   5   5    2.00    1.70 
  -6   5   5    6.00    3.60 
   5  -5  -5   28.00    8.40 
  -5   5   5   40.90    6.50 
  -5   5   5   41.20    6.80 
   4  -5  -5  524.55   41.90 
   4  -5  -5  609.44   44.30 
  -4   5   5  590.04   40.10 
   3  -5  -5  846.72   59.89 
   3  -5  -5  877.31   61.09 
  -3   5   5  871.31   57.19 
   2  -5  -5   62.09   10.20 
   2  -5  -5   69.09   10.00 
  -2   5   5   64.39    4.80 
  -2   5   5   55.39    7.50 
   1  -5  -5    7.90    5.00 
   1  -5  -5    6.50    4.60 
  -1   5   5    7.90    3.70 
   0  -5  -5 1778.82  120.49 
   0  -5  -5 2006.70  121.49 
   0   5   5 1770.82  111.89 
  -1  -5  -5  158.68   19.40 
   1   5   5  159.18   11.90 
  -2  -5  -5   30.70    8.80 
   2   5   5   26.20    2.90 
  -3  -5  -5   10.20    6.20 
  -4  -5  -5  100.59   12.40 
   4   5   5   74.49    6.00 
   8  -6  -5   45.90   10.00 
  -8   6   5   51.99    8.50 
  -8   6   5   37.70    6.60 
   7  -6  -5  113.59   16.10 
  -7   6   5  116.29   13.50 
  -7   6   5  131.89   12.90 
   6  -6  -5   -0.70    4.60 
  -6   6   5   -4.30    3.40 
  -6   6   5   -1.00    1.50 
   5  -6  -5    4.10    4.80 
  -5   6   5    8.60    4.30 
   4  -6  -5  387.96   33.10 
   4  -6  -5  467.75   36.70 
  -4   6   5  448.46   32.30 
   3  -6  -5   85.19   12.40 
   3  -6  -5  109.89   14.70 
  -3   6   5   87.59    6.60 
  -3   6   5   90.09   10.40 
   2  -6  -5    3.40    4.70 
   2  -6  -5   12.20    5.50 
  -2   6   5    7.80    1.50 
  -2   6   5    7.80    3.90 
   1  -6  -5  176.28   18.70 
   1  -6  -5  144.79   16.60 
  -1   6   5  144.09   13.60 
  -1   6   5  135.99    9.60 
   0  -6  -5    5.80    6.40 
   0  -6  -5   -0.50    4.20 
  -1  -6  -5   32.10    9.10 
   1   6   5   35.60    3.50 
  -2  -6  -5   93.59   13.60 
   2   6   5   77.29    6.20 
  -3  -6  -5  112.49   13.80 
   3   6   5   80.49    6.50 
   8  -7  -5   -1.20    5.00 
  -8   7   5   -4.40    3.70 
   7  -7  -5   11.70    6.70 
  -7   7   5   19.80    7.10 
   6  -7  -5   -5.50    4.00 
  -6   7   5   -0.10    3.80 
   5  -7  -5   36.90   10.50 
  -5   7   5   42.90    7.90 
   4  -7  -5   63.69   11.90 
  -4   7   5   63.09    5.10 
  -4   7   5   60.49    9.40 
   3  -7  -5   98.29   14.00 
  -3   7   5   93.09   10.80 
  -3   7   5   75.59    7.50 
   2  -7  -5  118.09   15.50 
   2  -7  -5  135.99   16.50 
  -2   7   5  108.39    7.80 
  -2   7   5  109.99   12.70 
   1  -7  -5   79.99   12.90 
   0  -7  -5  149.59   18.50 
  -1  -7  -5   34.40    9.80 
   1   7   5   28.50    3.10 
  -2  -7  -5  163.08   17.80 
   2   7   5  129.39    9.50 
   8  -8  -5   10.40    6.80 
  -8   8   5    3.40    5.60 
   7  -8  -5    0.00    5.10 
  -7   8   5    3.50    4.70 
   6  -8  -5    8.60    6.80 
  -6   8   5    9.80    5.40 
   5  -8  -5   50.89   11.70 
  -5   8   5   42.40    4.00 
  -5   8   5   41.70    8.60 
   4  -8  -5   18.00    7.60 
  -4   8   5   28.20    6.40 
  -4   8   5   18.60    2.40 
   3  -8  -5   22.40    8.60 
  -3   8   5   35.70    6.80 
  -3   8   5   27.70    2.80 
   2  -8  -5  110.79   15.20 
  -2   8   5  105.19   12.60 
   1  -8  -5  182.38   20.60 
   0  -8  -5   13.10    6.90 
   0   8   5    8.90    1.80 
  -1  -8  -5   26.60    8.20 
   1   8   5   11.70    1.90 
  -7   9   5    6.60    5.20 
  -7   9   5    8.70    1.80 
   6  -9  -5    7.80    5.90 
  -6   9   5    7.40    4.90 
  -6   9   5   13.90    2.10 
   5  -9  -5   31.30    8.60 
  -5   9   5   45.30    8.00 
  -5   9   5   31.90    3.20 
   4  -9  -5   10.70    6.00 
  -4   9   5    6.00    5.40 
  -4   9   5    4.90    1.20 
   3  -9  -5    2.80    4.00 
   3  -9  -5   -0.60    4.80 
  -3   9   5    2.10    4.90 
   1  -9  -5    8.30    6.30 
   0  -9  -5   -3.40    4.70 
   0   9   5   -0.10    0.90 
   6 -10  -5    0.80    4.50 
  -6  10   5    1.50    5.10 
   5 -10  -5   -0.60    4.90 
   5 -10  -5    0.20    2.70 
  -5  10   5    1.80    1.00 
  -5  10   5    7.80    7.50 
   4 -10  -5   -6.10    3.30 
   4 -10  -5    5.00    5.50 
   3 -10  -5   43.50    9.80 
   2 -10  -5    3.60    5.20 
  -2  10   5    2.90    1.10 
   0  13  -6  134.59   15.30 
   0 -13   6  132.39   12.10 
  -1  13  -6   31.10    7.40 
   1 -13   6   31.90    6.60 
  -2  13  -6  115.49   14.00 
   2 -13   6  104.99   11.80 
  -3  13  -6    8.50    5.20 
   3 -13   6   14.50    5.00 
  -4  13  -6  121.29   13.70 
   4 -13   6  115.49   12.40 
   2  12  -6   65.19   11.60 
   1  12  -6  109.89   14.30 
  -1 -12   6  108.79   11.10 
   0  12  -6   80.59   12.20 
   0 -12   6   85.59    9.90 
  -1  12  -6   85.09   12.30 
   1 -12   6   79.89   10.00 
  -2  12  -6  186.18   18.40 
   2 -12   6  165.78   16.40 
  -3  12  -6   21.60    7.00 
   3 -12   6   14.60    5.50 
  -4  12  -6   89.19   11.40 
   4 -12   6   77.79   10.40 
  -5  12  -6   15.10    5.50 
   5 -12   6    8.50    4.20 
   6 -12   6   28.90    5.90 
   3  11  -6  135.29   16.50 
   2  11  -6   67.49   12.30 
   1  11  -6  154.38   17.80 
  -1 -11   6  158.08   14.50 
   0  11  -6  246.08   21.80 
   0 -11   6  205.58   15.40 
   0 -11   6  222.78   19.00 
  -1  11  -6  114.99   13.90 
   1 -11   6  104.99   12.10 
  -2  11  -6  365.56   29.70 
   2 -11   6  372.56   28.80 
  -3  11  -6   22.60    6.10 
   3 -11   6   15.50    5.80 
  -4  11  -6  217.88   19.60 
   4 -11   6  197.28   18.40 
  -5  11  -6    8.70    7.40 
   5 -11   6    6.30    3.70 
  -6  11  -6  100.39   11.70 
   6 -11   6   95.49   10.50 
   4  10  -6   30.00    8.60 
   3  10  -6   60.59   15.60 
   2  10  -6  118.19   16.00 
  -2 -10   6  129.59   12.40 
   1  10  -6   32.50    8.40 
  -1 -10   6   31.90    6.40 
  -1 -10   6   32.40    4.60 
   0  10  -6  505.25   37.70 
   0 -10   6  475.75   35.30 
  -1  10  -6   66.29   10.00 
   1 -10   6   81.49    9.50 
   1 -10   6   68.39    6.00 
  -2  10  -6  230.08   20.50 
   2 -10   6  237.98   20.10 
  -3  10  -6   -2.10    3.40 
   3 -10   6    4.30    3.70 
  -4  10  -6  335.97   26.30 
   4 -10   6  320.07   25.80 
  -5  10  -6   -0.90    3.30 
  -5  10  -6    2.10    2.50 
   5 -10   6    0.30    2.90 
   5 -10   6    0.10    1.30 
  -6  10  -6   23.00    5.20 
   6 -10   6   23.90    3.10 
  -7  10  -6    0.30    5.90 
  -7  10  -6    4.60    2.50 
   7 -10   6    2.20    1.10 
   7 -10   6    8.20    4.00 
   5   9  -6   -5.90    4.30 
   4   9  -6  142.19   23.00 
   3   9  -6   62.39   11.40 
  -3  -9   6   56.79    6.50 
   2   9  -6  210.38   21.20 
  -2  -9   6  212.28   17.60 
  -2  -9   6  196.68   15.10 
  -1  -9   6   43.10    4.90 
  -1  -9   6   46.10    7.00 
   0   9  -6  388.36   29.40 
   0  -9   6  392.66   28.20 
   0  -9   6  352.06   24.50 
  -1   9  -6   54.19    7.90 
   1  -9   6   56.89    7.80 
   1  -9   6   52.39    4.70 
  -2   9  -6  200.18   17.60 
   2  -9   6  195.38   17.40 
  -3   9  -6   34.90    6.50 
   3  -9   6   21.00    3.10 
   3  -9   6   34.30    7.00 
  -4   9  -6   56.09    6.40 
   4  -9   6   42.00    4.80 
   4  -9   6   64.89    8.40 
  -5   9  -6   74.59    9.40 
   5  -9   6   63.49    8.30 
   5  -9   6   45.90    5.10 
  -6   9  -6   13.00    4.90 
  -6   9  -6    6.90    2.50 
   6  -9   6   10.80    3.80 
   6  -9   6    3.40    1.60 
  -7   9  -6   -0.10    4.10 
  -7   9  -6    7.10    2.60 
   7  -9   6   -0.90    0.90 
   5   8  -6   67.79   13.10 
   4   8  -6   80.99   14.00 
  -4  -8   6   77.59    9.30 
   3   8  -6  444.86   37.50 
  -3  -8   6  474.85   34.60 
  -3  -8   6  462.45   30.80 
   2   8  -6   61.79   10.60 
  -2  -8   6   68.69    8.70 
  -2  -8   6   74.59    6.90 
   1   8  -6  756.22   53.09 
  -1  -8   6  753.82   51.19 
  -1  -8   6  795.62   48.70 
   0   8  -6  405.56   30.50 
   0  -8   6  426.56   30.10 
   0  -8   6  420.26   27.00 
  -1   8  -6  474.15   35.50 
   1  -8   6  527.15   36.10 
   1  -8   6  534.05   32.30 
  -2   8  -6 1009.80   67.89 
   2  -8   6 1102.39   64.19 
   2  -8   6 1032.70   68.49 
  -3   8  -6  267.07   19.80 
  -3   8  -6  235.28   17.60 
   3  -8   6  280.27   20.50 
   3  -8   6  219.18   16.40 
  -4   8  -6  225.38   17.60 
  -4   8  -6  208.28   16.20 
   4  -8   6  216.08   17.60 
   4  -8   6  170.88   13.80 
  -5   8  -6    6.20    2.70 
  -5   8  -6   13.00    4.30 
   5  -8   6    6.70    4.10 
   5  -8   6    3.80    1.60 
  -6   8  -6  199.88   18.70 
  -6   8  -6  240.78   19.70 
   6  -8   6  235.68   18.30 
  -7   8  -6    1.70    4.20 
  -7   8  -6    5.80    2.50 
   7  -8   6    0.70    1.10 
   6   7  -6   -5.60    5.20 
   5   7  -6  239.68   25.50 
  -5  -7   6  233.58   17.30 
   4   7  -6   30.20    9.70 
  -4  -7   6   39.10    5.20 
   3   7  -6  307.77   28.30 
  -3  -7   6  336.17   24.60 
  -3  -7   6  323.97   22.40 
   2   7  -6  699.93   49.40 
  -2  -7   6  713.13   44.30 
  -2  -7   6  668.23   46.60 
   1   7  -6  599.44   42.40 
  -1  -7   6  638.84   38.90 
  -1  -7   6  589.14   41.00 
   0   7  -6  657.23   47.50 
   0  -7   6  730.83   47.80 
   0  -7   6  764.12   44.90 
  -1   7  -6   26.90    5.40 
   1  -7   6   35.90    3.20 
   1  -7   6   36.00    5.60 
   1  -7   6   21.70    3.10 
  -2   7  -6  719.63   47.60 
  -2   7  -6  774.32   49.50 
   2  -7   6  716.83   46.90 
   2  -7   6  836.52   50.79 
  -3   7  -6   21.80    4.10 
  -3   7  -6   28.80    5.40 
   3  -7   6   23.60    5.40 
   3  -7   6   28.70    3.10 
  -4   7  -6  315.87   24.20 
  -4   7  -6  338.77   24.20 
   4  -7   6  332.97   21.40 
   4  -7   6  329.67   24.70 
  -5   7  -6    5.30    3.00 
  -5   7  -6   12.40    4.10 
   5  -7   6   10.30    2.20 
  -6   7  -6   72.99    9.40 
  -6   7  -6   63.19    9.30 
   6  -7   6   66.79    8.00 
   6  -7   6   61.39    5.60 
  -7   7  -6    7.90    3.30 
  -7   7  -6    4.70    4.00 
   7  -7   6    6.70    1.70 
   7   6  -6   19.50    8.10 
  -6  -6   6   82.09    9.50 
   5   6  -6  212.38   23.70 
  -5  -6   6  217.58   15.30 
  -5  -6   6  173.28   16.10 
  -4  -6   6   15.40    3.40 
  -4  -6   6   10.80    4.50 
  -4  -6   6    8.50    3.80 
   3   6  -6   27.30    9.60 
   3   6  -6   33.40    8.30 
  -3  -6   6   50.49    6.70 
  -3  -6   6   41.30    4.90 
  -3  -6   6   21.70    7.60 
   2   6  -6 1091.79   73.09 
   2   6  -6 1033.10   74.49 
  -2  -6   6 1157.68   68.89 
  -2  -6   6 1134.89   71.39 
   1   6  -6 1110.99   75.09 
   1   6  -6 1160.28   77.99 
  -1  -6   6 1231.28   72.39 
  -1  -6   6 1182.88   74.69 
   0   6  -6   60.79    7.00 
   0  -6   6   65.09    5.10 
   0  -6   6   60.29    4.40 
   0  -6   6   52.69    6.60 
  -1   6  -6   58.89    7.20 
   1  -6   6   59.29    5.20 
   1  -6   6   73.69    7.70 
   1  -6   6   79.09    5.40 
   1  -6   6   85.29    5.60 
  -2   6  -6  695.13   49.10 
  -2   6  -6  676.63   49.50 
   2  -6   6  895.61   47.90 
   2  -6   6  816.32   54.39 
   2  -6   6  840.62   48.10 
   2  -6   6  751.12   48.50 
  -3   6  -6  144.99   12.30 
  -3   6  -6  141.99   12.40 
   3  -6   6  155.68   10.60 
   3  -6   6  141.99   12.90 
   3  -6   6  161.78   10.30 
  -4   6  -6   86.79   13.10 
  -4   6  -6  106.89   10.90 
   4  -6   6  106.79   10.30 
   4  -6   6  111.49    7.80 
  -5   6  -6   56.09    8.70 
  -5   6  -6   75.09    8.70 
   5  -6   6   67.89    5.70 
   5  -6   6   71.69    8.00 
  -6   6  -6    8.70    4.50 
  -6   6  -6    7.60    3.50 
   6  -6   6   12.30    2.20 
  -7   6  -6    3.00    3.00 
  -7   6  -6   -0.70    3.60 
   7  -6   6    1.90    1.30 
   7   5  -6   37.60   11.10 
  -7  -5   6   43.30    8.50 
   6   5  -6   30.10   10.30 
  -6  -5   6   33.90    5.30 
  -6  -5   6   27.20    6.00 
   5   5  -6  463.05   38.50 
  -5  -5   6  411.56   30.00 
  -5  -5   6  391.26   29.70 
  -5  -5   6  440.56   28.50 
   4   5  -6   26.30    8.10 
  -4  -5   6   27.50    5.40 
  -4  -5   6   35.70    4.60 
  -4  -5   6   38.90    6.40 
   3   5  -6  702.73   50.59 
   3   5  -6  687.53   51.79 
  -3  -5   6  726.53   47.70 
  -3  -5   6  724.23   45.20 
   2   5  -6  288.27   22.50 
  -2  -5   6  241.68   16.90 
  -2  -5   6  231.68   18.90 
   1   5  -6  560.24   39.60 
  -1  -5   6  557.64   34.50 
  -1  -5   6  527.95   36.50 
   0   5  -6  160.38   14.30 
   0  -5   6  153.98    9.70 
   0  -5   6  132.89   12.00 
   0  -5   6  149.59   10.20 
  -1   5  -6 1587.84  102.99 
  -1   5  -6 1410.36  102.09 
   1  -5   6 1671.23  104.29 
   1  -5   6 1806.52  101.69 
   1  -5   6 1829.42  101.89 
   1  -5   6 1746.13  101.59 
   2  -5   6  236.98   14.60 
   2  -5   6  221.78   14.40 
   2  -5   6  224.98   14.70 
   2  -5   6  214.28   16.80 
   3  -5   6  103.69    7.40 
   3  -5   6  108.79    9.70 
   3  -5   6  102.19    7.80 
  -4   5  -6  518.75   36.40 
   4  -5   6  578.44   34.20 
   4  -5   6  541.95   36.50 
  -5   5  -6   71.89    8.40 
   5  -5   6   71.19    5.80 
  -6   5  -6  166.68   17.40 
  -6   5  -6  159.78   14.90 
   6  -5   6  171.38   11.60 
  -7   5  -6   -2.10    3.60 
  -7   5  -6    0.10    3.10 
   7  -5   6    2.10    1.20 
   7   4  -6   22.80   13.20 
  -7  -4   6   56.19    8.20 
   6   4  -6    0.40    6.60 
  -6  -4   6    3.20    3.40 
  -6  -4   6    2.50    2.00 
   5   4  -6  525.85   42.30 
  -5  -4   6  509.65   33.20 
  -5  -4   6  486.55   34.80 
  -5  -4   6  510.35   35.50 
   4   4  -6  131.79   15.50 
   4   4  -6  118.09   15.40 
  -4  -4   6  141.09   10.30 
  -4  -4   6  122.19   12.10 
  -4  -4   6  115.39   10.90 
   3   4  -6 1991.80  132.99 
   3   4  -6 1991.90  131.39 
  -3  -4   6 2236.78  126.59 
  -3  -4   6 2041.50  128.99 
   2   4  -6  229.38   20.40 
   2   4  -6  221.88   18.70 
  -2  -4   6  260.77   18.30 
   1   4  -6  209.08   18.00 
  -1  -4   6  216.48   14.10 
  -1  -4   6  213.78   13.70 
  -1  -4   6  204.28   15.80 
  -1   4  -6  801.72   51.99 
   1  -4   6  698.13   49.90 
   1  -4   6  831.22   47.90 
   1  -4   6  779.22   48.20 
   1  -4   6  805.92   48.00 
  -2   4  -6  211.48   17.20 
  -2   4  -6  270.77   19.40 
   2  -4   6  266.77   16.20 
   2  -4   6  247.38   18.10 
   2  -4   6  255.77   16.20 
   2  -4   6  257.27   15.90 
  -3   4  -6  182.38   15.30 
  -3   4  -6  188.18   12.20 
  -3   4  -6  196.88   15.10 
   3  -4   6  198.38   12.50 
   3  -4   6  197.18   13.10 
   3  -4   6  187.18   14.50 
  -4   4  -6 1341.17   88.49 
   4  -4   6 1345.47   87.09 
   4  -4   6 1485.25   91.09 
   4  -4   6 1506.15   86.49 
  -5   4  -6    1.50    2.40 
   5  -4   6    0.80    1.20 
   6  -4   6    2.40    1.50 
  -7   4  -6    8.30    3.50 
  -7   4  -6   11.00    4.20 
   7  -4   6    9.10    2.10 
   8   3  -6   33.30   10.80 
  -8  -3   6   15.80    7.10 
   7   3  -6  121.09   18.40 
  -7  -3   6  128.09   13.00 
   6   3  -6   21.40    9.50 
  -6  -3   6   19.20    3.50 
   5   3  -6    2.80    4.80 
  -5  -3   6    2.50    1.80 
  -5  -3   6    1.30    2.70 
  -5  -3   6    5.10    3.40 
   4   3  -6  823.62   61.79 
   4   3  -6  864.41   61.59 
  -4  -3   6  937.81   53.59 
  -4  -3   6  887.81   57.99 
  -4  -3   6  792.62   56.09 
  -4  -3   6  964.80   55.29 
   3   3  -6 1001.70   71.69 
   3   3  -6  985.00   70.39 
  -3  -3   6 1112.09   64.89 
  -3  -3   6 1057.79   68.59 
  -3  -3   6 1173.08   66.19 
   2   3  -6   11.50    4.00 
   2   3  -6   14.30    4.50 
  -2  -3   6   10.10    1.30 
  -2  -3   6   11.70    2.10 
  -2  -3   6   14.00    3.60 
   1   3  -6  583.04   41.10 
  -1  -3   6  591.54   36.30 
  -1  -3   6  576.04   38.90 
  -1  -3   6  624.74   37.00 
   0   3  -6 1307.77   79.59 
   0  -3   6 1067.39   75.69 
   0  -3   6 1276.67   78.69 
   0  -3   6 1323.47   75.79 
  -1   3  -6 1233.78   82.69 
  -1   3  -6 1342.47   82.59 
   1  -3   6 1208.58   80.99 
   1  -3   6 1336.87   79.09 
   1  -3   6 1330.17   79.39 
   1  -3   6 1371.56   79.59 
  -2   3  -6  134.69   12.60 
  -2   3  -6  170.38   13.70 
   2  -3   6  160.98   10.60 
   2  -3   6  145.79   11.80 
   2  -3   6  162.38   10.70 
   2  -3   6  168.18   10.20 
  -3   3  -6    6.40    2.40 
  -3   3  -6    6.70    2.80 
   3  -3   6   10.90    2.90 
   3  -3   6    7.20    1.40 
   3  -3   6    6.40    1.80 
   4  -3   6   96.39    7.50 
   4  -3   6   90.49    6.70 
  -5   3  -6    1.70    3.20 
   5  -3   6    0.10    1.20 
  -6   3  -6   63.39    8.80 
   6  -3   6   69.19    5.60 
  -7   3  -6    3.10    3.10 
   7  -3   6    2.90    1.10 
  -8  -2   6   64.29    8.80 
   7   2  -6  542.65   44.30 
  -7  -2   6  450.35   31.80 
  -7  -2   6  515.45   36.10 
   6   2  -6    2.40    4.90 
  -6  -2   6    0.30    1.60 
   5   2  -6  132.79   16.60 
   5   2  -6  135.59   16.90 
  -5  -2   6  151.58   10.60 
  -5  -2   6  128.89   10.70 
  -5  -2   6  145.19    9.20 
  -5  -2   6  137.09   12.90 
   4   2  -6 1208.98   80.89 
   4   2  -6 1191.48   81.29 
  -4  -2   6 1118.49   74.09 
  -4  -2   6 1272.77   73.29 
  -4  -2   6 1356.46   74.59 
  -4  -2   6 1094.59   75.79 
   3   2  -6 1475.65  100.89 
   3   2  -6 1592.34  102.49 
  -3  -2   6 1682.93   96.59 
  -3  -2   6 1575.04   99.09 
  -3  -2   6 1572.64   95.69 
   2   2  -6  178.48   16.40 
  -2  -2   6  207.38   12.60 
  -2  -2   6  175.68   11.80 
  -2  -2   6  184.98   14.40 
   1   2  -6  172.78   15.50 
  -1  -2   6  217.28   14.90 
  -1  -2   6  164.78   11.70 
  -1  -2   6  194.88   12.30 
   0   2  -6  247.08   18.90 
   0  -2   6  263.67   16.10 
   0  -2   6  242.18   17.50 
   0  -2   6  240.98   15.60 
  -1   2  -6   52.89    7.30 
  -1   2  -6   60.89    6.40 
   1  -2   6   52.59    5.70 
   1  -2   6   69.09    4.70 
   1  -2   6   60.29    4.80 
   1  -2   6   65.59    4.30 
  -2   2  -6 1490.65  102.19 
   2  -2   6 1589.94   98.69 
   2  -2   6 1775.92   98.19 
  -3   2  -6  203.08   17.10 
  -3   2  -6  185.28   15.00 
   3  -2   6  231.48   13.50 
   3  -2   6  213.28   14.10 
  -4   2  -6   48.10    6.30 
  -4   2  -6   49.00    7.00 
   4  -2   6   57.99    5.10 
   4  -2   6   64.09    4.60 
  -5   2  -6   49.70    7.10 
   5  -2   6   50.79    4.40 
  -6   2  -6  138.59   13.20 
   6  -2   6  136.59    9.80 
  -7   2  -6    4.30    3.70 
  -7   2  -6    7.00    3.90 
   7  -2   6    6.10    1.40 
   8   1  -6    7.40    6.30 
  -8  -1   6    0.60    3.80 
   7   1  -6   43.10   12.40 
  -7  -1   6   41.60    6.60 
  -7  -1   6   38.00    3.40 
  -7  -1   6   45.80    8.10 
  -6  -1   6    7.90    2.40 
  -6  -1   6    7.10    4.20 
   5   1  -6  714.33   52.79 
   5   1  -6  691.23   52.49 
  -5  -1   6  734.03   45.70 
  -5  -1   6  737.73   44.80 
  -5  -1   6  683.63   47.20 
   4   1  -6    0.60    3.10 
  -4  -1   6    0.30    1.20 
  -4  -1   6    0.10    2.20 
  -4  -1   6   -0.30    2.00 
   3   1  -6    4.70    3.70 
   3   1  -6    6.30    3.60 
  -3  -1   6    6.60    1.20 
  -3  -1   6    4.50    1.50 
  -3  -1   6    2.70    1.00 
   2   1  -6 3079.59  192.18 
  -2  -1   6 3026.50  187.08 
  -2  -1   6 3201.68  189.88 
   1   1  -6 2968.10  178.18 
  -1  -1   6 2771.62  175.98 
  -1  -1   6 2813.62  173.88 
  -1  -1   6 2977.80  174.38 
   0   1  -6  478.45   32.00 
   0   1  -6  432.36   33.70 
   0  -1   6  508.55   29.60 
   0  -1   6  458.15   30.70 
   0  -1   6  477.75   29.20 
  -1   1  -6 1058.09   64.79 
  -1   1  -6  944.41   68.19 
   1  -1   6 1049.89   63.79 
   1  -1   6 1050.09   63.49 
   1  -1   6 1090.79   63.19 
  -2   1  -6 1788.22  114.89 
   2  -1   6 1939.41  109.59 
   2  -1   6 1699.63  109.89 
  -3   1  -6  374.56   26.40 
  -3   1  -6  351.86   28.40 
   3  -1   6  410.76   23.70 
   3  -1   6  370.36   24.20 
  -4   1  -6   30.20    5.70 
  -4   1  -6   25.20    6.90 
   4  -1   6   33.50    3.70 
   4  -1   6   38.50    3.30 
  -5   1  -6  219.08   18.60 
   5  -1   6  248.28   15.50 
  -6   1  -6   55.49   10.00 
   6  -1   6   47.60    4.40 
  -7   1  -6   -1.70    4.50 
  -7   1  -6    5.20    3.30 
   7  -1   6    2.70    1.10 
   9   0  -6  -10.00    5.10 
  -9   0   6    1.50    4.20 
   8   0  -6    0.20    6.60 
  -8   0   6   -0.20    1.60 
   7   0  -6    3.90    6.00 
  -7   0   6    3.20    3.50 
  -7   0   6    0.00    1.60 
   6   0  -6  244.88   25.10 
  -6   0   6  241.48   18.00 
  -6   0   6  232.78   16.10 
  -6   0   6  241.68   19.60 
   5   0  -6  606.84   48.40 
   5   0  -6  709.33   49.80 
  -5   0   6  667.53   42.90 
  -5   0   6  654.33   44.10 
   4   0  -6  434.46   32.90 
   4   0  -6  407.36   32.50 
  -4   0   6  376.36   28.10 
  -4   0   6  417.66   27.60 
  -4   0   6  448.56   26.60 
   3   0  -6  393.46   30.20 
   3   0  -6  384.16   30.30 
  -3   0   6  399.26   26.40 
  -3   0   6  433.86   28.00 
  -3   0   6  411.36   25.60 
   2   0  -6 2228.18  141.69 
   2   0  -6 2168.78  141.19 
  -2   0   6 2170.88  136.79 
  -2   0   6 2374.86  137.39 
  -2   0   6 2379.36  139.39 
   1   0  -6 3179.58  172.68 
  -1   0   6 2396.86  170.68 
  -1   0   6 2744.03  168.18 
  -1   0   6 2883.01  168.68 
  -1   0   6 2735.23  170.98 
   0   0  -6  152.28   14.90 
   0   0  -6  161.08   12.70 
   0   0   6  153.18   11.70 
   0   0   6  162.58   10.40 
   0   0   6  167.68   10.10 
   0   0   6  156.88   10.90 
  -1   0  -6  149.79   14.40 
   1   0   6  137.79    9.50 
   1   0   6  143.19    9.20 
  -2   0  -6 1038.40   71.39 
  -2   0  -6 1086.59   69.49 
   2   0   6 1091.99   65.29 
  -3   0  -6  174.48   15.30 
  -3   0  -6  176.08   17.10 
   3   0   6  161.38   11.80 
   3   0   6  186.68   11.50 
  -4   0  -6  109.29   11.50 
  -4   0  -6  122.09   14.50 
   4   0   6  130.89    8.40 
   4   0   6  106.09    8.50 
  -5   0  -6   97.69   10.80 
   5   0   6   97.09    7.20 
  -6   0  -6    0.90    3.70 
   6   0   6    2.50    1.20 
   9  -1  -6   28.30    9.10 
   8  -1  -6   87.19   14.20 
  -8   1   6   52.49    6.90 
   7  -1  -6   35.40   10.80 
  -7   1   6   32.90    7.50 
  -7   1   6   31.70    5.20 
   6  -1  -6   29.20    9.80 
  -6   1   6   26.70    4.70 
  -6   1   6   29.70    3.20 
  -6   1   6   36.20    6.60 
   5  -1  -6  680.03   48.10 
   5  -1  -6  599.24   46.40 
  -5   1   6  602.14   39.10 
  -5   1   6  609.64   42.10 
  -5   1   6  652.83   41.30 
   4  -1  -6   18.30    6.50 
   4  -1  -6    8.20    4.00 
  -4   1   6   12.10    3.60 
  -4   1   6    8.60    2.00 
  -4   1   6   10.80    2.00 
   3  -1  -6  752.32   52.09 
   3  -1  -6  741.03   52.19 
  -3   1   6  757.12   49.30 
  -3   1   6  782.02   46.90 
   2  -1  -6  955.40   66.99 
   2  -1  -6 1026.90   66.99 
  -2   1   6 1092.79   62.69 
  -2   1   6  978.80   62.09 
  -2   1   6 1049.40   64.59 
   1  -1  -6  142.79   13.80 
   1  -1  -6  178.68   16.10 
   1  -1  -6  154.88   13.20 
  -1   1   6  141.09   14.10 
  -1   1   6  150.08   11.60 
  -1   1   6  160.38   10.60 
  -1   1   6  152.18   10.00 
   0  -1  -6  693.63   48.90 
   0  -1  -6  712.73   50.79 
   0  -1  -6  711.93   50.89 
   0   1   6  740.53   44.80 
   0   1   6  780.02   44.50 
  -1  -1  -6 1352.26   91.99 
   1   1   6 1474.95   85.29 
   1   1   6 1385.36   85.59 
  -2  -1  -6    9.70    4.90 
   2   1   6   14.90    1.80 
   2   1   6   12.10    1.90 
  -3  -1  -6   75.59   11.50 
  -3  -1  -6   75.39   10.10 
   3   1   6   80.29    6.10 
   3   1   6   81.39    5.90 
  -4  -1  -6  136.79   14.00 
   4   1   6  145.09    9.90 
  -5  -1  -6  103.69   12.00 
   5   1   6  126.09    8.50 
  -6  -1  -6    2.70    3.70 
   6   1   6    6.20    1.50 
   9  -2  -6  108.49   14.60 
  -9   2   6   87.29    6.80 
  -9   2   6   94.29   12.80 
   8  -2  -6    7.90    6.20 
  -8   2   6   -4.00    4.50 
  -8   2   6    0.50    1.80 
   7  -2  -6   19.30    7.80 
  -7   2   6   14.10    5.20 
  -7   2   6    7.50    2.90 
   6  -2  -6   50.89   12.10 
  -6   2   6   65.19    7.50 
  -6   2   6   61.89    5.20 
  -6   2   6   70.69    9.20 
   5  -2  -6  257.47   23.20 
   5  -2  -6  197.48   21.70 
  -5   2   6  204.58   18.50 
  -5   2   6  234.08   15.00 
  -5   2   6  225.98   17.90 
   4  -2  -6  639.74   44.80 
   4  -2  -6  576.44   43.30 
  -4   2   6  618.14   39.30 
  -4   2   6  612.54   37.20 
  -4   2   6  537.75   39.30 
   3  -2  -6 1261.47   78.29 
   3  -2  -6 1160.48   76.99 
  -3   2   6 1228.08   71.59 
  -3   2   6 1029.90   72.89 
   2  -2  -6  277.57   24.10 
   2  -2  -6  281.57   22.30 
   2  -2  -6  317.27   23.60 
  -2   2   6  276.07   17.90 
  -2   2   6  274.17   18.40 
   1  -2  -6   59.39    9.20 
   1  -2  -6   62.29    8.60 
   1  -2  -6   67.39    7.70 
  -1   2   6   53.99    7.00 
  -1   2   6   59.79    4.60 
  -1   2   6   69.49    4.40 
   0  -2  -6 3287.97  201.88 
   0  -2  -6 3173.58  199.68 
   0   2   6 2942.71  195.58 
   0   2   6 3462.55  193.88 
   0   2   6 3200.18  194.08 
  -1  -2  -6  977.10   65.19 
   1   2   6  953.80   57.09 
   1   2   6  886.41   57.39 
  -2  -2  -6  166.28   16.60 
  -2  -2  -6  155.78   17.60 
   2   2   6  177.48   10.90 
   2   2   6  153.68   11.00 
   3   2   6  217.18   12.70 
   3   2   6  161.88   12.40 
  -4  -2  -6  520.65   37.80 
   4   2   6  496.15   31.80 
  -5  -2  -6   50.09    8.40 
   5   2   6   58.19    4.70 
   9  -3  -6   -7.80    5.20 
  -9   3   6    4.90    4.90 
  -9   3   6   -1.10    0.90 
  -9   3   6    4.80    3.50 
   8  -3  -6   38.80   10.40 
  -8   3   6   31.20    5.60 
   7  -3  -6  237.38   25.00 
  -7   3   6  236.38   20.50 
   6  -3  -6    5.30    6.00 
  -6   3   6    2.10    3.60 
  -6   3   6    7.00    2.80 
   5  -3  -6   68.29   12.30 
  -5   3   6   63.89    7.70 
  -5   3   6   71.79    5.70 
  -5   3   6   77.29    8.90 
   4  -3  -6  763.52   54.69 
  -4   3   6  729.63   47.10 
  -4   3   6  798.22   49.90 
  -4   3   6  751.92   49.90 
   3  -3  -6 1115.79   70.79 
   3  -3  -6  990.00   70.19 
   3  -3  -6 1046.60   69.29 
  -3   3   6  941.11   65.39 
  -3   3   6 1070.19   63.09 
   2  -3  -6  192.38   16.60 
   2  -3  -6  171.18   17.70 
  -2   3   6  181.58   11.90 
   1  -3  -6   13.10    5.60 
   0  -3  -6  752.02   52.29 
   0  -3  -6  691.83   53.39 
   0   3   6  704.83   45.50 
   0   3   6  802.72   45.30 
  -1  -3  -6 1276.87   86.59 
  -1  -3  -6 1359.76   85.79 
   1   3   6 1300.47   77.79 
   1   3   6 1190.98   77.89 
  -2  -3  -6   39.40    8.90 
  -2  -3  -6   33.60    8.30 
   2   3   6   23.80    2.60 
   2   3   6   27.30    3.30 
  -3  -3  -6   67.39   11.30 
   3   3   6   83.09    6.10 
  -4  -3  -6    9.70    5.70 
   4   3   6   11.10    1.90 
  -5  -3  -6    6.30    3.80 
   5   3   6    6.30    1.50 
   9  -4  -6    7.30    6.00 
  -8   4   6    1.60    1.70 
  -8   4   6    0.10    4.10 
   7  -4  -6  242.88   25.30 
  -7   4   6  245.68   20.80 
  -7   4   6  227.38   19.40 
   6  -4  -6  130.99   17.80 
   6  -4  -6  107.69   15.10 
  -6   4   6  138.59   12.70 
   5  -4  -6  110.89   15.00 
   5  -4  -6   78.09   12.00 
  -5   4   6   98.49   10.90 
  -5   4   6  124.39   11.10 
   4  -4  -6  217.38   21.90 
   4  -4  -6  258.57   23.50 
  -4   4   6  247.38   19.30 
   3  -4  -6 1128.59   71.59 
   3  -4  -6  938.81   81.09 
   3  -4  -6 1131.49   73.19 
  -3   4   6 1002.90   67.39 
   2  -4  -6   32.60    8.30 
  -2   4   6   38.10    3.30 
   1  -4  -6  146.09   16.60 
   1  -4  -6  160.58   16.70 
  -1   4   6  140.49    9.80 
   0  -4  -6   -2.10    4.50 
   0  -4  -6    2.60    5.50 
   0   4   6    2.60    1.30 
   0   4   6    2.00    1.00 
  -1  -4  -6    1.90    5.50 
  -1  -4  -6    9.10    5.70 
   1   4   6    5.00    1.40 
   1   4   6    4.00    1.20 
  -2  -4  -6  366.06   31.20 
   2   4   6  358.86   23.00 
  -3  -4  -6  127.89   15.40 
   3   4   6  109.79    8.20 
  -4  -4  -6    1.90    4.20 
   4   4   6    3.00    1.10 
   8  -5  -6   13.50    6.50 
  -8   5   6   12.10    4.70 
  -8   5   6    7.40    2.70 
   7  -5  -6   20.10    8.10 
  -7   5   6   16.60    4.00 
  -7   5   6   22.00    6.00 
   6  -5  -6   21.10    7.90 
   6  -5  -6   19.00    9.60 
  -6   5   6   29.60    5.40 
  -6   5   6   15.30    5.80 
   5  -5  -6  190.58   21.40 
   5  -5  -6  253.97   24.10 
  -5   5   6  245.58   19.70 
   4  -5  -6   16.50    5.90 
   4  -5  -6   17.00    7.50 
  -4   5   6   19.10    4.90 
   3  -5  -6   35.40    8.40 
   3  -5  -6   29.10    8.70 
  -3   5   6   31.50    3.20 
  -3   5   6   27.80    6.10 
   2  -5  -6 1173.28   77.59 
   2  -5  -6 1051.19   76.39 
  -2   5   6 1111.49   67.89 
   1  -5  -6  496.95   40.60 
   1  -5  -6  568.44   41.90 
  -1   5   6  504.95   32.30 
   0  -5  -6   33.50   10.70 
   0  -5  -6   24.50    8.00 
   0   5   6   23.50    2.40 
   0   5   6   25.90    3.50 
  -1  -5  -6  185.78   20.30 
   1   5   6  183.88   12.30 
  -2  -5  -6  520.85   39.00 
   2   5   6  438.76   29.60 
  -3  -5  -6  105.89   13.40 
   3   5   6   84.49    6.60 
   8  -6  -6   -7.00    4.40 
  -8   6   6    4.40    5.00 
   7  -6  -6   22.40    8.80 
  -7   6   6   16.70    6.70 
   6  -6  -6  433.96   37.20 
  -6   6   6  433.56   32.70 
   5  -6  -6   68.59   13.30 
   5  -6  -6   91.39   14.20 
  -5   6   6   99.99   11.20 
   4  -6  -6   10.70    5.90 
  -4   6   6    3.70    1.50 
  -4   6   6    7.40    4.00 
   3  -6  -6   14.90    7.00 
   3  -6  -6   11.50    5.80 
  -3   6   6    4.70    4.50 
  -3   6   6   12.00    2.30 
   2  -6  -6  556.24   45.40 
   2  -6  -6  684.53   48.40 
  -2   6   6  574.04   37.10 
   1  -6  -6  268.97   25.20 
  -1   6   6  219.58   15.00 
   0  -6  -6   70.29   12.80 
   0   6   6   62.49    5.10 
  -1  -6  -6   11.10    5.90 
   1   6   6    6.40    1.70 
  -2  -6  -6   57.89   11.10 
   2   6   6   38.10    3.70 
  -3  -6  -6    0.20    4.20 
   3   6   6    4.80    1.30 
   8  -7  -6   10.20    5.90 
  -8   7   6    5.30    7.80 
   7  -7  -6    7.00    5.40 
  -7   7   6   -0.50    4.80 
   6  -7  -6    4.10    5.20 
  -6   7   6    1.20    1.40 
  -6   7   6    9.00    5.00 
   5  -7  -6  204.08   21.60 
  -5   7   6  174.08   12.20 
  -5   7   6  170.28   16.50 
   4  -7  -6    3.00    5.70 
  -4   7   6    0.20    4.10 
  -4   7   6    1.30    1.30 
   3  -7  -6   40.80   10.70 
  -3   7   6   38.10    3.60 
  -3   7   6   51.49    8.70 
   2  -7  -6   17.00    7.70 
  -2   7   6   14.40    1.90 
   1  -7  -6   42.20   11.00 
  -1   7   6   40.30    3.70 
   0  -7  -6  141.89   17.40 
   0   7   6  107.19    8.20 
  -1  -7  -6   27.00    8.80 
   1   7   6   24.10    2.70 
  -2  -7  -6    1.10    4.70 
   2   7   6    1.10    0.90 
   7  -8  -6    3.60    5.10 
  -7   8   6   -2.10    0.90 
  -7   8   6   -4.60    9.60 
   6  -8  -6   -4.00    4.00 
  -6   8   6    1.60    1.40 
  -6   8   6    3.70    5.20 
   5  -8  -6   12.20    6.00 
  -5   8   6   12.70    5.30 
  -5   8   6    7.80    2.10 
   4  -8  -6   19.00    8.00 
  -4   8   6   18.20    2.30 
  -4   8   6   13.90    9.80 
   3  -8  -6   18.00    7.60 
  -3   8   6   20.50    2.30 
   2  -8  -6   18.60    7.80 
   1  -8  -6    8.50    7.80 
  -1   8   6   13.50    2.10 
   0  -8  -6   47.90   10.90 
   0   8   6   45.70    3.90 
  -1  -8  -6   16.90    6.80 
   1   8   6   13.20    1.90 
   6  -9  -6    2.00    5.50 
  -6   9   6    2.60    1.30 
   5  -9  -6    7.00    5.90 
  -5   9   6    4.70    1.20 
   4  -9  -6   31.10    8.30 
  -4   9   6   15.00    1.90 
   3  -9  -6   10.20    6.40 
  -3   9   6   12.80    1.70 
   2  -9  -6    5.20    5.60 
  -2   9   6    3.80    1.20 
   1  -9  -6   72.79   12.70 
  -1   9   6   76.49    5.50 
   0  13  -7  103.89   12.80 
   0 -13   7   74.79   10.60 
  -1  13  -7   12.00    5.80 
   1 -13   7   19.60    5.00 
  -2  13  -7  132.79   14.50 
   2 -13   7  118.39   12.50 
  -3  13  -7   12.10    4.40 
   3 -13   7   -2.80    2.60 
  -4  13  -7  113.39   12.80 
   4 -13   7  114.59   12.00 
   2  12  -7  150.78   17.00 
   1  12  -7   17.20    6.80 
  -1 -12   7   13.80    4.90 
   0  12  -7  192.08   19.00 
   0 -12   7  164.68   15.70 
   1 -12   7    3.90    6.00 
   2 -12   7  194.88   17.90 
  -3  12  -7   -5.80    3.50 
  -4  12  -7   69.69   10.10 
   4 -12   7   67.49    9.20 
  -5  12  -7   -4.60    4.00 
   5 -12   7   -1.30    2.20 
   3  11  -7   71.49   12.00 
   2  11  -7  120.09   15.30 
  -2 -11   7  118.29   11.40 
   1  11  -7   78.89   12.60 
  -1 -11   7   79.59    9.90 
   0  11  -7  375.96   31.00 
   0 -11   7  383.66   29.00 
  -1  11  -7   13.80    5.80 
   1 -11   7   13.90    5.20 
  -2  11  -7  352.56   28.00 
   2 -11   7  350.76   27.70 
  -3  11  -7   -3.70    3.50 
   3 -11   7   -0.30    3.00 
  -4  11  -7  124.59   13.30 
   4 -11   7  124.49   13.20 
  -5  11  -7   29.30    6.60 
   5 -11   7   26.20    6.10 
   6 -11   7   54.99    7.60 
   4  10  -7  117.59   15.60 
   3  10  -7   29.30    9.20 
   2  10  -7  281.97   25.40 
  -2 -10   7  261.97   20.60 
  -2 -10   7  236.48   18.00 
   1  10  -7    5.30    5.10 
  -1 -10   7   11.00    4.40 
  -1 -10   7   13.30    3.10 
   0  10  -7  492.45   37.50 
   0 -10   7  487.95   31.90 
   0 -10   7  509.45   36.00 
  -1  10  -7    3.40    3.60 
   1 -10   7    2.50    1.80 
   1 -10   7    4.10    3.80 
  -2  10  -7  281.47   23.00 
   2 -10   7  272.57   22.80 
  -3  10  -7   29.40    6.70 
   3 -10   7   27.80    6.60 
  -4  10  -7  197.98   17.70 
   4 -10   7  186.48   17.30 
   5 -10   7   26.60    6.10 
  -6  10  -7   39.60    7.70 
   6 -10   7   42.30    6.40 
   5   9  -7   -1.80    5.00 
   4   9  -7   49.20   11.60 
   3   9  -7    0.80    5.00 
  -3  -9   7    4.60    3.40 
  -3  -9   7    2.60    2.50 
   2   9  -7  394.36   32.50 
  -2  -9   7  375.46   26.10 
  -2  -9   7  401.56   29.10 
   1   9  -7   50.89    8.90 
  -1  -9   7   47.50    5.10 
  -1  -9   7   33.20    6.90 
   0   9  -7  176.38   17.00 
   0  -9   7  193.58   16.70 
   0  -9   7  184.58   13.00 
  -1   9  -7   -3.40    2.60 
   1  -9   7    6.10    3.50 
   1  -9   7    2.20    1.40 
  -2   9  -7  552.54   39.90 
   2  -9   7  606.04   46.30 
  -3   9  -7   11.90    4.50 
   3  -9   7   12.10    4.80 
  -4   9  -7   91.29   10.10 
   4  -9   7   71.99    6.60 
  -5   9  -7    3.40    2.30 
  -5   9  -7    6.70    4.70 
   5  -9   7    1.90    3.10 
   5  -9   7    2.80    1.50 
  -6   9  -7    5.10    3.50 
  -6   9  -7    9.40    4.70 
   6  -9   7    4.80    1.70 
   6  -9   7   12.20    4.10 
  -7   9  -7    4.60    2.70 
   7  -9   7    1.20    1.10 
   5   8  -7   40.60   10.70 
   4   8  -7   99.69   15.00 
  -4  -8   7   88.19   11.10 
  -4  -8   7  106.79    9.90 
   3   8  -7   54.69   10.70 
  -3  -8   7   50.29    6.00 
  -3  -8   7   59.79    7.80 
   2   8  -7  410.46   32.30 
  -2  -8   7  390.16   26.30 
  -2  -8   7  382.26   29.10 
   1   8  -7  150.48   14.90 
  -1  -8   7  155.88   11.50 
  -1  -8   7  151.78   13.90 
   0   8  -7  227.68   19.20 
   0  -8   7  242.98   16.00 
   0  -8   7  228.28   18.90 
  -1   8  -7   55.59    7.20 
   1  -8   7   48.20    7.40 
  -2   8  -7  371.76   27.90 
   2  -8   7  389.16   29.00 
   2  -8   7  415.76   24.90 
  -3   8  -7   34.40    6.30 
   3  -8   7   29.00    3.50 
   3  -8   7   40.60    6.50 
  -4   8  -7  117.39   11.00 
  -4   8  -7  128.99   12.00 
   4  -8   7  111.49    9.00 
   4  -8   7  136.29   12.60 
  -5   8  -7   11.70    4.40 
  -5   8  -7    4.00    3.00 
   5  -8   7    7.50    3.90 
   5  -8   7    6.20    1.80 
  -6   8  -7  115.79   11.40 
  -6   8  -7  100.59   12.50 
   6  -8   7   83.99    7.80 
   6  -8   7  128.49   10.90 
  -7   8  -7    3.00    2.50 
   7  -8   7    2.00    1.40 
   6   7  -7   37.50    9.60 
   5   7  -7  277.97   26.90 
  -5  -7   7  239.68   18.50 
   4   7  -7  177.38   19.70 
  -4  -7   7  146.49   12.40 
  -4  -7   7  168.38   15.00 
   3   7  -7  160.78   19.80 
  -3  -7   7  182.88   13.40 
  -3  -7   7  169.78   15.80 
   2   7  -7  863.41   59.59 
  -2  -7   7  869.11   54.49 
  -2  -7   7  861.21   57.39 
   1   7  -7   29.50    7.40 
   1   7  -7   29.90    6.30 
  -1  -7   7   31.70    3.90 
  -1  -7   7   31.30    6.10 
   0   7  -7 2253.27  147.69 
   0  -7   7 2467.25  144.19 
   0  -7   7 2454.85  148.29 
   0  -7   7 2354.76  145.29 
  -1   7  -7   27.60    5.40 
   1  -7   7   39.50    6.20 
   1  -7   7   36.50    3.60 
   1  -7   7   34.20    3.30 
  -2   7  -7  444.76   32.60 
   2  -7   7  521.75   30.40 
   2  -7   7  512.55   34.40 
   2  -7   7  434.16   30.40 
   2  -7   7  517.05   30.70 
  -3   7  -7  187.08   15.70 
   3  -7   7  209.88   14.10 
   3  -7   7  237.38   17.90 
  -4   7  -7  451.65   31.10 
  -4   7  -7  396.86   31.50 
   4  -7   7  473.55   29.90 
   4  -7   7  479.65   32.30 
  -5   7  -7    9.90    3.50 
  -5   7  -7    9.70    3.90 
   5  -7   7   16.20    4.30 
   5  -7   7   14.30    2.40 
  -6   7  -7    2.30    2.30 
   6  -7   7    3.00    1.50 
  -7   7  -7    0.50    2.50 
   7  -7   7    0.50    1.00 
   7   6  -7    7.70    6.10 
   5   6  -7    8.40    6.20 
  -5  -6   7   -1.00    3.80 
  -5  -6   7   -0.50    2.10 
   4   6  -7  240.98   23.70 
  -4  -6   7  239.08   20.10 
   3   6  -7   69.99   10.80 
  -3  -6   7   71.79    8.70 
  -3  -6   7   68.29    6.80 
   2   6  -7  269.47   23.40 
   2   6  -7  286.87   25.50 
  -2  -6   7  317.27   20.20 
  -2  -6   7  308.67   22.80 
   1   6  -7   21.40    4.80 
   1   6  -7   18.30    5.80 
  -1  -6   7   23.80    3.80 
  -1  -6   7   21.10    5.00 
  -1  -6   7   15.80    2.50 
   0   6  -7  692.03   47.80 
   0   6  -7  739.53   51.99 
   0  -6   7  764.12   45.90 
   0  -6   7  761.62   45.20 
   0  -6   7  724.13   48.50 
  -1   6  -7  394.16   30.90 
   1  -6   7  424.46   28.90 
   1  -6   7  361.36   25.40 
   1  -6   7  423.96   25.60 
   1  -6   7  425.86   25.70 
  -2   6  -7   91.39   10.20 
  -2   6  -7  121.89   12.40 
   2  -6   7  124.29    8.20 
   2  -6   7  120.39   11.10 
   2  -6   7  123.89    8.40 
   2  -6   7  110.39    8.10 
  -3   6  -7   11.80    3.20 
  -3   6  -7   24.70    5.30 
   3  -6   7   13.40    2.20 
   3  -6   7   22.60    4.60 
   3  -6   7   15.90    2.60 
  -4   6  -7  182.08   16.90 
   4  -6   7  209.48   13.50 
   4  -6   7  203.68   16.00 
  -5   6  -7    9.00    3.30 
   5  -6   7    8.10    1.90 
  -6   6  -7   29.90    6.00 
   6  -6   7   23.80    3.20 
  -7   6  -7    2.90    2.60 
   7  -6   7    6.40    1.80 
   7   5  -7   72.89   13.80 
   6   5  -7    9.30    7.10 
  -6  -5   7   22.40    3.90 
   5   5  -7   26.20    9.40 
  -5  -5   7   22.40    5.10 
  -5  -5   7   25.20    4.20 
   4   5  -7  696.73   53.59 
  -4  -5   7  738.33   46.40 
  -4  -5   7  741.03   49.90 
   3   5  -7  571.44   45.80 
   3   5  -7  607.94   44.10 
  -3  -5   7  591.14   41.50 
  -3  -5   7  637.54   38.80 
   2   5  -7    1.70    4.00 
   2   5  -7    3.80    3.40 
  -2  -5   7    3.00    0.90 
  -2  -5   7    1.10    1.70 
  -2  -5   7    0.00    2.10 
   1   5  -7   18.80    5.20 
   1   5  -7   14.60    5.00 
  -1  -5   7   12.40    1.70 
  -1  -5   7   12.40    3.90 
  -1  -5   7   12.50    2.40 
   0   5  -7  505.05   36.80 
   0  -5   7  494.75   33.90 
   0  -5   7  538.45   31.00 
   0  -5   7  433.26   30.90 
   0  -5   7  532.25   31.60 
  -1   5  -7   38.70    8.00 
   1  -5   7   36.80    3.70 
   1  -5   7   36.00    5.20 
   1  -5   7   41.00    3.50 
   1  -5   7   43.40    3.40 
  -2   5  -7  458.95   34.40 
   2  -5   7  504.15   30.50 
   2  -5   7  496.95   30.10 
   2  -5   7  463.15   32.80 
   2  -5   7  484.85   30.30 
  -3   5  -7    4.60    3.70 
   3  -5   7    6.00    3.10 
   3  -5   7   10.20    2.00 
   3  -5   7   14.40    2.50 
   4  -5   7  204.88   15.30 
   4  -5   7  220.58   16.60 
   4  -5   7  233.98   14.70 
   5  -5   7    0.20    1.20 
  -6   5  -7  189.88   15.00 
  -6   5  -7  136.59   15.90 
   6  -5   7  150.48   11.20 
  -7   5  -7   -1.80    1.60 
   7  -5   7    0.30    0.90 
   7   4  -7   85.09   15.40 
   6   4  -7   15.60    7.80 
  -6  -4   7   12.30    2.70 
  -6  -4   7    0.70    4.60 
   5   4  -7  211.68   23.00 
  -5  -4   7  226.98   15.90 
  -5  -4   7  215.98   18.60 
   4   4  -7  448.96   37.30 
  -4  -4   7  455.85   34.00 
  -4  -4   7  508.95   31.10 
   3   4  -7  277.07   24.70 
   3   4  -7  294.37   26.40 
  -3  -4   7  302.97   23.10 
  -3  -4   7  315.07   18.90 
  -3  -4   7  319.47   20.40 
   2   4  -7 1707.03  113.89 
   2   4  -7 1709.13  111.19 
  -2  -4   7 1735.23  106.39 
  -2  -4   7 1850.81  107.59 
  -2  -4   7 1790.22  110.19 
   1   4  -7   30.40    7.20 
  -1  -4   7   35.30    3.80 
  -1  -4   7   43.20    3.20 
  -1  -4   7   39.30    5.60 
   0   4  -7 3284.17  204.88 
   0  -4   7 3428.96  200.08 
   0  -4   7 3312.97  199.58 
   0  -4   7 3207.58  202.28 
   0  -4   7 3289.67  199.38 
  -1   4  -7   48.00    6.60 
  -1   4  -7   53.09    7.20 
   1  -4   7   44.60    5.60 
   1  -4   7   55.19    4.40 
   1  -4   7   53.09    3.90 
   1  -4   7   47.70    4.10 
  -2   4  -7 2343.57  142.79 
   2  -4   7 2143.39  139.59 
   2  -4   7 2257.37  141.09 
   2  -4   7 2287.17  139.09 
   2  -4   7 2426.76  139.19 
   3  -4   7   25.80    4.50 
   3  -4   7   19.80    3.10 
   3  -4   7   18.50    2.40 
   4  -4   7  140.59   11.40 
   4  -4   7  171.28   10.80 
  -5   4  -7  285.67   21.70 
   5  -4   7  305.87   19.30 
   6  -4   7   72.09    5.90 
  -7   4  -7    3.00    3.00 
  -7   4  -7   -4.70    4.00 
   7  -4   7    2.40    1.10 
   8   3  -7   48.90   12.10 
   7   3  -7   53.59   13.00 
  -7  -3   7   50.49   10.80 
   6   3  -7  229.88   25.50 
  -6  -3   7  235.18   16.60 
  -6  -3   7  235.18   19.20 
   5   3  -7   95.29   14.20 
  -5  -3   7   85.29    7.60 
  -5  -3   7   92.29   10.20 
  -5  -3   7   85.19    9.10 
   4   3  -7  107.99   15.00 
   4   3  -7  111.19   14.10 
  -4  -3   7  129.79    9.50 
  -4  -3   7  120.29    8.00 
  -4  -3   7  122.49   12.20 
   3   3  -7    4.40    4.20 
   3   3  -7    3.20    3.50 
  -3  -3   7    7.40    3.10 
  -3  -3   7    4.60    1.00 
  -3  -3   7    4.00    1.80 
   2   3  -7 3662.13  246.88 
  -2  -3   7 4138.09  244.08 
  -2  -3   7 4151.28  240.48 
   1   3  -7  767.82   52.29 
  -1  -3   7  723.03   49.20 
  -1  -3   7  782.82   47.20 
  -1  -3   7  771.82   46.50 
   0   3  -7    7.30    3.60 
   0  -3   7   10.90    1.40 
   0  -3   7   18.00    3.60 
   0  -3   7   12.00    1.60 
  -1   3  -7  770.52   50.99 
   1  -3   7  769.02   47.60 
   1  -3   7  731.53   49.20 
   1  -3   7  768.72   47.30 
   1  -3   7  801.92   46.90 
  -2   3  -7 1967.30  125.09 
  -2   3  -7 2178.68  125.69 
  -2   3  -7 1803.72  127.09 
   2  -3   7 1970.70  125.19 
   2  -3   7 2195.68  123.19 
   2  -3   7 2079.09  123.69 
  -3   3  -7   46.90    8.10 
   3  -3   7   48.20    4.70 
   3  -3   7   54.19    4.10 
  -4   3  -7   86.89    8.20 
   4  -3   7   88.39    6.40 
   4  -3   7   81.29    7.10 
  -5   3  -7   32.70    6.10 
   5  -3   7   37.00    3.70 
  -6   3  -7   52.69    8.00 
   6  -3   7   58.29    4.90 
  -7   3  -7    2.40    4.30 
  -7   3  -7    3.50    3.00 
   7  -3   7    1.60    0.90 
   8   2  -7   22.80    9.30 
  -8  -2   7   -6.00    6.50 
   7   2  -7   14.60    8.70 
  -7  -2   7   17.00    5.20 
  -7  -2   7   19.30    3.50 
   6   2  -7  183.18   22.20 
  -6  -2   7  196.68   15.90 
  -6  -2   7  198.58   12.50 
  -6  -2   7  184.78   16.40 
   5   2  -7  297.97   27.60 
  -5  -2   7  312.47   18.80 
  -5  -2   7  284.87   23.30 
  -5  -2   7  315.07   20.20 
  -5  -2   7  272.87   21.70 
   4   2  -7   47.30   11.70 
   4   2  -7   52.79   10.00 
  -4  -2   7   52.19    4.20 
  -4  -2   7   65.79    5.40 
  -4  -2   7   58.79    7.60 
   3   2  -7  104.09   12.30 
   3   2  -7   98.99   11.40 
  -3  -2   7   92.39    6.50 
  -3  -2   7  102.99    7.50 
  -3  -2   7   86.39   10.30 
   2   2  -7 1394.96   90.79 
   2   2  -7 1267.37   91.79 
  -2  -2   7 1534.25   87.09 
  -2  -2   7 1439.36   89.39 
  -2  -2   7 1457.05   86.19 
   1   2  -7  899.81   61.59 
  -1  -2   7  949.60   56.59 
  -1  -2   7  904.11   59.09 
  -1  -2   7  957.40   57.29 
   0   2  -7  298.67   23.40 
   0  -2   7  295.37   21.70 
   0  -2   7  320.97   20.40 
   0  -2   7  326.27   19.90 
   0  -2   7  328.97   19.50 
  -1   2  -7  149.79   12.20 
  -1   2  -7  142.79   14.10 
   1  -2   7  138.99    9.80 
   1  -2   7  137.09   11.20 
   1  -2   7  157.88   10.30 
   1  -2   7  142.09    9.40 
  -2   2  -7  154.48   14.90 
   2  -2   7  155.18   10.80 
   2  -2   7  164.68   10.20 
   2  -2   7  146.99   12.10 
  -3   2  -7   94.39   10.80 
  -3   2  -7   76.89    8.00 
   3  -2   7   93.59    6.30 
   3  -2   7   87.89    7.00 
  -4   2  -7    8.90    3.30 
   4  -2   7   12.40    3.90 
  -5   2  -7   -2.50    2.70 
   5  -2   7    0.30    1.20 
  -6   2  -7    5.30    3.60 
   6  -2   7    3.20    1.30 
   8   1  -7   10.50    7.10 
  -8  -1   7    5.10    4.70 
   7   1  -7   34.00   11.70 
  -7  -1   7   35.40    3.30 
  -7  -1   7   42.00    7.40 
   6   1  -7  368.56   32.30 
  -6  -1   7  315.67   22.40 
  -6  -1   7  326.17   25.30 
  -6  -1   7  361.16   21.60 
   5   1  -7  361.66   30.90 
  -5  -1   7  335.37   22.50 
  -5  -1   7  359.46   21.60 
  -5  -1   7  320.27   22.80 
   4   1  -7   98.39   13.70 
   4   1  -7  118.19   14.10 
  -4  -1   7  110.39   11.10 
  -4  -1   7  116.99    8.90 
  -4  -1   7  118.39    7.80 
   3   1  -7   12.70    4.70 
   3   1  -7   19.00    5.40 
  -3  -1   7   15.60    2.70 
  -3  -1   7   15.00    4.40 
  -3  -1   7   18.90    2.00 
   2   1  -7  330.47   32.70 
   2   1  -7  382.26   27.00 
  -2  -1   7  364.56   25.10 
  -2  -1   7  357.26   22.90 
  -2  -1   7  343.87   22.20 
   1   1  -7   10.70    3.50 
  -1  -1   7   10.10    1.40 
  -1  -1   7   14.60    3.20 
  -1  -1   7   10.70    2.10 
   0   1  -7 1348.57   95.49 
   0   1  -7 1534.85   93.19 
   0  -1   7 1512.45   89.49 
   0  -1   7 1484.05   90.09 
   0  -1   7 1417.06   91.39 
   0  -1   7 1535.65   89.19 
  -1   1  -7   68.09    5.80 
  -1   1  -7   66.59    9.30 
   1  -1   7   71.29    4.80 
   1  -1   7   69.89    6.00 
   1  -1   7   57.69    6.20 
  -2   1  -7    9.70    4.90 
  -2   1  -7    4.70    4.40 
   2  -1   7   13.70    1.60 
   2  -1   7   10.60    2.00 
  -3   1  -7 1068.59   67.69 
  -3   1  -7  994.70   73.89 
   3  -1   7 1172.38   65.09 
   3  -1   7 1007.00   65.69 
  -4   1  -7  411.86   30.80 
   4  -1   7  400.66   28.20 
   4  -1   7  499.75   27.80 
  -5   1  -7    6.60    3.30 
   5  -1   7    5.00    1.60 
  -6   1  -7    8.30    4.00 
   6  -1   7   10.60    1.90 
   8   0  -7   13.90    6.90 
  -8   0   7   12.70    5.10 
  -8   0   7   13.70    2.00 
   7   0  -7   75.59   14.10 
  -7   0   7   68.39    9.20 
  -7   0   7   60.39    5.00 
   6   0  -7  117.59   15.60 
  -6   0   7   87.09    7.20 
  -6   0   7   94.39   10.30 
  -6   0   7   81.49    8.20 
   5   0  -7   56.49   10.70 
  -5   0   7   40.30    4.10 
  -5   0   7   38.20    5.00 
   4   0  -7  251.87   23.50 
   4   0  -7  265.07   23.60 
  -4   0   7  257.57   20.30 
  -4   0   7  266.87   16.80 
  -4   0   7  270.97   18.80 
   3   0  -7  261.57   22.90 
   3   0  -7  261.27   23.10 
  -3   0   7  278.47   17.30 
  -3   0   7  282.57   18.00 
   2   0  -7   10.40    5.00 
  -2   0   7    1.70    0.90 
  -2   0   7    1.00    1.70 
  -2   0   7    1.30    1.30 
   1   0  -7 1309.57   88.79 
   1   0  -7 1375.26   86.29 
   1   0  -7 1325.17   85.99 
  -1   0   7 1374.36   82.19 
  -1   0   7 1324.67   83.79 
  -1   0   7 1345.17   81.59 
   0   0  -7 1556.04   94.59 
   0   0  -7 1428.06   98.29 
   0   0  -7 1419.66   95.19 
   0   0   7 1469.55   93.09 
   0   0   7 1652.23   91.19 
   0   0   7 1496.15   92.09 
  -1   0  -7 1175.28   75.59 
  -1   0  -7 1244.18   79.29 
   1   0   7 1229.68   71.69 
   1   0   7 1050.69   71.49 
  -2   0  -7   -1.70    3.90 
  -2   0  -7    2.50    3.30 
   2   0   7    1.80    1.20 
   2   0   7    0.90    0.90 
  -3   0  -7  123.59   15.30 
  -3   0  -7  115.19   11.30 
   3   0   7  115.69    7.80 
   3   0   7   97.69    8.10 
  -4   0  -7  205.18   16.80 
   4   0   7  179.68   13.70 
   4   0   7  220.28   13.50 
   5   0   7   25.00    2.80 
   6   0   7    1.30    1.10 
   9  -1  -7    6.20    6.20 
  -8   1   7    6.40    4.60 
  -8   1   7    2.40    1.30 
   7  -1  -7  168.88   20.90 
  -7   1   7  158.38   15.20 
   6  -1  -7  118.39   16.40 
  -6   1   7   99.89    9.80 
  -6   1   7  109.79    8.30 
  -6   1   7  109.49   11.30 
   5  -1  -7   22.70    7.90 
  -5   1   7   -1.00    2.80 
  -5   1   7    1.80    1.30 
   4  -1  -7 1929.51  120.99 
  -4   1   7 1779.62  112.19 
   3  -1  -7 1113.59   72.79 
   3  -1  -7 1027.20   72.09 
  -3   1   7 1097.69   65.69 
  -3   1   7 1061.19   66.19 
   2  -1  -7  323.07   25.50 
   2  -1  -7  315.67   25.40 
  -2   1   7  323.67   20.90 
  -2   1   7  323.17   22.80 
   1  -1  -7  126.29   14.50 
   1  -1  -7  126.69   11.90 
   1  -1  -7  138.99   13.50 
  -1   1   7  113.39    9.10 
  -1   1   7  121.39    9.10 
  -1   1   7  127.19    8.00 
   0  -1  -7  854.71   63.19 
   0  -1  -7  928.81   58.09 
   0  -1  -7  887.01   60.59 
   0   1   7  906.21   55.79 
   0   1   7  962.80   55.39 
  -1  -1  -7    7.70    4.20 
  -1  -1  -7    7.00    5.30 
   1   1   7    6.00    1.50 
   1   1   7    8.80    1.40 
  -2  -1  -7  139.09   13.60 
  -2  -1  -7  143.69   15.90 
   2   1   7  105.99    8.60 
   2   1   7  123.69    8.40 
  -3  -1  -7    2.80    5.70 
   3   1   7   -0.90    1.80 
   3   1   7   -0.10    0.90 
  -4  -1  -7   -4.40    3.00 
   4   1   7    0.40    1.00 
  -5  -1  -7    6.10    3.60 
   5   1   7    4.20    1.30 
   9  -2  -7   14.80    7.00 
  -9   2   7   11.40    1.70 
   8  -2  -7   54.39   18.00 
  -8   2   7   48.60    4.20 
  -8   2   7   48.10    9.10 
  -8   2   7   42.00    7.90 
   7  -2  -7   32.70   10.20 
  -7   2   7   39.20    5.80 
  -7   2   7   28.40    6.50 
   6  -2  -7    5.60    5.60 
  -6   2   7    6.30    3.70 
  -6   2   7    4.00    1.70 
  -6   2   7    2.10    1.80 
   5  -2  -7    1.20    4.70 
  -5   2   7    1.30    1.30 
  -5   2   7    0.90    1.80 
  -5   2   7   -0.50    3.60 
   4  -2  -7  199.08   20.10 
   4  -2  -7  199.68   20.80 
  -4   2   7  217.48   13.80 
  -4   2   7  209.78   14.20 
   3  -2  -7   28.20    8.20 
   3  -2  -7   47.00    9.20 
   3  -2  -7   47.50    9.10 
  -3   2   7   50.89    3.90 
  -3   2   7   41.40    6.00 
   2  -2  -7  325.17   27.40 
   2  -2  -7  336.37   25.60 
   2  -2  -7  321.87   28.00 
  -2   2   7  330.27   19.60 
  -2   2   7  303.37   20.10 
  -2   2   7  302.57   20.90 
   1  -2  -7   22.90    6.60 
   1  -2  -7   35.70    6.20 
   1  -2  -7   38.90    9.10 
  -1   2   7   40.80    2.90 
   0  -2  -7   71.39   13.50 
   0  -2  -7   85.79   11.10 
   0   2   7   90.19    5.90 
   0   2   7   81.69    6.20 
  -1  -2  -7   34.90    9.60 
  -1  -2  -7   53.29    9.00 
   1   2   7   53.29    4.30 
   1   2   7   49.80    4.00 
  -2  -2  -7  762.72   51.59 
  -2  -2  -7  725.73   54.29 
   2   2   7  717.93   45.00 
   2   2   7  683.93   44.60 
  -3  -2  -7  130.49   13.60 
   3   2   7   92.89    7.80 
   3   2   7  122.69    8.00 
   4   2   7   41.10    3.80 
  -5  -2  -7   39.40    6.70 
   5   2   7   36.90    3.50 
   8  -3  -7   19.90    8.50 
  -8   3   7   14.90    4.70 
  -8   3   7   23.00    6.30 
   7  -3  -7   36.50   11.00 
  -7   3   7   54.09    8.40 
  -7   3   7   43.20    6.60 
   6  -3  -7  281.97   28.00 
  -6   3   7  270.87   21.20 
   5  -3  -7   23.40    8.70 
  -5   3   7   24.70    5.30 
  -5   3   7   20.10    2.80 
   4  -3  -7   -1.30    3.70 
   4  -3  -7    1.60    3.80 
  -4   3   7    0.40    1.30 
  -4   3   7    2.50    4.60 
   3  -3  -7    4.00    4.30 
   3  -3  -7    3.10    4.80 
  -3   3   7    6.80    1.60 
   2  -3  -7 1657.23  105.49 
   2  -3  -7 1580.54  108.39 
   2  -3  -7 1678.53  107.49 
  -2   3   7 1653.03   98.79 
  -2   3   7 1599.94   99.29 
   1  -3  -7  938.41   64.09 
   1  -3  -7  850.21   64.99 
  -1   3   7  910.01   56.39 
  -1   3   7  969.90   56.09 
   0  -3  -7  737.43   55.39 
   0  -3  -7  744.93   53.49 
   0   3   7  775.82   45.90 
   0   3   7  733.13   46.20 
  -1  -3  -7   56.89   12.00 
  -1  -3  -7   67.99   10.30 
   1   3   7   46.60    4.40 
   1   3   7   58.59    4.50 
  -2  -3  -7  300.57   25.10 
   2   3   7  298.57   17.70 
   2   3   7  235.88   17.50 
  -3  -3  -7  244.88   21.50 
   3   3   7  224.68   15.20 
  -4  -3  -7   13.00    4.90 
   4   3   7   15.40    2.10 
   8  -4  -7    9.90    6.40 
  -8   4   7   12.40    5.60 
   7  -4  -7   20.80    7.80 
  -7   4   7   26.40    6.50 
   6  -4  -7   10.70    6.20 
  -6   4   7    3.00    4.50 
   5  -4  -7 1152.28   77.19 
  -5   4   7 1012.00   69.49 
   4  -4  -7   75.79   11.90 
   4  -4  -7   86.69   13.40 
  -4   4   7   77.49    6.20 
   3  -4  -7   15.70    7.50 
   3  -4  -7   17.10    7.20 
  -3   4   7   22.10    2.70 
   2  -4  -7  225.88   22.80 
   2  -4  -7  241.88   22.80 
  -2   4   7  220.58   14.10 
  -2   4   7  214.78   14.50 
   1  -4  -7  985.20   72.19 
   1  -4  -7 1035.90   71.39 
  -1   4   7  997.00   62.29 
  -1   4   7 1048.30   62.09 
   0  -4  -7   62.89   13.10 
   0   4   7   55.39    4.60 
   0   4   7   59.39    4.50 
  -1  -4  -7   95.89   13.80 
   1   4   7   82.49    6.30 
  -2  -4  -7   57.49   11.70 
   2   4   7   46.50    4.20 
  -3  -4  -7   10.00    5.00 
   3   4   7    3.60    1.40 
  -4  -4  -7    5.80    4.30 
   4   4   7    6.10    1.40 
  -8   5   7   -1.50    8.00 
  -8   5   7   -0.80    1.10 
   7  -5  -7    5.10    4.90 
   6  -5  -7   69.19   13.30 
  -6   5   7   82.89   10.60 
   5  -5  -7  188.78   20.90 
  -5   5   7  142.99   17.50 
  -5   5   7  157.08   11.20 
   4  -5  -7    6.20    5.70 
   4  -5  -7    3.70    5.60 
   3  -5  -7    5.10    5.30 
  -3   5   7    4.40    2.30 
  -3   5   7    2.70    0.90 
   2  -5  -7   -0.30    5.40 
   2  -5  -7    9.70    6.70 
  -2   5   7    2.40    0.90 
  -2   5   7    1.60    1.30 
   1  -5  -7    7.50    6.50 
   1  -5  -7   16.50    7.10 
  -1   5   7    3.40    1.30 
  -1   5   7    5.40    1.60 
   0  -5  -7   39.50   11.00 
   0   5   7   47.20    3.90 
   0   5   7   40.60    3.70 
  -1  -5  -7  159.78   18.60 
   1   5   7  129.59    9.40 
  -2  -5  -7    6.80    5.80 
   2   5   7    3.10    1.30 
  -3  -5  -7   93.89   11.40 
   3   5   7   73.79    5.80 
   8  -6  -7    2.70    5.60 
   7  -6  -7   66.79   12.00 
  -7   6   7   47.30    8.60 
  -7   6   7   57.69    5.10 
   6  -6  -7   49.40   12.40 
  -6   6   7   48.00    4.50 
  -6   6   7   35.80    7.50 
   5  -6  -7    1.10    5.60 
  -5   6   7    4.30    1.70 
   4  -6  -7  135.49   18.30 
  -4   6   7  133.69    9.50 
   3  -6  -7   61.89   13.70 
  -3   6   7   57.29    4.30 
  -3   6   7   58.29    4.80 
   2  -6  -7    9.10    6.80 
  -2   6   7    4.20    1.20 
  -2   6   7    2.40    1.10 
  -1   6   7  376.66   23.00 
  -1   6   7  351.36   22.90 
   0  -6  -7  138.49   17.40 
   0   6   7  119.59    8.60 
  -1  -6  -7   67.09   12.50 
   1   6   7   48.30    4.30 
  -2  -6  -7   20.30    7.20 
   2   6   7   14.90    2.10 
   7  -7  -7   -4.80    4.50 
  -7   7   7    1.50    1.30 
   6  -7  -7   25.10    8.70 
  -6   7   7   37.70    3.70 
   5  -7  -7    2.00    5.10 
  -5   7   7   -0.60    1.00 
   4  -7  -7  121.29   16.10 
  -4   7   7   93.99    7.20 
   3  -7  -7  155.28   18.60 
  -3   7   7  129.69    8.70 
  -3   7   7  125.89    9.00 
   2  -7  -7    7.80    6.70 
  -2   7   7   12.60    1.80 
  -2   7   7   10.90    1.60 
   1  -7  -7    8.40    7.80 
  -1   7   7    4.00    1.60 
   0  -7  -7  193.88   21.30 
   0   7   7  172.58   11.80 
  -1  -7  -7    9.80    6.10 
   6  -8  -7    2.20    5.60 
   5  -8  -7   -3.60    4.40 
  -5   8   7    0.70    0.90 
   4  -8  -7   23.40    8.50 
  -4   8   7   12.80    1.90 
   3  -8  -7   -0.50    5.70 
  -3   8   7    0.50    1.10 
  -3   8   7    0.70    0.90 
   2  -8  -7   10.20    6.90 
  -2   8   7    5.00    1.20 
   1  -8  -7    0.60    5.30 
  -1   8   7    1.00    1.00 
  -5   9   7   -0.90    0.80 
   4  -9  -7    8.00    6.00 
   4  -9  -7    4.60    4.40 
   3  -9  -7    5.60    5.70 
   0  13  -8  119.89   13.80 
   0 -13   8  105.19   13.70 
  -1  13  -8   10.70    5.10 
   1 -13   8    5.20    3.60 
  -2  13  -8  101.89   11.80 
   2 -13   8   81.89   10.30 
  -3  13  -8   39.00   10.80 
   3 -13   8   24.00    6.20 
   2  12  -8  131.89   15.60 
   1  12  -8   -2.10    4.60 
  -1 -12   8    2.70    3.10 
   0  12  -8  161.48   16.80 
   0 -12   8  147.69   14.60 
  -1  12  -8    2.00    3.80 
   1 -12   8    1.80    3.00 
  -2  12  -8  256.17   21.30 
   2 -12   8  218.78   20.10 
  -3  12  -8   22.60    6.10 
   3 -12   8   11.80    4.60 
  -4  12  -8   64.49    9.60 
   4 -12   8   67.89    9.10 
   5 -12   8    8.10    3.70 
   3  11  -8    7.30    5.00 
   2  11  -8  164.18   18.00 
  -2 -11   8  159.28   14.20 
   1  11  -8    3.00    6.50 
  -1 -11   8    4.60    4.00 
   0  11  -8  192.38   18.90 
   0 -11   8  191.08   17.50 
  -1  11  -8   15.20    5.90 
   1 -11   8   18.20    5.30 
  -2  11  -8   82.59   11.20 
   2 -11   8   84.89   10.40 
  -3  11  -8   -3.30    4.00 
   3 -11   8    1.80    2.90 
  -4  11  -8   52.99    8.40 
   5 -11   8   38.10    6.50 
   4  10  -8  114.09   15.20 
   3  10  -8    2.90    4.50 
  -3 -10   8   -3.20    3.80 
   2  10  -8  357.46   30.90 
  -2 -10   8  346.67   24.10 
  -2 -10   8  368.96   27.10 
   1  10  -8   12.50    6.20 
  -1 -10   8   14.00    3.10 
  -1 -10   8   10.40    4.50 
   0  10  -8  453.15   34.30 
   0 -10   8  423.16   29.00 
   0 -10   8  488.05   33.90 
  -1  10  -8  116.69   12.50 
   1 -10   8  110.79   12.30 
  -2  10  -8  224.78   19.40 
   2 -10   8  244.68   20.50 
  -3  10  -8  220.08   18.40 
   3 -10   8  221.68   19.40 
  -4  10  -8   47.30    7.60 
   4 -10   8   28.20    3.70 
   5 -10   8    9.90    4.20 
   5 -10   8    5.10    1.80 
   6 -10   8   10.40    2.20 
   6 -10   8   15.60    5.40 
   5   9  -8   14.20    6.60 
   4   9  -8   49.70   11.20 
   3   9  -8   11.80    5.70 
  -3  -9   8    2.80    2.30 
  -3  -9   8    5.70    3.20 
   2   9  -8  269.77   25.90 
  -2  -9   8  296.17   23.30 
  -2  -9   8  309.27   20.50 
   1   9  -8    4.60    3.90 
  -1  -9   8   -1.00    2.70 
  -1  -9   8    2.90    1.80 
   0   9  -8  256.07   21.60 
   0  -9   8  266.47   21.40 
   0  -9   8  258.87   17.60 
  -1   9  -8   14.20    4.40 
   1  -9   8    4.10    3.30 
   1  -9   8    7.70    1.90 
  -2   9  -8  258.67   20.90 
   2  -9   8  293.07   22.90 
   3  -9   8   32.90    7.40 
   4  -9   8   55.19    5.20 
   5  -9   8    7.60    2.00 
   5  -9   8   12.30    3.80 
   6  -9   8    0.70    1.10 
   5   8  -8    3.10    5.40 
   4   8  -8  243.98   24.90 
  -4  -8   8  244.88   17.90 
  -4  -8   8  253.17   20.20 
   3   8  -8   10.50    5.70 
  -3  -8   8   16.40    4.90 
  -3  -8   8   17.70    3.20 
   2   8  -8   57.89   10.90 
  -2  -8   8   64.79    8.50 
  -2  -8   8   52.89    7.50 
   1   8  -8    0.00    3.60 
  -1  -8   8   -0.70    1.70 
  -1  -8   8    1.10    2.80 
   0   8  -8  388.46   29.40 
   0  -8   8  400.96   29.60 
   0  -8   8  409.56   26.00 
  -1   8  -8   59.29    7.70 
   1  -8   8   55.49    8.00 
   1  -8   8   61.99    5.10 
   2  -8   8   35.60    3.80 
   2  -8   8   40.50    4.00 
   2  -8   8   54.89    7.40 
   3  -8   8   -0.40    1.10 
   3  -8   8   -1.80    2.70 
  -4   8  -8  154.78   13.90 
   4  -8   8  204.38   16.00 
   4  -8   8  164.98   12.10 
  -5   8  -8   17.60    3.60 
   5  -8   8   18.70    2.90 
   5  -8   8   22.20    4.70 
  -6   8  -8   13.20    3.40 
   6   7  -8   18.90    7.00 
   5   7  -8   32.00   10.40 
  -5  -7   8   27.00    6.80 
   4   7  -8  316.27   29.30 
  -4  -7   8  312.17   21.80 
  -4  -7   8  307.57   24.50 
   3   7  -8   29.10    8.40 
  -3  -7   8   30.00    4.50 
  -3  -7   8   32.80    6.80 
   2   7  -8  612.74   45.70 
  -2  -7   8  644.84   44.00 
  -2  -7   8  649.43   40.80 
   1   7  -8  242.18   20.20 
  -1  -7   8  236.08   19.80 
  -1  -7   8  258.57   17.00 
   0   7  -8 1516.45  103.49 
   0   7  -8 1552.74   98.69 
   0  -7   8 1589.24   99.49 
   0  -7   8 1592.64   95.79 
  -1   7  -8   60.39   10.90 
   1  -7   8   46.20    6.60 
   1  -7   8   43.10    4.30 
   1  -7   8   41.60    3.80 
  -2   7  -8  602.64   46.10 
   2  -7   8  650.93   39.40 
   2  -7   8  586.64   39.20 
   2  -7   8  648.24   39.20 
   2  -7   8  651.53   43.20 
  -3   7  -8  279.47   23.80 
   3  -7   8  351.76   22.10 
   3  -7   8  372.16   25.50 
   3  -7   8  340.07   21.70 
  -4   7  -8    9.50    3.20 
   4  -7   8   11.60    4.00 
   4  -7   8   12.80    2.40 
  -5   7  -8   19.20    4.20 
   5  -7   8   25.50    3.20 
  -6   7  -8    6.30    3.70 
   6  -7   8    5.30    1.80 
   7  -7   8    3.50    1.10 
   6   6  -8  111.79   16.50 
   5   6  -8   36.60   10.60 
  -5  -6   8   28.90    4.60 
  -5  -6   8   29.20    6.00 
   4   6  -8  295.67   28.20 
  -4  -6   8  320.57   25.00 
  -4  -6   8  321.77   21.90 
   3   6  -8    0.70    4.00 
  -3  -6   8    0.20    1.90 
  -3  -6   8    5.20    3.70 
   2   6  -8 1046.80   72.79 
  -2  -6   8 1073.89   71.39 
  -2  -6   8 1167.68   68.39 
   1   6  -8   -3.90    3.60 
   1   6  -8    0.20    3.60 
  -1  -6   8    0.50    0.90 
  -1  -6   8    0.40    1.40 
  -1  -6   8    1.50    2.70 
   0   6  -8   27.00    6.90 
   0  -6   8   20.80    2.60 
   0  -6   8   31.50    3.10 
   0  -6   8   35.30    4.30 
   0  -6   8   33.70    6.50 
  -1   6  -8   17.60    5.80 
  -1   6  -8   13.00    3.70 
   1  -6   8    8.70    1.90 
   1  -6   8   10.70    1.90 
   1  -6   8   12.20    4.10 
   1  -6   8    7.80    1.60 
  -2   6  -8  518.95   39.00 
  -2   6  -8  621.24   43.80 
   2  -6   8  632.64   37.90 
   2  -6   8  609.44   41.00 
   2  -6   8  636.54   37.80 
   2  -6   8  608.94   37.60 
  -3   6  -8    5.40    2.50 
   3  -6   8    1.20    1.70 
   3  -6   8    9.70    3.70 
   3  -6   8    2.90    1.50 
  -4   6  -8   93.19   10.80 
   4  -6   8  110.89   10.30 
   4  -6   8  114.09    8.10 
  -5   6  -8   11.90    3.70 
  -6   6  -8   17.90    4.50 
   6  -6   8   28.70    3.20 
   7   5  -8   -0.30    5.50 
   6   5  -8   26.70    9.70 
   5   5  -8   41.70   11.70 
  -5  -5   8   48.60    5.60 
  -5  -5   8   46.90    7.80 
   4   5  -8  116.59   15.30 
  -4  -5   8  140.19   10.80 
  -4  -5   8  134.49   13.60 
   3   5  -8    6.00    4.10 
  -3  -5   8    6.30    3.50 
  -3  -5   8   11.80    2.90 
   2   5  -8  233.18   20.70 
   2   5  -8  270.77   24.50 
  -2  -5   8  233.28   19.50 
  -2  -5   8  260.97   15.80 
  -2  -5   8  253.27   17.10 
   1   5  -8  345.87   25.60 
   1   5  -8  341.87   28.70 
  -1  -5   8  342.87   22.80 
  -1  -5   8  353.36   21.70 
  -1  -5   8  346.57   25.40 
   0   5  -8  238.98   21.10 
   0  -5   8  217.08   15.10 
   0  -5   8  248.88   15.30 
   0  -5   8  243.78   18.60 
   0  -5   8  243.08   15.90 
  -1   5  -8  275.87   24.20 
  -1   5  -8  340.07   26.80 
   1  -5   8  350.16   21.30 
   1  -5   8  345.17   24.30 
   1  -5   8  348.17   21.60 
  -2   5  -8  187.68   17.80 
   2  -5   8  202.88   12.90 
   2  -5   8  211.38   13.40 
   2  -5   8  185.68   15.60 
   2  -5   8  182.18   13.20 
   3  -5   8  505.55   34.50 
   3  -5   8  508.85   32.60 
   3  -5   8  515.65   32.00 
   4  -5   8   65.09    6.30 
   4  -5   8   68.99    5.50 
   5  -5   8    6.00    1.70 
  -6   5  -8   51.09    8.20 
   6  -5   8   56.19    4.90 
   7   4  -8   -2.50    5.70 
   6   4  -8  189.38   22.00 
  -6  -4   8  175.78   13.50 
   5   4  -8  197.18   21.90 
  -5  -4   8  210.08   17.80 
  -5  -4   8  183.78   14.20 
   4   4  -8   67.29   11.90 
  -4  -4   8   73.19    5.80 
  -4  -4   8   72.99    9.50 
  -4  -4   8   73.89    6.80 
   3   4  -8    7.20    4.80 
   3   4  -8    2.50    4.50 
  -3  -4   8    3.00    1.90 
  -3  -4   8    6.90    3.80 
  -3  -4   8    0.80    0.80 
   2   4  -8 1642.54  111.69 
   2   4  -8 1652.03  108.59 
  -2  -4   8 1771.02  103.59 
  -2  -4   8 1678.53  107.49 
  -2  -4   8 1785.62  104.69 
   1   4  -8   51.49    9.10 
   1   4  -8   74.49   12.30 
  -1  -4   8   56.49    7.30 
  -1  -4   8   60.49    5.50 
  -1  -4   8   72.09    4.80 
   0   4  -8 1024.10   68.19 
   0  -4   8  991.50   61.49 
   0  -4   8 1045.30   62.39 
   0  -4   8  984.70   61.89 
  -1   4  -8  242.88   20.80 
   1  -4   8  241.98   15.60 
   1  -4   8  256.87   16.40 
   1  -4   8  240.68   16.00 
  -2   4  -8  652.53   49.20 
  -2   4  -8  734.73   49.10 
   2  -4   8  749.62   45.70 
   2  -4   8  787.62   45.20 
   2  -4   8  738.63   48.00 
   3  -4   8  990.60   65.29 
   3  -4   8  999.70   64.09 
   3  -4   8 1109.29   63.39 
   4  -4   8   81.79    7.10 
   4  -4   8   74.99    6.10 
   5  -4   8   50.19    4.60 
  -6   4  -8    5.30    3.30 
   8   3  -8   21.60   10.20 
   7   3  -8   17.20    8.70 
   6   3  -8  482.45   40.80 
  -6  -3   8  444.46   30.10 
  -5  -3   8   19.00    5.70 
  -5  -3   8   16.30    2.10 
  -5  -3   8   17.70    3.30 
   4   3  -8  246.88   23.00 
  -4  -3   8  233.78   16.70 
  -4  -3   8  249.88   15.30 
  -4  -3   8  226.08   19.80 
   3   3  -8  164.88   24.30 
  -3  -3   8  163.78   14.70 
  -3  -3   8  172.18   12.00 
  -3  -3   8  161.28   10.80 
   2   3  -8  936.91   63.49 
   2   3  -8  949.31   66.09 
  -2  -3   8  958.10   62.29 
  -2  -3   8  990.70   58.49 
   1   3  -8  704.33   49.90 
  -1  -3   8  729.33   43.60 
  -1  -3   8  723.13   44.40 
  -1  -3   8  682.33   47.50 
   0   3  -8  741.53   51.59 
   0  -3   8  752.92   49.10 
   0  -3   8  791.52   46.10 
   0  -3   8  749.03   47.00 
   0  -3   8  735.13   47.40 
  -1   3  -8   38.50    6.90 
  -1   3  -8   44.50    7.20 
   1  -3   8   49.10    3.50 
   1  -3   8   38.00    4.20 
   1  -3   8   38.30    3.80 
   1  -3   8   40.60    5.40 
  -2   3  -8  367.26   31.30 
   2  -3   8  447.66   27.40 
   2  -3   8  462.85   26.70 
   2  -3   8  421.66   28.70 
   3  -3   8  193.98   12.10 
   3  -3   8  167.78   12.90 
   4  -3   8  422.56   24.80 
   4  -3   8  352.96   25.50 
   5  -3   8    2.10    1.20 
   6  -3   8    2.40    1.10 
   8   2  -8   21.80    8.10 
   7   2  -8    2.20    5.60 
   6   2  -8    6.40    6.80 
  -6  -2   8   17.50    3.20 
  -6  -2   8   16.30    2.10 
   5   2  -8    1.70    5.60 
  -5  -2   8   -1.00    1.40 
  -5  -2   8    1.10    1.00 
  -5  -2   8    3.20    3.40 
   4   2  -8 1816.02  119.69 
  -4  -2   8 1827.42  112.09 
  -4  -2   8 1812.12  115.79 
  -4  -2   8 1863.31  110.99 
   3   2  -8  100.09   12.40 
   3   2  -8   99.49   13.40 
  -3  -2   8   96.89    8.00 
  -3  -2   8   99.29   10.50 
  -3  -2   8  113.49    7.20 
   2   2  -8   29.30    6.70 
   2   2  -8   36.00    8.10 
  -2  -2   8   40.20    5.60 
  -2  -2   8   36.00    3.10 
  -2  -2   8   34.50    3.90 
   1   2  -8  432.56   32.90 
  -1  -2   8  411.26   27.50 
  -1  -2   8  454.65   28.20 
  -1  -2   8  467.75   30.50 
   0   2  -8 1717.53  114.09 
   0   2  -8 1537.65  115.49 
   0  -2   8 1817.02  111.99 
   0  -2   8 1928.41  109.59 
   0  -2   8 1862.61  110.19 
   0  -2   8 1934.61  109.19 
  -1   2  -8   27.10    4.60 
  -1   2  -8   25.90    6.70 
   1  -2   8   24.10    2.70 
   1  -2   8   23.50    3.20 
   1  -2   8   21.50    2.30 
   1  -2   8   17.80    3.80 
  -2   2  -8  349.77   29.90 
   2  -2   8  403.36   24.00 
   2  -2   8  388.36   24.70 
  -3   2  -8   46.60    9.20 
   3  -2   8   52.59    5.20 
   3  -2   8   56.09    4.50 
   4  -2   8   87.19    7.50 
   4  -2   8   93.59    6.80 
   5  -2   8    1.00    1.20 
   6  -2   8    6.60    1.60 
   8   1  -8   52.79   12.30 
   7   1  -8   -1.60    6.30 
  -7  -1   8    2.90    1.20 
   6   1  -8   32.90   10.30 
  -6  -1   8   23.60    2.50 
  -6  -1   8   16.50    3.00 
   5   1  -8  123.69   15.60 
  -5  -1   8   98.09    8.10 
  -5  -1   8   95.19    7.10 
   4   1  -8  431.96   36.80 
   4   1  -8  501.55   37.40 
  -4  -1   8  458.65   33.20 
  -4  -1   8  474.65   28.80 
  -4  -1   8  444.86   29.60 
   3   1  -8  381.86   33.00 
   3   1  -8  415.86   32.40 
  -3  -1   8  434.86   30.10 
  -3  -1   8  417.76   27.00 
  -3  -1   8  439.46   26.30 
   2   1  -8   17.60    5.60 
   2   1  -8    6.70    6.30 
  -2  -1   8   20.60    4.70 
  -2  -1   8   22.40    4.90 
  -2  -1   8   23.50    2.30 
   1   1  -8  395.16   34.80 
   1   1  -8  383.76   33.60 
   1   1  -8  415.06   31.30 
  -1  -1   8  443.66   27.00 
  -1  -1   8  455.75   29.80 
  -1  -1   8  451.65   28.10 
  -1  -1   8  454.15   26.50 
   0   1  -8 1542.25   93.19 
   0   1  -8 1269.57   95.59 
   0  -1   8 1428.96   90.89 
   0  -1   8 1535.05   88.39 
   0  -1   8 1518.05   88.79 
   0  -1   8 1441.16   89.49 
  -1   1  -8    6.00    4.00 
   1  -1   8    4.00    1.00 
   1  -1   8    7.20    1.70 
   1  -1   8    0.70    2.10 
  -2   1  -8  508.25   40.20 
   2  -1   8  564.14   32.90 
   2  -1   8  512.65   33.50 
  -3   1  -8  188.08   14.60 
  -3   1  -8  208.28   20.30 
   3  -1   8  188.78   12.30 
   3  -1   8  165.58   12.90 
  -4   1  -8    6.10    3.50 
   4  -1   8    4.00    1.70 
   4  -1   8    6.40    1.50 
  -5   1  -8   36.00    6.20 
   8   0  -8  104.19   15.80 
  -8   0   8   80.39    6.00 
   7   0  -8   44.00   12.10 
  -7   0   8   36.90    3.60 
   6   0  -8  107.29   16.10 
  -6   0   8   98.59    7.30 
   5   0  -8  102.29   14.90 
  -5   0   8   81.89    7.20 
  -5   0   8   90.59    6.60 
   4   0  -8  670.43   47.10 
   4   0  -8  565.24   48.70 
  -4   0   8  576.74   38.60 
  -4   0   8  635.44   38.00 
   3   0  -8   63.29   10.10 
   3   0  -8   77.69   10.50 
  -3   0   8   51.49    5.10 
  -3   0   8   49.80    4.30 
  -3   0   8   59.69    7.30 
   2   0  -8  905.51   60.49 
   2   0  -8  842.42   60.49 
  -2   0   8  910.01   54.29 
  -2   0   8  863.91   54.99 
  -2   0   8  904.01   57.29 
   1   0  -8    5.70    5.00 
   1   0  -8    0.60    4.00 
   1   0  -8   -0.80    3.00 
  -1   0   8    2.80    1.70 
  -1   0   8    5.20    1.40 
  -1   0   8    2.00    2.10 
   0   0  -8  129.59   15.50 
   0   0  -8  130.69   13.20 
   0   0  -8  123.99   11.30 
   0   0   8  132.69    9.00 
   0   0   8  132.89    8.50 
   0   0   8  125.79   10.40 
  -1   0  -8  215.68   18.30 
  -1   0  -8  225.28   21.80 
   1   0   8  209.68   14.50 
   1   0   8  223.88   14.00 
  -2   0  -8  165.38   18.30 
  -2   0  -8  166.28   15.30 
   2   0   8  186.08   11.60 
   2   0   8  170.08   12.10 
  -3   0  -8   84.19    8.90 
  -3   0  -8   92.99   15.50 
   3   0   8   81.89    6.00 
   3   0   8   71.59    6.40 
  -4   0  -8   50.29    7.00 
   4   0   8   57.49    4.60 
  -5   0  -8   92.99    9.70 
   5   0   8   96.99    7.00 
   8  -1  -8   17.10    8.80 
  -8   1   8   12.80    2.00 
   7  -1  -8    9.60    7.20 
  -7   1   8   16.60    2.60 
   6  -1  -8    6.50    6.60 
  -6   1   8    2.30    2.50 
  -6   1   8    3.00    1.50 
   5  -1  -8  438.66   35.90 
  -5   1   8  432.36   25.90 
  -5   1   8  364.26   26.20 
   4  -1  -8    4.20    5.50 
  -4   1   8    6.20    2.00 
  -4   1   8    6.60    1.60 
   3  -1  -8   12.40    5.20 
   3  -1  -8    3.80    4.80 
  -3   1   8   10.60    2.30 
  -3   1   8    8.30    1.70 
   2  -1  -8  505.25   38.60 
  -2   1   8  516.55   33.60 
  -2   1   8  557.24   32.90 
   1  -1  -8  491.15   36.70 
   1  -1  -8  502.95   37.60 
  -1   1   8  533.55   31.60 
  -1   1   8  527.35   32.10 
   0  -1  -8   77.79   11.80 
   0  -1  -8   57.09    9.70 
   0   1   8   80.99    5.80 
   0   1   8   73.89    5.20 
  -1  -1  -8 1235.88   80.69 
  -1  -1  -8 1206.28   84.89 
   1   1   8 1295.57   74.89 
   1   1   8 1174.38   75.29 
  -2  -1  -8  213.58   18.00 
  -2  -1  -8  196.18   21.40 
   2   1   8  178.58   13.70 
   2   1   8  215.08   13.20 
  -3  -1  -8   41.20    7.00 
   3   1   8   36.60    3.80 
   3   1   8   44.00    3.70 
  -4  -1  -8   49.10    6.70 
   4   1   8   34.20    4.00 
  -5  -1  -8   14.50    4.30 
   5   1   8   15.80    2.30 
   8  -2  -8    9.90    6.60 
  -8   2   8   12.10    2.00 
   7  -2  -8   24.50    9.30 
  -7   2   8   19.40    2.70 
   6  -2  -8  213.78   23.10 
  -6   2   8  178.68   13.90 
  -6   2   8  213.68   13.60 
  -5   2   8    4.10    2.00 
  -5   2   8    5.00    1.80 
   4  -2  -8  427.96   35.00 
  -4   2   8  376.06   26.40 
  -4   2   8  431.86   26.00 
   3  -2  -8  580.94   47.40 
   3  -2  -8  630.94   45.90 
   3  -2  -8  653.83   46.70 
  -3   2   8  627.34   38.20 
  -3   2   8  585.64   38.80 
   2  -2  -8  160.28   18.50 
   2  -2  -8  166.98   17.00 
   2  -2  -8  137.59   15.10 
  -2   2   8  152.68   10.40 
   1  -2  -8  167.88   19.70 
   1  -2  -8  177.98   17.90 
  -1   2   8  171.48   11.10 
  -1   2   8  174.98   11.60 
   0  -2  -8   92.39   11.60 
   0  -2  -8   69.19   13.40 
   0   2   8   84.99    5.80 
   0   2   8   79.59    6.30 
  -1  -2  -8    0.00    7.40 
  -1  -2  -8    7.30    4.80 
   1   2   8    2.70    1.10 
   1   2   8    6.50    2.10 
  -2  -2  -8   30.10    6.80 
   2   2   8   24.50    2.60 
   2   2   8   16.60    2.50 
  -3  -2  -8   18.70    5.60 
   3   2   8   33.70    3.10 
   3   2   8   24.70    2.90 
  -4  -2  -8    2.80    3.50 
   4   2   8    2.00    1.20 
   8  -3  -8    0.70    5.10 
  -8   3   8   -0.70    0.90 
   7  -3  -8   12.90    7.40 
  -7   3   8   11.20    2.30 
   6  -3  -8   74.19   13.60 
  -6   3   8   93.49    7.00 
   5  -3  -8   43.30   11.20 
   5  -3  -8   45.80   11.20 
  -5   3   8   47.70    4.40 
   4  -3  -8   87.19   14.10 
   4  -3  -8   96.39   14.70 
  -4   3   8   88.49    6.90 
   3  -3  -8  128.99   15.90 
   3  -3  -8   94.09   15.20 
  -3   3   8  121.29    8.40 
   2  -3  -8   12.80    6.90 
   2  -3  -8   16.00    6.60 
  -2   3   8   12.60    1.50 
  -2   3   8    9.80    1.80 
   1  -3  -8  241.18   22.60 
   1  -3  -8  215.88   23.90 
  -1   3   8  228.48   14.60 
  -1   3   8  233.78   15.10 
   0  -3  -8   50.19   12.30 
   0  -3  -8   62.59   13.20 
   0   3   8   47.60    4.10 
   0   3   8   48.80    4.80 
  -1  -3  -8   16.30    6.30 
   1   3   8   11.70    1.80 
   1   3   8   12.00    1.90 
  -2  -3  -8   78.99   11.10 
   2   3   8   65.19    5.20 
   2   3   8   60.69    5.10 
  -3  -3  -8   58.49    8.60 
   3   3   8   58.19    4.80 
   8  -4  -8    4.00    5.50 
   7  -4  -8   -1.40    4.40 
  -7   4   8    4.30    1.60 
   6  -4  -8   67.69   12.70 
  -6   4   8   55.59    5.20 
   5  -4  -8   11.00    6.20 
  -5   4   8   11.80    2.40 
   4  -4  -8  174.28   20.40 
   4  -4  -8  146.79   18.90 
  -4   4   8  178.28   11.80 
   3  -4  -8  592.54   44.70 
   3  -4  -8  494.85   43.50 
  -3   4   8  555.74   34.40 
   2  -4  -8    4.30    6.90 
   2  -4  -8   12.40    6.30 
  -2   4   8   11.40    2.00 
  -2   4   8   11.30    1.50 
   1  -4  -8   91.39   13.70 
  -1   4   8   83.69    6.60 
  -1   4   8   90.89    6.20 
   0  -4  -8  617.94   45.20 
   0   4   8  506.05   35.80 
   0   4   8  618.34   35.80 
  -1  -4  -8  191.98   19.10 
   1   4   8  166.48   10.90 
   1   4   8  144.19   10.70 
  -2  -4  -8   59.39   10.80 
   2   4   8   53.49    4.50 
  -3  -4  -8   56.69    8.10 
   3   4   8   41.30    3.80 
   8  -5  -8    6.00    5.60 
  -8   5   8    5.50    1.60 
   7  -5  -8  106.09   16.00 
  -7   5   8  100.69    7.80 
   6  -5  -8   17.50    7.90 
  -6   5   8   16.60    2.70 
   5  -5  -8   34.20   10.00 
  -5   5   8   24.70    3.30 
   4  -5  -8   95.99   15.60 
  -4   5   8   97.49    7.40 
   3  -5  -8  188.58   21.50 
  -3   5   8  171.78   12.00 
   2  -5  -8   36.10   10.30 
  -2   5   8   36.60    3.10 
  -2   5   8   37.90    3.50 
   1  -5  -8  108.29   15.00 
  -1   5   8   80.59    6.60 
  -1   5   8   95.19    6.50 
   0  -5  -8   29.10    8.90 
   0   5   8   18.50    2.40 
   0   5   8   22.00    2.30 
  -1  -5  -8   -7.70    4.50 
   1   5   8    1.20    1.00 
  -2  -5  -8    0.50    4.30 
   2   5   8    3.80    1.30 
   7  -6  -8    7.80    6.70 
  -7   6   8   18.70    2.60 
   6  -6  -8    2.80    5.20 
  -6   6   8    1.40    1.30 
   5  -6  -8   14.00    6.90 
   4  -6  -8   71.19   13.40 
  -4   6   8   56.89    4.90 
   3  -6  -8   14.20    7.20 
  -3   6   8    9.10    1.70 
   2  -6  -8   10.50    7.40 
  -2   6   8   17.40    2.00 
  -2   6   8   15.00    2.20 
   1  -6  -8   14.30    6.70 
  -1   6   8    5.70    1.20 
  -1   6   8    4.40    1.40 
   0  -6  -8    7.00    5.90 
  -1  -6  -8   48.20    9.30 
   1   6   8   33.60    3.20 
  -6   7   8    0.00    1.10 
   5  -7  -8   22.70    7.50 
  -5   7   8   20.20    2.60 
   4  -7  -8   13.10    7.00 
  -4   7   8    6.30    1.60 
   3  -7  -8   -1.10    5.10 
  -3   7   8    2.30    1.10 
   2  -7  -8   51.29   11.50 
  -2   7   8   48.70    3.60 
  -2   7   8   41.30    3.80 
   1  -7  -8   63.09   12.20 
  -1   7   8   52.59    4.20 
   0  -7  -8    8.50    6.00 
   0   7   8    6.30    1.40 
   5  -8  -8    5.60    5.80 
  -5   8   8    4.20    1.10 
   4  -8  -8   -3.10    5.10 
  -4   8   8    6.30    1.40 
   3  -8  -8   18.30    7.50 
   2  -8  -8   69.59   11.60 
  -2   8   8   53.09    4.60 
  -1  13  -9   46.20   11.80 
   1 -13   9   40.00    7.50 
  -2  13  -9   39.10    7.10 
   2 -13   9   31.10    6.30 
   1  12  -9   -4.40    4.40 
  -1 -12   9    4.50    3.30 
   0  12  -9  165.98   16.30 
   0 -12   9  148.39   14.90 
  -1  12  -9   36.60    7.70 
   1 -12   9   30.60    6.90 
  -2  12  -9  147.09   14.60 
   2 -12   9  148.19   14.50 
  -3  12  -9   42.50   11.80 
   3 -12   9   54.99    7.70 
   4 -12   9   27.20    6.10 
   3  11  -9    6.20    5.40 
   2  11  -9   65.39   11.20 
  -2 -11   9   56.09    7.50 
   1  11  -9   23.70    7.00 
  -1 -11   9   12.10    4.90 
   0  11  -9   79.39   17.90 
   0 -11   9   67.99    9.30 
  -1  11  -9   53.49    8.90 
   1 -11   9   55.89    8.40 
   2 -11   9    5.00    3.50 
   3 -11   9    1.90    4.60 
   4 -11   9   24.90    5.80 
   5 -11   9   24.70    5.20 
   4  10  -9   72.29   12.20 
   3  10  -9    5.90    5.80 
  -3 -10   9    3.60    3.20 
   2  10  -9  229.38   22.60 
  -2 -10   9  238.08   19.50 
   1  10  -9  244.88   22.30 
  -1 -10   9  226.78   20.20 
   0  10  -9  283.67   22.80 
   0 -10   9  242.18   21.50 
   0 -10   9  251.97   17.50 
  -1  10  -9  155.88   14.60 
   1 -10   9  150.58   15.10 
  -2  10  -9   84.69   10.40 
   2 -10   9   92.89   10.90 
   3 -10   9  102.29    8.00 
   4 -10   9    3.10    4.00 
   5 -10   9   10.80    3.70 
   4   9  -9  123.39   15.70 
  -4  -9   9  111.99   11.80 
   3   9  -9   34.30    9.50 
  -3  -9   9   36.80    6.80 
  -3  -9   9   23.40    5.60 
   2   9  -9  173.78   18.10 
  -2  -9   9  164.48   15.60 
  -2  -9   9  159.48   12.40 
   1   9  -9    2.80    5.10 
  -1  -9   9   10.70    4.20 
  -1  -9   9    6.90    2.50 
   0   9  -9  157.08   15.80 
   0  -9   9  163.48   15.30 
   0  -9   9  153.38   11.40 
  -1   9  -9   39.30    7.50 
   1  -9   9   26.60    3.80 
   1  -9   9   44.90    7.60 
   2  -9   9   61.19    5.40 
   3  -9   9   65.89    5.80 
   4  -9   9   48.10    7.10 
   4  -9   9   29.50    3.70 
   5  -9   9   57.29    7.30 
   5  -9   9   42.30    4.40 
   6  -9   9   -0.10    1.00 
   5   8  -9   -5.40    5.20 
   4   8  -9  122.09   16.00 
  -4  -8   9  127.29   12.30 
   3   8  -9    8.60    5.50 
  -3  -8   9    8.20    3.70 
  -3  -8   9    3.70    2.10 
   2   8  -9   55.09    9.80 
  -2  -8   9   51.49    8.20 
  -2  -8   9   53.19    5.60 
   1   8  -9   58.49    9.30 
  -1  -8   9   50.39    5.30 
  -1  -8   9   49.50    7.90 
   0   8  -9   30.50    6.00 
   0  -8   9   22.10    5.90 
   0  -8   9   21.90    3.20 
   0  -8   9   19.10    2.50 
   1  -8   9  131.19    9.60 
   1  -8   9  144.19   13.90 
   1  -8   9  138.99   10.00 
   2  -8   9   25.20    5.90 
   2  -8   9   27.00    3.40 
   2  -8   9   19.00    2.90 
   3  -8   9   17.10    5.40 
   3  -8   9   16.60    2.70 
   4  -8   9   16.40    4.50 
   4  -8   9   10.40    2.30 
   5  -8   9    2.50    3.80 
   5  -8   9    4.90    1.60 
   6  -8   9    4.50    1.50 
   6   7  -9   38.10    9.80 
  -5  -7   9   -1.30    3.80 
   4   7  -9   39.10   10.30 
  -4  -7   9   48.30    5.60 
  -4  -7   9   46.90    7.90 
   3   7  -9    6.70    5.10 
  -3  -7   9   12.60    4.80 
  -3  -7   9    6.20    2.40 
   2   7  -9  759.32   53.29 
  -2  -7   9  748.23   47.80 
   1   7  -9  121.09   12.50 
  -1  -7   9  112.69    8.80 
  -1  -7   9  119.09   12.20 
  -1  -7   9  101.99    7.60 
   0  -7   9  371.46   26.90 
   0  -7   9  348.57   22.80 
   0  -7   9  333.17   22.10 
   1  -7   9  423.86   27.30 
   1  -7   9  414.36   26.90 
   1  -7   9  441.96   31.20 
   2  -7   9   85.59    6.70 
   2  -7   9   73.49    6.40 
   2  -7   9   85.39    6.80 
   2  -7   9  100.19   10.40 
   3  -7   9  424.76   29.30 
   3  -7   9  400.86   26.10 
   3  -7   9  376.66   25.50 
  -4   7  -9    5.80    3.70 
   4  -7   9    7.90    2.00 
   4  -7   9   20.40    4.90 
  -5   7  -9   38.60    6.80 
   5  -7   9   60.39    4.90 
  -6   7  -9    2.20    2.80 
   6  -7   9    2.20    1.20 
   6   6  -9  173.58   20.80 
   5   6  -9    9.90    7.00 
  -5  -6   9    8.80    2.90 
  -5  -6   9   11.00    4.30 
   4   6  -9  139.69   16.70 
  -4  -6   9  128.49   13.10 
  -4  -6   9  121.79   10.40 
   3   6  -9  500.95   39.60 
  -3  -6   9  521.55   33.60 
   2   6  -9  157.58   15.80 
  -2  -6   9  160.78   12.10 
  -2  -6   9  159.18   10.60 
  -2  -6   9  171.68   15.00 
   1   6  -9   22.20    6.50 
  -1  -6   9   16.30    2.20 
  -1  -6   9   20.60    5.20 
  -1  -6   9   22.30    3.30 
   0   6  -9  130.69   14.90 
   0  -6   9  112.29   11.70 
   0  -6   9  123.69    8.30 
   0  -6   9  111.79    8.90 
  -1   6  -9   98.39   13.40 
   1  -6   9  102.39    8.00 
   1  -6   9   96.99    7.40 
   1  -6   9  112.69    7.80 
   1  -6   9  109.79   11.10 
   2  -6   9  279.17   19.40 
   2  -6   9  293.97   19.50 
   2  -6   9  303.37   19.20 
   2  -6   9  312.87   22.90 
   3  -6   9   15.70    2.50 
   3  -6   9   10.00    2.50 
   3  -6   9   17.40    4.70 
  -4   6  -9  106.19   16.40 
   4  -6   9  111.59   11.20 
   4  -6   9  146.29    9.40 
  -5   6  -9    2.90    2.40 
   5  -6   9    0.10    1.10 
  -6   6  -9   -0.70    2.30 
   6  -6   9   -0.40    1.10 
   7   5  -9   -1.30    5.00 
   6   5  -9   15.80    8.80 
   5   5  -9    4.30    5.30 
  -5  -5   9    8.90    2.70 
  -5  -5   9   -1.50    3.10 
   4   5  -9  329.17   29.90 
  -4  -5   9  336.77   23.00 
  -4  -5   9  342.87   26.80 
   3   5  -9   -3.00    4.30 
  -3  -5   9    0.80    2.10 
  -3  -5   9    0.60    0.90 
  -3  -5   9   -3.60    2.30 
   2   5  -9  384.86   29.90 
  -2  -5   9  394.76   25.60 
  -2  -5   9  385.66   24.30 
  -2  -5   9  391.76   28.70 
   1   5  -9   91.09   13.50 
  -1  -5   9   96.89    7.20 
  -1  -5   9  121.89    8.40 
  -1  -5   9  100.59   10.70 
   0   5  -9  251.97   22.00 
   0  -5   9  246.38   14.90 
   0  -5   9  220.18   18.30 
   0  -5   9  193.48   14.50 
   0  -5   9  237.28   15.60 
  -1   5  -9   76.99   10.90 
  -1   5  -9   73.29    9.00 
   1  -5   9   70.79    5.60 
   1  -5   9   65.29    5.90 
   1  -5   9   70.19    5.30 
   1  -5   9   67.29    8.00 
   2  -5   9    5.00    2.80 
   2  -5   9    1.90    1.30 
   2  -5   9    3.40    1.60 
   3  -5   9    5.70    2.30 
   3  -5   9    2.30    1.50 
   3  -5   9    4.80    2.70 
   4  -5   9   14.60    2.90 
   4  -5   9   23.00    2.90 
  -5   5  -9    0.90    2.10 
   5  -5   9    3.10    1.40 
  -6   5  -9    5.90    3.20 
   6  -5   9    5.50    1.60 
   7   4  -9    3.30    5.20 
   6   4  -9   82.59   13.80 
  -6  -4   9   65.09    6.60 
   5   4  -9   -0.20    4.40 
  -5  -4   9    3.30    2.00 
  -5  -4   9   -1.70    3.30 
   4   4  -9   94.19   13.80 
  -4  -4   9   88.19    7.90 
  -4  -4   9   87.89   10.70 
  -4  -4   9   90.39    6.30 
   3   4  -9  573.94   42.20 
  -3  -4   9  538.85   36.00 
  -3  -4   9  560.34   39.50 
  -3  -4   9  574.24   34.70 
   2   4  -9  137.89   16.70 
   2   4  -9  121.69   14.40 
  -2  -4   9  147.09   13.50 
  -2  -4   9  144.29    9.50 
  -2  -4   9  149.39   10.70 
   1   4  -9  251.57   22.20 
  -1  -4   9  220.88   18.10 
  -1  -4   9  225.48   14.70 
  -1  -4   9  225.78   15.70 
   0   4  -9 1283.27   83.49 
   0  -4   9 1228.68   75.89 
   0  -4   9 1226.78   79.59 
   0  -4   9 1258.97   76.29 
   0  -4   9 1251.77   76.99 
  -1   4  -9    9.70    4.30 
  -1   4  -9   -1.20    4.30 
   1  -4   9    3.50    2.50 
   1  -4   9    4.70    1.70 
   1  -4   9    2.90    1.30 
   1  -4   9    4.20    1.10 
   2  -4   9  128.09   11.50 
   2  -4   9  138.89    9.90 
   2  -4   9  134.89    9.20 
   3  -4   9  436.46   29.20 
   3  -4   9  466.45   28.50 
   4  -4   9  109.49    9.50 
   4  -4   9  131.29    8.80 
   5  -4   9   16.60    2.50 
  -6   4  -9    1.90    2.30 
   6  -4   9    0.40    1.10 
   7   3  -9    9.80    7.50 
   6   3  -9  119.59   16.70 
  -6  -3   9   92.29    8.20 
   5   3  -9   64.99   12.20 
  -5  -3   9   72.09    6.60 
  -5  -3   9   66.79    9.50 
  -5  -3   9   65.49    5.00 
   4   3  -9 1200.88   81.19 
  -4  -3   9 1216.08   71.79 
  -4  -3   9 1141.49   77.19 
  -4  -3   9 1152.88   73.19 
   3   3  -9  303.77   25.70 
  -3  -3   9  286.97   23.30 
  -3  -3   9  303.87   19.00 
  -3  -3   9  301.57   20.20 
   2   3  -9   79.39   10.20 
  -2  -3   9   69.79    6.40 
  -2  -3   9   74.99    5.40 
  -2  -3   9   70.79    8.70 
   1   3  -9  226.68   21.00 
  -1  -3   9  221.48   14.60 
  -1  -3   9  234.48   18.10 
  -1  -3   9  224.58   15.50 
   0   3  -9  300.77   25.10 
   0   3  -9  266.37   25.50 
   0  -3   9  298.37   22.60 
   0  -3   9  337.77   19.50 
   0  -3   9  329.67   20.00 
   0  -3   9  310.97   20.60 
  -1   3  -9  102.79   12.90 
   1  -3   9  111.49   10.20 
   1  -3   9  111.19    8.80 
   1  -3   9  114.29    7.70 
   1  -3   9  118.69    8.30 
  -2   3  -9   13.50    5.90 
   2  -3   9   11.00    3.40 
   3  -3   9    1.40    1.80 
   3  -3   9    0.10    1.10 
   4  -3   9    1.60    1.30 
   4  -3   9   -0.40    1.40 
   5  -3   9   43.10    4.00 
   8   2  -9   44.00   11.10 
   7   2  -9   14.90    9.80 
   6   2  -9    1.00    5.90 
  -6  -2   9    5.50    1.40 
  -6  -2   9    5.20    1.90 
   5   2  -9   12.70    6.60 
  -5  -2   9    4.10    1.20 
  -5  -2   9    1.40    3.50 
   4   2  -9  301.37   26.30 
  -4  -2   9  291.97   17.80 
  -4  -2   9  254.47   18.80 
  -4  -2   9  268.57   22.30 
   3   2  -9   69.09   11.30 
   3   2  -9   61.69   10.10 
  -3  -2   9   66.09    8.40 
  -3  -2   9   67.49    5.10 
  -3  -2   9   67.99    6.20 
   2   2  -9  436.96   31.80 
   2   2  -9  398.86   33.40 
  -2  -2   9  412.56   25.90 
  -2  -2   9  415.46   29.80 
  -2  -2   9  407.46   26.90 
  -1  -2   9   20.10    4.40 
  -1  -2   9   15.10    2.20 
  -1  -2   9   20.00    3.30 
   0   2  -9    4.10    4.10 
   0   2  -9    4.30    4.30 
   0  -2   9    4.60    1.80 
   0  -2   9    7.20    1.00 
   0  -2   9    5.50    2.60 
  -1   2  -9  420.46   42.50 
   1  -2   9  539.85   31.90 
   1  -2   9  529.75   31.20 
   1  -2   9  491.65   33.50 
  -2   2  -9  294.27   28.00 
   2  -2   9  333.07   21.90 
   2  -2   9  359.46   21.20 
   3  -2   9    2.10    1.50 
   3  -2   9    0.00    0.80 
   4  -2   9    8.60    2.50 
   4  -2   9   15.70    2.30 
   5  -2   9   24.80    2.80 
   8   1  -9   -7.30    5.70 
   7   1  -9    8.60    7.60 
  -7  -1   9    8.00    1.80 
   6   1  -9  113.09   17.50 
  -6  -1   9   95.59    8.50 
  -6  -1   9  115.69    7.70 
   5   1  -9   66.09   12.90 
  -5  -1   9   65.69    6.10 
   4   1  -9  243.58   23.20 
  -4  -1   9  206.28   15.70 
  -4  -1   9  244.28   19.70 
  -4  -1   9  230.58   14.90 
   3   1  -9  316.87   31.40 
   3   1  -9  386.16   31.20 
  -3  -1   9  411.76   28.50 
  -3  -1   9  380.36   25.10 
  -3  -1   9  399.96   24.20 
   2   1  -9  635.04   44.20 
   2   1  -9  588.64   45.20 
  -2  -1   9  598.54   38.80 
  -2  -1   9  581.74   41.20 
  -2  -1   9  650.53   37.90 
   1   1  -9   72.79   10.80 
   1   1  -9   71.59   10.20 
   1   1  -9   52.69   12.80 
  -1  -1   9   61.69    5.90 
  -1  -1   9   75.59    5.30 
  -1  -1   9   56.99    7.00 
   0   1  -9    5.60    5.20 
   0  -1   9    6.80    1.60 
   0  -1   9    9.90    2.90 
   0  -1   9    5.30    2.00 
   0  -1   9    2.80    0.90 
  -1   1  -9  180.38   20.20 
   1  -1   9  196.18   13.50 
   1  -1   9  206.68   12.80 
  -2   1  -9  361.76   31.70 
   2  -1   9  352.96   23.10 
   2  -1   9  379.66   23.90 
   3  -1   9    0.40    1.30 
   3  -1   9    0.30    0.90 
   4  -1   9    2.70    1.50 
   4  -1   9    1.00    1.20 
   5  -1   9   60.19    4.90 
   8   0  -9   16.50    7.90 
  -8   0   9   16.50    2.10 
   7   0  -9   44.90   11.70 
  -7   0   9   45.70    4.00 
   6   0  -9  373.56   32.30 
  -6   0   9  264.87   20.70 
  -6   0   9  333.07   20.20 
   5   0  -9   49.99   11.90 
  -5   0   9   36.30    4.30 
  -5   0   9   43.30    3.90 
   4   0  -9  351.56   29.70 
  -4   0   9  351.26   20.90 
  -4   0   9  285.67   21.50 
   3   0  -9 1427.86   94.89 
  -3   0   9 1444.66   90.79 
  -3   0   9 1442.56   86.59 
  -3   0   9 1370.46   87.49 
   2   0  -9  439.36   32.20 
   2   0  -9  388.76   32.40 
   2   0  -9  349.47   33.70 
  -2   0   9  401.06   28.50 
  -2   0   9  431.36   25.40 
  -2   0   9  387.76   26.20 
   1   0  -9    4.10    4.40 
   1   0  -9    3.50    4.50 
   1   0  -9   11.00    5.50 
  -1   0   9    0.30    2.20 
  -1   0   9    4.20    1.40 
  -1   0   9    0.70    1.40 
   0   0  -9    6.30    5.50 
   0   0   9    0.50    0.80 
   0   0   9    1.00    1.20 
  -1   0  -9  429.96   37.60 
  -1   0  -9  451.05   32.70 
   1   0   9  476.95   28.60 
   1   0   9  468.55   29.30 
  -2   0  -9    6.80   10.30 
   2   0   9    7.20    1.50 
  -3   0  -9   48.70    7.10 
   3   0   9   64.39    4.80 
   3   0   9   51.49    5.00 
   4   0   9   26.10    2.90 
   8  -1  -9    4.70    5.70 
   7  -1  -9   14.10    7.80 
  -7   1   9   11.10    2.00 
   6  -1  -9   49.00   12.50 
  -6   1   9   32.00    4.20 
  -6   1   9   37.10    3.70 
   5  -1  -9   12.10    6.90 
  -5   1   9   24.90    2.90 
   4  -1  -9   97.39   14.80 
  -4   1   9   85.69    7.70 
  -4   1   9  103.49    7.20 
   3  -1  -9   26.40    9.20 
   3  -1  -9   35.40    8.80 
  -3   1   9   25.50    3.90 
  -3   1   9   35.00    3.40 
   2  -1  -9   78.89   11.90 
   2  -1  -9   96.49   14.30 
   2  -1  -9   83.09   11.70 
  -2   1   9   87.89    6.30 
  -2   1   9   74.49    7.00 
   1  -1  -9  312.67   26.80 
   1  -1  -9  332.07   31.10 
  -1   1   9  335.97   20.40 
   0  -1  -9  223.08   19.80 
   0  -1  -9  214.18   24.00 
   0   1   9  226.78   15.00 
   0   1   9  231.38   14.40 
  -1  -1  -9   94.69   14.60 
  -1  -1  -9   97.59   11.40 
   1   1   9  103.09    6.80 
   1   1   9   83.39    7.10 
  -2  -1  -9   41.00    7.90 
   2   1   9   46.90    4.50 
   2   1   9   53.19    4.20 
  -3  -1  -9  136.19   14.20 
   3   1   9  148.19    9.90 
  -4  -1  -9    5.60    5.50 
   4   1   9    8.30    1.60 
   8  -2  -9   11.40    6.90 
   7  -2  -9   -1.20    5.70 
  -7   2   9    0.40    1.20 
   6  -2  -9   24.50   10.00 
  -6   2   9   30.20    3.40 
   5  -2  -9  151.08   18.50 
  -5   2   9   99.59    9.00 
  -5   2   9  127.59    8.70 
   4  -2  -9   11.70    7.30 
   4  -2  -9   14.30    7.90 
  -4   2   9   18.90    2.70 
  -4   2   9   16.20    2.90 
   3  -2  -9  258.77   24.90 
   3  -2  -9  236.68   26.10 
  -3   2   9  279.07   17.70 
   2  -2  -9  179.48   18.20 
   2  -2  -9  130.49   18.60 
  -2   2   9  170.88   11.20 
   1  -2  -9  484.55   36.60 
  -1   2   9  451.15   28.60 
   0  -2  -9  124.09   19.10 
   0   2   9  127.19    8.80 
   0   2   9  138.99    9.50 
  -1  -2  -9   70.49   10.10 
   1   2   9   60.89    4.60 
   1   2   9   51.69    4.90 
  -2  -2  -9   88.79   11.00 
   2   2   9   86.19    6.00 
   2   2   9   68.29    6.20 
  -3  -2  -9  103.19   10.80 
   3   2   9  114.49    7.80 
   8  -3  -9    5.40    6.70 
  -8   3   9   12.50    2.00 
   7  -3  -9   12.30    6.50 
  -7   3   9    6.90    1.80 
   6  -3  -9   76.79   13.90 
  -6   3   9   89.19    6.90 
   5  -3  -9   87.09   14.90 
  -5   3   9   76.59    6.30 
   4  -3  -9  141.69   18.10 
  -4   3   9  126.09    9.30 
   3  -3  -9   10.40    8.20 
   3  -3  -9    6.80    6.20 
  -3   3   9    2.90    1.40 
   2  -3  -9  135.09   20.90 
   2  -3  -9  175.08   18.80 
  -2   3   9  162.78   11.10 
   1  -3  -9   83.39   12.50 
  -1   3   9   76.39    5.40 
  -1   3   9   74.09    6.00 
   0  -3  -9  113.19   13.90 
   0   3   9   94.39    7.20 
   0   3   9   93.89    6.80 
  -1  -3  -9   15.40    5.30 
   1   3   9   15.30    2.00 
   1   3   9   15.80    2.20 
  -2  -3  -9    5.00    4.20 
   2   3   9    0.90    0.90 
   2   3   9    2.70    1.50 
  -3  -3  -9    5.30    5.40 
   3   3   9    4.50    1.20 
  -8   4   9    0.50    1.00 
   7  -4  -9    8.30    6.60 
   6  -4  -9   18.50    8.20 
  -6   4   9   17.70    2.70 
   5  -4  -9    4.30    5.80 
  -5   4   9    5.10    1.70 
   4  -4  -9    6.00    6.10 
  -4   4   9   14.80    2.40 
   3  -4  -9    0.50    5.10 
  -3   4   9    1.50    1.20 
   2  -4  -9   35.70    9.70 
  -2   4   9   40.80    3.80 
   1  -4  -9   13.80    6.40 
  -1   4   9    7.10    1.30 
  -1   4   9    5.60    1.50 
   0  -4  -9   33.90    9.20 
   0   4   9   24.90    2.90 
   0   4   9   30.30    2.80 
  -1  -4  -9   69.19   10.90 
   1   4   9   66.59    4.70 
   1   4   9   47.30    4.80 
  -2  -4  -9   62.29    8.90 
   2   4   9   48.70    4.20 
   7  -5  -9   -1.00    5.10 
  -7   5   9    2.00    1.30 
   6  -5  -9   42.80   11.50 
  -6   5   9   52.19    4.60 
   5  -5  -9    4.50    6.50 
  -5   5   9    2.70    1.40 
   4  -5  -9   29.00    9.70 
  -4   5   9   27.50    3.10 
   3  -5  -9  116.29   17.00 
  -3   5   9   93.49    7.30 
   2  -5  -9  152.88   18.60 
  -2   5   9  148.39   10.30 
  -1   5   9   34.20    3.00 
  -1   5   9   33.60    3.40 
   0  -5  -9   48.20   10.10 
   0   5   9   32.10    3.10 
  -1  -5  -9   35.90    8.20 
   1   5   9   41.30    3.40 
   6  -6  -9   23.60    8.40 
  -6   6   9   22.50    2.80 
   5  -6  -9    6.30    5.80 
  -5   6   9   11.60    2.00 
   4  -6  -9    6.50    6.30 
   3  -6  -9   79.89   14.40 
  -3   6   9   69.89    5.60 
   2  -6  -9   33.00   10.00 
  -2   6   9   37.40    3.30 
   1  -6  -9   17.40    7.60 
  -1   6   9   16.10    1.90 
   0  -6  -9    7.20    5.60 
   5  -7  -9   13.00    6.10 
   4  -7  -9    2.00    6.10 
  -4   7   9    1.00    0.90 
   3  -7  -9   12.80    6.70 
  -3   7   9    9.70    1.90 
   2  -7  -9    2.40    5.20 
  -1 -12  10    4.90    3.20 
   0  12 -10  111.19   13.00 
   0 -12  10  104.29   11.40 
   1 -12  10   74.69    9.50 
   2 -12  10   30.70    7.00 
   3 -12  10   62.49    8.40 
   2  11 -10   26.10    6.80 
  -2 -11  10   15.80    4.90 
   1  11 -10   99.89   13.00 
  -1 -11  10  110.39   11.60 
   0  11 -10    3.60    5.20 
   0 -11  10   -0.50    3.30 
  -1  11 -10   34.80    7.30 
   2 -11  10    5.50    3.90 
   3 -11  10   18.20    4.90 
   4 -11  10   -2.00    2.50 
   3  10 -10   33.30    8.20 
  -3 -10  10   33.30    6.60 
   2  10 -10  123.19   15.10 
  -2 -10  10  123.69   12.70 
   1  10 -10  217.88   21.00 
  -1 -10  10  215.68   19.10 
   0  10 -10   72.29   10.70 
   0 -10  10   65.69    6.80 
   0 -10  10   79.89   10.20 
   1 -10  10  223.18   19.70 
   2 -10  10    2.00    2.90 
   3 -10  10   63.89    5.90 
   4 -10  10    3.20    3.60 
   4 -10  10    0.30    1.10 
   5 -10  10   28.50    3.20 
   4   9 -10   47.50   10.50 
  -4  -9  10   57.69    8.00 
   3   9 -10  246.18   29.90 
  -3  -9  10  258.97   24.00 
   2   9 -10   12.70    5.70 
  -2  -9  10   10.40    2.80 
  -2  -9  10   21.10    6.00 
   1   9 -10   17.40    6.00 
  -1  -9  10   15.70    5.40 
   0   9 -10   76.79   10.90 
   0  -9  10   72.79    6.70 
   0  -9  10   85.49   10.40 
   1  -9  10  266.37   22.50 
   2  -9  10   31.50    7.00 
   3  -9  10   34.60    6.80 
   3  -9  10   21.40    3.10 
   4  -9  10   48.50    6.50 
   4  -9  10   30.10    3.80 
   5  -9  10   10.90    1.90 
   5   8 -10    5.50    5.60 
   4   8 -10   79.69   13.00 
  -4  -8  10   77.99    9.70 
   3   8 -10   42.10    9.80 
  -3  -8  10   50.49    8.20 
  -3  -8  10   28.20    6.10 
   2   8 -10  191.48   18.60 
  -2  -8  10  171.08   13.20 
  -2  -8  10  174.18   16.30 
   1   8 -10  169.48   16.30 
  -1  -8  10  149.99   12.00 
  -1  -8  10  188.78   16.50 
   0  -8  10    0.50    1.40 
   0  -8  10    1.70    1.50 
   0  -8  10    2.00    3.20 
   1  -8  10    7.30    1.80 
   1  -8  10   10.80    4.60 
   1  -8  10    3.10    1.30 
   2  -8  10    3.40    3.50 
   2  -8  10    2.00    1.30 
   2  -8  10    9.90    2.20 
   3  -8  10   26.10    5.80 
   3  -8  10   26.30    3.20 
   4  -8  10   37.00    3.90 
   5  -8  10    1.50    1.30 
   6   7 -10    3.10    5.70 
   5   7 -10   -4.00    5.70 
  -5  -7  10    0.50    3.80 
   4   7 -10    9.90    6.20 
  -4  -7  10    1.80    3.00 
  -4  -7  10    5.50    2.50 
   3   7 -10   13.20    5.90 
  -3  -7  10    6.10    2.30 
  -3  -7  10    8.40    3.90 
  -2  -7  10   50.99    8.40 
  -2  -7  10   57.59    5.90 
   1   7 -10  182.48   16.40 
  -1  -7  10  154.18   10.90 
  -1  -7  10  155.88   12.10 
  -1  -7  10  177.48   15.90 
   0  -7  10   34.10    7.10 
   0  -7  10   32.10    3.40 
   0  -7  10   32.80    4.00 
   1  -7  10   60.09    5.60 
   1  -7  10   86.99    7.10 
   1  -7  10   76.79    6.50 
   1  -7  10  103.19   10.60 
   2  -7  10    0.20    2.80 
   2  -7  10    2.10    2.40 
   2  -7  10    1.80    1.20 
   2  -7  10    0.90    1.30 
   3  -7  10  177.98   13.40 
   3  -7  10  199.28   14.00 
   3  -7  10  228.18   17.30 
   4  -7  10   13.10    4.10 
   4  -7  10    5.20    1.60 
   5  -7  10   21.00    2.80 
   6   6 -10   36.70   10.70 
   5   6 -10  113.59   16.20 
  -5  -6  10   82.49   10.50 
   4   6 -10  102.79   15.60 
  -4  -6  10  117.09    9.90 
  -4  -6  10  128.19   13.10 
   3   6 -10  518.25   40.60 
  -3  -6  10  530.05   38.20 
  -3  -6  10  528.65   34.40 
   2   6 -10   26.10    6.80 
  -2  -6  10   20.00    2.30 
  -2  -6  10   23.00    6.40 
  -2  -6  10   19.40    3.40 
  -1  -6  10  271.57   20.80 
  -1  -6  10  241.48   16.00 
  -1  -6  10  236.18   16.90 
   0  -6  10   80.69    7.00 
   0  -6  10   84.19    6.40 
   0  -6  10   93.69   10.20 
   1  -6  10  117.49    9.20 
   1  -6  10  154.68   13.60 
   1  -6  10  133.49   10.10 
   1  -6  10  145.89    9.80 
   2  -6  10   57.79    8.00 
   2  -6  10   56.49    4.90 
   2  -6  10   62.79    5.50 
   3  -6  10   14.40    4.40 
   3  -6  10    0.80    1.30 
  -4   6 -10    5.80    2.70 
   4  -6  10    2.20    1.40 
  -5   6 -10    0.20    2.60 
   5  -6  10    3.30    1.50 
   6   5 -10    1.90    5.00 
   5   5 -10   26.50    9.10 
  -5  -5  10   23.40    6.30 
  -5  -5  10   14.60    3.50 
   4   5 -10  136.49   16.80 
  -4  -5  10  125.29   13.40 
  -4  -5  10  117.99   10.10 
   3   5 -10   69.69   11.20 
  -3  -5  10   62.29    4.80 
  -3  -5  10   88.49    9.90 
  -3  -5  10   46.30    7.50 
   2   5 -10   62.79   10.50 
  -2  -5  10   63.79    8.60 
  -2  -5  10   66.79    5.00 
  -2  -5  10   61.39    6.00 
  -1  -5  10   80.69    6.10 
  -1  -5  10   79.89    7.10 
  -1  -5  10   86.79    9.80 
   0  -5  10   12.90    2.50 
   0  -5  10    8.40    1.40 
   0  -5  10    7.80    1.60 
   0  -5  10   11.10    4.10 
   1  -5  10   15.70    4.80 
   1  -5  10   17.10    2.60 
   1  -5  10   15.00    2.90 
   2  -5  10   69.39    5.50 
   2  -5  10   64.69    7.80 
   2  -5  10   69.59    6.10 
   3  -5  10   60.19    5.10 
   3  -5  10   60.49    5.80 
   4  -5  10    4.60    1.50 
   4  -5  10    3.80    1.90 
  -5   5 -10   -2.40    2.50 
   5  -5  10    0.70    1.10 
   7   4 -10    2.50    6.00 
   6   4 -10    4.30    6.20 
   5   4 -10   -1.30    4.50 
  -5  -4  10    8.80    4.50 
  -5  -4  10    3.80    2.00 
   4   4 -10    1.40    4.50 
  -4  -4  10    0.90    3.50 
  -4  -4  10    0.60    0.80 
  -4  -4  10    0.10    1.70 
   3   4 -10    3.30    5.30 
  -3  -4  10    9.20    1.60 
  -3  -4  10    9.70    2.80 
  -3  -4  10    9.10    5.20 
   2   4 -10  124.59   14.40 
  -2  -4  10  121.69    9.90 
  -2  -4  10  133.79    8.90 
  -2  -4  10  132.09   13.00 
  -1  -4  10   11.70    1.90 
  -1  -4  10   11.70    2.50 
  -1  -4  10    8.70    4.00 
   0   4 -10   41.80    9.10 
   0   4 -10   39.70    8.70 
   0  -4  10   50.89    4.30 
   0  -4  10   51.99    5.10 
   0  -4  10   57.49    7.30 
   0  -4  10   48.20    3.80 
  -1   4 -10   81.49   11.80 
   1  -4  10   91.09    9.20 
   1  -4  10   83.29    7.40 
   1  -4  10   88.69    7.00 
   1  -4  10   92.99    6.40 
   2  -4  10  186.48   11.80 
   2  -4  10  158.28   13.80 
   2  -4  10  179.48   12.50 
   3  -4  10    1.30    1.10 
   3  -4  10    2.00    1.80 
   4  -4  10   -1.80    1.30 
   4  -4  10    1.90    1.20 
   5  -4  10   47.20    4.20 
   7   3 -10    3.00    6.00 
  -6  -3  10  134.59   13.40 
   5   3 -10    0.30    5.30 
  -5  -3  10    8.10    2.20 
  -5  -3  10    9.20    4.30 
  -5  -3  10    9.10    1.70 
  -4  -3  10  261.37   19.40 
  -4  -3  10  289.97   18.10 
  -4  -3  10  299.97   23.50 
   3   3 -10  883.41   60.19 
  -3  -3  10  879.41   57.89 
  -3  -3  10  879.91   52.59 
  -3  -3  10  791.42   53.69 
   2   3 -10  353.26   29.70 
  -2  -3  10  368.46   25.30 
  -2  -3  10  415.56   24.30 
  -2  -3  10  389.36   28.60 
   1   3 -10   -2.10    5.60 
   1   3 -10    0.40    3.80 
  -1  -3  10    3.20    1.30 
  -1  -3  10   -1.70    1.30 
  -1  -3  10    2.30    2.10 
   0   3 -10    9.90    5.40 
   0  -3  10   19.20    4.40 
   0  -3  10   16.00    3.00 
   0  -3  10   19.80    2.70 
   0  -3  10   18.40    2.00 
  -1   3 -10  450.65   38.00 
   1  -3  10  513.25   30.60 
   1  -3  10  462.15   33.30 
   1  -3  10  524.65   31.40 
   2  -3  10    0.10    0.90 
   2  -3  10    1.50    1.50 
   3  -3  10    4.50    1.40 
   3  -3  10    0.60    1.40 
   4  -3  10   -1.50    1.30 
   4  -3  10   -0.20    1.00 
   5  -3  10    8.70    1.80 
   7   2 -10    4.70    5.60 
   6   2 -10  140.89   18.70 
  -6  -2  10  127.49    8.30 
  -6  -2  10  102.59    9.60 
   5   2 -10   29.20    9.50 
  -5  -2  10   27.90    3.90 
  -5  -2  10   24.50    2.70 
   4   2 -10   15.40    7.70 
  -4  -2  10   12.60    3.90 
  -4  -2  10   17.10    5.60 
   3   2 -10   18.80    7.30 
  -3  -2  10   34.30    6.90 
  -3  -2  10   28.80    3.00 
  -3  -2  10   26.40    4.10 
   2   2 -10  216.88   19.90 
  -2  -2  10  208.98   17.80 
  -2  -2  10  205.98   15.20 
  -2  -2  10  228.48   14.20 
   1   2 -10   32.00    8.90 
   1   2 -10   31.20    8.20 
  -1  -2  10   32.20    4.10 
  -1  -2  10   33.10    3.30 
  -1  -2  10   23.80    5.30 
   0   2 -10    1.80    4.80 
   0  -2  10   -1.60    1.20 
   0  -2  10    1.10    1.70 
   0  -2  10    2.00    1.00 
   0  -2  10    0.20    2.70 
  -1   2 -10   -1.30    5.70 
   1  -2  10    3.80    2.60 
   1  -2  10    2.60    1.60 
   1  -2  10    3.70    1.10 
   2  -2  10   27.80    2.80 
   2  -2  10   28.20    3.50 
   3  -2  10   24.00    2.80 
   3  -2  10   22.30    3.50 
   4  -2  10   -0.30    1.40 
   4  -2  10    0.50    1.10 
   5  -2  10    2.30    1.20 
   7   1 -10   25.70    9.40 
  -7  -1  10   16.40    2.10 
   6   1 -10   19.10    9.10 
  -6  -1  10   10.80    2.90 
  -6  -1  10   12.20    2.00 
   5   1 -10    9.80    7.50 
  -5  -1  10    9.20    1.70 
  -4  -1  10    0.70    1.20 
  -4  -1  10    2.80    3.70 
   3   1 -10   37.00    8.60 
  -3  -1  10   12.90    4.70 
  -3  -1  10   15.50    3.10 
   2   1 -10    4.30    4.70 
   2   1 -10    9.80    5.70 
  -2  -1  10    3.60    1.40 
  -2  -1  10    2.50    2.00 
  -2  -1  10   -0.60    2.90 
   1   1 -10  140.99   17.60 
  -1  -1  10  163.58   10.20 
  -1  -1  10  131.69   11.00 
  -1  -1  10  141.39   12.50 
   0   1 -10  172.88   20.40 
   0  -1  10  187.48   13.00 
   0  -1  10  170.28   14.20 
   0  -1  10  185.08   11.70 
  -1   1 -10   -2.90    6.80 
   1  -1  10    4.70    1.10 
   1  -1  10    3.80    1.60 
   2  -1  10   41.70    4.70 
   2  -1  10   56.19    4.20 
   3  -1  10  186.18   11.90 
   3  -1  10  166.28   12.50 
   4  -1  10   69.09    5.40 
   8   0 -10   22.50    8.30 
  -8   0  10   12.60    1.80 
   7   0 -10   -4.80    4.90 
  -7   0  10    0.40    0.90 
   6   0 -10   -2.80    4.90 
  -6   0  10    5.40    1.90 
  -6   0  10    3.10    1.50 
   5   0 -10  168.98   20.00 
  -5   0  10  156.48   10.50 
  -5   0  10  137.69   11.30 
   4   0 -10  134.69   17.60 
  -4   0  10  160.88   10.70 
   3   0 -10   21.60    6.70 
  -3   0  10   20.20    3.40 
  -3   0  10   14.30    3.20 
   2   0 -10   75.39   11.00 
   2   0 -10   71.39   13.50 
  -2   0  10   83.19    6.10 
  -2   0  10   70.59    6.80 
   1   0 -10  519.25   43.40 
   1   0 -10  508.45   37.40 
   0   0 -10  224.08   24.80 
   0   0  10  247.68   15.50 
   0   0  10  251.57   16.30 
   1   0  10    7.90    1.50 
   1   0  10    3.40    1.60 
   2   0  10   21.70    3.10 
   2   0  10   24.10    2.60 
   3   0  10   30.80    3.60 
   3   0  10   36.30    3.30 
   4   0  10    3.00    1.10 
   8  -1 -10   10.80    7.20 
  -8   1  10   13.00    1.70 
   7  -1 -10    1.70    5.50 
  -7   1  10    0.20    1.00 
   6  -1 -10    2.00    6.60 
  -6   1  10    0.20    2.60 
  -6   1  10    1.00    1.30 
   5  -1 -10  354.46   33.00 
  -5   1  10  360.16   23.10 
  -4   1  10  270.47   16.20 
  -4   1  10  212.88   16.70 
   3  -1 -10    3.70    7.20 
  -3   1  10    3.70    1.90 
  -3   1  10    0.50    1.20 
   2  -1 -10    6.30    6.70 
   2  -1 -10    8.50    5.60 
   1  -1 -10  110.29   19.30 
   1  -1 -10  151.98   17.30 
  -1   1  10  162.28   10.70 
  -1   1  10  152.18   10.20 
   0  -1 -10   14.00    5.70 
   0   1  10   13.90    2.40 
   0   1  10   11.90    1.70 
  -1  -1 -10    5.90    5.20 
   1   1  10   15.10    2.00 
   1   1  10   11.20    2.20 
   2   1  10    0.60    1.60 
   2   1  10    0.50    1.00 
   3   1  10    4.90    1.40 
   3   1  10    2.40    1.40 
   7  -2 -10   13.40    6.80 
  -7   2  10    6.10    1.60 
   6  -2 -10    1.70    6.10 
  -6   2  10    4.70    1.60 
   5  -2 -10   12.30    6.60 
  -5   2  10    9.40    2.20 
   4  -2 -10    7.80    5.70 
  -4   2  10    9.00    1.90 
   3  -2 -10  101.09   14.50 
  -3   2  10   99.09    7.50 
   2  -2 -10   10.10    6.30 
  -2   2  10   26.40    3.00 
   1  -2 -10    6.50    5.80 
  -1   2  10    9.80    1.50 
  -1   2  10   13.10    2.30 
   0  -2 -10   43.70    8.40 
   0   2  10   29.50    2.80 
   0   2  10   31.10    3.40 
   1   2  10   73.19    6.90 
   1   2  10  104.39    6.60 
  -2  -2 -10   85.59    9.50 
   2   2  10   82.59    5.90 
   2   2  10   72.49    6.00 
   7  -3 -10    9.50    5.80 
  -7   3  10    9.00    1.90 
  -6   3  10   15.20    3.10 
   5  -3 -10   -3.80    5.90 
  -5   3  10    0.80    1.30 
   4  -3 -10    4.50    5.50 
  -4   3  10    6.80    1.80 
   3  -3 -10  193.18   21.10 
  -3   3  10  183.58   12.70 
   2  -3 -10  221.08   21.80 
  -2   3  10  201.18   14.00 
   1  -3 -10   43.70    9.50 
  -1   3  10   34.20    3.50 
  -1   3  10   31.40    2.70 
   0   3  10   81.39    6.20 
   0   3  10   82.69    6.60 
  -1  -3 -10   92.39   10.80 
   1   3  10   83.59    5.80 
   1   3  10   68.59    5.80 
  -2  -3 -10   14.80    4.30 
   2   3  10   14.70    1.80 
   7  -4 -10   12.40    6.70 
   6  -4 -10   36.70   11.00 
  -6   4  10   31.00    3.40 
  -5   4  10   22.10    3.30 
   4  -4 -10   22.10    9.40 
  -4   4  10   23.80    3.10 
   3  -4 -10   11.20    7.00 
  -3   4  10    7.80    1.70 
   2  -4 -10   34.60    8.80 
  -2   4  10   47.50    4.10 
   1  -4 -10    0.10    5.60 
  -1   4  10    2.10    1.00 
  -1   4  10    1.30    1.10 
   0  -4 -10    3.80    5.10 
   0   4  10    0.30    1.00 
   0   4  10    0.90    0.70 
   1   4  10    1.40    0.90 
   6  -5 -10    7.10    6.90 
  -6   5  10    5.90    1.60 
   5  -5 -10   -1.30    5.80 
  -5   5  10    3.50    1.60 
   4  -5 -10   -0.80    5.60 
  -4   5  10    3.30    1.50 
   3  -5 -10   -3.00    5.60 
  -3   5  10    1.10    1.30 
   2  -5 -10   12.50    6.10 
  -2   5  10    5.40    1.20 
   1  -5 -10   22.50    6.40 
  -1   5  10   16.50    2.10 
   0   5  10   16.20    1.90 
   5  -6 -10    4.40    6.30 
   4  -6 -10   10.80    6.80 
  -4   6  10    9.50    1.60 
   3  -6 -10   27.30    8.10 
  -3   6  10   12.90    2.00 
   2  -6 -10   31.50    7.90 
  -2   6  10   17.60    2.00 
   0 -12  11   13.40    4.60 
   1 -12  11   75.19    9.70 
   2 -12  11    2.50    3.40 
   2  11 -11   40.10   11.90 
  -2 -11  11   41.50    6.30 
   1  11 -11  104.29   15.10 
  -1 -11  11   88.89   10.60 
   0 -11  11   -0.50    3.10 
   1 -11  11   26.30    6.40 
   2 -11  11   -1.00    3.10 
   3 -11  11    5.60    3.60 
   3  10 -11   19.90    7.30 
  -3 -10  11   27.00    6.10 
   2  10 -11   -0.30    5.70 
  -2 -10  11   -3.80    2.80 
   1  10 -11   37.00    8.30 
  -1 -10  11   36.80    7.90 
   0 -10  11    2.40    3.50 
   1 -10  11   62.99    9.30 
   2 -10  11    4.00    3.80 
   3 -10  11   90.29   10.60 
   4 -10  11    0.80    1.00 
   4 -10  11    0.70    2.70 
   4   9 -11   -0.80    4.70 
  -4  -9  11    2.70    3.30 
   3   9 -11  214.88   21.00 
  -3  -9  11  207.88   18.00 
   2   9 -11   16.40   10.00 
   1   9 -11  222.68   20.80 
  -1  -9  11  219.08   15.80 
  -1  -9  11  239.48   20.10 
   0  -9  11   -1.30    2.00 
   0  -9  11   -2.20    3.30 
   1  -9  11  161.98   15.90 
   2  -9  11    3.20    1.40 
   2  -9  11    0.80    3.30 
   3  -9  11   31.10    6.30 
   3  -9  11   13.80    2.60 
   4  -9  11    1.20    3.40 
   4  -9  11   -0.90    0.90 
   5   8 -11   43.50   10.10 
   4   8 -11   39.30    9.60 
  -4  -8  11   42.30    7.70 
  -3  -8  11   19.80    5.80 
   2   8 -11   48.30    9.90 
  -2  -8  11   56.89    9.70 
  -2  -8  11   50.39    8.30 
  -1  -8  11  117.59    9.80 
  -1  -8  11  141.09   14.00 
   0  -8  11    8.90    4.10 
   0  -8  11    3.50    1.40 
   0  -8  11    5.50    2.00 
   1  -8  11   72.29    9.70 
   1  -8  11   60.79    6.00 
   1  -8  11   61.29    5.30 
   2  -8  11    2.80    3.70 
   2  -8  11    2.70    1.40 
   2  -8  11    6.00    1.90 
   3  -8  11   40.40    8.40 
   3  -8  11   40.20    4.00 
   4  -8  11   17.40    7.60 
   4  -8  11   13.90    2.50 
   5  -8  11    1.60    1.20 
   5   7 -11    5.20    6.30 
  -5  -7  11   12.30    4.40 
  -4  -7  11    9.00    4.90 
   3   7 -11   63.69   11.80 
  -3  -7  11   53.49    8.60 
   2   7 -11   14.70    7.00 
  -2  -7  11   21.20    6.00 
  -2  -7  11   22.60    3.80 
  -1  -7  11   61.69    6.20 
  -1  -7  11   68.59    9.50 
  -1  -7  11   65.99    5.10 
   0  -7  11    7.00    4.60 
   0  -7  11    6.40    1.60 
   0  -7  11    3.90    1.90 
   1  -7  11   64.19    5.50 
   1  -7  11   67.79    9.00 
   1  -7  11   59.59    5.80 
   2  -7  11    1.10    1.50 
   2  -7  11   -1.20    0.90 
   2  -7  11    4.80    3.40 
   3  -7  11   24.20    5.40 
   3  -7  11   21.00    2.80 
   3  -7  11   22.20    3.30 
   4  -7  11    3.30    1.60 
   5  -7  11    5.60    1.50 
   6   6 -11    7.40    6.00 
   5   6 -11  148.99   17.90 
  -5  -6  11  140.99   14.20 
   4   6 -11   12.30    6.00 
  -4  -6  11    0.50    3.40 
  -4  -6  11    3.90    2.00 
   3   6 -11  266.17   24.30 
  -3  -6  11  249.38   18.40 
  -3  -6  11  272.87   22.40 
  -2  -6  11   12.60    4.80 
  -2  -6  11   12.10    1.80 
  -2  -6  11    8.30    2.80 
  -1  -6  11   88.69    7.50 
  -1  -6  11   82.19    6.40 
  -1  -6  11   84.69   10.40 
   0  -6  11  102.19    8.60 
   0  -6  11  125.29   12.20 
   0  -6  11  104.49    7.90 
   1  -6  11   59.69    5.80 
   1  -6  11   65.09    5.60 
   1  -6  11   69.09    8.50 
   2  -6  11    8.20    2.10 
   2  -6  11   10.90    2.00 
   2  -6  11    9.30    3.60 
   3  -6  11   -1.80    3.40 
   3  -6  11    2.40    1.60 
   3  -6  11    1.50    1.20 
   4  -6  11    5.60    1.70 
   5  -6  11    2.20    1.10 
   6   5 -11   18.90    7.50 
   5   5 -11    0.40    4.40 
  -5  -5  11    3.40    3.90 
   4   5 -11    2.10    5.50 
  -4  -5  11   -0.30    1.70 
  -4  -5  11    0.90    3.20 
   3   5 -11   20.10    6.50 
  -3  -5  11   13.90    5.00 
  -2  -5  11   11.30    4.50 
  -2  -5  11   12.10    2.00 
  -2  -5  11   11.80    2.90 
  -1  -5  11    2.60    1.20 
  -1  -5  11    1.80    3.40 
  -1  -5  11    5.60    2.20 
   0  -5  11   33.00    6.70 
   0  -5  11   33.90    3.50 
   1  -5  11   66.59    8.30 
   1  -5  11   72.29    5.60 
   1  -5  11   58.19    4.80 
   1  -5  11   52.19    5.70 
   2  -5  11    3.70    1.70 
   2  -5  11   11.90    3.70 
   2  -5  11    3.40    1.30 
   3  -5  11    0.00    1.00 
   3  -5  11   -0.20    1.60 
  -4   5 -11    5.10    3.10 
   4  -5  11    5.00    1.50 
   6   4 -11   -0.20    5.90 
   5   4 -11   30.90    9.40 
  -5  -4  11   53.89    8.10 
  -5  -4  11   35.90    5.00 
   4   4 -11   -1.40    4.00 
  -4  -4  11    3.10    1.90 
  -4  -4  11   -0.80    1.00 
  -4  -4  11    0.70    3.10 
  -3  -4  11   39.70    5.00 
  -3  -4  11   48.90    4.00 
  -3  -4  11   41.50    8.40 
  -2  -4  11    4.10    3.40 
  -2  -4  11    5.30    1.40 
  -2  -4  11    6.30    2.30 
   1   4 -11    4.00    6.40 
  -1  -4  11    3.50    1.40 
  -1  -4  11    1.10    2.40 
  -1  -4  11   -0.40    2.20 
   0   4 -11   32.90    8.80 
   0  -4  11   31.10    3.20 
   0  -4  11   22.80    2.50 
   0  -4  11   27.60    5.70 
   0  -4  11   21.50    5.10 
   1  -4  11   23.00    5.30 
   1  -4  11   24.70    3.10 
   1  -4  11   17.50    2.30 
   2  -4  11    7.60    2.00 
   2  -4  11    6.80    1.60 
   3  -4  11   51.39    4.40 
   3  -4  11   44.70    5.00 
   4  -4  11    2.70    1.40 
   7   3 -11    6.70    6.70 
   6   3 -11   38.20   11.30 
   5   3 -11   82.99   14.80 
  -5  -3  11   77.49    8.40 
  -5  -3  11   86.89    6.20 
   4   3 -11   -3.20    4.90 
  -4  -3  11    1.30    1.20 
  -4  -3  11    1.80    1.90 
  -4  -3  11    0.70    3.50 
   3   3 -11   91.79   14.40 
  -3  -3  11   87.79   10.60 
  -3  -3  11   91.99    6.50 
  -3  -3  11   79.29    7.60 
  -2  -3  11   -0.70    1.50 
  -2  -3  11   -3.90    2.10 
  -2  -3  11   -1.00    0.90 
   1   3 -11  273.37   28.80 
  -1  -3  11  374.46   28.60 
  -1  -3  11  358.56   21.80 
   0  -3  11    0.60    2.20 
   0  -3  11    3.10    1.90 
   0  -3  11    2.20    1.40 
   0  -3  11   -1.50    0.90 
   1  -3  11    2.40    1.00 
   1  -3  11    2.70    1.40 
   1  -3  11    1.10    2.80 
   2  -3  11   23.00    2.60 
   2  -3  11   18.90    3.10 
   3  -3  11   24.10    3.80 
   3  -3  11   24.40    2.70 
   4  -3  11    4.00    1.20 
   7   2 -11    4.00    5.70 
  -6  -2  11    4.30    1.40 
   5   2 -11  234.58   23.40 
  -5  -2  11  188.88   13.20 
   4   2 -11  108.99   14.20 
  -4  -2  11  102.79    7.10 
  -4  -2  11   91.99   11.40 
  -4  -2  11   83.99    8.10 
  -3  -2  11    0.30    1.60 
  -3  -2  11    2.70    3.00 
  -3  -2  11    1.00    1.20 
   2   2 -11   12.20    6.90 
  -2  -2  11   13.40    2.20 
  -2  -2  11   12.60    4.40 
  -2  -2  11    8.80    2.70 
   1   2 -11  146.89   18.20 
  -1  -2  11  138.29   13.20 
  -1  -2  11  124.29   10.90 
  -1  -2  11  162.88   10.30 
   0   2 -11   79.29   15.00 
   0  -2  11  110.99    7.50 
   0  -2  11   88.79    6.50 
   0  -2  11   88.59    9.20 
   1  -2  11    1.70    1.00 
   1  -2  11    4.60    1.70 
   2  -2  11   18.40    2.40 
   2  -2  11   22.40    3.40 
   3  -2  11   16.80    2.30 
   3  -2  11   15.40    2.80 
   4  -2  11    0.40    0.90 
   7   1 -11    2.20    5.40 
  -7  -1  11    0.60    0.90 
  -6  -1  11    1.30    1.10 
   5   1 -11    5.70    5.80 
  -5  -1  11    2.60    2.50 
  -5  -1  11    0.50    1.20 
   4   1 -11  144.49   17.80 
  -4  -1  11  165.28   10.30 
  -4  -1  11  124.49   11.00 
   3   1 -11   13.50    6.50 
  -3  -1  11    1.10    1.20 
  -3  -1  11    0.00    2.00 
   2   1 -11   38.60    7.70 
   2   1 -11   11.30    8.30 
  -2  -1  11   23.70    4.10 
  -2  -1  11   26.50    5.90 
  -2  -1  11   21.70    2.90 
  -1  -1  11    0.60    1.30 
   0  -1  11   27.60    3.30 
   0  -1  11   26.00    2.50 
   1  -1  11   17.60    2.80 
   1  -1  11   12.80    1.80 
   2  -1  11   27.90    2.70 
   2  -1  11   21.20    3.20 
   3  -1  11    0.30    0.80 
   3  -1  11    0.50    1.30 
   7   0 -11    4.20    6.10 
  -7   0  11    3.60    1.20 
  -6   0  11    9.50    2.20 
   5   0 -11    3.20    6.20 
  -5   0  11    6.30    2.40 
  -5   0  11    1.00    1.30 
   4   0 -11   29.00    8.80 
  -4   0  11   19.30    2.70 
  -4   0  11   12.20    2.90 
   3   0 -11  113.49   13.70 
  -3   0  11   96.89    7.20 
  -3   0  11   81.89    8.10 
   2   0 -11  164.88   16.80 
  -2   0  11  160.38   11.30 
  -1   0  11    8.80    1.90 
   0   0  11   78.59    5.70 
   0   0  11   85.29    6.60 
   1   0  11   96.69    8.00 
   1   0  11  111.39    7.30 
   2   0  11   18.50    2.20 
   2   0  11   18.40    2.70 
   3   0  11   10.40    1.70 
   3   0  11    9.50    2.10 
   7  -1 -11   20.90    8.50 
  -7   1  11   18.20    2.30 
   6  -1 -11   25.40    9.20 
  -6   1  11   21.50    2.80 
   5  -1 -11   -2.00    4.70 
  -5   1  11   -0.80    2.40 
  -5   1  11    1.10    1.30 
   4  -1 -11   35.00   10.10 
  -4   1  11   38.70    3.90 
   3  -1 -11   81.29   12.30 
  -3   1  11   71.79    6.00 
   2  -1 -11   88.79   13.10 
  -2   1  11  103.69    7.60 
   1  -1 -11   25.80    6.50 
  -1   1  11   23.20    3.00 
   0   1  11   48.00    4.60 
   0   1  11   47.20    3.70 
   1   1  11   54.79    4.30 
   1   1  11   58.99    5.00 
   2   1  11   14.70    2.20 
   2   1  11   13.90    2.00 
   7  -2 -11   23.30    7.80 
  -7   2  11   20.90    2.60 
   6  -2 -11   26.70    8.40 
  -6   2  11   21.60    2.90 
   5  -2 -11    4.90    9.70 
  -5   2  11    7.60    1.90 
   4  -2 -11   10.90    7.30 
  -4   2  11   13.70    2.30 
   3  -2 -11  101.99   14.50 
  -3   2  11   94.69    7.40 
   2  -2 -11    9.50    5.60 
  -2   2  11    7.30    1.70 
   1  -2 -11    4.40    6.70 
  -1   2  11    4.50    1.50 
   0  -2 -11    4.70    5.10 
   0   2  11    1.10    1.00 
   0   2  11   -0.50    0.80 
   1   2  11   -0.90    0.80 
   1   2  11    0.90    0.80 
   6  -3 -11   -4.10    4.30 
  -6   3  11    0.30    1.10 
   5  -3 -11   10.80    6.90 
  -5   3  11    6.50    1.70 
   4  -3 -11   -3.80    5.40 
  -4   3  11    4.90    2.10 
  -3   3  11    2.40    1.50 
   2  -3 -11   10.60    6.20 
   1  -3 -11   23.50    7.80 
  -1   3  11   28.60    3.10 
   0  -3 -11   54.09    8.80 
   0   3  11   38.90    3.60 
   0   3  11   33.60    3.10 
   1   3  11    4.60    1.30 
   6  -4 -11    0.60    5.20 
  -6   4  11    0.50    1.00 
   5  -4 -11   32.40   10.00 
  -5   4  11   41.40    3.90 
   4  -4 -11   24.60    8.90 
  -4   4  11   34.10    3.50 
   3  -4 -11   23.40    7.40 
  -3   4  11   18.10    2.50 
   2  -4 -11   51.59    9.90 
  -2   4  11   43.40    3.90 
  -1   4  11   32.30    3.10 
   4  -5 -11   39.10    9.70 
  -4   5  11   29.90    3.00 
   3  -5 -11    1.80    4.90 
  -3   5  11    1.80    1.00 
  -1 -11  12   42.00    6.90 
   0 -11  12    5.30    3.40 
   1 -11  12   27.90    6.20 
   2 -11  12   15.10    4.40 
   2  10 -12   23.60   11.10 
  -2 -10  12   24.10    5.70 
  -1 -10  12    4.90    3.70 
   0 -10  12    4.50    3.50 
   1 -10  12   35.80    7.40 
   2 -10  12    7.70    3.40 
   3 -10  12   16.30    4.60 
   3   9 -12   89.09   13.40 
  -3  -9  12   72.29    9.50 
  -2  -9  12    2.50    3.50 
  -1  -9  12  105.19   15.80 
   0  -9  12   41.80    9.00 
   1  -9  12   19.20    8.70 
   2  -9  12    1.40    3.00 
   3  -9  12   42.10    6.10 
   4   8 -12    0.00    5.20 
  -4  -8  12    4.90    3.70 
   3   8 -12   33.80    9.50 
  -3  -8  12   29.30    7.00 
  -2  -8  12    2.60    3.90 
  -1  -8  12   56.09    7.10 
   0  -8  12   20.90    6.40 
   0  -8  12   24.20    2.90 
   1  -8  12   96.89    7.60 
   1  -8  12  107.29   11.90 
   2  -8  12   17.20    2.80 
   2  -8  12   10.10    2.00 
   2  -8  12   18.50    5.00 
   3  -8  12    1.60    1.30 
   3  -8  12   -0.80    3.10 
   4  -8  12    5.80    1.40 
   5   7 -12   12.90    6.50 
  -5  -7  12    2.90    3.50 
   4   7 -12    9.90    6.30 
  -4  -7  12    6.10    3.80 
   3   7 -12   74.49   14.60 
  -3  -7  12   77.39   10.30 
  -2  -7  12    1.00    3.50 
  -2  -7  12    2.30    1.70 
  -2  -7  12    6.40    2.20 
  -1  -7  12   16.70    5.70 
  -1  -7  12   16.30    4.00 
   0  -7  12   -1.50    2.40 
   0  -7  12    0.60    1.30 
   0  -7  12   -2.50    2.60 
   1  -7  12   47.60    4.50 
   1  -7  12   48.40    7.50 
   1  -7  12   38.90    5.30 
   2  -7  12    7.00    2.20 
   2  -7  12    5.60    1.80 
   3  -7  12    6.80    1.50 
   4  -7  12    4.90    1.40 
   5   6 -12   87.99   13.90 
  -5  -6  12   89.09   10.20 
   4   6 -12   44.90    9.70 
  -3  -6  12  111.59    9.80 
  -3  -6  12  134.99   13.60 
  -2  -6  12    7.50    4.00 
  -2  -6  12    8.30    2.50 
  -2  -6  12    3.60    1.30 
  -1  -6  12  106.19   11.80 
  -1  -6  12   97.29    7.20 
  -1  -6  12   89.59    8.10 
   0  -6  12   90.29    6.80 
   0  -6  12  106.69   11.10 
   0  -6  12   70.89    7.30 
   1  -6  12    5.40    1.80 
   1  -6  12    5.40    3.50 
   1  -6  12    1.30    1.20 
   2  -6  12    2.70    3.70 
   2  -6  12    8.40    2.10 
   2  -6  12    7.60    1.60 
   3  -6  12    4.40    1.80 
   3  -6  12    7.20    1.60 
   4  -6  12    1.30    0.90 
   6   5 -12    7.70    5.60 
   5   5 -12   32.60   10.00 
  -5  -5  12   25.50    6.60 
   4   5 -12   -8.30    6.50 
  -4  -5  12    1.20    1.50 
  -4  -5  12    3.90    3.60 
   3   5 -12    5.00    7.50 
  -3  -5  12    4.60    1.40 
  -3  -5  12    6.80    4.10 
  -3  -5  12    5.90    2.60 
  -2  -5  12    4.90    1.50 
  -2  -5  12    4.70    2.30 
  -2  -5  12    2.30    3.40 
  -1  -5  12   47.80    8.00 
  -1  -5  12   40.40    5.00 
  -1  -5  12   45.80    4.20 
   0  -5  12    3.50    3.20 
   0  -5  12    3.00    2.00 
   0  -5  12    2.20    1.50 
   1  -5  12   -1.10    1.00 
   1  -5  12    2.50    2.90 
   1  -5  12    2.00    1.40 
   2  -5  12   30.10    3.50 
   2  -5  12   18.10    2.40 
   3  -5  12    4.00    1.50 
   3  -5  12    3.70    1.70 
   4  -5  12    1.00    1.00 
   6   4 -12   -4.20    4.30 
   5   4 -12    4.00    5.60 
   4   4 -12    1.40    6.90 
  -4  -4  12   17.40    2.10 
  -4  -4  12   12.50    2.80 
  -4  -4  12   14.70    5.00 
   3   4 -12    4.50    6.60 
  -3  -4  12    7.20    2.40 
  -3  -4  12    4.10    3.80 
  -3  -4  12    1.80    1.30 
  -2  -4  12   56.39    8.40 
  -2  -4  12   53.59    4.60 
  -2  -4  12   48.50    5.60 
  -1  -4  12    4.30    2.20 
  -1  -4  12   13.30    4.50 
  -1  -4  12    6.20    1.90 
   0  -4  12    8.80    2.50 
   0  -4  12   13.50    2.40 
   0  -4  12   11.40    4.20 
   1  -4  12    1.00    1.30 
   1  -4  12    1.30    0.90 
   2  -4  12    2.10    1.50 
   2  -4  12    4.20    1.70 
   3  -4  12    8.80    1.60 
   3  -4  12    8.70    2.00 
   6   3 -12    1.60    5.80 
   5   3 -12   16.60    8.90 
  -5  -3  12   15.00    2.10 
   4   3 -12    7.80    6.60 
  -4  -3  12    1.20    2.10 
  -4  -3  12    7.00    1.70 
  -4  -3  12   12.20    4.70 
   3   3 -12   38.80   10.00 
  -3  -3  12   45.50    8.50 
  -3  -3  12   50.89    4.10 
  -3  -3  12   30.20    4.70 
  -2  -3  12    2.40    3.00 
  -2  -3  12    3.10    1.50 
  -2  -3  12    5.70    2.30 
  -1  -3  12   78.69    6.20 
  -1  -3  12   75.39    9.10 
   0  -3  12   38.50    5.80 
   0  -3  12   31.70    3.60 
   1  -3  12   12.90    1.90 
   1  -3  12   17.10    2.80 
   2  -3  12    0.50    0.90 
   2  -3  12    0.80    1.90 
   3  -3  12    0.50    0.90 
   3  -3  12   -1.80    1.00 
   6   2 -12   24.40    8.20 
  -6  -2  12   10.10    1.70 
  -5  -2  12   14.30    2.80 
   4   2 -12   12.50    7.20 
  -4  -2  12   14.80    2.30 
  -4  -2  12    8.00    2.40 
   3   2 -12   -4.70    6.10 
  -3  -2  12   10.90    4.70 
  -3  -2  12   13.10    3.00 
  -3  -2  12    8.40    1.90 
  -2  -2  12    2.00    3.00 
  -2  -2  12    4.30    1.60 
  -2  -2  12    3.30    2.10 
  -1  -2  12   10.80    4.10 
  -1  -2  12    7.60    1.90 
   0  -2  12   41.20    4.10 
   1  -2  12   19.80    2.90 
   1  -2  12   15.70    2.20 
   2  -2  12    6.90    2.00 
   2  -2  12   12.60    1.80 
   3  -2  12    5.90    1.30 
   3  -2  12    7.30    2.00 
   6   1 -12   25.80    8.90 
  -6  -1  12   18.50    2.40 
   5   1 -12    9.80    7.40 
   4   1 -12   22.50    8.20 
  -4  -1  12   25.80    2.90 
  -4  -1  12   17.10    3.50 
   3   1 -12   34.60    7.80 
  -3  -1  12   39.30    5.40 
  -2  -1  12   58.49    5.10 
  -1  -1  12    9.20    1.90 
   0  -1  12    8.10    1.90 
   1  -1  12   21.00    3.30 
   1  -1  12   17.10    2.10 
   2  -1  12    1.60    0.80 
   2  -1  12    2.30    1.50 
   6   0 -12   24.00    8.20 
  -6   0  12   18.10    2.30 
   5   0 -12    5.40    5.20 
  -5   0  12    1.20    1.20 
   4   0 -12   -6.30    4.30 
  -4   0  12    0.30    1.30 
   3   0 -12   36.10    8.60 
  -3   0  12   40.10    4.00 
  -2   0  12   15.90    2.60 
  -1   0  12    1.50    1.40 
   0   0  12    0.20    1.20 
   1   0  12    0.80    1.10 
   1   0  12    2.00    0.90 
   2   0  12    1.70    1.10 
   2   0  12    3.80    1.10 
   6  -1 -12    4.60    5.90 
  -6   1  12    1.50    1.10 
   5  -1 -12   23.20    8.20 
  -5   1  12   20.00    2.80 
   4  -1 -12    9.10    6.00 
  -4   1  12    8.30    2.20 
   3  -1 -12   -8.50    8.30 
  -3   1  12    0.00    1.10 
   2  -1 -12   52.89   10.40 
  -2   1  12   60.19    5.10 
  -1   1  12   37.20    4.10 
   0   1  12    5.70    1.80 
   1   1  12   31.20    3.10 
   1   1  12   28.80    2.60 
   6  -2 -12    3.00    6.00 
  -6   2  12   -0.10    0.90 
   5  -2 -12    7.10    5.60 
  -5   2  12    6.60    1.90 
   4  -2 -12   18.50    7.30 
  -4   2  12   20.00    2.80 
   3  -2 -12   29.50    7.30 
  -3   2  12   17.10    2.50 
   2  -2 -12   35.40    8.10 
  -2   2  12   33.50    3.60 
  -1   2  12   34.60    3.50 
   0   2  12   16.20    2.20 
   5  -3 -12   11.70    6.50 
  -5   3  12    4.40    1.50 
   4  -3 -12   19.60    6.90 
  -4   3  12    7.00    1.70 
   3  -3 -12   -5.40    5.60 
  -3   3  12    2.90    1.30 
   2  -3 -12   -3.40    8.30 
  -2   3  12    1.00    1.20 
   1  -3 -12   -0.30    5.30 
  -1   3  12   -0.90    0.90 
  -1 -10  13    4.20    3.40 
   0 -10  13   -2.70    2.10 
   1 -10  13    7.20    3.90 
  -2  -9  13    8.90    3.90 
  -1  -9  13   16.30    5.50 
   0  -9  13   20.40    5.70 
   1  -9  13   13.10    4.80 
   2  -9  13    6.30    3.80 
  -3  -8  13   23.30    6.20 
  -2  -8  13   -0.30    3.20 
  -1  -8  13   26.50    6.70 
  -1  -8  13   26.90    3.70 
   0  -8  13    9.50    4.80 
   0  -8  13    5.20    1.40 
   1  -8  13   17.20    2.50 
   1  -8  13   22.20    5.70 
   2  -8  13    0.00    1.70 
   2  -8  13   12.30    3.60 
   3  -8  13    0.00    0.90 
   4   7 -13    6.30   10.00 
  -4  -7  13    1.70    3.10 
  -3  -7  13    7.60    4.20 
  -2  -7  13   14.20    2.20 
  -2  -7  13   14.00    5.00 
  -1  -7  13   13.70    2.00 
  -1  -7  13   11.00    5.50 
   0  -7  13    6.30    1.70 
   0  -7  13   -2.70    3.40 
   1  -7  13    1.40    1.30 
   1  -7  13   -2.40    2.90 
   2  -7  13   12.50    2.40 
   2  -7  13   11.60    4.00 
   3  -7  13    3.10    1.20 
   5   6 -13   17.70    7.90 
   4   6 -13    6.00    7.20 
  -4  -6  13    9.30    3.90 
  -3  -6  13   30.40    6.80 
  -3  -6  13   30.00    2.90 
  -2  -6  13   52.49    7.90 
  -2  -6  13   32.20    4.00 
  -1  -6  13   29.10    3.20 
  -1  -6  13   32.10    6.90 
   0  -6  13   20.20    5.50 
   0  -6  13   14.30    2.50 
   1  -6  13   -2.90    2.60 
   1  -6  13    5.60    1.80 
   2  -6  13    2.10    1.60 
   2  -6  13    4.60    1.30 
   3  -6  13   -0.40    1.00 
   5   5 -13   22.50    9.30 
   4   5 -13   -6.80    6.70 
  -4  -5  13    1.90    1.40 
  -4  -5  13    2.50    3.50 
  -3  -5  13    5.00    4.20 
  -3  -5  13    2.40    1.30 
  -2  -5  13   18.10    5.30 
  -2  -5  13   17.30    2.40 
  -1  -5  13    0.40    2.40 
  -1  -5  13    2.80    1.50 
  -1  -5  13    3.80    3.70 
   0  -5  13   13.10    2.30 
   0  -5  13   18.70    4.80 
   1  -5  13    9.30    3.50 
   1  -5  13    0.30    1.50 
   2  -5  13   -1.70    0.90 
   2  -5  13    1.00    1.40 
   3  -5  13    2.30    1.00 
   3  -5  13    1.90    1.50 
   5   4 -13   -8.30    6.60 
   4   4 -13   -4.60    6.60 
  -4  -4  13    3.80    3.90 
  -4  -4  13    0.10    1.10 
  -3  -4  13    3.90    3.40 
  -3  -4  13    5.00    1.60 
  -2  -4  13   -0.20    3.00 
  -2  -4  13    4.20    2.20 
  -2  -4  13    6.30    1.70 
  -1  -4  13    0.30    2.90 
  -1  -4  13    3.40    1.50 
  -1  -4  13    4.40    2.40 
   0  -4  13   16.50    2.50 
   0  -4  13   14.40    6.70 
   1  -4  13   20.80    2.90 
   2  -4  13   -0.20    1.00 
   2  -4  13    2.00    1.40 
   5   3 -13   -0.20    6.30 
   4   3 -13   18.80    7.00 
  -4  -3  13   15.40    2.30 
  -3  -3  13   45.50    7.40 
  -3  -3  13   42.90    4.00 
  -2  -3  13    2.00    2.90 
  -2  -3  13    0.50    1.10 
  -2  -3  13    0.00    2.40 
  -1  -3  13   -2.10    2.60 
  -1  -3  13    2.00    1.30 
   0  -3  13   12.70    2.50 
   1  -3  13    5.50    1.70 
   2  -3  13   -0.40    1.20 
   2  -3  13    0.00    1.20 
  -6  -2  13    0.10    1.00 
   5   2 -13    3.60    6.60 
  -5  -2  13    0.20    1.00 
   4   2 -13   14.50    6.70 
  -4  -2  13    5.20    1.50 
  -3  -2  13    7.70    1.80 
  -2  -2  13   11.60    2.10 
  -1  -2  13    0.50    1.20 
   0  -2  13    1.80    1.40 
   1  -2  13    5.80    1.60 
   2  -2  13    8.50    1.50 
   2  -2  13    4.20    1.50 
   6   1 -13   10.20    7.40 
   5   1 -13    5.00    6.30 
  -5  -1  13    2.00    1.20 
   4   1 -13    4.10    6.10 
  -4  -1  13    0.80    1.10 
  -3  -1  13    8.10    2.10 
  -1  -1  13   14.90    2.50 
   0  -1  13   19.90    2.80 
   1  -1  13    1.70    1.30 
   5   0 -13   30.00    8.10 
  -5   0  13   16.00    2.40 
   4   0 -13   10.40    6.90 
  -4   0  13   12.80    2.00 
  -3   0  13    0.40    1.20 
  -2   0  13   13.60    2.40 
  -1   0  13   33.70    3.60 
   0   0  13   -0.70    1.00 
  -5   1  13    8.90    1.80 
   4  -1 -13    8.60    7.20 
  -3   1  13    4.20    1.40 
  -2   1  13   -0.50    1.20 
  -1   1  13    0.40    1.00 
   4  -2 -13   18.20    6.60 
  -4   2  13   21.60    2.60 
   3  -2 -13   -2.60    5.70 
  -3   2  13    4.20    1.40 
  -2   2  13   -0.30    0.90 
  -2  -8  14   12.80    5.00 
  -1  -8  14    5.50    3.60 
   0  -8  14    4.90    1.70 
   0  -8  14    6.60    3.50 
   1  -8  14   -3.50    2.70 
  -3  -7  14    3.20    3.20 
  -2  -7  14   -4.30    2.00 
  -1  -7  14    9.90    3.80 
  -1  -7  14    5.50    1.50 
   0  -7  14   12.10    2.00 
   0  -7  14   12.10    4.20 
   1  -7  14    2.90    1.40 
   1  -7  14    7.30    4.00 
  -4  -6  14   20.80    5.70 
  -3  -6  14    0.80    1.70 
  -3  -6  14   -2.10    2.60 
  -2  -6  14    4.30    3.10 
  -2  -6  14    1.50    1.20 
  -1  -6  14   -2.80    2.40 
  -1  -6  14    0.10    1.10 
   0  -6  14    1.70    1.30 
   0  -6  14    6.00    3.30 
   1  -6  14    3.70    3.50 
   1  -6  14    1.50    1.30 
  -3  -5  14    5.90    3.70 
  -3  -5  14    9.20    1.80 
  -2  -5  14    2.20    3.20 
  -2  -5  14    6.70    1.50 
  -1  -5  14    0.20    2.50 
  -1  -5  14    0.50    1.30 
   0  -5  14    8.90    3.60 
   0  -5  14   10.00    2.10 
   1  -5  14    0.50    1.10 
  -4  -4  14    0.70    1.00 
  -3  -4  14    2.20    1.00 
  -2  -4  14    1.90    1.30 
  -2  -4  14    0.60    3.30 
  -1  -4  14    4.20    3.20 
  -1  -4  14    1.80    1.20 
   0  -4  14    0.30    1.00 
   1  -4  14    2.10    1.40 
  -4  -3  14    1.10    1.10 
  -3  -3  14    2.00    1.20 
  -2  -3  14   14.00    2.30 
  -1  -3  14   13.30    2.30 
   0  -3  14    1.40    1.40 
   1  -3  14    6.30    1.70 
  -4  -2  14    0.90    1.10 
  -3  -2  14    7.70    1.80 
  -2  -2  14    7.90    1.70 
  -1  -2  14    5.00    1.60 
   0  -2  14    0.00    1.20 
  -4  -1  14    2.70    1.30 
  -3  -1  14   -0.30    1.10 
  -2  -1  14   -0.80    1.10 
  -1  -1  14    2.50    1.20 
  -3   0  14   23.80    2.90 
  -2   0  14    2.30    1.30 
   0   0   0    0.00    0.00 
  
_computing_structure_solution     'SHELXT 2014/5 (Sheldrick, 2014)' 
;
_shelx_hkl_checksum              22242
loop_
_space_group_symop_operation_xyz
'x, y, z'
'-x, -y, -z'
loop_
_atom_site_label
_atom_site_type_symbol
_atom_site_fract_x
_atom_site_fract_y
_atom_site_fract_z
_atom_site_U_iso_or_equiv
_atom_site_adp_type
_atom_site_occupancy
_atom_site_site_symmetry_order
_atom_site_calc_flag
_atom_site_refinement_flags_posn
_atom_site_refinement_flags_adp
Br1 Br 0.73426(6) 0.49886(4) 0.43228(5) 0.0819(2) Uani 1 1 d . .
Br2 Br 1.03197(8) 0.66739(7) 0.85443(5) 0.1189(3) Uani 1 1 d . .
N1 N 0.3428(3) 0.1460(3) 0.5007(3) 0.0497(6) Uani 1 1 d D .
H1' H 0.448(3) 0.159(3) 0.544(2) 0.038(8) Uiso 1 1 d D .
O1 O 0.7104(3) 0.1638(3) 0.5165(2) 0.0593(6) Uani 1 1 d D .
H1 H 0.817(4) 0.160(5) 0.528(4) 0.093(15) Uiso 1 1 d D .
O2 O 0.0559(4) 0.1623(3) 0.5078(3) 0.0791(8) Uani 1 1 d . .
C1 C 0.4946(4) 0.1611(3) 0.3428(3) 0.0487(7) Uani 1 1 d . .
C2 C 0.3273(4) 0.1175(3) 0.3737(3) 0.0496(7) Uani 1 1 d . .
C3 C 0.1507(5) 0.0440(4) 0.2791(4) 0.0700(10) Uani 1 1 d . .
H3 H 0.0382 0.0136 0.2989 0.084 Uiso 1 1 calc R U
C4 C 0.1442(7) 0.0170(5) 0.1572(4) 0.0862(13) Uani 1 1 d . .
H4 H 0.0265 -0.0309 0.0950 0.103 Uiso 1 1 calc R U
C5 C 0.3057(8) 0.0588(5) 0.1264(4) 0.0854(12) Uani 1 1 d . .
H5 H 0.2994 0.0389 0.0433 0.102 Uiso 1 1 calc R U
C6 C 0.4805(6) 0.1311(4) 0.2185(3) 0.0686(9) Uani 1 1 d . .
H6 H 0.5912 0.1604 0.1965 0.082 Uiso 1 1 calc R U
C7 C 0.6909(4) 0.2372(3) 0.4411(3) 0.0481(7) Uani 1 1 d . .
H7 H 0.7894 0.2368 0.3979 0.058 Uiso 1 1 calc R U
C8 C 0.7245(4) 0.3873(3) 0.5221(3) 0.0518(7) Uani 1 1 d . .
C9 C 0.7518(5) 0.4405(4) 0.6435(4) 0.0699(10) Uani 1 1 d . .
H9 H 0.7481 0.3804 0.6827 0.084 Uiso 1 1 calc R U
C10 C 0.7883(7) 0.5894(6) 0.7240(5) 0.1040(18) Uani 1 1 d . .
H10A H 0.6854 0.5946 0.7613 0.125 Uiso 1 1 calc R U
H10B H 0.7922 0.6424 0.6738 0.125 Uiso 1 1 calc R U
C11 C 0.2150(4) 0.1702(3) 0.5610(3) 0.0544(8) Uani 1 1 d . .
C12 C 0.2826(5) 0.2130(3) 0.6981(4) 0.0606(8) Uani 1 1 d . .
C13 C 0.4200(7) 0.1737(5) 0.7540(4) 0.0769(11) Uani 1 1 d . .
H13 H 0.4740 0.1174 0.7050 0.092 Uiso 1 1 calc R U
C14 C 0.4765(10) 0.2176(6) 0.8815(5) 0.1068(17) Uani 1 1 d . .
H14 H 0.5684 0.1914 0.9192 0.128 Uiso 1 1 calc R U
C15 C 0.3949(13) 0.3012(7) 0.9528(6) 0.119(2) Uani 1 1 d . .
H15 H 0.4330 0.3317 1.0391 0.143 Uiso 1 1 calc R U
C16 C 0.2588(11) 0.3400(6) 0.8982(6) 0.115(2) Uani 1 1 d . .
H16 H 0.2056 0.3967 0.9476 0.137 Uiso 1 1 calc R U
C17 C 0.2016(7) 0.2959(5) 0.7728(5) 0.0851(13) Uani 1 1 d . .
H17 H 0.1075 0.3212 0.7361 0.102 Uiso 1 1 calc R U
loop_
_atom_site_aniso_label
_atom_site_aniso_U_11
_atom_site_aniso_U_22
_atom_site_aniso_U_33
_atom_site_aniso_U_23
_atom_site_aniso_U_13
_atom_site_aniso_U_12
Br1 0.0710(3) 0.0610(3) 0.1228(4) 0.0534(3) 0.0282(3) 0.0184(2)
Br2 0.0837(4) 0.1207(5) 0.0814(4) -0.0086(3) 0.0121(3) 0.0080(3)
N1 0.0334(12) 0.0525(14) 0.0684(16) 0.0304(13) 0.0171(11) 0.0156(11)
O1 0.0427(12) 0.0666(14) 0.0862(16) 0.0437(13) 0.0232(11) 0.0279(11)
O2 0.0470(13) 0.101(2) 0.118(2) 0.0618(18) 0.0377(14) 0.0396(14)
C1 0.0469(15) 0.0407(15) 0.0593(17) 0.0224(13) 0.0169(13) 0.0148(12)
C2 0.0429(15) 0.0405(15) 0.0622(17) 0.0235(13) 0.0117(13) 0.0105(12)
C3 0.0450(17) 0.062(2) 0.086(3) 0.0319(19) 0.0054(16) 0.0025(15)
C4 0.080(3) 0.076(3) 0.069(2) 0.025(2) -0.010(2) 0.005(2)
C5 0.097(3) 0.078(3) 0.059(2) 0.023(2) 0.011(2) 0.017(2)
C6 0.076(2) 0.063(2) 0.064(2) 0.0261(17) 0.0281(18) 0.0192(18)
C7 0.0374(14) 0.0501(16) 0.0655(17) 0.0291(14) 0.0227(13) 0.0178(12)
C8 0.0320(13) 0.0469(16) 0.073(2) 0.0238(15) 0.0144(13) 0.0117(12)
C9 0.0506(19) 0.065(2) 0.075(2) 0.0152(18) 0.0121(16) 0.0169(16)
C10 0.080(3) 0.088(3) 0.091(3) -0.010(3) 0.005(2) 0.029(3)
C11 0.0456(16) 0.0464(16) 0.087(2) 0.0393(16) 0.0322(16) 0.0177(13)
C12 0.0605(19) 0.0474(17) 0.088(2) 0.0349(17) 0.0420(18) 0.0193(15)
C13 0.100(3) 0.072(2) 0.078(2) 0.038(2) 0.038(2) 0.045(2)
C14 0.145(5) 0.105(4) 0.082(3) 0.045(3) 0.034(3) 0.055(4)
C15 0.187(7) 0.094(4) 0.083(3) 0.035(3) 0.066(4) 0.045(4)
C16 0.160(6) 0.094(4) 0.119(4) 0.044(3) 0.090(4) 0.059(4)
C17 0.092(3) 0.078(3) 0.110(4) 0.042(3) 0.064(3) 0.040(2)
loop_
_atom_type_symbol
_atom_type_description
_atom_type_scat_dispersion_real
_atom_type_scat_dispersion_imag
_atom_type_scat_source
C C 0.0137 0.0067 'International Tables Vol C Tables 4.2.6.8 and 6.1.1.4'
H H 0.0000 0.0000 'International Tables Vol C Tables 4.2.6.8 and 6.1.1.4'
Br Br -0.9338 1.0006 'International Tables Vol C Tables 4.2.6.8 and 6.1.1.4'
N N 0.0241 0.0134 'International Tables Vol C Tables 4.2.6.8 and 6.1.1.4'
O O 0.0389 0.0241 'International Tables Vol C Tables 4.2.6.8 and 6.1.1.4'
loop_
_geom_angle_atom_site_label_1
_geom_angle_atom_site_label_2
_geom_angle_atom_site_label_3
_geom_angle
C11 N1 C2 127.9(3)
C11 N1 H1' 116(2)
C2 N1 H1' 115(2)
C7 O1 H1 109(4)
C6 C1 C2 118.3(3)
C6 C1 C7 119.8(3)
C2 C1 C7 121.8(3)
C1 C2 C3 119.6(3)
C1 C2 N1 118.1(3)
C3 C2 N1 122.2(3)
C4 C3 C2 119.9(4)
C4 C3 H3 120.1
C2 C3 H3 120.1
C5 C4 C3 121.0(4)
C5 C4 H4 119.5
C3 C4 H4 119.5
C4 C5 C6 119.8(4)
C4 C5 H5 120.1
C6 C5 H5 120.1
C5 C6 C1 121.4(4)
C5 C6 H6 119.3
C1 C6 H6 119.3
O1 C7 C8 110.1(3)
O1 C7 C1 109.2(2)
C8 C7 C1 112.9(2)
O1 C7 H7 108.2
C8 C7 H7 108.2
C1 C7 H7 108.2
C9 C8 C7 125.6(3)
C9 C8 Br1 121.4(3)
C7 C8 Br1 113.0(2)
C8 C9 C10 125.6(5)
C8 C9 H9 117.2
C10 C9 H9 117.2
C9 C10 Br2 109.2(3)
C9 C10 H10A 109.8
Br2 C10 H10A 109.8
C9 C10 H10B 109.8
Br2 C10 H10B 109.8
H10A C10 H10B 108.3
O2 C11 N1 122.5(3)
O2 C11 C12 122.4(3)
N1 C11 C12 115.1(3)
C13 C12 C17 119.1(4)
C13 C12 C11 123.3(3)
C17 C12 C11 117.6(4)
C14 C13 C12 120.2(4)
C14 C13 H13 119.9
C12 C13 H13 119.9
C13 C14 C15 119.1(6)
C13 C14 H14 120.5
C15 C14 H14 120.5
C16 C15 C14 121.0(5)
C16 C15 H15 119.5
C14 C15 H15 119.5
C17 C16 C15 120.1(5)
C17 C16 H16 120.0
C15 C16 H16 120.0
C16 C17 C12 120.5(5)
C16 C17 H17 119.8
C12 C17 H17 119.8
loop_
_geom_bond_atom_site_label_1
_geom_bond_atom_site_label_2
_geom_bond_distance
Br1 C8 1.884(3)
Br2 C10 1.943(5)
N1 C11 1.336(4)
N1 C2 1.417(4)
N1 H1' 0.820(18)
O1 C7 1.418(4)
O1 H1 0.810(19)
O2 C11 1.227(4)
C1 C6 1.385(5)
C1 C2 1.389(4)
C1 C7 1.522(4)
C2 C3 1.402(5)
C3 C4 1.371(6)
C3 H3 0.9300
C4 C5 1.347(7)
C4 H4 0.9300
C5 C6 1.379(6)
C5 H5 0.9300
C6 H6 0.9300
C7 C8 1.514(4)
C7 H7 0.9800
C8 C9 1.316(5)
C9 C10 1.495(6)
C9 H9 0.9300
C10 H10A 0.9700
C10 H10B 0.9700
C11 C12 1.487(5)
C12 C13 1.388(6)
C12 C17 1.393(5)
C13 C14 1.374(6)
C13 H13 0.9300
C14 C15 1.381(9)
C14 H14 0.9300
C15 C16 1.369(10)
C15 H15 0.9300
C16 C17 1.351(8)
C16 H16 0.9300
C17 H17 0.9300
loop_
_geom_hbond_atom_site_label_D
_geom_hbond_atom_site_label_H
_geom_hbond_atom_site_label_A
_geom_hbond_distance_DH
_geom_hbond_distance_HA
_geom_hbond_distance_DA
_geom_hbond_angle_DHA
_geom_hbond_site_symmetry_A
O1 H1 O2 0.810(19) 1.87(2) 2.647(3) 161(5) 1_655
N1 H1' O1 0.820(18) 2.06(2) 2.710(3) 136(3) .
loop_
_geom_torsion_atom_site_label_1
_geom_torsion_atom_site_label_2
_geom_torsion_atom_site_label_3
_geom_torsion_atom_site_label_4
_geom_torsion
C6 C1 C2 C3 0.6(5)
C7 C1 C2 C3 -178.0(3)
C6 C1 C2 N1 178.8(3)
C7 C1 C2 N1 0.2(4)
C11 N1 C2 C1 149.0(3)
C11 N1 C2 C3 -32.9(5)
C1 C2 C3 C4 -0.7(5)
N1 C2 C3 C4 -178.8(4)
C2 C3 C4 C5 0.7(7)
C3 C4 C5 C6 -0.7(8)
C4 C5 C6 C1 0.6(7)
C2 C1 C6 C5 -0.6(6)
C7 C1 C6 C5 178.1(4)
C6 C1 C7 O1 -130.3(3)
C2 C1 C7 O1 48.3(4)
C6 C1 C7 C8 106.9(3)
C2 C1 C7 C8 -74.5(4)
O1 C7 C8 C9 -5.3(4)
C1 C7 C8 C9 117.0(3)
O1 C7 C8 Br1 172.31(18)
C1 C7 C8 Br1 -65.4(3)
C7 C8 C9 C10 178.9(3)
Br1 C8 C9 C10 1.5(5)
C8 C9 C10 Br2 -121.9(4)
C2 N1 C11 O2 4.4(5)
C2 N1 C11 C12 -173.3(3)
O2 C11 C12 C13 154.3(4)
N1 C11 C12 C13 -28.0(5)
O2 C11 C12 C17 -25.3(5)
N1 C11 C12 C17 152.4(3)
C17 C12 C13 C14 -0.7(7)
C11 C12 C13 C14 179.6(4)
C12 C13 C14 C15 -0.1(8)
C13 C14 C15 C16 0.3(10)
C14 C15 C16 C17 0.3(10)
C15 C16 C17 C12 -1.1(9)
C13 C12 C17 C16 1.3(7)
C11 C12 C17 C16 -179.0(4)
