#------------------------------------------------------------------------------
#$Date: 2019-11-24 13:33:00 +0200 (Sun, 24 Nov 2019) $
#$Revision: 238019 $
#$URL: file:///home/coder/svn-repositories/cod/cif/1/55/46/1554646.cif $
#------------------------------------------------------------------------------
#
# This file is available in the Crystallography Open Database (COD),
# http://www.crystallography.net/
#
# All data on this site have been placed in the public domain by the
# contributors.
#
data_1554646
loop_
_publ_author_name
'Yang, Jie'
'Gao, Heqi'
'Wang, Yunsheng'
'Yu, Yun'
'Gong, Yanbin'
'Fang, Manman'
'Ding, Dan'
'Hu, Wenping'
'Tang, Ben Zhong'
'Li, Zhen'
_publ_section_title
;
 The odd--even effect of alkyl chain in organic room temperature
 phosphorescence luminogens and the corresponding in vivo imaging
;
_journal_issue                   7
_journal_name_full               'Materials Chemistry Frontiers'
_journal_page_first              1391
_journal_paper_doi               10.1039/C9QM00108E
_journal_volume                  3
_journal_year                    2019
_chemical_formula_moiety         'C15 H15 N O2 S'
_chemical_formula_sum            'C15 H15 N O2 S'
_chemical_formula_weight         273.34
_space_group_crystal_system      triclinic
_space_group_IT_number           2
_space_group_name_Hall           '-P 1'
_space_group_name_H-M_alt        'P -1'
_atom_sites_solution_hydrogens   geom
_atom_sites_solution_primary     iterative
_audit_creation_date             2016-10-10
_audit_creation_method
;
Olex2 1.2-alpha
(compiled 2016.09.09 svn.r3337 for OlexSys, GUI svn.r5227)
;
_audit_update_record
;
2018-11-15 deposited with the CCDC.	2019-04-02 downloaded from the CCDC.
;
_cell_angle_alpha                109.128(8)
_cell_angle_beta                 97.408(8)
_cell_angle_gamma                103.752(8)
_cell_formula_units_Z            2
_cell_length_a                   7.7584(7)
_cell_length_b                   9.0839(8)
_cell_length_c                   10.0043(9)
_cell_measurement_reflns_used    1270
_cell_measurement_temperature    100.01(10)
_cell_measurement_theta_max      73.9330
_cell_measurement_theta_min      4.7960
_cell_volume                     630.40(11)
_computing_cell_refinement
;
CrysAlisPro, Agilent Technologies,
Version 1.171.37.35 (release 13-08-2014 CrysAlis171 .NET)
(compiled Aug 13 2014,18:06:01)
;
_computing_data_collection
;
CrysAlisPro, Agilent Technologies,
Version 1.171.37.35 (release 13-08-2014 CrysAlis171 .NET)
(compiled Aug 13 2014,18:06:01)
;
_computing_data_reduction
;
CrysAlisPro, Agilent Technologies,
Version 1.171.37.35 (release 13-08-2014 CrysAlis171 .NET)
(compiled Aug 13 2014,18:06:01)
;
_computing_molecular_graphics    'Olex2 (Dolomanov et al., 2009)'
_computing_publication_material  'Olex2 (Dolomanov et al., 2009)'
_computing_structure_refinement  'ShelXL (Sheldrick, 2015)'
_computing_structure_solution
;
Superflip (Palatinus & Chapuis, 2007;Palatinus & van der Lee, 2008;
Palatinus et al., 2012)
;
_diffrn_ambient_environment      N~2~
_diffrn_ambient_temperature      100.01(10)
_diffrn_detector                 'CCD plate'
_diffrn_detector_area_resol_mean 10.3376
_diffrn_detector_type            AtlasS2
_diffrn_measured_fraction_theta_full 0.984
_diffrn_measured_fraction_theta_max 1.000
_diffrn_measurement_details
;
#__ type_ start__ end____ width___ exp.time_
  1 omega -122.00   -1.00   1.0000    1.0000
omega____ theta____ kappa____ phi______ frames
    -      -41.5605  -19.0000 -180.0000 121

#__ type_ start__ end____ width___ exp.time_
  2 omega  -49.00   33.00   1.0000    1.0000
omega____ theta____ kappa____ phi______ frames
    -      -41.5605   37.0000    0.0000 82

#__ type_ start__ end____ width___ exp.time_
  3 omega  -49.00   33.00   1.0000    1.0000
omega____ theta____ kappa____ phi______ frames
    -      -41.5605   37.0000 -180.0000 82

#__ type_ start__ end____ width___ exp.time_
  4 omega   23.00   98.00   1.0000    1.0000
omega____ theta____ kappa____ phi______ frames
    -       41.5605 -125.0000   90.0000 75

#__ type_ start__ end____ width___ exp.time_
  5 omega   23.00   98.00   1.0000    1.0000
omega____ theta____ kappa____ phi______ frames
    -       41.5605 -125.0000   30.0000 75

#__ type_ start__ end____ width___ exp.time_
  6 omega   23.00   98.00   1.0000    1.0000
omega____ theta____ kappa____ phi______ frames
    -       41.5605 -125.0000 -180.0000 75

#__ type_ start__ end____ width___ exp.time_
  7 omega   94.00  178.00   1.0000    2.0000
omega____ theta____ kappa____ phi______ frames
    -      105.8759  125.0000  120.0000 84

#__ type_ start__ end____ width___ exp.time_
  8 omega   35.00  121.00   1.0000    2.0000
omega____ theta____ kappa____ phi______ frames
    -      105.8759 -125.0000 -150.0000 86

#__ type_ start__ end____ width___ exp.time_
  9 omega   39.00   91.00   1.0000    2.0000
omega____ theta____ kappa____ phi______ frames
    -      105.8759  -45.0000 -120.0000 52

#__ type_ start__ end____ width___ exp.time_
 10 omega   43.00   90.00   1.0000    2.0000
omega____ theta____ kappa____ phi______ frames
    -      105.8759  -30.0000    0.0000 47

#__ type_ start__ end____ width___ exp.time_
 11 omega   25.00   91.00   1.0000    2.0000
omega____ theta____ kappa____ phi______ frames
    -      105.8759  -94.0000   60.0000 66

#__ type_ start__ end____ width___ exp.time_
 12 omega   64.00   90.00   1.0000    2.0000
omega____ theta____ kappa____ phi______ frames
    -      105.8759  -30.0000 -120.0000 26

#__ type_ start__ end____ width___ exp.time_
 13 omega   45.00  109.00   1.0000    2.0000
omega____ theta____ kappa____ phi______ frames
    -      105.8759  -94.0000 -120.0000 64

#__ type_ start__ end____ width___ exp.time_
 14 omega   83.00  178.00   1.0000    2.0000
omega____ theta____ kappa____ phi______ frames
    -      105.8759   30.0000  -60.0000 95

#__ type_ start__ end____ width___ exp.time_
 15 omega   31.00   90.00   1.0000    2.0000
omega____ theta____ kappa____ phi______ frames
    -      105.8759  -30.0000  120.0000 59

#__ type_ start__ end____ width___ exp.time_
 16 omega   30.00   68.00   1.0000    2.0000
omega____ theta____ kappa____ phi______ frames
    -      105.8759  -30.0000 -180.0000 38

#__ type_ start__ end____ width___ exp.time_
 17 omega  121.00  158.00   1.0000    2.0000
omega____ theta____ kappa____ phi______ frames
    -      105.8759   61.0000 -180.0000 37

#__ type_ start__ end____ width___ exp.time_
 18 omega  141.00  173.00   1.0000    2.0000
omega____ theta____ kappa____ phi______ frames
    -      105.8759  125.0000  -60.0000 32

#__ type_ start__ end____ width___ exp.time_
 19 omega  111.00  173.00   1.0000    2.0000
omega____ theta____ kappa____ phi______ frames
    -      105.8759  125.0000 -120.0000 62
;
_diffrn_measurement_device       'four-circle diffractometer'
_diffrn_measurement_device_type  'SuperNova, Dual, Cu at zero, AtlasS2'
_diffrn_measurement_method       '\w scans'
_diffrn_orient_matrix_UB_11      0.1855105000
_diffrn_orient_matrix_UB_12      -0.0261492000
_diffrn_orient_matrix_UB_13      -0.0199576000
_diffrn_orient_matrix_UB_21      0.0658183000
_diffrn_orient_matrix_UB_22      0.0571532000
_diffrn_orient_matrix_UB_23      0.1658194000
_diffrn_orient_matrix_UB_31      -0.0726686000
_diffrn_orient_matrix_UB_32      -0.1772873000
_diffrn_orient_matrix_UB_33      -0.0096309000
_diffrn_radiation_monochromator  mirror
_diffrn_radiation_probe          x-ray
_diffrn_radiation_type           CuK\a
_diffrn_radiation_wavelength     1.54184
_diffrn_reflns_av_R_equivalents  0.0484
_diffrn_reflns_av_unetI/netI     0.0664
_diffrn_reflns_Laue_measured_fraction_full 0.984
_diffrn_reflns_Laue_measured_fraction_max 1.000
_diffrn_reflns_limit_h_max       9
_diffrn_reflns_limit_h_min       -9
_diffrn_reflns_limit_k_max       5
_diffrn_reflns_limit_k_min       -10
_diffrn_reflns_limit_l_max       11
_diffrn_reflns_limit_l_min       -10
_diffrn_reflns_number            4603
_diffrn_reflns_point_group_measured_fraction_full 0.984
_diffrn_reflns_point_group_measured_fraction_max 1.000
_diffrn_reflns_theta_full        67.684
_diffrn_reflns_theta_max         67.055
_diffrn_reflns_theta_min         4.802
_diffrn_source                   'sealed X-ray tube'
_diffrn_source_type              'SuperNova (Cu) X-ray Source'
_exptl_absorpt_coefficient_mu    2.256
_exptl_absorpt_correction_T_max  1.00000
_exptl_absorpt_correction_T_min  0.93010
_exptl_absorpt_correction_type   multi-scan
_exptl_absorpt_process_details
;
CrysAlisPro, Agilent Technologies,
Version 1.171.37.35 (release 13-08-2014 CrysAlis171 .NET)
(compiled Aug 13 2014,18:06:01)
Empirical absorption correction using spherical harmonics,
 implemented in SCALE3 ABSPACK scaling algorithm.
Empirical absorption correction using spherical harmonics,
 implemented in SCALE3 ABSPACK scaling algorithm.
;
_exptl_crystal_colour            'translucent light colourless'
_exptl_crystal_density_diffrn    1.440
_exptl_crystal_description       block
_exptl_crystal_F_000             288
_exptl_crystal_size_max          0.1
_exptl_crystal_size_mid          0.07
_exptl_crystal_size_min          0.07
_refine_diff_density_max         0.490
_refine_diff_density_min         -0.344
_refine_diff_density_rms         0.062
_refine_ls_extinction_method     none
_refine_ls_goodness_of_fit_ref   1.040
_refine_ls_hydrogen_treatment    constr
_refine_ls_matrix_type           full
_refine_ls_number_parameters     173
_refine_ls_number_reflns         2249
_refine_ls_number_restraints     0
_refine_ls_restrained_S_all      1.040
_refine_ls_R_factor_all          0.0641
_refine_ls_R_factor_gt           0.0432
_refine_ls_shift/su_max          0.000
_refine_ls_shift/su_mean         0.000
_refine_ls_structure_factor_coef Fsqd
_refine_ls_weighting_details
'w=1/[\s^2^(Fo^2^)+(0.0340P)^2^] where P=(Fo^2^+2Fc^2^)/3'
_refine_ls_weighting_scheme      calc
_refine_ls_wR_factor_gt          0.0881
_refine_ls_wR_factor_ref         0.0965
_reflns_Friedel_coverage         0.000
_reflns_number_gt                1732
_reflns_number_total             2249
_reflns_threshold_expression     'I > 2\s(I)'
_cod_data_source_file            c9qm00108e2.cif
_cod_data_source_block           whu-3
_cod_original_cell_volume        630.39(10)
_cod_database_code               1554646
_shelxl_version_number           2014-1
_chemical_oxdiff_formula         'C H O N S'
_shelx_space_group_comment
;
The symmetry employed for this shelxl refinement is uniquely defined
by the following loop, which should always be used as a source of
symmetry information in preference to the above space-group names.
They are only intended as comments.
;
_reflns_odcompleteness_completeness 99.96
_reflns_odcompleteness_iscentric 1
_reflns_odcompleteness_theta     66.97
_olex2_refinement_description
;
1. Fixed Uiso
 At 1.2 times of:
  All C(H) groups, All C(H,H) groups
 At 1.5 times of:
  All C(H,H,H) groups
2.a Secondary CH2 refined with riding coordinates:
 C10(H10A,H10B), C21(H21A,H21B)
2.b Aromatic/amide H refined with riding coordinates:
 C11(H11), C13(H13), C15(H15), C17(H17), C19(H19), C23(H23), C25(H25), C28(H28)
2.c Idealised Me refined as rotating group:
 C30(H30A,H30B,H30C)
;
_shelx_res_file
;
TITL whu-3 in P-1
CELL 1.54184 7.758394 9.083871 10.004288 109.1282 97.4082 103.7519
ZERR 2 0.000714 0.000774 0.000912 0.008 0.0081 0.0078
LATT 1
SFAC C H N O S
UNIT 30 30 2 4 2

L.S. 10 0 0
PLAN  1
MORE -1
BOND $H
CONF
fmap 2 53
ACTA
REM <olex2.extras>
REM <HklSrc "%.\\whu-3.hkl">
REM </olex2.extras>

WGHT    0.034000
FVAR       8.39947
S1    5    0.790604    0.642340    0.306002    11.00000    0.01231    0.01963 =
         0.01887    0.00508    0.00410    0.00658
O1    4    0.662124    0.591530    0.169155    11.00000    0.01344    0.02690 =
         0.02278    0.01029   -0.00018    0.00729
O4    4    0.759953    0.761155    0.430345    11.00000    0.02309    0.02189 =
         0.02689    0.00425    0.01328    0.01054
N2    3    1.016872    0.425450    0.182060    11.00000    0.01337    0.01694 =
         0.01574    0.00449    0.00444    0.00579
C1    1    1.008214    0.709068    0.279472    11.00000    0.01308    0.01947 =
         0.01279    0.00488    0.00208    0.00500
C4    1    0.803184    0.469656    0.340525    11.00000    0.01208    0.02004 =
         0.01421    0.00516    0.00070    0.00411
C6    1    1.088570    0.591310    0.207045    11.00000    0.01380    0.01688 =
         0.01297    0.00508    0.00107    0.00541
C8    1    0.899748    0.371098    0.262529    11.00000    0.01170    0.01827 =
         0.01377    0.00596   -0.00037    0.00201
C10   1    1.271950    0.297735    0.176538    11.00000    0.01692    0.01728 =
         0.01879    0.00625    0.00337    0.00699
AFIX  23
H10A  2    1.359205    0.405570    0.224447    11.00000   -1.20000
H10B  2    1.241554    0.255344    0.250553    11.00000   -1.20000
AFIX   0
C11   1    1.251303    0.929977    0.283450    11.00000    0.01938    0.01579 =
         0.02299    0.00870    0.00295    0.00372
AFIX  43
H11   2    1.309367    1.041183    0.312720    11.00000   -1.20000
AFIX   0
C13   1    0.766738    0.169210    0.360172    11.00000    0.01698    0.01997 =
         0.02332    0.01095    0.00077    0.00222
AFIX  43
H13   2    0.750570    0.065755    0.363408    11.00000   -1.20000
AFIX   0
C15   1    1.089123    0.875744    0.319365    11.00000    0.01791    0.02009 =
         0.01694    0.00697    0.00224    0.00834
AFIX  43
H15   2    1.033968    0.950090    0.369999    11.00000   -1.20000
AFIX   0
C17   1    1.249828    0.650171    0.165117    11.00000    0.01500    0.02149 =
         0.01883    0.00782    0.00580    0.00670
AFIX  43
H17   2    1.304435    0.577003    0.111890    11.00000   -1.20000
AFIX   0
C19   1    1.327087    0.816028    0.202736    11.00000    0.01530    0.02386 =
         0.02149    0.01069    0.00401    0.00467
AFIX  43
H19   2    1.432678    0.852380    0.173232    11.00000   -1.20000
AFIX   0
C21   1    1.100196    0.309904    0.092730    11.00000    0.01682    0.01378 =
         0.01423    0.00186    0.00422    0.00592
AFIX  23
H21A  2    1.130265    0.343290    0.013791    11.00000   -1.20000
H21B  2    1.011300    0.202502    0.050271    11.00000   -1.20000
AFIX   0
C23   1    0.698963    0.422627    0.432187    11.00000    0.01289    0.02570 =
         0.01528    0.00456    0.00190    0.00432
AFIX  43
H23   2    0.642558    0.493268    0.486508    11.00000   -1.20000
AFIX   0
C25   1    0.679737    0.272705    0.442169    11.00000    0.01551    0.03027 =
         0.01885    0.01115    0.00084    0.00176
AFIX  43
H25   2    0.610063    0.240594    0.502420    11.00000   -1.20000
AFIX   0
C28   1    0.876152    0.217333    0.274490    11.00000    0.01357    0.02168 =
         0.01946    0.00379    0.00076    0.00526
AFIX  43
H28   2    0.935497    0.147124    0.223641    11.00000   -1.20000
AFIX   0
C30   1    1.356473    0.185885    0.074278    11.00000    0.02189    0.02715 =
         0.02513    0.00909    0.00614    0.01345
AFIX 137
H30A  2    1.384009    0.226636   -0.000174    11.00000   -1.50000
H30B  2    1.272237    0.077845    0.030582    11.00000   -1.50000
H30C  2    1.466474    0.182639    0.127939    11.00000   -1.50000
AFIX   0
HKLF 4

REM  whu-3 in P-1
REM R1 =  0.0432 for    1732 Fo > 4sig(Fo)  and  0.0641 for all    2249 data
REM    173 parameters refined using      0 restraints

END

WGHT      0.0367      0.0000

REM Highest difference peak  0.490,  deepest hole -0.344,  1-sigma level  0.062
Q1    1   0.7875  0.5431  0.3224  11.00000  0.05    0.49
;
_shelx_res_checksum              50619
_shelx_hkl_file
;
   0   0  -1 19767.1 652.805   2
   0   0   1 19228.3 628.087   3
   0   0  -2 406286. 4151.86   2
   0   0   2 403474. 4126.79   3
   0   0   3 352.851 431.483   3
   0   0  -3-59.0926 445.452   2
   0   0  -4 362.004 484.688   2
   0   0   4 337.049 497.425   3
   0   0   5 5465.07 972.153   3
   0   0  -5 4493.59 922.422   2
   0   0   5 3302.12 900.918   1
   0   0   6 9014.59 1506.89   1
   0   0   7 22390.4 1688.53  10
   0   0   7 20040.3 2448.00   1
   0   0   7 21220.6 1696.09  14
   0   0  -7 21721.2 1502.90  16
   0   0   8 81598.1 3418.83  14
   0   0   8 78537.8 3123.79  10
   0   0   9 424.323 574.910  10
   0   0   9 1197.58 800.211  14
   0   0  10 3570.56 824.401  14
   0   0  11 7686.13 781.837  14
   0  -1  11 11444.1 1008.09  14
   0  -1  10 9727.14 1205.23  10
   0  -1  10 10633.3 1216.34  14
   0  -1   9 13608.0 1455.35  10
   0  -1   9 13014.6 1435.26  14
   0  -1   8 2515.25 791.115  14
   0  -1   8 1611.89 718.547  10
   0  -1   8 3917.39 1430.35   1
   0  -1   7 44944.3 2304.13  14
   0  -1   7 45992.2 2306.91  10
   0   1  -7 47114.5 2015.95  16
   0  -1   7 41189.3 3117.20   1
   0  -1   6 83.1510 567.063   1
   0  -1   5 1529.42 835.648   3
   0  -1   5 1214.19 635.223   4
   0  -1   5 1164.66 691.395   1
   0   1  -4 1147.48 495.276   2
   0  -1   4 738.613 598.824   3
   0  -1   4 1742.23 584.574   1
   0  -1   3 227587. 3989.43   3
   0   1  -3 230863. 3211.71   2
   0   1  -2 134753. 1733.16   2
   0  -1   2 131302. 2460.10   3
   0  -1   2 132201. 2182.46   5
   0  -1   1 30849.0 885.389   3
   0  -1   1 31363.8 539.505   1
   0  -1   0 242179. 2125.78   2
   0  -1  -1 12843.1 764.326   5
   0  -1  -1 12276.1 728.751   4
   0  -1  -1 13067.8 794.875   2
   0   1   1 12314.5 455.792   3
   0   1   2 3058.50 435.412   3
   0  -1  -2 2564.11 605.445   2
   0   1   3 256.755 414.190   3
   0  -1  -3 63.7374 532.834   2
   0  -1  -3 249.179 419.408   5
   0   1   4 520.654 675.866   1
   0  -1  -4 618.424 523.131   2
   0   1   5 15008.0 1756.31   1
   0  -1  -5 16136.1 1650.99   2
   0  -1  -6 36575.8 1878.57  16
   0   1   6 34751.9 2948.66   1
   0   1   7 5756.47 1040.71  14
   0   1   7 2701.55 1342.89   1
   0  -1  -7 4836.40 903.560  16
   0   1   8 35246.6 2345.04  14
   0   1   9 8848.37 1238.91  14
   0  -1 -10 2412.41 483.442   9
   0   1  10 3131.01 728.609  14
   0  -2  11 93.5385 551.450  10
   0  -2  11-901.279 451.463  14
   0  -2  10 168.583 550.483  14
   0  -2  10 908.890 666.376  10
   0  -2   9 1099.65 698.871  14
   0  -2   9 1333.70 763.160  10
   0  -2   8 11448.0 1372.51  10
   0  -2   8 9923.24 1256.02  14
   0  -2   8 8934.09 1860.31   1
   0  -2   7-2332.93 934.788   1
   0  -2   7-2098.86 735.988  10
   0  -2   6 14670.8 1685.79   3
   0  -2   6 11947.4 1418.51   1
   0  -2   5 4504.49 948.111   4
   0  -2   5 4339.46 897.582   1
   0  -2   5 3938.74 922.905   3
   0  -2   4 10024.9 1122.67   3
   0  -2   4 9643.97 930.126   1
   0  -2   4 10548.3 1114.71   4
   0  -2   3 711.455 634.014   4
   0  -2   3 951.731 344.191   1
   0  -2   3 822.497 490.989   5
   0  -2   3 508.587 486.361   3
   0  -2   2 77.8845 166.165   1
   0  -2   2 270.004 544.961   6
   0  -2   2 198.454 363.534   3
   0  -2   2 194.435 475.329   5
   0  -2   2 10.2754 600.777   4
   0  -2   1 17604.6 755.098   3
   0  -2   1 17448.5 570.822   2
   0  -2   0 132186. 2326.66   2
   0  -2   0 142503. 2897.24   4
   0  -2  -1 7042.81 872.992   5
   0  -2  -1 9050.98 893.430   4
   0  -2  -1 7799.88 811.003   2
   0  -2  -2 4619.82 777.388   5
   0  -2  -2 4005.97 789.937   2
   0  -2  -3 1743.29 751.590   2
   0  -2  -3 2700.36 720.663   5
   0   2   4 29091.3 2242.72   1
   0  -2  -4 26952.7 2075.22   2
   0   2   5 24005.3 2354.74   1
   0  -2  -5 23607.5 2190.09   2
   0  -2  -6 19371.9 1487.48  16
   0   2   6 14415.8 2225.32   1
   0   2   7 18067.9 1711.28  14
   0   2   8 63.1346 662.913  14
   0   2   9 2394.58 841.209  14
   0  -3  11 2967.05 703.170  19
   0  -3  11 2706.01 780.241  10
   0  -3  10 13697.4 1454.81  10
   0  -3   9 128.481 683.424  10
   0  -3   8 7484.69 1167.64  10
   0  -3   7 11452.4 1761.08   6
   0  -3   7 14914.4 1391.83  10
   0  -3   6 7480.15 1330.20   4
   0  -3   6 3964.92 838.459   1
   0  -3   6 5859.61 1264.30   6
   0  -3   5 1035.56 725.361   6
   0  -3   5 1297.27 899.171   4
   0  -3   5 1304.29 731.491   3
   0  -3   5 1474.69 589.387   1
   0  -3   4 3693.33 937.660   6
   0  -3   4 2777.54 796.321   3
   0  -3   4 3118.96 953.433   4
   0  -3   4 3643.08 822.896   5
   0  -3   4 3599.39 504.616   1
   0  -3   3 9045.02 1172.67   4
   0  -3   3 8854.05 1096.24   6
   0  -3   3 9166.37 985.654   3
   0  -3   3 9591.63 1101.56   5
   0  -3   2 102493. 2430.53   3
   0  -3   2 101699. 3228.39   4
   0  -3   2 107101. 3228.24   5
   0  -3   2 101965. 3140.75   6
   0  -3   1 24743.7 959.054   2
   0  -3   1 21580.9 1467.06   6
   0  -3   1 24822.4 1634.16   4
   0  -3   1 26232.4 1657.82   5
   0  -3   0 13891.4 982.849   2
   0   3   0 14435.5 856.960   1
   0  -3   0 13325.5 1242.47   4
   0  -3   0 13683.7 1290.97   6
   0  -3   0 11148.4 1218.85   5
   0  -3  -1 44578.5 2016.05   2
   0  -3  -1 48640.4 2181.09   4
   0  -3  -1 45924.1 2316.79   5
   0   3   1 49478.5 1977.56   1
   0   3   2 58.9975 564.638   1
   0  -3  -2 205.704 526.256   2
   0  -3  -3 7265.11 1270.97   5
   0   3   3 9157.31 1321.57   1
   0  -3  -3 7664.25 1199.26   2
   0   3   4 27480.2 2447.78   1
   0  -3  -4 25142.4 2229.47   2
   0  -3  -5 31351.1 1801.22  16
   0   3   5 29059.1 2803.91   1
   0   3   6 1476.22 806.293  14
   0   3   6-1790.09 776.039   1
   0   3   7 42005.5 2514.07  14
   0   3   8 1438.08 698.749  14
   0   3   9 8781.24 952.426  14
   0  -3  -9 8309.24 790.546   9
   0  -4  11 4097.36 772.435  19
   0  -4  11 4208.58 880.301  10
   0  -4  10 778.491 740.149  10
   0  -4  10 1275.50 727.347  19
   0  -4   9 1037.65 637.684  19
   0  -4   9 521.759 650.804  10
   0  -4   8 288.039 645.449  10
   0  -4   7 389.813 537.656  10
   0  -4   7-63.9595 747.911   6
   0  -4   6 944.749 871.342   6
   0  -4   6 2262.14 944.052   4
   0  -4   5 2862.10 1046.49   4
   0  -4   5 1648.52 900.145   6
   0  -4   4 64559.2 3228.88   4
   0  -4   4 66849.5 3200.18   6
   0  -4   4 68149.3 3102.98   5
   0  -4   3 112.489 899.364   4
   0  -4   3 193.902 690.425   5
   0  -4   3 200.716 621.914   6
   0  -4   2 309248. 6253.04   6
   0  -4   2 296476. 6392.06   5
   0  -4   2 302620. 6463.51   4
   0  -4   1 72180.8 3236.66   5
   0  -4   1 69668.2 3096.19   6
   0  -4   1 70109.8 1974.52   2
   0  -4   1 68194.1 3055.25   4
   0  -4   0 37750.9 1826.17   2
   0  -4   0 38381.0 2322.36   4
   0  -4   0 43242.3 2523.05   6
   0   4   0 40897.1 1599.46   1
   0  -4   0 35494.6 2333.57   5
   0  -4  -1 2333.84 962.903   5
   0  -4  -1 749.858 606.885   2
   0   4   1 732.917 550.084   1
   0  -4  -1 912.003 842.869   4
   0  -4  -2 3787.30 1085.77   5
   0  -4  -2 3275.20 889.890   2
   0   4   2 3557.27 898.849   1
   0   4   3 9390.83 1484.67   1
   0  -4  -3 9522.93 1498.18   2
   0  -4  -4 27446.3 1679.65  13
   0  -4  -4 27677.5 1687.71  16
   0   4   5 3034.79 1404.70   1
   0   4   5 6224.37 1125.21  14
   0   4   6 36284.7 2232.79  14
   0   4   7-274.867 610.012  14
   0   4   8 17542.2 1281.57  14
   0  -4  -8 14098.3 1053.93   9
   0  -5  11 212.984 530.153  10
   0  -5  11 693.310 475.084  19
   0  -5  10 5626.22 1035.56  10
   0  -5  10 5803.69 1008.36  19
   0  -5   9 20622.7 1784.69  10
   0  -5   9 19611.5 1777.16  19
   0  -5   8 435.212 716.263  11
   0  -5   8 1013.40 690.522  10
   0  -5   8 1005.75 737.154  19
   0  -5   7 28666.1 2093.39  19
   0  -5   7 25498.9 2630.40   6
   0  -5   7 30701.0 2009.57  11
   0  -5   7 31855.5 1990.76  10
   0  -5   6 6906.07 1378.58   6
   0  -5   6 4880.83 917.351  19
   0  -5   6 7678.01 1734.06   4
   0  -5   6 7886.12 1088.00  11
   0  -5   5 921.257 938.123   6
   0  -5   5 176.609 961.142   4
   0  -5   5 1227.88 952.187   5
   0  -5   4 6159.66 1320.54   5
   0  -5   4 6131.21 1498.64   4
   0  -5   4 5122.93 1232.11   6
   0  -5   3 45162.8 3038.06   4
   0  -5   3 43729.2 2908.92   5
   0  -5   3 44089.1 2862.36   6
   0  -5   2 17447.1 1972.34   4
   0  -5   2 17312.6 1927.64   5
   0  -5   2 18031.1 1890.61   6
   0  -5   1 38301.6 2721.51   6
   0  -5   1 38769.6 2813.16   5
   0  -5   1 39110.5 2765.00   4
   0  -5   0 20928.9 2159.85   5
   0  -5   0 22917.1 2171.95   4
   0  -5   0 19544.9 1553.82   2
   0  -5  -1 11128.4 1361.22   2
   0  -5  -1 10515.8 1668.58   5
   0  -5  -2-29.6356 603.013  13
   0  -5  -2 1054.56 744.128   8
   0  -5  -2 1544.55 910.291   5
   0  -5  -3-316.531 551.544  13
   0  -5  -4 941.546 632.168  13
   0   5   5 26890.1 1856.14  14
   0   5   6 3448.83 861.056  14
   0  -5  -6 2370.73 668.717   9
   0   5   7 19117.9 1231.24  14
   0  -5  -7 19879.4 1254.97   9
   0  -6  11 1927.47 524.204  19
   0  -6  11 3081.55 665.503  10
   0  -6  10-1070.98 548.262  19
   0  -6  10-319.529 624.615  10
   0  -6   9 13403.4 1417.75  10
   0  -6   9 13706.4 1376.16  11
   0  -6   9 12330.7 1412.52  19
   0  -6   8 2577.02 851.094  19
   0  -6   8 3535.94 930.341  11
   0  -6   8 2896.20 833.955  10
   0  -6   7 58380.6 2629.97  10
   0  -6   7 61614.4 2980.15  19
   0  -6   7 58446.8 2875.04  11
   0  -6   7 54628.1 4005.34   4
   0  -6   6 5677.97 937.277   7
   0  -6   6 5005.71 953.075  19
   0  -6   6 5948.59 1612.32   4
   0  -6   6 7367.37 1756.76   6
   0  -6   6 5238.74 1000.31  11
   0  -6   5 2734.20 1309.98   5
   0  -6   5 2999.67 1501.99   4
   0  -6   5 4296.76 879.249  19
   0  -6   5 2633.67 1131.72   6
   0  -6   5 3705.19 995.948   7
   0  -6   5 3164.19 794.494  11
   0  -6   4 1578.23 1173.92   5
   0  -6   4 3408.49 809.279  19
   0  -6   4 3038.64 864.669  11
   0  -6   4 1472.76 1355.58   4
   0  -6   4 2203.38 972.038   7
   0  -6   4 2680.49 1090.90   6
   0  -6   3 10798.8 1894.20   4
   0  -6   3 10020.0 1758.35   5
   0  -6   3 12417.3 1804.85   6
   0  -6   2 1993.81 1015.02   6
   0  -6   2 3731.79 1264.67   4
   0  -6   2 1679.99 931.775   5
   0  -6   1 6366.30 1423.13   4
   0  -6   1 3660.84 754.921  18
   0  -6   1 4447.57 952.013   7
   0  -6   1 4489.80 964.879   8
   0  -6   1 2132.58 1076.68   5
   0  -6   1 2298.23 1036.78   6
   0  -6   1 4762.26 797.038  13
   0  -6   0 62.7580 787.585   4
   0  -6   0 851.815 523.313  13
   0  -6   0 516.163 727.317   8
   0  -6   0-2112.22 1051.13   5
   0  -6   0 180.608 785.951   7
   0  -6  -1 22694.1 1662.56  13
   0  -6  -1 20456.1 1725.60   7
   0  -6  -1 24796.2 1873.84   8
   0  -6  -1 20097.9 2523.95   5
   0  -6  -2 1434.82 890.906   8
   0  -6  -2 327.130 622.990  13
   0  -6  -2 1506.34 609.966   9
   0  -6  -3 21859.9 1553.83   9
   0  -6  -3 21716.4 1654.03  13
   0  -6  -4 7708.10 1011.06   9
   0  -6  -4 8642.19 1103.21  13
   0  -6  -5 26183.4 1566.80   9
   0  -6  -6 960.451 413.611   9
   0  -7  11 357.348 365.299  19
   0  -7  10 1950.15 605.129  19
   0  -7  10 1777.96 670.074  11
   0  -7  10 2483.07 670.064  10
   0  -7   9 198.037 588.797  10
   0  -7   9 325.436 491.632  19
   0  -7   9 401.114 705.593  11
   0  -7   8 4378.13 1031.46  11
   0  -7   8 4610.23 1014.85  19
   0  -7   7 1503.16 757.474  19
   0  -7   7 1890.91 875.181  11
   0  -7   6 1240.25 678.719  19
   0  -7   6 1568.25 754.204  11
   0  -7   6 2523.74 1821.61   4
   0  -7   6 1822.47 933.110   7
   0  -7   5 10741.6 1372.12  11
   0  -7   5 8507.88 1273.39   7
   0  -7   5 6577.52 1914.46   6
   0  -7   5 10810.6 1957.34   4
   0  -7   5 9051.64 1226.93   8
   0  -7   5 8910.44 1258.68  19
   0  -7   5 12731.0 2205.25   5
   0  -7   4 453.829 739.778  11
   0  -7   4 2506.90 1232.20   4
   0  -7   4 1229.01 712.812   8
   0  -7   4-1249.56 1446.25   6
   0  -7   4 489.458 877.994   7
   0  -7   4 355.721 648.607  19
   0  -7   4 844.335 904.085   5
   0  -7   3 6092.82 1037.91  19
   0  -7   3 6401.40 1093.80  11
   0  -7   3 7480.25 1036.49  13
   0  -7   3 7125.58 1684.27   5
   0  -7   3 4921.35 1773.26   6
   0  -7   3 6463.84 1227.99   7
   0  -7   3 5751.68 1897.81   4
   0  -7   3 6319.98 1111.58   8
   0  -7   2 4083.70 953.313   8
   0  -7   2 2366.14 1592.22   5
   0  -7   2 4406.09 1124.72   7
   0  -7   2 5059.58 989.494  11
   0  -7   2 4912.92 888.197  13
   0  -7   2 2285.59 1529.28   4
   0  -7   2 4233.24 1705.08   6
   0  -7   1 13872.9 1350.62  13
   0  -7   1 15519.8 1614.04   8
   0  -7   1 10510.1 2265.12   5
   0  -7   1 16466.9 2816.81   4
   0  -7   1 15157.3 1637.64   7
   0  -7   0 2833.33 840.407  13
   0  -7   0 1363.02 803.204   8
   0  -7   0 1699.66 935.528   5
   0  -7   0 3811.37 942.398   7
   0  -7  -1 959.943 674.504  13
   0  -7  -1 1159.09 808.124   8
   0  -7  -2 6201.81 1050.79  13
   0  -7  -3 35687.9 1987.89  13
   0  -7  -3 40199.2 1845.97   9
   0  -7  -4 5574.86 862.469  13
   0  -7  -4 5457.51 720.667   9
   0  -7  -5 18904.4 1031.55   9
   0  -8  10 88.6610 538.809  11
   0  -8  10-62.5527 354.954  19
   0  -8   9 466.604 494.910  19
   0  -8   9 428.366 614.578  11
   0  -8   8 212.438 561.397  19
   0  -8   8-107.625 716.738  11
   0  -8   7 26662.4 2041.68  11
   0  -8   7 26973.1 1963.80  19
   0  -8   6 955.758 735.264   8
   0  -8   6 2212.71 764.410  19
   0  -8   6 2848.12 921.472  11
   0  -8   5 4285.66 1020.71  11
   0  -8   5 6541.29 1082.12   8
   0  -8   5 6064.22 1131.41  19
   0  -8   5 4734.90 1079.36   7
   0  -8   4 1971.08 854.956  11
   0  -8   4 3146.03 1001.06   8
   0  -8   4 2316.56 748.218  13
   0  -8   4 2141.21 840.196  19
   0  -8   4 1465.53 974.557   7
   0  -8   3 18847.9 1680.80  11
   0  -8   3 18205.6 1482.84  13
   0  -8   3 19149.1 1760.58   8
   0  -8   3 19947.1 1948.96   7
   0  -8   2 5940.02 1002.73  13
   0  -8   2 5187.26 1083.64   8
   0  -8   2 4194.09 1147.53   7
   0  -8   1 2807.91 818.701  13
   0  -8   1 2560.74 996.877   7
   0  -8   1 2446.21 913.847   8
   0  -8   0 1063.09 917.808   7
   0  -8   0-629.645 799.335   8
   0  -8   0 378.468 676.883  13
   0  -8  -1 15775.0 1468.27  13
   0  -8  -2 1210.08 724.682  13
   0  -8  -3 465.532 476.210  13
   0  -9   9 16751.2 1122.38  19
   0  -9   9 17256.9 1255.90  11
   0  -9   8 3603.47 714.605  19
   0  -9   8 3500.74 868.321  11
   0  -9   7 2505.22 843.281  11
   0  -9   7 2781.66 738.183  19
   0  -9   6 10069.1 1139.43   8
   0  -9   6 9793.74 1278.85  11
   0  -9   6 8868.38 1161.25  19
   0  -9   5 482.648 723.708  11
   0  -9   4 3730.83 927.833   8
   0  -9   4 4543.48 786.691  13
   0  -9   4 2353.78 796.877  11
   0  -9   4 5232.07 1160.04   7
   0  -9   3 1996.31 843.485   7
   0  -9   3 1685.86 623.635  13
   0  -9   3 2681.40 928.373   8
   0  -9   2 1049.10 792.005   8
   0  -9   2 1129.23 664.509   7
   0  -9   2 2128.15 726.099  13
   0  -9   1 3976.36 864.974  13
   0  -9   1 6211.51 1127.37   8
   0  -9   0-206.419 532.323  13
   0  -9  -1 1817.10 626.060  13
   0 -10   7 3838.73 725.206  11
   0 -10   6 6805.05 892.676  11
   0 -10   5 6811.31 923.672   8
   0 -10   4 1411.69 660.254   8
   0 -10   3 26842.4 1659.16   8
   0 -10   3 21638.4 1243.91  13
   0 -10   2 1714.51 518.414  13
   0 -10   1 8461.12 820.194  13
   1 -10   0 1600.21 472.207  13
   1 -10   1 4820.61 722.034  13
   1 -10   2 7441.91 1095.73   7
   1 -10   2 6596.47 826.239  13
   1 -10   3 409.285 644.769   7
   1 -10   4 2623.54 850.652   7
   1 -10   4 3509.11 675.242  11
   1 -10   5 1437.12 638.823  11
   1 -10   6 391.823 508.176  11
   1 -10   7 4069.11 746.888  11
   1  -9  -2 1083.44 519.735  13
   1  -9  -1 4787.84 864.217  13
   1  -9   0 6626.03 1014.51   7
   1  -9   0 5458.77 956.599  13
   1  -9   1 3920.77 1031.20   7
   1  -9   1 5358.94 955.964  13
   1  -9   2 6273.47 1218.11   8
   1  -9   2 3913.96 862.459  13
   1  -9   2 5234.81 1254.74   7
   1  -9   3 2029.72 890.998   8
   1  -9   3 304.579 900.929   7
   1  -9   3 720.540 583.708  11
   1  -9   3 970.107 621.752  13
   1  -9   4 3538.72 1032.48   7
   1  -9   4 3265.08 773.118  13
   1  -9   4 3826.75 1038.26   8
   1  -9   4 2883.99 842.399  11
   1  -9   5 2175.74 947.530   7
   1  -9   5 614.068 742.830  11
   1  -9   5 942.018 783.506   8
   1  -9   6-69.2582 712.252  11
   1  -9   7 894.036 701.984  11
   1  -9   7 394.870 533.874  19
   1  -9   8 6067.81 992.978  11
   1  -9   9 641.313 565.459  11
   1  -8  -4 923.436 297.885   9
   1  -8  -4 1393.06 515.337  13
   1  -8  -3 102.872 379.372   9
   1  -8  -3 517.141 565.441  13
   1  -8  -2 3057.92 825.994  13
   1  -8  -1 1275.24 741.081  13
   1  -8  -1 1691.33 748.391   7
   1  -8   0 1348.07 979.044   8
   1  -8   0 1014.24 692.424  13
   1  -8   0 326.928 703.948   7
   1  -8   1 26493.3 2192.40   7
   1  -8   1 29566.3 2163.73   8
   1  -8   1 29029.6 1923.96  13
   1  -8   2 1243.61 736.700  13
   1  -8   2 466.077 787.243   7
   1  -8   2 1262.57 872.827   8
   1  -8   3 4241.24 1049.08  11
   1  -8   3 2130.27 912.304   8
   1  -8   3 2619.87 1021.70   7
   1  -8   3 1459.31 713.713  13
   1  -8   4-205.836 823.213   7
   1  -8   4 1678.81 666.988  13
   1  -8   4 989.221 766.468  11
   1  -8   4 774.802 636.614  19
   1  -8   4 759.954 639.914   8
   1  -8   5 466.540 597.811  19
   1  -8   5 1680.08 907.501   7
   1  -8   5 144.461 723.139   8
   1  -8   5-87.7714 731.529  11
   1  -8   6-242.662 556.286  19
   1  -8   6-982.107 840.260   7
   1  -8   6-313.101 691.539  11
   1  -8   7 3950.36 902.552  19
   1  -8   7 3506.35 1038.71  11
   1  -8   8 3547.47 864.285  19
   1  -8   8 3526.56 869.640  11
   1  -8   9 35294.2 1939.34  11
   1  -8  10 7689.73 838.201  11
   1  -7  -5 573.424 428.846   9
   1  -7  -4 13903.1 1196.92  13
   1  -7  -4 13852.8 1170.83   9
   1  -7  -3 15208.5 1372.67  13
   1  -7  -3 14678.5 1244.61   9
   1  -7  -2 390.199 514.473   9
   1  -7  -2 290.537 707.621  13
   1  -7  -1 23940.9 2022.67   7
   1  -7  -1 26529.2 1596.29   9
   1  -7  -1 25603.1 2012.01   8
   1  -7  -1 23560.2 1773.73  13
   1  -7   0-2098.86 1899.09   4
   1  -7   0 2424.00 1574.30   5
   1  -7   0 918.435 924.248   7
   1  -7   0 1142.04 702.911  13
   1  -7   0 1673.79 921.809   8
   1  -7   1 191.095 637.911   8
   1  -7   1-321.220 1506.35   4
   1  -7   1-748.731 1329.03   5
   1  -7   1 155.539 753.735   7
   1  -7   1 738.098 634.984  13
   1  -7   2 4657.82 978.773  11
   1  -7   2 4904.52 1251.17   7
   1  -7   2 4337.10 1903.81   4
   1  -7   2 4669.32 991.192   8
   1  -7   2 4591.10 1443.73   5
   1  -7   2 4058.97 798.294  13
   1  -7   3 4757.09 891.706  13
   1  -7   3 4881.87 1049.79  11
   1  -7   3 3994.37 966.893   7
   1  -7   3 4388.47 1796.77   4
   1  -7   3 3363.66 1349.71   5
   1  -7   3 4419.70 919.972   8
   1  -7   3 2498.91 1220.17   6
   1  -7   3 4877.88 979.326  19
   1  -7   4 9373.29 2135.74   4
   1  -7   4 10385.2 1075.88  13
   1  -7   4 12304.8 1322.59   8
   1  -7   4 9912.81 1873.70   6
   1  -7   4 10048.4 1414.84   7
   1  -7   4 10436.1 1378.34  11
   1  -7   4 10667.2 1953.45   5
   1  -7   4 10997.6 1288.52  19
   1  -7   5 950.330 707.767  11
   1  -7   5 2502.86 973.228   7
   1  -7   5 2041.56 1217.47   4
   1  -7   5 2133.63 1109.87   5
   1  -7   5 2419.66 805.228  19
   1  -7   6 1891.02 811.413  11
   1  -7   6 1971.10 806.215   7
   1  -7   6 525.337 1482.29   4
   1  -7   6 1262.83 649.775  19
   1  -7   7 5595.82 1158.74  11
   1  -7   7 5015.34 955.426  19
   1  -7   8 6386.88 1031.96  10
   1  -7   8 5565.79 1064.43  11
   1  -7   8 6166.31 967.636  19
   1  -7   9 1628.40 690.210  11
   1  -7   9 2999.44 749.114  10
   1  -7  10 7662.19 956.803  10
   1  -7  11 916.156 383.867  10
   1  -6  -6 4565.99 721.636   9
   1  -6  -5 10690.4 1120.64   9
   1  -6  -4 37540.4 2055.87   9
   1  -6  -4 41774.2 2075.73  13
   1  -6  -3 111729. 3444.78   9
   1  -6  -3 119065. 5275.99   2
   1  -6  -3 117607. 3573.99  13
   1  -6  -2 33367.8 2760.67   2
   1  -6  -2 37563.8 1947.17   9
   1  -6  -2 34354.5 3474.38   5
   1  -6  -2 37875.0 2101.38  13
   1  -6  -1 34975.0 1779.22   9
   1  -6  -1 38428.8 2197.53   8
   1  -6  -1 31669.3 3026.15   5
   1  -6  -1 35031.5 2225.65   7
   1  -6  -1 33412.5 1941.72  13
   1  -6   0 4625.90 1368.93   4
   1  -6   0 4661.96 1065.98   7
   1  -6   0 4925.90 820.829  13
   1  -6   0 1891.26 1068.41   5
   1  -6   0 3290.90 861.056   8
   1  -6   1 2521.33 1049.71   5
   1  -6   1 5216.78 1314.93   4
   1  -6   2 6043.52 1310.29   6
   1  -6   2 6762.83 1534.72   5
   1  -6   2 8184.69 1640.06   4
   1  -6   3 1066.71 799.998   6
   1  -6   3-625.309 891.018   4
   1  -6   3 782.792 998.479   5
   1  -6   4 33694.7 2687.97   6
   1  -6   4 32034.0 1979.38  11
   1  -6   4 37384.2 3209.31   4
   1  -6   4 36582.2 2978.29   5
   1  -6   5 28411.6 3009.96   4
   1  -6   5 29062.4 1974.47  11
   1  -6   5 28983.0 2080.10   7
   1  -6   5 28242.4 1858.42  19
   1  -6   5 27674.5 2472.35   6
   1  -6   5 27043.5 2707.36   5
   1  -6   6 2023.43 1250.21   4
   1  -6   6 1067.76 627.667  10
   1  -6   6 1047.39 674.552  11
   1  -6   6 1703.95 709.054  19
   1  -6   7 5726.38 1162.59  11
   1  -6   7 6123.26 1031.79  10
   1  -6   7 4599.56 1667.75   4
   1  -6   7 6071.11 1031.36  19
   1  -6   8 2786.25 845.452  10
   1  -6   8 364.369 700.656  11
   1  -6   8 1810.80 754.472  19
   1  -6   9 21928.1 1667.74  19
   1  -6   9 24106.2 1862.87  10
   1  -6   9 22892.0 1673.43  11
   1  -6  10 1160.94 575.551  10
   1  -6  11-863.931 467.621  10
  -1   5   7 12467.8 1149.93  14
   1  -5  -7 11315.9 1041.78   9
  -1   5   6 5628.05 965.973  14
   1  -5  -6 5458.76 893.544   9
   1  -5  -5 73953.5 2909.25   9
   1  -5  -4 1614.20 1020.62   2
   1  -5  -4 4265.48 875.088   9
   1  -5  -4 4001.18 823.329  13
   1  -5  -3 21306.4 2390.18   5
   1  -5  -3 19784.4 2224.52   2
   1  -5  -3 21598.5 1515.92  13
   1  -5  -2 3726.86 1009.51   2
   1  -5  -2 2589.96 981.492   5
   1  -5  -1 20056.7 1761.34   2
   1  -5  -1 20556.3 2248.55   5
   1  -5  -1 19096.5 1914.00   4
   1  -5   0 12762.0 1782.15   5
   1  -5   0 13275.5 1345.90   2
   1  -5   0 12337.7 1555.64   4
   1  -5   1 49584.5 2862.86   6
   1  -5   1 44714.8 2982.31   5
   1  -5   1 41491.2 1872.03   2
   1  -5   1 41121.5 2721.10   4
   1  -5   2 369.302 905.848   4
   1  -5   2 614.584 717.118   6
   1  -5   2 587.103 787.059   5
   1  -5   3 77077.4 3726.30   5
   1  -5   3 76221.4 3483.87   6
   1  -5   3 75732.6 3875.03   4
   1  -5   4 5337.88 1350.24   4
   1  -5   4 4053.11 1092.53   6
   1  -5   4 3402.35 1032.29   5
   1  -5   5 33613.7 2855.60   4
   1  -5   5 35648.0 2547.41   5
   1  -5   5 28115.1 2353.63   6
   1  -5   6 10547.6 1970.28   4
   1  -5   6 11853.5 1331.16  11
   1  -5   7 1860.51 1472.47   4
   1  -5   7 840.915 673.109  10
   1  -5   7 1375.66 731.284  11
   1  -5   7 643.718 603.120  19
   1  -5   8 46915.0 2416.48  11
   1  -5   8 46828.0 2528.26  19
   1  -5   8 53587.9 2703.79  10
   1  -5   9 9611.09 1268.14  10
   1  -5   9 9628.48 1264.94  19
   1  -5  10 16513.0 1523.86  10
   1  -5  11 598.639 502.663  10
   1  -4  -8 9136.93 931.322   9
  -1   4   8 8849.75 1067.12  14
   1  -4  -7 2257.64 740.262   9
  -1   4   7 2570.72 798.355  14
  -1   4   6 1293.06 643.067  14
  -1   4   5 3529.48 1583.07   1
  -1   4   5 5641.14 997.674  14
   1  -4  -5 4010.47 1334.14   2
  -1   4   4 1978.75 832.467  14
   1  -4  -4 2614.16 981.418   2
   1  -4  -3 28542.1 2334.53   2
   1  -4  -3 23631.2 2225.72   5
   1  -4  -2 3129.57 1060.87   5
   1  -4  -2 2883.19 869.708   2
   1  -4  -2 1485.42 809.408   4
   1  -4  -1 25161.0 1818.24   4
   1  -4  -1 24051.7 1720.74   2
   1  -4  -1 27877.8 2248.65   5
   1  -4   0 1092.01 707.106   4
   1  -4   0 1527.59 591.324   2
   1  -4   0 1191.80 903.695   5
   1  -4   1 54411.9 1885.49   2
   1  -4   1 56085.8 2748.77   4
   1  -4   1 56103.6 2562.73   6
   1  -4   1 55962.3 2827.50   5
   1  -4   2 363.698 265.294   2
   1  -4   2 203.651 579.987   6
   1  -4   2-311.368 646.609   5
   1  -4   2-372.017 746.664   4
   1  -4   3 125921. 3992.18   5
   1  -4   3 122199. 3662.16   6
   1  -4   3 113532. 4114.24   4
   1  -4   4 30742.4 2002.46   6
   1  -4   4 31378.0 2394.58   4
   1  -4   4 32934.3 2064.35   5
   1  -4   5 19161.1 1710.14   6
   1  -4   5 21865.0 1718.31   5
   1  -4   5 17100.2 1990.18   4
   1  -4   6 4868.68 1457.89   4
   1  -4   7 25503.5 1852.31  11
   1  -4   7 27475.9 1860.01  10
   1  -4   8 13936.9 1465.93  10
   1  -4   8 11864.0 1373.49  19
   1  -4   9 5648.75 1037.70  19
   1  -4   9 4441.98 998.587  10
   1  -4  10 6463.04 989.844  19
   1  -4  10 8759.51 1179.46  10
   1  -4  11 2321.06 723.815  10
   1  -3  -9 871.118 388.525   9
  -1   3   9 291.841 532.571  14
   1  -3  -8 3873.27 748.211   9
  -1   3   8 3919.04 922.033  14
  -1   3   7 3119.47 936.238  14
   1  -3  -6 11989.4 1911.91   2
  -1   3   6 10277.9 1276.87  14
  -1   3   5 23829.0 1789.80  14
  -1   3   5 21641.0 2352.43   1
   1  -3  -5 20576.2 2216.82   2
   1  -3  -4-341.292 694.061   5
   1  -3  -4-144.887 737.089   2
   1  -3  -3 6149.48 1150.65   5
   1  -3  -3 9478.83 1314.57   2
   1  -3  -2 9974.17 1369.68   5
   1  -3  -2 12532.8 1273.70   2
   1  -3  -2 11672.6 1041.30   4
   1  -3  -1 7341.20 924.787   2
  -1   3   1 6495.89 403.881   3
   1  -3  -1 5842.82 1057.54   5
   1  -3  -1 5990.67 864.548   4
   1  -3   0 16.0705 549.996   5
   1  -3   0-450.024 392.386   2
   1  -3   0-375.642 545.442   4
   1  -3   0 84.3819 547.615   6
   1  -3   1 66736.7 2531.64   4
   1  -3   1 59358.9 2416.19   5
   1  -3   1 60647.3 1680.59   2
   1  -3   1 60175.9 2182.47   6
   1  -3   2 512.052 495.219   6
   1  -3   2 205.827 538.964   5
   1  -3   2 652.654 284.379   1
   1  -3   2 1064.73 686.961   4
   1  -3   3 21046.2 1715.08   4
   1  -3   3 18237.6 1312.32   6
   1  -3   3 17616.6 1347.35   5
   1  -3   3 19618.3 1038.26   1
   1  -3   4 9252.32 1101.59   6
   1  -3   4 11329.9 1435.66   4
   1  -3   4 10424.9 995.045   1
   1  -3   4 12945.4 1127.48   5
   1  -3   5 1628.25 694.629   1
   1  -3   5 500.654 906.846   4
   1  -3   5 998.547 659.802   6
   1  -3   6 3214.88 1003.51   1
   1  -3   6 4061.95 1261.01   4
   1  -3   7 5774.27 955.438  10
   1  -3   8 5089.33 992.055  10
   1  -3   9 20843.8 1790.00  10
   1  -3  10 3160.93 871.368  10
   1  -3  10 1490.01 640.801  19
   1  -3  11 1287.25 591.293  10
  -1   2  10 13375.9 1140.76  14
   1  -2 -10 11000.7 776.064   9
  -1   2   9 5488.61 1015.91  14
   1  -2  -9 4615.84 756.762   9
  -1   2   8 6571.76 1193.01  14
  -1   2   7 15312.6 1640.68  14
  -1   2   7 16800.8 2163.18   1
  -1   2   6 29478.6 2841.76   1
   1  -2  -6 29617.0 2645.65   2
  -1   2   6 30852.6 2006.70  14
   1  -2  -5 86034.5 3917.10   2
   1  -2  -4 334.889 619.502   2
  -1   2   4-1504.08 592.175   3
   1  -2  -3 26543.4 1768.61   2
  -1   2   3 28766.9 1343.60   3
   1  -2  -2 34957.1 1247.58   4
  -1   2   2 38599.8 1259.46   3
   1  -2  -2 34143.1 1747.11   2
   1  -2  -1 9575.41 843.590   2
  -1   2   1 9150.47 549.594   3
   1  -2  -1 8500.32 739.524   4
   1  -2   0 108827. 2478.53   4
   1  -2   0 107668. 2037.56   1
   1  -2   0 102950. 2165.23   2
   1  -2   1-45.5717 351.150   6
   1  -2   1 66.8327 456.191   5
   1  -2   1-27.7401 240.696   1
   1  -2   2 333915. 4213.52   5
   1  -2   2 325917. 3797.10   1
   1  -2   2 329690. 3789.71   6
   1  -2   3 139760. 2588.86   5
   1  -2   3 138350. 3041.10   1
   1  -2   3 135312. 2817.75   6
   1  -2   4 8814.91 1040.33   1
   1  -2   5 32048.7 2084.51   1
   1  -2   6 1445.77 778.491   1
   1  -2   7 9084.64 1203.27  10
   1  -2   7 5400.70 1321.18   1
   1  -2   8-704.822 718.951  10
   1  -2   8 758.925 669.559  14
   1  -2   9 1851.17 724.024  14
   1  -2   9 3664.73 917.915  10
   1  -2  10 12267.1 1311.34  10
   1  -2  10 9740.99 1078.73  14
   1  -2  11 932.978 521.856  10
  -1   1  10 11550.6 1249.05  14
  -1   1   9 11036.3 1390.23  14
  -1   1   8 1242.33 800.105  14
   1  -1  -7 50420.0 3385.36   2
  -1   1   7 49491.5 2628.77  14
  -1   1   7 43721.1 2264.75  10
  -1   1   7 49094.5 3729.66   1
   1  -1  -6 26122.6 2236.44   2
  -1   1   6 26106.8 2104.58   3
  -1   1   5 3707.42 910.321   3
   1  -1  -5 3095.51 914.402   2
   1  -1  -4 12966.7 1294.56   2
  -1   1   4 14072.6 1217.41   3
   1  -1  -3 36.7035 475.807   2
  -1   1   3 301.657 416.263   3
  -1   1   2 22012.4 994.301   3
   1  -1  -2 20831.6 1186.53   2
   1  -1  -1 120584. 1579.92   4
   1  -1  -1 123161. 2271.44   2
   1  -1   0 21511.8 847.342   1
   1  -1   1 69428.0 1620.67   1
   1  -1   1 69222.6 880.089   6
   1  -1   2 398975. 4639.04   1
   1  -1   2 400705. 2624.35   5
   1  -1   3 10888.8 1036.32   1
   1  -1   4 105347. 3485.11   1
   1  -1   5 16827.2 1660.16   1
   1  -1   6 47952.0 3133.49   1
   1  -1   7 3154.33 1249.28   1
   1  -1   7 4864.97 905.700  10
  -1   1  -7 2411.28 692.763  16
   1  -1   8 15653.8 1552.55  14
   1  -1   8 14406.1 2260.65   1
   1  -1   8 14034.0 1474.53  10
  -1   1  -8 15746.1 1332.19  16
   1  -1   9 8132.45 1110.91  10
   1  -1   9 9177.60 1246.37  14
   1  -1  10 272.328 512.490  14
   1  -1  10 1103.89 698.114  10
   1  -1  11 5320.12 614.096  14
  -1   0  11 4151.43 702.491  14
  -1   0  10 866.584 639.554  14
  -1   0   9-176.603 533.383  10
  -1   0   9 675.642 691.020  14
  -1   0   8 3295.24 943.580  10
  -1   0   8 2837.60 911.397  14
  -1   0   8 5950.52 1458.26   1
  -1   0   7 1460.20 1152.72   1
  -1   0   7 2140.89 997.492   3
  -1   0   7-23.3647 662.456  10
   1   0  -7 2312.57 954.317   2
  -1   0   7 478.887 613.411  14
   1   0  -6 33136.8 2273.76   2
  -1   0   6 31982.7 2350.25   3
   1   0  -5 20532.2 1582.66   2
  -1   0   5 22560.2 1759.82   3
   1   0  -4 2876.75 664.980   2
  -1   0   4 3259.33 763.016   3
  -1   0   3 4549.66 693.111   3
   1   0  -3 4470.55 652.073   2
   1   0  -2 86618.8 1885.57   2
  -1   0   2 83946.2 1947.77   3
  -1   0   1 37599.3 1041.95   3
   1   0  -1 36504.9 1116.49   1
  -1   0   0 168092. 1772.92   6
   1   0   0 164860. 2245.65   1
   1   0   1 18561.8 964.975   1
   1   0   2 999999. 8181.61   1
   1   0   3 90916.9 2981.70   1
   1   0   4 15052.1 1519.93   1
   1   0   5 4619.58 1033.83   1
   1   0   6 28652.6 2622.86   1
   1   0   7 8259.68 1750.58   1
   1   0   7 6910.00 1080.46  10
  -1   0  -7 8005.96 1029.70  16
   1   0   8 151.688 681.569  14
  -1   0  -8 507.421 600.906  16
   1   0   9 437.860 715.879  14
   1   0  10 16926.1 1345.25  14
  -1  -1  11 574.129 473.039  14
  -1  -1  10 14519.1 1420.22  14
  -1  -1  10 17199.2 1542.95  10
  -1  -1   9 1122.06 682.082  14
  -1  -1   9 1236.15 731.456  10
  -1  -1   8 32521.6 2119.01  14
  -1  -1   8 32656.7 2139.93  10
  -1  -1   8 31154.2 3050.69   1
  -1  -1   7 511.486 870.297   3
  -1  -1   7 1561.82 807.882   1
  -1  -1   7 980.268 614.314  14
  -1  -1   7-69.7232 635.777  10
  -1  -1   6 7744.39 1301.72   3
   1   1  -6 7892.57 1089.20   2
  -1  -1   5 5988.25 1001.03   3
   1   1  -5 4741.43 788.384   2
   1   1  -4 9266.44 829.187   2
  -1  -1   4 8708.11 743.742   4
  -1  -1   4 8301.46 1037.39   3
  -1  -1   3 9649.91 738.619   4
  -1  -1   3 8774.89 893.799   3
   1   1  -3 10031.2 703.529   2
  -1  -1   2 254.972 401.569   4
   1   1  -2 241.139 232.714   2
  -1  -1   2-99.8109 370.904   3
  -1  -1   1 4310.08 429.311   3
   1   1  -1 4262.20 413.401   1
   1   1   0 45165.8 1319.32   1
  -1  -1   0 45486.5 1445.04   5
   1   1   1 268403. 3927.67   1
  -1  -1  -1 264829. 3223.41   5
  -1  -1  -1 264599. 3673.71   6
   1   1   2 4898.75 802.851   1
  -1  -1  -2 5917.12 562.535   5
   1   1   3 4669.68 946.672   1
   1   1   4 4166.03 1032.26   1
   1   1   5 5822.91 1282.37   1
  -1  -1  -6 2332.76 682.021  16
   1   1   6 2470.21 1273.92   1
  -1  -1  -7 2083.89 715.415  16
   1   1   7 1972.02 985.593   1
   1   1   8 8571.19 1304.08  14
   1   1   9 1891.24 770.828  14
   1   1  10 9757.42 961.065  14
  -1  -1 -10 8850.36 732.580   9
  -1  -2  11 2355.22 599.783  14
  -1  -2  10 31349.3 1956.12  14
  -1  -2  10 28723.6 2040.97  10
  -1  -2   9 228.912 645.361  14
  -1  -2   9 23.9827 669.531  10
  -1  -2   8 5142.27 1033.44  10
  -1  -2   8 4738.85 976.441  14
  -1  -2   7 4855.09 1266.26   3
  -1  -2   7 7647.94 1100.10  10
  -1  -2   7 7247.99 1307.18   1
  -1  -2   6 12622.7 1631.66   3
  -1  -2   6 13968.9 1486.07   1
  -1  -2   5 43022.7 2479.30   3
  -1  -2   5 42237.8 1965.33   4
  -1  -2   4 5131.26 884.098   3
  -1  -2   4 5501.26 846.863   4
   1   2  -4 6268.13 550.026   2
  -1  -2   3 502.895 467.967   3
   1   2  -3-29.9488 108.665   2
  -1  -2   3-32.6045 622.321   4
  -1  -2   3 268.262 599.174   6
  -1  -2   2 453320. 4921.53   3
  -1  -2   2 456469. 5795.82   4
   1   2  -1 5267.55 448.971   1
  -1  -2   1 5831.15 500.973   3
  -1  -2   0 63263.3 2269.33   6
   1   2   0 63674.7 1799.92   1
  -1  -2   0 62167.5 2210.84   5
  -1  -2   0 66121.7 1148.07   3
  -1  -2   0 66261.8 2386.69   4
  -1  -2  -1 1595.49 605.674   6
   1   2   1 997.087 494.524   1
  -1  -2  -1 1426.78 549.968   5
  -1  -2  -2 5751.99 786.603   5
   1   2   2 7893.04 1036.80   1
   1   2   3 18770.6 1732.31   1
   1   2   4 1426.84 1001.34   1
   1   2   5 32553.6 2903.82   1
  -1  -2  -5 32375.9 1838.51  16
  -1  -2  -6 69209.1 2800.52  16
   1   2   6 68088.4 4502.46   1
  -1  -2  -7-15.5190 585.384  16
   1   2   8 22037.6 1774.77  14
   1   2   9 204.964 551.025  14
  -1  -3  11 7138.01 1048.06  10
  -1  -3  11 5495.25 983.025  19
  -1  -3  10 11747.9 1422.44  10
  -1  -3   9 28874.2 2117.74  10
  -1  -3   8 2754.44 869.170  10
  -1  -3   8 5320.77 1939.67   6
  -1  -3   7 982.929 780.420   6
  -1  -3   7 131.461 874.914   3
  -1  -3   7 639.422 709.783  10
  -1  -3   6 7963.50 1418.56   3
  -1  -3   6 8863.13 1571.40   6
  -1  -3   5 24840.8 1958.11   3
  -1  -3   5 20859.3 2088.27   6
  -1  -3   5 23639.7 1849.87   4
  -1  -3   4 48442.9 2480.29   4
  -1  -3   4 50084.9 2398.28   3
  -1  -3   4 49259.0 2813.81   6
  -1  -3   3 12001.9 1392.31   6
  -1  -3   3 14149.7 1444.75   5
  -1  -3   3 10667.6 1281.74   4
  -1  -3   3 11275.3 1045.19   3
  -1  -3   2 24425.9 1758.05   4
  -1  -3   2 26780.0 1841.13   6
  -1  -3   2 29420.7 1884.58   5
  -1  -3   2 26050.8 1290.84   3
  -1  -3   1 658.345 693.292   5
   1   3  -1 651.165 283.861   1
  -1  -3   1 821.769 778.690   4
  -1  -3   1 321.546 560.623   6
  -1  -3   1 189.221 247.922   3
  -1  -3   0 63298.2 2700.37   6
  -1  -3   0 56470.8 2550.63   5
   1   3   0 60737.3 1970.67   1
  -1  -3   0 63006.5 2748.13   4
  -1  -3  -1-425.720 657.012   6
   1   3   1 526.186 493.327   1
  -1  -3  -1 364.657 626.552   5
   1   3   2 6118.21 1066.99   1
  -1  -3  -2 4357.75 906.186   5
   1   3   3 8231.89 1393.44   1
  -1  -3  -4 30349.3 1742.16  16
   1   3   4 29586.3 2629.35   1
   1   3   5 2536.70 1348.33   1
  -1  -3  -5 4546.79 867.210  16
  -1  -3  -6 37572.8 2135.78  16
   1   3   7 134.981 689.631  14
   1   3   8 564.743 587.116  14
  -1  -4  11 7184.61 1034.38  19
  -1  -4  11 8568.57 1107.07  10
  -1  -4  10 3617.00 924.072  10
  -1  -4  10 2626.43 904.006  19
  -1  -4   9 25163.9 1978.35  10
  -1  -4   9 23430.6 2019.49  19
  -1  -4   8 1547.23 836.952  19
  -1  -4   8 1461.11 1725.45   6
  -1  -4   8 185.389 691.636  10
  -1  -4   7 696.287 636.352  19
  -1  -4   7-325.144 901.146   3
  -1  -4   7-2973.86 938.091  11
  -1  -4   7-1862.40 1019.13   6
  -1  -4   7-453.586 689.827  10
  -1  -4   6 9416.44 1579.55   4
  -1  -4   6 11130.2 1799.02   6
  -1  -4   6 9256.70 1479.49   3
  -1  -4   5 56.5853 963.964   4
  -1  -4   5-938.571 860.172   6
  -1  -4   5 598.550 652.318   3
  -1  -4   4 31794.2 2372.79   4
  -1  -4   4 33064.8 2524.12   6
  -1  -4   4 30561.7 1995.67   3
  -1  -4   4 37394.1 2570.20   5
  -1  -4   3 13206.1 1180.33   3
  -1  -4   3 14443.6 1709.59   6
  -1  -4   3 15142.1 1680.10   5
  -1  -4   3 14098.5 1674.48   4
  -1  -4   2 26736.7 1340.22   3
  -1  -4   2 25945.8 2132.96   4
  -1  -4   2 29475.6 2192.95   6
  -1  -4   2 28346.7 2172.59   5
  -1  -4   1 707.265 786.802   4
  -1  -4   1-2.58176 724.331   6
  -1  -4   1 516.270 648.275   5
  -1  -4   0 40333.8 2617.08   6
  -1  -4   0 42882.8 2632.01   5
  -1  -4   0 48147.0 2856.49   4
  -1  -4  -1 14646.9 1667.12   5
   1   4   1 13217.6 1354.06   1
   1   4   2 5414.36 1200.24   1
  -1  -4  -2 4316.75 1151.02   5
  -1  -4  -3 5237.35 915.557  13
   1   4   3 6483.36 1403.80   1
  -1  -4  -3 4763.68 885.381  16
  -1  -4  -4 20737.2 1563.65  13
   1   4   4 19809.7 2585.17   1
  -1  -4  -4 23187.7 1630.40  16
  -1  -4  -5 342.114 584.153  13
  -1  -4  -5 101.081 465.794  16
   1   4   6-71.2836 621.774  14
   1   4   7 3709.55 800.575  14
   1   4   8 5662.61 720.582  14
  -1  -4  -8 4875.74 614.869   9
  -1  -5  11 425.278 513.037  10
  -1  -5  11 281.564 495.418  19
  -1  -5  10 12936.0 1461.44  19
  -1  -5  10 11098.3 1301.97  10
  -1  -5   9 399.488 670.802  19
  -1  -5   9-99.1639 660.947  10
  -1  -5   8 30230.0 3063.20   6
  -1  -5   8 31376.8 2060.05  11
  -1  -5   8 32612.9 2110.39  10
  -1  -5   8 29753.2 2216.61  19
  -1  -5   7 11017.8 1417.79  19
  -1  -5   7 10516.9 1261.79  11
  -1  -5   7 12483.0 2334.46   6
  -1  -5   7 11040.1 1296.43  10
  -1  -5   6 9365.50 1166.66  11
  -1  -5   6 8468.17 1500.34   3
  -1  -5   6 7067.10 1673.34   6
  -1  -5   6 9406.59 1266.73  19
  -1  -5   6 8677.62 1759.13   4
  -1  -5   5 27099.4 2189.58   3
  -1  -5   5 24279.6 2466.41   4
  -1  -5   5 25954.0 2552.46   6
  -1  -5   4 20857.5 2279.88   6
  -1  -5   4 20230.4 2262.94   4
  -1  -5   4 25732.2 2461.46   5
  -1  -5   4 21104.3 1712.24   3
  -1  -5   3 20340.7 2178.45   4
  -1  -5   3 15291.6 1957.97   6
  -1  -5   3 16621.5 2014.92   5
  -1  -5   2 3979.51 1246.11   4
  -1  -5   2 2415.46 1037.05   6
  -1  -5   2 2175.89 1018.93   5
  -1  -5   1 29207.0 2565.92   6
  -1  -5   1 28726.4 2498.28   5
  -1  -5   1 30227.3 2601.71   4
  -1  -5   0 1750.76 1109.83   5
  -1  -5   0 2154.51 1120.62   6
  -1  -5  -1 439.427 592.860   8
  -1  -5  -1-451.995 869.310   5
  -1  -5  -1 669.191 657.542  13
  -1  -5  -2 13351.9 1286.49  13
  -1  -5  -2 10906.2 1272.89   8
  -1  -5  -3 9048.12 1155.41  13
  -1  -5  -3 8568.11 1011.72  16
  -1  -5  -4 3290.47 838.397  13
   1   5   5 1654.17 633.066  14
  -1  -5  -5 1758.51 691.470  13
  -1  -5  -6 883.866 516.721   9
   1   5   6 718.225 538.609  14
  -1  -5  -7 74.9283 311.684   9
  -1  -6  11 810.043 447.649  19
  -1  -6  10 5646.32 993.173  19
  -1  -6  10 4335.10 835.755  10
  -1  -6   9 3335.48 940.991  19
  -1  -6   9 4504.75 945.998  11
  -1  -6   9 2413.75 814.286  10
  -1  -6   8 45595.9 2371.63  10
  -1  -6   8 46194.7 2527.48  11
  -1  -6   8 40943.4 2601.88  19
  -1  -6   7 783.620 659.056  19
  -1  -6   7 396.935 628.715  11
  -1  -6   6 4843.77 966.138   8
  -1  -6   6 7576.85 1224.08  11
  -1  -6   6 2980.04 1438.94   4
  -1  -6   6 7214.81 1158.22  19
  -1  -6   6 4491.84 1855.94   6
  -1  -6   5 16848.2 2499.23   4
  -1  -6   5 18073.0 1549.40  18
  -1  -6   5 20447.4 1744.66  19
  -1  -6   5 20229.0 1892.77   7
  -1  -6   5 19357.1 1712.34  11
  -1  -6   5 16712.2 2443.80   6
  -1  -6   5 17591.7 1607.05   8
  -1  -6   4 41509.0 2503.03   7
  -1  -6   4 43568.2 2435.08   8
  -1  -6   4 39740.4 3462.66   4
  -1  -6   4 45067.0 3610.05   5
  -1  -6   4 44180.4 3531.47   6
  -1  -6   4 42986.7 2371.67  11
  -1  -6   4 42478.4 2408.95  19
  -1  -6   4 39610.2 2231.81  18
  -1  -6   3 2136.36 1245.96   5
  -1  -6   3 1355.29 717.164  19
  -1  -6   3 613.958 667.836   8
  -1  -6   3 1866.66 1088.79   7
  -1  -6   3-903.538 852.118   6
  -1  -6   3-30.9000 1326.57   4
  -1  -6   3 198.066 643.688  11
  -1  -6   3 979.809 680.819  18
  -1  -6   2 5370.81 1530.83   4
  -1  -6   2 4112.61 1471.20   6
  -1  -6   2 4431.25 1055.39   7
  -1  -6   2 4102.95 888.700  19
  -1  -6   2 6642.17 1053.39  18
  -1  -6   2 3903.21 842.047  11
  -1  -6   2 4631.67 874.700  13
  -1  -6   2 7451.87 1649.60   5
  -1  -6   2 4273.16 1049.47   8
  -1  -6   1 6140.23 1038.94  18
  -1  -6   1 6076.13 950.062  13
  -1  -6   1 4783.99 1478.85   4
  -1  -6   1 7587.28 1180.96   7
  -1  -6   1 6809.08 1613.60   6
  -1  -6   1 4082.72 1327.72   5
  -1  -6   1 7818.29 1197.23   8
  -1  -6   0 4266.63 865.112  13
  -1  -6   0 4085.02 936.917  18
  -1  -6   0 979.223 1256.73   5
  -1  -6   0 4968.43 1142.20   7
  -1  -6   0 4887.17 990.592   8
  -1  -6  -1 1225.26 779.601  13
  -1  -6  -1 1912.47 869.239   8
  -1  -6  -2 592.512 710.143   8
  -1  -6  -2 883.103 674.824  13
  -1  -6  -3 11347.7 1093.58   9
  -1  -6  -3 11552.1 1269.98  13
  -1  -6  -4 18191.1 1316.66   9
  -1  -6  -4 19233.9 1456.96  13
  -1  -6  -5 2148.42 515.535   9
  -1  -6  -5 1061.05 525.559  13
  -1  -7  11 10014.1 878.963  19
  -1  -7  10 7769.29 942.867  11
  -1  -7  10 9887.02 1108.35  19
  -1  -7   9 9983.09 1259.62  19
  -1  -7   9 9971.81 1235.13  11
  -1  -7   8 4943.92 997.956  19
  -1  -7   8 5239.59 1081.38  11
  -1  -7   7 1942.34 736.880  19
  -1  -7   7 662.285 720.090  11
  -1  -7   6 1327.77 795.528   8
  -1  -7   6 1612.73 723.613  18
  -1  -7   6 963.353 795.921  11
  -1  -7   6 774.503 680.733  19
  -1  -7   5 4888.45 1054.90  19
  -1  -7   5 4871.57 987.781  18
  -1  -7   5 5099.58 1265.86   6
  -1  -7   5 4405.01 1018.27  11
  -1  -7   5 5441.02 1082.57   8
  -1  -7   4 6053.50 1903.43   4
  -1  -7   4 3979.15 1125.96   7
  -1  -7   4 5280.65 1063.28  11
  -1  -7   4 6249.56 1143.39  19
  -1  -7   4 5145.55 1059.60   8
  -1  -7   4 4319.60 942.611  18
  -1  -7   4 3405.33 1494.96   6
  -1  -7   3 7308.91 1415.31   7
  -1  -7   3 14090.6 2386.65   6
  -1  -7   3 9428.96 1314.73  18
  -1  -7   3 9530.34 1272.24  11
  -1  -7   3 10157.2 2191.76   4
  -1  -7   3 10746.1 2172.26   5
  -1  -7   3 10257.5 1379.44  19
  -1  -7   3 11405.4 1204.62  13
  -1  -7   3 9927.75 1353.03   8
  -1  -7   2 11403.0 1467.61   8
  -1  -7   2 9372.15 1142.39  13
  -1  -7   2 11601.3 1373.92  11
  -1  -7   2 11755.9 2245.34   6
  -1  -7   2 11919.7 1566.72   7
  -1  -7   2 11340.9 2253.07   5
  -1  -7   2 9603.27 1393.63  18
  -1  -7   1 9076.60 1389.90   8
  -1  -7   1 7588.40 1368.77   7
  -1  -7   1 5150.95 974.983  13
  -1  -7   1 5580.67 1488.54   5
  -1  -7   0 1634.88 929.406   7
  -1  -7   0 1823.25 774.315  13
  -1  -7   0 2058.02 850.262   8
  -1  -7  -1 12047.2 1431.57   8
  -1  -7  -1 11407.1 1313.71  13
  -1  -7  -2 822.873 695.202  13
  -1  -7  -3 1020.94 657.337  13
  -1  -7  -4 16092.7 1110.19  13
  -1  -8  10 3014.99 606.726  19
  -1  -8   9 28996.4 1781.23  19
  -1  -8   9 27878.5 1724.25  11
  -1  -8   8 9174.37 1256.44  11
  -1  -8   8 8180.67 1182.85  19
  -1  -8   7 1652.61 736.072  19
  -1  -8   7 1447.80 756.536  11
  -1  -8   7 1859.77 668.678   8
  -1  -8   6 524.522 706.137   8
  -1  -8   6 475.768 664.364  19
  -1  -8   6 997.111 781.910  11
  -1  -8   5 28427.8 2145.94  19
  -1  -8   5 29761.8 2142.26   8
  -1  -8   5 25251.9 1995.14  11
  -1  -8   4 643.858 836.542   8
  -1  -8   4-89.5971 695.793  19
  -1  -8   4 363.228 671.320  11
  -1  -8   3 28326.5 2160.62   8
  -1  -8   3 27004.5 1923.90  11
  -1  -8   3 25991.7 1700.01  13
  -1  -8   2 718.216 583.496  13
  -1  -8   2 948.470 779.981   8
  -1  -8   1 45166.3 2604.46   8
  -1  -8   1 46507.3 2336.26  13
  -1  -8   0 2334.65 859.962   8
  -1  -8   0 2643.17 774.226  13
  -1  -8  -1 580.187 665.911  13
  -1  -8  -2 806.371 562.847  13
  -1  -8  -3 1910.31 522.822  13
  -1  -9   9 4183.52 659.729  19
  -1  -9   8-184.090 444.747  19
  -1  -9   8 424.432 610.080  11
  -1  -9   7 13561.1 1296.39  19
  -1  -9   7 14317.7 1154.84   8
  -1  -9   7 13470.1 1322.74  11
  -1  -9   6 6848.49 1064.53  19
  -1  -9   6 7786.69 1015.09   8
  -1  -9   6 8814.09 1160.18  11
  -1  -9   5 2402.20 789.834  11
  -1  -9   5 1550.09 715.992   8
  -1  -9   4 7671.55 1166.27   8
  -1  -9   3 5327.78 1032.65   8
  -1  -9   3 4355.69 766.051  13
  -1  -9   2 924.186 737.647   8
  -1  -9   2 866.727 535.966  13
  -1  -9   1 1206.62 553.177  13
  -1  -9   1 1777.92 764.875   8
  -1  -9   0 487.816 476.666  13
  -1  -9  -1 11399.5 911.838  13
  -1 -10   6 5640.42 705.442   8
  -1 -10   5 1325.49 585.801   8
  -1 -10   4 5806.14 834.506   8
  -1 -10   3 942.477 566.215   8
  -1 -10   3 288.825 299.144  13
   2 -10   0 7205.94 864.409   7
   2 -10   1 7410.92 1018.42   7
   2 -10   2-333.800 616.861   7
   2 -10   3 21725.0 1764.01   7
   2 -10   4 6248.62 846.456  11
   2 -10   4 5189.23 1024.99   7
   2 -10   5 8575.89 1158.35   7
   2 -10   5 6427.45 893.300  11
   2 -10   6 609.065 492.269  11
   2 -10   7-519.087 540.133  11
   2  -9  -2 786.646 574.041  13
   2  -9  -1 2250.39 737.939  13
   2  -9  -1 3384.10 800.104   7
   2  -9   0 3719.27 939.844   7
   2  -9   0 1216.58 767.151  13
   2  -9   1 8004.19 1111.22  13
   2  -9   1 7787.88 1347.19   7
   2  -9   2 9903.38 1193.55  13
   2  -9   2 8855.03 1496.38   7
   2  -9   3 770.942 885.071   7
   2  -9   3 755.187 630.435  11
   2  -9   4-724.578 699.100   7
   2  -9   4-338.604 757.013  11
   2  -9   5 1260.46 858.749   7
   2  -9   5 1964.53 866.942  11
   2  -9   6 1203.45 916.941   7
   2  -9   6 1251.90 782.242  11
   2  -9   7 479.500 641.327  11
   2  -9   8 1707.02 720.167  11
   2  -9   9 6787.77 870.853  11
   2  -8  -4 236.243 370.914   9
   2  -8  -3 668.752 665.872  13
   2  -8  -3 849.061 435.568   9
   2  -8  -2 552.222 691.757   7
   2  -8  -2 499.729 642.891  13
   2  -8  -2 76.8564 421.801   9
   2  -8  -1 5942.47 1241.87   7
   2  -8  -1 6339.99 1077.96  13
   2  -8  -1 5628.51 828.699   9
   2  -8   0 3947.38 1082.92   7
   2  -8   0 4145.53 947.069  13
   2  -8   1 11757.4 1331.92  13
   2  -8   1 11906.3 1586.72   7
   2  -8   2 14135.0 1582.04   8
   2  -8   2 13336.1 1665.83   7
   2  -8   2 12802.3 1337.99  13
   2  -8   3-129.761 642.829  13
   2  -8   3 822.031 960.185   7
   2  -8   3 134.912 727.613  11
   2  -8   3 975.892 899.652   8
   2  -8   4 1493.06 712.630   7
   2  -8   4 295.603 719.225  11
   2  -8   4-95.2517 647.937   8
   2  -8   5 291.265 791.566  11
   2  -8   5-1506.15 914.938   7
   2  -8   6 1978.95 767.532   7
   2  -8   6-317.311 806.533  11
   2  -8   7 11670.7 1467.75  11
   2  -8   8 2764.07 854.855  11
   2  -8   9 4319.65 817.215  11
   2  -8   9 4644.91 745.368  10
   2  -8  10 6921.12 757.121  11
   2  -8  10 5682.02 649.168  10
   2  -7  -6 256.586 331.021   9
   2  -7  -5 3953.50 658.763   9
   2  -7  -4 6489.09 897.420   9
   2  -7  -4 9545.72 1066.32  13
   2  -7  -3 842.657 638.173  13
   2  -7  -3 1064.88 551.117   9
   2  -7  -2 83317.1 3504.13   7
   2  -7  -2 79320.1 3041.27  13
   2  -7  -2 79207.2 2847.03   9
   2  -7  -1 48961.5 2855.16   7
   2  -7  -1 51496.2 2230.11   9
   2  -7  -1 44628.2 3836.23   5
   2  -7  -1 48286.1 2414.93  13
   2  -7   0 51982.5 2882.47   7
   2  -7   0 46898.6 4151.43   5
   2  -7   0 52650.8 2750.13   8
   2  -7   0 48673.4 2389.79  13
   2  -7   0 48757.0 2095.73   9
   2  -7   1 28829.6 3126.09   4
   2  -7   1 32518.6 2323.92   7
   2  -7   1 37046.8 2265.48   8
   2  -7   1 38240.3 2084.29  13
   2  -7   1 33000.5 3341.66   5
   2  -7   2 21704.8 1634.80  11
   2  -7   2 18844.0 2687.75   4
   2  -7   2 22229.1 1940.79   7
   2  -7   2 20782.9 1744.91   8
   2  -7   2 24457.2 2812.70   5
   2  -7   2 19903.8 1531.25  13
   2  -7   3 2660.44 756.142  13
   2  -7   3 580.879 1366.64   4
   2  -7   3 1641.57 904.405  11
   2  -7   3 1949.78 1273.76   5
   2  -7   3 2192.18 778.722   8
   2  -7   3 3498.35 1070.63   7
   2  -7   4-130.770 1517.36   4
   2  -7   4-1086.70 767.865   7
   2  -7   4 631.542 694.905  11
   2  -7   5 7943.78 1869.68   4
   2  -7   5 8586.79 1337.30   7
   2  -7   5 8045.80 1251.86  11
   2  -7   6 16879.9 3089.83   4
   2  -7   6 24833.8 2039.02  11
   2  -7   7-541.035 760.963  11
   2  -7   7 557.197 640.909  10
   2  -7   8 18662.6 1684.46  11
   2  -7   8 18884.0 1584.63  10
   2  -7   9-1128.87 674.299  11
   2  -7   9 298.181 540.441  10
   2  -7  10 28079.9 1610.54  10
   2  -6  -7 6335.34 704.962   9
   2  -6  -6 3339.24 668.605   9
   2  -6  -5 202.804 506.193   9
   2  -6  -4-288.306 459.239   9
   2  -6  -4-280.671 662.973  13
   2  -6  -3 10847.0 1714.59   2
   2  -6  -3 12281.8 1225.45   9
   2  -6  -3 14875.0 1380.61  13
   2  -6  -2 24989.1 1976.00   7
   2  -6  -2 22641.4 2446.29   2
   2  -6  -2 25699.9 1731.86  13
   2  -6  -2 23019.0 2930.29   5
   2  -6  -2 25426.7 1637.29   9
   2  -6  -1 180078. 4939.70   7
   2  -6  -1 184913. 4011.47   9
   2  -6  -1 187624. 5814.81   2
   2  -6  -1 182024. 4248.48  13
   2  -6  -1 173965. 7025.88   5
   2  -6   0 5825.58 1447.43   5
   2  -6   0 8297.45 1252.86   7
   2  -6   0 8597.69 1028.03  13
   2  -6   0 7399.97 1115.88   8
   2  -6   0 8420.73 1553.29   4
   2  -6   1 58855.8 3925.13   5
   2  -6   1 58602.5 3622.78   4
   2  -6   2 273.324 1035.02   5
   2  -6   2 2510.32 1128.06   4
   2  -6   3 813.846 933.589   4
   2  -6   3 1369.75 825.005   6
   2  -6   3 1873.57 1122.90   5
   2  -6   4 1328.16 1260.64   4
   2  -6   4 354.019 650.538  11
   2  -6   4-1505.94 1107.00   5
   2  -6   5 1247.27 1250.93   4
   2  -6   5 1209.34 723.153  11
   2  -6   6 12550.7 2133.09   4
   2  -6   6 12278.9 1468.82  11
   2  -6   7 75488.8 4989.57   4
   2  -6   7 77090.9 3297.22  11
   2  -6   7 80993.5 3222.37  10
   2  -6   8 1652.00 815.994  11
   2  -6   8 2542.46 778.395  10
   2  -6   9 3328.63 826.282  11
   2  -6   9 3216.16 850.817  10
   2  -6  10 83.5098 524.655  10
   2  -6  11 5306.01 715.815  10
   2  -5  -8 2860.40 529.320   9
   2  -5  -7 4128.92 720.683   9
  -2   5   7 3570.51 839.676  14
  -2   5   6 539.877 585.872  14
   2  -5  -6 565.673 581.137   9
   2  -5  -5 65.7494 572.311   9
   2  -5  -4-2528.43 1226.88   2
  -2   5   4 447.808 1344.44   1
   2  -5  -4 55.4088 590.711   9
   2  -5  -3 27809.7 2562.62   2
   2  -5  -3 31371.1 1790.31  13
   2  -5  -3 31553.8 3059.23   5
   2  -5  -3 33334.3 1835.75   9
   2  -5  -2 2094.33 826.712   2
   2  -5  -2 2272.14 1077.14   5
   2  -5  -1 2503.04 912.243   2
   2  -5  -1 4133.48 1108.29   4
   2  -5  -1 4070.16 1188.72   5
   2  -5   0 6999.34 1088.71   2
   2  -5   0 7073.71 1412.34   5
   2  -5   0 5910.32 1258.20   4
   2  -5   1 270.094 751.201   4
   2  -5   1 348.958 489.490   2
   2  -5   1 605.173 873.941   5
   2  -5   2 4593.47 1241.79   4
   2  -5   2 3748.71 1168.99   5
   2  -5   3 820.414 897.065   4
   2  -5   3 792.715 738.471   6
   2  -5   3 311.122 753.437   5
   2  -5   4 7648.74 1599.11   4
   2  -5   4 5433.80 1207.22   5
   2  -5   5 47656.6 3541.31   4
   2  -5   6 663.853 1373.09   4
   2  -5   6 1218.08 719.305  11
   2  -5   7 26003.0 2812.13   4
   2  -5   7 26543.1 1919.32  11
   2  -5   8-140.226 750.090  11
   2  -5   8-253.729 645.985  10
   2  -5   9 882.367 690.018  10
   2  -5  10 17604.4 1517.62  10
   2  -5  11 386.398 477.314  10
   2  -4  -9 3251.36 503.794   9
  -2   4   9 2345.75 570.840  14
   2  -4  -8-351.910 476.444   9
  -2   4   8 688.957 632.577  14
   2  -4  -7 662.883 531.895   9
  -2   4   7 1206.38 697.449  14
   2  -4  -6 2461.41 703.062   9
  -2   4   6-242.249 579.787  14
  -2   4   5 18197.9 1580.22  14
   2  -4  -5 17095.5 1431.73   9
   2  -4  -5 18519.4 2488.40   2
   2  -4  -4 11004.8 1111.03   9
   2  -4  -4 8640.71 1673.63   5
   2  -4  -4 10905.6 1723.32   2
   2  -4  -3 9024.71 1448.73   2
   2  -4  -3 7605.17 1557.56   5
   2  -4  -2 793.223 960.572   5
   2  -4  -2 1195.01 645.339   2
   2  -4  -1 6950.58 1032.88   4
   2  -4  -1 7967.29 1111.95   2
   2  -4  -1 8012.22 1394.34   5
   2  -4   0 51224.9 2901.16   5
   2  -4   0 53474.4 2315.95   2
   2  -4   0 52074.2 2592.96   4
   2  -4   1 32094.0 2195.32   4
   2  -4   1 31090.7 2208.80   5
   2  -4   1 28860.4 1589.69   2
   2  -4   2 76716.2 2642.99   6
   2  -4   2 76980.1 2255.11   1
   2  -4   2 77918.2 3243.94   5
   2  -4   2 76334.5 2385.27   2
   2  -4   2 74348.3 3367.15   4
   2  -4   3 35801.6 1675.32   1
   2  -4   3 34914.3 1737.94   6
   2  -4   3 36107.0 2581.28   4
   2  -4   3 36907.7 2237.56   5
   2  -4   4 9612.24 1564.67   4
   2  -4   4 10552.5 1282.58   5
   2  -4   4 8392.04 1038.73   1
   2  -4   5 98544.6 4642.04   4
   2  -4   6 6585.15 991.080  17
   2  -4   6 7832.55 1834.01   4
   2  -4   7 1854.14 624.252  11
   2  -4   7-708.833 1382.77   4
   2  -4   8 8524.79 1242.63  10
   2  -4   9 3920.40 887.998  10
   2  -4  10 12279.6 1286.49  10
   2  -4  11 244.178 469.181  10
  -2   3   9 1648.33 742.227  14
   2  -3  -9 483.036 428.522   9
   2  -3  -8 156.584 478.640   9
  -2   3   8 761.184 772.258  14
  -2   3   7 24195.5 1970.66  14
   2  -3  -7 24909.8 1720.71   9
   2  -3  -6-552.922 1280.53   2
  -2   3   6 1214.82 751.209  14
   2  -3  -6 1.78539 537.762   9
  -2   3   5 6613.68 1079.15  14
   2  -3  -5 10121.4 1597.20   2
   2  -3  -5 6269.71 1433.87   5
   2  -3  -4 11450.1 1604.87   2
   2  -3  -3 195719. 5309.73   2
   2  -3  -2 26975.7 1315.01   4
   2  -3  -2 27006.3 1826.68   2
  -2   3   2 27686.0 1326.17   3
   2  -3  -1 47066.7 2149.41   2
   2  -3  -1 43220.9 1894.92   4
   2  -3   0 75774.2 2368.01   1
   2  -3   0 72817.1 2651.22   4
   2  -3   0 73524.5 2423.08   2
   2  -3   1 10195.6 907.627   1
   2  -3   1 11138.2 1214.94   5
   2  -3   2 33720.6 1607.59   1
   2  -3   2 37617.2 1411.75   6
   2  -3   2 35779.4 1952.26   5
   2  -3   3 35345.5 1797.81   1
   2  -3   3 34993.9 1313.03   6
   2  -3   3 35839.3 1763.03   5
   2  -3   4 11407.1 1259.14   1
   2  -3   5 7531.20 1243.88   1
   2  -3   6 99810.1 4269.62   1
   2  -3   7 2363.34 1313.10   1
   2  -3   8 84959.3 3413.84  10
   2  -3   9 1046.73 710.725  10
   2  -3  10 11311.7 1230.25  10
   2  -3  11 7969.07 840.944  10
  -2   2  10 3951.69 739.596  14
   2  -2  -9 8218.72 903.381   9
  -2   2   9 7597.87 1168.35  14
  -2   2   8 3667.34 992.642  14
   2  -2  -8 4561.16 816.730   9
  -2   2   7 4079.33 1360.91   1
  -2   2   7 5904.45 1150.10  14
   2  -2  -7 7954.61 1576.61   2
  -2   2   6 842.069 893.093  14
   2  -2  -6 435.994 764.290   2
  -2   2   5 32126.8 2140.19   3
   2  -2  -5 31008.1 2406.06   2
   2  -2  -4 5851.79 1103.67   2
  -2   2   4 4615.11 827.841   3
  -2   2   3 262245. 4500.94   3
   2  -2  -3 260933. 5429.93   2
   2  -2  -2 691.047 346.952   4
  -2   2   2 352.362 389.016   3
   2  -2  -2 532.265 554.394   2
   2  -2  -1 142310. 3278.87   1
   2  -2  -1 142159. 3236.18   2
   2  -2   0 1912.06 542.676   1
   2  -2   1 119503. 2863.86   1
   2  -2   2 33714.7 1450.68   5
   2  -2   2 36679.0 1733.39   1
   2  -2   3 87196.1 2945.95   1
   2  -2   3 83194.2 1773.06   5
   2  -2   4 2457.98 826.676   1
   2  -2   5 242824. 6270.90   1
   2  -2   6 2869.66 1006.45   1
   2  -2   7 31272.4 1969.39  10
   2  -2   7 30804.6 2923.21   1
  -2   2  -7 29070.6 1659.58  16
   2  -2   8 5029.28 927.174  10
   2  -2   9 2254.43 708.812  14
   2  -2   9 2882.55 860.570  10
   2  -2  10-316.516 522.774  14
   2  -2  10 1329.25 634.114  10
  -2   1  10 977.130 623.454  14
  -2   1   9 47707.4 2631.70  14
  -2   1   8 26982.9 2080.35  14
   2  -1  -8 25295.9 1596.61   9
  -2   1   7-22.6902 592.537  14
   2  -1  -7-133.636 1095.93   2
  -2   1   6 5452.61 980.173  14
   2  -1  -6 6201.13 1209.75   2
  -2   1   6 6180.61 1291.12   3
  -2   1   5 10196.5 1300.49   3
   2  -1  -5 9761.76 1326.09   2
   2  -1  -4 8593.47 1092.46   2
  -2   1   4 8756.06 1057.01   3
  -2   1   3 4204.11 668.666   3
   2  -1  -3 5562.43 829.319   2
   2  -1  -2 7466.62 837.876   2
  -2   1   2 7733.17 791.679   3
   2  -1  -1 124002. 2857.12   1
   2  -1   0 240.739 393.560   1
   2  -1   1 923.353 519.818   1
   2  -1   2 222033. 4363.14   1
   2  -1   2 221738. 2443.12   5
   2  -1   3 4015.21 889.701   1
   2  -1   4 105233. 3906.18   1
   2  -1   5 1611.53 836.984   1
   2  -1   6 6128.69 1437.18   1
  -2   1  -6 3682.17 791.036  16
  -2   1  -7 18092.4 1443.94  16
   2  -1   7 16220.8 2349.24   1
   2  -1   7 17916.3 1537.35  10
  -2   1  -8 6167.07 915.511  16
   2  -1   8 4653.21 942.667  10
   2  -1   9-462.149 564.409  14
   2  -1  10 1705.14 573.988  14
  -2   0  11-199.863 461.845  14
  -2   0  10 1060.24 662.663  14
  -2   0   9 2676.97 898.457  14
  -2   0   8 15554.4 1581.08  14
  -2   0   8 11702.9 1873.56   1
  -2   0   8 12268.9 1438.12  10
  -2   0   8 12826.0 2115.60   3
  -2   0   7 8474.07 1216.68  14
   2   0  -7 10046.2 1465.59   2
  -2   0   7 7937.94 1414.52   3
  -2   0   7 7786.09 1146.27  10
   2   0  -6 2317.65 822.856   2
  -2   0   6 2333.58 868.251   3
   2   0  -5 669.620 581.960   2
  -2   0   5 1449.11 641.068   3
  -2   0   4 13459.1 1257.02   3
   2   0  -4 14578.5 1233.77   2
  -2   0   3 8988.96 953.418   3
   2   0  -3 11699.5 995.180   2
   2   0  -2 23063.8 1314.57   1
  -2   0   2 23751.7 1247.06   3
   2   0  -1 23814.5 1264.66   1
  -2   0   0 353280. 3650.50   6
   2   0   0 359735. 4768.25   1
  -2   0  -1 155911. 2033.08   6
   2   0   1 151724. 3421.85   1
   2   0   2 3025.43 779.191   1
   2   0   3 56233.8 2765.34   1
   2   0   4 86901.7 3794.61   1
   2   0   5 3438.33 1162.52   1
  -2   0  -6 11124.3 1160.39  16
   2   0   6 8919.97 1785.12   1
   2   0   7 15068.4 2373.21   1
  -2   0  -7 16849.2 1456.39  16
  -2   0  -8 27025.9 1765.76  16
   2   0   9 556.464 569.472  14
   2   0  10 711.605 444.575  14
  -2  -1  11-249.420 428.133  14
  -2  -1  10-279.208 650.926  14
  -2  -1   9 12135.4 1401.84  14
  -2  -1   9 12406.7 1493.60  10
  -2  -1   8 2885.84 904.952  14
  -2  -1   8 2585.61 1094.95   1
  -2  -1   8 1798.69 852.279  10
  -2  -1   8 5302.48 1533.98   3
  -2  -1   7 10326.3 1256.51  14
  -2  -1   7 11465.2 1730.14   3
  -2  -1   7 11058.6 1314.47  10
   2   1  -6 4422.60 916.561   2
  -2  -1   6 5587.68 1157.66   3
   2   1  -5 8842.96 1021.49   2
  -2  -1   5 9106.72 1262.79   3
   2   1  -4 28737.5 1456.45   2
  -2  -1   4 30218.9 1839.50   3
   2   1  -3 61.1040 358.874   2
  -2  -1   3-10.9185 424.774   3
  -2  -1   2 90990.1 2425.27   3
   2   1  -2 93297.8 2372.84   1
   2   1  -1 8245.52 786.652   1
  -2  -1   1 8636.59 932.499   6
  -2  -1   0 20790.9 1202.95   6
   2   1   0 22545.3 1327.25   1
   2   1   1 4162.62 772.029   1
  -2  -1  -1 2938.51 596.913   6
   2   1   2 41.1977 538.982   1
   2   1   3 25653.7 2055.03   1
   2   1   4 39042.0 2810.99   1
  -2  -1  -5 659.703 622.925  16
   2   1   5-986.484 873.850   1
  -2  -1  -6 40105.4 2178.50  16
   2   1   6 37724.4 3491.98   1
  -2  -1  -7-30.9514 595.385  16
  -2  -1  -8 3896.73 820.679  16
   2   1   8 3732.69 956.595  14
   2   1   9 501.098 532.065  14
  -2  -2  11 1074.70 504.267  14
  -2  -2  10 741.351 693.382  14
  -2  -2   9 4837.44 1020.78  10
  -2  -2   9 5570.05 1012.16  14
  -2  -2   8 21610.2 1743.74  14
  -2  -2   8 20243.4 1763.59  10
  -2  -2   8 17490.1 2441.05   3
  -2  -2   7 1397.49 684.588  14
  -2  -2   7 1960.64 961.263   3
  -2  -2   7-40.4694 582.687  10
  -2  -2   6 4104.57 1095.79   3
  -2  -2   5 26218.0 1993.36   3
  -2  -2   4 90428.8 3226.38   3
  -2  -2   4 99411.0 3048.79   4
   2   2  -3 637.292 344.905   2
  -2  -2   3 486.972 466.741   3
  -2  -2   3 359.879 699.560   6
  -2  -2   3-96.8583 655.085   4
  -2  -2   2 54804.2 2382.16   4
  -2  -2   2 55784.5 1971.91   3
   2   2  -2 53269.4 1752.41   1
  -2  -2   2 50325.3 2444.76   6
  -2  -2   1 28983.1 1284.74   3
  -2  -2   1 26648.2 1743.10   6
   2   2  -1 27960.8 1387.08   1
  -2  -2   0 36450.6 1316.62   3
  -2  -2   0 35947.4 1879.25   6
   2   2   0 37920.8 1784.36   1
   2   2   1 1335.55 623.724   1
  -2  -2  -1 2182.57 691.048   6
   2   2   2 2936.39 844.595   1
   2   2   3 10890.0 1509.57   1
   2   2   4 5288.68 1325.92   1
  -2  -2  -4 3969.34 710.513  16
  -2  -2  -5 32874.4 1960.62  16
   2   2   5 34214.1 3195.51   1
  -2  -2  -6 1972.14 724.899  16
  -2  -2  -7 9080.91 1142.94  16
   2   2   8 19125.2 1567.60  14
   2   2   9-1099.86 510.012  14
  -2  -3  11 4935.87 948.236  19
  -2  -3  10 49811.3 2788.85  19
  -2  -3  10 48751.0 2634.37  10
  -2  -3   9 2888.58 920.826  10
  -2  -3   8 17317.4 2795.55   6
  -2  -3   8 17550.3 1661.16  10
  -2  -3   8 13159.5 2203.57   3
  -2  -3   7 25018.4 2540.85   3
  -2  -3   7 20811.4 2558.74   6
  -2  -3   7 25546.1 1838.98  10
  -2  -3   6 4378.76 1336.48   6
  -2  -3   6 2683.48 1045.09   3
  -2  -3   5 4779.21 1085.39   4
  -2  -3   5 8584.27 1305.64   3
  -2  -3   5 9128.22 1529.16   6
  -2  -3   4 1621.81 841.657   4
  -2  -3   4 616.512 812.118   6
  -2  -3   4 940.010 662.201   3
  -2  -3   3 20563.4 1828.36   4
  -2  -3   3 20333.8 1452.89   3
  -2  -3   3 20766.9 1943.73   6
   2   3  -2 88042.7 2084.64   1
  -2  -3   2 87305.8 3490.24   4
  -2  -3   2 83949.8 2518.53   3
  -2  -3   2 82034.7 3477.59   6
   2   3  -1 24697.0 1350.12   1
  -2  -3   1 23843.7 1174.73   3
  -2  -3   1 25711.7 1971.53   6
  -2  -3   1 22001.7 1818.74   5
   2   3   0 811.329 589.985   1
  -2  -3   0 1447.57 753.836   6
  -2  -3   0 1470.27 827.672   5
  -2  -3  -1 33557.5 2255.14   6
  -2  -3  -1 31401.9 2049.12   5
   2   3   2 23770.3 2094.99   1
  -2  -3  -3 360.049 477.255  16
   2   3   3 950.905 857.223   1
  -2  -3  -4 1232.54 642.306  16
   2   3   4-12.6616 1194.46   1
  -2  -3  -5 13790.9 1384.95  16
  -2  -3  -5 12731.4 1236.37  13
  -2  -3  -6 3797.21 811.363  16
   2   3   7 18173.0 1558.89  14
   2   3   8 2173.53 637.896  14
  -2  -4  11 246.447 538.692  19
  -2  -4  10 8769.25 1299.40  19
  -2  -4  10 8853.16 1223.07  10
  -2  -4   9 3955.67 990.147  19
  -2  -4   9 2962.80 907.479  10
  -2  -4   8 220.498 605.055  10
  -2  -4   8 176.696 764.623   3
  -2  -4   8 1400.42 755.896  19
  -2  -4   7 420.726 574.536  19
  -2  -4   7 2590.34 813.733  11
  -2  -4   7-86.5501 1219.79   6
  -2  -4   7 1677.15 984.212   3
  -2  -4   7-1747.51 708.391  10
  -2  -4   6-1743.47 616.294  11
  -2  -4   6 1084.24 948.403   6
  -2  -4   6 443.963 730.370   3
  -2  -4   6 738.282 650.453  19
  -2  -4   5 1413.42 841.417   6
  -2  -4   5 667.193 765.801   3
  -2  -4   4 61340.7 2896.22   3
  -2  -4   4 65408.4 3769.55   6
  -2  -4   4 60712.3 3365.60   4
  -2  -4   3 3355.38 1154.74   4
  -2  -4   3 3692.71 1139.47   6
  -2  -4   3 2572.53 679.061   3
  -2  -4   2 69995.4 3663.58   4
  -2  -4   2 79859.3 3831.56   6
  -2  -4   2 75189.9 3742.09   5
  -2  -4   1 503.237 731.092   5
  -2  -4   1 538.895 774.739   6
  -2  -4   0 9347.32 1473.81   6
  -2  -4   0 7557.63 1321.24   5
  -2  -4  -1 102.862 737.094   5
  -2  -4  -2 5837.48 839.784  16
  -2  -4  -3 2330.64 690.274  16
  -2  -4  -3 1238.13 685.870  13
  -2  -4  -4 15443.6 1373.51  16
  -2  -4  -4 14582.9 1423.18  13
  -2  -4  -5 3538.02 774.421  16
  -2  -4  -5 2921.01 736.775  13
   2   4   6 19300.1 1550.41  14
   2   4   7 6861.80 850.681  14
  -2  -5  11 1096.64 581.430  19
  -2  -5  10 372.236 643.815  19
  -2  -5   9 2118.49 840.774  19
  -2  -5   9 1651.85 801.246  10
  -2  -5   8-265.757 574.907  10
  -2  -5   8 83.7623 643.845  19
  -2  -5   7 1872.00 845.342  19
  -2  -5   7 2502.09 958.363  11
  -2  -5   7 1341.63 1464.71   6
  -2  -5   7 3633.84 1530.21   3
  -2  -5   6 62963.2 4068.84   4
  -2  -5   6 63763.3 3039.93  19
  -2  -5   6 67203.4 2955.49   8
  -2  -5   6 63988.4 3879.71   3
  -2  -5   6 72512.1 4787.11   6
  -2  -5   6 69849.3 3021.94  11
  -2  -5   5 1779.20 759.390   8
  -2  -5   5 1384.76 724.721  19
  -2  -5   5 1876.86 1372.27   4
  -2  -5   5 2637.61 844.481  11
  -2  -5   5 1311.70 1119.66   6
  -2  -5   5 2492.00 1020.98   3
  -2  -5   5 4190.93 873.227  18
  -2  -5   4 48457.0 3501.77   4
  -2  -5   4 52881.1 2580.93  19
  -2  -5   4 46223.6 2466.95   8
  -2  -5   4 48698.0 2354.80  18
  -2  -5   4 50272.6 3654.29   6
  -2  -5   4 49469.2 2455.54  11
  -2  -5   3 2303.30 1257.71   4
  -2  -5   3 655.935 996.463   6
  -2  -5   2 1101.39 1062.95   6
  -2  -5   2 1097.40 881.236   5
  -2  -5   1 5153.66 969.581  18
  -2  -5   1 3870.95 875.996   8
  -2  -5   1 5925.65 834.078  13
  -2  -5   1 5569.27 1469.95   6
  -2  -5   1 2853.95 1152.63   5
  -2  -5   1 6522.32 1040.33  19
  -2  -5   1 5219.94 972.722   7
  -2  -5   0 100.027 557.232  13
  -2  -5   0 561.058 855.330   5
  -2  -5   0 906.272 657.863  18
  -2  -5   0 54.7842 735.056   8
  -2  -5  -1 34222.7 2025.34  13
  -2  -5  -1 35316.9 2107.62   8
  -2  -5  -1 34319.1 2044.07  18
  -2  -5  -2 15971.9 1519.84  13
  -2  -5  -3 2565.02 689.007  16
  -2  -5  -3 4551.07 948.822  13
  -2  -5  -4 27871.8 1799.47  13
  -2  -5  -4 26558.6 1641.79  16
   2   5   5 3534.10 811.694  14
  -2  -5  -5 3216.15 743.117  13
  -2  -5  -6 1103.51 387.421   9
  -2  -6  11 8250.68 944.240  19
  -2  -6  10 8098.15 1097.83  19
  -2  -6   9 903.412 653.090  11
  -2  -6   9 497.112 672.515  19
  -2  -6   8 23002.7 1821.65  11
  -2  -6   8 24452.1 2020.33  19
  -2  -6   7 10154.8 1417.41  19
  -2  -6   7 9953.28 1395.55  11
  -2  -6   7 12234.7 1482.01   8
  -2  -6   6 147808. 4560.50   8
  -2  -6   6 159204. 7228.92   6
  -2  -6   6 152519. 4647.80  11
  -2  -6   6 147638. 4758.79  19
  -2  -6   6 155645. 6681.57   4
  -2  -6   6 154089. 4280.45  18
  -2  -6   5-92.3914 686.214   8
  -2  -6   5 618.142 604.040  11
  -2  -6   5 567.789 1381.25   6
  -2  -6   5 686.302 753.145  19
  -2  -6   5 1964.07 768.840  18
  -2  -6   4 24873.0 2008.43   8
  -2  -6   4 23784.5 1936.35  19
  -2  -6   4 26949.7 1961.75  18
  -2  -6   4 27701.1 3002.47   6
  -2  -6   4 25871.3 1940.79  11
  -2  -6   4 26226.1 2885.21   4
  -2  -6   3 19178.8 1691.16  18
  -2  -6   3 21022.1 1857.26   8
  -2  -6   3 19971.7 1427.22  13
  -2  -6   3 23795.8 2786.76   6
  -2  -6   3 19897.7 1720.82  11
  -2  -6   3 19513.9 1722.15  19
  -2  -6   2 3829.25 966.131   8
  -2  -6   2 4740.14 973.952  19
  -2  -6   2 2813.51 798.344  13
  -2  -6   2 5255.88 1536.10   6
  -2  -6   2 4716.96 1058.14  18
  -2  -6   1 4177.03 1341.85   6
  -2  -6   1 4036.66 875.158  13
  -2  -6   1 4865.15 1017.89  18
  -2  -6   1 4035.29 957.165   8
  -2  -6   0 936.523 681.786  13
  -2  -6   0 826.696 691.694  18
  -2  -6   0 1188.90 802.391   8
  -2  -6  -1 3414.77 859.510  13
  -2  -6  -1 3172.90 860.958   8
  -2  -6  -2 34821.1 2099.12  13
  -2  -6  -3 1280.88 642.173  13
  -2  -6  -4 884.866 415.161   9
  -2  -6  -4 2703.20 693.020  13
  -2  -7  10 3276.86 741.295  19
  -2  -7   9 17076.6 1539.28  19
  -2  -7   8 4695.77 1032.18  11
  -2  -7   8 4881.78 1068.57  19
  -2  -7   7 12144.4 1523.04  19
  -2  -7   7 13829.4 1562.44  11
  -2  -7   7 11875.9 1367.16   8
  -2  -7   6 1026.82 697.515   8
  -2  -7   6 993.987 817.160  11
  -2  -7   6 881.979 716.783  18
  -2  -7   6 757.030 772.036  19
  -2  -7   5 2461.54 905.607   8
  -2  -7   5 2721.45 854.665  18
  -2  -7   5 3801.46 1025.22  11
  -2  -7   5 2313.81 934.252  19
  -2  -7   4 1570.58 845.990   8
  -2  -7   4 2747.61 862.852  11
  -2  -7   4 2136.41 842.910  19
  -2  -7   4 2339.45 864.970  18
  -2  -7   3 3742.03 786.500  13
  -2  -7   3 2105.14 904.783   8
  -2  -7   3 3275.58 906.634  19
  -2  -7   3 3742.24 1059.41  18
  -2  -7   2 3217.03 975.150  18
  -2  -7   2 2293.42 722.260  13
  -2  -7   2 2302.29 941.569   8
  -2  -7   1 3687.84 842.260  13
  -2  -7   1 2445.63 933.150  18
  -2  -7   1 3415.95 967.283   8
  -2  -7   0 7039.48 1080.22  13
  -2  -7   0 7079.15 1170.53   8
  -2  -7  -1 16021.8 1450.62  13
  -2  -7  -1 17347.1 1511.38   8
  -2  -7  -2 3151.65 823.953  13
  -2  -7  -3 17345.2 1223.96  13
  -2  -8   9 758.275 588.144  19
  -2  -8   8 3699.51 872.373  19
  -2  -8   7 3819.70 805.758   8
  -2  -8   7 5376.94 1067.82  11
  -2  -8   7 4577.03 999.485  19
  -2  -8   6 29183.4 2061.47  11
  -2  -8   6 26681.7 2020.19  19
  -2  -8   6 24404.9 1865.77   8
  -2  -8   5 50.1601 632.362  18
  -2  -8   5 67.7049 717.090  19
  -2  -8   5-185.650 631.403   8
  -2  -8   4 3481.39 947.006  18
  -2  -8   4 2533.02 941.627   8
  -2  -8   3 197.639 746.871   8
  -2  -8   3-1599.08 622.100  13
  -2  -8   2 1329.27 605.008  13
  -2  -8   2 1518.66 841.581   8
  -2  -8   1 6762.77 1130.74   8
  -2  -8   1 6705.95 970.703  13
  -2  -8   0 1106.99 660.207   8
  -2  -8   0-138.774 578.670  13
  -2  -8  -1 15851.9 1239.66  13
  -2  -8  -2 5563.47 716.400  13
  -2  -9   8 4742.65 745.580  19
  -2  -9   7 1749.76 530.045   8
  -2  -9   6 2297.13 675.423   8
  -2  -9   5 603.148 613.084   8
  -2  -9   4 301.632 623.582   8
  -2  -9   3 133.526 614.469   8
  -2  -9   3 297.500 404.703  13
  -2  -9   2-36.0826 444.673  13
  -2  -9   2 265.983 593.996   8
  -2  -9   1 2642.61 569.915  13
  -2  -9   1 3708.09 768.983   8
   3 -10   0 4301.50 819.733   7
   3 -10   1 5856.78 938.901   7
   3 -10   2 17900.0 1609.41   7
   3 -10   3 965.473 832.762   7
   3 -10   4-122.933 759.581   7
   3 -10   4 627.284 497.441  11
   3 -10   5 5290.52 906.807   7
   3 -10   5 5376.91 817.218  11
   3 -10   6 839.396 507.683  11
   3 -10   7 9355.74 947.492  11
   3  -9  -3 1064.47 337.852   9
   3  -9  -2 2221.99 668.409   7
   3  -9  -2 1604.17 428.559   9
   3  -9  -1 245.533 365.702   9
   3  -9  -1 1113.47 642.547   7
   3  -9   0 27918.1 2072.74   7
   3  -9   1 6983.35 1210.72   7
   3  -9   2 350.966 805.298   7
   3  -9   3 22573.8 2013.04   7
   3  -9   3 18471.3 1512.96  11
   3  -9   4 18.5330 656.102  11
   3  -9   4-624.016 668.912   7
   3  -9   5 12091.0 1382.88   7
   3  -9   5 13187.5 1439.18  11
   3  -9   6 955.722 761.458  11
   3  -9   7 6948.16 1063.37  11
   3  -9   8 10740.6 1137.74  11
   3  -8  -4 2928.68 577.567   9
   3  -8  -3-112.491 443.462   9
   3  -8  -2-662.109 658.290   7
   3  -8  -2 561.360 632.168  13
   3  -8  -2 813.375 547.176   9
   3  -8  -1 598.767 644.353  13
   3  -8  -1-525.084 784.782   7
   3  -8  -1 87.4109 418.611   9
   3  -8   0 7049.01 1297.63   7
   3  -8   0 5732.03 1005.37  13
   3  -8   0 6976.29 899.049   9
   3  -8   1 24813.5 2158.84   7
   3  -8   1 23925.3 1792.33  13
   3  -8   2 24041.3 2088.40   7
   3  -8   3 29551.5 2295.10   7
   3  -8   3 30315.6 2073.31  11
   3  -8   4 8687.01 1259.42  11
   3  -8   4 10435.5 1491.07   7
   3  -8   5 434.673 759.749  11
   3  -8   5-862.152 678.996   7
   3  -8   6 1937.27 903.411  11
   3  -8   7 4786.66 1049.90  11
   3  -8   7 5267.72 835.556  10
   3  -8   8 1019.05 728.410  11
   3  -8   8 772.784 529.427  10
   3  -8   9 16928.0 1269.57  11
   3  -8   9 17447.0 1196.22  10
   3  -7  -6 866.636 339.446  12
   3  -7  -6 849.455 379.089   9
   3  -7  -5 782.626 457.851   9
   3  -7  -4 692.075 496.361   9
   3  -7  -3 2407.17 874.782   7
   3  -7  -3 1883.27 697.214  13
   3  -7  -3 1238.99 594.892   9
   3  -7  -2 19261.4 1404.46  12
   3  -7  -2 17289.8 1786.72   7
   3  -7  -2 19457.3 1498.84   9
   3  -7  -2 20322.0 1628.45  13
   3  -7  -1-83.4742 836.546   7
   3  -7  -1-525.375 650.282  13
   3  -7  -1 424.620 540.443   9
   3  -7  -1-2161.24 1288.96   5
   3  -7   0 116111. 4344.29   7
   3  -7   0 123011. 3744.41  13
   3  -7   0 126348. 6558.77   5
   3  -7   0 126893. 3445.92   9
   3  -7   1 16474.1 2628.20   4
   3  -7   1 19579.9 1887.08   7
   3  -7   1 23712.7 1741.93  13
   3  -7   1 22016.2 1462.05   9
   3  -7   1 18954.2 2625.02   5
   3  -7   2 15978.9 1760.05   7
   3  -7   2 14459.3 1366.51  13
   3  -7   2 13257.6 1382.53  11
   3  -7   2 13919.0 2244.21   5
   3  -7   2 10095.8 2297.90   4
   3  -7   3 5045.56 2035.83   4
   3  -7   3 5275.37 1125.02   7
   3  -7   3 6039.46 1082.91  11
   3  -7   3 5207.11 1501.12   5
   3  -7   4 5068.90 1124.37   7
   3  -7   4 3886.20 1003.33  11
   3  -7   5 9928.81 2400.17   4
   3  -7   5 10312.9 1395.87  11
   3  -7   6-200.549 792.252  11
   3  -7   7 15440.2 1655.17  11
   3  -7   8 5258.37 1022.53  11
   3  -7   8 5222.43 950.913  10
   3  -7   9 1527.71 613.346  11
   3  -7   9 1721.25 649.538  10
   3  -7  10 342.640 424.831  10
   3  -6  -7 9374.56 805.851   9
   3  -6  -6 243.148 469.153   9
   3  -6  -5 3053.39 734.902   9
   3  -6  -4 932.265 548.244   9
   3  -6  -3 8552.45 1558.65   2
   3  -6  -3 7932.46 1068.82  13
   3  -6  -3 8729.18 1307.02   7
   3  -6  -3 8858.68 1105.70   9
   3  -6  -3 5679.63 1515.69   5
   3  -6  -2 6919.02 2159.76   5
   3  -6  -2 6898.03 1589.37   2
   3  -6  -2 9813.96 1352.87   7
   3  -6  -2 8117.82 1084.76  13
   3  -6  -2 7691.77 969.825   9
   3  -6  -1 4996.24 1260.75   2
   3  -6  -1 7347.59 1203.50   7
   3  -6  -1 5362.83 922.466  13
   3  -6  -1 5339.77 790.854   9
   3  -6  -1 6636.76 1847.07   5
   3  -6   0 49530.6 2666.30   7
   3  -6   0 47834.1 3281.57   4
   3  -6   0 55910.2 2385.85  13
   3  -6   0 47668.8 3833.41   5
   3  -6   0 49866.3 2094.08   9
   3  -6   0 56219.4 3173.92   2
   3  -6   1 9088.11 1046.11  13
   3  -6   1 8889.05 1306.61   7
   3  -6   1 9640.16 1881.50   5
   3  -6   1 6527.59 1391.83   4
   3  -6   2 2592.43 1107.90   4
   3  -6   2 3356.69 733.446  13
   3  -6   2 4232.36 974.859   7
   3  -6   2 2166.82 1291.00   5
   3  -6   3 1173.45 1093.48   4
   3  -6   3 1602.03 1223.60   5
   3  -6   4 624.898 1184.03   4
   3  -6   4 1518.09 931.526   7
   3  -6   4 1114.06 697.011  11
   3  -6   4 1886.23 699.018  17
   3  -6   5 5781.82 1640.82   4
   3  -6   5 9997.38 1319.61  11
   3  -6   5 8869.16 1174.07  17
   3  -6   6-168.182 696.071  11
   3  -6   6-984.713 1432.13   4
   3  -6   7 4972.39 1086.76  11
   3  -6   8 4817.19 1035.38  11
   3  -6   8 5395.59 980.972  10
   3  -6   9 4403.41 836.737  11
   3  -6   9 5767.95 965.852  10
   3  -6  10 776.350 541.255  10
   3  -5  -8 2283.62 475.393   9
  -3   5   7 2089.44 707.683  14
   3  -5  -7 4427.84 767.899   9
  -3   5   6 1468.57 620.852  14
   3  -5  -6 1908.11 679.368   9
   3  -5  -5 9295.64 1136.28   9
   3  -5  -4 6451.45 1485.26   2
   3  -5  -4 4272.58 826.839   9
   3  -5  -4 4452.20 2095.02   5
   3  -5  -3-343.617 633.307   7
   3  -5  -3 100.890 916.472   2
   3  -5  -3 536.743 588.430  13
   3  -5  -3 175.080 443.002   9
   3  -5  -2 26268.1 1920.94   7
   3  -5  -2 19881.4 2454.73   5
   3  -5  -2 29380.4 1645.29   9
   3  -5  -2 23175.6 2279.18   2
   3  -5  -1 26309.4 2700.63   5
   3  -5  -1 30437.8 2331.47   2
   3  -5   0 16309.3 1796.66   4
   3  -5   0 13708.9 1978.52   5
   3  -5   0 14174.5 1550.71   2
   3  -5   1 2431.82 843.914   2
   3  -5   1 3217.47 1172.58   4
   3  -5   1 1830.24 1043.34   5
   3  -5   2 5268.33 1374.33   5
   3  -5   2 3550.43 956.396   2
   3  -5   2 5529.14 1359.01   4
   3  -5   3 8306.00 1621.88   4
   3  -5   3 9415.51 1495.84   5
   3  -5   4 7448.39 1753.12   4
   3  -5   5 305.417 588.217  17
   3  -5   5-89.6213 1272.68   4
   3  -5   6 11105.3 2151.33   4
   3  -5   6 9227.70 1178.75  17
   3  -5   7 11871.6 2930.10   4
   3  -5   7 11978.7 1429.29  11
   3  -5   8 21669.8 1686.95  11
   3  -5   8 23250.2 1857.57  10
   3  -5   9 8264.43 1143.71  10
   3  -5  10 2266.47 685.054  10
  -3   4   9 4613.37 694.866  14
   3  -4  -9 2677.48 443.321   9
  -3   4   8 829.180 592.231  14
   3  -4  -8 706.986 423.316   9
  -3   4   7 3679.75 930.092  14
   3  -4  -7 3485.52 750.884   9
  -3   4   6 1640.34 714.423  14
   3  -4  -6 1577.74 712.437   9
  -3   4   5 6.28047 771.093  14
   3  -4  -5 198.461 907.351   2
   3  -4  -5-46.7098 506.846   9
   3  -4  -5-1397.19 1946.45   5
  -3   4   4 704.181 760.006  14
   3  -4  -4 1416.16 977.439   2
   3  -4  -4 570.371 474.731   9
   3  -4  -3 44241.3 2946.80   2
   3  -4  -2 2912.31 872.674   2
   3  -4  -1 33117.8 2069.61   4
   3  -4  -1 34148.0 2207.86   2
   3  -4   0-243.344 678.239   4
   3  -4   0 395.096 510.278   2
   3  -4   0 564.310 825.827   5
   3  -4   1 20214.6 1930.59   4
   3  -4   1 18757.7 1503.52   1
   3  -4   1 20358.2 1931.94   5
   3  -4   1 19485.2 1574.23   2
   3  -4   2 12525.4 1264.19   1
   3  -4   2 6811.82 1194.68   5
   3  -4   3 12459.6 1342.18   1
   3  -4   3 14173.9 1485.40   5
   3  -4   4 56756.9 2857.96   1
   3  -4   5 83035.6 3819.85   1
   3  -4   5 85942.0 3075.41  17
   3  -4   6 14954.3 2421.69   4
   3  -4   6 11754.0 1295.01  17
   3  -4   7 48777.8 4110.44   4
   3  -4   7 50797.6 2541.61  11
   3  -4   8-1176.34 726.054  10
   3  -4   9 3509.30 864.491  10
   3  -4  10 15678.6 1287.08  10
   3  -3  -9 4834.90 646.914   9
  -3   3   9 3275.85 795.401  14
  -3   3   8 2271.85 875.939  14
   3  -3  -8 86.8655 432.280   9
  -3   3   7 4478.62 1039.87  14
   3  -3  -7 3451.79 735.374   9
   3  -3  -6 3831.60 808.558   9
  -3   3   6 3953.87 972.165  14
   3  -3  -6 3286.52 1118.19   2
  -3   3   5 22185.1 1770.07  14
   3  -3  -5 19064.6 1421.86   9
   3  -3  -5 21685.3 2366.98   2
   3  -3  -4-35.3224 702.927   2
   3  -3  -3 164.879 648.037   2
  -3   3   3 425.893 526.723   3
  -3   3   2 7902.51 951.544   3
   3  -3  -2 7948.31 1178.07   2
   3  -3  -1 108792. 3559.32   1
   3  -3  -1 112404. 3601.38   2
   3  -3  -1 111600. 3325.68   4
   3  -3   0 432.702 496.623   1
   3  -3   1 186.608 522.963   1
   3  -3   2 281.288 661.077   5
   3  -3   2-483.828 571.209   1
   3  -3   3 30953.6 2054.57   1
   3  -3   4 8668.05 1294.82   1
   3  -3   5 6731.27 1317.24   1
   3  -3   6 615.226 566.268  17
   3  -3   6 1754.53 1016.63   1
   3  -3   7 6303.41 1634.13   1
   3  -3   8 10679.2 1277.17  10
   3  -3   9 1359.69 688.321  10
   3  -3  10 22541.7 1410.78  10
  -3   2  10 7267.76 923.193  14
  -3   2   9 9299.17 1238.91  14
   3  -2  -8 267.687 436.391   9
  -3   2   8 383.561 706.957  14
  -3   2   7 22005.7 1908.78  14
   3  -2  -7 25105.1 1607.18   9
   3  -2  -7 23156.6 2379.64   2
  -3   2   6 2497.86 798.190  14
   3  -2  -6 3022.02 1300.22   2
   3  -2  -6 1379.83 485.116   9
  -3   2   5 17178.5 1733.89   3
   3  -2  -5 19114.5 2034.82   2
   3  -2  -4 1024.19 660.795   2
  -3   2   4 275.161 548.885   3
  -3   2   3 14388.7 1278.86   3
   3  -2  -3 13295.2 1408.34   2
  -3   2   2 68024.2 2466.07   3
   3  -2  -2 63639.0 2676.03   2
   3  -2  -1 3922.37 844.031   1
   3  -2   0 8081.05 1009.10   1
   3  -2   1 26314.9 1735.52   1
   3  -2   2 24438.8 1787.70   1
   3  -2   3 80178.3 3407.04   1
   3  -2   4 20769.6 1990.41   1
   3  -2   5-1048.81 837.417   1
  -3   2  -6-712.806 559.261  16
   3  -2   6 372.450 931.956   1
   3  -2   6-1782.99 680.271  17
  -3   2  -7 2921.59 735.682  16
   3  -2   7 1756.59 762.013   1
  -3   2  -8 191.966 486.532  16
   3  -2   8 892.347 666.484  10
   3  -2   9-179.919 478.650  14
   3  -2   9 846.830 616.672  10
   3  -2  10 243.615 314.560  14
  -3   1  10 6634.41 1026.79  14
  -3   1   9 37322.9 2346.87  14
  -3   1   8 12048.8 1496.04  14
  -3   1   7 68807.2 3135.42  14
  -3   1   7 68698.7 4101.68   3
   3  -1  -7 76758.1 4184.66   2
  -3   1   6 7281.87 1153.02  14
   3  -1  -6 6385.01 1337.66   2
  -3   1   6 7885.41 1339.62   3
  -3   1   5 28743.6 2178.19   3
   3  -1  -5 28107.5 2174.96   2
  -3   1   4 27728.6 1911.48   3
   3  -1  -4 28007.2 1988.32   2
  -3   1   3 9971.45 1084.22   3
   3  -1  -3 10157.8 1159.87   2
  -3   1   2 83834.2 2730.63   3
   3  -1  -2 81894.1 2990.52   1
   3  -1  -1 2789.64 756.824   1
   3  -1   0 42956.5 2106.35   1
   3  -1   1 37291.0 2102.52   1
   3  -1   2-91.1000 656.952   1
   3  -1   3 51618.5 2861.29   1
   3  -1   4 2290.88 923.455   1
  -3   1  -5-170.121 473.206  15
   3  -1   5 15.6065 720.351   1
  -3   1  -6 9190.62 1091.96  16
   3  -1   6 9175.07 1871.18   1
  -3   1  -7-182.025 619.179  16
   3  -1   7 583.219 609.604  10
  -3   1  -8 1936.74 638.527  16
   3  -1   9 8842.14 1037.46  14
  -3   0  11 14119.6 1101.70  14
  -3   0  10 8237.67 1122.29  14
  -3   0   9 35441.3 2303.04  14
  -3   0   8 36916.2 2390.01  14
  -3   0   7 4352.08 966.974  14
  -3   0   7 3762.14 1334.65   3
   3   0  -6 2022.87 794.647   2
  -3   0   6 2184.94 896.040   3
  -3   0   5 37996.7 2428.56   3
   3   0  -5 35690.3 2238.19   2
  -3   0   4 8257.41 1158.65   3
   3   0  -4 7784.18 1041.89   2
  -3   0   3 15146.9 1322.03   3
   3   0  -3 17187.4 1325.09   2
  -3   0   2 36063.4 1813.23   3
   3   0  -2 39969.2 2043.04   1
   3   0  -1 83417.5 2883.31   1
  -3   0   0 39963.2 1497.92   6
   3   0   0 43595.6 2161.10   1
   3   0   1 956.424 694.697   1
   3   0   2 78816.8 3353.36   1
   3   0   3 230560. 6333.80   1
   3   0   4 7487.84 1508.39   1
  -3   0  -5 40173.4 2043.48  16
   3   0   5 43178.0 3381.00   1
  -3   0  -6-137.052 539.090  16
   3   0   6 3960.30 1246.88   1
  -3   0  -7 8107.82 1125.51  16
  -3   0  -8 3355.25 733.346  16
   3   0   9 5207.20 819.035  14
  -3  -1  11 28863.2 1576.96  14
  -3  -1  10 11113.0 1276.68  14
  -3  -1   9 3238.36 925.250  14
  -3  -1   8 6727.31 1137.51  14
  -3  -1   8 6762.89 1538.56   3
  -3  -1   7 14995.2 1483.17  14
  -3  -1   7 15390.4 2170.26   3
  -3  -1   6 1366.20 869.221   3
  -3  -1   5 38773.0 2498.15   3
   3   1  -5 38589.8 2083.45   2
  -3  -1   4 15794.7 1472.74   3
   3   1  -4 14982.4 1218.63   2
  -3  -1   3 264133. 5206.60   3
   3   1  -3 263625. 5160.52   1
   3   1  -2 54383.1 2300.93   1
  -3  -1   2 53955.8 2219.38   3
  -3  -1   2 55696.5 2598.53   6
   3   1  -1 86884.8 2927.18   1
  -3  -1   1 87527.1 2906.32   6
   3   1   0 12464.2 1279.61   1
  -3  -1   0 15290.4 1168.19   6
   3   1   1 1838.07 752.906   1
  -3  -1  -1 3066.11 692.425   6
   3   1   2 19119.8 1800.96   1
   3   1   3 6088.23 1295.09   1
  -3  -1  -4 21805.7 1568.48  15
   3   1   4 21462.9 2391.04   1
  -3  -1  -5 13833.8 1355.22  16
   3   1   5 14995.5 2328.11   1
  -3  -1  -6 68.0846 539.415  16
  -3  -1  -7 57.2376 553.670  16
  -3  -1  -8 3726.24 728.034  16
  -3  -2  11 3833.88 690.706  14
  -3  -2  11 3461.72 812.917  19
  -3  -2  10 11563.8 1240.50  14
  -3  -2   9 13489.0 1433.52  14
  -3  -2   8 1122.50 744.342  14
  -3  -2   8 4762.22 1300.83   6
  -3  -2   7 284.147 608.475  14
  -3  -2   7 619.822 958.206   3
  -3  -2   7-531.278 583.000  10
  -3  -2   6 19690.5 2134.58   3
  -3  -2   5 263.696 637.136   3
  -3  -2   5 406.815 796.279   6
  -3  -2   4 22193.3 1782.31   3
  -3  -2   4 22299.7 2152.65   6
  -3  -2   3 61092.9 2637.20   3
   3   2  -3 61275.1 2425.79   1
  -3  -2   3 63079.5 3264.08   6
   3   2  -2 115508. 3295.09   1
  -3  -2   2 119426. 3351.71   3
  -3  -2   2 123312. 4193.17   6
   3   2  -1 277.995 509.276   1
  -3  -2   1 621.236 450.862   3
  -3  -2   1 126.872 584.958   6
  -3  -2   0 9628.21 976.637   3
  -3  -2   0 8872.13 1205.67   6
   3   2   0 9668.22 1234.72   1
  -3  -2  -1 16199.6 1489.33   6
   3   2   1 16263.8 1657.96   1
   3   2   2 1337.00 838.405   1
  -3  -2  -3 6361.92 943.517  15
   3   2   3 5389.56 1352.76   1
  -3  -2  -4 1687.81 666.289  16
  -3  -2  -4 2213.18 620.743  15
   3   2   4 1807.32 1388.66   1
  -3  -2  -5 9599.43 1236.43  16
  -3  -2  -6 4205.46 945.589  16
  -3  -2  -7 2747.24 722.302  16
   3   2   8 787.774 507.310  14
  -3  -3  11 18330.7 1510.05  19
  -3  -3  10 33.3430 646.127  19
  -3  -3   9 5174.35 1171.14  19
  -3  -3   8 9889.60 1991.22   6
  -3  -3   8 7565.27 1309.94  19
  -3  -3   7 4311.27 989.378   8
  -3  -3   7 5711.00 1095.53  19
  -3  -3   7 6435.66 2146.23   6
  -3  -3   7 7286.77 1650.19   3
  -3  -3   6 4186.60 842.949   8
  -3  -3   6 3254.57 1016.08   3
  -3  -3   6 3406.51 1423.27   6
  -3  -3   6 5215.19 1063.78  19
  -3  -3   5 8200.72 1387.01   3
  -3  -3   5 7567.80 1771.66   6
  -3  -3   4 18302.9 1702.57   3
  -3  -3   4 21048.4 2318.72   6
  -3  -3   3 4897.26 912.047   3
  -3  -3   3 5049.17 1245.88   6
  -3  -3   2 6407.71 887.276   3
  -3  -3   2 6573.01 1364.30   6
   3   3  -1 201.242 557.853   1
  -3  -3   1 491.731 712.587   6
  -3  -3   0 8162.19 1389.03   6
   3   3   0 9156.54 1284.39   1
   3   3   1 3016.84 1017.32   1
  -3  -3  -2 859.317 583.258  15
   3   3   2 841.923 891.557   1
  -3  -3  -3 18749.0 1540.20  15
   3   3   3 14894.7 2332.33   1
  -3  -3  -3 18387.7 1488.67  16
  -3  -3  -4 13711.0 1351.95  16
  -3  -3  -5 4872.36 959.755  16
  -3  -3  -5 4517.86 889.481  13
  -3  -3  -6 9823.87 1109.68  16
   3   3   7 1733.90 662.175  14
  -3  -4  11 11045.3 1193.51  19
  -3  -4  10 219.740 663.180  19
  -3  -4   9 8708.46 1342.19  19
  -3  -4   8 2858.99 878.176  19
  -3  -4   7 655.210 670.555   8
  -3  -4   7-122.040 811.613  11
  -3  -4   7-968.092 1273.22   6
  -3  -4   7-4.32988 973.083   3
  -3  -4   7-1309.18 773.030  19
  -3  -4   6 5886.65 1054.32   8
  -3  -4   6 6665.66 1030.84  11
  -3  -4   6 5305.23 1631.02   6
  -3  -4   6 7634.06 1616.13   3
  -3  -4   6 7727.29 1178.25  19
  -3  -4   5 8119.07 1226.71   8
  -3  -4   5 7689.28 1127.91  11
  -3  -4   5 8060.94 1846.29   6
  -3  -4   5 10289.2 1556.78   3
  -3  -4   5 9685.72 1237.67  19
  -3  -4   4 18095.1 1777.42   3
  -3  -4   4 19220.1 2433.54   6
  -3  -4   4 17807.8 1536.09  11
  -3  -4   4 18039.7 1598.65   8
  -3  -4   3 28177.3 2734.99   6
  -3  -4   2 864.984 1061.81   6
  -3  -4   1 13342.0 1941.65   6
  -3  -4   0 5087.27 967.525   8
  -3  -4   0 5287.08 1477.79   6
  -3  -4   0 5161.75 954.986  18
  -3  -4  -1 4737.74 1009.24  18
  -3  -4  -2 2274.48 718.684  16
  -3  -4  -3 8132.42 1049.29  16
  -3  -4  -3 6077.46 1020.76  13
  -3  -4  -4 7007.05 997.882  16
  -3  -4  -4 7010.32 1047.35  13
  -3  -4  -5 2944.41 749.023  13
  -3  -4  -5 1958.16 631.691  16
   3   4   6 1003.51 556.131  14
  -3  -5  11 411.574 505.602  19
  -3  -5  10 2881.53 861.706  19
  -3  -5   9 792.139 727.849  19
  -3  -5   8-1319.07 802.025  19
  -3  -5   8 1855.90 797.285   8
  -3  -5   7 13699.8 1499.13  11
  -3  -5   7 11858.5 1549.25  19
  -3  -5   7 12404.8 1441.03   8
  -3  -5   6 13959.3 1590.88   8
  -3  -5   6 10630.8 1398.09  11
  -3  -5   6 16510.7 2641.42   6
  -3  -5   6 11482.0 1492.69  19
  -3  -5   6 12700.2 1398.39  18
  -3  -5   5 60928.1 3042.38   8
  -3  -5   5 70275.8 4739.79   6
  -3  -5   5 64514.2 2987.76  11
  -3  -5   5 62258.1 3005.00  19
  -3  -5   4 156507. 6787.08   6
  -3  -5   4 150633. 4470.70  11
  -3  -5   4 155213. 4537.82  19
  -3  -5   4 145495. 4584.96   8
  -3  -5   3 20236.5 2561.72   6
  -3  -5   3 20703.0 1708.15  19
  -3  -5   3 18144.4 1742.33   8
  -3  -5   2 31445.5 2078.41  18
  -3  -5   2 30351.1 1789.32  13
  -3  -5   2 31072.3 2995.73   6
  -3  -5   2 34624.3 2137.78  19
  -3  -5   2 31180.3 2187.72   8
  -3  -5   1 7080.80 1210.26   8
  -3  -5   1 5236.20 1017.42  18
  -3  -5   1 7345.52 1030.27  13
  -3  -5   1 7317.08 1769.33   6
  -3  -5   0 401.617 684.079  13
  -3  -5   0 560.969 695.680  18
  -3  -5   0-129.737 764.100   8
  -3  -5  -1 13545.0 1398.78  13
  -3  -5  -1 11557.8 1297.52  18
  -3  -5  -2 2670.55 833.863  13
  -3  -5  -3 43442.7 1979.24  16
  -3  -5  -3 41106.2 2222.57  13
  -3  -5  -4 6868.11 954.874  13
  -3  -5  -4 7115.00 847.286  16
  -3  -5  -5 11092.3 890.683  13
  -3  -5  -5 8003.37 709.599   9
  -3  -6  10 597.525 548.147  19
  -3  -6   9-657.208 662.186  19
  -3  -6   8 1926.05 862.277  19
  -3  -6   8 1773.85 642.500   8
  -3  -6   7 2234.84 833.533   8
  -3  -6   7 700.307 736.685  19
  -3  -6   7 741.176 585.890  18
  -3  -6   6 48372.8 2771.98   8
  -3  -6   6 49873.4 2594.84  18
  -3  -6   6 49200.5 2798.10  19
  -3  -6   5 11421.4 1559.20   8
  -3  -6   5 12918.6 1474.78  18
  -3  -6   5 12548.1 1531.56  19
  -3  -6   4 157769. 7254.79   6
  -3  -6   4 157834. 4778.70  19
  -3  -6   4 157017. 4744.25  18
  -3  -6   4 150294. 4881.35   8
  -3  -6   3 785.035 768.647   8
  -3  -6   3 1456.81 677.012  13
  -3  -6   3 1284.35 1629.97   6
  -3  -6   3-475.254 646.022  19
  -3  -6   3 1310.79 917.835  18
  -3  -6   2 8649.97 1340.57   8
  -3  -6   2 7843.58 1028.34  13
  -3  -6   2 7648.66 1234.32  18
  -3  -6   1 2636.17 790.231  13
  -3  -6   1 2833.53 903.078  18
  -3  -6   1 2227.58 830.339   8
  -3  -6   0 1561.14 719.897  13
  -3  -6   0 195.573 698.403  18
  -3  -6   0 1913.16 793.881   8
  -3  -6  -1 3232.26 872.007  13
  -3  -6  -2 6424.76 990.282  13
  -3  -6  -3 5177.03 853.874  13
  -3  -6  -4 27988.7 1333.35  13
  -3  -7  10 3946.14 700.637  19
  -3  -7   9 225.968 523.262  19
  -3  -7   8 1458.22 739.911  19
  -3  -7   8 1876.70 713.381   8
  -3  -7   7 5692.36 1046.02   8
  -3  -7   7 5546.22 1083.76  19
  -3  -7   7 6456.79 1009.04  18
  -3  -7   6 3092.47 905.680   8
  -3  -7   6 2860.98 928.303  19
  -3  -7   6 2686.58 798.053  18
  -3  -7   5 694.493 818.844   8
  -3  -7   5-2.44767 623.032  19
  -3  -7   5-46.1449 639.853  18
  -3  -7   4 524.294 671.245   8
  -3  -7   4 229.571 616.035  19
  -3  -7   4 1239.45 784.605  18
  -3  -7   3 757.259 826.964   8
  -3  -7   3 769.175 579.756  13
  -3  -7   3 1237.00 796.643  18
  -3  -7   2-35.6815 712.053   8
  -3  -7   2-8.73221 556.316  13
  -3  -7   2-421.914 756.417  18
  -3  -7   1 55.9350 583.713  13
  -3  -7   1 1363.19 740.348  18
  -3  -7   1 804.063 739.571   8
  -3  -7   0 2373.86 742.201  13
  -3  -7   0 3126.54 879.073   8
  -3  -7  -1-29.7697 584.207  13
  -3  -7  -2 12454.6 1069.47  13
  -3  -8   9 267.666 423.355  19
  -3  -8   8 8023.16 850.985   8
  -3  -8   8 6945.46 931.428  19
  -3  -8   7-213.580 517.818   8
  -3  -8   7 60.1860 548.710  19
  -3  -8   6 159.946 634.898  19
  -3  -8   6 191.319 498.278  18
  -3  -8   6 303.730 593.567   8
  -3  -8   5 7003.52 1051.40  18
  -3  -8   5 5836.68 1027.18   8
  -3  -8   4 2738.77 836.396  18
  -3  -8   4 1805.97 791.975   8
  -3  -8   3 5205.03 760.858  13
  -3  -8   3 4644.21 974.939   8
  -3  -8   2-156.019 450.381  13
  -3  -8   2 197.113 562.877   8
  -3  -8   1 1870.96 594.272  13
  -3  -8   1 2474.60 691.204   8
  -3  -8   0 13422.3 1046.54  13
  -3  -9   6 17004.7 1158.29   8
  -3  -9   5 2873.04 637.875   8
  -3  -9   4 2976.22 682.160   8
  -3  -9   3 316.766 467.654   8
   4 -10   0 6345.32 887.763   7
   4 -10   1 12379.7 1282.81   7
   4 -10   2 3572.21 840.374   7
   4 -10   3 11347.6 1248.18   7
   4 -10   4 18509.0 1486.26   7
   4 -10   4 15257.4 1157.63  11
   4 -10   5-1370.22 544.289   7
   4 -10   5 51.0286 409.009  11
   4 -10   6 10325.8 955.753  11
   4  -9  -2 2291.12 681.106   7
   4  -9  -1 9577.55 1214.75   7
   4  -9   0 7529.12 1273.49   7
   4  -9   1 7658.02 1215.31   7
   4  -9   2 10557.4 1394.42   7
   4  -9   3 7119.99 1187.46   7
   4  -9   3 7858.34 1070.82  11
   4  -9   4 1388.54 849.230   7
   4  -9   4 6389.26 1027.60  11
   4  -9   5 34035.9 2048.07   7
   4  -9   5 34178.5 2047.74  11
   4  -9   6 687.381 660.444  11
   4  -9   7 34239.6 1879.04  11
   4  -9   8 1011.07 533.757  11
   4  -8  -4 2654.62 497.473  12
   4  -8  -4 3122.34 570.588   9
   4  -8  -3 1043.44 637.562   7
   4  -8  -3 1487.19 496.604  12
   4  -8  -3 1667.46 518.665   9
   4  -8  -2 7520.31 1154.23   7
   4  -8  -2 6650.47 858.355  12
   4  -8  -2 6762.14 888.901   9
   4  -8  -1 6606.13 1179.14   7
   4  -8  -1 6814.29 944.648   9
   4  -8   0 857.154 789.211   7
   4  -8   0 1297.04 514.327   9
   4  -8   1 26035.9 2227.90   7
   4  -8   2 11252.4 1568.30   7
   4  -8   3-396.390 753.069   7
   4  -8   3 708.856 661.052  11
   4  -8   4 23930.6 1932.68   7
   4  -8   4 21587.1 1844.03  11
   4  -8   5 10825.4 1409.31  11
   4  -8   6 7766.45 1245.97  11
   4  -8   7 1848.90 830.278  11
   4  -8   7 2336.42 661.742  10
   4  -8   8 2174.98 703.420  11
   4  -8   8 2729.73 606.931  10
   4  -8   9 1191.72 508.418  11
   4  -8   9 1429.74 409.989  10
   4  -7  -5-75.8943 429.500  12
   4  -7  -5 64.1475 393.340   9
   4  -7  -4 130.029 453.766  12
   4  -7  -4-41.6242 451.199   9
   4  -7  -3 394.653 661.717   7
   4  -7  -3 113.964 382.457  12
   4  -7  -3-627.602 519.849   9
   4  -7  -2 26728.2 2142.94   7
   4  -7  -2 26839.2 1672.24  12
   4  -7  -2 26630.4 1744.67   9
   4  -7  -1 3103.18 1003.01   7
   4  -7  -1 3638.31 739.662  12
   4  -7  -1 4279.79 821.961   9
   4  -7   0 1145.30 939.622   7
   4  -7   0 2041.13 565.639  12
   4  -7   0 1380.17 575.480   9
   4  -7   0 1266.24 1336.85   5
   4  -7   1 1456.02 920.957   7
   4  -7   1 4158.67 721.306  12
   4  -7   2 22909.5 3175.74   4
   4  -7   2 28157.2 2182.07   7
   4  -7   2 27402.0 1971.34  11
   4  -7   2 23142.9 2725.03   5
   4  -7   3 2231.26 941.470   7
   4  -7   3 2835.48 966.266  11
   4  -7   3 1495.44 714.678  17
   4  -7   4-944.713 774.174   7
   4  -7   4 975.452 784.541  11
   4  -7   4-1574.88 680.864  17
   4  -7   5 515.337 712.510  11
   4  -7   6 22810.1 1938.27  11
   4  -7   7-110.831 718.706  11
   4  -7   8 6376.56 986.156  11
   4  -7   8 6421.87 968.905  10
   4  -7   9 755.026 488.627  11
   4  -7   9 244.915 448.710  10
   4  -6  -7 6948.47 715.084  12
   4  -6  -7 7075.45 698.210   9
   4  -6  -6 1063.25 495.239   9
   4  -6  -5 459.747 511.518   9
   4  -6  -4 315.706 736.191   7
   4  -6  -4 1805.49 700.843   9
   4  -6  -3 2301.23 876.742   7
   4  -6  -3 2147.34 684.890   9
   4  -6  -2 4091.74 1028.93   7
   4  -6  -2 3801.45 757.797  12
   4  -6  -2 3847.24 803.585   9
   4  -6  -2 2197.11 1411.97   5
   4  -6  -1 46184.0 2738.41   7
   4  -6  -1 52197.3 2267.39  12
   4  -6  -1 45350.4 3959.96   5
   4  -6  -1 49183.1 2243.16   9
   4  -6  -1 50842.5 3556.34   2
   4  -6   0 12674.5 1537.55   7
   4  -6   0 11854.3 1799.68   2
   4  -6   0 12902.4 1151.55  12
   4  -6   0 12375.7 1178.84   9
   4  -6   0 10179.5 2177.53   5
   4  -6   1 53738.7 2837.79   7
   4  -6   1 55088.7 2227.36  12
   4  -6   1 54289.1 4072.44   5
   4  -6   1 57518.5 2315.99   9
   4  -6   1 60887.1 3372.53   2
   4  -6   1 54576.0 3726.21   4
   4  -6   2 12985.8 1460.98   7
   4  -6   2 10504.7 2040.14   4
   4  -6   2 14179.4 2224.50   5
   4  -6   3-821.989 1383.48   4
   4  -6   3-475.915 560.638   7
   4  -6   3 286.000 486.866  17
   4  -6   4 13471.2 2553.23   4
   4  -6   4 10528.6 1241.10  17
   4  -6   5 7435.67 2312.34   4
   4  -6   5 3912.35 861.986  17
   4  -6   6 30874.8 2194.51  11
   4  -6   6 30178.3 2111.26  17
   4  -6   7 16121.6 1596.26  11
   4  -6   8 52.2561 711.835  11
   4  -6   8 595.172 579.745  10
   4  -6   9 5380.75 877.624  10
   4  -5  -8 7721.00 695.763   9
  -4   5   7 1080.47 600.976  14
   4  -5  -7 1168.32 456.059   9
  -4   5   6 17771.1 1495.12  14
   4  -5  -6 16068.7 1335.97   9
   4  -5  -5 786.520 560.509   9
   4  -5  -4 6994.90 1213.57   7
   4  -5  -4 6862.40 980.045   9
   4  -5  -4 9940.68 2121.81   5
   4  -5  -3 19173.8 1777.35   7
   4  -5  -3 17208.5 2287.89   2
   4  -5  -3 19561.6 1481.99   9
   4  -5  -3 15368.5 2700.64   5
   4  -5  -2 22765.5 2866.95   5
   4  -5  -2 26117.9 1623.71   9
   4  -5  -2 23388.0 2455.79   2
   4  -5  -2 27147.9 2029.19   7
   4  -5  -1 17496.8 1626.17   7
   4  -5  -1 17169.6 1283.55  12
   4  -5  -1 16944.2 1292.51   9
   4  -5  -1 17379.1 1997.58   2
   4  -5  -1 13720.0 2223.49   5
   4  -5   0 722.379 839.836   2
   4  -5   0 1430.42 842.402   4
   4  -5   0 1440.11 1153.28   5
   4  -5   0 1513.90 732.332   7
   4  -5   1 1169.91 738.096   2
   4  -5   1-478.998 931.593   4
   4  -5   1 1059.38 777.528   1
   4  -5   2 2359.19 953.019   2
   4  -5   2 3706.98 1261.45   4
   4  -5   2 2389.84 1247.92   5
   4  -5   2 4335.27 1060.45   1
   4  -5   3 14316.4 2148.47   4
   4  -5   3 15564.2 1392.64  17
   4  -5   4 315.111 565.841  17
   4  -5   4 1904.55 1265.37   4
   4  -5   5 43601.2 3814.12   4
   4  -5   5 41072.3 2340.98  17
   4  -5   6 10627.3 2970.91   4
   4  -5   6 8978.44 1248.19  17
   4  -5   7 3156.46 935.542  11
   4  -5   8-268.710 678.088  11
   4  -5   8 354.361 582.968  10
   4  -5   9 2984.88 745.393  10
   4  -5  10 1306.67 443.233  10
  -4   4   8 1784.72 648.973  14
   4  -4  -8 688.908 421.349   9
  -4   4   7 4418.95 941.988  14
   4  -4  -7 4289.54 766.588   9
  -4   4   6 5183.18 1020.77  14
   4  -4  -6 5880.04 879.287   9
   4  -4  -5 9421.11 1937.69   5
  -4   4   5 7248.99 1223.73  14
   4  -4  -5 8326.91 1531.03   2
   4  -4  -5 7076.67 980.683   9
   4  -4  -4 5966.80 1416.16   2
  -4   4   4 6731.78 1098.64  14
   4  -4  -4 6429.92 1184.54   7
   4  -4  -4 6104.76 929.879   9
   4  -4  -3 15589.0 1560.26   7
   4  -4  -3 17001.5 1322.51   9
   4  -4  -3 16513.9 2004.12   2
  -4   4   2 22810.1 1808.84   3
   4  -4  -2 22994.5 2147.38   2
   4  -4  -1 16846.1 1815.65   2
   4  -4   0 590.477 694.065   2
   4  -4   0 524.396 774.613   4
   4  -4   0 373.354 618.901   1
   4  -4   1 8657.72 1290.52   1
   4  -4   1 7930.38 1449.77   5
   4  -4   2 1783.44 785.297   1
   4  -4   2-347.429 914.957   5
   4  -4   3 15066.1 1743.04   1
   4  -4   4 23041.6 2201.30   1
   4  -4   4 21654.1 1632.15  17
   4  -4   5 37008.5 2171.11  17
   4  -4   5 39102.5 3088.67   1
   4  -4   6 29100.9 2010.83  17
   4  -4   7-1444.58 696.720  17
   4  -4   8 284.285 579.822  10
   4  -4   9 159.568 547.559  10
  -4   3   9 11791.9 1176.13  14
  -4   3   8-195.229 685.850  14
   4  -3  -8 1134.66 490.461   9
  -4   3   7 4337.54 1045.11  14
   4  -3  -7 3957.94 741.962   9
  -4   3   6 688.633 709.598  14
   4  -3  -6-437.743 522.474   9
   4  -3  -5 1254.08 1159.41   2
  -4   3   5 1502.95 743.461  14
   4  -3  -5 1515.21 561.102   9
  -4   3   4 38385.3 2191.57  14
   4  -3  -4 37389.0 1843.94   9
   4  -3  -4 42458.3 3077.13   2
  -4   3   3 36327.8 2299.56   3
   4  -3  -3 39343.7 2727.39   2
   4  -3  -2 7617.78 1213.01   2
  -4   3   2 9286.06 1193.57   3
   4  -3  -1 1185.29 758.457   2
   4  -3  -1 1439.22 764.750   1
   4  -3   0 7073.98 1198.67   1
   4  -3   1 10708.9 1405.42   1
   4  -3   2 4631.06 1069.46   5
   4  -3   2 3795.54 1066.71   1
   4  -3   3 426.434 691.730   1
   4  -3   4 24965.0 2374.57   1
   4  -3   4 26940.1 1744.14  17
  -4   3  -5 1115.43 633.479  15
   4  -3   5 1693.49 1118.69   1
   4  -3   5 320.474 530.355  17
   4  -3   6 29784.7 2983.43   1
   4  -3   6 37236.0 2191.85  17
   4  -3   7 2260.36 716.951  17
   4  -3   8 16304.5 1491.14  10
   4  -3   9 967.094 563.820  10
  -4   2  10 1682.04 607.239  14
  -4   2   9 1513.21 745.814  14
  -4   2   8 2355.96 940.056  14
  -4   2   7 806.841 814.931  14
  -4   2   6 9.35413 640.256  14
   4  -2  -6-611.135 1188.30   2
  -4   2   6 1431.59 1256.29   3
   4  -2  -6 1215.69 591.922   9
  -4   2   5 26733.1 1952.32  14
  -4   2   5 22397.6 2193.79   3
   4  -2  -5 24370.4 1497.25   9
   4  -2  -5 22326.6 2255.79   2
   4  -2  -4 3282.79 1033.57   2
  -4   2   4 3519.54 938.254   3
  -4   2   3 44453.4 2485.46   3
   4  -2  -3 46347.5 2714.45   2
   4  -2  -2 2403.05 849.227   2
  -4   2   2 2196.48 791.208   3
   4  -2  -2 1865.08 758.004   1
   4  -2  -1 17357.9 1671.67   1
   4  -2   0 2035.66 821.142   1
   4  -2   1 6493.15 1178.30   1
   4  -2   2 2429.49 930.997   1
   4  -2   3 22079.2 2180.29   1
   4  -2   4 59416.6 3694.40   1
   4  -2   4 53003.8 2335.90  17
  -4   2  -5 29989.0 1874.97  15
   4  -2   5 30980.2 3003.14   1
   4  -2   5 31113.7 1895.02  17
  -4   2  -6 23821.1 1641.66  16
   4  -2   6 21015.5 2599.49   1
   4  -2   6 24724.1 1726.56  17
  -4   2  -7-1318.81 624.576  16
   4  -2   7 1202.24 638.034  10
  -4   2  -8 30.4898 449.200  16
   4  -2   8-1001.56 621.194  10
   4  -2   9-6.04226 382.621  14
  -4   1  10 11637.4 1188.25  14
  -4   1   9 4591.22 1017.59  14
  -4   1   8 80745.4 3493.61  14
  -4   1   7 39725.8 2458.21  14
  -4   1   7 34457.1 3012.52   3
   4  -1  -7 40943.4 3125.78   2
   4  -1  -6 50138.8 3278.70   2
  -4   1   6 45556.7 2536.88  14
  -4   1   6 48564.7 3307.21   3
  -4   1   5 84383.6 3171.23  14
  -4   1   5 78678.0 3823.49   3
   4  -1  -5 80178.6 3779.14   2
   4  -1  -4 1625.58 823.943   2
  -4   1   4 1265.06 704.916   3
   4  -1  -3 526.616 540.660   2
  -4   1   3-145.468 503.599   3
  -4   1   2 3552.14 855.229   3
   4  -1  -2 3194.65 910.466   1
   4  -1  -1 56697.1 2864.55   1
   4  -1   0 37491.7 2398.32   1
   4  -1   1 4947.36 1053.47   1
   4  -1   2 23982.7 2142.68   1
   4  -1   3 18877.0 2177.33   1
  -4   1  -4 7791.11 1013.85  15
   4  -1   4 9252.49 1769.35   1
   4  -1   4 8578.48 1034.11  17
  -4   1  -5 9902.95 1202.85  15
   4  -1   5 12989.3 2237.56   1
  -4   1  -6 7538.19 1054.97  16
  -4   1  -7 529.023 572.768  16
  -4   1  -8 2884.88 623.635  16
   4  -1   9 2044.55 521.893  14
  -4   0  10 1673.70 705.641  14
  -4   0   9 29524.9 2107.89  14
  -4   0   8 24498.7 1974.49  14
  -4   0   7 53550.9 2803.37  14
  -4   0   7 57797.7 3801.43   3
  -4   0   6 10964.3 1268.85  14
   4   0  -6 10235.4 1492.45   2
  -4   0   6 10879.9 1729.28   3
   4   0  -5 4729.53 1095.25   2
  -4   0   5 5089.15 1143.98   3
  -4   0   4 23710.2 2001.92   3
   4   0  -4 24993.8 1919.47   2
   4   0  -3 3546.52 932.463   1
  -4   0   3 1623.97 749.798   3
  -4   0   2 19579.0 1638.30   3
   4   0  -2 20957.8 1776.05   1
  -4   0   2 21216.6 1769.87   6
   4   0  -1 8977.00 1293.57   1
  -4   0   1 10667.4 1158.20   6
   4   0   0 25601.4 2033.97   1
   4   0   1 138000. 4824.11   1
   4   0   2 276.492 746.008   1
  -4   0  -3 19731.5 1512.98  15
   4   0   3 20710.5 2295.77   1
  -4   0  -4 57733.1 2613.95  15
   4   0   4 53147.8 3873.91   1
  -4   0  -5 11213.6 1243.55  16
  -4   0  -5 12149.8 1313.83  15
   4   0   5 13989.0 2082.60   1
  -4   0  -6 5344.00 913.655  16
  -4   0  -7 777.577 598.055  16
  -4   0  -8 362.686 454.953  16
  -4  -1  11 4574.91 742.144  19
  -4  -1  11 5976.30 769.469  14
  -4  -1  10 1019.17 628.194  14
  -4  -1   9 24283.1 1904.68  14
  -4  -1   8 3431.15 960.754  14
  -4  -1   7 6874.29 1142.81  14
  -4  -1   7 6010.92 1687.77   3
  -4  -1   6 11068.4 1260.49  14
  -4  -1   6 12741.2 1927.04   3
  -4  -1   5 18378.6 1936.44   3
  -4  -1   4 13028.9 1531.96   3
   4   1  -4 11374.7 1283.83   2
  -4  -1   3 21071.7 1776.63   3
   4   1  -3 24869.2 1937.68   1
  -4  -1   3 19736.9 2016.65   6
  -4  -1   2 636.513 563.821   3
  -4  -1   2 1249.70 815.852   6
   4   1  -2 811.745 711.477   1
   4   1  -1 100168. 3850.20   1
  -4  -1   1 99685.4 3432.24   3
  -4  -1   1 101833. 3507.99   6
   4   1   0 15617.1 1709.23   1
   4   1   1-148.342 680.325   1
  -4  -1  -2 21700.2 1557.80  15
   4   1   2 21228.3 2242.46   1
  -4  -1  -3-67.4841 509.058  15
   4   1   3 2076.11 1115.11   1
  -4  -1  -4 86376.5 3288.80  15
   4   1   4 88189.5 5105.73   1
  -4  -1  -5 2546.26 766.630  16
  -4  -1  -6 38066.4 2148.14  16
  -4  -1  -7 1513.79 599.937  16
   4   1   8 946.331 481.837  14
  -4  -2  11 2926.94 625.694  14
  -4  -2  11 3609.41 721.725  19
  -4  -2  10 2036.63 670.612  14
  -4  -2  10 1604.19 747.447  19
  -4  -2   9 1434.57 723.309  14
  -4  -2   9-17.1875 644.534  19
  -4  -2   8 270.360 682.502   8
  -4  -2   8 1831.15 869.096  14
  -4  -2   8 890.453 701.160  19
  -4  -2   7 17538.2 1633.25  14
  -4  -2   7 13995.3 2062.39   3
  -4  -2   7 15895.2 2691.38   6
  -4  -2   7 12324.7 1521.32  19
  -4  -2   6 1981.62 738.364  14
  -4  -2   6 1245.24 941.955   3
  -4  -2   6 827.368 1161.02   6
  -4  -2   6 377.298 660.195  19
  -4  -2   5 564.503 699.643   3
  -4  -2   5-3260.93 1391.33   6
  -4  -2   4 14575.7 1626.29   3
  -4  -2   4 14878.5 2132.37   6
  -4  -2   3 14065.3 1521.30   3
   4   2  -3 16456.9 1595.50   1
  -4  -2   3 15707.3 1961.04   6
   4   2  -2 18944.2 1748.00   1
  -4  -2   2 16479.6 1557.05   3
  -4  -2   2 15215.4 1750.44   6
   4   2  -1 36525.7 2416.89   1
  -4  -2   1 31749.9 1991.63   3
  -4  -2   1 30452.9 2252.93   6
   4   2   0 8618.77 1394.50   1
  -4  -2  -1 14350.7 1287.49  15
   4   2   1 15797.9 1886.68   1
  -4  -2  -2 26347.0 1773.67  15
   4   2   2 28748.6 2762.90   1
  -4  -2  -3 4319.43 880.686  15
   4   2   3 4973.91 1608.89   1
  -4  -2  -4 19208.6 1593.96  16
  -4  -2  -4 17600.4 1618.75  15
  -4  -2  -5 2865.15 764.115  16
  -4  -2  -6 2193.12 661.714  16
  -4  -2  -7 6349.67 751.792  16
  -4  -3  11 1460.72 588.718  19
  -4  -3  10 10867.1 1254.05  19
  -4  -3   9 21846.5 1872.26  19
  -4  -3   8 4218.25 1020.29   8
  -4  -3   8 3380.37 1003.63  19
  -4  -3   7 14482.4 2554.30   6
  -4  -3   7 14151.1 2052.91   3
  -4  -3   7 13298.7 1468.34  19
  -4  -3   7 12731.4 1554.64   8
  -4  -3   6 3972.35 993.254   8
  -4  -3   6 1773.61 1160.40   3
  -4  -3   6 5366.77 1716.16   6
  -4  -3   6 1265.70 623.990  19
  -4  -3   5 16360.4 1981.36   3
  -4  -3   5 20124.7 2692.55   6
  -4  -3   5 16441.2 1561.36  19
  -4  -3   5 16922.2 1633.22   8
  -4  -3   4 3054.41 928.885   8
  -4  -3   4 2387.59 1027.16   3
  -4  -3   4 2075.69 1279.57   6
  -4  -3   3 15501.9 1656.88   3
  -4  -3   3 14524.7 2113.44   6
  -4  -3   3 15918.7 1570.06   8
  -4  -3   2 18422.4 2120.31   6
  -4  -3   1 3728.75 1232.99   6
  -4  -3   0 14839.6 1322.38  15
  -4  -3  -1 7412.92 1050.63  15
  -4  -3  -2 14678.0 1397.25  15
  -4  -3  -3 2997.12 758.818  16
  -4  -3  -3 2281.34 753.654  15
  -4  -3  -4 3137.15 804.779  16
  -4  -3  -5 12690.1 1181.47  16
  -4  -3  -5 12571.4 1152.72  13
  -4  -3  -6 4942.47 695.504  16
  -4  -4  11 9620.01 943.125  19
  -4  -4  10 4811.03 908.293  19
  -4  -4   9 8446.90 1254.32  19
  -4  -4   8 2.25589 721.740   8
  -4  -4   8 670.482 708.755  19
  -4  -4   7 8455.96 1245.30  19
  -4  -4   7 9896.10 1416.69   8
  -4  -4   6 7126.91 1221.97   8
  -4  -4   6 5058.03 1597.34   3
  -4  -4   6 7702.04 1246.50  19
  -4  -4   5 1431.14 825.166   8
  -4  -4   5 3174.39 1392.79   6
  -4  -4   5 2077.04 715.898  19
  -4  -4   4 10038.9 2131.43   6
  -4  -4   4 9515.94 1200.56  19
  -4  -4   4 10112.0 1418.65   8
  -4  -4   3 11754.1 1968.13   6
  -4  -4   3 14880.1 1425.80  19
  -4  -4   3 13783.5 1554.91   8
  -4  -4   2 3998.42 928.451   8
  -4  -4   2 3597.78 1393.66   6
  -4  -4   1 49392.2 2647.37   8
  -4  -4   0 1749.00 735.458   8
  -4  -4   0 1073.24 754.340  18
  -4  -4  -1 25310.1 1722.35  15
  -4  -4  -2 4918.76 829.091  16
  -4  -4  -2 5112.75 933.539  15
  -4  -4  -3 781.668 550.138  16
  -4  -4  -3-13.5627 623.400  13
  -4  -4  -4 3432.08 704.962  16
  -4  -4  -4 3697.08 817.513  13
  -4  -4  -5 1765.51 489.792  16
  -4  -4  -5 1026.14 482.324  13
  -4  -5  10 1974.92 651.026  19
  -4  -5   9 867.257 666.445  19
  -4  -5   8 828.367 646.224   8
  -4  -5   8 342.965 705.612  19
  -4  -5   7 1103.06 943.388   8
  -4  -5   7 790.941 727.088  19
  -4  -5   7 694.122 575.818  18
  -4  -5   6 2954.74 932.666   8
  -4  -5   6 2500.36 835.547  19
  -4  -5   5 7787.88 1313.62   8
  -4  -5   5 6033.92 1123.86  19
  -4  -5   4 6265.55 2013.55   6
  -4  -5   4 9255.95 1232.59  19
  -4  -5   4 10456.7 1464.85   8
  -4  -5   3 17951.7 2732.81   6
  -4  -5   3 16354.2 1555.65  19
  -4  -5   3 16127.5 1730.85   8
  -4  -5   2 85421.2 3503.80  18
  -4  -5   2 86400.1 3069.88  13
  -4  -5   2 84551.3 3585.38   8
  -4  -5   1 1386.30 716.731  13
  -4  -5   1-189.250 663.999  18
  -4  -5   0 18016.5 1567.39  13
  -4  -5   0 19158.6 1663.24   8
  -4  -5   0 20640.7 1711.40  18
  -4  -5  -1 4432.04 1008.66  13
  -4  -5  -2 15784.7 1429.33  13
  -4  -5  -3 396.452 595.055  13
  -4  -5  -4 3300.19 626.045  13
  -4  -6  10 3802.82 690.218  19
  -4  -6   9 873.446 548.383  19
  -4  -6   8 3985.92 842.106   8
  -4  -6   8 3890.61 914.587  19
  -4  -6   7 646.264 765.881   8
  -4  -6   7-115.000 583.671  19
  -4  -6   7 45.1426 516.409  18
  -4  -6   6 16077.5 1573.61  19
  -4  -6   6 14672.5 1596.06   8
  -4  -6   6 13817.0 1459.98  18
  -4  -6   5 1867.20 884.588   8
  -4  -6   5 3379.23 914.745  19
  -4  -6   5 1647.24 808.863  18
  -4  -6   4 391.710 716.527   8
  -4  -6   4 275.384 647.645  19
  -4  -6   4-301.474 781.338  18
  -4  -6   3 15573.6 1686.46   8
  -4  -6   3 18633.1 1810.77  18
  -4  -6   2 19358.7 1508.63  13
  -4  -6   2 19052.4 1787.04   8
  -4  -6   2 19342.3 1733.14  18
  -4  -6   1 724.947 637.254  13
  -4  -6   1 1354.35 775.524  18
  -4  -6   1 1851.46 833.960   8
  -4  -6   0 7118.11 1020.10  13
  -4  -6   0 7545.53 1123.18  18
  -4  -6  -1-121.371 589.985  13
  -4  -6  -2 9093.25 992.996  13
  -4  -7   9-149.287 420.554  19
  -4  -7   8 2786.81 679.150  19
  -4  -7   8 2937.62 644.265   8
  -4  -7   7 6809.34 1012.44  19
  -4  -7   7 7294.34 1049.59   8
  -4  -7   7 6222.91 880.890  18
  -4  -7   6 5616.05 1035.56   8
  -4  -7   6 3099.80 814.809  19
  -4  -7   6 3813.51 837.280  18
  -4  -7   5 4926.47 1007.77   8
  -4  -7   5 4259.03 936.888  18
  -4  -7   4-265.254 720.612  18
  -4  -7   4-98.1257 648.538   8
  -4  -7   3 7321.39 1180.48  18
  -4  -7   3 7423.30 1176.47   8
  -4  -7   2 249.947 474.167  13
  -4  -7   2 298.663 676.114  18
  -4  -7   2 276.816 637.122   8
  -4  -7   1 423.816 517.633  13
  -4  -7   1 272.965 621.065   8
  -4  -7   0 5830.58 787.005  13
  -4  -7  -1 4983.57 667.268  13
  -4  -8   7 1317.66 494.036   8
  -4  -8   6 18424.0 1248.94  18
  -4  -8   6 19675.5 1375.86   8
  -4  -8   5 171.658 478.442  18
  -4  -8   5 284.516 553.663   8
  -4  -8   4 319.356 542.088   8
  -4  -8   3 3775.04 756.561   8
  -4  -8   2 988.638 393.889  13
  -4  -8   2 1515.28 582.420   8
   5 -10   1-1075.16 522.874   7
   5 -10   2 6893.85 934.521   7
   5 -10   3 1764.39 705.953   7
   5 -10   4 2807.28 645.617   7
   5 -10   5 602.899 327.667  11
   5  -9  -2 1429.49 588.595   7
   5  -9  -1 2279.62 716.611   7
   5  -9   0 4032.75 882.602   7
   5  -9   1 10296.9 1334.01   7
   5  -9   2-383.833 617.918   7
   5  -9   3 6671.33 1119.33   7
   5  -9   3 7065.27 917.724  11
   5  -9   4-798.982 673.783   7
   5  -9   4 1014.16 607.322  11
   5  -9   5 666.506 559.219  11
   5  -9   6 915.158 579.854  11
   5  -9   7-500.156 476.866  11
   5  -8  -4 348.359 337.964  12
   5  -8  -4 1343.94 438.341   9
   5  -8  -3 2524.94 717.828   7
   5  -8  -3 1995.72 517.906  12
   5  -8  -3 2679.52 564.072   9
   5  -8  -2 3038.21 839.443   7
   5  -8  -2 2019.39 567.869  12
   5  -8  -2 2529.80 605.594   9
   5  -8  -1 3899.22 1056.74   7
   5  -8  -1 5684.76 809.531  12
   5  -8   0-39.7324 906.575   7
   5  -8   1 14384.6 1680.43   7
   5  -8   2 718.662 807.237   7
   5  -8   2-195.089 597.626  11
   5  -8   3 20138.2 1817.96   7
   5  -8   3 19923.0 1683.48  11
   5  -8   4 1666.17 811.017   7
   5  -8   4-482.193 633.647  11
   5  -8   5 363.890 640.334  11
   5  -8   6 2878.52 802.138  11
   5  -8   7 2597.70 733.877  11
   5  -8   7 4374.88 686.667  10
   5  -8   8 983.888 498.030  11
   5  -8   8-519.222 381.039  10
   5  -7  -5 4087.72 628.045  12
   5  -7  -5 3012.05 589.646   9
   5  -7  -4-84.1448 540.788   7
   5  -7  -4 354.101 467.515  12
   5  -7  -4 236.219 435.801   9
   5  -7  -3 4849.99 975.946   7
   5  -7  -3 6172.43 891.347  12
   5  -7  -3 5979.44 918.316   9
   5  -7  -2 150.460 885.215   7
   5  -7  -2 622.393 479.396  12
   5  -7  -2-14.2113 503.917   9
   5  -7  -1 17590.0 1843.59   7
   5  -7  -1 17568.8 1398.82  12
   5  -7  -1 15000.6 1361.27   9
   5  -7   0 21107.0 1989.32   7
   5  -7   0 21993.9 1544.95  12
   5  -7   1 2922.52 1087.14   7
   5  -7   2 19701.6 1896.99   7
   5  -7   2 19611.1 1709.31  11
   5  -7   3 12218.5 1469.98   7
   5  -7   3 13181.3 1488.87  11
   5  -7   3 12674.0 1323.26  17
   5  -7   4 9413.53 1318.76  11
   5  -7   4 8664.24 1165.51  17
   5  -7   5 13666.1 1539.92  11
   5  -7   5 10069.4 1245.83  17
   5  -7   6-146.202 754.847  11
   5  -7   7 8674.69 1148.57  11
   5  -7   8 14793.8 1188.57  11
   5  -7   8 17095.3 1270.86  10
   5  -6  -6 4723.92 700.951  12
   5  -6  -6 3611.38 633.620   9
   5  -6  -5 9928.17 1067.53  12
   5  -6  -5 10778.4 1066.56   9
   5  -6  -4 12621.4 1455.56   7
   5  -6  -4 12968.8 1258.41  12
   5  -6  -4 11705.0 1219.29   9
   5  -6  -3 7834.29 1317.59   7
   5  -6  -3 8381.33 1075.20  12
   5  -6  -3 10297.7 1143.00   9
   5  -6  -2 40455.5 2648.84   7
   5  -6  -2 42165.5 2199.53  12
   5  -6  -2 39788.8 2122.39   9
   5  -6  -1 11634.8 1538.59   7
   5  -6  -1 9289.69 1634.41   2
   5  -6  -1 12332.3 1213.80  12
   5  -6  -1 13257.2 1280.61   9
   5  -6  -1 14853.6 2723.00   5
   5  -6   0 5443.00 1657.20   2
   5  -6   0 4900.27 1119.27   7
   5  -6   0 6518.93 925.419  12
   5  -6   0 4824.68 1673.10   5
   5  -6   1 11077.3 1981.05   2
   5  -6   1 12099.9 1504.02   7
   5  -6   1 9620.34 1855.32   5
   5  -6   2 3969.16 1802.84   4
   5  -6   2 5852.97 1237.49   7
   5  -6   2 6902.78 1043.09  17
   5  -6   3 32064.6 2191.82   7
   5  -6   3 28686.5 3024.02   4
   5  -6   3 32953.5 2078.83  17
   5  -6   4 3540.68 892.227  17
   5  -6   5 2970.78 850.729  17
   5  -6   6 9230.87 1262.08  17
   5  -6   7 743.115 675.982  11
   5  -6   8 3259.89 723.270  11
   5  -6   8 4068.77 820.291  10
   5  -6   9 2161.26 559.827  10
   5  -5  -7 6178.76 776.493  12
   5  -5  -7 5399.18 700.731   9
  -5   5   6 2897.49 818.882  14
   5  -5  -6 2807.89 721.784  12
   5  -5  -6 3792.85 731.689   9
   5  -5  -5 1449.72 728.414   7
   5  -5  -5 1092.55 574.044   9
   5  -5  -4 51488.2 2814.23   7
   5  -5  -4 56279.7 2530.43  12
   5  -5  -4 54035.9 2435.98   9
   5  -5  -3 2474.58 955.254   2
   5  -5  -3 626.340 713.529   7
   5  -5  -3 513.565 568.432  12
   5  -5  -3 1925.26 724.926   9
   5  -5  -3-1062.12 1048.78   5
   5  -5  -2 25410.8 2095.95   7
   5  -5  -2 24114.9 1638.33  12
   5  -5  -2 30276.2 3418.68   5
   5  -5  -2 24495.5 1658.13   9
   5  -5  -2 26309.2 2751.49   2
   5  -5  -1 14742.2 2035.90   2
   5  -5  -1 20758.2 1862.83   7
   5  -5  -1 19609.8 1465.23  12
   5  -5  -1 19416.8 2664.20   5
   5  -5  -1 18313.3 1438.58   9
   5  -5   0 2093.49 1116.17   2
   5  -5   0 2294.79 897.425   7
   5  -5   0 4106.00 745.718  12
   5  -5   0 3061.35 1696.41   5
   5  -5   1 26255.3 1954.98   7
   5  -5   1 31010.3 2646.22   1
   5  -5   1 22346.1 2778.76   5
   5  -5   1 26093.2 2425.09   2
   5  -5   1 25502.7 1721.21  17
   5  -5   1 23231.9 2577.64   4
   5  -5   2 6730.18 1484.19   2
   5  -5   2 9005.62 1957.48   4
   5  -5   2 5247.49 930.346   7
   5  -5   2 8321.45 1661.40   1
   5  -5   2 6340.81 1003.70  17
   5  -5   3 9795.05 1202.93  17
   5  -5   4 1974.74 767.799  17
   5  -5   5-224.892 633.227  17
   5  -5   6-623.364 672.122  17
   5  -5   7 1642.51 735.990  11
   5  -5   8 2703.42 657.426  11
   5  -5   8 4212.26 839.788  10
   5  -5   9 2200.79 556.897  10
  -5   4   8-69.1020 459.348  14
   5  -4  -8-315.055 394.568  12
   5  -4  -8-1096.40 368.091   9
  -5   4   7 3002.50 896.056  14
   5  -4  -7 1154.53 528.904   9
  -5   4   6 1284.69 792.622  14
   5  -4  -6 430.397 512.988   9
  -5   4   5 772.779 715.356  14
   5  -4  -5 1984.29 835.740   7
   5  -4  -5 1752.97 592.094   9
   5  -4  -4 8118.76 1586.53   2
  -5   4   4 6380.26 1110.10  14
   5  -4  -4 9295.50 1357.47   7
   5  -4  -4 6301.36 942.284   9
  -5   4   3 16826.7 1529.16  14
   5  -4  -3 19279.9 1773.67   7
   5  -4  -3 19864.4 1473.54  12
   5  -4  -3 20640.2 1499.57   9
   5  -4  -3 23778.2 2549.41   2
   5  -4  -2 6400.35 1325.43   2
  -5   4   2 5648.19 1161.25   3
   5  -4  -2 5546.13 860.319  12
   5  -4  -2 4646.60 754.932   9
   5  -4  -1 55299.5 2294.92  12
   5  -4  -1 59345.3 2352.86   9
   5  -4  -1 60580.5 3630.11   2
   5  -4   0 940.688 784.055   2
   5  -4   0-175.851 669.771   1
   5  -4   0 337.925 396.658  12
   5  -4   1 25212.4 1827.20   7
   5  -4   1 23947.1 2347.78   1
   5  -4   1 23630.5 2485.57   5
   5  -4   2 7040.56 1508.86   1
   5  -4   3 1451.57 1058.54   1
   5  -4   3 1117.95 603.959  17
   5  -4   4 26377.0 2804.10   1
   5  -4   4 29124.0 2016.61  17
   5  -4   5 12712.7 1394.78  17
   5  -4   6 722.340 632.101  17
   5  -4   7 19419.7 1563.68  17
   5  -4   8 9222.05 1089.38  10
   5  -4   9 5265.03 684.960  10
  -5   3   9-217.198 498.526  14
   5  -3  -9-579.628 367.367  12
  -5   3   8 903.572 678.520  14
  -5   3   7 272.557 718.580  14
   5  -3  -7 1183.33 466.794   9
  -5   3   6 4566.99 1031.35  14
   5  -3  -6 4846.26 777.142   9
  -5   3   5 16123.3 1633.16  14
   5  -3  -5 16915.0 2174.98   2
   5  -3  -5 17029.5 1339.40   9
   5  -3  -4 2719.49 1191.95   2
  -5   3   4 4196.64 1017.81  14
  -5   3   4 2977.12 1242.98   3
   5  -3  -4 4585.92 790.911   9
  -5   3   3 48947.0 2504.84  14
  -5   3   3 54023.8 3144.06   3
   5  -3  -3 52292.5 2229.48  12
   5  -3  -3 54599.6 2232.06   9
   5  -3  -3 53007.3 3471.88   2
   5  -3  -2 6003.31 1269.54   2
  -5   3   2 7257.37 1234.10   3
   5  -3  -2 6209.56 880.045  12
   5  -3  -1 514.612 837.459   2
   5  -3  -1 1740.70 872.163   1
   5  -3   0 16620.5 1925.52   1
   5  -3   1 1356.13 922.845   1
   5  -3   2 5162.24 1265.72   1
  -5   3  -3 12169.0 1264.93  15
   5  -3   3 12744.9 1975.67   1
  -5   3  -4 3795.10 749.423  15
   5  -3   4 2882.93 1318.72   1
   5  -3   4 3686.14 824.764  17
  -5   3  -5 25073.4 1724.76  15
   5  -3   5 22854.0 1792.64  17
  -5   3  -6 1165.27 548.475  16
   5  -3   6 801.027 679.469  17
  -5   3  -7 2246.51 595.388  16
   5  -3   8 3033.21 733.076  10
  -5   2   9 1718.62 710.722  14
   5  -2  -9 2540.30 537.274  12
  -5   2   8 802.579 779.274  14
  -5   2   7 4772.16 1054.25  14
  -5   2   6 41331.8 2554.18  14
   5  -2  -5 7066.27 1670.47   2
  -5   2   5 8397.68 1267.57  14
  -5   2   5 4308.17 1516.77   3
  -5   2   4 58905.8 2799.74  14
  -5   2   4 52388.4 3252.23   3
   5  -2  -4 54572.7 2221.65  12
   5  -2  -4 54855.7 3463.89   2
  -5   2   3 8808.20 1144.62  14
  -5   2   3 9320.85 1413.34   3
   5  -2  -3 11305.9 1627.06   2
  -5   2   2 15411.9 1711.99   3
   5  -2  -2 16059.3 1936.81   1
   5  -2  -2 15755.4 1812.94   2
   5  -2  -1 1058.53 803.979   1
   5  -2   0 784.106 811.371   1
   5  -2   1 38754.4 2898.85   1
   5  -2   2 19642.4 2232.56   1
  -5   2  -3 64179.1 2636.99  15
   5  -2   3 59192.6 3978.96   1
  -5   2  -4 24340.7 1735.65  15
   5  -2   4 23981.4 2747.55   1
   5  -2   4 25062.4 1791.30  17
  -5   2  -5 15837.7 1462.66  15
   5  -2   5 16861.8 1516.31  17
  -5   2  -6 14549.7 1311.50  16
   5  -2   6 14436.4 1337.56  17
  -5   2  -7 875.494 581.957  16
   5  -2   7 1059.81 578.803  10
  -5   2  -8 3220.62 571.162  16
  -5   1  10-185.948 457.321  14
  -5   1  10 753.629 460.651  19
  -5   1   9-457.874 604.481  14
  -5   1   8 11154.6 1456.47  14
  -5   1   7 290.013 748.807  14
  -5   1   6 174656. 5051.40  14
  -5   1   6 190376. 6809.99   3
   5  -1  -6 177495. 6281.23   2
  -5   1   5 80600.5 3332.32  14
  -5   1   5 89151.4 4451.74   3
   5  -1  -5 80866.2 2636.93  12
   5  -1  -5 88285.2 4283.68   2
  -5   1   4 84792.0 3272.07  14
  -5   1   4 82145.3 3995.85   3
   5  -1  -4 82735.3 3965.85   2
  -5   1   3 45084.9 2875.95   3
   5  -1  -3 50104.0 3247.34   1
   5  -1  -3 47920.3 2962.53   2
  -5   1   2 7000.15 1213.52   3
   5  -1  -2 6284.84 1280.11   1
   5  -1  -1 1411.63 826.531   1
   5  -1   0 1818.89 978.494   1
   5  -1   1 15474.6 1921.12   1
  -5   1  -2 91959.1 3164.61  15
   5  -1   2 82160.0 4471.96   1
  -5   1  -3 7098.19 1012.10  15
   5  -1   3 8190.73 1832.55   1
  -5   1  -4 23161.7 1769.19  15
   5  -1   4 23069.1 2635.38   1
   5  -1   4 22273.3 1669.15  17
  -5   1  -5 769.315 586.103  15
  -5   1  -6 8186.31 1089.41  16
  -5   1  -7 4993.59 786.868  16
  -5   1  -8 3712.77 574.456  16
  -5   0  10 1827.25 601.095  14
  -5   0  10 1337.67 485.928  19
  -5   0   9 349.267 649.691  14
  -5   0   9 698.261 562.552  19
  -5   0   8 1976.76 859.199  14
  -5   0   7 7449.19 1302.54  14
  -5   0   6 10253.5 1358.85  14
  -5   0   6 8150.50 1762.72   3
  -5   0   5 37384.1 2314.48  14
  -5   0   5 35402.4 2932.11   3
   5   0  -5 32077.4 2537.29   2
  -5   0   4 14393.8 1431.86  14
  -5   0   4 13027.6 1770.36   3
   5   0  -4 15185.7 1724.64   2
  -5   0   3 5616.54 1126.61   3
  -5   0   3 5948.45 1528.22   6
   5   0  -3 6817.60 1254.07   2
   5   0  -3 6166.22 1277.84   1
   5   0  -2 3578.56 1075.09   1
  -5   0   2 3384.44 901.645   3
   5   0  -1 881.292 816.041   1
   5   0   0 950.952 858.625   1
   5   0   1 20016.0 2269.68   1
  -5   0  -1 24119.2 1696.21  15
  -5   0  -2 27410.8 1845.76  15
   5   0   2 24721.2 2625.53   1
  -5   0  -3 63007.8 2823.50  15
   5   0   3 63904.5 4292.73   1
  -5   0  -4 2536.17 831.881  15
  -5   0  -5 3150.60 819.355  16
  -5   0  -6 18074.2 1455.32  16
  -5   0  -7 18.2596 438.984  16
  -5  -1  10 595.133 511.144  14
  -5  -1  10 1022.19 537.725  19
  -5  -1   9-535.788 658.798  14
  -5  -1   9 154.252 571.306  19
  -5  -1   8 2618.43 931.866  14
  -5  -1   8 4194.48 965.809  19
  -5  -1   7 15162.8 1598.06  14
  -5  -1   7 18820.9 1681.97  19
  -5  -1   6 870.631 692.664  14
  -5  -1   6 755.205 979.411   3
  -5  -1   6-992.294 1286.90   6
  -5  -1   5 1831.71 750.411  14
  -5  -1   5 1649.19 931.576   3
  -5  -1   5 980.531 1354.82   6
  -5  -1   4 517.404 584.861  14
  -5  -1   4 258.136 721.023   3
  -5  -1   4 1534.70 1279.29   6
  -5  -1   3 16367.5 1477.23  14
  -5  -1   3 17265.1 1893.12   3
   5   1  -3 14002.4 1768.20   1
  -5  -1   3 16476.4 2222.51   6
   5   1  -2 7270.42 1386.48   1
  -5  -1   2 8074.38 1063.12  14
  -5  -1   2 9449.80 1402.68   3
  -5  -1   1 4814.36 858.819  15
   5   1  -1 4571.41 1210.38   1
  -5  -1   1 2955.47 997.402   3
   5   1   0 7208.10 1360.18   1
  -5  -1   0 8173.47 1044.04  15
  -5  -1   0 5390.62 1114.45   3
   5   1   1 80258.3 4445.59   1
  -5  -1  -1 76475.4 3071.64  15
  -5  -1  -2 9596.53 1228.49  15
   5   1   2 8447.05 1825.51   1
  -5  -1  -3 7603.63 1143.73  15
  -5  -1  -4 1961.37 722.536  15
  -5  -1  -5 9321.13 1129.10  16
  -5  -1  -6 23861.7 1554.29  16
  -5  -1  -7 682.003 356.252  16
  -5  -2  10 2453.36 609.253  14
  -5  -2  10 2382.55 599.340  19
  -5  -2   9 7169.03 1004.56   8
  -5  -2   9 6814.07 1012.73  19
  -5  -2   8-20.5610 673.750   8
  -5  -2   8 1299.60 764.824  14
  -5  -2   8-754.427 680.555  19
  -5  -2   7-48.4723 614.506  14
  -5  -2   7 94.3716 596.956  19
  -5  -2   6 14219.3 1517.15  14
  -5  -2   6 12675.1 1808.40   3
  -5  -2   6 9750.70 2228.90   6
  -5  -2   5 425.205 749.383  14
  -5  -2   5 667.088 763.192   3
  -5  -2   5 179.886 806.019   6
  -5  -2   4 15008.8 1511.18  14
  -5  -2   4 15003.8 1933.22   3
  -5  -2   4 17490.3 2514.41   6
  -5  -2   3 8944.41 1272.48   8
  -5  -2   3 8714.31 1139.72  14
  -5  -2   3 9566.95 1503.96   3
  -5  -2   2 26196.9 1822.04  15
   5   2  -2 28571.0 2370.77   1
  -5  -2   2 27578.6 2311.31   3
  -5  -2   2 28294.5 2002.41   8
  -5  -2   1 28116.7 1855.36  15
   5   2  -1 28340.8 2503.82   1
  -5  -2   1 25062.0 1881.63   8
   5   2   0 2589.04 1498.23   1
  -5  -2   0 1839.00 624.553  15
   5   2   1 44898.2 3623.50   1
  -5  -2  -1 39852.9 2258.37  15
  -5  -2  -2 15151.4 1491.30  15
  -5  -2  -3 4011.91 874.575  15
  -5  -2  -4 22545.0 1641.90  16
  -5  -2  -5 5224.54 841.862  16
  -5  -2  -6 7854.17 800.698  16
  -5  -3  10-876.717 517.577  19
  -5  -3   9 1892.39 628.847   8
  -5  -3   9 915.101 598.533  19
  -5  -3   8 19900.0 1582.76  14
  -5  -3   8 20019.0 1663.66  19
  -5  -3   8 19593.5 1760.84   8
  -5  -3   7 33305.4 2091.81  14
  -5  -3   7 37609.8 2257.58  19
  -5  -3   7 37436.0 2447.93   8
  -5  -3   6 19267.2 1673.87  14
  -5  -3   6 18211.2 1851.77   8
  -5  -3   5 6242.85 1207.69   8
  -5  -3   5 8870.51 1222.28  14
  -5  -3   5 5878.42 1443.21   3
  -5  -3   5 4767.52 1756.09   6
  -5  -3   4 4951.84 1146.55   8
  -5  -3   4 6567.89 1088.87  14
  -5  -3   4 3141.90 1300.58   3
  -5  -3   3 4368.08 1015.24   8
  -5  -3   3 4508.90 897.666  15
  -5  -3   2 41.1212 757.963   8
  -5  -3   2 801.322 583.784  15
  -5  -3   1 2574.60 867.814   8
  -5  -3   1 1584.99 655.329  15
  -5  -3   0 25520.1 1830.28  15
  -5  -3  -1 30355.0 1974.99  15
  -5  -3  -2 38430.0 2093.84  16
  -5  -3  -2 46523.9 2394.16  15
  -5  -3  -3-137.003 507.483  16
  -5  -3  -4 24122.5 1495.63  16
  -5  -3  -4 23225.9 1539.68  13
  -5  -3  -5 234.841 343.361  16
  -5  -3  -5 10.1700 445.323  13
  -5  -4  10 322.411 436.798  19
  -5  -4   9 5489.43 881.845   8
  -5  -4   9 5031.67 889.947  19
  -5  -4   8 5578.66 1003.82   8
  -5  -4   8 5298.96 981.244  19
  -5  -4   7 7644.83 1255.00   8
  -5  -4   7 9810.22 1192.71  19
  -5  -4   6 5704.56 1184.43   8
  -5  -4   6 6366.23 1056.19  19
  -5  -4   5 17815.5 1551.46  15
  -5  -4   5 15339.5 1711.14   8
  -5  -4   4 12925.9 1340.70  15
  -5  -4   4 12903.6 1624.36   8
  -5  -4   3 1629.48 828.820   8
  -5  -4   3 1639.93 607.321  15
  -5  -4   2 9828.04 1402.95   8
  -5  -4   2 13337.9 1325.05  15
  -5  -4   1 22814.1 1672.02  15
  -5  -4   1 20432.4 1780.11   8
  -5  -4   1 20998.3 1782.70  18
  -5  -4   0-561.886 506.843  15
  -5  -4  -1 20016.8 1511.94  15
  -5  -4  -2 3249.43 707.247  16
  -5  -4  -2 2075.75 727.338  13
  -5  -4  -3 1701.39 510.463  16
  -5  -4  -3 1737.30 651.956  13
  -5  -4  -4 181.049 321.715  16
  -5  -4  -4 234.053 443.960  13
  -5  -5   9 786.778 507.062   8
  -5  -5   9 1263.67 514.186  19
  -5  -5   8-154.445 592.672   8
  -5  -5   8-256.099 518.899  19
  -5  -5   8 370.458 437.494  18
  -5  -5   7 1995.49 801.169   8
  -5  -5   7 2475.13 761.490  19
  -5  -5   7 1512.94 691.063  18
  -5  -5   6 673.255 820.847   8
  -5  -5   6 234.812 530.725  19
  -5  -5   6 749.845 698.254  18
  -5  -5   5 26202.8 1809.41  19
  -5  -5   5 25955.4 2135.40   8
  -5  -5   4 2215.02 964.957   8
  -5  -5   4 2043.21 885.119  18
  -5  -5   3 3233.04 1032.78   8
  -5  -5   3 2827.99 966.566  18
  -5  -5   2 2644.41 882.522   8
  -5  -5   2 1147.20 636.981  13
  -5  -5   2 767.567 743.890  18
  -5  -5   1 7426.68 1007.95  13
  -5  -5   1 6000.14 1138.57  18
  -5  -5   1 5251.59 1031.89   8
  -5  -5   0 2221.78 712.914  13
  -5  -5   0 1996.85 751.223  18
  -5  -5  -1 652.881 634.355  13
  -5  -5  -2 5.48957 488.479  13
  -5  -6   9 716.841 464.824   8
  -5  -6   9 660.722 405.180  19
  -5  -6   8 2973.11 651.584  19
  -5  -6   8 2551.96 550.696  18
  -5  -6   7 1761.04 740.677   8
  -5  -6   7 1485.57 580.319  19
  -5  -6   7 1831.52 613.581  18
  -5  -6   6 3617.18 928.472   8
  -5  -6   6 5403.84 957.063  18
  -5  -6   5 1061.69 791.719   8
  -5  -6   5 1723.44 813.147  18
  -5  -6   4 24211.9 1886.86   8
  -5  -6   4 24883.1 1874.14  18
  -5  -6   3 12063.1 1395.78   8
  -5  -6   3 12333.9 1405.84  18
  -5  -6   2 4697.66 756.295  13
  -5  -6   2 5826.48 1008.89  18
  -5  -6   2 7287.07 1064.66   8
  -5  -6   1 25183.1 1502.50  13
  -5  -6   1 29996.6 1726.51  18
  -5  -6   0 6078.71 807.767  13
  -5  -6  -1 9642.03 871.790  13
  -5  -7   7 1332.41 427.820  18
  -5  -7   7 1114.95 519.421   8
  -5  -7   6 6457.50 911.221   8
  -5  -7   6 4775.95 776.432  18
  -5  -7   5 1324.67 567.846  18
  -5  -7   5 577.597 567.563   8
  -5  -7   4 786.419 576.166  18
  -5  -7   4 123.285 543.196   8
  -5  -7   3 967.794 533.996  18
  -5  -7   3 274.843 504.904   8
  -5  -7   2-241.334 321.673  13
  -5  -7   2-542.104 473.391   8
   6  -9  -1 975.921 553.189   7
   6  -9   0 307.920 544.212   7
   6  -9   1 430.474 620.898   7
   6  -9   2 8289.48 1055.87   7
   6  -9   3 13027.2 1255.70   7
   6  -9   4 1249.49 515.558  11
   6  -9   5 10198.8 966.811  11
   6  -8  -3 2010.05 587.210   7
   6  -8  -2 19684.2 1562.12   7
   6  -8  -1 1595.48 794.166   7
   6  -8   0 18603.2 1692.50   7
   6  -8   1-37.3466 612.303   7
   6  -8   2 3082.80 936.304   7
   6  -8   2 2288.16 706.673  11
   6  -8   3 6211.83 1038.73   7
   6  -8   3 4361.14 894.551  11
   6  -8   4 189.457 595.343  11
   6  -8   5 14276.7 1314.07  11
   6  -8   6 2200.61 667.150  11
   6  -7  -5-41.3621 309.834  12
   6  -7  -4 2419.56 671.673   7
   6  -7  -4 2649.62 556.037  12
   6  -7  -3 815.890 569.408   7
   6  -7  -3 208.690 449.621  12
   6  -7  -2 15137.6 1648.31   7
   6  -7  -2 13934.4 1271.07  12
   6  -7  -1 12622.3 1571.15   7
   6  -7   0 223.176 815.964   7
   6  -7   1 10974.4 1492.92   7
   6  -7   2 12768.8 1522.87   7
   6  -7   2 12988.4 1261.21  17
   6  -7   3 3246.67 955.667   7
   6  -7   3 2732.24 735.814  17
   6  -7   4 1192.24 720.063  11
   6  -7   4 2283.11 701.366  17
   6  -7   5-462.967 655.788  11
   6  -7   5 270.624 516.238  17
   6  -7   6 1418.96 721.810  11
   6  -7   7 322.039 477.470  11
   6  -6  -6 480.461 397.784  12
   6  -6  -5 7951.64 1014.83   7
   6  -6  -5 9756.97 975.342  12
   6  -6  -5 7421.41 839.532   9
   6  -6  -4 1367.87 711.868   7
   6  -6  -4 113.512 492.575  12
   6  -6  -4 1067.00 559.843   9
   6  -6  -3 16215.2 1672.41   7
   6  -6  -3 15804.0 1378.97  12
   6  -6  -3 16835.3 1395.45   9
   6  -6  -2 5585.42 1167.88   7
   6  -6  -2 4874.16 862.668  12
   6  -6  -1 19558.4 1923.09   7
   6  -6  -1 18894.9 1530.68  12
   6  -6   0 21666.0 1983.86   7
   6  -6   1 4656.92 1105.36   7
   6  -6   1 2922.22 782.266  17
   6  -6   2 17954.0 1706.85   7
   6  -6   2 17255.2 1547.58  17
   6  -6   3 16137.3 1517.81  17
   6  -6   4 19951.7 1689.70  17
   6  -6   5 13625.5 1397.79  17
   6  -6   6 9117.92 1198.26  11
   6  -6   6 7584.80 1068.88  17
   6  -6   7 1022.83 578.555  11
   6  -5  -7 1138.86 414.639  12
   6  -5  -6 1030.79 496.451  12
   6  -5  -6 366.246 383.470   9
   6  -5  -5 6330.55 1099.10   7
   6  -5  -5 5404.78 865.327  12
   6  -5  -5 7072.35 899.890   9
   6  -5  -4 857.591 675.287   7
   6  -5  -4 643.600 590.918  12
   6  -5  -4 214.206 500.183   9
   6  -5  -3 27663.9 2196.59   7
   6  -5  -3 30402.3 1917.67  12
   6  -5  -3 27699.5 1753.12   9
   6  -5  -2 30520.5 2341.94   7
   6  -5  -2 31418.0 1942.75  12
   6  -5  -1 9328.45 1445.73   7
   6  -5  -1 8898.99 1111.22  12
   6  -5  -1 8867.14 2448.23   5
   6  -5   0-867.510 831.150   7
   6  -5   0 297.388 1430.93   5
   6  -5   1 13295.9 1884.48   2
   6  -5   1 13316.9 1535.63   7
   6  -5   1 10514.2 1886.24   1
   6  -5   1 13235.0 1365.69  17
   6  -5   2-67.5855 681.319   7
   6  -5   2 105.566 555.876  17
   6  -5   3 34477.3 2201.25  17
   6  -5   4 11913.2 1379.26  17
   6  -5   5 28058.9 1977.45  17
   6  -5   6 449.899 588.416  17
   6  -5   7 1770.21 679.718  11
   6  -5   8 820.365 438.426  10
  -6   4   8 1755.84 554.221  14
   6  -4  -8 816.352 361.886  12
  -6   4   7 739.871 548.761  14
   6  -4  -7 679.148 452.043  12
   6  -4  -6 30.3368 577.481   7
   6  -4  -6 164.200 470.700  12
   6  -4  -6 42.6875 434.394   9
  -6   4   5 4488.39 990.152  14
   6  -4  -5 6369.26 1173.09   7
   6  -4  -5 6270.33 950.329  12
   6  -4  -5 5065.45 799.385   9
  -6   4   4 22678.8 1841.85  14
   6  -4  -4 24001.0 2064.82   7
   6  -4  -4 25156.3 1737.79  12
   6  -4  -4 22853.8 1558.81   9
  -6   4   3 11342.4 1350.54  14
   6  -4  -3 15755.3 1402.45  12
   6  -4  -2 17778.4 2325.71   2
  -6   4   2 15095.0 1492.94  14
   6  -4  -2 16083.1 1403.63  12
  -6   4   2 17526.2 2029.53   3
   6  -4  -1 889.388 966.897   2
  -6   4   1-3.67218 898.514   3
   6  -4  -1 849.603 661.192  12
   6  -4   0-8.36139 985.714   2
   6  -4   0-2171.29 1250.69   1
   6  -4   1 38406.9 2338.29   7
   6  -4   1 36109.4 3149.02   1
   6  -4   2 2450.37 1128.43   1
   6  -4   3 40324.3 2381.31  17
   6  -4   4 12203.9 1420.80  17
   6  -4   5 16137.7 1539.42  17
   6  -4   6 15788.3 1437.42  17
   6  -4   7 2108.13 601.003  11
   6  -4   8 390.784 428.900  10
  -6   3   8 3006.52 762.873  14
   6  -3  -8 3339.64 582.168  12
  -6   3   7-66.9576 726.952  14
   6  -3  -7 421.676 435.140  12
  -6   3   6 9535.31 1316.08  14
   6  -3  -6 10255.0 1303.28   7
   6  -3  -6 9624.77 1061.23  12
  -6   3   5 199.815 789.622  14
   6  -3  -5 489.003 543.688  12
   6  -3  -5-1363.23 580.786   9
  -6   3   4 21841.7 1882.44  14
   6  -3  -4 21052.5 1583.22  12
  -6   3   3 39466.5 2342.17  14
  -6   3   3 41841.9 3109.24   3
   6  -3  -3 38359.9 2055.08  12
   6  -3  -3 44175.0 3396.41   2
   6  -3  -2 5250.12 1555.10   2
  -6   3   2 4934.33 992.545  14
   6  -3  -2 3690.76 816.485  12
  -6   3   2 5498.87 1447.49   3
  -6   3   1 60469.1 2597.64  15
  -6   3   1 66320.5 2819.85  14
   6  -3  -1 59235.8 3978.85   1
  -6   3   0-896.593 541.715  15
   6  -3   0-467.715 913.313   1
  -6   3  -1 7699.26 1049.96  15
   6  -3   1 5604.91 1453.44   1
  -6   3  -2 5.47964 467.052  15
   6  -3   2-169.388 850.249   1
  -6   3  -3 3696.46 754.701  15
   6  -3   3 4178.62 866.619  17
  -6   3  -4 16903.6 1428.10  15
   6  -3   4 18548.1 1655.37  17
   6  -3   5 207.487 645.663  17
  -6   3  -6 86.3084 427.188  16
   6  -3   6 609.566 571.590  17
   6  -3   7 16183.1 1198.16  10
  -6   2   9 1200.14 567.628  14
  -6   2   8 173.397 650.349  14
  -6   2   7 614.391 704.271  14
   6  -2  -7 304.098 659.145   7
   6  -2  -7 883.575 544.808  12
  -6   2   6 5026.84 1160.10  14
   6  -2  -6 5290.83 860.024  12
  -6   2   5 993.224 735.881  14
   6  -2  -5 2253.92 650.151  12
  -6   2   4 69087.2 3210.54  14
   6  -2  -4 76862.4 2757.71  12
   6  -2  -4 72886.2 4221.32   2
  -6   2   3 6773.87 1119.74  14
   6  -2  -3 8817.36 1037.33  12
  -6   2   3 5570.02 1523.94   3
  -6   2   2 20374.3 1702.37  14
  -6   2   2 19745.7 2194.05   3
   6  -2  -2 17724.4 2388.58   1
   6  -2  -2 22778.8 2485.53   2
  -6   2   1 3032.03 785.154  15
  -6   2   1 3827.84 865.555  14
   6  -2  -1 5945.30 1469.52   1
  -6   2   0 7171.24 1064.18  15
   6  -2   0 8389.18 1770.61   1
  -6   2  -1 9304.72 1154.49  15
   6  -2   1 11347.5 1898.24   1
  -6   2  -2 8708.38 1120.08  15
   6  -2   2 7987.09 1705.97   1
  -6   2  -3 22130.1 1702.31  15
  -6   2  -4 3487.97 810.465  15
   6  -2   4 3010.43 775.748  17
   6  -2   5 14487.8 1343.80  17
  -6   2  -6 8012.98 942.715  16
  -6   2  -7 14283.2 996.024  16
  -6   1   9-128.499 493.357  14
  -6   1   8 8851.55 1262.07  14
  -6   1   7 988.045 802.045  14
  -6   1   6 3217.59 1013.86  14
  -6   1   5 23163.6 2011.51  14
  -6   1   4 68994.0 3210.96  14
  -6   1   4 72794.0 4148.09   3
   6  -1  -4 67966.0 3994.01   2
   6  -1  -3 6067.62 1554.41   1
   6  -1  -3 5287.04 1605.59   2
  -6   1   3 4739.54 1064.64  14
  -6   1   3 3244.76 1098.30   3
   6  -1  -2 1839.29 1130.04   1
  -6   1   2 1712.13 740.261  14
  -6   1   2-150.023 887.108   3
  -6   1   1 3084.60 754.332  15
  -6   1   1 3280.20 867.513  14
   6  -1  -1 1705.91 1282.28   1
  -6   1   1 4620.38 1238.08   3
  -6   1   0 9050.78 1192.51  15
   6  -1   0 9450.67 1893.61   1
  -6   1  -1 7983.76 1101.29  15
   6  -1   1 9450.45 1867.64   1
   6  -1   2 4376.88 1184.54   1
  -6   1  -2 5506.36 1008.10  15
  -6   1  -3 17724.1 1574.35  15
  -6   1  -4 4378.37 903.291  15
   6  -1   4 2566.77 710.385  17
  -6   1  -5 422.124 517.768  16
  -6   1  -6 3296.06 666.833  16
  -6   1  -7 2092.83 480.687  16
  -6   0   9 4778.57 792.582   8
  -6   0   9 3265.54 741.859  14
  -6   0   8 21.7201 653.581  14
  -6   0   7 15705.6 1665.66  14
  -6   0   6 3898.39 1071.82  14
  -6   0   5 29798.4 2219.88  14
   6   0  -4 9277.47 1824.64   2
  -6   0   4 12173.5 1477.02  14
   6   0  -3 539.919 1034.07   2
   6   0  -3 2978.92 1486.66   1
  -6   0   3 2149.98 781.786  14
  -6   0   3 1691.64 1049.11   3
   6   0  -2 12466.3 1968.57   1
  -6   0   2 9561.94 1227.86  15
  -6   0   2 11604.7 1408.51  14
  -6   0   2 11152.9 1730.31   3
   6   0  -1 6912.04 1639.86   1
  -6   0   1 5522.92 979.894  15
  -6   0   1 7392.96 1455.23   3
  -6   0   0 2486.84 798.710  15
  -6   0   0 4045.31 1296.15   3
   6   0   0 2481.22 1306.03   1
  -6   0  -1 17867.3 1599.80  15
   6   0   1 14405.4 2141.93   1
  -6   0  -2 1090.65 576.461  15
  -6   0  -3 6526.35 1023.98  15
   6   0   3 9077.70 1116.43  17
  -6   0  -4 10977.3 1255.69  15
  -6   0  -5 5248.14 874.000  16
  -6   0  -6 217.029 387.419  16
  -6  -1  10 3256.28 583.629  14
  -6  -1   9 5132.14 810.353   8
  -6  -1   9 4571.96 869.537  14
  -6  -1   8 12996.1 1362.42  14
  -6  -1   8 14058.0 1452.39   8
  -6  -1   7 646.182 640.146  14
  -6  -1   6 14778.0 1609.90  14
  -6  -1   5 5256.83 1108.83  14
  -6  -1   4 1977.01 829.071  14
  -6  -1   4 1245.92 718.721   3
  -6  -1   3 1965.47 850.438  14
  -6  -1   3 2187.51 1065.99   3
   6   1  -3 2419.29 1436.80   1
  -6  -1   2 617.143 736.604   8
  -6  -1   2 541.436 595.569  15
  -6  -1   2-1311.12 1022.70   3
   6   1  -2 628.981 1339.01   1
  -6  -1   1 18471.0 1645.47  15
  -6  -1   1 15561.1 1940.36   3
  -6  -1   1 16050.7 1588.42   8
   6   1  -1 19478.6 2439.66   1
  -6  -1   0 40701.6 2375.75  15
   6   1   0 36873.1 3042.43   1
  -6  -1  -1 3837.76 880.642  15
  -6  -1  -2 22513.0 1798.08  15
  -6  -1  -3 12531.2 1336.53  15
  -6  -1  -4 6670.02 989.056  16
  -6  -1  -5 8002.79 898.426  16
  -6  -2   9 569.588 559.894   8
  -6  -2   9 1527.29 606.617  14
  -6  -2   8 1655.07 808.301   8
  -6  -2   8 2305.27 756.084  14
  -6  -2   7 3994.86 1032.71   8
  -6  -2   7 5859.66 1024.98  14
  -6  -2   6 339.414 837.249   8
  -6  -2   6-20.4655 545.419  14
  -6  -2   5 117.221 672.390   8
  -6  -2   5-55.9336 657.830  14
  -6  -2   4-2341.25 922.285   8
  -6  -2   4 1399.10 708.736  14
  -6  -2   3 2046.82 872.359   8
  -6  -2   3 2086.98 770.109  15
  -6  -2   2 1552.18 864.654   8
  -6  -2   2 1064.47 648.640  15
  -6  -2   1 2074.49 769.518   8
  -6  -2   1 2226.84 722.728  15
  -6  -2   0 20313.2 1740.91  15
  -6  -2  -1 7221.44 1075.50  15
  -6  -2  -2 3964.89 854.296  15
  -6  -2  -3 741.225 570.997  16
  -6  -2  -3 975.574 551.497  15
  -6  -2  -4 6289.76 820.406  16
  -6  -3   9 10072.3 1019.51   8
  -6  -3   8 495.224 582.184   8
  -6  -3   8 716.193 484.237  14
  -6  -3   7 1151.67 728.457   8
  -6  -3   7 1840.20 694.171  14
  -6  -3   6 3680.62 1066.86   8
  -6  -3   5 1820.29 924.028   8
  -6  -3   5 1214.01 644.450  15
  -6  -3   4 1639.39 868.848   8
  -6  -3   4 1266.54 672.871  15
  -6  -3   3 1267.82 784.935   8
  -6  -3   3-629.285 628.056  15
  -6  -3   2 8087.56 1227.52   8
  -6  -3   2 8498.50 1135.46  15
  -6  -3   1 6133.16 1001.02  15
  -6  -3   0 13823.1 1366.01  15
  -6  -3   0 14297.4 1390.86  18
  -6  -3  -1 3608.69 750.110  16
  -6  -3  -1 3727.06 768.937  15
  -6  -3  -2 3053.16 678.262  16
  -6  -3  -2 2655.10 674.253  15
  -6  -3  -3 8493.50 840.465  16
  -6  -3  -3 9165.98 985.465  13
  -6  -4   9 1636.29 486.786   8
  -6  -4   8 1798.28 651.354   8
  -6  -4   8 2091.79 554.137  18
  -6  -4   7 4253.51 953.017   8
  -6  -4   7 3642.39 730.363  15
  -6  -4   6 13067.8 1213.24  15
  -6  -4   6 13977.2 1554.55   8
  -6  -4   5 2407.96 923.072   8
  -6  -4   5 73.4612 480.490  15
  -6  -4   4 13036.9 1248.52  15
  -6  -4   4 10964.1 1437.97   8
  -6  -4   3 12829.1 1235.95  15
  -6  -4   3 12469.6 1483.28   8
  -6  -4   2 11497.4 1166.32  15
  -6  -4   2 12675.4 1395.55   8
  -6  -4   2 12983.3 1421.59  18
  -6  -4   1 10182.4 1075.45  15
  -6  -4   1 8472.41 1113.59  18
  -6  -4   0 8983.08 969.844  15
  -6  -4  -1 1130.93 570.654  13
  -6  -4  -2 948.199 478.484  13
  -6  -5   8 14954.9 1170.61   8
  -6  -5   8 11972.7 880.157  18
  -6  -5   7 216.199 586.727   8
  -6  -5   7 1058.64 502.180  18
  -6  -5   6 11395.5 1320.42   8
  -6  -5   6 12433.8 1237.31  18
  -6  -5   5 715.982 693.728   8
  -6  -5   5 1994.70 727.474  18
  -6  -5   4 3055.03 872.611   8
  -6  -5   4 2535.37 826.579  18
  -6  -5   3 4119.31 878.810   8
  -6  -5   3 4123.26 904.908  18
  -6  -5   2 9554.20 912.324  13
  -6  -5   2 8793.13 1061.47   8
  -6  -5   2 9314.59 1114.81  18
  -6  -5   1 9957.41 945.988  13
  -6  -5   1 12333.5 1119.33  18
  -6  -5   0 5682.21 751.262  13
  -6  -6   6 1560.34 590.049   8
  -6  -6   6 1425.17 540.256  18
  -6  -6   5 9851.14 1046.37   8
  -6  -6   5 10126.5 1025.11  18
  -6  -6   4 309.625 514.065  18
  -6  -6   4 482.151 514.700   8
  -6  -6   3 660.707 536.697  18
  -6  -6   3-173.727 469.760   8
  -6  -6   2 22748.8 1269.96  18
   7  -8  -2-146.303 447.317   7
   7  -8  -1 7886.37 1016.47   7
   7  -8   0 11014.6 1222.62   7
   7  -8   1-183.119 561.264   7
   7  -8   2 21984.6 1485.00   7
   7  -8   3 1539.14 598.162  11
   7  -8   4 30866.2 1569.75  11
   7  -7  -3 4329.64 824.049   7
   7  -7  -2 1119.01 595.393   7
   7  -7  -1 452.675 784.250   7
   7  -7   0 3540.16 893.630   7
   7  -7   1 18057.6 1581.40   7
   7  -7   2 1044.11 621.503   7
   7  -7   2 900.158 595.156  11
   7  -7   2 36.3013 472.493  17
   7  -7   3 3653.89 826.842  11
   7  -7   3 3500.26 710.096  17
   7  -7   4 4638.77 841.887  11
   7  -7   4 3832.44 731.782  17
   7  -7   5-13.3721 518.966  11
   7  -6  -5 434.018 352.888   7
   7  -6  -5 1010.26 408.073  12
   7  -6  -4 5135.14 898.727   7
   7  -6  -4 5345.37 757.547  12
   7  -6  -3 1965.67 854.685   7
   7  -6  -2 1535.01 793.651   7
   7  -6  -1 1541.99 843.831   7
   7  -6   0 115.039 778.878   7
   7  -6   1 8506.81 1266.44   7
   7  -6   1 9285.49 1091.32  17
   7  -6   2 8861.79 1127.04   7
   7  -6   2 6950.05 1020.51  17
   7  -6   3 9566.33 1151.17  17
   7  -6   4 16366.2 1401.69  17
   7  -6   5-401.829 485.309  17
   7  -6   6 11808.2 1047.98  11
   7  -5  -6 8897.82 794.443  12
   7  -5  -5 1461.98 624.943   7
   7  -5  -5 289.031 419.446  12
   7  -5  -4 27615.8 2031.91   7
   7  -5  -4 26828.0 1649.15  12
   7  -5  -3 6850.34 1241.24   7
   7  -5  -3 7364.89 1018.58  12
   7  -5  -2 3421.59 1007.47   7
   7  -5  -1 28646.5 2209.99   7
   7  -5  -1 29475.9 1823.84  17
   7  -5   0 23075.8 1974.63   7
   7  -5   0 24940.7 1769.88  17
   7  -5   1 6798.65 1154.52   7
   7  -5   1 8454.50 1180.44  17
   7  -5   2 15741.6 1549.85  17
   7  -5   3 1289.01 702.608  17
   7  -5   4 19047.6 1574.53  17
   7  -5   5 628.289 627.984  17
   7  -5   6 3900.57 724.417  11
   7  -5   6 3802.85 685.075  17
  -7   4   7 7302.38 820.863  14
   7  -4  -7 6989.90 668.622  12
  -7   4   6 374.021 541.035  14
   7  -4  -6 582.422 520.921   7
   7  -4  -6 252.300 374.775  12
  -7   4   5 3652.11 865.891  14
   7  -4  -5 5047.39 808.740  12
  -7   4   4 1937.61 736.728  14
   7  -4  -4 2281.21 881.032   7
   7  -4  -4 2220.98 700.283  12
   7  -4  -3 9100.80 1389.16   7
  -7   4   3 10048.9 1209.71  14
  -7   4   2 11873.0 1301.78  14
   7  -4  -2 11326.7 1482.58   7
   7  -4  -1 221.030 708.504   7
   7  -4   0 14649.9 1607.02   7
   7  -4   1 13297.0 1494.76   7
   7  -4   2 33180.7 2144.74  17
   7  -4   3 22636.4 1792.95  17
   7  -4   4 21478.1 1666.30  17
   7  -4   5 14609.2 1288.07  17
   7  -4   6 3617.58 652.421  17
  -7   3   7 15564.6 1289.42  14
   7  -3  -7 14529.4 974.235  12
  -7   3   6-94.1164 662.654  14
   7  -3  -6 561.500 579.893   7
   7  -3  -6 784.525 455.707  12
  -7   3   5 17264.9 1599.14  14
   7  -3  -5 16972.3 1333.03  12
  -7   3   4 941.334 698.075  14
   7  -3  -4 368.207 535.836  12
  -7   3   3 10910.8 1344.79  14
  -7   3   2 3352.56 838.956  15
  -7   3   2 3920.20 876.115  14
  -7   3   1 19952.0 1623.19  15
  -7   3   0 20233.1 1612.39  15
  -7   3  -1 37930.2 2108.85  15
  -7   3  -2 2582.66 741.295  15
  -7   3  -3 9056.05 1071.76  15
   7  -3   3 8530.01 1181.88  17
  -7   3  -4 1352.14 543.140  15
   7  -3   4 3566.20 826.449  17
  -7   3  -5 2792.17 646.345  16
   7  -3   5 2323.18 645.194  17
  -7   3  -6 363.670 365.615  16
  -7   2   8-879.925 536.801  14
  -7   2   7 9234.78 1148.31  14
   7  -2  -7 8861.47 1086.23   7
  -7   2   6 9920.73 1297.68  14
  -7   2   5 16631.7 1676.11  14
  -7   2   4 972.847 738.203  14
  -7   2   3 13744.4 1499.74  14
  -7   2   2 29815.6 2051.03  15
  -7   2   2 33514.2 2233.18  14
  -7   2   1 958.669 647.771  15
  -7   2   0 640.871 617.906  15
  -7   2  -1 17676.5 1563.25  15
  -7   2  -2 5707.00 998.714  15
  -7   2  -3 4915.74 894.153  15
   7  -2   3 4285.10 872.687  17
  -7   2  -4 1217.86 527.768  15
   7  -2   4 2533.01 705.865  17
  -7   2  -5 69.7152 416.757  16
   7  -2   5 504.674 450.522  17
  -7   2  -6 1898.04 454.453  16
  -7   1   8 2315.98 670.444  14
  -7   1   7 2504.35 824.734  14
  -7   1   6 44215.9 2521.82  14
  -7   1   5 12094.8 1500.15  14
  -7   1   4 1053.64 809.625  14
  -7   1   3 43147.5 2510.86  15
  -7   1   3 43568.4 2576.88  14
  -7   1   2 16988.2 1621.04  15
  -7   1   1 2380.93 765.463  15
  -7   1   0 4801.50 1000.37  15
  -7   1  -1 5803.20 985.901  15
  -7   1  -2 50880.9 2524.54  15
  -7   1  -3 354.494 502.650  15
   7  -1   3-144.215 498.590  17
  -7   1  -4 2858.03 677.176  15
  -7   1  -5 4798.50 699.079  16
  -7   0   8 9996.77 1126.83  14
  -7   0   8 7925.17 984.497   8
  -7   0   7 2935.06 833.968  14
  -7   0   6 444.901 762.411  14
  -7   0   5 24919.3 2017.87  14
  -7   0   4-296.033 706.374  14
  -7   0   3 22346.1 1888.44  15
  -7   0   2 2676.62 840.212   8
  -7   0   2 2063.14 752.855  15
  -7   0   1 393.947 599.744  15
  -7   0   0 22008.3 1802.74  15
  -7   0  -1 5713.75 1017.43  15
  -7   0  -2 6595.19 991.123  15
  -7   0  -3 3343.98 747.100  15
  -7   0  -4 745.636 497.243  16
  -7  -1   8 3265.03 753.969   8
  -7  -1   8 2928.37 680.547  14
  -7  -1   7 24273.3 1735.91  14
  -7  -1   7 24580.0 1865.41   8
  -7  -1   6 2867.98 948.775   8
  -7  -1   6 2605.06 832.989  14
  -7  -1   5 7513.55 1262.27   8
  -7  -1   5 8818.94 1259.00  14
  -7  -1   4 1448.02 784.227   8
  -7  -1   4 2604.80 858.344  15
  -7  -1   3 44.0765 652.618   8
  -7  -1   3 335.072 595.860  15
  -7  -1   2 742.644 751.662   8
  -7  -1   2-437.625 597.870  15
  -7  -1   1 12086.8 1384.44  15
  -7  -1   0 1405.19 703.830  15
  -7  -1  -1 28221.9 1903.84  15
  -7  -1  -2 2615.61 717.974  15
  -7  -1  -3 102.027 437.568  16
  -7  -1  -3-200.906 434.313  15
  -7  -1  -4 1838.76 512.912  16
  -7  -2   8 7376.88 966.248   8
  -7  -2   7 6910.68 1053.75   8
  -7  -2   7 7016.04 949.739  15
  -7  -2   6 2505.84 858.204   8
  -7  -2   6 1040.19 649.034  15
  -7  -2   5 4994.93 1062.28   8
  -7  -2   5 3816.80 839.690  15
  -7  -2   4 368.460 671.027   8
  -7  -2   4 1233.40 653.708  15
  -7  -2   3-934.342 740.576   8
  -7  -2   3 744.282 588.061  15
  -7  -2   2 4032.66 905.078   8
  -7  -2   2 2384.44 754.552  15
  -7  -2   1 15840.9 1454.16  15
  -7  -2   0 569.589 506.469  15
  -7  -2  -1 33380.0 1858.36  15
  -7  -2  -2 4498.97 680.323  16
  -7  -2  -2 4325.10 725.282  15
  -7  -2  -3 10146.1 813.931  16
  -7  -3   8 11315.1 892.768  15
  -7  -3   8 14109.1 1149.99   8
  -7  -3   8 11875.3 857.982  18
  -7  -3   7 6216.93 977.848   8
  -7  -3   7 6864.00 847.639  15
  -7  -3   6 1824.54 734.499   8
  -7  -3   6 3081.30 689.876  15
  -7  -3   5 1641.46 762.129   8
  -7  -3   5 1992.28 674.367  15
  -7  -3   4 526.332 654.947   8
  -7  -3   4 155.227 494.325  15
  -7  -3   3 1358.74 721.872   8
  -7  -3   3 780.537 516.833  15
  -7  -3   2 1999.85 697.854   8
  -7  -3   2 3471.09 732.668  15
  -7  -3   1 435.192 399.404  15
  -7  -3   1 713.139 654.284  18
  -7  -3   0 18723.6 1151.53  16
  -7  -3   0 22353.4 1417.01  15
  -7  -3  -1 598.887 396.748  16
  -7  -3  -1 53.4151 338.571  15
  -7  -4   7 5265.29 772.371   8
  -7  -4   7 4940.08 664.478  18
  -7  -4   6-332.692 553.297   8
  -7  -4   6 874.068 509.274  18
  -7  -4   5 15893.8 1061.55  15
  -7  -4   5 15189.0 1362.08   8
  -7  -4   5 16969.3 1361.79  18
  -7  -4   4 5351.19 886.646   8
  -7  -4   4 5616.91 708.702  15
  -7  -4   4 5998.69 939.557  18
  -7  -4   3 2197.42 646.013   8
  -7  -4   3 1586.59 480.693  15
  -7  -4   3 2096.01 737.160  18
  -7  -4   2 15328.0 1034.30  15
  -7  -4   2 13766.9 1159.10  18
  -7  -4   1 2161.77 438.822  15
  -7  -4   1 2079.56 492.074  13
  -7  -4   0 12281.8 869.732  13
   8  -7  -1 5326.79 833.289   7
   8  -7   0-11.8400 488.615   7
   8  -7   1 2092.19 572.925   7
   8  -7   2 14425.5 1031.57  11
   8  -7   2 13766.9 919.649  17
   8  -7   3 382.036 370.471  11
   8  -7   3-163.649 298.705  17
   8  -6  -3 9472.57 1040.30   7
   8  -6  -2 3208.00 803.559   7
   8  -6  -1 903.216 631.253   7
   8  -6   0 10507.0 1177.94   7
   8  -6   0 9322.47 892.276  17
   8  -6   1 6743.78 919.507   7
   8  -6   1 7858.60 900.038  17
   8  -6   2 14031.6 1142.26  17
   8  -6   3 4834.62 727.842  17
   8  -6   4 62.5584 391.948  17
   8  -5  -4 8366.63 1026.96   7
   8  -5  -3 7352.65 1101.45   7
   8  -5  -2 16971.6 1565.53   7
   8  -5  -1 7031.36 1116.10   7
   8  -5  -1 7917.29 940.380  17
   8  -5   0 1371.61 746.076   7
   8  -5   0 2802.26 662.007  17
   8  -5   1 8498.80 1047.00   7
   8  -5   1 7360.21 985.026  17
   8  -5   2 9873.96 1098.25  17
   8  -5   3 1733.56 610.331  17
   8  -5   4 10691.8 995.274  17
   8  -4  -5 605.541 512.937   7
   8  -4  -4 3691.65 853.468   7
   8  -4  -3 259.497 738.588   7
   8  -4  -2 8221.22 1256.71   7
   8  -4  -1-132.354 767.257   7
   8  -4   0-425.427 622.334   7
   8  -4   1 251.665 527.311  17
   8  -4   2-1032.66 583.703  17
   8  -4   3 1233.53 556.013  17
   8  -4   4 8363.51 894.566  17
  -8   3   6 3036.39 536.153  15
  -8   3   6 4606.95 721.617  14
   8  -3  -6 5556.43 834.324   7
  -8   3   5 2721.49 577.621  15
  -8   3   5 3585.37 794.624  14
   8  -3  -5 2112.39 713.068   7
  -8   3   4 9807.86 1046.11  15
   8  -3  -4 10734.6 1264.77   7
  -8   3   3 18640.4 1453.89  15
  -8   3   2 1791.18 636.677  15
  -8   3   1 20254.5 1482.62  15
  -8   3   0 499.816 487.012  15
   8  -3   0 1127.86 751.293   7
  -8   3  -1 3056.63 656.271  15
  -8   3  -2 787.862 432.072  15
   8  -3   2 200.639 511.014  17
  -8   3  -3 379.023 344.620  15
   8  -3   3 985.373 511.175  17
   8  -3   4 3980.78 642.473  17
  -8   2   6 7323.45 985.249  14
   8  -2  -6 8910.00 1044.44   7
  -8   2   5 10847.1 1148.31  15
  -8   2   5 12569.8 1296.45  14
  -8   2   4 2295.32 666.812  15
  -8   2   3 2084.09 663.983  15
  -8   2   2-377.112 517.405  15
  -8   2   1 1505.98 647.674  15
  -8   2   0 1562.10 622.499  15
  -8   2  -1 978.866 574.226  15
  -8   2  -2 8338.78 961.303  15
   8  -2   2 7245.53 953.762  17
  -8   2  -3 7791.45 862.591  15
   8  -2   3 7756.13 893.500  17
  -8   2  -4 3427.62 566.055  16
   8  -2   4 2638.94 494.097  17
  -8   1   7 12739.0 1030.25  15
  -8   1   7 15294.3 1172.11  14
   8  -1  -7 15820.8 1143.33   7
  -8   1   6 1142.96 532.912  15
  -8   1   6 602.172 622.092  14
  -8   1   5 18821.3 1486.92  15
  -8   1   5 24009.0 1726.82  14
  -8   1   4 12448.4 1300.13  15
  -8   1   3 16402.7 1499.88  15
  -8   1   2 1853.96 730.004   8
  -8   1   2 1182.14 694.897  15
  -8   1   1 41575.6 2268.16  15
  -8   1   0 221.445 508.842  15
  -8   1  -1 9142.82 1071.19  15
  -8   1  -2-614.484 457.125  15
   8  -1   2-174.156 455.463  17
  -8   1  -3 6158.02 743.706  15
   8  -1   3 5289.77 664.752  17
  -8   0   7 8920.76 897.057  15
  -8   0   7 12644.6 1122.79   8
  -8   0   6 12793.5 1192.54  15
  -8   0   6 13670.1 1304.37   8
  -8   0   5 2689.38 791.161   8
  -8   0   5 2371.08 708.592  15
  -8   0   4 936.583 678.546   8
  -8   0   4 1069.17 586.670  15
  -8   0   3 8457.41 1130.63   8
  -8   0   3 7586.52 1094.43  15
  -8   0   2 8819.02 1145.87  15
  -8   0   1 28788.6 1843.79  15
  -8   0   0 1283.35 596.989  15
  -8   0  -1 4993.65 794.268  15
   8   0   1 3974.79 659.452  17
  -8   0  -2 1246.66 500.567  15
  -8  -1   7-29.0595 458.695   8
  -8  -1   7-394.501 425.781  15
  -8  -1   6 3028.42 740.128   8
  -8  -1   6 3143.83 673.996  15
  -8  -1   5 19220.3 1442.27  15
  -8  -1   5 18322.5 1529.86   8
  -8  -1   4-48.1600 500.865   8
  -8  -1   4-297.688 517.832  15
  -8  -1   3 15146.9 1361.76  15
  -8  -1   3 12064.1 1209.61   8
  -8  -1   2 1697.02 650.312  15
  -8  -1   1 10106.3 1095.66  15
  -8  -1   0 7265.63 885.718  15
  -8  -1  -1 99.9859 331.375  15
  -8  -2   6 585.197 472.757   8
  -8  -2   6 652.287 434.270  15
  -8  -2   5 5449.32 860.680   8
  -8  -2   5 5945.89 791.188  15
  -8  -2   4-520.461 547.200   8
  -8  -2   4 984.993 542.105  15
  -8  -2   3 2596.50 692.983   8
  -8  -2   3 2643.33 626.213  15
  -8  -2   2 8212.29 909.094  15
  -8  -2   1 435.451 401.103  15
  -8  -2   0 14280.8 885.215  16
  -8  -2   0 17972.8 1116.29  15
  -8  -3   4 231.903 453.564   8
  -8  -3   4-474.439 315.962  15
  -8  -3   4-40.6434 467.779  18
  -8  -3   3 10895.8 824.193  15
  -8  -3   3 9901.28 937.981  18
   9  -4  -2 8608.21 947.859   7
   9  -4  -2 8656.25 770.424  17
   9  -4  -1 1215.48 567.847   7
   9  -4  -1 489.761 373.803  17
   9  -4   0 38390.7 1676.21  17
   9  -4   1 398.496 342.976  17
  -9   3   3 646.322 473.711   8
  -9   3   3 1142.92 393.673  15
   9  -3  -3 643.211 546.650   7
  -9   3   2 14298.0 977.509  15
   9  -3  -2 15931.3 1248.92   7
  -9   3   1 9781.24 838.430  15
   9  -3  -1 11947.4 1051.90   7
   9  -3  -1 10978.2 996.185  17
   9  -3   0 4406.53 726.983  17
   9  -3   1 9436.07 892.050  17
  -9   2   4 9599.41 831.919  15
   9  -2  -4 10159.0 1023.60   7
  -9   2   4 9501.10 927.097   8
  -9   2   3 3132.42 559.876  15
   9  -2  -3 3190.24 743.769   7
  -9   2   2 609.778 406.213  15
   9  -2  -2 1132.92 542.152   7
  -9   2   1 135.541 388.190  15
  -9   2   0 2179.23 498.269  15
   9  -2   0 1830.77 531.467  17
  -9   1   4 387.426 461.809   8
  -9   1   4 1301.23 432.794  15
  -9   1   3 13333.5 1035.39  15
  -9   1   2 23664.3 1350.01  15
   9  -1  -2 25392.7 1400.79   7
  -9   1   1-273.141 408.230  15
   0   0   0    0.00    0.00   0
TITL whu-3 in P-1
REM P-1 (#2 in standard setting)
CELL 1.54184   7.758394   9.083871  10.004288 109.1282  97.4082 103.7519
ZERR    9.00   0.000714   0.000774   0.000912   0.0080   0.0081   0.0078
LATT  1
SFAC C H N O S
UNIT 9.00 9.00 9.00 9.00 9.00
TREF
HKLF 4
END
;
_shelx_hkl_checksum              47239
_olex2_submission_special_instructions 'No special instructions were received'
loop_
_space_group_symop_operation_xyz
'x, y, z'
'-x, -y, -z'
loop_
_atom_site_label
_atom_site_type_symbol
_atom_site_fract_x
_atom_site_fract_y
_atom_site_fract_z
_atom_site_U_iso_or_equiv
_atom_site_adp_type
_atom_site_occupancy
_atom_site_site_symmetry_order
_atom_site_calc_flag
_atom_site_refinement_flags_posn
S1 S 0.79060(8) 0.64234(7) 0.30600(7) 0.01709(17) Uani 1 1 d .
O1 O 0.6621(2) 0.5915(2) 0.1692(2) 0.0209(4) Uani 1 1 d .
O4 O 0.7600(3) 0.7612(2) 0.4303(2) 0.0238(4) Uani 1 1 d .
N2 N 1.0169(3) 0.4254(2) 0.1821(2) 0.0154(4) Uani 1 1 d .
C1 C 1.0082(3) 0.7091(3) 0.2795(3) 0.0155(5) Uani 1 1 d .
C4 C 0.8032(3) 0.4697(3) 0.3405(3) 0.0161(5) Uani 1 1 d .
C6 C 1.0886(3) 0.5913(3) 0.2070(3) 0.0147(5) Uani 1 1 d .
C8 C 0.8997(3) 0.3711(3) 0.2625(3) 0.0154(5) Uani 1 1 d .
C10 C 1.2719(3) 0.2977(3) 0.1765(3) 0.0175(5) Uani 1 1 d .
H10A H 1.3592 0.4056 0.2244 0.021 Uiso 1 1 calc R
H10B H 1.2416 0.2553 0.2506 0.021 Uiso 1 1 calc R
C11 C 1.2513(4) 0.9300(3) 0.2834(3) 0.0195(5) Uani 1 1 d .
H11 H 1.3094 1.0412 0.3127 0.023 Uiso 1 1 calc R
C13 C 0.7667(3) 0.1692(3) 0.3602(3) 0.0203(6) Uani 1 1 d .
H13 H 0.7506 0.0658 0.3634 0.024 Uiso 1 1 calc R
C15 C 1.0891(3) 0.8757(3) 0.3194(3) 0.0180(5) Uani 1 1 d .
H15 H 1.0340 0.9501 0.3700 0.022 Uiso 1 1 calc R
C17 C 1.2498(3) 0.6502(3) 0.1651(3) 0.0179(5) Uani 1 1 d .
H17 H 1.3044 0.5770 0.1119 0.022 Uiso 1 1 calc R
C19 C 1.3271(4) 0.8160(3) 0.2027(3) 0.0199(6) Uani 1 1 d .
H19 H 1.4327 0.8524 0.1732 0.024 Uiso 1 1 calc R
C21 C 1.1002(3) 0.3099(3) 0.0927(3) 0.0155(5) Uani 1 1 d .
H21A H 1.1303 0.3433 0.0138 0.019 Uiso 1 1 calc R
H21B H 1.0113 0.2025 0.0503 0.019 Uiso 1 1 calc R
C23 C 0.6990(3) 0.4226(3) 0.4322(3) 0.0192(5) Uani 1 1 d .
H23 H 0.6426 0.4933 0.4865 0.023 Uiso 1 1 calc R
C25 C 0.6797(4) 0.2727(3) 0.4422(3) 0.0223(6) Uani 1 1 d .
H25 H 0.6101 0.2406 0.5024 0.027 Uiso 1 1 calc R
C28 C 0.8762(3) 0.2173(3) 0.2745(3) 0.0195(5) Uani 1 1 d .
H28 H 0.9355 0.1471 0.2236 0.023 Uiso 1 1 calc R
C30 C 1.3565(4) 0.1859(3) 0.0743(3) 0.0237(6) Uani 1 1 d .
H30A H 1.3840 0.2266 -0.0002 0.036 Uiso 1 1 calc GR
H30B H 1.2722 0.0778 0.0306 0.036 Uiso 1 1 calc GR
H30C H 1.4665 0.1826 0.1279 0.036 Uiso 1 1 calc GR
loop_
_atom_site_aniso_label
_atom_site_aniso_U_11
_atom_site_aniso_U_22
_atom_site_aniso_U_33
_atom_site_aniso_U_23
_atom_site_aniso_U_13
_atom_site_aniso_U_12
S1 0.0123(3) 0.0196(3) 0.0189(3) 0.0051(2) 0.0041(2) 0.0066(2)
O1 0.0134(9) 0.0269(10) 0.0228(10) 0.0103(8) -0.0002(8) 0.0073(7)
O4 0.0231(10) 0.0219(9) 0.0269(11) 0.0042(8) 0.0133(8) 0.0105(8)
N2 0.0134(10) 0.0169(10) 0.0157(11) 0.0045(9) 0.0044(9) 0.0058(8)
C1 0.0131(12) 0.0195(12) 0.0128(12) 0.0049(10) 0.0021(10) 0.0050(10)
C4 0.0121(12) 0.0200(12) 0.0142(12) 0.0052(10) 0.0007(10) 0.0041(10)
C6 0.0138(12) 0.0169(12) 0.0130(12) 0.0051(10) 0.0011(10) 0.0054(9)
C8 0.0117(12) 0.0183(12) 0.0138(12) 0.0060(10) -0.0004(10) 0.0020(10)
C10 0.0169(13) 0.0173(12) 0.0188(13) 0.0062(10) 0.0034(10) 0.0070(10)
C11 0.0194(13) 0.0158(12) 0.0230(14) 0.0087(11) 0.0030(11) 0.0037(10)
C13 0.0170(13) 0.0200(13) 0.0233(14) 0.0109(11) 0.0008(11) 0.0022(10)
C15 0.0179(13) 0.0201(13) 0.0169(13) 0.0070(10) 0.0022(10) 0.0083(10)
C17 0.0150(12) 0.0215(13) 0.0188(13) 0.0078(10) 0.0058(10) 0.0067(10)
C19 0.0153(13) 0.0239(13) 0.0215(14) 0.0107(11) 0.0040(11) 0.0047(10)
C21 0.0168(12) 0.0138(12) 0.0142(13) 0.0019(10) 0.0042(10) 0.0059(9)
C23 0.0129(12) 0.0257(13) 0.0153(13) 0.0046(11) 0.0019(10) 0.0043(10)
C25 0.0155(13) 0.0303(14) 0.0188(14) 0.0111(11) 0.0008(11) 0.0018(11)
C28 0.0136(12) 0.0217(13) 0.0195(14) 0.0038(10) 0.0008(10) 0.0053(10)
C30 0.0219(14) 0.0271(14) 0.0251(15) 0.0091(12) 0.0061(12) 0.0135(11)
loop_
_atom_type_symbol
_atom_type_description
_atom_type_scat_dispersion_real
_atom_type_scat_dispersion_imag
_atom_type_scat_source
C C 0.0181 0.0091 'International Tables Vol C Tables 4.2.6.8 and 6.1.1.4'
H H 0.0000 0.0000 'International Tables Vol C Tables 4.2.6.8 and 6.1.1.4'
N N 0.0311 0.0180 'International Tables Vol C Tables 4.2.6.8 and 6.1.1.4'
O O 0.0492 0.0322 'International Tables Vol C Tables 4.2.6.8 and 6.1.1.4'
S S 0.3331 0.5567 'International Tables Vol C Tables 4.2.6.8 and 6.1.1.4'
loop_
_geom_angle_atom_site_label_1
_geom_angle_atom_site_label_2
_geom_angle_atom_site_label_3
_geom_angle
O1 S1 C1 107.93(11)
O1 S1 C4 108.50(11)
O4 S1 O1 116.84(11)
O4 S1 C1 111.20(11)
O4 S1 C4 110.76(12)
C4 S1 C1 100.30(12)
C6 N2 C21 117.93(19)
C8 N2 C6 122.2(2)
C8 N2 C21 118.36(19)
C6 C1 S1 118.43(18)
C15 C1 S1 118.69(18)
C15 C1 C6 122.6(2)
C8 C4 S1 119.01(18)
C23 C4 S1 118.54(19)
C23 C4 C8 122.0(2)
N2 C6 C1 122.2(2)
N2 C6 C17 121.4(2)
C1 C6 C17 116.3(2)
N2 C8 C4 121.6(2)
N2 C8 C28 122.2(2)
C4 C8 C28 116.2(2)
H10A C10 H10B 108.1
C21 C10 H10A 109.6
C21 C10 H10B 109.5
C30 C10 H10A 109.5
C30 C10 H10B 109.5
C30 C10 C21 110.5(2)
C15 C11 H11 120.5
C15 C11 C19 119.0(2)
C19 C11 H11 120.5
C25 C13 H13 119.3
C28 C13 H13 119.3
C28 C13 C25 121.3(2)
C1 C15 H15 120.2
C11 C15 C1 119.6(2)
C11 C15 H15 120.2
C6 C17 H17 119.8
C19 C17 C6 120.4(2)
C19 C17 H17 119.8
C11 C19 H19 119.1
C17 C19 C11 121.8(2)
C17 C19 H19 119.1
N2 C21 C10 114.0(2)
N2 C21 H21A 108.7
N2 C21 H21B 108.7
C10 C21 H21A 108.7
C10 C21 H21B 108.7
H21A C21 H21B 107.6
C4 C23 H23 119.9
C25 C23 C4 120.3(2)
C25 C23 H23 119.9
C13 C25 H25 120.6
C23 C25 C13 118.8(2)
C23 C25 H25 120.6
C8 C28 H28 119.4
C13 C28 C8 121.3(2)
C13 C28 H28 119.4
C10 C30 H30A 109.5
C10 C30 H30B 109.5
C10 C30 H30C 109.5
H30A C30 H30B 109.5
H30A C30 H30C 109.5
H30B C30 H30C 109.5
loop_
_geom_bond_atom_site_label_1
_geom_bond_atom_site_label_2
_geom_bond_distance
S1 O1 1.4478(19)
S1 O4 1.4447(17)
S1 C1 1.739(2)
S1 C4 1.735(2)
N2 C6 1.400(3)
N2 C8 1.398(3)
N2 C21 1.475(3)
C1 C6 1.408(3)
C1 C15 1.390(3)
C4 C8 1.408(3)
C4 C23 1.400(3)
C6 C17 1.411(3)
C8 C28 1.412(3)
C10 H10A 0.9700
C10 H10B 0.9700
C10 C21 1.528(3)
C10 C30 1.522(3)
C11 H11 0.9300
C11 C15 1.376(3)
C11 C19 1.390(4)
C13 H13 0.9300
C13 C25 1.397(4)
C13 C28 1.380(3)
C15 H15 0.9300
C17 H17 0.9300
C17 C19 1.383(3)
C19 H19 0.9300
C21 H21A 0.9700
C21 H21B 0.9700
C23 H23 0.9300
C23 C25 1.372(4)
C25 H25 0.9300
C28 H28 0.9300
C30 H30A 0.9600
C30 H30B 0.9600
C30 H30C 0.9600
loop_
_geom_torsion_atom_site_label_1
_geom_torsion_atom_site_label_2
_geom_torsion_atom_site_label_3
_geom_torsion_atom_site_label_4
_geom_torsion
S1 C1 C6 N2 -13.1(3)
S1 C1 C6 C17 169.08(18)
S1 C1 C15 C11 -172.2(2)
S1 C4 C8 N2 13.9(3)
S1 C4 C8 C28 -168.21(18)
S1 C4 C23 C25 168.5(2)
O1 S1 C1 C6 -76.3(2)
O1 S1 C1 C15 98.4(2)
O1 S1 C4 C8 75.2(2)
O1 S1 C4 C23 -97.2(2)
O4 S1 C1 C6 154.37(19)
O4 S1 C1 C15 -31.0(2)
O4 S1 C4 C8 -155.28(19)
O4 S1 C4 C23 32.3(2)
N2 C6 C17 C19 -174.0(2)
N2 C8 C28 C13 176.8(2)
C1 S1 C4 C8 -37.8(2)
C1 S1 C4 C23 149.8(2)
C1 C6 C17 C19 3.8(4)
C4 S1 C1 C6 37.2(2)
C4 S1 C1 C15 -148.2(2)
C4 C8 C28 C13 -1.1(4)
C4 C23 C25 C13 0.4(4)
C6 N2 C8 C4 19.8(4)
C6 N2 C8 C28 -158.0(2)
C6 N2 C21 C10 82.6(3)
C6 C1 C15 C11 2.2(4)
C6 C17 C19 C11 0.7(4)
C8 N2 C6 C1 -20.2(4)
C8 N2 C6 C17 157.5(2)
C8 N2 C21 C10 -83.7(3)
C8 C4 C23 C25 -3.7(4)
C15 C1 C6 N2 172.5(2)
C15 C1 C6 C17 -5.3(4)
C15 C11 C19 C17 -4.0(4)
C19 C11 C15 C1 2.5(4)
C21 N2 C6 C1 174.1(2)
C21 N2 C6 C17 -8.2(3)
C21 N2 C8 C4 -174.5(2)
C21 N2 C8 C28 7.7(3)
C23 C4 C8 N2 -173.9(2)
C23 C4 C8 C28 4.0(4)
C25 C13 C28 C8 -2.1(4)
C28 C13 C25 C23 2.5(4)
C30 C10 C21 N2 -175.8(2)
