#------------------------------------------------------------------------------
#$Date: 2019-11-24 08:47:45 +0200 (Sun, 24 Nov 2019) $
#$Revision: 237360 $
#$URL: file:///home/coder/svn-repositories/cod/cif/1/55/45/1554573.cif $
#------------------------------------------------------------------------------
#
# This file is available in the Crystallography Open Database (COD),
# http://www.crystallography.net/
#
# All data on this site have been placed in the public domain by the
# contributors.
#
data_1554573
loop_
_publ_author_name
'Yang, Wu-Lin'
'Sun, Zhong-Tao'
'Zhang, Jian'
'Li, Zhong'
'Deng, Wei-Ping'
_publ_section_title
;
 Enantioselective synthesis of 3-amino-hydrobenzofuran-2,5-diones via
 Cu(i)-catalyzed intramolecular conjugate addition of imino esters
;
_journal_issue                   5
_journal_name_full               'Organic Chemistry Frontiers'
_journal_page_first              579
_journal_paper_doi               10.1039/C8QO01335G
_journal_volume                  6
_journal_year                    2019
_chemical_absolute_configuration ad
_chemical_formula_sum            'C10 H13 N O3'
_chemical_formula_weight         195.21
_space_group_crystal_system      triclinic
_space_group_IT_number           1
_space_group_name_Hall           'P 1'
_space_group_name_H-M_alt        'P 1'
_atom_sites_solution_hydrogens   mixed
_audit_creation_method           SHELXL-2013
_audit_update_record
;
2018-12-06 deposited with the CCDC.
2019-01-15 downloaded from the CCDC.
;
_cell_angle_alpha                84.194(6)
_cell_angle_beta                 79.023(6)
_cell_angle_gamma                64.094(6)
_cell_formula_units_Z            2
_cell_length_a                   6.9308(8)
_cell_length_b                   6.9507(8)
_cell_length_c                   11.8464(14)
_cell_measurement_reflns_used    6254
_cell_measurement_temperature    293(2)
_cell_measurement_theta_max      139.890
_cell_measurement_theta_min      7.603
_cell_volume                     503.84(11)
_computing_cell_refinement       'Bruker SAINT'
_computing_data_collection       'Bruker APEX2'
_computing_data_reduction        'Bruker SAINT'
_computing_molecular_graphics    'Bruker SHELXTL'
_computing_publication_material  'Bruker SHELXTL'
_computing_structure_refinement  'SHELXL-2013 (Sheldrick, 2013)'
_computing_structure_solution    'SHELXS-97 (Sheldrick 2008)'
_diffrn_ambient_temperature      293(2)
_diffrn_measured_fraction_theta_full 0.990
_diffrn_measured_fraction_theta_max 0.987
_diffrn_measurement_device_type  'Bruker APEX-II CCD'
_diffrn_measurement_method       '\f and \w scans'
_diffrn_radiation_type           CuK\a
_diffrn_radiation_wavelength     1.54178
_diffrn_reflns_av_R_equivalents  0.0668
_diffrn_reflns_av_unetI/netI     0.0616
_diffrn_reflns_Laue_measured_fraction_full 0.990
_diffrn_reflns_Laue_measured_fraction_max 0.987
_diffrn_reflns_limit_h_max       8
_diffrn_reflns_limit_h_min       -8
_diffrn_reflns_limit_k_max       8
_diffrn_reflns_limit_k_min       -8
_diffrn_reflns_limit_l_max       14
_diffrn_reflns_limit_l_min       -14
_diffrn_reflns_number            12059
_diffrn_reflns_point_group_measured_fraction_full 0.965
_diffrn_reflns_point_group_measured_fraction_max 0.958
_diffrn_reflns_theta_full        67.679
_diffrn_reflns_theta_max         70.153
_diffrn_reflns_theta_min         3.802
_exptl_absorpt_coefficient_mu    0.791
_exptl_absorpt_correction_T_max  0.7456
_exptl_absorpt_correction_T_min  0.5832
_exptl_absorpt_correction_type   multi-scan
_exptl_absorpt_process_details   sadabs
_exptl_crystal_colour            colorless
_exptl_crystal_density_diffrn    1.287
_exptl_crystal_description       prismatic
_exptl_crystal_F_000             208
_exptl_crystal_size_max          0.160
_exptl_crystal_size_mid          0.130
_exptl_crystal_size_min          0.080
_refine_diff_density_max         0.207
_refine_diff_density_min         -0.189
_refine_diff_density_rms         0.043
_refine_ls_abs_structure_details
; 
 Flack x determined using 1292 quotients [(I+)-(I-)]/[(I+)+(I-)] 
 (Parsons and Flack (2004), Acta Cryst. A60, s61). 
;
_refine_ls_abs_structure_Flack   0.24(17)
_refine_ls_extinction_expression Fc^*^=kFc[1+0.001xFc^2^\l^3^/sin(2\q)]^-1/4^
_refine_ls_extinction_method     SHELXL
_refine_ls_goodness_of_fit_ref   1.068
_refine_ls_hydrogen_treatment    mixed
_refine_ls_matrix_type           full
_refine_ls_number_parameters     274
_refine_ls_number_reflns         3664
_refine_ls_number_restraints     3
_refine_ls_restrained_S_all      1.067
_refine_ls_R_factor_all          0.0598
_refine_ls_R_factor_gt           0.0514
_refine_ls_shift/su_max          0.001
_refine_ls_shift/su_mean         0.000
_refine_ls_structure_factor_coef Fsqd
_refine_ls_weighting_details
'w=1/[\s^2^(Fo^2^)+(0.0770P)^2^+0.0358P] where P=(Fo^2^+2Fc^2^)/3'
_refine_ls_weighting_scheme      calc
_refine_ls_wR_factor_gt          0.1367
_refine_ls_wR_factor_ref         0.1453
_reflns_Friedel_coverage         0.942
_reflns_Friedel_fraction_full    0.940
_reflns_Friedel_fraction_max     0.929
_reflns_number_gt                3148
_reflns_number_total             3664
_reflns_threshold_expression     'I > 2\s(I)'
_cod_data_source_file            c8qo01335g2.cif
_cod_data_source_block           cu_d8v18549_0m
_cod_original_cell_volume        503.84(10)
_cod_database_code               1554573
_shelx_space_group_comment
; 
The symmetry employed for this shelxl refinement is uniquely defined 
by the following loop, which should always be used as a source of 
symmetry information in preference to the above space-group names. 
They are only intended as comments. 
;
_shelx_estimated_absorpt_t_min   0.884
_shelx_estimated_absorpt_t_max   0.939
_shelxl_version_number           2013-4
_shelx_res_file
; 
TITL cu_d8v18549_0m_a.res in P1 
CELL 1.54178 6.9308 6.9507 11.8464 84.194 79.023 64.094 
ZERR 2 0.0008 0.0008 0.0014 0.006 0.006 0.006 
LATT -1 
SFAC C  H  N  O 
UNIT 20 26 2 6 
L.S. 9 
ACTA 
BOND $H 
FMAP 2 
PLAN 20 
LIST 4 
HTAB N1 O3_$1 
HTAB N2 O6_$3 
HTAB C18 O4_$2 
HTAB C13 O6_$3 
EQIV $3 x, y-1, z 
HTAB C10 O1_$2 
HTAB C8 O1_$2 
EQIV $2 x-1, y+1, z 
HTAB C3 O3_$1 
EQIV $1 x+1, y, z 
conf 
htab 
mpla 
wpdb -1 
size 0.16 0.13 0.08 
TEMP 20 
WGHT    0.077000    0.035800 
EXTI    0.055892 
FVAR       2.71943 
O1    4    1.058269   -0.238898    0.707608    11.00000    0.07488    0.08292 = 
         0.09203    0.00633   -0.00119    0.01043 
O2    4    0.820204    0.045956    0.629668    11.00000    0.05758    0.06348 = 
         0.05883   -0.00003   -0.00170   -0.01410 
O3    4    0.008572    0.244144    0.830789    11.00000    0.05999    0.12893 = 
         0.11673   -0.00298   -0.00732   -0.04711 
N1    3    0.782785   -0.045122    0.930611    11.00000    0.07419    0.08270 = 
         0.06002    0.01028   -0.01714   -0.02372 
C1    1    0.882110   -0.090751    0.718216    11.00000    0.05662    0.05734 = 
         0.06515    0.00144   -0.00769   -0.01025 
C2    1    0.703987   -0.031481    0.823311    11.00000    0.06187    0.05157 = 
         0.05673    0.00431   -0.00951   -0.01904 
C3    1    0.560852    0.203838    0.793866    11.00000    0.04770    0.04971 = 
         0.05818   -0.00406   -0.00712   -0.01890 
AFIX  13 
H3    2    0.619645    0.291430    0.822272    11.00000   -1.20000 
AFIX   0 
C4    1    0.602173    0.219211    0.662551    11.00000    0.04625    0.04681 = 
         0.06369    0.00174   -0.00905   -0.01322 
C5    1    0.447889    0.178331    0.606746    11.00000    0.07183    0.06738 = 
         0.06410    0.00296   -0.02160   -0.02898 
AFIX  43 
H5    2    0.488229    0.142000    0.529598    11.00000   -1.20000 
AFIX   0 
C6    1    0.258063    0.190752    0.660454    11.00000    0.07146    0.08522 = 
         0.08093    0.00080   -0.02982   -0.03886 
AFIX  43 
H6    2    0.169031    0.167230    0.619241    11.00000   -1.20000 
AFIX   0 
C7    1    0.182426    0.240122    0.782360    11.00000    0.05233    0.06862 = 
         0.09049    0.00309   -0.01372   -0.02514 
C8    1    0.320424    0.292390    0.844440    11.00000    0.05249    0.06189 = 
         0.06751   -0.00377   -0.00757   -0.02020 
AFIX  23 
H8A   2    0.306613    0.239196    0.923074    11.00000   -1.20000 
H8B   2    0.263383    0.446827    0.847123    11.00000   -1.20000 
AFIX   0 
C9    1    0.594527   -0.182337    0.831791    11.00000    0.09097    0.05310 = 
         0.08760    0.00750   -0.01186   -0.02929 
AFIX 137 
H9A   2    0.696504   -0.325455    0.847418    11.00000   -1.50000 
H9B   2    0.546226   -0.178209    0.760450    11.00000   -1.50000 
H9C   2    0.472008   -0.138225    0.892840    11.00000   -1.50000 
AFIX   0 
C10   1    0.615528    0.425290    0.614476    11.00000    0.07197    0.05759 = 
         0.08896    0.01387   -0.01382   -0.02984 
AFIX 137 
H10A  2    0.727519    0.441096    0.643922    11.00000   -1.50000 
H10B  2    0.478578    0.544733    0.637103    11.00000   -1.50000 
H10C  2    0.648912    0.420055    0.532073    11.00000   -1.50000 
AFIX   0 
O4    4    0.635374    0.223612    0.293424    11.00000    0.08953    0.06472 = 
         0.09816    0.01505   -0.00643    0.00533 
O5    4    0.327458    0.479720    0.373008    11.00000    0.07418    0.04677 = 
         0.06070    0.00646   -0.00895   -0.01440 
O6    4    0.175264    1.237234    0.170744    11.00000    0.13395    0.05362 = 
         0.11206    0.01159   -0.01115   -0.04746 
N2    3    0.498513    0.446256    0.070697    11.00000    0.09725    0.06499 = 
         0.06449   -0.01035    0.00560   -0.02427 
C11   1    0.487400    0.397285    0.283888    11.00000    0.06892    0.04765 = 
         0.06763    0.00598   -0.00932   -0.01346 
C12   1    0.454386    0.547024    0.179840    11.00000    0.06109    0.04801 = 
         0.05885   -0.00177   -0.00513   -0.01670 
C13   1    0.209671    0.694074    0.209291    11.00000    0.05920    0.04098 = 
         0.05981    0.00004   -0.01392   -0.02084 
AFIX  13 
H13   2    0.131340    0.625171    0.181434    11.00000   -1.20000 
AFIX   0 
C14   1    0.159998    0.689425    0.340418    11.00000    0.05895    0.03742 = 
         0.06172    0.00181   -0.00677   -0.01500 
C15   1    0.186798    0.858763    0.396217    11.00000    0.07831    0.05374 = 
         0.05736   -0.00772   -0.00658   -0.02452 
AFIX  43 
H15   2    0.204500    0.839387    0.473049    11.00000   -1.20000 
AFIX   0 
C16   1    0.186422    1.034848    0.341074    11.00000    0.09307    0.05927 = 
         0.07799   -0.01446   -0.00828   -0.03872 
AFIX  43 
H16   2    0.199016    1.135811    0.381353    11.00000   -1.20000 
AFIX   0 
C17   1    0.167090    1.075613    0.220295    11.00000    0.07785    0.04291 = 
         0.08168    0.00065   -0.00676   -0.02511 
C18   1    0.129760    0.921107    0.158843    11.00000    0.06445    0.04755 = 
         0.06515    0.00588   -0.01413   -0.01769 
AFIX  23 
H18A  2    0.201168    0.914996    0.079592    11.00000   -1.20000 
H18B  2   -0.024963    0.975895    0.158156    11.00000   -1.20000 
AFIX   0 
C19   1    0.605187    0.656641    0.173203    11.00000    0.06178    0.07529 = 
         0.08557    0.00285   -0.00648   -0.02781 
AFIX 137 
H19A  2    0.753680    0.552228    0.157961    11.00000   -1.50000 
H19B  2    0.579467    0.723630    0.244988    11.00000   -1.50000 
H19C  2    0.577226    0.762982    0.112486    11.00000   -1.50000 
AFIX   0 
C20   1   -0.057819    0.689301    0.390923    11.00000    0.06826    0.06753 = 
         0.08491    0.00170    0.00070   -0.02999 
AFIX 137 
H20A  2   -0.065394    0.567183    0.364352    11.00000   -1.50000 
H20B  2   -0.172317    0.817730    0.367098    11.00000   -1.50000 
H20C  2   -0.073803    0.682911    0.473330    11.00000   -1.50000 
AFIX   0 
H2A   2    0.422307    0.352035    0.080174    11.00000    0.09726 
H1A   2    0.888613   -0.184405    0.939167    11.00000    0.12318 
H1B   2    0.889877    0.015194    0.920146    11.00000    0.11567 
H2B   2    0.624845    0.405074    0.048756    11.00000    0.11839 
HKLF 4 
  
REM  cu_d8v18549_0m_a.res in P1 
REM R1 =  0.0514 for    3148 Fo > 4sig(Fo)  and  0.0598 for all    3664 data 
REM    274 parameters refined using      3 restraints 
  
END 
  
WGHT      0.0805      0.0303 
  
REM Instructions for potential hydrogen bonds 
HTAB C3 O3_$1 
HTAB C8 O1_$2 
HTAB C10 O1_$2 
HTAB C13 O6_$3 
HTAB C18 O4_$2 
HTAB N2 O6_$3 
HTAB N1 O3_$1 
  
REM Highest difference peak  0.207,  deepest hole -0.189,  1-sigma level  0.043 
Q1    1   0.5882  0.2321  0.3779  11.00000  0.05    0.21 
Q2    1  -0.1227  0.9509  0.3321  11.00000  0.05    0.19 
Q3    1   1.1075 -0.2481  0.6221  11.00000  0.05    0.18 
Q4    1   0.5708  0.2232  0.7234  11.00000  0.05    0.17 
Q5    1   0.5397  0.3056  0.6458  11.00000  0.05    0.17 
Q6    1   0.1004  0.7238  0.3575  11.00000  0.05    0.16 
Q7    1   0.3236  0.4793  0.6712  11.00000  0.05    0.16 
Q8    1   0.2832  0.0163  0.8559  11.00000  0.05    0.15 
Q9    1   0.8877  0.4185  0.1796  11.00000  0.05    0.15 
Q10   1   0.2573  0.4718  0.7971  11.00000  0.05    0.15 
Q11   1   0.8323 -0.0590  0.8108  11.00000  0.05    0.14 
Q12   1   0.3167 -0.0424  0.8411  11.00000  0.05    0.14 
Q13   1   0.5626  0.3879  0.2000  11.00000  0.05    0.14 
Q14   1   0.8343 -0.4562  0.8378  11.00000  0.05    0.13 
Q15   1   0.4445  0.2394  0.8226  11.00000  0.05    0.13 
Q16   1   0.7985  0.5896  0.1768  11.00000  0.05    0.13 
Q17   1   0.9710  0.1179  0.6218  11.00000  0.05    0.13 
Q18   1   0.6568 -0.3513  0.8371  11.00000  0.05    0.13 
Q19   1   0.4415  0.4602 -0.0162  11.00000  0.05    0.13 
Q20   1   0.2619  0.3320  0.4034  11.00000  0.05    0.13 
;
_shelx_res_checksum              58279
_shelx_hkl_file
; 
  -1   0   0 2243.78  147.49 
  -1   0   0 1766.22  147.69 
  -1   0   0 2031.00  147.69 
   1   0   0 2163.68  147.49 
   1   0   0 1877.41  147.29 
  -2   0   0 4580.14  382.56 
  -2   0   0 5439.96  383.46 
   2   0   0 5674.03  383.26 
  -3   0   0 2460.45  169.68 
  -3   0   0 2055.79  169.08 
   3   0   0 2214.98  169.68 
   3   0   0 2338.27  168.68 
   3   0   0 2362.36  168.58 
  -4   0   0   95.69   10.10 
   4   0   0   86.99    9.10 
   4   0   0   93.79   10.10 
   4   0   0   66.79   10.10 
  -5   0   0  183.88   22.00 
  -5   0   0  512.65  275.67 
  -5   0   0  168.18   19.60 
  -5   0   0  159.08   18.60 
  -5   0   0  194.18   18.50 
  -5   0   0  186.78   20.90 
  -5   0   0  186.48   20.20 
   5   0   0  186.88   17.10 
   5   0   0  165.68   22.10 
   5   0   0  160.18   17.90 
  -6   0   0  143.79  225.18 
  -6   0   0  109.99   14.30 
  -6   0   0   80.89   11.90 
  -6   0   0   69.59   12.20 
   6   0   0   94.49   10.40 
   6   0   0   79.79   10.20 
  -7   0   0  110.99   12.50 
  -7   0   0   67.79   91.39 
  -7   0   0  100.49   12.50 
  -7   0   0  101.49   11.30 
   7   0   0   89.29    9.20 
   7  -1   0   31.40    4.00 
  -7   1   0   41.10    6.00 
  -7   1   0   35.80    6.30 
   6  -1   0   18.10    4.30 
   6  -1   0   20.90    4.40 
  -6   1   0   28.50   76.49 
  -6   1   0   24.50    7.70 
  -6   1   0    7.20    3.70 
  -6   1   0   12.60    5.10 
  -6   1   0   13.30    4.40 
   5  -1   0   70.19    8.80 
   5  -1   0   68.29   10.30 
  -5   1   0   66.19   11.40 
  -5   1   0  126.09  164.48 
  -5   1   0   65.69    9.80 
  -5   1   0   68.29   10.40 
  -5   1   0   84.19    9.90 
  -5   1   0   80.49   13.70 
  -5   1   0   69.09   12.00 
   4  -1   0   24.20    4.60 
   4  -1   0   24.00    7.10 
  -4   1   0   28.50    7.50 
  -4   1   0   31.30    6.50 
  -4   1   0   26.60    5.80 
  -4   1   0   25.10    9.30 
  -4   1   0   87.99  101.29 
   3  -1   0 1430.96  102.79 
   3  -1   0 1297.97  102.29 
   3  -1   0 1374.56  101.59 
  -3   1   0 1296.27  102.69 
  -3   1   0 1462.95  103.69 
   2  -1   0 1716.13  131.39 
   2  -1   0 1846.42  131.39 
   2  -1   0 1789.82  131.09 
  -2   1   0 1873.71  131.79 
  -2   1   0 1596.74  131.39 
  -2   1   0 1692.03  130.69 
  -2   1   0 1902.11  131.59 
  -2  -1   0 3883.91  273.87 
   2   1   0 3670.23  272.67 
   2   1   0 3412.06  273.07 
   2   1   0 3959.30  273.57 
  -3  -1   0  923.71   65.49 
  -3  -1   0  796.22   64.49 
   3   1   0  875.21   63.99 
   3   1   0  835.62   65.09 
  -4  -1   0  192.98   18.50 
  -4  -1   0  195.98   17.70 
   4   1   0  204.58   18.60 
   4   1   0  213.48   17.20 
   4   1   0  206.38   17.90 
  -5  -1   0   65.69   11.00 
  -5  -1   0   58.99   10.30 
  -5  -1   0   52.39    9.00 
  -5  -1   0   54.29    7.30 
  -5  -1   0   44.70    9.10 
  -5  -1   0   34.40    8.40 
  -5  -1   0   64.89    8.60 
  -5  -1   0   74.09  104.69 
  -5  -1   0   48.40    8.50 
   5   1   0   49.70    7.30 
   5   1   0   45.90    8.00 
   5   1   0   49.80    7.90 
  -6  -1   0  771.02  380.46 
  -6  -1   0  143.69   17.70 
  -6  -1   0  146.49   19.80 
  -6  -1   0  125.49   14.80 
  -6  -1   0  154.18   17.80 
  -6  -1   0  148.19   17.60 
  -6  -1   0  138.59   16.60 
   6   1   0  135.89   14.10 
   6   1   0  163.08   17.00 
  -7  -1   0    1.00    2.90 
  -7  -1   0   -0.20    2.80 
  -7  -1   0    0.40   35.70 
  -7  -1   0    0.30    1.90 
  -7  -1   0    6.30    3.70 
   7   1   0    1.60    2.10 
   7   1   0    5.20    2.80 
   6  -2   0   15.50   28.90 
   6  -2   0    2.60    2.50 
  -6   2   0    1.20    2.40 
  -6   2   0    0.20    1.70 
  -6   2   0    0.20    2.00 
  -6   2   0    3.00    2.40 
   5  -2   0  120.19   12.30 
  -5   2   0  119.29   13.50 
  -5   2   0  143.49   22.20 
  -5   2   0  228.68  189.08 
  -5   2   0  126.39   16.30 
  -5   2   0  152.38   19.60 
  -5   2   0  116.59   15.00 
   4  -2   0   15.90    4.90 
   4  -2   0    5.60    2.10 
  -4   2   0   -0.30    2.90 
  -4   2   0   -7.30   63.89 
  -4   2   0    3.30    3.50 
  -4   2   0   -2.30    3.00 
  -4   2   0    6.80    5.20 
  -4   2   0   11.50    3.90 
  -4   2   0    6.70    3.30 
   3  -2   0  925.61   70.49 
   3  -2   0  897.41   70.79 
  -3   2   0  977.40   71.29 
  -3   2   0  867.71   70.79 
   2  -2   0 2181.38  152.08 
   2  -2   0 1973.00  152.58 
  -2   2   0 1985.20  150.58 
  -2   2   0 2153.78  150.88 
  -2   2   0 1925.41  151.58 
  -2   2   0 2027.10  151.78 
   1  -2   0 1409.06  101.49 
  -1   2   0 1363.86   99.89 
  -1   2   0 1404.66  100.59 
  -1   2   0 1192.28   99.49 
  -1   2   0 1332.17   99.19 
  -1   2   0 1351.36   99.89 
   0  -2   0 1684.13  126.79 
   0  -2   0 1900.21  128.69 
   0  -2   0 1663.03  126.19 
   0   2   0 1557.64  126.19 
   0   2   0 1691.33  127.39 
   0   2   0 1756.22  126.79 
   0   2   0 1789.72  126.29 
  -1  -2   0 1688.23  122.79 
  -1  -2   0 1780.02  123.69 
  -1  -2   0 1610.24  123.59 
  -1  -2   0 1452.85  121.29 
   1   2   0 1688.93  121.99 
   1   2   0 1775.22  121.39 
   1   2   0 1607.84  122.49 
  -2  -2   0 7187.58  483.35 
  -2  -2   0 6200.18  481.45 
  -2  -2   0 6747.92  483.05 
   2   2   0 6251.87  483.95 
  -3  -2   0 1241.18   85.39 
  -3  -2   0 1029.80   83.09 
   3   2   0 1033.50   82.89 
   3   2   0 1066.49   83.89 
   3   2   0 1187.48   82.89 
   3   2   0 1175.48   84.09 
  -4  -2   0  222.48   20.50 
  -4  -2   0  216.88   18.70 
   4   2   0  238.28   19.60 
   4   2   0  225.68   19.70 
   4   2   0  220.78   18.20 
  -5  -2   0 1071.39  421.86 
  -5  -2   0  475.45   44.60 
  -5  -2   0  578.34   46.10 
  -5  -2   0  528.25   44.80 
  -5  -2   0  553.94   43.00 
   5   2   0  556.94   44.00 
   5   2   0  589.94   44.10 
   5   2   0  509.95   42.60 
  -6  -2   0   58.49   10.50 
  -6  -2   0   80.99   11.00 
  -6  -2   0   86.99   13.80 
  -6  -2   0   61.59   10.60 
  -6  -2   0   61.89    9.80 
  -6  -2   0   24.30  130.49 
   6   2   0   69.79    8.90 
   6   2   0   56.09    9.30 
   6   2   0   83.19   10.20 
   6   2   0   69.19    9.40 
  -7  -2   0    9.90    4.50 
  -7  -2   0    1.90    2.50 
  -7  -2   0    1.60   51.49 
  -7  -2   0    3.80    3.40 
  -7  -2   0    6.40    2.70 
   7   2   0   12.20    3.30 
   7   2   0    4.80    2.70 
   7   2   0   11.60    3.70 
  -8  -2   0    7.00    3.20 
  -8  -2   0   11.80    3.00 
  -8  -2   0    5.70    2.50 
   8   2   0    9.20    2.30 
   8   2   0    3.50   20.80 
   8   2   0   12.90    2.50 
   5  -3   0    4.50    1.90 
  -5   3   0    3.60    3.60 
  -5   3   0   10.00    3.50 
  -5   3   0    2.30    2.80 
  -5   3   0    7.10    3.40 
  -5   3   0    3.20    2.20 
   4  -3   0   87.09    9.20 
  -4   3   0   80.19   11.90 
  -4   3   0   99.19   14.80 
  -4   3   0   95.79   11.40 
  -4   3   0   80.99   11.70 
  -4   3   0   98.59   14.20 
   3  -3   0   59.99    6.50 
  -3   3   0   69.09    9.00 
  -3   3   0   55.99    8.10 
  -3   3   0   49.20    8.80 
  -3   3   0   67.19   11.30 
  -3   3   0   58.09   10.80 
  -3   3   0   56.49   10.20 
  -3   3   0   77.39   12.40 
  -3   3   0   55.79    9.00 
   2  -3   0  417.66   35.30 
   2  -3   0  423.86   36.70 
  -2   3   0  419.26   34.60 
  -2   3   0  442.96   33.60 
  -2   3   0  396.26   34.50 
   1  -3   0 1276.57   97.59 
   1  -3   0 1290.07   99.19 
   1  -3   0 1433.36  101.49 
  -1   3   0 1270.67   98.29 
  -1   3   0 1365.76   97.49 
  -1   3   0 1208.08   97.29 
   0  -3   0  527.45   42.50 
   0  -3   0  557.34   45.00 
   0   3   0  541.05   42.50 
   0   3   0  543.85   41.50 
   0   3   0  564.44   41.70 
   0   3   0  565.04   43.60 
  -1  -3   0 2189.28  172.18 
  -1  -3   0 2283.17  173.98 
  -1  -3   0 2550.24  170.58 
   1   3   0 2220.38  170.48 
   1   3   0 2381.36  173.08 
  -2  -3   0  266.97   23.50 
  -2  -3   0  224.88   20.40 
  -2  -3   0  304.37   24.40 
   2   3   0  276.47   20.50 
   2   3   0  255.67   22.00 
   2   3   0  279.77   21.60 
  -3  -3   0   29.60    6.00 
  -3  -3   0   27.20    5.50 
   3   3   0   27.60    4.40 
   3   3   0   30.30    4.80 
   3   3   0   31.60    4.20 
  -4  -3   0   89.69    9.10 
  -4  -3   0  113.59   12.10 
   4   3   0  100.69   10.10 
   4   3   0  107.39   10.80 
  -5  -3   0  130.29   15.30 
  -5  -3   0  119.19   12.40 
  -5  -3   0  160.68   16.90 
  -5  -3   0  131.09   18.00 
  -5  -3   0  107.29   13.30 
  -5  -3   0  -16.90   95.29 
  -5  -3   0  120.69   14.10 
   5   3   0  138.09   14.10 
   5   3   0  126.99   12.40 
   5   3   0  136.29   13.50 
   5   3   0  118.49   13.50 
   5   3   0  136.39   12.20 
   5   3   0  118.99   12.80 
  -6  -3   0   19.30    5.90 
  -6  -3   0   39.30    7.50 
  -6  -3   0   -0.40   68.69 
  -6  -3   0   27.00    7.30 
  -6  -3   0   26.70    7.80 
  -6  -3   0   20.90    5.80 
   6   3   0   20.20    5.80 
   6   3   0   22.50    5.60 
   6   3   0   29.90    6.50 
   6   3   0   32.40    5.50 
   6   3   0   29.60    5.70 
  -7  -3   0   94.69   13.60 
  -7  -3   0   35.80  129.69 
  -7  -3   0   74.99   10.50 
  -7  -3   0   73.79   10.10 
   7   3   0   92.89   10.70 
   7   3   0   63.89    7.80 
  -8  -3   0   -1.20    1.10 
  -8  -3   0    1.70    1.70 
   8   3   0   -4.20   19.20 
   8   3   0    0.10    1.30 
   4  -4   0   15.20    2.90 
  -4   4   0   14.70    4.70 
  -4   4   0   11.00    3.20 
  -4   4   0    8.80    4.40 
  -4   4   0   13.40    3.90 
  -4   4   0   16.80    4.80 
   3  -4   0  202.98   16.90 
  -3   4   0  177.88   19.20 
  -3   4   0  161.98   20.00 
  -3   4   0  237.38   24.20 
  -3   4   0  208.38   18.40 
  -3   4   0  182.28   19.60 
  -3   4   0  200.88   19.40 
   2  -4   0  262.67   21.10 
   2  -4   0  321.27   34.20 
  -2   4   0  240.18   24.80 
  -2   4   0  317.27   24.50 
  -2   4   0  275.97   28.10 
  -2   4   0  264.67   22.80 
  -2   4   0  223.78   23.50 
  -2   4   0  216.88   24.80 
  -2   4   0  279.27   24.80 
  -2   4   0  238.38   23.50 
   1  -4   0   59.19   12.30 
   1  -4   0   45.10    8.50 
   1  -4   0   55.59    5.40 
  -1   4   0   39.80    9.50 
  -1   4   0   50.09    6.80 
  -1   4   0   54.59    8.00 
  -1   4   0   52.59    7.80 
  -1   4   0   55.09    6.60 
  -1   4   0   64.99    8.30 
  -1   4   0   53.29    7.70 
   0  -4   0 2805.52  202.38 
   0  -4   0 2754.92  208.88 
   0  -4   0 2752.12  204.88 
   0   4   0 2825.32  206.68 
   0   4   0 2659.53  203.38 
  -1  -4   0  359.76   26.80 
  -1  -4   0  334.37   31.50 
  -1  -4   0  343.47   28.90 
   1   4   0  346.77   28.30 
   1   4   0  346.37   26.90 
   1   4   0  332.17   29.40 
  -2  -4   0   75.89   10.90 
  -2  -4   0   87.29    9.20 
  -2  -4   0   87.49   10.00 
   2   4   0   88.19    7.70 
   2   4   0   74.49    9.40 
   2   4   0   77.69    8.70 
  -3  -4   0    5.80    3.00 
  -3  -4   0    8.30    4.00 
   3   4   0    6.70    2.50 
   3   4   0    7.10    2.80 
   3   4   0    0.90    3.10 
  -4  -4   0   42.20    8.80 
  -4  -4   0   33.40    6.60 
   4   4   0   29.60    6.40 
   4   4   0   38.90    6.30 
  -5  -4   0   22.00    6.30 
  -5  -4   0   18.40    4.60 
  -5  -4   0   14.50    4.90 
  -5  -4   0   21.50    7.80 
   5   4   0   20.50    5.00 
   5   4   0   20.90    6.30 
   5   4   0   28.40    5.40 
  -6  -4   0   68.99   11.10 
  -6  -4   0   93.19   14.30 
  -6  -4   0   74.09   10.50 
  -6  -4   0  100.59   12.30 
  -6  -4   0   19.40   69.89 
   6   4   0   60.09    7.20 
  -7  -4   0    7.10    4.70 
  -7  -4   0    7.40    3.30 
   7   4   0    1.70   39.80 
   7   4   0   12.60    4.10 
   7   4   0    9.80    3.60 
  -8  -4   0   19.20    4.70 
   8   4   0   34.50   44.90 
   8   4   0   23.90    4.20 
   3  -5   0   46.30    7.30 
  -3   5   0   68.09    7.60 
  -3   5   0   57.49    6.10 
  -3   5   0   39.60    7.70 
  -3   5   0   43.20    7.00 
   2  -5   0  359.36   28.90 
  -2   5   0  308.57   32.10 
  -2   5   0  378.26   32.70 
  -2   5   0  442.16   32.80 
  -2   5   0  306.27   31.60 
  -2   5   0  383.06   31.80 
  -2   5   0  381.36   35.20 
   1  -5   0  241.58   24.80 
   1  -5   0  234.68   20.40 
  -1   5   0  304.47   24.10 
  -1   5   0  235.28   23.20 
  -1   5   0  233.68   25.60 
  -1   5   0  265.37   25.80 
  -1   5   0  279.77   24.00 
  -1   5   0  233.88   22.40 
   0  -5   0  503.05   42.90 
   0  -5   0  554.74   48.70 
   0   5   0  547.75   44.40 
   0   5   0  576.64   46.20 
   0   5   0  574.64   48.10 
   0   5   0  593.74   46.10 
   0   5   0  640.54   49.20 
   0   5   0  601.44   49.10 
   0   5   0  485.15   45.30 
  -1  -5   0 1417.36  100.69 
  -1  -5   0 1317.87  103.59 
   1   5   0 1395.36  102.99 
   1   5   0 1276.47  102.69 
   1   5   0 1317.07  102.79 
  -2  -5   0   62.99    8.50 
  -2  -5   0   89.19   10.90 
   2   5   0   94.59   11.60 
   2   5   0   67.19    9.30 
   2   5   0   77.09    9.10 
   2   5   0   70.99    9.50 
   2   5   0   78.29   11.00 
   2   5   0  108.89   12.60 
   2   5   0  100.09   10.10 
   2   5   0   74.39   10.70 
  -3  -5   0  572.84   47.40 
  -3  -5   0  535.75   44.00 
   3   5   0  641.14   49.70 
   3   5   0  565.74   54.39 
   3   5   0  640.14   46.70 
   3   5   0  513.65   46.30 
   3   5   0  542.95   45.40 
   3   5   0  531.95   45.70 
   3   5   0  600.54   48.50 
  -4  -5   0   57.39   10.60 
  -4  -5   0   41.40   11.40 
  -4  -5   0   48.70   12.80 
  -4  -5   0   71.69    9.00 
  -4  -5   0   64.29   10.10 
  -4  -5   0   54.49    9.50 
   4   5   0   55.49    8.10 
   4   5   0   60.29    8.70 
   4   5   0   79.09    9.60 
   4   5   0   50.69    7.80 
   4   5   0   64.79    8.20 
   4   5   0   56.49    9.50 
  -5  -5   0  962.20   75.59 
  -5  -5   0  678.23   63.69 
  -5  -5   0  762.12   62.49 
  -5  -5   0  803.82   66.29 
   5   5   0  837.22   64.29 
   5   5   0  942.41   71.79 
   5   5   0  808.62   67.09 
   5   5   0  795.22   65.49 
  -6  -5   0  148.09   17.00 
  -6  -5   0  113.69   15.00 
  -6  -5   0  125.29   19.00 
   6   5   0  143.19   15.50 
   6   5   0  166.88   15.60 
  -7  -5   0    9.40    4.50 
  -7  -5   0   13.90    4.00 
   7   5   0   19.40    5.00 
   7   5   0   15.10    3.80 
  -8  -5   0    6.70    2.90 
   8   5   0    8.10    2.30 
  -2   6   0   14.10    3.30 
  -2   6   0   18.00    5.00 
  -2   6   0    9.00    3.10 
  -2   6   0   14.50    2.70 
   1  -6   0   -0.50    1.50 
  -1   6   0    0.80    2.30 
  -1   6   0    0.50    1.80 
  -1   6   0    0.40    1.50 
  -1   6   0   -3.40    1.70 
  -1   6   0   -1.40    1.90 
   0   6   0  169.98   16.80 
   0   6   0  187.08   21.30 
   0   6   0  200.68   18.60 
   0   6   0  163.88   20.20 
   0   6   0  199.78   18.90 
   0   6   0  197.28   21.10 
  -1  -6   0  117.79   16.00 
  -1  -6   0  148.29   13.70 
   1   6   0  141.19   14.90 
   1   6   0  119.59   13.10 
   1   6   0  167.58   18.40 
   1   6   0  125.09   15.90 
   1   6   0  148.09   15.20 
   1   6   0  127.19   16.20 
   1   6   0  159.78   15.00 
  -2  -6   0  214.38   22.00 
  -2  -6   0  197.28   21.40 
  -2  -6   0  218.68   18.60 
  -2  -6   0  142.79   24.60 
   2   6   0  241.98   22.40 
   2   6   0  210.28   22.10 
   2   6   0  177.98   20.90 
   2   6   0  166.58   18.40 
   2   6   0  186.98   19.00 
   2   6   0  189.08   19.30 
  -3  -6   0  745.63   65.19 
  -3  -6   0  899.21   64.79 
  -3  -6   0  784.02   65.79 
  -3  -6   0  811.32   62.29 
   3   6   0  720.43   63.19 
   3   6   0  698.03   63.79 
   3   6   0  853.51   67.19 
   3   6   0  894.01   65.99 
   3   6   0  898.51   67.89 
   3   6   0  784.72   64.59 
  -4  -6   0  254.77   21.60 
  -4  -6   0  198.08   24.00 
  -4  -6   0  209.18   23.40 
  -4  -6   0  262.57   30.00 
  -4  -6   0  252.27   24.20 
   4   6   0  224.08   22.30 
   4   6   0  232.98   21.80 
   4   6   0  255.77   23.20 
   4   6   0  261.77   23.60 
   4   6   0  272.67   25.60 
   4   6   0  236.88   21.60 
   4   6   0  266.57   25.10 
  -5  -6   0  125.29   12.60 
  -5  -6   0  123.89   19.40 
   5   6   0  108.39   14.00 
   5   6   0  133.39   13.50 
   5   6   0  144.09   15.70 
   5   6   0  139.89   15.10 
  -6  -6   0   29.80    8.70 
  -6  -6   0   34.80    8.30 
   6   6   0   51.39    7.00 
   6   6   0   40.10    7.20 
  -7  -6   0    1.10    2.20 
   7   6   0    4.60    2.90 
   7   6   0    3.40    2.00 
  -1   7   0    0.50    1.40 
  -1   7   0   -0.70    0.90 
  -1   7   0    0.70    2.80 
  -1   7   0    1.00    1.20 
   0  -7   0   40.60    6.10 
   0  -7   0   45.90    9.10 
   0   7   0   56.79    7.50 
   0   7   0   53.79    8.50 
   0   7   0   38.20    8.30 
   0   7   0   51.09    7.20 
  -1  -7   0   10.30    3.20 
  -1  -7   0    5.70    2.80 
   1   7   0    4.00    2.70 
   1   7   0    3.90    3.70 
   1   7   0    7.30    3.90 
   1   7   0    5.70    2.90 
   1   7   0   11.50    5.10 
  -2  -7   0  134.89   14.20 
  -2  -7   0  126.19   12.70 
   2   7   0  119.59   14.00 
   2   7   0  128.59   14.00 
   2   7   0  151.88   17.60 
   2   7   0  129.59   14.90 
   2   7   0  175.58   18.50 
  -3  -7   0   12.50    4.50 
   3   7   0   29.00    7.30 
   3   7   0   18.70    4.80 
   3   7   0   17.20    5.80 
   3   7   0   10.60    3.90 
   3   7   0   18.60    4.80 
  -4  -7   0   40.30    6.80 
   4   7   0   33.90    7.00 
   4   7   0   37.40    8.60 
   4   7   0   30.30    6.60 
   4   7   0   36.80    5.80 
   4   7   0   41.70    9.30 
  -5  -7   0   24.30    7.80 
  -5  -7   0   20.00    4.50 
   5   7   0   21.50    4.90 
   5   7   0   32.90    6.50 
  -6  -7   0   -4.70    2.50 
  -6  -7   0   -1.80    2.50 
   6   7   0    3.40    2.50 
   6   7   0    0.80    2.20 
  -7  -7   0   -0.60    1.30 
   7   7   0   -2.70    1.60 
  -1  -8   0    0.30    2.10 
   1   8   0    3.20    1.60 
   1   8   0    0.10    1.90 
   1   8   0    3.60    1.70 
   1   8   0    4.60    2.50 
  -2  -8   0    3.10    3.50 
   2   8   0   12.50    3.20 
   2   8   0    6.60    3.30 
   2   8   0   14.20    4.40 
   2   8   0    5.10    2.30 
  -3  -8   0   -3.40    3.10 
  -3  -8   0    0.60    2.50 
   3   8   0    3.70    2.50 
   3   8   0    2.70    1.60 
   3   8   0   -0.80    3.80 
   3   8   0    1.30    1.90 
   3   8   0    3.60    2.00 
  -4  -8   0   -1.40    2.10 
  -4  -8   0    5.80    2.70 
   4   8   0    0.20    1.70 
   4   8   0   -0.30    1.20 
   4   8   0   -0.50    1.30 
   4   8   0    2.00    1.60 
   4   8   0   -1.20    1.80 
  -5  -8   0   15.60    4.00 
   5   8   0   19.50    4.50 
   5   8  -1    9.50    2.60 
   5   8  -1    6.40    2.50 
  -5  -8   1    1.60    2.70 
   4   8  -1   43.40    5.50 
   4   8  -1   30.70    5.20 
   4   8  -1   30.40    4.70 
   4   8  -1   42.80    6.80 
  -4  -8   1   22.20    6.70 
  -4  -8   1   39.20    5.00 
   3   8  -1    2.30    1.80 
   3   8  -1    2.50    1.60 
   3   8  -1    3.70    2.40 
   3   8  -1    1.40    2.00 
  -3  -8   1    1.60    2.50 
  -3  -8   1   -0.20    3.00 
   2   8  -1    4.70    2.60 
   2   8  -1    2.90    2.00 
   2   8  -1    4.00    1.80 
   2   8  -1    4.60    2.30 
   2   8  -1    7.10    3.00 
  -2  -8   1   10.40    3.50 
  -2  -8   1    3.70    3.50 
   6   7  -1   36.00    5.90 
   6   7  -1   43.80    6.10 
  -6  -7   1   23.00    7.00 
   5   7  -1   30.90    6.80 
   5   7  -1   41.40    6.30 
   5   7  -1   26.60    6.10 
  -5  -7   1   23.40    8.50 
   4   7  -1    4.90    3.20 
   4   7  -1    6.00    3.00 
   4   7  -1    1.40    2.70 
   4   7  -1    3.90    2.30 
   4   7  -1   -0.70    2.90 
  -4  -7   1    0.90    4.80 
  -4  -7   1   -1.50    3.40 
  -4  -7   1    4.90    3.90 
   3   7  -1  157.88   17.60 
   3   7  -1  134.99   14.50 
   3   7  -1  125.69   13.50 
   3   7  -1  166.28   17.50 
   3   7  -1  107.99   13.90 
  -3  -7   1  124.29   12.90 
  -3  -7   1  129.69   14.70 
   2   7  -1   20.40    6.00 
   2   7  -1   18.10    4.50 
   2   7  -1   30.40    7.10 
   2   7  -1   22.80    5.10 
   2   7  -1   23.90    6.60 
   2   7  -1   26.30    6.80 
  -2  -7   1   26.40    5.00 
  -2  -7   1   35.20    6.00 
  -2  -7   1   33.80    5.60 
   1   7  -1   46.10    7.20 
   1   7  -1   43.30    8.10 
   1   7  -1   50.29    8.90 
   1   7  -1   47.60    7.10 
  -1  -7   1   48.80    7.60 
  -1  -7   1   44.40    6.40 
  -1  -7   1   47.90    6.80 
   0   7  -1   46.10    7.70 
   0   7  -1   48.90    8.10 
   0   7  -1   52.29    9.70 
   0   7  -1   56.69    8.70 
   0  -7   1   51.39    6.20 
   0  -7   1   53.09    7.70 
  -1   7  -1   11.80    4.00 
  -1   7  -1    8.40    2.70 
  -1   7  -1   11.10    3.10 
  -1   7  -1    7.50    2.50 
   7   6  -1   27.00    5.40 
   7   6  -1   25.10    4.70 
  -7  -6   1   16.60    5.20 
   6   6  -1    0.90    2.30 
   6   6  -1    2.10    2.20 
  -6  -6   1   12.90    4.70 
  -6  -6   1    2.20    2.60 
  -6  -6   1   -4.30    4.10 
   5   6  -1   19.00    5.70 
   5   6  -1   12.80    3.80 
   5   6  -1   15.30    4.70 
  -5  -6   1    7.90    6.40 
  -5  -6   1   12.10    4.00 
  -5  -6   1    4.30    5.90 
   4   6  -1   24.20    8.50 
   4   6  -1   39.90    6.30 
   4   6  -1   36.60    7.30 
   4   6  -1   48.70    8.30 
   4   6  -1   48.90    8.40 
   4   6  -1   53.89    9.00 
  -4  -6   1   35.00    6.70 
  -4  -6   1   27.40    7.10 
  -4  -6   1   42.70   10.00 
  -4  -6   1   44.00   10.90 
  -4  -6   1   44.40    7.60 
   3   6  -1   28.10    5.50 
   3   6  -1   22.30    6.10 
   3   6  -1   25.30    5.60 
   3   6  -1   22.80    7.10 
   3   6  -1   29.00    6.50 
   3   6  -1   25.80    6.70 
   3   6  -1   16.40    4.90 
  -3  -6   1   16.10    4.50 
  -3  -6   1   24.50    6.10 
  -3  -6   1   18.30    5.80 
  -3  -6   1   29.30    8.80 
  -3  -6   1   28.20    5.80 
   2   6  -1  177.88   17.90 
   2   6  -1  175.38   18.20 
   2   6  -1  185.28   18.50 
   2   6  -1  171.68   17.40 
   2   6  -1  175.68   20.00 
   2   6  -1  196.18   20.90 
  -2  -6   1  184.38   20.70 
  -2  -6   1  155.68   15.60 
  -2  -6   1  201.18   17.70 
  -2  -6   1  173.88   17.30 
   1   6  -1  172.08   16.90 
   1   6  -1  181.88   19.10 
   1   6  -1  165.18   16.70 
   1   6  -1  127.69   16.50 
   1   6  -1  183.28   19.30 
   1   6  -1  144.99   14.90 
  -1  -6   1  181.58   16.00 
  -1  -6   1  158.98   19.60 
   0   6  -1  150.08   16.70 
   0   6  -1  109.49   15.30 
   0   6  -1  104.69   12.10 
   0   6  -1  118.29   13.30 
   0   6  -1  129.39   15.60 
   0   6  -1  113.59   13.40 
  -1   6  -1    2.40    2.90 
  -1   6  -1    5.40    2.70 
  -1   6  -1    8.40    3.10 
  -1   6  -1    3.20    2.70 
  -1   6  -1    5.20    2.80 
   1  -6   1    8.20    3.80 
  -2   6  -1    4.10    2.00 
  -2   6  -1    3.80    1.70 
  -2   6  -1    0.70    2.20 
  -2   6  -1    3.90    1.90 
   2  -6   1    0.80    1.80 
   7   5  -1   20.90    4.40 
   7   5  -1   19.10    5.20 
  -7  -5   1   14.20    3.80 
  -7  -5   1   19.60    6.50 
   6   5  -1    8.60    3.60 
   6   5  -1    4.50    3.20 
  -6  -5   1    4.80    4.10 
  -6  -5   1    4.20    4.50 
   5   5  -1   21.10    6.00 
   5   5  -1   20.40    5.30 
   5   5  -1   17.40    4.20 
   5   5  -1   15.50    5.70 
  -5  -5   1   29.70    9.50 
  -5  -5   1   21.60    5.20 
  -5  -5   1   22.60    6.30 
   4   5  -1   47.70    7.60 
   4   5  -1   55.39    9.20 
   4   5  -1   37.60    8.00 
   4   5  -1   54.99    9.90 
   4   5  -1   67.29    9.00 
  -4  -5   1   52.09    8.30 
  -4  -5   1   37.20    7.50 
  -4  -5   1   45.60   14.30 
  -4  -5   1   46.00   12.40 
  -4  -5   1   63.19   10.20 
  -4  -5   1   61.59   11.00 
   3   5  -1   47.00    7.80 
   3   5  -1   44.90    7.30 
   3   5  -1   47.50    6.50 
   3   5  -1   50.39    8.20 
   3   5  -1   58.79    9.00 
   3   5  -1   61.29    9.00 
  -3  -5   1   44.00    7.10 
  -3  -5   1   46.70    8.60 
  -3  -5   1   53.99    8.20 
  -3  -5   1   47.30   10.30 
  -3  -5   1   44.30    7.70 
   2   5  -1  850.81   63.19 
   2   5  -1  761.22   62.99 
   2   5  -1  774.62   62.49 
   2   5  -1  819.02   63.19 
   2   5  -1  731.43   62.09 
  -2  -5   1  852.21   62.09 
  -2  -5   1  814.92   63.59 
  -2  -5   1  799.42   64.49 
   1   5  -1   35.30    6.00 
   1   5  -1   53.39    8.50 
   1   5  -1   42.00    6.90 
   1   5  -1   39.80    6.30 
   1   5  -1   40.50    6.30 
   1   5  -1   30.90    7.70 
  -1  -5   1   43.20    8.30 
   0   5  -1  225.88   20.10 
   0   5  -1  235.48   21.50 
   0   5  -1  189.48   18.40 
   0   5  -1  205.58   19.70 
   0   5  -1  198.38   21.60 
   0  -5   1  176.48   17.00 
  -1   5  -1  310.87   27.30 
  -1   5  -1  272.07   27.10 
  -1   5  -1  310.37   26.60 
  -1   5  -1  307.27   27.70 
  -1   5  -1  312.87   30.30 
  -1   5  -1  254.57   28.70 
  -1   5  -1  372.86   30.50 
   1  -5   1  297.77   24.60 
   1  -5   1  281.57   28.70 
  -2   5  -1   24.40    6.00 
  -2   5  -1   24.60    5.60 
  -2   5  -1   27.50    6.90 
  -2   5  -1   18.60    5.20 
  -2   5  -1   21.80    7.60 
  -2   5  -1   20.20    5.10 
   2  -5   1   25.30    3.90 
  -3   5  -1    1.10    1.80 
  -3   5  -1    1.00    2.00 
  -3   5  -1   -0.10    1.60 
  -3   5  -1    1.90    2.00 
  -3   5  -1    1.20    2.40 
   3  -5   1    5.00    1.50 
   8   4  -1    4.70    1.90 
  -8  -4   1    0.70    2.40 
  -8  -4   1    1.40    1.80 
   7   4  -1   15.80   75.19 
   7   4  -1   24.00    5.10 
   7   4  -1   24.80    5.10 
  -7  -4   1   20.90    6.90 
  -7  -4   1   16.10    4.30 
   6   4  -1    8.90    2.90 
   6   4  -1   13.80    2.80 
   6   4  -1   20.90    5.30 
  -6  -4   1    6.30    4.70 
  -6  -4   1   18.30    5.70 
  -6  -4   1   20.50    6.70 
   5   4  -1   34.40    6.10 
   5   4  -1   34.70    7.80 
   5   4  -1   40.30    7.00 
  -5  -4   1   20.20    6.10 
  -5  -4   1   30.90    6.00 
  -5  -4   1   21.40    8.00 
  -5  -4   1   36.60    7.90 
   4   4  -1  395.56   33.90 
   4   4  -1  385.06   32.90 
   4   4  -1  441.86   36.00 
  -4  -4   1  399.66   32.80 
  -4  -4   1  478.85   42.30 
  -4  -4   1  431.26   36.40 
   3   4  -1  378.26   37.20 
   3   4  -1  446.16   33.80 
  -3  -4   1  459.15   35.60 
  -3  -4   1  420.36   37.10 
  -3  -4   1  452.75   36.60 
   2   4  -1  330.27   29.90 
   2   4  -1  352.76   28.10 
   2   4  -1  357.46   29.50 
  -2  -4   1  338.57   31.90 
  -2  -4   1  413.46   29.10 
  -2  -4   1  357.86   30.20 
   1   4  -1   98.59    8.90 
   1   4  -1   86.39    9.90 
   1   4  -1  110.69   11.60 
  -1  -4   1   83.59   12.00 
  -1  -4   1   92.49    8.60 
  -1  -4   1   88.29    9.90 
   0   4  -1  160.58   16.10 
   0   4  -1  164.78   14.90 
   0  -4   1  168.58   19.00 
   0  -4   1  187.88   14.40 
   0  -4   1  170.28   17.60 
  -1   4  -1    5.00    2.60 
  -1   4  -1    6.70    3.20 
  -1   4  -1    5.70    3.20 
  -1   4  -1    8.30    3.10 
  -1   4  -1    7.50    4.10 
  -1   4  -1    7.90    3.70 
   1  -4   1    7.40    2.10 
   1  -4   1   10.00    4.50 
  -2   4  -1  139.89   18.80 
  -2   4  -1  164.18   17.60 
  -2   4  -1  135.39   16.90 
  -2   4  -1  152.48   17.00 
  -2   4  -1  184.38   17.00 
  -2   4  -1  158.38   15.80 
  -2   4  -1  150.28   16.00 
  -2   4  -1  145.99   16.00 
   2  -4   1  152.48   13.70 
   2  -4   1  157.68   17.20 
  -3   4  -1   32.20    7.80 
  -3   4  -1   42.00    6.60 
  -3   4  -1   35.80    9.60 
  -3   4  -1   45.20    7.70 
  -3   4  -1   35.30    8.00 
   3  -4   1   47.60    5.60 
  -4   4  -1   54.39    8.80 
  -4   4  -1   66.79    9.00 
  -4   4  -1   76.19    8.40 
  -4   4  -1   68.59    9.50 
  -4   4  -1   61.59   10.40 
   4  -4   1   61.39    6.90 
   8   3  -1   -7.20   17.60 
  -8  -3   1   -0.30    1.50 
  -8  -3   1    1.50    1.20 
   7   3  -1   54.89    6.70 
   7   3  -1   72.79    9.20 
  -7  -3   1   53.59    9.00 
  -7  -3   1   44.00   84.69 
   6   3  -1  113.99   12.10 
   6   3  -1   94.49   10.00 
   6   3  -1   87.89   11.20 
   6   3  -1  106.39   11.20 
   6   3  -1   96.09   11.90 
  -6  -3   1   69.59   11.70 
  -6  -3   1  158.88  215.48 
  -6  -3   1   95.19   15.10 
  -6  -3   1   72.49   12.30 
  -6  -3   1   92.49   12.40 
   5   3  -1  397.76   33.10 
   5   3  -1  407.76   31.60 
   5   3  -1  359.66   31.30 
   5   3  -1  322.97   30.00 
  -5  -3   1  323.77   32.40 
  -5  -3   1  419.66   35.40 
  -5  -3   1  361.06   33.10 
  -5  -3   1  374.66   30.30 
  -5  -3   1  448.36   39.70 
   4   3  -1   95.29   10.80 
   4   3  -1  116.29   10.40 
   4   3  -1  116.59   11.20 
  -4  -3   1   93.89    9.70 
  -4  -3   1  111.09   12.70 
   3   3  -1   55.89    6.50 
   3   3  -1   58.19    6.90 
   3   3  -1   54.69    6.80 
  -3  -3   1   65.29    8.10 
  -3  -3   1   58.99    8.00 
  -3  -3   1   56.49    7.60 
   2   3  -1  561.04   48.30 
   2   3  -1  652.93   48.30 
   2   3  -1  694.43   47.60 
  -2  -3   1  617.84   49.99 
  -2  -3   1  626.04   49.30 
   1   3  -1   47.20    5.60 
   1   3  -1   45.30    6.20 
  -1  -3   1   47.60    5.90 
  -1  -3   1   53.89    7.70 
   0   3  -1 2995.30  224.08 
   0   3  -1 3055.19  223.18 
   0   3  -1 3052.19  225.08 
   0   3  -1 2560.74  222.68 
   0  -3   1 3170.48  226.88 
   0  -3   1 2931.61  223.48 
   0  -3   1 3512.85  222.68 
  -1   3  -1 1576.04  116.59 
  -1   3  -1 1464.95  117.49 
  -1   3  -1 1503.35  116.79 
   1  -3   1 1626.64  118.69 
   1  -3   1 1671.03  120.49 
  -2   3  -1  786.12   66.89 
  -2   3  -1  836.02   65.79 
  -2   3  -1  856.91   67.69 
   2  -3   1  887.91   69.99 
   2  -3   1  935.21   64.79 
  -3   3  -1  278.37   28.20 
  -3   3  -1  369.26   29.40 
  -3   3  -1  309.07   29.30 
  -3   3  -1  319.47   32.70 
  -3   3  -1  347.27   30.00 
  -3   3  -1  315.17   30.90 
  -3   3  -1  328.87   28.50 
  -3   3  -1  296.37   28.10 
   3  -3   1  331.27   29.30 
   3  -3   1  302.97   25.90 
  -4   3  -1   20.70    7.90 
  -4   3  -1   21.80    5.70 
  -4   3  -1   23.50    5.20 
  -4   3  -1   26.90    6.80 
  -4   3  -1   25.00    6.50 
  -4   3  -1   32.40    6.60 
   4  -3   1   36.40    5.10 
   4  -3   1   11.30    9.30 
  -5   3  -1   -0.50    2.00 
  -5   3  -1    4.40    2.80 
  -5   3  -1    3.00    2.70 
  -5   3  -1    1.20    2.60 
  -5   3  -1    2.10    3.40 
   5  -3   1    3.70    1.50 
   8   2  -1    4.20    1.30 
   8   2  -1    7.70   47.40 
   8   2  -1    4.50    2.40 
  -8  -2   1    3.00    1.90 
  -8  -2   1    4.50    1.90 
   7   2  -1   -0.40    2.80 
   7   2  -1    5.10    3.10 
   7   2  -1    1.70    2.50 
  -7  -2   1    1.90    2.20 
  -7  -2   1    5.40    2.60 
  -7  -2   1    1.60    1.70 
  -7  -2   1    1.40    2.80 
  -7  -2   1    1.80   30.00 
   6   2  -1  125.39   14.90 
   6   2  -1  137.39   14.30 
   6   2  -1  162.48   15.60 
  -6  -2   1  176.58   15.20 
  -6  -2   1  116.39  149.49 
  -6  -2   1  134.99   17.50 
  -6  -2   1  134.09   16.90 
  -6  -2   1  140.29   16.60 
  -6  -2   1  181.08   19.40 
  -6  -2   1  183.18   21.60 
   5   2  -1   27.60    6.90 
   5   2  -1   55.19    7.40 
   5   2  -1   47.60    7.40 
  -5  -2   1   39.10    7.20 
  -5  -2   1   48.80    6.20 
  -5  -2   1   75.79  131.49 
  -5  -2   1   24.60    6.40 
  -5  -2   1   33.90    8.20 
  -5  -2   1   27.80    6.90 
   4   2  -1 1417.46  102.79 
   4   2  -1 1508.65  104.69 
   4   2  -1 1339.37  103.99 
  -4  -2   1 1333.77  105.39 
  -4  -2   1 1323.37  103.29 
   3   2  -1   90.59    9.00 
   3   2  -1  105.89    8.20 
  -3  -2   1   82.59    8.30 
  -3  -2   1   92.99   10.10 
  -3  -2   1   79.69    7.90 
   2   2  -1 1023.10   78.89 
   2   2  -1 1013.90   78.29 
   2   2  -1 1105.79   78.89 
  -2  -2   1 1050.29   79.99 
  -2  -2   1 1093.79   79.79 
  -2  -2   1 1073.49   79.99 
   1   2  -1 3500.95  252.77 
   1   2  -1 3650.13  255.27 
   1   2  -1 3674.43  252.47 
   1   2  -1 3144.19  253.07 
  -1  -2   1 3098.19  252.17 
  -1  -2   1 3539.65  253.47 
  -1  -2   1 3555.14  254.37 
   0   2  -1 4086.89  308.57 
   0   2  -1 3935.91  307.57 
   0   2  -1 4323.47  307.47 
   0   2  -1 4197.98  307.97 
   0  -2   1 4201.48  307.77 
   0  -2   1 4487.05  309.87 
  -1   2  -1 1709.63  142.29 
  -1   2  -1 1947.51  142.59 
  -1   2  -1 1917.21  141.79 
   1  -2   1 1942.51  143.09 
   1  -2   1 2113.09  144.39 
  -2   2  -1 2291.37  179.48 
  -2   2  -1 2430.36  178.58 
  -2   2  -1 2416.96  179.68 
   2  -2   1 2508.35  179.98 
   2  -2   1 2458.65  181.08 
  -3   2  -1   67.99    6.90 
  -3   2  -1   65.89    8.50 
  -3   2  -1   48.90    7.90 
   3  -2   1   60.69    8.90 
   3  -2   1   59.99    6.30 
  -4   2  -1  220.28   23.90 
  -4   2  -1  197.98   21.50 
  -4   2  -1  213.18   22.10 
  -4   2  -1  611.94  308.07 
  -4   2  -1  247.08   23.50 
  -4   2  -1  251.17   21.50 
  -4   2  -1  246.88   26.10 
   4  -2   1  180.68   21.30 
   4  -2   1  222.88   19.40 
  -5   2  -1    3.30    3.00 
  -5   2  -1    4.30    4.30 
  -5   2  -1    8.70    4.30 
  -5   2  -1   12.40   66.89 
  -5   2  -1   13.30    5.20 
  -5   2  -1   11.70    5.00 
   5  -2   1   13.30    3.40 
  -6   2  -1    3.00    2.50 
  -6   2  -1    2.40    1.80 
  -6   2  -1    0.70    2.00 
  -6   2  -1    3.70    2.10 
  -6   2  -1    1.60    2.30 
   6  -2   1    1.60    1.40 
   6  -2   1    1.00    2.00 
   7   1  -1   23.40    4.70 
   7   1  -1   29.90    6.10 
   7   1  -1   26.70    4.90 
  -7  -1   1   14.20   57.89 
  -7  -1   1   15.70    4.30 
  -7  -1   1   25.50    6.40 
  -7  -1   1   23.50    6.10 
  -7  -1   1   26.50    6.00 
   6   1  -1   69.99    9.40 
   6   1  -1   52.89    9.30 
   6   1  -1   77.49    9.20 
  -6  -1   1   95.09   13.70 
  -6  -1   1   48.50   10.90 
  -6  -1   1   75.19   11.60 
  -6  -1   1   82.29    9.10 
  -6  -1   1   78.99   11.40 
  -6  -1   1   59.29   11.70 
  -6  -1   1   60.69  106.79 
   5   1  -1  269.77   22.80 
   5   1  -1  254.97   23.10 
   5   1  -1  272.87   23.60 
  -5  -1   1  238.88   25.00 
  -5  -1   1  234.88   25.70 
  -5  -1   1  229.08   24.40 
  -5  -1   1  258.27   28.20 
  -5  -1   1  228.78   24.40 
  -5  -1   1  323.27   27.20 
   4   1  -1  627.84   45.20 
   4   1  -1  558.34   45.20 
   4   1  -1  550.24   43.80 
  -4  -1   1  556.94   44.50 
  -4  -1   1  558.34   46.10 
   3   1  -1 1005.80   73.39 
   3   1  -1 1006.30   72.29 
  -3  -1   1  888.91   74.79 
  -3  -1   1  975.10   73.89 
   2   1  -1 2692.43  191.88 
   2   1  -1 2808.32  192.68 
  -2  -1   1 2728.63  193.28 
  -2  -1   1 2257.07  191.98 
   1   1  -1 2266.27  157.78 
   1   1  -1 2217.28  157.98 
   1   1  -1 2056.39  158.48 
  -1  -1   1 2111.79  158.48 
  -1  -1   1 2169.38  157.78 
  -1  -1   1 2118.29  158.48 
  -1   1  -1 2519.45  199.18 
  -1   1  -1 2730.13  199.18 
  -1   1  -1 2829.32  200.18 
  -1   1  -1 2649.33  198.68 
   1  -1   1 2743.23  199.48 
   1  -1   1 2665.03  198.78 
   1  -1   1 2861.11  199.98 
  -2   1  -1 1822.12  140.99 
  -2   1  -1 2016.00  141.99 
  -2   1  -1 1791.02  141.99 
  -2   1  -1 1982.70  140.69 
   2  -1   1 1765.62  142.29 
   2  -1   1 2176.88  142.59 
   2  -1   1 1853.61  141.69 
  -3   1  -1 1275.37   93.59 
  -3   1  -1 1331.37   92.49 
  -3   1  -1 1376.36   94.09 
   3  -1   1 1108.99   91.79 
   3  -1   1 1164.88   92.89 
   3  -1   1 1163.88   92.99 
  -4   1  -1   43.80    8.30 
  -4   1  -1   43.80    7.20 
  -4   1  -1   32.20    7.60 
  -4   1  -1   38.20    6.60 
  -4   1  -1   47.60   96.79 
  -4   1  -1   42.20    9.10 
   4  -1   1   46.10    5.80 
  -5   1  -1  232.88   22.50 
  -5   1  -1  268.57   26.50 
  -5   1  -1  255.27   25.80 
  -5   1  -1  536.15  345.77 
  -5   1  -1  266.17   28.60 
  -5   1  -1  216.48   23.40 
  -5   1  -1  252.17   24.10 
   5  -1   1  247.48   21.90 
  -6   1  -1   11.30    4.00 
  -6   1  -1   10.90    5.00 
  -6   1  -1   36.80   60.59 
  -6   1  -1   17.10    5.70 
  -6   1  -1   16.00    5.70 
   6  -1   1   16.50    4.00 
  -7   1  -1    9.60    3.60 
  -7   1  -1    7.00    2.30 
  -7   1  -1    9.00    3.00 
  -7   1  -1    6.50    2.70 
   7  -1   1    4.90    1.80 
   7   0  -1   16.90    3.40 
  -7   0   1   11.70    4.20 
  -7   0   1   21.50    4.70 
  -7   0   1   24.90    5.40 
  -7   0   1   23.40   52.49 
  -7   0   1   18.40    5.40 
   6   0  -1   38.50    7.30 
   6   0  -1   50.89    7.20 
  -6   0   1   41.90   10.10 
  -6   0   1   55.69    9.40 
  -6   0   1   49.40    9.50 
  -6   0   1   54.29   14.00 
  -6   0   1   42.30   11.50 
  -6   0   1   21.20  110.39 
   5   0  -1  108.19   13.90 
   5   0  -1  126.89   13.00 
  -5   0   1  107.69   14.40 
  -5   0   1  143.09   18.20 
  -5   0   1  141.59   13.40 
  -5   0   1  118.09   15.80 
  -5   0   1   99.29   14.40 
   4   0  -1  536.15   45.80 
   4   0  -1  588.24   44.60 
   4   0  -1  628.04   45.10 
  -4   0   1  530.85   46.40 
   3   0  -1 1837.72  154.48 
   3   0  -1 2217.98  155.08 
   3   0  -1 2171.18  153.68 
  -3   0   1 1830.52  153.98 
  -3   0   1 2361.66  156.98 
   2   0  -1 1912.01  132.89 
   2   0  -1 1774.12  132.09 
  -2   0   1 1923.21  133.09 
  -2   0   1 1572.34  132.29 
  -1   0   1 4141.09  294.87 
  -1   0   1 3918.51  294.37 
   0   0  -1   71.09    5.40 
   0   0   1   71.29    5.80 
   0   0   1   71.49    5.40 
   0   0   1   70.79    5.90 
  -2   0  -1  381.46   28.60 
  -2   0  -1  362.96   28.50 
  -2   0  -1  387.66   28.40 
  -2   0  -1  334.17   29.00 
   2   0   1  412.66   29.00 
   2   0   1  420.46   29.60 
   2   0   1  325.67   28.80 
  -3   0  -1  400.36   35.20 
  -3   0  -1  455.85   34.90 
   3   0   1  438.76   35.80 
   3   0   1  414.26   34.40 
   3   0   1  506.15   36.50 
   3   0   1  471.45   34.70 
  -4   0  -1 2296.17  158.18 
   4   0   1 2044.20  155.48 
   4   0   1 1938.51  155.18 
  -5   0  -1   83.29   15.00 
  -5   0  -1   92.79   12.60 
  -5   0  -1  100.59   14.20 
  -5   0  -1  102.29   14.60 
  -5   0  -1  190.08  164.28 
  -5   0  -1  100.99   13.60 
  -5   0  -1  118.89   13.30 
  -5   0  -1   82.79   14.30 
   5   0   1  111.29   11.30 
  -6   0  -1   93.69   14.50 
  -6   0  -1   90.39   12.10 
  -6   0  -1  105.79   13.30 
  -6   0  -1  198.18  183.18 
  -6   0  -1  109.69   14.40 
  -6   0  -1  116.79   16.70 
   6   0   1  100.79   11.40 
   6   0   1  108.19   10.70 
  -7   0  -1   12.10    5.60 
  -7   0  -1   16.40    4.10 
  -7   0  -1   23.60    6.00 
  -7   0  -1   -0.10   36.10 
  -7   0  -1   20.90    6.20 
   7   0   1   23.60    4.10 
   7   0   1   22.50    4.20 
   6  -1  -1   48.50   10.30 
   6  -1  -1   42.70    5.90 
  -6   1   1   29.60    7.40 
  -6   1   1   83.69  146.09 
  -6   1   1   46.90   10.10 
  -6   1   1   40.20    7.20 
  -6   1   1   48.40    8.80 
   5  -1  -1  173.68   18.70 
   5  -1  -1  198.38   17.70 
  -5   1   1  245.38  200.58 
  -5   1   1  158.08   21.80 
  -5   1   1  194.98   21.40 
  -5   1   1  179.28   22.10 
  -5   1   1  174.68   20.30 
  -5   1   1  241.38   22.10 
   4  -1  -1   82.19    8.20 
   4  -1  -1   54.99    9.20 
  -4   1   1   72.19    9.30 
  -4   1   1   65.29    9.70 
  -4   1   1   54.59   12.10 
  -4   1   1   91.49   15.20 
  -4   1   1   64.19   10.80 
  -4   1   1   66.99   10.50 
   3  -1  -1  502.75   40.70 
   3  -1  -1  555.54   42.10 
  -3   1   1  516.85   43.00 
  -3   1   1  587.94   43.00 
   2  -1  -1  203.48   16.50 
   2  -1  -1  191.68   16.20 
   2  -1  -1  186.58   16.40 
  -2   1   1  218.58   16.80 
  -2   1   1  196.08   17.20 
   1  -1  -1 8063.19  588.64 
  -2  -1  -1 2909.61  222.78 
   2   1   1 2997.80  221.78 
   2   1   1 3315.47  222.78 
   2   1   1 3176.98  222.28 
   2   1   1 2843.42  221.88 
   2   1   1 2956.90  221.78 
  -3  -1  -1  887.01   70.39 
  -3  -1  -1 1028.50   71.09 
   3   1   1  912.71   72.29 
   3   1   1  882.91   69.19 
   3   1   1  973.50   69.79 
  -4  -1  -1  252.07   21.60 
  -4  -1  -1  230.58   21.00 
   4   1   1  282.17   21.50 
   4   1   1  244.98   20.40 
   4   1   1  237.88   21.80 
  -5  -1  -1  955.40   68.49 
  -5  -1  -1  728.23   66.29 
  -5  -1  -1  931.41   72.19 
  -5  -1  -1  670.03   68.69 
  -5  -1  -1  790.92   67.99 
   5   1   1  814.82   63.79 
   5   1   1  868.31   65.99 
   5   1   1  900.41   65.59 
  -6  -1  -1   22.20    7.20 
  -6  -1  -1   39.30    8.60 
  -6  -1  -1   36.40   10.30 
  -6  -1  -1   46.00    6.50 
  -6  -1  -1   28.30    7.70 
  -6  -1  -1   29.60    7.00 
  -6  -1  -1   60.09  137.69 
   6   1   1   38.90    7.20 
   6   1   1   34.50    6.90 
   6   1   1   30.70    6.50 
   6   1   1   42.20    6.40 
  -7  -1  -1   16.70    5.90 
  -7  -1  -1   27.40    6.20 
  -7  -1  -1   15.30    4.20 
  -7  -1  -1   33.10    7.10 
  -7  -1  -1   73.99  134.29 
  -7  -1  -1   29.00    5.30 
   7   1   1   17.40    4.30 
   7   1   1   26.40    4.80 
  -6   2   1    1.20    1.90 
  -6   2   1   -8.60   23.60 
  -6   2   1   -0.10    2.00 
  -6   2   1    3.40    2.50 
  -6   2   1    0.80    1.80 
   5  -2  -1   20.80    4.00 
  -5   2   1   15.50    4.50 
  -5   2   1   22.50   65.99 
  -5   2   1    8.30    4.70 
  -5   2   1   21.30    7.60 
  -5   2   1   24.30    7.20 
   4  -2  -1  348.87   27.50 
   4  -2  -1  297.87   29.80 
  -4   2   1  283.77   31.10 
  -4   2   1  399.26  247.98 
  -4   2   1  395.06   30.60 
  -4   2   1  357.86   34.20 
  -4   2   1  333.97   31.90 
   3  -2  -1  159.78   17.80 
   3  -2  -1  113.19   14.40 
  -3   2   1  173.58   14.90 
  -3   2   1  134.09   19.00 
  -3   2   1  142.29   18.20 
  -3   2   1  136.59   18.90 
   2  -2  -1 1664.23  119.49 
   2  -2  -1 1671.43  121.19 
   2  -2  -1 1614.04  120.79 
  -2   2   1 1595.84  119.89 
  -2   2   1 1575.64  119.69 
  -2   2   1 1502.95  119.59 
   1  -2  -1 1364.26  101.49 
  -1   2   1 1164.68   99.39 
  -1   2   1 1414.56   99.99 
  -1   2   1 1397.26  100.59 
  -1   2   1 1380.96  100.29 
  -1   2   1 1342.27   99.29 
   0  -2  -1  677.83   50.29 
   0   2   1  695.43   50.79 
   0   2   1  677.63   51.39 
   0   2   1  726.63   50.29 
   0   2   1  694.83   51.69 
   0   2   1  602.44   50.19 
  -1  -2  -1 5409.36  404.36 
  -1  -2  -1 5262.57  403.26 
   1   2   1 5859.81  404.46 
  -2  -2  -1  685.53   55.29 
  -2  -2  -1  767.42   55.79 
   2   2   1  656.33   54.49 
   2   2   1  745.53   55.49 
   2   2   1  725.83   53.39 
   2   2   1  775.12   54.49 
  -3  -2  -1 2744.33  214.88 
  -3  -2  -1 2995.50  215.48 
   3   2   1 2839.22  214.98 
   3   2   1 3134.29  215.78 
  -4  -2  -1   60.69    8.00 
  -4  -2  -1   48.30    6.00 
   4   2   1   50.39    6.50 
   4   2   1   58.69    6.10 
   4   2   1   59.59    7.70 
  -5  -2  -1  161.38   14.40 
  -5  -2  -1  117.79   15.20 
  -5  -2  -1  137.59   15.40 
  -5  -2  -1  157.68   19.30 
   5   2   1  150.48   15.30 
   5   2   1  162.08   14.90 
   5   2   1  142.09   13.80 
   5   2   1  156.48   13.30 
  -6  -2  -1   87.79   14.00 
  -6  -2  -1   91.29   14.50 
  -6  -2  -1  101.79   10.20 
  -6  -2  -1   67.69   11.40 
  -6  -2  -1   72.69   11.30 
  -6  -2  -1   61.29   13.10 
  -6  -2  -1  274.77  248.08 
  -6  -2  -1   68.79   14.60 
   6   2   1   92.99   10.90 
   6   2   1   97.89   11.50 
   6   2   1   84.09   10.50 
   6   2   1  101.19    9.80 
  -7  -2  -1   83.29   11.50 
  -7  -2  -1   69.19   10.20 
  -7  -2  -1  311.67  245.08 
  -7  -2  -1   99.49   13.60 
  -7  -2  -1   84.19   11.40 
  -7  -2  -1   70.49    9.60 
   7   2   1   81.79    8.70 
   7   2   1   98.09   10.30 
   7   2   1   62.69    9.30 
  -8  -2  -1    4.00    2.20 
  -8  -2  -1    1.60    2.10 
  -8  -2  -1    7.30    2.30 
   8   2   1    2.50    1.80 
   8   2   1   -4.20   18.50 
   8   2   1    2.40    1.90 
   5  -3  -1    3.60    2.20 
  -5   3   1    3.40    3.00 
  -5   3   1    1.40    2.20 
  -5   3   1    2.50    2.80 
  -5   3   1    9.80    4.50 
   4  -3  -1   99.99   10.40 
  -4   3   1  140.39   16.80 
  -4   3   1  107.79   14.00 
  -4   3   1   94.09   13.20 
  -4   3   1  107.79   13.60 
  -4   3   1  119.59   15.40 
  -4   3   1   54.89  113.69 
   3  -3  -1  210.98   22.90 
  -3   3   1  260.47   23.00 
  -3   3   1  216.48   23.80 
  -3   3   1  245.78   23.70 
  -3   3   1  272.37   27.20 
  -3   3   1  260.87   25.70 
  -3   3   1  112.29  178.58 
   2  -3  -1  143.09   15.90 
   2  -3  -1  141.99   14.20 
   2  -3  -1  150.48   15.10 
  -2   3   1  143.79   14.30 
  -2   3   1  152.28   14.20 
   1  -3  -1   96.39   10.20 
   1  -3  -1  122.09   12.90 
  -1   3   1   95.39    9.50 
  -1   3   1  113.19   11.70 
  -1   3   1  109.29   10.50 
  -1   3   1   99.19   10.60 
   0  -3  -1  159.18   14.20 
   0  -3  -1  155.38   16.10 
   0   3   1  168.28   15.00 
   0   3   1  160.28   12.90 
   0   3   1  151.58   13.70 
  -1  -3  -1  636.74   50.19 
  -1  -3  -1  593.84   48.20 
   1   3   1  621.34   46.30 
   1   3   1  632.94   49.00 
   1   3   1  633.64   47.40 
  -2  -3  -1 4483.35  329.57 
  -2  -3  -1 4497.85  328.57 
   2   3   1 4205.48  327.87 
   2   3   1 4659.83  327.27 
  -3  -3  -1 3519.25  237.68 
  -3  -3  -1 3262.87  237.78 
  -3  -3  -1 3338.67  237.98 
   3   3   1 3166.08  236.18 
   3   3   1 2943.31  234.68 
   3   3   1 2970.30  234.88 
   3   3   1 3274.77  236.68 
  -4  -3  -1   71.19    7.10 
  -4  -3  -1   74.79    9.60 
  -4  -3  -1   67.09   11.20 
   4   3   1   74.79    8.20 
   4   3   1   83.29    7.50 
   4   3   1   67.39    8.40 
  -5  -3  -1  257.07   25.20 
  -5  -3  -1  278.47   22.80 
  -5  -3  -1  222.68  158.58 
  -5  -3  -1  250.17   37.40 
  -5  -3  -1  296.57   28.50 
   5   3   1  256.47   25.70 
   5   3   1  258.47   23.50 
   5   3   1  317.27   24.70 
   5   3   1  279.17   23.70 
  -6  -3  -1  612.14   55.69 
  -6  -3  -1  635.74   51.79 
  -6  -3  -1  547.05   50.19 
  -6  -3  -1  222.18  282.67 
   6   3   1  602.24   49.10 
   6   3   1  631.74   51.79 
   6   3   1  693.33   50.49 
   6   3   1  572.04   46.80 
  -7  -3  -1    3.40    3.70 
  -7  -3  -1    4.20   55.09 
  -7  -3  -1   10.20    4.20 
  -7  -3  -1    9.90    4.50 
   7   3   1   12.80    3.00 
   7   3   1   14.10    4.20 
  -8  -3  -1    2.50    2.30 
  -8  -3  -1    1.90    1.70 
   8   3   1    0.10    1.70 
   8   3   1   -9.30   22.00 
   4  -4  -1   25.50    3.70 
  -4   4   1   17.40    3.80 
  -4   4   1   35.50    5.50 
  -4   4   1   24.90    5.50 
  -4   4   1   16.30    6.00 
  -4   4   1   31.10    6.90 
   3  -4  -1  132.29   11.50 
  -3   4   1  110.09   13.70 
  -3   4   1  119.69   13.00 
  -3   4   1  111.19   14.40 
  -3   4   1  113.39   16.20 
  -3   4   1  127.39   15.60 
  -3   4   1  145.39   17.40 
   2  -4  -1   86.69   12.80 
  -2   4   1   58.59   11.40 
  -2   4   1   73.39   13.10 
  -2   4   1   79.69   10.00 
  -2   4   1   76.09    9.50 
  -2   4   1   65.39   10.60 
  -2   4   1   78.69    9.60 
  -2   4   1   61.29   11.30 
  -2   4   1   47.40    9.40 
   1  -4  -1  352.46   28.90 
   1  -4  -1  335.37   31.00 
  -1   4   1  326.77   31.70 
  -1   4   1  399.96   30.70 
  -1   4   1  342.07   28.30 
  -1   4   1  347.17   29.70 
  -1   4   1  365.46   33.30 
   0  -4  -1  165.38   16.70 
   0  -4  -1  182.48   19.90 
   0   4   1  188.28   21.80 
   0   4   1  177.98   16.40 
   0   4   1  180.28   15.90 
  -1  -4  -1   43.00    8.40 
  -1  -4  -1   50.29    4.80 
  -1  -4  -1   43.40    7.10 
   1   4   1   41.40    6.00 
   1   4   1   55.99    5.20 
   1   4   1   40.90    6.90 
  -2  -4  -1  324.17   23.40 
  -2  -4  -1  264.37   24.70 
  -2  -4  -1  280.27   26.80 
   2   4   1  283.77   23.50 
   2   4   1  259.67   24.50 
  -3  -4  -1  310.17   26.90 
  -3  -4  -1  254.37   27.20 
  -3  -4  -1  359.36   26.30 
   3   4   1  288.27   25.90 
   3   4   1  306.87   25.30 
  -4  -4  -1  375.06   31.90 
  -4  -4  -1  375.96   32.20 
  -4  -4  -1  310.57   31.10 
   4   4   1  377.76   30.20 
   4   4   1  375.26   30.00 
  -5  -4  -1  166.38   17.20 
  -5  -4  -1  155.88   17.20 
  -5  -4  -1  148.09   20.30 
  -5  -4  -1  181.08   17.10 
  -5  -4  -1  126.09   17.80 
   5   4   1  169.38   15.80 
   5   4   1  158.28   16.00 
   5   4   1   83.89  109.29 
   5   4   1  139.79   15.70 
  -6  -4  -1  244.58   26.00 
  -6  -4  -1  202.08   22.70 
  -6  -4  -1  242.88   28.40 
  -6  -4  -1  214.88   23.50 
   6   4   1   23.40  134.29 
   6   4   1  266.57   22.90 
   6   4   1  298.47   24.10 
   6   4   1  269.47   23.10 
  -7  -4  -1   39.80   10.70 
  -7  -4  -1   24.70    5.80 
  -7  -4  -1   38.50    7.00 
   7   4   1   48.30    7.00 
   7   4   1   26.70   75.79 
   7   4   1   34.70    7.10 
   8   4   1    6.10   21.10 
  -3   5   1    7.50    2.30 
  -3   5   1    5.80    3.00 
  -3   5   1    3.20    2.30 
   2  -5  -1  207.88   18.30 
  -2   5   1  229.88   21.00 
  -2   5   1  246.28   22.90 
   1  -5  -1   24.00    7.80 
   1  -5  -1   15.00    3.00 
  -1   5   1   22.00    5.40 
  -1   5   1    8.30    3.90 
  -1   5   1   13.90    4.40 
  -1   5   1   32.40    6.70 
  -1   5   1   19.00    6.50 
  -1   5   1    9.80    4.20 
   0  -5  -1  551.74   44.30 
   0  -5  -1  699.03   54.59 
   0   5   1  556.94   49.50 
   0   5   1  641.54   47.90 
   0   5   1  606.94   47.50 
   0   5   1  537.05   46.80 
   0   5   1  577.44   50.39 
   0   5   1  592.44   46.20 
   0   5   1  500.05   49.10 
  -1  -5  -1  199.78   15.80 
  -1  -5  -1  186.78   18.80 
   1   5   1  188.68   17.60 
   1   5   1  197.38   17.90 
   1   5   1  130.99   22.90 
   1   5   1  183.28   19.20 
   1   5   1  189.98   17.80 
   1   5   1  208.18   20.00 
   1   5   1  160.08   17.80 
   1   5   1  168.88   19.60 
  -2  -5  -1  729.93   51.29 
  -2  -5  -1  635.34   53.49 
   2   5   1  593.04   52.19 
   2   5   1  745.53   54.89 
   2   5   1  709.43   52.69 
   2   5   1  609.84   51.99 
   2   5   1  647.24   54.99 
   2   5   1  641.54   52.09 
   2   5   1  651.63   54.79 
   2   5   1  618.94   53.59 
  -3  -5  -1    6.80    4.50 
  -3  -5  -1    3.90    2.90 
  -3  -5  -1    1.80    3.70 
   3   5   1    3.30    2.70 
   3   5   1    4.80    2.70 
   3   5   1    1.10    2.70 
   3   5   1    7.60    4.40 
   3   5   1    8.20    4.10 
   3   5   1    6.40    3.60 
   3   5   1    8.10    2.90 
   3   5   1    3.10    2.20 
  -4  -5  -1  246.78   23.90 
  -4  -5  -1  238.98   21.30 
  -4  -5  -1  199.78   26.80 
   4   5   1  253.67   23.90 
   4   5   1  263.47   23.10 
   4   5   1  242.68   22.10 
   4   5   1  255.87   21.70 
   4   5   1  239.78   24.70 
   4   5   1  232.98   22.80 
   4   5   1  239.48   22.80 
  -5  -5  -1  282.37   26.80 
  -5  -5  -1  271.87   23.20 
  -5  -5  -1  202.18   28.60 
   5   5   1  313.37   27.80 
   5   5   1  254.07   25.80 
   5   5   1  291.17   24.80 
   5   5   1  281.47   25.50 
   5   5   1  265.07   24.40 
  -6  -5  -1    3.30    5.00 
  -6  -5  -1   17.30    5.80 
  -6  -5  -1    0.50    4.30 
   6   5   1   12.50    4.40 
   6   5   1   10.10    4.50 
   6   5   1    3.20    5.10 
  -7  -5  -1   10.30    4.90 
  -7  -5  -1    9.40    4.00 
   7   5   1   14.20    3.70 
   7   5   1  -16.90   34.10 
   7   5   1   14.50    4.00 
  -8  -5  -1   13.30    4.60 
   8   5   1   22.20    3.70 
  -2   6   1    4.00    2.00 
  -2   6   1    3.60    1.90 
  -2   6   1    3.50    2.70 
   1  -6  -1  179.88   16.80 
  -1   6   1  247.38   19.70 
  -1   6   1  187.88   20.60 
  -1   6   1  239.48   19.70 
  -1   6   1  200.98   21.40 
  -1   6   1  204.78   17.80 
   0   6   1  262.77   22.90 
   0   6   1  217.48   24.10 
   0   6   1  199.48   24.40 
   0   6   1  278.27   23.30 
   0   6   1  257.07   26.50 
  -1  -6  -1  159.98   16.20 
  -1  -6  -1  174.78   20.50 
   1   6   1  206.08   18.70 
   1   6   1  185.88   18.40 
   1   6   1  186.98   20.00 
   1   6   1  185.08   19.20 
   1   6   1  183.28   21.30 
   1   6   1  171.88   17.80 
   1   6   1  223.18   22.50 
  -2  -6  -1  215.88   19.00 
  -2  -6  -1  210.18   20.50 
  -2  -6  -1  188.48   20.90 
   2   6   1  215.18   23.20 
   2   6   1  208.48   20.10 
   2   6   1  198.48   19.70 
   2   6   1  189.88   21.40 
   2   6   1  212.08   23.10 
   2   6   1  192.48   19.40 
  -3  -6  -1  233.88   21.70 
  -3  -6  -1  222.78   22.80 
   3   6   1  206.28   23.90 
   3   6   1  224.18   21.30 
   3   6   1  214.78   21.10 
   3   6   1  229.68   23.60 
   3   6   1  241.68   23.30 
   3   6   1  203.38   24.40 
  -4  -6  -1  342.07   27.70 
  -4  -6  -1  298.87   30.00 
  -4  -6  -1  320.77   34.90 
  -4  -6  -1  303.17   30.00 
   4   6   1  345.67   29.60 
   4   6   1  353.86   31.70 
   4   6   1  327.37   28.40 
   4   6   1  296.67   27.50 
   4   6   1  330.17   29.30 
   4   6   1  351.76   31.70 
   4   6   1  289.57   28.20 
  -5  -6  -1   66.09   15.10 
  -5  -6  -1   74.49    9.00 
  -5  -6  -1   58.39   10.40 
   5   6   1   62.69   10.60 
   5   6   1   60.79    9.70 
   5   6   1   79.59    9.00 
   5   6   1   79.69   10.40 
  -6  -6  -1  103.79   16.70 
  -6  -6  -1   95.39   14.90 
   6   6   1  150.88   13.90 
   6   6   1  148.69   15.00 
   7   6   1   30.30    5.80 
   7   6   1   23.00    5.30 
  -1   7   1    2.20    1.80 
  -1   7   1    5.30    2.20 
   0   7   1   15.90    4.50 
   0   7   1   17.10    5.00 
   0   7   1   20.20    5.10 
   0   7   1   27.50    5.60 
  -1  -7  -1    1.20    1.70 
  -1  -7  -1    1.50    3.40 
   1   7   1    3.80    2.60 
   1   7   1    5.00    2.90 
   1   7   1    1.60    2.90 
   1   7   1    1.10    1.90 
   1   7   1   -0.50    2.00 
  -2  -7  -1   22.20    4.90 
  -2  -7  -1   23.30    4.30 
   2   7   1   21.20    5.20 
   2   7   1   27.10    7.50 
   2   7   1   14.70    5.00 
   2   7   1   20.10    5.70 
   2   7   1   23.90    5.90 
   2   7   1    9.80    5.10 
  -3  -7  -1    6.90    3.10 
   3   7   1   18.40    4.70 
   3   7   1   13.20    5.30 
   3   7   1   14.80    4.60 
   3   7   1   11.30    5.20 
   3   7   1    9.00    3.70 
   3   7   1    9.90    4.80 
  -4  -7  -1   18.70    7.30 
  -4  -7  -1   25.60    5.90 
   4   7   1   31.20    7.90 
   4   7   1   22.10    5.30 
   4   7   1   32.70    7.80 
   4   7   1   13.10    5.40 
   4   7   1   28.00    6.40 
  -5  -7  -1   12.60    6.00 
  -5  -7  -1   22.10    4.60 
   5   7   1   19.20    4.70 
   5   7   1   32.50    6.20 
   5   7   1   18.80    4.80 
   5   7   1   17.80    5.20 
  -6  -7  -1   29.70    6.50 
  -6  -7  -1   20.80    7.70 
   6   7   1   47.60    7.00 
   6   7   1   40.00    5.60 
   6   7   1   29.60    6.00 
   7   7   1    9.30    3.10 
   7   7   1    6.90    1.90 
  -1  -8  -1   31.80    6.30 
   1   8   1   19.40    5.20 
  -2  -8  -1    7.90    3.30 
  -2  -8  -1    2.90    2.60 
   2   8   1    5.50    2.40 
   2   8   1    3.70    3.10 
   2   8   1    3.30    2.10 
   2   8   1    4.10    2.80 
  -3  -8  -1   34.80    6.30 
   3   8   1   47.60    7.90 
   3   8   1   33.70    5.70 
   3   8   1   41.70    7.10 
   3   8   1   43.40    7.30 
   3   8   1   36.70    5.50 
   4   8   1   94.69   10.70 
   4   8   1   88.59    9.70 
   4   8   1  109.89   12.80 
  -5  -8  -1   -1.40    1.70 
  -5  -8  -1    0.80    1.60 
  -5  -8  -1    0.70    2.90 
   5   8   1   -0.10    1.70 
   5   8   1   -1.80    1.50 
   5   8   1   -1.40    0.90 
   4   8  -2    7.80    2.60 
   4   8  -2    3.20    2.60 
   4   8  -2    3.60    1.40 
   4   8  -2    9.20    4.60 
  -4  -8   2    4.80    3.00 
  -4  -8   2    2.70    2.10 
   3   8  -2    2.50    1.70 
   3   8  -2    0.30    1.30 
   3   8  -2   -0.50    1.30 
  -3  -8   2    4.60    2.70 
  -3  -8   2    0.50    1.90 
   2   8  -2   10.30    2.70 
   2   8  -2    7.90    2.80 
   2   8  -2   12.00    2.90 
   2   8  -2   10.30    3.60 
   2   8  -2   11.00    3.40 
  -2  -8   2   19.20    3.80 
   6   7  -2   -0.90    1.70 
   6   7  -2    0.30    2.10 
  -6  -7   2    1.60    1.60 
   5   7  -2    3.60    3.30 
   5   7  -2    8.00    3.30 
  -5  -7   2    7.70    5.20 
  -5  -7   2   11.60    3.40 
  -5  -7   2    6.60    3.60 
   4   7  -2   33.40    6.80 
   4   7  -2   29.20    5.70 
   4   7  -2   16.40    5.40 
   4   7  -2   31.60    6.20 
  -4  -7   2   32.30    6.20 
  -4  -7   2   23.50    8.50 
   3   7  -2  102.69   13.70 
   3   7  -2  101.29   13.50 
   3   7  -2   83.19   10.90 
   3   7  -2  118.49   11.90 
   3   7  -2  137.69   14.80 
   3   7  -2  100.09   10.70 
  -3  -7   2  101.89   12.50 
  -3  -7   2   78.89   10.90 
   2   7  -2   24.80    6.60 
   2   7  -2   33.10    7.80 
   2   7  -2   19.10    5.90 
   2   7  -2   19.30    4.90 
   2   7  -2   23.30    5.00 
  -2  -7   2   18.20    4.20 
  -2  -7   2   21.00    4.50 
   1   7  -2   50.39    7.30 
   1   7  -2   49.50    7.00 
   1   7  -2   44.90    7.90 
   1   7  -2   56.19    8.60 
   1   7  -2   75.69   10.10 
  -1  -7   2   28.70    7.10 
  -1  -7   2   44.80    6.50 
  -1  -7   2   52.69    7.20 
   0   7  -2  146.29   17.40 
   0   7  -2  163.28   16.30 
   0   7  -2  186.48   16.60 
   0   7  -2  205.18   19.10 
   0  -7   2  168.98   15.80 
   0  -7   2  169.88   14.60 
   0  -7   2  177.28   15.60 
  -1   7  -2   50.89    6.20 
  -1   7  -2   54.59    6.20 
  -1   7  -2   48.50    6.60 
  -1   7  -2   44.80    6.20 
   1  -7   2   48.70    5.40 
   7   6  -2    6.90    2.80 
   7   6  -2    9.40    3.00 
  -7  -6   2    3.70    2.30 
   6   6  -2   26.50    5.10 
   6   6  -2   21.30    5.50 
  -6  -6   2   19.60    5.90 
  -6  -6   2   19.80    6.90 
   5   6  -2   33.00    7.00 
   5   6  -2   24.70    5.00 
  -5  -6   2   11.80    5.70 
  -5  -6   2   15.80    4.60 
   4   6  -2   69.89    9.60 
   4   6  -2   74.29   11.80 
   4   6  -2   61.39    9.50 
   4   6  -2   71.99   10.70 
   4   6  -2   84.59   10.90 
  -4  -6   2   75.99    9.60 
  -4  -6   2   76.79   10.80 
  -4  -6   2   71.79   10.00 
  -4  -6   2   88.99   15.70 
   3   6  -2  112.49   14.90 
   3   6  -2  126.29   14.00 
   3   6  -2  118.59   13.00 
   3   6  -2  108.99   13.50 
   3   6  -2  115.39   15.30 
   3   6  -2  116.79   14.20 
   3   6  -2  137.29   16.70 
  -3  -6   2  129.59   14.70 
  -3  -6   2  108.59   13.10 
  -3  -6   2  144.89   14.40 
  -3  -6   2  142.49   12.70 
  -3  -6   2  131.09   16.00 
   2   6  -2  255.77   25.10 
   2   6  -2  235.28   24.80 
   2   6  -2  250.17   22.50 
   2   6  -2  268.87   26.10 
   2   6  -2  232.98   21.90 
   2   6  -2  220.48   22.30 
   2   6  -2  214.18   21.40 
  -2  -6   2  213.78   19.90 
  -2  -6   2  234.98   21.90 
  -2  -6   2  257.17   21.90 
  -2  -6   2  225.58   23.80 
   1   6  -2   80.99   12.10 
   1   6  -2   79.19   10.90 
   1   6  -2   79.29    9.60 
   1   6  -2  107.89   13.60 
   1   6  -2  107.79   13.90 
   1   6  -2   83.39   10.50 
   1   6  -2   84.09   10.70 
  -1  -6   2   96.69   10.80 
  -1  -6   2   84.99    9.00 
  -1  -6   2   70.39   13.20 
   0   6  -2  154.08   16.20 
   0   6  -2  151.98   18.60 
   0   6  -2  179.88   19.10 
   0   6  -2  173.98   16.70 
   0   6  -2  171.68   15.40 
   0  -6   2  126.59   13.70 
  -1   6  -2   43.40    6.60 
  -1   6  -2   31.50    7.40 
  -1   6  -2   44.20    6.80 
  -1   6  -2   34.80    8.30 
  -1   6  -2   46.90    6.40 
   1  -6   2   36.90    5.50 
  -2   6  -2    3.20    2.30 
  -2   6  -2    4.40    2.00 
  -2   6  -2    2.30    1.80 
  -2   6  -2    5.30    1.80 
  -2   6  -2    0.90    3.50 
   2  -6   2    6.70    2.10 
   2  -6   2    4.40    1.80 
   7   5  -2    8.60    2.90 
   7   5  -2    3.10    2.20 
  -7  -5   2    1.20    2.60 
  -7  -5   2    4.50    2.60 
   6   5  -2   44.60    7.40 
  -6  -5   2   29.40    8.70 
  -6  -5   2   35.50    7.40 
   5   5  -2   54.19    9.60 
   5   5  -2   86.09   11.00 
   5   5  -2   75.39    9.20 
   5   5  -2   71.79   10.50 
  -5  -5   2   47.30    9.70 
  -5  -5   2   78.69   14.00 
  -5  -5   2   56.69   12.20 
  -5  -5   2   71.29   10.30 
   4   5  -2  108.49   12.60 
   4   5  -2   73.19   10.20 
   4   5  -2   91.19   13.30 
   4   5  -2   88.09   10.60 
   4   5  -2   98.59   11.20 
  -4  -5   2   86.49   12.10 
  -4  -5   2  108.69   10.50 
  -4  -5   2   73.59   10.90 
  -4  -5   2   92.59   16.20 
   3   5  -2  288.37   24.90 
   3   5  -2  316.77   24.60 
   3   5  -2  240.48   23.80 
   3   5  -2  300.47   28.20 
   3   5  -2  318.97   27.00 
   3   5  -2  279.57   26.30 
   3   5  -2  246.38   23.00 
  -3  -5   2  251.97   29.20 
  -3  -5   2  274.97   24.90 
  -3  -5   2  253.67   22.40 
  -3  -5   2  228.38   24.40 
  -3  -5   2  245.48   24.00 
   2   5  -2  200.48   21.50 
   2   5  -2  201.08   18.80 
   2   5  -2  190.08   19.10 
   2   5  -2  247.58   23.30 
   2   5  -2  193.38   19.10 
   2   5  -2  243.78   23.10 
  -2  -5   2  173.98   19.00 
  -2  -5   2  206.98   18.80 
  -2  -5   2  192.88   20.40 
   1   5  -2  539.95   44.40 
   1   5  -2  636.64   49.90 
   1   5  -2  601.84   48.20 
   1   5  -2  625.54   48.10 
   1   5  -2  446.76   44.00 
   1   5  -2  549.54   44.30 
   1   5  -2  518.15   43.00 
  -1  -5   2  495.55   45.50 
   0   5  -2  264.27   23.60 
   0   5  -2  250.77   23.10 
   0   5  -2  302.57   25.30 
   0   5  -2  235.88   21.80 
   0   5  -2  279.37   25.90 
   0   5  -2  210.98   22.60 
   0   5  -2  290.67   27.50 
   0  -5   2  206.18   23.60 
   0  -5   2  223.98   20.60 
  -1   5  -2   67.49   10.80 
  -1   5  -2   57.69    9.40 
  -1   5  -2   71.39    9.70 
  -1   5  -2   72.49    9.40 
  -1   5  -2   71.79   10.10 
  -1   5  -2   66.19   11.30 
  -1   5  -2   62.39    9.20 
   1  -5   2   74.49    7.90 
   1  -5   2   55.49   11.00 
  -2   5  -2  173.98   20.00 
  -2   5  -2  171.38   20.00 
  -2   5  -2  170.28   18.10 
  -2   5  -2  179.78   20.50 
  -2   5  -2  173.48   18.00 
  -2   5  -2  140.19   16.80 
   2  -5   2  177.68   15.40 
  -3   5  -2    6.80    3.10 
  -3   5  -2    5.00    2.00 
  -3   5  -2    6.10    2.40 
  -3   5  -2    1.80    2.30 
  -3   5  -2    6.90    2.60 
   3  -5   2    7.80    2.30 
   7   4  -2    4.90    2.80 
   7   4  -2   -9.60   31.00 
  -7  -4   2    5.60    2.60 
  -7  -4   2    2.90    3.00 
   6   4  -2    5.40    3.40 
   6   4  -2    2.30    3.60 
   6   4  -2    3.00    2.50 
  -6  -4   2    7.20    3.60 
  -6  -4   2  -15.10   41.50 
  -6  -4   2   -1.00    3.20 
   5   4  -2  101.59   12.20 
   5   4  -2   82.09    8.20 
   5   4  -2   68.89   10.50 
   5   4  -2   79.09    9.60 
  -5  -4   2   98.09   15.10 
  -5  -4   2   69.79   10.80 
  -5  -4   2   64.89   10.40 
   4   4  -2   -1.70    1.50 
   4   4  -2   -8.20    4.00 
   4   4  -2    6.50    4.50 
   4   4  -2    1.00    3.50 
  -4  -4   2    0.80    2.80 
  -4  -4   2    3.70    2.80 
  -4  -4   2    4.60    5.10 
  -4  -4   2    2.30    3.40 
   3   4  -2 1275.07   97.19 
   3   4  -2 1269.97   96.29 
  -3  -4   2 1212.38   99.79 
  -3  -4   2 1320.47   98.99 
  -3  -4   2 1338.07   97.79 
  -3  -4   2 1289.87   97.39 
   2   4  -2 1905.11  144.19 
   2   4  -2 1929.01  145.29 
  -2  -4   2 1844.72  148.29 
  -2  -4   2 2213.88  144.99 
  -2  -4   2 1868.01  145.99 
  -2  -4   2 1907.01  145.89 
   1   4  -2  673.13   52.89 
   1   4  -2  638.14   51.49 
  -1  -4   2  669.03   56.09 
  -1  -4   2  624.94   52.09 
  -1  -4   2  764.52   51.49 
  -1  -4   2  665.63   53.89 
   0   4  -2  739.63   61.19 
   0   4  -2  763.92   59.99 
   0  -4   2  734.33   64.79 
   0  -4   2  874.91   59.49 
   0  -4   2  800.32   62.79 
  -1   4  -2  122.09   13.20 
  -1   4  -2  117.69   16.10 
  -1   4  -2  108.49   13.30 
  -1   4  -2  124.89   14.60 
  -1   4  -2  146.19   16.10 
  -1   4  -2  171.58   17.90 
  -1   4  -2  134.59   14.80 
   1  -4   2  117.79   14.70 
   1  -4   2  136.29   11.70 
  -2   4  -2  131.39   15.40 
  -2   4  -2  166.18   17.20 
  -2   4  -2  155.88   15.50 
  -2   4  -2  133.59   18.20 
  -2   4  -2  157.48   17.30 
  -2   4  -2  135.79   15.70 
  -2   4  -2  144.29   16.30 
   2  -4   2  141.39   13.40 
   2  -4   2  154.28   17.20 
  -3   4  -2  162.08   17.40 
  -3   4  -2  147.69   16.10 
  -3   4  -2  156.08   16.70 
  -3   4  -2  163.08   20.10 
  -3   4  -2  175.68   18.60 
   3  -4   2  164.38   14.80 
  -4   4  -2   11.30    3.00 
  -4   4  -2   26.50    6.30 
  -4   4  -2   21.10    5.20 
  -4   4  -2   13.90    3.90 
  -4   4  -2   16.40    5.10 
   4  -4   2   18.40    3.20 
   7   3  -2    6.00    3.20 
   7   3  -2    7.80    3.50 
   7   3  -2    5.60    2.60 
  -7  -3   2   11.30    4.10 
  -7  -3   2    2.70    2.70 
  -7  -3   2    3.70    3.90 
  -7  -3   2   24.70   64.09 
   6   3  -2    9.10    3.30 
   6   3  -2    7.90    3.10 
   6   3  -2    5.20    3.50 
   6   3  -2   13.20    4.10 
  -6  -3   2   11.00   41.80 
  -6  -3   2   14.20    3.90 
  -6  -3   2   16.80    5.30 
  -6  -3   2   16.30    5.60 
  -6  -3   2   16.00    6.20 
  -6  -3   2   12.40    6.00 
  -6  -3   2   10.50    5.00 
   5   3  -2   51.69    8.10 
   5   3  -2   52.29    9.80 
   5   3  -2   76.89    8.80 
   5   3  -2   61.69    8.00 
  -5  -3   2   62.99   10.00 
  -5  -3   2   58.99    9.40 
  -5  -3   2  -22.40   60.09 
  -5  -3   2   58.79    9.60 
  -5  -3   2   74.39   14.90 
   4   3  -2 1376.46  102.09 
   4   3  -2 1401.26  101.19 
   4   3  -2 1320.57  101.39 
  -4  -3   2 1318.87  104.29 
   3   3  -2  570.14   45.30 
   3   3  -2  500.45   44.30 
   3   3  -2  627.04   46.40 
  -3  -3   2  586.64   45.10 
  -3  -3   2  631.04   47.50 
  -3  -3   2  615.34   47.30 
   2   3  -2   72.29    7.90 
   2   3  -2   71.19    7.50 
  -2  -3   2   73.59    8.40 
  -2  -3   2   76.19    9.90 
  -2  -3   2   82.69    7.80 
  -2  -3   2   76.69    8.60 
   1   3  -2 2101.19  182.58 
   1   3  -2 2674.73  183.48 
   1   3  -2 2626.34  184.08 
  -1  -3   2 2658.93  186.88 
  -1  -3   2 2459.45  184.78 
  -1  -3   2 2437.06  184.08 
   0   3  -2  941.71   71.99 
   0   3  -2  955.60   71.19 
   0   3  -2  796.72   70.79 
   0  -3   2  946.01   70.99 
   0  -3   2 1048.90   73.39 
   0  -3   2  921.41   77.69 
   0  -3   2 1034.30   70.69 
  -1   3  -2  704.93   53.29 
  -1   3  -2  637.84   53.49 
  -1   3  -2  651.43   54.19 
   1  -3   2  665.33   56.89 
   1  -3   2  715.63   55.39 
   1  -3   2  801.82   52.69 
  -2   3  -2   51.59    6.90 
  -2   3  -2   54.39    9.30 
  -2   3  -2   55.09    9.30 
  -2   3  -2   48.60   10.10 
  -2   3  -2   57.79    8.20 
  -2   3  -2   60.29    7.90 
   2  -3   2   63.19    6.40 
   2  -3   2   64.99    9.60 
   2  -3   2   49.30   10.60 
  -3   3  -2   30.50    6.80 
  -3   3  -2   44.20    8.70 
  -3   3  -2   39.00    9.90 
  -3   3  -2   42.10    7.30 
  -3   3  -2   57.79    8.80 
  -3   3  -2   34.50    7.00 
  -3   3  -2   42.10    9.70 
   3  -3   2   33.90    5.40 
   3  -3   2   37.70    8.70 
  -4   3  -2  195.58   20.10 
  -4   3  -2  188.98   20.10 
  -4   3  -2  219.18   23.90 
  -4   3  -2  210.18   21.70 
  -4   3  -2  179.78   19.30 
  -4   3  -2  183.28   18.30 
   4  -3   2  183.18   17.30 
  -5   3  -2   50.49    7.60 
  -5   3  -2   41.30    7.70 
  -5   3  -2   57.39    8.40 
  -5   3  -2   64.49    9.70 
  -5   3  -2   46.40    7.40 
   5  -3   2   43.10    5.70 
   5  -3   2   39.00    6.40 
   7   2  -2    9.50    3.10 
   7   2  -2    7.50    3.50 
   7   2  -2    9.70    3.00 
  -7  -2   2    7.40    3.70 
  -7  -2   2    4.50    2.80 
  -7  -2   2   26.60   77.69 
  -7  -2   2   12.00    4.90 
  -7  -2   2    3.30    2.80 
   6   2  -2   62.39    8.20 
   6   2  -2   51.09    8.00 
   6   2  -2   53.89    9.30 
   6   2  -2   52.99    8.40 
  -6  -2   2   69.39    8.40 
  -6  -2   2   53.19   11.00 
  -6  -2   2   68.89   12.00 
  -6  -2   2   56.39    9.90 
  -6  -2   2   52.09  111.39 
  -6  -2   2   63.09   11.00 
  -6  -2   2   45.90    9.50 
  -6  -2   2   63.39   11.90 
   5   2  -2  308.47   24.30 
   5   2  -2  278.57   24.30 
   5   2  -2  276.57   23.00 
   5   2  -2  218.48   24.10 
  -5  -2   2  253.97   28.90 
  -5  -2   2  265.17   25.70 
  -5  -2   2  253.07   25.20 
  -5  -2   2  248.88   27.20 
  -5  -2   2  288.17   23.40 
  -5  -2   2  446.16  272.77 
   4   2  -2  371.06   29.80 
   4   2  -2  353.96   31.20 
  -4  -2   2  445.56   36.80 
  -4  -2   2  363.26   30.30 
   3   2  -2  122.79   12.30 
   3   2  -2  144.29   12.30 
   3   2  -2  144.19   11.70 
  -3  -2   2  151.88   13.90 
  -3  -2   2  136.39   11.70 
  -3  -2   2  137.29   12.40 
  -3  -2   2  115.69   12.40 
   2   2  -2  174.68   15.20 
   2   2  -2  192.48   15.70 
   2   2  -2  190.78   15.50 
  -2  -2   2  193.98   15.90 
  -2  -2   2  211.38   17.30 
  -2  -2   2  188.48   16.80 
   1   2  -2 1495.95  129.29 
   1   2  -2 1836.12  129.49 
   1   2  -2 1862.81  129.79 
  -1  -2   2 1794.52  130.29 
  -1  -2   2 1877.31  131.69 
  -1  -2   2 1690.23  130.19 
   0   2  -2 6957.20  541.95 
   0  -2   2 7939.01  544.45 
   0  -2   2 7439.16  543.05 
   0  -2   2 7339.07  541.65 
  -1   2  -2  149.99   14.10 
  -1   2  -2  160.88   13.60 
  -1   2  -2  159.68   14.20 
   1  -2   2  188.58   16.60 
  -2   2  -2 1487.35  111.59 
  -2   2  -2 1368.46  111.19 
  -2   2  -2 1525.75  110.49 
   2  -2   2 1475.15  113.39 
   2  -2   2 1530.15  109.79 
   2  -2   2 1504.95  111.89 
  -3   2  -2  307.77   30.10 
  -3   2  -2  373.96   29.90 
  -3   2  -2  375.96   30.80 
   3  -2   2  357.16   31.20 
   3  -2   2  375.06   28.80 
  -4   2  -2  123.79   15.40 
  -4   2  -2  112.49   13.60 
  -4   2  -2  107.69   13.00 
  -4   2  -2  106.59   15.90 
  -4   2  -2  120.19   13.00 
  -4   2  -2  108.99   13.10 
  -4   2  -2   42.20  136.69 
   4  -2   2   97.29   11.10 
  -5   2  -2  521.05  353.76 
  -5   2  -2  376.26   33.80 
  -5   2  -2  367.06   33.90 
  -5   2  -2  327.67   34.10 
  -5   2  -2  331.77   32.10 
  -5   2  -2  412.36   37.50 
   5  -2   2  387.16   29.70 
   5  -2   2  353.46   30.30 
  -6   2  -2   16.80    5.50 
  -6   2  -2   16.80    4.60 
  -6   2  -2   18.60    5.20 
  -6   2  -2   20.80    5.00 
  -6   2  -2   14.00    3.60 
   6  -2   2   14.80    2.80 
   6  -2   2   13.60    3.00 
   7   1  -2   28.70    5.30 
   7   1  -2   26.60    5.50 
   7   1  -2   30.20    5.00 
  -7  -1   2   19.10    4.90 
  -7  -1   2   24.80    5.90 
  -7  -1   2   37.70    7.80 
  -7  -1   2   14.80    4.90 
   6   1  -2  318.27   28.20 
   6   1  -2  290.47   26.80 
  -6  -1   2  356.36   33.20 
  -6  -1   2  309.17   30.70 
  -6  -1   2  318.07   32.10 
  -6  -1   2  332.57   31.40 
  -6  -1   2  334.87   31.80 
  -6  -1   2  232.68  197.88 
   5   1  -2    6.10    4.90 
   5   1  -2    2.30    2.60 
   5   1  -2    6.20    3.90 
  -5  -1   2   10.40    3.70 
  -5  -1   2   -2.90    3.00 
  -5  -1   2    3.70    3.60 
  -5  -1   2    0.90    4.50 
  -5  -1   2    3.70    4.20 
  -5  -1   2   14.10   40.70 
  -5  -1   2    6.80    5.00 
  -5  -1   2    4.20    3.70 
   4   1  -2  222.78   18.70 
   4   1  -2  170.88   19.90 
  -4  -1   2  153.58   19.10 
   3   1  -2 1829.42  135.09 
   3   1  -2 1985.70  135.39 
   3   1  -2 1841.62  134.29 
  -3  -1   2 1718.03  134.59 
  -3  -1   2 1722.43  136.09 
   2   1  -2 1842.02  130.99 
   2   1  -2 1847.52  130.49 
   2   1  -2 1658.23  130.79 
  -2  -1   2 1881.61  132.09 
  -2  -1   2 1632.74  130.59 
  -2  -1   2 1795.02  131.29 
   1   1  -2 1693.23  120.99 
   1   1  -2 1751.42  120.99 
   1   1  -2 1586.24  120.99 
   1   1  -2 1614.94  121.99 
  -1  -1   2 1555.24  121.09 
  -1  -1   2 1864.91  122.49 
  -1  -1   2 1464.45  120.79 
  -1  -1   2 1649.54  121.69 
   0   1  -2  235.08   19.50 
   0   1  -2  271.07   20.90 
   0   1  -2  263.57   19.20 
   0   1  -2  243.48   19.20 
   0  -1   2  248.48   19.20 
   0  -1   2  237.08   19.10 
   0  -1   2  262.27   20.00 
  -1   1  -2 2844.72  212.08 
  -1   1  -2 2942.21  213.88 
  -1   1  -2 2804.92  212.38 
  -1   1  -2 2656.23  212.58 
   1  -1   2 3235.38  214.08 
   1  -1   2 2890.91  212.98 
  -2   1  -2 1023.80   77.39 
  -2   1  -2 1234.58   80.99 
   2  -1   2  948.41   80.89 
   2  -1   2 1032.40   78.49 
   2  -1   2  970.90   77.09 
  -3   1  -2  124.79   12.80 
  -3   1  -2  138.79   13.40 
  -3   1  -2  137.39   12.00 
   3  -1   2  117.79   13.10 
   3  -1   2  141.79   11.90 
   3  -1   2  133.99   14.10 
  -4   1  -2  241.98   22.30 
  -4   1  -2  239.58   24.00 
  -4   1  -2  191.88   20.10 
  -4   1  -2  200.48   22.00 
  -4   1  -2  199.58   21.00 
  -4   1  -2  234.08   20.60 
   4  -1   2  168.28   20.00 
   4  -1   2  237.68   19.10 
  -5   1  -2  471.55  295.47 
  -5   1  -2  199.28   20.00 
  -5   1  -2  179.78   21.00 
  -5   1  -2  196.48   20.40 
  -5   1  -2  155.78   17.80 
  -5   1  -2  155.28   16.90 
  -5   1  -2  173.08   18.60 
   5  -1   2  163.38   16.20 
   5  -1   2  178.98   16.00 
   5  -1   2  143.79   17.80 
  -6   1  -2    2.70    2.30 
  -6   1  -2   -2.00    2.60 
  -6   1  -2    3.60   27.50 
  -6   1  -2    2.10    1.90 
  -6   1  -2    3.80    2.80 
  -6   1  -2   -1.60    2.50 
   6  -1   2    3.00    1.80 
   6  -1   2    3.90    2.60 
  -7   1  -2    2.70    2.00 
  -7   1  -2    2.40    2.10 
  -7   1  -2    1.10    1.90 
  -7   1  -2    0.30    1.60 
   7  -1   2    5.40    2.40 
   7   0  -2   24.80    4.00 
  -7   0   2   29.50    5.90 
  -7   0   2   26.30   51.89 
  -7   0   2   19.30    5.90 
   6   0  -2   54.09    7.30 
   6   0  -2   34.70    7.20 
  -6   0   2   50.79  149.79 
  -6   0   2   71.29   10.80 
  -6   0   2   58.29    9.30 
  -6   0   2   57.29   11.50 
  -6   0   2   61.59   10.10 
  -6   0   2   41.70    9.20 
   5   0  -2  148.39   14.90 
   5   0  -2  108.49   14.70 
  -5   0   2  162.38   15.00 
  -5   0   2  146.79   18.80 
  -5   0   2  158.68   18.40 
   4   0  -2  214.98   20.20 
   4   0  -2  251.07   19.90 
  -4   0   2  215.28   22.20 
  -4   0   2  262.97   20.40 
  -4   0   2  184.48   21.30 
  -4   0   2  198.48   21.30 
  -4   0   2  204.98   23.00 
  -4   0   2  175.78  233.88 
   3   0  -2 2558.84  189.98 
   3   0  -2 2619.64  189.08 
   3   0  -2 2555.74  189.08 
  -3   0   2 2578.54  191.28 
  -3   0   2 2514.15  189.58 
   2   0  -2 5605.14  428.06 
   2   0  -2 6007.90  428.76 
  -2   0   2 5957.70  429.66 
   1   0  -2  272.47   20.60 
   1   0  -2  248.38   19.20 
   1   0  -2  268.47   19.50 
  -1   0   2  222.58   19.30 
  -1   0   2  268.67   20.40 
  -1   0   2  238.68   19.10 
  -1   0  -2 2867.41  226.48 
  -1   0  -2 2813.12  225.88 
  -1   0  -2 3521.35  226.28 
   1   0   2 3115.79  225.88 
   1   0   2 3145.69  227.08 
  -2   0  -2 1632.64  119.49 
  -2   0  -2 1634.74  119.49 
  -2   0  -2 1915.91  120.49 
  -2   0  -2 1505.15  120.29 
  -2   0  -2 1541.75  120.39 
   2   0   2 1520.55  120.49 
  -3   0  -2  333.77   25.60 
  -3   0  -2  368.26   26.30 
  -3   0  -2  322.67   26.80 
  -3   0  -2  312.87   26.00 
   3   0   2  344.07   26.10 
   3   0   2  317.17   26.30 
   3   0   2  283.97   26.80 
   3   0   2  335.07   26.00 
  -4   0  -2   89.49   10.20 
   4   0   2   71.89    8.40 
   4   0   2   72.69    8.30 
   4   0   2   84.09   10.20 
  -5   0  -2  448.56   42.40 
  -5   0  -2  580.34   45.30 
  -5   0  -2  481.35   44.10 
  -5   0  -2  518.15   45.30 
  -5   0  -2  503.85   46.50 
   5   0   2  512.15   41.40 
   5   0   2  524.15   40.30 
  -6   0  -2  197.08   21.00 
  -6   0  -2  174.38   18.70 
  -6   0  -2  174.08   19.10 
  -6   0  -2  213.58   21.30 
   6   0   2  169.98   16.10 
   6   0   2  171.58   17.20 
  -7   0  -2   22.10    4.10 
  -7   0  -2   21.30    6.70 
  -7   0  -2   25.30    7.30 
  -7   0  -2   28.70    5.00 
  -7   0  -2   28.20    6.60 
   7   0   2   46.50   73.39 
   7   0   2   24.20    4.20 
   7   0   2   23.80    5.20 
   6  -1  -2    2.70    1.80 
   6  -1  -2   -3.20    2.60 
  -6   1   2  -28.10   20.60 
  -6   1   2   -0.70    1.90 
  -6   1   2    5.50    3.30 
  -6   1   2    2.40    2.70 
  -6   1   2    1.60    2.40 
   5  -1  -2  112.59   12.10 
  -5   1   2  117.39   15.00 
  -5   1   2   80.09   15.60 
  -5   1   2  139.89   17.00 
  -5   1   2  101.99   14.80 
  -5   1   2  125.59   16.90 
  -5   1   2  140.09  140.49 
  -5   1   2  127.39   13.30 
   4  -1  -2  548.05   48.10 
  -4   1   2  636.24   52.49 
  -4   1   2  630.54   52.89 
  -4   1   2  794.62  421.76 
  -4   1   2  558.34   49.60 
  -4   1   2  648.44   51.79 
  -4   1   2  583.24   50.19 
   3  -1  -2  894.71   69.09 
   3  -1  -2  775.62   70.79 
   3  -1  -2  998.60   70.49 
  -3   1   2 1051.09   71.29 
  -3   1   2  916.91   72.19 
   2  -1  -2  778.62   60.39 
   2  -1  -2  813.52   60.79 
   2  -1  -2  812.72   60.09 
  -2   1   2  759.62   60.29 
  -2   1   2  833.62   61.89 
   1  -1  -2 1380.36  101.39 
   1  -1  -2 1364.56  100.09 
  -1   1   2 1161.98  100.19 
  -1   1   2 1484.35  100.39 
  -1   1   2 1411.26  101.49 
  -1   1   2 1304.97  100.49 
  -1   1   2 1410.96  101.59 
   0  -1  -2 2647.94  185.78 
   0  -1  -2 2551.74  184.08 
   0  -1  -2 2626.94  183.98 
   0   1   2 2182.88  184.18 
   0   1   2 2697.23  185.38 
   0   1   2 2805.12  185.88 
   0   1   2 2248.48  183.98 
   0   1   2 2395.46  184.68 
   1   1   2 4805.32  345.07 
   1   1   2 4631.74  345.27 
  -2  -1  -2 5504.85  394.56 
  -2  -1  -2 4974.40  393.36 
   2   1   2 5884.31  393.86 
   2   1   2 5093.49  393.06 
   2   1   2 5714.43  393.36 
   2   1   2 5082.79  392.36 
  -3  -1  -2  655.13   51.99 
  -3  -1  -2  737.53   52.29 
   3   1   2  591.84   56.39 
   3   1   2  717.73   51.19 
   3   1   2  663.33   51.39 
   3   1   2  706.93   51.49 
  -4  -1  -2   67.39    7.80 
  -4  -1  -2   61.09    7.60 
   4   1   2   54.59    6.90 
   4   1   2   68.39    8.70 
   4   1   2   64.19    7.20 
   4   1   2   56.69    6.50 
  -5  -1  -2   81.29   11.50 
  -5  -1  -2  115.49   11.70 
  -5  -1  -2  102.99   13.00 
  -5  -1  -2   79.69   13.30 
  -5  -1  -2  117.49   14.20 
  -5  -1  -2   85.79   12.90 
  -5  -1  -2   98.39   14.50 
  -5  -1  -2  256.87  204.88 
   5   1   2   94.49   10.90 
   5   1   2  102.59   11.10 
   5   1   2  116.79   11.50 
   5   1   2   93.69   12.40 
  -6  -1  -2   47.00    7.90 
  -6  -1  -2   25.50    6.00 
  -6  -1  -2   49.50    8.20 
  -6  -1  -2   30.80   76.89 
  -6  -1  -2   34.30    9.40 
  -6  -1  -2   44.30    6.50 
  -6  -1  -2   29.80    8.40 
   6   1   2   41.90    6.90 
   6   1   2   32.20    6.30 
   6   1   2   32.60    6.40 
   6   1   2   30.10    6.60 
  -7  -1  -2    5.20    3.10 
  -7  -1  -2    0.30    3.40 
  -7  -1  -2    5.70    2.90 
  -7  -1  -2    3.80    2.90 
  -7  -1  -2    5.70    3.40 
  -7  -1  -2   13.30   45.00 
   7   1   2    3.90    2.50 
   7   1   2   10.60    2.80 
   7   1   2    2.50    2.50 
   6  -2  -2    6.70    3.40 
  -6   2   2    5.30    2.70 
  -6   2   2   11.60    3.90 
  -6   2   2   12.30    3.00 
  -6   2   2   11.90   30.60 
  -6   2   2    9.00    3.00 
   5  -2  -2   17.80    3.70 
  -5   2   2   20.30    5.70 
  -5   2   2   11.20    5.00 
  -5   2   2   10.30    4.10 
  -5   2   2   14.20    5.50 
  -5   2   2  -19.70   36.10 
   4  -2  -2   51.39    6.60 
   4  -2  -2   51.29    8.50 
  -4   2   2   52.99   11.50 
  -4   2   2   41.50    9.30 
  -4   2   2   72.19   19.20 
  -4   2   2   39.10  118.19 
  -4   2   2   56.49    9.20 
  -4   2   2   61.99    9.00 
  -4   2   2   53.99   11.30 
   3  -2  -2   58.59    9.60 
  -3   2   2   97.09   10.10 
  -3   2   2   70.59   10.90 
  -3   2   2   32.80   88.99 
  -3   2   2   84.49   11.40 
  -3   2   2   91.49   13.90 
  -3   2   2   91.29   12.10 
  -3   2   2   64.09   10.00 
   2  -2  -2   53.69    6.60 
   2  -2  -2   61.59    7.90 
  -2   2   2   57.69    6.80 
  -2   2   2   52.99    6.60 
  -2   2   2   60.99    8.00 
   1  -2  -2  397.16   30.20 
   1  -2  -2  379.66   32.20 
  -1   2   2  342.57   30.20 
  -1   2   2  407.46   31.90 
  -1   2   2  415.96   30.60 
  -1   2   2  420.96   31.60 
   0  -2  -2  623.04   47.90 
   0  -2  -2  639.94   48.00 
   0   2   2  721.03   50.99 
   0   2   2  679.53   49.70 
   0   2   2  623.94   49.30 
   0   2   2  627.64   48.30 
   0   2   2  612.94   48.40 
  -1  -2  -2 3814.72  291.97 
  -1  -2  -2 3480.85  290.67 
   1   2   2 4132.19  290.97 
   1   2   2 3925.41  291.97 
   1   2   2 4564.34  297.37 
  -3  -2  -2  230.48   22.70 
  -3  -2  -2  249.38   22.30 
  -3  -2  -2  225.28   19.50 
   3   2   2  251.97   18.70 
   3   2   2  243.28   22.00 
   3   2   2  260.77   20.60 
   3   2   2  240.18   19.80 
   3   2   2  247.08   19.00 
  -4  -2  -2  174.58   16.00 
  -4  -2  -2  195.88   17.60 
   4   2   2  184.88   15.60 
   4   2   2  180.68   15.10 
   4   2   2  191.08   16.40 
   4   2   2  184.28   17.00 
  -5  -2  -2  400.76   31.10 
  -5  -2  -2  321.87   35.50 
  -5  -2  -2  382.86   32.30 
  -5  -2  -2  412.16   35.80 
   5   2   2  348.87   29.80 
   5   2   2  372.66   31.60 
   5   2   2  414.16   32.30 
   5   2   2  343.07   30.80 
  -6  -2  -2  142.99   22.70 
  -6  -2  -2  141.99   18.40 
  -6  -2  -2  106.99   18.40 
  -6  -2  -2  128.39   16.60 
  -6  -2  -2  216.18  191.78 
  -6  -2  -2  149.49   19.60 
  -6  -2  -2  174.98   15.10 
   6   2   2  136.59   15.50 
   6   2   2  172.18   16.10 
   6   2   2  159.18   14.10 
   6   2   2  131.99   14.70 
  -7  -2  -2   11.00    4.70 
  -7  -2  -2    8.70    4.10 
  -7  -2  -2    4.20    3.20 
  -7  -2  -2    9.00    4.30 
  -7  -2  -2   10.00    3.90 
  -7  -2  -2   -4.60   65.29 
   7   2   2   14.00    3.40 
   7   2   2   14.50    3.50 
  -8  -2  -2    9.60    3.70 
   8   2   2  -38.30   33.50 
  -5   3   2   25.30    6.00 
  -5   3   2   17.20    4.60 
  -5   3   2   26.60    4.70 
   4  -3  -2   60.39    6.60 
  -4   3   2  -21.30   70.39 
  -4   3   2   72.19   15.90 
  -4   3   2   42.80   10.40 
  -4   3   2   65.99   11.00 
  -4   3   2   43.70   13.40 
  -3   3   2  280.87   27.60 
  -3   3   2  129.69  142.49 
  -3   3   2  224.18   23.80 
  -3   3   2  265.87   23.00 
  -3   3   2  269.27   26.20 
  -3   3   2  221.88   24.40 
   2  -3  -2   87.39   10.00 
   2  -3  -2   78.99    9.00 
   2  -3  -2   67.99   11.40 
  -2   3   2   90.29    9.10 
  -2   3   2   82.19    9.30 
  -2   3   2   63.99   10.40 
   1  -3  -2  669.93   55.49 
  -1   3   2  705.93   53.69 
  -1   3   2  719.33   54.19 
  -1   3   2  676.83   52.49 
  -1   3   2  640.14   51.69 
   0  -3  -2  218.98   20.40 
   0   3   2  190.68   16.20 
   0   3   2  203.78   17.20 
   0   3   2  216.48   18.80 
  -1  -3  -2  209.58   19.30 
   1   3   2  194.68   17.70 
   1   3   2  194.78   16.20 
  -2  -3  -2   -0.90    2.10 
  -2  -3  -2    1.10    1.10 
   2   3   2    6.90    2.50 
   2   3   2    2.40    2.60 
   2   3   2    3.90    1.60 
  -3  -3  -2  427.56   35.20 
  -3  -3  -2  408.56   35.20 
  -3  -3  -2  460.55   35.10 
   3   3   2  448.66   33.60 
   3   3   2  400.86   34.00 
  -4  -3  -2 1076.09   91.09 
  -4  -3  -2 1299.27   94.39 
  -4  -3  -2 1244.28   92.99 
   4   3   2 1208.18   92.19 
   4   3   2 1242.48   90.59 
   4   3   2 1289.77   92.59 
  -5  -3  -2   65.69   12.30 
  -5  -3  -2   68.39   11.80 
  -5  -3  -2   59.49    9.70 
  -5  -3  -2    7.60   34.20 
  -5  -3  -2   61.79    7.50 
   5   3   2   74.49    9.30 
   5   3   2   56.39    7.00 
  -6  -3  -2  221.08   25.10 
  -6  -3  -2  251.87   25.30 
  -6  -3  -2  295.67   30.30 
  -6  -3  -2   47.10  158.58 
  -6  -3  -2  263.07   31.80 
   6   3   2  301.57   24.70 
   6   3   2  267.17   25.00 
   6   3   2  271.77   22.20 
  -7  -3  -2    1.60    3.10 
  -7  -3  -2    5.50    4.10 
  -7  -3  -2    4.80    4.30 
  -7  -3  -2   -1.40    2.30 
   7   3   2    1.70   28.10 
   7   3   2    2.20    2.10 
   7   3   2    4.10    2.70 
  -8  -3  -2    3.10    2.40 
   8   3   2  -12.30   37.50 
  -4   4   2   14.50    4.40 
  -4   4   2    2.90    2.90 
  -4   4   2    8.10    2.50 
  -4   4   2    2.30    2.70 
  -3   4   2   55.99   10.80 
  -3   4   2   43.20   10.80 
  -3   4   2   50.99    9.00 
  -3   4   2   61.69   16.60 
  -3   4   2   41.70    6.80 
   2  -4  -2  107.69   13.20 
  -2   4   2   78.09   11.70 
  -2   4   2  108.89   11.90 
  -2   4   2  123.59   14.80 
  -2   4   2  110.99   11.50 
  -2   4   2  109.49   16.80 
  -2   4   2  106.39   11.90 
  -2   4   2   84.19   13.10 
   1  -4  -2  183.08   17.10 
  -1   4   2  139.09   16.90 
  -1   4   2  127.79   14.10 
  -1   4   2  156.48   17.10 
  -1   4   2  154.28   14.90 
  -1   4   2  139.99   14.30 
  -1   4   2  138.49   16.40 
  -1   4   2  162.68   14.90 
   0  -4  -2  104.69   10.50 
   0  -4  -2  123.29   15.30 
   0  -4  -2  108.49   12.30 
   0   4   2  110.59   11.00 
   0   4   2  121.59   13.20 
  -1  -4  -2  474.95   40.40 
  -1  -4  -2  459.45   37.60 
  -1  -4  -2  443.96   34.10 
   1   4   2  434.56   35.60 
   1   4   2  449.56   37.80 
  -2  -4  -2   76.69   10.20 
  -2  -4  -2   93.29   11.70 
  -2  -4  -2   77.39    9.60 
   2   4   2   68.99    9.40 
   2   4   2   83.29    8.50 
  -3  -4  -2 1295.17  103.39 
  -3  -4  -2 1288.37  104.89 
  -3  -4  -2 1551.64  102.89 
   3   4   2 1295.07  102.69 
   3   4   2 1328.97  101.29 
  -4  -4  -2    8.60    6.00 
  -4  -4  -2    7.90    4.20 
  -4  -4  -2    7.70    3.30 
   4   4   2   14.50    3.90 
   4   4   2    7.10    3.10 
  -5  -4  -2  210.18   23.30 
  -5  -4  -2  175.88   19.40 
  -5  -4  -2  163.88   21.00 
   5   4   2  201.88   18.50 
   5   4   2  185.78   18.10 
   5   4   2  194.28   17.90 
   5   4   2   39.80  172.48 
  -6  -4  -2  280.47   30.20 
  -6  -4  -2  301.37   32.00 
  -6  -4  -2  255.27   27.10 
   6   4   2  297.67   26.00 
   6   4   2  314.67   26.60 
   6   4   2  307.97   26.10 
  -7  -4  -2    6.10    3.20 
  -7  -4  -2    4.00    3.40 
   7   4   2    9.50    3.40 
   7   4   2   -7.90   45.30 
  -8  -4  -2   47.90    7.90 
  -8  -4  -2   50.39    8.20 
   8   4   2    5.60   48.60 
  -3   5   2    4.90    2.90 
  -3   5   2    6.30    2.40 
  -2   5   2  159.68   14.60 
  -2   5   2  138.29   16.30 
  -2   5   2  142.09   14.50 
  -2   5   2  145.09   14.40 
   1  -5  -2  545.55   46.10 
  -1   5   2  529.55   46.60 
  -1   5   2  526.75   43.60 
  -1   5   2  550.94   44.10 
  -1   5   2  583.54   44.30 
  -1   5   2  505.35   43.10 
  -1   5   2  536.55   46.30 
  -1   5   2  527.35   47.40 
   0  -5  -2   -5.70    9.20 
   0  -5  -2    4.90    1.60 
   0   5   2    7.10    3.50 
   0   5   2    5.20    2.70 
   0   5   2    6.50    3.60 
   0   5   2    2.50    3.40 
   0   5   2   11.20    5.40 
   0   5   2    1.40    2.30 
   0   5   2   12.30    5.20 
   0   5   2    8.70    3.90 
  -1  -5  -2  595.64   46.90 
   1   5   2  541.15   46.50 
   1   5   2  534.45   47.90 
   1   5   2  542.75   45.10 
   1   5   2  584.64   44.60 
   1   5   2  492.35   46.40 
   1   5   2  573.04   44.10 
   1   5   2  545.15   44.50 
   1   5   2  500.65   47.40 
  -2  -5  -2  283.77   25.50 
  -2  -5  -2  275.37   22.00 
   2   5   2  231.38   25.10 
   2   5   2  246.28   22.90 
   2   5   2  245.28   23.20 
   2   5   2  262.07   24.60 
   2   5   2  281.17   23.70 
   2   5   2  217.88   25.00 
   2   5   2  257.07   22.50 
  -3  -5  -2  257.67   26.00 
  -3  -5  -2  315.27   25.40 
   3   5   2  261.87   24.40 
   3   5   2  267.47   27.00 
   3   5   2  277.87   24.10 
   3   5   2  267.67   25.60 
   3   5   2  313.57   26.20 
   3   5   2  248.38   26.50 
   3   5   2  287.27   24.40 
  -4  -5  -2  130.59   15.80 
  -4  -5  -2  123.49   18.80 
  -4  -5  -2  144.49   13.80 
  -4  -5  -2  156.88   16.50 
   4   5   2  119.29   14.50 
   4   5   2  130.59   14.60 
   4   5   2  110.49   14.60 
   4   5   2  137.79   13.90 
   4   5   2  121.19   13.60 
   4   5   2  150.18   13.60 
   4   5   2  136.99   14.50 
  -5  -5  -2  228.18   18.70 
  -5  -5  -2  219.08   26.00 
  -5  -5  -2  203.88   21.50 
   5   5   2  201.58   20.20 
   5   5   2  197.28   20.20 
   5   5   2  194.18   21.10 
   5   5   2  200.58   19.20 
   5   5   2  184.48   18.90 
   5   5   2  200.28   19.10 
  -6  -5  -2  110.49   16.90 
  -6  -5  -2  116.99   17.80 
   6   5   2  124.29   14.00 
   6   5   2  144.79   14.40 
   6   5   2  154.08   15.30 
  -7  -5  -2   13.50    5.80 
  -7  -5  -2   21.00    5.70 
   7   5   2   15.60    3.90 
   7   5   2   13.80    4.20 
   7   5   2    3.90   49.00 
  -8  -5  -2    1.60    1.60 
   8   5   2    1.80    1.50 
  -2   6   2   18.90    4.20 
  -2   6   2   22.70    3.60 
   1  -6  -2    7.30    2.10 
  -1   6   2    6.50    3.00 
  -1   6   2    8.80    4.00 
  -1   6   2    7.00    3.10 
  -1   6   2    2.70    3.00 
   0  -6  -2  367.66   33.20 
   0   6   2  502.45   36.50 
   0   6   2  451.35   36.40 
   0   6   2  438.46   39.10 
   0   6   2  430.46   37.70 
   0   6   2  390.76   39.50 
  -1  -6  -2  299.17   28.10 
  -1  -6  -2  253.97   22.80 
   1   6   2  296.67   26.20 
   1   6   2  220.58   27.40 
   1   6   2  277.77   25.10 
   1   6   2  263.17   26.10 
   1   6   2  296.67   25.10 
   1   6   2  263.27   28.50 
   1   6   2  283.27   25.30 
  -2  -6  -2  672.43   53.99 
  -2  -6  -2  632.94   50.59 
   2   6   2  662.13   51.49 
   2   6   2  626.24   55.79 
   2   6   2  670.53   52.19 
   2   6   2  651.73   54.09 
   2   6   2  718.73   53.09 
   2   6   2  563.74   54.99 
   2   6   2  542.15   53.79 
   2   6   2  611.54   51.99 
  -3  -6  -2  483.75   44.60 
  -3  -6  -2  488.45   46.50 
   3   6   2  598.64   45.10 
   3   6   2  539.45   46.60 
   3   6   2  529.35   44.90 
   3   6   2  530.75   48.30 
   3   6   2  562.04   48.80 
   3   6   2  535.55   44.60 
   3   6   2  624.04   46.60 
  -4  -6  -2   79.49   10.40 
  -4  -6  -2   75.29   14.00 
  -4  -6  -2   71.99   11.70 
  -4  -6  -2   58.39   10.80 
   4   6   2   75.99   10.90 
   4   6   2   83.99    9.70 
   4   6   2   70.29   11.60 
   4   6   2   70.29    9.80 
   4   6   2   90.79   10.40 
   4   6   2   61.09   11.00 
   4   6   2   71.89    9.80 
   4   6   2   71.39   11.30 
  -5  -6  -2  173.08   18.90 
  -5  -6  -2  155.18   21.30 
  -5  -6  -2  184.58   16.30 
  -5  -6  -2  128.99   20.40 
   5   6   2  166.48   19.70 
   5   6   2  165.78   17.60 
   5   6   2  181.48   18.00 
   5   6   2  195.78   18.90 
   5   6   2  193.98   17.20 
   5   6   2  152.68   16.80 
  -6  -6  -2   20.10    6.60 
  -6  -6  -2   29.90    8.90 
   6   6   2   21.80    5.30 
  -7  -6  -2    4.90    4.00 
  -7  -6  -2    9.00    3.90 
   7   6   2   21.40    4.90 
   7   6   2    9.40    3.50 
  -1   7   2   62.49    7.00 
  -1   7   2   77.99    7.50 
   0  -7  -2    1.60    1.70 
   0   7   2    1.70    3.70 
   0   7   2   -1.70    2.30 
   0   7   2    2.60    2.00 
   0   7   2    6.60    2.70 
   0   7   2    2.80    2.20 
  -1  -7  -2   11.90    3.20 
   1   7   2   15.90    4.50 
   1   7   2   13.60    4.00 
   1   7   2   14.60    5.40 
   1   7   2   11.60    5.20 
   1   7   2    8.70    3.30 
  -2  -7  -2  112.39   11.60 
  -2  -7  -2   94.99   11.90 
   2   7   2  117.49   13.00 
   2   7   2  133.19   14.10 
   2   7   2  115.49   15.60 
  -3  -7  -2   32.40   10.10 
  -3  -7  -2   42.00    7.00 
   3   7   2   21.30    6.60 
   3   7   2   42.60    7.00 
   3   7   2   24.00    6.00 
   3   7   2   28.70    6.30 
   3   7   2   25.20    7.00 
  -4  -7  -2   16.90    7.40 
  -4  -7  -2   10.60    4.50 
   4   7   2   25.30    5.60 
   4   7   2   28.00    6.20 
   4   7   2   17.80    5.80 
   4   7   2   18.00    5.80 
  -5  -7  -2    8.80    3.50 
  -5  -7  -2    3.20    3.90 
   5   7   2    6.30    2.80 
   5   7   2    2.70    3.10 
   5   7   2    7.00    3.60 
   5   7   2    5.10    2.40 
   5   7   2    7.70    2.80 
   5   7   2   -1.30    3.60 
  -6  -7  -2    1.80    3.30 
  -6  -7  -2    8.20    4.50 
   6   7   2    8.50    3.80 
   6   7   2   10.40    3.10 
   6   7   2    9.90    3.40 
  -7  -7  -2    6.20    2.80 
   7   7   2    7.90    2.80 
   7   7   2   10.40    2.50 
  -2  -8  -2   53.79    6.20 
   2   8   2   43.20    6.20 
   2   8   2   43.90    6.20 
   2   8   2   34.80    7.90 
  -3  -8  -2    0.50    3.10 
  -3  -8  -2    3.70    2.10 
   3   8   2    1.90    2.00 
   3   8   2   -0.90    1.50 
   3   8   2    0.10    3.70 
   3   8   2    0.60    1.90 
   3   8   2    1.10    1.40 
  -4  -8  -2   10.60    4.60 
  -4  -8  -2   13.90    4.00 
   4   8   2   15.70    3.60 
   4   8   2   18.50    4.60 
   4   8   2   20.50    5.70 
   4   8   2   15.10    3.30 
   4   8   2   11.60    3.70 
  -5  -8  -2   52.59    7.50 
  -5  -8  -2   77.99    6.90 
   5   8   2   62.69    7.40 
   5   8   2   48.50    6.60 
   5   8   2   76.49    9.10 
   4   8  -3   14.50    3.80 
  -4  -8   3    7.70    3.20 
   3   8  -3    4.40    2.20 
   3   8  -3    3.60    2.50 
   3   8  -3    5.50    2.00 
  -3  -8   3    8.90    2.40 
  -3  -8   3    3.70    2.80 
   6   7  -3    0.90    1.30 
  -6  -7   3    1.40    2.00 
   5   7  -3    3.70    2.50 
   5   7  -3    8.00    2.80 
  -5  -7   3   -1.10    2.30 
  -5  -7   3    3.40    2.30 
   4   7  -3    6.00    3.30 
   4   7  -3    3.10    2.10 
   4   7  -3    0.20    1.70 
   4   7  -3    4.40    3.10 
  -4  -7   3    2.30    3.70 
  -4  -7   3   -1.10    1.90 
  -4  -7   3    0.50    2.70 
   3   7  -3   16.60    5.00 
   3   7  -3    9.40    4.20 
   3   7  -3    6.80    2.70 
   3   7  -3   19.70    5.70 
   3   7  -3    6.70    3.20 
  -3  -7   3   15.20    5.80 
  -3  -7   3   13.10    3.70 
   2   7  -3   23.50    5.90 
   2   7  -3   22.50    6.30 
   2   7  -3   21.90    4.50 
   2   7  -3   19.10    5.60 
   2   7  -3   20.20    4.60 
  -2  -7   3   21.20    4.20 
  -2  -7   3   14.80    4.00 
  -2  -7   3   25.10    5.20 
   1   7  -3    3.50    2.00 
   1   7  -3    0.00    2.10 
   1   7  -3    3.00    2.30 
   1   7  -3    1.60    1.90 
   1   7  -3   -0.60    2.40 
  -1  -7   3    3.50    2.50 
  -1  -7   3   -0.40    2.40 
  -1  -7   3   -0.10    2.00 
   0   7  -3   59.39    8.60 
   0   7  -3   59.69    7.40 
   0   7  -3   57.39    7.60 
   0   7  -3   59.89    9.00 
   0  -7   3   77.79    8.20 
   7   6  -3    1.40    2.00 
  -7  -6   3    2.30    2.20 
   6   6  -3    8.50    2.40 
   6   6  -3    3.00    2.50 
   6   6  -3    7.50    3.60 
  -6  -6   3    5.90    2.60 
  -6  -6   3    5.20    4.00 
   5   6  -3   97.49   12.10 
   5   6  -3   92.19   12.00 
  -5  -6   3   97.29   15.10 
  -5  -6   3   82.89   11.00 
   4   6  -3   68.19   10.40 
   4   6  -3   57.99   10.70 
  -4  -6   3   92.59   15.20 
  -4  -6   3   70.59    8.60 
  -4  -6   3   67.69    9.60 
   3   6  -3   11.70    3.70 
   3   6  -3   25.70    7.00 
   3   6  -3   19.50    4.60 
   3   6  -3    6.40    4.50 
   3   6  -3   18.00    4.50 
   3   6  -3   16.60    5.10 
   3   6  -3   14.20    5.20 
  -3  -6   3   11.80    4.00 
  -3  -6   3   22.70    5.10 
  -3  -6   3    0.20   10.80 
  -3  -6   3   22.60    5.50 
   2   6  -3   58.29   10.50 
   2   6  -3   46.40    7.70 
   2   6  -3   69.39   10.80 
   2   6  -3   50.59   10.00 
   2   6  -3   50.19    8.20 
   2   6  -3   64.69    8.60 
  -2  -6   3   59.59    9.50 
  -2  -6   3   63.59    8.90 
  -2  -6   3   77.29    8.30 
   1   6  -3  466.45   46.50 
   1   6  -3  522.45   45.90 
   1   6  -3  454.65   45.30 
   1   6  -3  597.44   48.00 
   1   6  -3  521.55   41.90 
   1   6  -3  479.25   42.70 
   1   6  -3  531.95   43.40 
  -1  -6   3  600.44   49.30 
  -1  -6   3  533.45   42.50 
   0   6  -3   13.20    4.50 
   0   6  -3    9.00    5.30 
   0   6  -3    7.50    4.90 
   0   6  -3   13.00    5.10 
   0   6  -3   23.00    7.50 
   0  -6   3   16.70    3.50 
   0  -6   3   15.20    4.00 
  -1   6  -3   55.99    8.00 
  -1   6  -3   65.89    8.40 
  -1   6  -3   41.10    9.50 
  -1   6  -3   54.29    7.40 
  -1   6  -3   60.59    9.80 
   1  -6   3   59.69    6.60 
  -2   6  -3    2.70    1.30 
  -2   6  -3    2.30    1.90 
  -2   6  -3    2.50    2.50 
  -2   6  -3    2.60    2.50 
  -2   6  -3    3.00    1.80 
   2  -6   3   -3.20    2.40 
   7   5  -3    9.00    3.20 
   7   5  -3   10.30    2.70 
  -7  -5   3   10.00    4.00 
  -7  -5   3    6.00    2.90 
   6   5  -3   40.50    8.30 
   6   5  -3   54.39    7.70 
  -6  -5   3   47.20   10.60 
  -6  -5   3   44.10    7.80 
   5   5  -3   11.80    5.30 
   5   5  -3   18.80    4.30 
  -5  -5   3   12.50    5.30 
  -5  -5   3   44.20   11.30 
  -5  -5   3   15.40    5.00 
   4   5  -3  131.49   16.30 
   4   5  -3  197.58   24.70 
   4   5  -3  188.58   20.00 
   4   5  -3  150.38   15.90 
  -4  -5   3  154.68   22.50 
  -4  -5   3  166.28   17.70 
  -4  -5   3  145.09   20.30 
   3   5  -3   94.59   13.00 
   3   5  -3  104.89   11.40 
   3   5  -3   82.59   14.30 
   3   5  -3   94.69   12.40 
   3   5  -3  121.69   14.10 
   3   5  -3  108.49   12.00 
  -3  -5   3  102.69   10.50 
  -3  -5   3   90.19   13.10 
  -3  -5   3  108.79   12.20 
  -3  -5   3  108.79   12.30 
  -3  -5   3   98.89   11.70 
   2   5  -3  177.18   15.90 
   2   5  -3  152.18   19.40 
   2   5  -3  166.08   17.00 
   2   5  -3  144.29   19.30 
   2   5  -3  150.08   15.80 
   2   5  -3  148.39   16.30 
   2   5  -3  180.88   19.30 
   2   5  -3  159.68   16.80 
  -2  -5   3  180.78   17.10 
  -2  -5   3  193.98   18.80 
  -2  -5   3  179.18   14.80 
  -2  -5   3  180.18   16.40 
   1   5  -3   -0.40    3.40 
   1   5  -3    7.50    3.10 
   1   5  -3    6.00    2.60 
   1   5  -3    6.40    2.90 
   1   5  -3    2.70    3.10 
   1   5  -3    3.30    2.80 
   1   5  -3    2.10    3.10 
  -1  -5   3    1.00    2.50 
  -1  -5   3    0.90    9.40 
   0   5  -3  151.38   19.10 
   0   5  -3  165.38   18.10 
   0   5  -3  155.48   16.20 
   0   5  -3  153.38   16.70 
   0   5  -3  165.08   15.70 
   0   5  -3  154.38   16.90 
   0   5  -3  139.29   15.80 
   0   5  -3  167.98   18.60 
   0  -5   3  167.98   17.90 
   0  -5   3  153.18   14.70 
  -1   5  -3  406.76   35.40 
  -1   5  -3  424.96   39.10 
  -1   5  -3  350.36   37.30 
  -1   5  -3  358.06   36.70 
  -1   5  -3  460.15   34.40 
  -1   5  -3  378.86   35.00 
  -1   5  -3  389.56   35.40 
   1  -5   3  409.26   33.40 
   1  -5   3  433.16   39.30 
  -2   5  -3   24.80    7.50 
  -2   5  -3   23.20    5.10 
  -2   5  -3   23.10    5.50 
  -2   5  -3   30.20    6.80 
  -2   5  -3   14.40    4.20 
  -2   5  -3   19.20    5.70 
   2  -5   3   23.80    4.00 
   2  -5   3   31.20    4.90 
  -3   5  -3    2.10    1.60 
  -3   5  -3    3.30    2.40 
  -3   5  -3    4.50    2.40 
  -3   5  -3    1.60    2.40 
  -3   5  -3    2.20    2.10 
   3  -5   3    3.20    1.70 
   3  -5   3    0.50    2.20 
   7   4  -3  -15.50   18.20 
   7   4  -3    4.60    3.70 
   7   4  -3    3.00    2.70 
  -7  -4   3    6.70    2.90 
  -7  -4   3    4.20    2.70 
   6   4  -3  230.88   18.40 
   6   4  -3  193.28   25.00 
  -6  -4   3  217.58   25.70 
  -6  -4   3  250.47   29.20 
   5   4  -3  127.99   23.20 
   5   4  -3  144.69   13.40 
   5   4  -3  131.19   15.70 
   5   4  -3  185.08   17.90 
   5   4  -3  157.98   14.90 
  -5  -4   3  124.69   16.30 
  -5  -4   3  191.78   21.90 
  -5  -4   3  138.49   16.60 
   4   4  -3  127.99   12.70 
   4   4  -3  130.99   12.50 
   4   4  -3  103.09   14.90 
   4   4  -3  147.69   15.80 
  -4  -4   3  140.09   18.80 
  -4  -4   3  118.29   14.40 
  -4  -4   3  105.49   13.30 
   3   4  -3  108.19   13.50 
   3   4  -3  118.59   11.90 
   3   4  -3  111.09   14.40 
   3   4  -3  108.49   14.50 
   3   4  -3  115.59   11.90 
  -3  -4   3  127.39   13.20 
  -3  -4   3  116.09   13.30 
  -3  -4   3   94.09   10.50 
  -3  -4   3  122.59   13.10 
  -3  -4   3  119.79   12.50 
  -3  -4   3   93.19   15.00 
   2   4  -3  118.79   10.70 
   2   4  -3  106.19   11.30 
  -2  -4   3  101.59   11.50 
  -2  -4   3  128.39   11.40 
  -2  -4   3  108.99   12.60 
  -2  -4   3   85.39   13.80 
   1   4  -3  225.98   20.40 
   1   4  -3  225.48   19.50 
  -1  -4   3  212.48   19.40 
  -1  -4   3  237.78   21.70 
  -1  -4   3  229.38   19.00 
  -1  -4   3  233.88   25.40 
   0   4  -3  263.17   27.60 
   0   4  -3  232.78   21.50 
   0   4  -3  216.48   20.20 
   0   4  -3  215.88   28.50 
   0  -4   3  221.58   27.00 
   0  -4   3  254.27   20.00 
   0  -4   3  257.37   23.20 
  -1   4  -3  852.01   59.39 
  -1   4  -3  839.32   63.19 
  -1   4  -3  693.13   60.49 
  -1   4  -3  760.92   60.59 
  -1   4  -3  682.73   59.29 
  -1   4  -3  656.93   57.69 
  -1   4  -3  778.02   64.29 
   1  -4   3  700.53   60.49 
   1  -4   3  789.72   57.39 
  -2   4  -3  404.96   35.10 
  -2   4  -3  320.77   30.50 
  -2   4  -3  367.56   32.80 
  -2   4  -3  256.77   38.60 
  -2   4  -3  314.07   36.70 
  -2   4  -3  356.26   33.30 
   2  -4   3  363.96   28.80 
   2  -4   3  352.86   32.50 
  -3   4  -3   89.39   13.80 
  -3   4  -3   87.09   11.70 
  -3   4  -3   95.19   12.80 
  -3   4  -3  115.89   12.40 
  -3   4  -3   81.39   11.80 
   3  -4   3   84.49    9.50 
  -4   4  -3   24.00    5.40 
  -4   4  -3   32.60    6.10 
  -4   4  -3   24.20    5.50 
  -4   4  -3   38.30    7.10 
   4  -4   3   33.70    4.60 
   4  -4   3   26.50    5.20 
   7   3  -3    9.10    3.50 
   7   3  -3   12.70    3.30 
   7   3  -3    8.20    2.50 
  -7  -3   3    8.60   34.40 
  -7  -3   3    8.40    3.20 
  -7  -3   3    3.70    3.50 
  -7  -3   3    9.10    3.60 
   6   3  -3   63.69    9.30 
  -6  -3   3   67.39   11.20 
  -6  -3   3   74.39   12.30 
  -6  -3   3   37.50   11.20 
  -6  -3   3   61.89   10.40 
   5   3  -3   39.50    7.60 
   5   3  -3   44.40    7.00 
   5   3  -3   42.30    9.10 
  -5  -3   3   38.20    9.10 
  -5  -3   3   13.10   83.79 
  -5  -3   3   37.70    8.10 
  -5  -3   3   69.09   11.50 
  -5  -3   3   52.79   10.50 
   4   3  -3  100.09   10.80 
   4   3  -3   81.49   10.70 
   4   3  -3  103.69   12.90 
   4   3  -3  103.59   10.60 
   4   3  -3  112.39   11.70 
   4   3  -3  105.09   10.30 
  -4  -3   3  105.99   16.00 
  -4  -3   3  108.39   14.00 
  -4  -3   3   99.99   12.60 
   3   3  -3  397.46   33.80 
   3   3  -3  427.96   34.10 
   3   3  -3  416.96   34.60 
  -3  -3   3  421.96   34.00 
  -3  -3   3  433.16   36.90 
  -3  -3   3  481.05   36.60 
   2   3  -3  423.16   33.30 
   2   3  -3  418.66   33.00 
  -2  -3   3  458.85   33.10 
  -2  -3   3  419.36   34.10 
  -2  -3   3  378.76   33.40 
  -2  -3   3  404.16   35.80 
   1   3  -3  577.04   44.00 
   1   3  -3  592.84   44.40 
  -1  -3   3  478.25   50.19 
  -1  -3   3  561.04   44.30 
  -1  -3   3  564.74   45.30 
  -1  -3   3  639.04   43.70 
   0   3  -3 3308.27  254.67 
   0   3  -3 3342.27  255.27 
   0  -3   3 3468.45  258.77 
   0  -3   3 3367.76  254.57 
   0  -3   3 3473.75  256.57 
   0  -3   3 3807.52  254.17 
  -1   3  -3  991.70   74.79 
  -1   3  -3  908.51   75.09 
  -1   3  -3  934.11   75.59 
   1  -3   3  920.11   78.79 
   1  -3   3 1089.09   74.19 
   1  -3   3 1077.99   77.39 
  -2   3  -3  273.57   24.10 
  -2   3  -3  241.58   24.20 
  -2   3  -3  238.38   25.40 
  -2   3  -3  301.17   26.70 
  -2   3  -3  301.67   24.80 
  -2   3  -3  243.98   26.70 
  -2   3  -3  277.07   26.00 
   2  -3   3  307.47   23.00 
   2  -3   3  287.37   25.90 
   2  -3   3  254.27   28.40 
  -3   3  -3  449.95   39.70 
  -3   3  -3  424.66   38.30 
  -3   3  -3  458.65   37.60 
  -3   3  -3  461.75   38.60 
  -3   3  -3  377.56   37.00 
  -3   3  -3  431.16   37.20 
  -3   3  -3  432.46   41.10 
  -3   3  -3  456.45   39.40 
   3  -3   3  417.26   35.30 
   3  -3   3  495.45   41.70 
  -4   3  -3  111.49   12.80 
  -4   3  -3  111.69   14.40 
  -4   3  -3  107.79   13.50 
  -4   3  -3  116.59   14.30 
  -4   3  -3   92.89   15.10 
  -4   3  -3   88.39   11.90 
   4  -3   3  106.59   10.90 
  -5   3  -3    8.90    3.80 
  -5   3  -3   11.40    3.90 
  -5   3  -3   18.20    4.40 
  -5   3  -3    2.00    3.30 
  -5   3  -3   17.10    5.40 
   5  -3   3   16.00    3.00 
   5  -3   3   10.30    2.70 
   7   2  -3    7.70    2.70 
   7   2  -3   15.30    5.10 
  -7  -2   3    6.50    3.20 
  -7  -2   3    7.00    3.00 
  -7  -2   3    7.30    3.10 
  -7  -2   3   23.40   54.29 
  -7  -2   3    3.60    2.40 
   6   2  -3   58.39    8.60 
   6   2  -3   75.09    8.80 
   6   2  -3   47.60    9.80 
  -6  -2   3   57.79    9.90 
  -6  -2   3   62.19   10.30 
  -6  -2   3   67.39   11.60 
  -6  -2   3   70.89   11.50 
  -6  -2   3   68.69   13.00 
  -6  -2   3   66.99  128.39 
   5   2  -3  187.98   16.70 
   5   2  -3  192.58   18.20 
   5   2  -3  217.28   20.00 
   5   2  -3  198.78   17.50 
  -5  -2   3  172.98   21.60 
  -5  -2   3  468.55  271.77 
  -5  -2   3  175.68   20.80 
  -5  -2   3  171.58   19.10 
  -5  -2   3  155.68   19.10 
  -5  -2   3  145.99   19.10 
   4   2  -3  242.48   22.00 
   4   2  -3  254.97   20.80 
   4   2  -3  252.27   21.30 
  -4  -2   3  234.88   23.60 
   3   2  -3  537.05   41.90 
   3   2  -3  529.75   42.80 
   3   2  -3  561.34   41.70 
   3   2  -3  560.34   42.00 
  -3  -2   3  580.74   44.40 
  -3  -2   3  492.75   42.60 
   2   2  -3  746.83   65.19 
   2   2  -3  798.12   64.69 
   2   2  -3  870.11   64.79 
  -2  -2   3  855.51   64.99 
  -2  -2   3  986.70   67.79 
  -2  -2   3  929.51   66.49 
   1   2  -3 1373.86   98.89 
   1   2  -3 1392.66   98.89 
   1   2  -3 1139.69   98.89 
  -1  -2   3 1323.97   99.69 
  -1  -2   3 1346.57   99.49 
  -1  -2   3 1428.06  101.79 
   0   2  -3  163.78   13.40 
   0   2  -3  137.89   13.30 
   0   2  -3  160.18   13.20 
   0  -2   3  166.18   14.60 
   0  -2   3  150.78   12.70 
   0  -2   3  166.88   16.00 
  -1   2  -3 1210.48   93.69 
  -1   2  -3 1116.59   92.19 
  -1   2  -3 1181.88   92.89 
   1  -2   3 1255.97   93.99 
   1  -2   3 1410.86   92.09 
   1  -2   3 1262.87   95.79 
  -2   2  -3   89.49    8.60 
  -2   2  -3   77.59    9.20 
  -2   2  -3   79.19    9.40 
   2  -2   3   90.19    8.40 
   2  -2   3   73.99   16.30 
   2  -2   3   95.59   10.80 
  -3   2  -3  115.59   13.50 
  -3   2  -3  112.49   13.00 
  -3   2  -3  116.09   12.30 
  -3   2  -3   83.99   12.90 
  -3   2  -3   90.49   11.50 
  -3   2  -3  111.29   12.20 
   3  -2   3   84.59   17.30 
   3  -2   3   98.19   13.30 
   3  -2   3  111.09   10.40 
  -4   2  -3  263.47   23.20 
  -4   2  -3  248.58   23.20 
  -4   2  -3  188.68   24.80 
  -4   2  -3  242.88   24.20 
  -4   2  -3  223.58   22.40 
  -4   2  -3  221.18   24.70 
  -4   2  -3  263.87   25.00 
   4  -2   3  235.08   21.00 
  -5   2  -3  129.99   17.40 
  -5   2  -3  168.88   20.20 
  -5   2  -3  160.48   20.20 
  -5   2  -3  142.89   22.40 
  -5   2  -3  164.48   19.10 
   5  -2   3  131.69   14.30 
   5  -2   3  173.08   14.30 
  -6   2  -3    0.60    1.70 
  -6   2  -3   -1.00    1.70 
  -6   2  -3   -1.10    1.40 
  -6   2  -3    0.90    1.80 
  -6   2  -3    0.30    2.20 
   6  -2   3    3.00    1.40 
   6  -2   3    0.70    1.80 
   7   1  -3    7.50    2.70 
   7   1  -3   12.80    3.00 
  -7  -1   3   10.40    3.10 
  -7  -1   3  -18.90   16.10 
  -7  -1   3   10.10    3.50 
  -7  -1   3   17.20    4.70 
  -7  -1   3   10.40    3.60 
   6   1  -3   73.09    8.80 
   6   1  -3   63.89    8.60 
  -6  -1   3   42.20   10.60 
  -6  -1   3   65.49   16.80 
  -6  -1   3   77.99   15.60 
  -6  -1   3  193.98  221.08 
  -6  -1   3   62.79   10.30 
   5   1  -3   92.29   10.90 
   5   1  -3  102.19   11.50 
   5   1  -3  113.59   11.00 
  -5  -1   3   88.39   14.80 
  -5  -1   3  112.59   11.40 
  -5  -1   3   76.99   12.60 
  -5  -1   3   98.79   13.00 
  -5  -1   3   76.89   12.60 
  -5  -1   3   78.19   13.20 
  -5  -1   3   89.99   14.20 
  -5  -1   3  177.48  198.18 
  -5  -1   3   93.29   16.90 
   4   1  -3    4.20    4.80 
   4   1  -3    3.60    2.50 
   4   1  -3    3.00    2.90 
  -4  -1   3    3.80    3.60 
  -4  -1   3    4.50    2.20 
  -4  -1   3    4.40    3.60 
   3   1  -3  345.17   28.40 
   3   1  -3  348.27   27.90 
   3   1  -3  357.96   27.30 
  -3  -1   3  346.87   29.80 
  -3  -1   3  342.67   27.80 
   2   1  -3 1154.28   86.89 
   2   1  -3 1146.29   86.59 
  -2  -1   3 1058.39   86.89 
  -2  -1   3 1250.87   88.49 
  -2  -1   3 1253.57   91.59 
   1   1  -3 6616.04  503.45 
  -1  -1   3 6467.15  502.55 
  -1  -1   3 7467.85  504.45 
  -1  -1   3 6932.21  502.65 
   0   1  -3 1865.11  135.99 
   0   1  -3 1640.84  136.49 
   0   1  -3 1809.72  135.99 
   0  -1   3 1794.02  136.89 
   0  -1   3 2103.39  138.89 
   0  -1   3 1893.41  136.19 
  -1   1  -3 4535.25  338.97 
  -1   1  -3 4190.08  339.57 
  -1   1  -3 4604.74  339.17 
   1  -1   3 4663.33  340.17 
   1  -1   3 5175.98  342.07 
  -2   1  -3  864.11   65.49 
  -2   1  -3  847.72   64.79 
  -2   1  -3  788.02   65.69 
   2  -1   3  916.91   68.29 
   2  -1   3  905.51   64.89 
  -3   1  -3  544.15   43.00 
  -3   1  -3  502.35   42.30 
  -3   1  -3  577.44   41.60 
   3  -1   3  529.35   43.40 
   3  -1   3  530.75   41.40 
   3  -1   3  514.95   44.10 
  -4   1  -3  284.77   26.00 
  -4   1  -3  226.38   20.80 
  -4   1  -3  230.48   21.70 
  -4   1  -3  100.79  141.99 
  -4   1  -3  185.88   21.90 
  -4   1  -3  266.77   27.00 
  -4   1  -3  192.48   22.20 
   4  -1   3  211.38   19.10 
   4  -1   3  228.28   20.40 
   4  -1   3  168.58   20.40 
  -5   1  -3  247.48   24.50 
  -5   1  -3  803.62  355.06 
  -5   1  -3  253.27   22.70 
  -5   1  -3  209.68   25.60 
  -5   1  -3  274.47   25.20 
  -5   1  -3  231.28   22.40 
  -5   1  -3  236.98   24.80 
  -5   1  -3  199.38   22.20 
   5  -1   3  189.98   22.50 
   5  -1   3  236.18   21.20 
   5  -1   3  254.87   20.30 
  -6   1  -3  123.09   17.40 
  -6   1  -3  181.28   17.90 
  -6   1  -3  128.59   16.60 
  -6   1  -3  151.08   16.40 
  -6   1  -3  141.99   15.50 
   6  -1   3  163.78   13.60 
   6  -1   3  136.69   15.90 
  -7   1  -3   13.00    4.20 
  -7   1  -3   10.90    3.60 
  -7   1  -3   12.10    3.30 
  -7   1  -3    7.70    2.30 
  -7   1  -3   17.00    3.40 
   7  -1   3   15.20    2.70 
   7   0  -3   14.80    2.70 
  -7   0   3   18.60    4.30 
  -7   0   3   -5.60   31.60 
  -7   0   3   15.50    4.70 
  -7   0   3    8.70    3.90 
   6   0  -3   28.90    5.90 
  -6   0   3   42.00    8.60 
  -6   0   3   29.10    8.00 
  -6   0   3   68.19  124.39 
  -6   0   3   40.70    8.20 
  -6   0   3   26.30    6.90 
   5   0  -3  249.78   22.10 
   5   0  -3  195.88   20.90 
  -5   0   3  231.58   24.80 
  -5   0   3  255.97   25.90 
  -5   0   3  225.58   26.00 
  -5   0   3  244.58   26.00 
  -5   0   3  177.18  181.78 
  -5   0   3  260.67   21.90 
  -5   0   3  220.88   23.80 
   4   0  -3   81.59   10.10 
   4   0  -3   86.19    9.50 
  -4   0   3   93.99   21.20 
  -4   0   3   83.59   19.40 
  -4   0   3   72.29   17.80 
  -4   0   3   70.49   11.80 
  -4   0   3   83.79   18.30 
  -4   0   3   94.29    9.80 
  -4   0   3   61.69   10.90 
   3   0  -3  312.07   25.90 
   3   0  -3  319.97   25.20 
   3   0  -3  322.47   25.50 
  -3   0   3  319.87   25.70 
  -3   0   3  296.57   27.60 
   2   0  -3 1922.41  139.59 
   2   0  -3 1922.91  139.19 
  -2   0   3 1812.82  139.59 
  -2   0   3 1968.80  141.69 
  -2   0   3 1825.62  139.69 
   1   0  -3 3058.99  215.08 
   1   0  -3 3012.10  214.98 
   1   0  -3 2996.60  217.28 
  -1   0   3 3088.79  216.78 
  -1   0   3 2814.22  215.28 
  -1   0   3 2663.33  215.28 
   0   0  -3    4.60    1.90 
   0   0  -3    2.90    1.50 
   0   0  -3    1.80    0.60 
   0   0   3    7.20    4.10 
   0   0   3    7.70    3.10 
   0   0   3    3.60    1.20 
   0   0   3    6.30    2.30 
  -1   0  -3 1153.68   76.59 
  -1   0  -3  940.31   77.19 
  -1   0  -3 1000.70   76.49 
   1   0   3 1045.70   77.99 
   1   0   3  920.41   76.29 
   1   0   3 1219.78   79.69 
   1   0   3  989.40   76.79 
  -2   0  -3  307.97   22.90 
  -2   0  -3  284.97   22.00 
  -2   0  -3  266.77   23.20 
  -2   0  -3  275.47   22.20 
   2   0   3  267.37   23.80 
   2   0   3  327.47   25.20 
  -3   0  -3   39.70    4.80 
  -3   0  -3   52.09    6.50 
  -3   0  -3   52.39    5.30 
   3   0   3   38.20    6.40 
   3   0   3   35.80    5.00 
   3   0   3   52.59    7.00 
   3   0   3   45.80    7.90 
  -4   0  -3   94.79   10.70 
   4   0   3   89.39    9.50 
   4   0   3  103.29   10.50 
   4   0   3   76.19   10.60 
   4   0   3   84.49    9.50 
  -5   0  -3   61.59   11.40 
  -5   0  -3   81.69   11.50 
  -5   0  -3   61.09   10.10 
  -5   0  -3   80.99   10.80 
  -5   0  -3   55.29    9.10 
  -5   0  -3  136.99  142.99 
  -5   0  -3   59.69   11.30 
   5   0   3   55.29    8.20 
   5   0   3   62.29   10.60 
   5   0   3   64.69    7.90 
  -6   0  -3   94.69   14.70 
  -6   0  -3   84.29  170.38 
  -6   0  -3  114.79   17.10 
  -6   0  -3  142.99   17.00 
  -6   0  -3  127.89   14.30 
  -6   0  -3  144.29   16.20 
   6   0   3  114.79   12.90 
   6   0   3  140.59   12.70 
  -7   0  -3   22.90    7.30 
  -7   0  -3   33.50    5.70 
  -7   0  -3   31.60    4.90 
  -7   0  -3   29.60    5.30 
   7   0   3   24.10    5.60 
   7   0   3   23.30    4.20 
   6  -1  -3   12.80    2.90 
   6  -1  -3   13.80    3.40 
   6  -1  -3   14.70    3.50 
  -6   1   3   10.90    3.50 
  -6   1   3   11.30    4.80 
  -6   1   3    9.20    4.20 
  -6   1   3  -13.80   34.40 
   5  -1  -3  243.28   21.20 
  -5   1   3  194.48   23.70 
  -5   1   3  277.67   27.20 
  -5   1   3  226.98  200.58 
  -5   1   3  226.48   23.90 
  -5   1   3  227.28   23.80 
  -5   1   3  235.88   25.00 
   4  -1  -3  143.99   13.60 
   4  -1  -3  132.59   14.40 
  -4   1   3  115.69   16.30 
  -4   1   3  162.98  213.58 
  -4   1   3  137.39   17.20 
  -4   1   3  135.89   16.30 
  -4   1   3  185.08   19.90 
  -4   1   3  140.49   17.10 
  -4   1   3  133.39   16.80 
   3  -1  -3  549.05   43.90 
   3  -1  -3  508.05   46.60 
   3  -1  -3  573.74   42.40 
  -3   1   3  567.24   45.80 
   2  -1  -3  747.93   64.09 
   2  -1  -3  899.91   63.49 
  -2   1   3  784.72   64.29 
  -2   1   3  931.21   66.29 
  -2   1   3  864.01   63.99 
   1  -1  -3 1852.61  142.29 
   1  -1  -3 1943.61  141.89 
  -1   1   3 1813.12  142.29 
  -1   1   3 1856.91  142.49 
  -1   1   3 2040.10  144.09 
  -1   1   3 2090.99  144.19 
   0  -1  -3 2034.40  147.39 
   0  -1  -3 1940.51  148.09 
   0  -1  -3 2007.50  150.08 
   0   1   3 1952.70  148.59 
   0   1   3 2302.87  150.38 
   0   1   3 1871.41  147.69 
   0   1   3 2007.00  149.19 
  -1  -1  -3 9999.00  731.93 
  -2  -1  -3 1995.50  143.09 
  -2  -1  -3 2066.29  147.09 
  -2  -1  -3 1882.31  144.19 
  -2  -1  -3 1716.93  143.99 
   2   1   3 2273.97  144.19 
   2   1   3 2015.00  144.49 
   2   1   3 1731.53  142.99 
  -3  -1  -3  484.15   35.80 
  -3  -1  -3  407.06   42.10 
  -3  -1  -3  484.55   37.00 
  -3  -1  -3  465.95   37.80 
   3   1   3  493.65   39.50 
   3   1   3  467.75   36.80 
   3   1   3  498.05   37.60 
  -4  -1  -3  270.27   22.90 
  -4  -1  -3  268.07   23.20 
   4   1   3  254.87   22.40 
   4   1   3  259.97   23.50 
   4   1   3  243.78   21.60 
   4   1   3  310.47   24.20 
  -5  -1  -3  414.86   37.80 
  -5  -1  -3  396.96   37.60 
  -5  -1  -3  493.35   36.60 
  -5  -1  -3  466.05   40.10 
  -5  -1  -3  351.66   35.80 
  -5  -1  -3  428.86   40.10 
   5   1   3  459.35   35.90 
   5   1   3  440.26   34.50 
   5   1   3  426.16   36.80 
  -6  -1  -3  364.16   32.00 
  -6  -1  -3  323.57   28.90 
  -6  -1  -3  377.46   32.70 
  -6  -1  -3  311.77   31.00 
  -6  -1  -3  286.27   28.90 
  -6  -1  -3  351.96   33.60 
   6   1   3  352.56   27.30 
   6   1   3  320.27   27.60 
   6   1   3  316.67   28.30 
   6   1   3  310.77   29.70 
  -7  -1  -3    5.20    3.20 
  -7  -1  -3    5.50    3.50 
  -7  -1  -3    4.90    2.70 
  -7  -1  -3    6.60    3.80 
  -7  -1  -3    5.20    2.80 
   7   1   3    2.20    2.30 
   7   1   3    5.80    2.60 
   7   1   3    2.90   41.90 
  -6   2   3    6.10    2.60 
  -6   2   3   15.20   26.90 
  -6   2   3    6.20    2.80 
  -6   2   3    6.60    2.10 
   5  -2  -3   21.00    4.30 
  -5   2   3   15.80    4.30 
  -5   2   3   13.50    5.10 
  -5   2   3   26.20    6.80 
  -5   2   3   14.60    5.10 
  -5   2   3   13.20   56.19 
   4  -2  -3   55.99    7.10 
   4  -2  -3   41.70    7.80 
  -4   2   3   69.69    9.50 
  -4   2   3   60.29   10.10 
  -4   2   3   63.49   11.20 
  -4   2   3   67.29   10.90 
  -4   2   3   64.69    9.80 
  -4   2   3   50.89   10.30 
  -4   2   3  105.89  123.09 
   3  -2  -3  434.66   40.20 
  -3   2   3  516.75   43.10 
  -3   2   3  486.65   43.20 
  -3   2   3  484.35   42.40 
  -3   2   3  516.25   44.50 
  -3   2   3  566.24   45.60 
   2  -2  -3  291.87   22.40 
   2  -2  -3  225.08   22.70 
   2  -2  -3  244.88   23.70 
  -2   2   3  302.37   23.00 
  -2   2   3  298.27   25.00 
  -2   2   3  278.97   24.90 
   1  -2  -3 1837.62  146.19 
  -1   2   3 1839.12  146.69 
  -1   2   3 2072.39  148.09 
  -1   2   3 2019.30  148.89 
  -1   2   3 2056.29  146.69 
  -1   2   3 2105.29  149.69 
   0  -2  -3 2161.78  164.48 
   0  -2  -3 2219.48  163.78 
   0   2   3 2027.30  164.08 
   0   2   3 2427.36  167.58 
   0   2   3 2370.36  166.38 
   0   2   3 2228.18  165.78 
  -1  -2  -3  570.84   49.70 
   1   2   3  699.03   51.09 
   1   2   3  723.73   51.59 
   1   2   3  723.23   52.59 
   1   2   3  620.94   49.20 
  -2  -2  -3  852.41   71.29 
  -2  -2  -3  902.11   72.39 
   2   2   3 1050.29   73.89 
   2   2   3  940.51   72.19 
   2   2   3 1047.80   71.09 
  -3  -2  -3  451.05   32.40 
  -3  -2  -3  336.87   30.20 
   3   2   3  382.46   29.10 
   3   2   3  407.66   31.00 
   3   2   3  406.26   32.00 
   3   2   3  361.56   29.20 
  -4  -2  -3    2.50    2.40 
   4   2   3    7.50    2.50 
   4   2   3    6.00    2.80 
   4   2   3   10.90    2.80 
   4   2   3    3.10    3.20 
   4   2   3    5.60    3.00 
  -5  -2  -3  292.17   29.10 
  -5  -2  -3  361.36   27.90 
  -5  -2  -3  182.88  201.48 
  -5  -2  -3  356.26   32.60 
  -5  -2  -3  351.66   32.70 
  -5  -2  -3  326.67   28.50 
   5   2   3  313.57   27.30 
   5   2   3  369.86   28.90 
   5   2   3  277.67   27.30 
   5   2   3  344.57   28.50 
   5   2   3  288.87   26.40 
  -6  -2  -3  383.56  251.87 
  -6  -2  -3  262.87   30.60 
  -6  -2  -3  343.97   31.00 
  -6  -2  -3  330.67   33.40 
  -6  -2  -3  420.96   34.00 
  -6  -2  -3  393.26   28.90 
   6   2   3  297.07   27.80 
   6   2   3  313.87   26.60 
   6   2   3  283.47   27.90 
  -7  -2  -3   59.99   10.10 
  -7  -2  -3   74.19   10.20 
  -7  -2  -3   55.49   10.40 
  -7  -2  -3   65.59    8.60 
   7   2   3   74.79    8.40 
   7   2   3   65.99    7.40 
   7   2   3    7.80   47.80 
  -8  -2  -3    3.10    1.90 
  -8  -2  -3    5.20    2.30 
  -8  -2  -3    8.10    2.10 
   8   2   3   15.20   39.00 
  -5   3   3   10.10    3.50 
  -5   3   3    5.70    3.00 
  -5   3   3    7.40    2.20 
  -4   3   3   54.59    9.90 
  -4   3   3   59.89    8.90 
  -4   3   3   62.29    9.90 
  -4   3   3    4.60   52.09 
  -4   3   3   58.89    9.60 
   3  -3  -3  104.39   13.90 
  -3   3   3  119.59   15.70 
  -3   3   3  136.59   15.10 
  -3   3   3   91.19  129.29 
  -3   3   3  137.49   17.60 
  -3   3   3  174.58   21.10 
   2  -3  -3   64.89    9.30 
  -2   3   3  -10.30   46.40 
  -2   3   3   59.99    9.40 
  -2   3   3   70.19   10.70 
  -2   3   3   68.59    9.70 
  -2   3   3   89.89   10.90 
   1  -3  -3  643.84   53.49 
   1  -3  -3  654.33   49.30 
  -1   3   3  707.03   51.99 
  -1   3   3  629.34   49.50 
  -1   3   3  621.44   49.70 
  -1   3   3  631.04   51.89 
   0  -3  -3  411.56   33.50 
   0  -3  -3  487.45   39.30 
   0  -3  -3  400.06   34.00 
   0   3   3  464.05   36.80 
   0   3   3  483.25   36.90 
   0   3   3  437.16   34.40 
  -1  -3  -3  195.58   17.50 
  -1  -3  -3  165.78   15.10 
   1   3   3  193.98   15.50 
   1   3   3  212.88   19.50 
   1   3   3  198.38   17.50 
  -2  -3  -3 1326.27   95.59 
  -2  -3  -3 1238.38   96.99 
   2   3   3 1257.47   96.69 
   2   3   3 1290.57   94.89 
   2   3   3 1288.87   98.59 
  -3  -3  -3 5484.05  405.76 
  -3  -3  -3 5038.90  405.06 
   3   3   3 5770.02  403.46 
   3   3   3 5749.42  406.66 
   3   3   3 5491.15  404.76 
  -4  -3  -3  145.89   14.80 
  -4  -3  -3  143.49   13.20 
  -4  -3  -3  152.18   15.70 
   4   3   3  138.99   14.00 
   4   3   3  172.58   14.30 
  -5  -3  -3  255.97   24.10 
  -5  -3  -3  230.68   36.40 
  -5  -3  -3  252.97   21.70 
  -5  -3  -3  280.57   27.90 
   5   3   3  121.29  143.59 
  -6  -3  -3  276.77   29.60 
  -6  -3  -3  250.17   27.40 
  -6  -3  -3  212.38   26.80 
  -6  -3  -3  259.77   25.00 
   6   3   3   43.80  137.49 
   6   3   3  278.17   24.00 
   6   3   3  253.97   21.10 
   6   3   3  293.77   24.20 
  -7  -3  -3   39.80    9.90 
  -7  -3  -3   40.80    8.60 
  -7  -3  -3   38.50    7.20 
   7   3   3   43.40    6.80 
   7   3   3  -23.70   92.39 
   7   3   3   31.90    4.70 
  -8  -3  -3    0.20    2.30 
  -8  -3  -3   -0.20    1.70 
   8   3   3  -16.00   24.80 
  -4   4   3    1.50    5.50 
  -4   4   3    6.20    2.60 
  -4   4   3    3.60    3.00 
  -3   4   3   25.00    5.40 
  -3   4   3   20.80    5.70 
  -3   4   3   24.60    5.80 
  -3   4   3   17.70    5.40 
   2  -4  -3   40.90    8.60 
  -2   4   3   50.79    8.20 
  -2   4   3   39.20    6.80 
  -2   4   3   61.19   11.70 
  -2   4   3   46.90    8.70 
  -2   4   3   43.50   10.20 
   1  -4  -3   97.69   13.70 
  -1   4   3  128.69   15.20 
  -1   4   3  118.09   14.50 
  -1   4   3  112.99   14.10 
  -1   4   3  139.79   20.20 
  -1   4   3  133.69   13.10 
  -1   4   3  121.89   12.50 
  -1   4   3  144.79   17.10 
   0  -4  -3   49.20   10.00 
   0  -4  -3   58.19   10.80 
   0   4   3   65.89    9.30 
   0   4   3   65.99    7.30 
  -1  -4  -3   53.69   10.00 
  -1  -4  -3   48.30    8.40 
   1   4   3   55.29    6.20 
   1   4   3   50.39    7.90 
  -2  -4  -3   62.19    9.60 
  -2  -4  -3   59.29    6.50 
  -2  -4  -3   46.80    8.20 
   2   4   3   57.79    6.40 
   2   4   3   50.49    8.20 
  -3  -4  -3  260.57   30.00 
  -3  -4  -3  238.28   24.60 
  -3  -4  -3  257.27   22.50 
   3   4   3  249.58   22.80 
   3   4   3  251.37   21.00 
  -4  -4  -3  650.13   51.79 
  -4  -4  -3  592.94   51.89 
  -4  -4  -3  543.15   50.99 
   4   4   3  620.34   52.69 
   4   4   3  664.73   51.89 
   4   4   3  689.53   49.20 
  -5  -4  -3   46.80   10.30 
  -5  -4  -3   44.30   10.30 
  -5  -4  -3   46.70    7.40 
  -5  -4  -3   36.10    8.80 
   5   4   3   44.30    7.00 
   5   4   3   40.30    7.20 
   5   4   3   27.90   65.59 
   5   4   3   53.59    7.40 
  -6  -4  -3   91.39   14.60 
  -6  -4  -3   99.59   12.40 
  -6  -4  -3  106.99   15.00 
   6   4   3   23.90   85.39 
   6   4   3   77.39   11.50 
   6   4   3  106.19   11.60 
   6   4   3  111.09   11.70 
  -7  -4  -3   11.50    5.80 
  -7  -4  -3   24.50    7.50 
   7   4   3   -5.80   48.90 
  -8  -4  -3    3.90    2.50 
  -8  -4  -3   -0.10    1.80 
   8   4   3   -4.40   32.60 
   8   4   3    5.40    2.10 
  -2   5   3   53.69    8.50 
  -2   5   3   74.59    8.10 
  -2   5   3   62.49    7.80 
  -1   5   3    2.90    3.70 
  -1   5   3    4.60    3.70 
  -1   5   3    6.00    3.10 
  -1   5   3    5.10    2.60 
  -1   5   3    7.40    3.80 
   0  -5  -3    1.00    5.40 
   0  -5  -3    3.80    1.50 
   0   5   3    7.80    2.90 
   0   5   3    5.90    4.70 
   0   5   3    6.30    2.90 
   0   5   3    2.20    3.50 
   0   5   3    2.60    4.10 
   0   5   3   -1.50    3.00 
  -1  -5  -3   41.90    9.20 
  -1  -5  -3   35.70    4.80 
   1   5   3   48.60   10.00 
   1   5   3   62.29   10.80 
   1   5   3   43.20    6.70 
   1   5   3   44.40    6.60 
   1   5   3   38.60    7.30 
   1   5   3   29.90    6.70 
   1   5   3   38.30    7.30 
   1   5   3   48.80   11.30 
   1   5   3   40.40    8.20 
  -2  -5  -3   83.29   12.60 
  -2  -5  -3   85.09    9.50 
   2   5   3   96.89   10.60 
   2   5   3   83.79   11.60 
   2   5   3   92.19   10.20 
   2   5   3   99.09   12.80 
   2   5   3   90.49   10.90 
   2   5   3   95.49   12.80 
   2   5   3   89.69   13.30 
  -3  -5  -3   79.49   11.60 
  -3  -5  -3   59.89   12.20 
   3   5   3   63.09   11.00 
   3   5   3   76.69   10.20 
   3   5   3   88.89   10.40 
   3   5   3   87.19    9.50 
   3   5   3   63.29    9.20 
   3   5   3   85.69   10.60 
   3   5   3   91.59    9.50 
   3   5   3   68.29   19.50 
   3   5   3   69.39   10.80 
  -4  -5  -3   58.79   10.30 
  -4  -5  -3   66.19   10.50 
  -4  -5  -3   53.89    9.60 
  -4  -5  -3   60.19   12.70 
   4   5   3   49.80   10.50 
   4   5   3   57.79    9.70 
   4   5   3   62.39    8.20 
   4   5   3   59.19    8.20 
   4   5   3   68.19    8.50 
   4   5   3   70.39    9.80 
   4   5   3   69.89    9.30 
   4   5   3   56.89    9.50 
  -5  -5  -3  140.99   16.30 
  -5  -5  -3  136.09   18.20 
  -5  -5  -3   99.29   17.40 
  -5  -5  -3  115.09   17.20 
   5   5   3  133.99   13.70 
   5   5   3  135.79   14.00 
   5   5   3  152.88   18.40 
   5   5   3  134.29   16.30 
  -6  -5  -3   33.60    9.30 
  -6  -5  -3   49.90   10.80 
  -6  -5  -3   52.09   11.20 
   6   5   3    3.90   61.09 
   6   5   3   64.19    8.40 
   6   5   3   59.99    9.70 
  -7  -5  -3    1.50    2.30 
  -7  -5  -3    4.80    3.50 
   7   5   3   -1.80   38.30 
   7   5   3    4.50    2.50 
   7   5   3    4.20    3.60 
  -8  -5  -3   53.29    7.70 
  -8  -5  -3   59.69    7.10 
   8   5   3   12.60   37.00 
  -1   6   3   98.19   13.20 
  -1   6   3   75.09    9.70 
  -1   6   3   95.99    9.80 
   0  -6  -3   76.99    7.80 
   0   6   3  101.59   11.60 
   0   6   3   70.69   12.70 
   0   6   3   72.99   10.60 
   0   6   3   77.59   12.90 
   0   6   3  109.59   16.70 
  -1  -6  -3  202.68   20.00 
   1   6   3  230.08   21.40 
   1   6   3  219.78   21.60 
   1   6   3  266.37   23.40 
   1   6   3  252.97   21.80 
   1   6   3  224.48   24.60 
   1   6   3  206.78   23.40 
   1   6   3  198.58   24.40 
  -2  -6  -3  183.98   17.70 
  -2  -6  -3  171.08   20.50 
   2   6   3  195.18   20.50 
   2   6   3  210.38   19.60 
   2   6   3  173.58   21.90 
   2   6   3  189.48   19.10 
   2   6   3  210.28   18.60 
   2   6   3  202.28   20.10 
   2   6   3  190.98   22.50 
   2   6   3  169.48   18.80 
  -3  -6  -3  138.69   17.00 
  -3  -6  -3  133.49   15.20 
   3   6   3  144.79   17.00 
   3   6   3  141.69   15.30 
   3   6   3  128.69   16.00 
   3   6   3  133.79   15.10 
   3   6   3  162.68   19.20 
   3   6   3  145.59   15.80 
   3   6   3  158.88   19.10 
   3   6   3  134.59   15.80 
  -4  -6  -3  140.59   20.10 
  -4  -6  -3  167.98   19.20 
  -4  -6  -3  178.08   16.80 
  -4  -6  -3  169.78   19.10 
   4   6   3  154.88   19.00 
   4   6   3  181.18   17.80 
   4   6   3  154.98   19.60 
   4   6   3  187.28   19.00 
   4   6   3  194.28   18.70 
   4   6   3  153.58   16.70 
   4   6   3  188.98   17.30 
  -5  -6  -3    7.50    5.50 
  -5  -6  -3   13.10    3.90 
  -5  -6  -3    2.70    5.10 
  -5  -6  -3    8.50    5.40 
   5   6   3    5.10    3.60 
   5   6   3    5.00    4.10 
   5   6   3    7.00    2.90 
   5   6   3    6.50    3.80 
   5   6   3    8.80    3.80 
   5   6   3    7.70    3.50 
  -6  -6  -3  137.79   17.70 
  -6  -6  -3  146.69   18.20 
  -6  -6  -3  137.99   12.40 
  -7  -6  -3   -0.60    2.70 
  -7  -6  -3    1.40    1.70 
   7   6   3    2.60    1.90 
   7   6   3    4.70    2.40 
   0   7   3   55.19    8.00 
   0   7   3   64.69    7.10 
   0   7   3   46.30    6.20 
   0   7   3   33.10    6.60 
  -1  -7  -3    9.10    2.40 
   1   7   3    5.20    2.80 
   1   7   3    4.20    3.90 
   1   7   3    4.80    2.60 
   1   7   3    5.00    3.60 
   1   7   3   10.00    5.70 
  -2  -7  -3   -2.70    1.90 
   2   7   3    2.20    3.00 
   2   7   3    0.40    2.00 
   2   7   3    2.70    2.70 
   2   7   3   -0.10    2.50 
   2   7   3    3.50    3.10 
   2   7   3   -0.30    2.80 
  -3  -7  -3   26.80    6.20 
  -3  -7  -3   18.90    6.30 
  -3  -7  -3   16.30    5.10 
   3   7   3   23.30    5.90 
   3   7   3   32.50    8.80 
   3   7   3   17.50    5.90 
   3   7   3   29.20    6.00 
  -4  -7  -3   15.90    4.90 
  -4  -7  -3    5.60    3.90 
   4   7   3   20.90    5.30 
   4   7   3   16.40    4.40 
   4   7   3   14.50    4.40 
   4   7   3   14.10    4.90 
   4   7   3   12.50    5.50 
  -5  -7  -3   -4.20    2.20 
  -5  -7  -3    4.30    5.40 
  -5  -7  -3    0.70    3.40 
   5   7   3   -0.90    3.00 
   5   7   3    1.60    2.40 
   5   7   3    2.80    2.60 
   5   7   3    1.90    2.70 
   5   7   3    1.70    2.10 
   5   7   3    1.90    1.90 
  -6  -7  -3   -1.60    1.80 
  -6  -7  -3    3.60    3.40 
   6   7   3    1.30    3.00 
   6   7   3    5.70    2.40 
   6   7   3    4.90    2.90 
  -7  -7  -3    3.20    1.90 
  -7  -7  -3    1.70    2.50 
   7   7   3    0.70    2.50 
   2   8   3   18.20    4.70 
   2   8   3   17.40    4.60 
   2   8   3   30.10    4.50 
   2   8   3   31.30    4.60 
  -3  -8  -3   40.00    6.30 
   3   8   3   21.40    6.00 
   3   8   3   33.80    5.40 
   3   8   3   41.30    7.50 
   3   8   3   33.50    6.00 
  -4  -8  -3   64.59    7.50 
   4   8   3   57.29    7.40 
   4   8   3   46.80    7.50 
   4   8   3   45.30    8.30 
   4   8   3   54.19    6.80 
  -5  -8  -3   14.60    4.40 
  -5  -8  -3   22.70    4.20 
   5   8   3   20.50    3.50 
   5   8   3   27.50    5.40 
   5   8   3   16.60    4.20 
   5   7  -4    6.90    2.60 
   5   7  -4   11.00    3.10 
  -5  -7   4    2.60    2.50 
  -5  -7   4    5.90    2.40 
   4   7  -4    8.20    4.80 
   4   7  -4   10.20    4.50 
   4   7  -4   15.60    3.70 
  -4  -7   4   11.30    3.40 
  -4  -7   4   16.40    8.60 
   3   7  -4    9.30    2.70 
   3   7  -4    9.40    3.70 
   3   7  -4   12.10    5.50 
   3   7  -4    8.80    3.90 
  -3  -7   4    6.50    4.90 
  -3  -7   4   22.00    5.20 
   2   7  -4    1.90    1.90 
   2   7  -4    4.00    1.70 
   2   7  -4    1.40    2.10 
   2   7  -4    0.60    1.40 
   2   7  -4    1.80    2.60 
  -2  -7   4   -1.00    2.40 
  -2  -7   4    8.40    4.10 
  -2  -7   4    4.80    2.60 
   1   7  -4   10.40    4.50 
   1   7  -4   19.20    4.90 
   1   7  -4   19.80    6.10 
   1   7  -4   18.50    4.00 
  -1  -7   4   15.60    4.10 
  -1  -7   4   21.00    4.40 
   0   7  -4   27.90    5.80 
   0   7  -4   26.00    3.90 
   0   7  -4   27.90    4.90 
   0   7  -4   17.40    3.70 
   0  -7   4   28.00    4.90 
   6   6  -4    6.80    2.60 
  -6  -6   4    4.00    3.30 
  -6  -6   4    5.80    2.80 
   5   6  -4    5.70    3.70 
   5   6  -4    7.40    3.70 
  -5  -6   4    6.60    3.60 
  -5  -6   4    6.60    3.60 
   4   6  -4  111.39   16.60 
   4   6  -4  145.29   15.80 
   4   6  -4  165.08   18.70 
  -4  -6   4  173.78   21.10 
  -4  -6   4  164.38   15.70 
  -4  -6   4  126.59   11.90 
   3   6  -4  181.98   18.80 
   3   6  -4  212.58   22.80 
   3   6  -4  183.58   20.60 
  -3  -6   4  201.78   19.40 
   2   6  -4   64.99    8.60 
   2   6  -4   54.99   10.00 
   2   6  -4   63.59   11.50 
   2   6  -4   77.19   11.90 
   2   6  -4   63.59    8.40 
   2   6  -4   77.49   11.60 
  -2  -6   4   97.19   10.70 
  -2  -6   4   75.19    9.60 
   1   6  -4  219.78   21.60 
   1   6  -4  217.78   24.10 
   1   6  -4  283.47   21.60 
   1   6  -4  264.67   24.60 
   1   6  -4  220.08   21.80 
   1   6  -4  203.38   25.20 
  -1  -6   4  225.78   19.90 
  -1  -6   4  260.87   21.80 
   0   6  -4  119.29   11.70 
   0   6  -4   92.59   13.00 
   0   6  -4   84.39   13.60 
   0   6  -4  112.39   11.90 
   0   6  -4   82.09   12.60 
   0   6  -4  108.19   12.30 
   0  -6   4  118.19   10.50 
   0  -6   4  114.59   11.50 
  -1   6  -4   11.70    3.50 
  -1   6  -4   12.50    4.40 
  -1   6  -4    5.10    2.10 
  -1   6  -4    9.80    3.20 
  -1   6  -4   10.20    4.10 
   1  -6   4    9.30    3.00 
   1  -6   4    4.60    2.60 
  -2   6  -4    6.50    2.60 
  -2   6  -4    5.00    1.90 
  -2   6  -4    5.20    2.00 
  -2   6  -4    5.30    1.90 
  -2   6  -4    0.30    2.50 
   2  -6   4    6.50    1.90 
   7   5  -4    0.40    1.50 
   7   5  -4   -0.90    1.30 
  -7  -5   4   -1.40    1.50 
  -7  -5   4    0.40    1.20 
   6   5  -4   54.79    7.30 
   6   5  -4   45.80    8.30 
  -6  -5   4   51.69    7.90 
  -6  -5   4   60.29    9.80 
   5   5  -4  116.99   14.20 
   5   5  -4   88.09   14.70 
   5   5  -4  129.79   15.10 
  -5  -5   4  118.39   17.20 
  -5  -5   4  127.19   14.70 
   4   5  -4   92.29   11.40 
   4   5  -4  120.29   15.70 
   4   5  -4  106.99   13.30 
  -4  -5   4   96.59   12.90 
  -4  -5   4  109.79   16.50 
  -4  -5   4   93.09   12.30 
   3   5  -4  113.49   17.70 
   3   5  -4  109.49   12.60 
   3   5  -4  122.89   13.60 
   3   5  -4  108.29   14.30 
   3   5  -4  111.89   13.90 
  -3  -5   4  112.39   12.70 
  -3  -5   4   92.89   15.90 
  -3  -5   4   97.49   11.00 
  -3  -5   4  111.79   13.90 
   2   5  -4  209.28   25.30 
   2   5  -4  226.88   22.00 
   2   5  -4  211.28   25.30 
   2   5  -4  200.28   20.70 
   2   5  -4  247.48   22.20 
   2   5  -4  218.78   20.90 
   2   5  -4  249.38   24.10 
  -2  -5   4  256.07   20.00 
  -2  -5   4  232.18   21.20 
  -2  -5   4  262.87   24.00 
  -2  -5   4  270.87   22.90 
   1   5  -4  112.79   15.40 
   1   5  -4  124.49   13.80 
   1   5  -4  140.19   15.60 
   1   5  -4  105.89   16.60 
   1   5  -4  119.79   12.70 
   1   5  -4  102.09   13.00 
   1   5  -4  134.69   12.70 
  -1  -5   4  116.69   11.20 
  -1  -5   4  125.59   15.30 
  -1  -5   4  144.29   13.00 
  -1  -5   4   92.59   12.50 
   0   5  -4  480.15   37.50 
   0   5  -4  443.16   38.30 
   0   5  -4  412.66   39.20 
   0   5  -4  421.76   37.30 
   0   5  -4  502.25   36.40 
   0   5  -4  429.66   42.10 
   0  -5   4  391.06   33.80 
   0  -5   4  411.96   37.30 
   0  -5   4  454.85   35.40 
   0  -5   4  421.46   38.80 
  -1   5  -4   13.00    3.90 
  -1   5  -4   11.20    4.60 
  -1   5  -4    7.30    4.10 
  -1   5  -4   12.60    4.60 
  -1   5  -4    9.20    3.90 
  -1   5  -4    7.80    3.90 
  -1   5  -4   10.70    5.00 
   1  -5   4   14.00    3.40 
   1  -5   4   13.60    6.60 
   1  -5   4   17.10    3.90 
  -2   5  -4    2.90    2.50 
  -2   5  -4    6.70    3.10 
  -2   5  -4    7.30    3.70 
  -2   5  -4    9.80    3.60 
  -2   5  -4    2.90    2.60 
  -2   5  -4    5.30    3.60 
   2  -5   4    4.30    2.50 
   2  -5   4    7.50    2.70 
  -3   5  -4   19.50    4.40 
  -3   5  -4   21.30    4.70 
  -3   5  -4   23.80    4.60 
  -3   5  -4   23.80    4.90 
   3  -5   4   30.00    4.10 
   3  -5   4   29.30    4.70 
   7   4  -4   13.50    3.40 
   7   4  -4   16.00    3.90 
  -7  -4   4   10.60    3.70 
  -7  -4   4   16.90    4.20 
   6   4  -4   30.00    4.80 
   6   4  -4   37.40    7.90 
   6   4  -4   31.30    6.40 
  -6  -4   4   27.30    6.20 
  -6  -4   4   51.39   10.60 
  -6  -4   4   33.10    6.70 
   5   4  -4   54.39   10.30 
   5   4  -4   63.69    7.20 
   5   4  -4   66.59   10.60 
   5   4  -4   59.09    9.00 
  -5  -4   4   88.89   13.40 
  -5  -4   4   53.69   10.30 
  -5  -4   4   69.89    9.90 
  -5  -4   4   50.19   12.00 
   4   4  -4    1.20    3.10 
   4   4  -4    6.30    3.90 
   4   4  -4    7.40    3.20 
  -4  -4   4    6.10    5.40 
  -4  -4   4    8.30    3.20 
  -4  -4   4    4.30    3.70 
  -4  -4   4    4.50    3.70 
  -4  -4   4    1.60    4.50 
   3   4  -4  116.39   15.50 
   3   4  -4  100.69   15.40 
   3   4  -4  130.69   12.50 
   3   4  -4  124.39   15.00 
  -3  -4   4  121.19   13.60 
  -3  -4   4  127.69   13.30 
  -3  -4   4   84.99   18.20 
   2   4  -4  478.05   39.30 
   2   4  -4  457.35   43.90 
   2   4  -4  535.45   39.50 
   2   4  -4  511.35   40.00 
  -2  -4   4  407.46   43.30 
  -2  -4   4  452.05   37.70 
  -2  -4   4  538.45   39.50 
  -2  -4   4  569.24   41.00 
  -2  -4   4  483.05   40.90 
   1   4  -4    2.40    2.30 
   1   4  -4    1.90    2.70 
   1   4  -4    1.50    2.40 
   1   4  -4   -4.00    3.00 
   1   4  -4    1.10    3.70 
  -1  -4   4    1.90    4.20 
   0   4  -4   63.09   10.30 
   0   4  -4   95.39   10.50 
   0   4  -4   92.49   14.90 
   0   4  -4   97.39   11.00 
   0   4  -4   87.79   10.00 
   0   4  -4   92.79   10.60 
   0   4  -4   80.99   12.60 
   0   4  -4   81.19   11.80 
   0  -4   4   80.09   11.60 
   0  -4   4   89.49    9.00 
  -1   4  -4  410.66   37.00 
  -1   4  -4  390.26   39.50 
  -1   4  -4  469.75   37.20 
  -1   4  -4  420.46   36.30 
  -1   4  -4  417.16   35.70 
  -1   4  -4  439.36   38.30 
   1  -4   4  393.36   37.20 
   1  -4   4  403.86   33.40 
  -2   4  -4   13.00    5.00 
  -2   4  -4   12.00    4.10 
  -2   4  -4    6.80    4.60 
  -2   4  -4    8.90    4.90 
  -2   4  -4   15.40    5.30 
  -2   4  -4    9.70    4.00 
   2  -4   4   14.50    3.50 
   2  -4   4   12.30    3.40 
   2  -4   4    6.40    8.20 
  -3   4  -4  100.39   11.90 
  -3   4  -4   88.09   12.40 
  -3   4  -4   92.69   14.20 
  -3   4  -4   59.49   16.50 
   3  -4   4   83.89    9.30 
   3  -4   4   89.39    9.20 
  -4   4  -4    2.50    2.00 
  -4   4  -4    2.50    1.90 
  -4   4  -4    1.30    1.70 
  -4   4  -4    3.30    2.20 
  -4   4  -4    5.90    3.20 
   4  -4   4    3.60    1.90 
   4  -4   4    5.10    1.60 
   7   3  -4    4.40    1.90 
   7   3  -4    5.90    2.90 
  -7  -3   4    6.60    2.50 
  -7  -3   4    7.80   40.80 
  -7  -3   4    5.20    3.10 
  -7  -3   4    5.50    2.60 
   6   3  -4   67.19   10.60 
   6   3  -4   87.89    9.10 
  -6  -3   4  101.49  146.59 
  -6  -3   4   98.69   14.10 
  -6  -3   4   84.79   12.80 
  -6  -3   4   65.79   11.40 
  -6  -3   4   71.59   11.20 
   5   3  -4   55.89    7.90 
   5   3  -4   53.19    7.40 
   5   3  -4   58.99   10.40 
  -5  -3   4   73.19   12.60 
  -5  -3   4   73.59   11.60 
  -5  -3   4   48.10    9.00 
  -5  -3   4   59.49   10.10 
  -5  -3   4   37.90    9.90 
  -5  -3   4  129.69  154.08 
   4   3  -4   13.30    3.40 
   4   3  -4   14.80    4.90 
   4   3  -4   14.20    3.80 
   4   3  -4   19.40    5.60 
   4   3  -4   18.10    5.90 
   4   3  -4   11.10    4.00 
  -4  -3   4   14.10    5.20 
  -4  -3   4   19.50    6.70 
  -4  -3   4   17.30    8.90 
  -4  -3   4   11.50    4.30 
   3   3  -4  464.65   36.30 
   3   3  -4  390.66   33.00 
  -3  -3   4  466.45   35.80 
  -3  -3   4  338.67   36.50 
   2   3  -4  301.97   24.40 
   2   3  -4  254.27   24.10 
  -2  -3   4  308.87   25.70 
  -2  -3   4  319.87   24.50 
  -2  -3   4  278.77   28.20 
  -2  -3   4  312.27   25.50 
   1   3  -4 1151.18   84.39 
   1   3  -4 1244.08   84.59 
   1   3  -4  941.21   83.99 
  -1  -3   4 1204.28   85.89 
  -1  -3   4 1134.09   88.89 
  -1  -3   4 1034.00   86.09 
   0   3  -4  177.08   18.10 
   0   3  -4  202.88   18.10 
   0   3  -4  209.18   18.60 
   0  -3   4  233.08   20.40 
   0  -3   4  206.08   22.10 
   0  -3   4  241.38   17.70 
  -1   3  -4  754.12   58.59 
  -1   3  -4  711.13   57.99 
   1  -3   4  806.42   56.69 
   1  -3   4  774.62   59.89 
   1  -3   4  660.23   62.19 
  -2   3  -4  355.96   33.60 
  -2   3  -4  345.47   32.20 
  -2   3  -4  385.76   30.90 
  -2   3  -4  344.97   30.90 
  -2   3  -4  315.67   32.20 
  -2   3  -4  377.86   34.10 
  -2   3  -4  340.37   30.90 
  -2   3  -4  364.76   34.40 
   2  -3   4  376.46   29.70 
   2  -3   4  386.56   33.30 
  -3   3  -4   88.39   12.70 
  -3   3  -4  100.29   13.20 
  -3   3  -4   73.89   16.20 
  -3   3  -4   82.59   13.20 
  -3   3  -4   96.39   12.40 
  -3   3  -4   97.09   19.50 
   3  -3   4  107.19   10.70 
   3  -3   4  118.49   15.60 
   3  -3   4   93.59   10.40 
  -4   3  -4   45.90    7.90 
  -4   3  -4   41.60    9.10 
  -4   3  -4   49.10   10.20 
  -4   3  -4   34.20    8.70 
  -4   3  -4   53.69   13.20 
  -4   3  -4   47.80    9.90 
   4  -3   4   58.49    6.60 
   4  -3   4   47.50    6.30 
  -5   3  -4    3.00    2.60 
  -5   3  -4    7.30    2.30 
  -5   3  -4    5.70    3.50 
  -5   3  -4    7.50    3.50 
  -5   3  -4    5.60    3.50 
  -5   3  -4    2.60    2.60 
   5  -3   4    7.50    2.10 
   5  -3   4    5.70    2.00 
   7   2  -4    7.70    2.40 
   7   2  -4   13.10    3.40 
  -7  -2   4    7.80    2.90 
  -7  -2   4   16.20    4.60 
  -7  -2   4    9.00    3.80 
  -7  -2   4    8.30   37.20 
  -7  -2   4    4.70    2.80 
   6   2  -4   23.50    5.00 
   6   2  -4   25.20    5.20 
   6   2  -4   24.10    6.70 
  -6  -2   4   19.30    5.20 
  -6  -2   4   26.40    7.60 
  -6  -2   4   26.90    8.60 
  -6  -2   4    6.90   43.70 
  -6  -2   4   21.00    5.40 
  -6  -2   4   26.20    7.80 
   5   2  -4   56.99    8.00 
   5   2  -4   49.10    8.00 
   5   2  -4   58.89   13.50 
   5   2  -4   63.29    7.80 
  -5  -2   4   24.30   12.20 
  -5  -2   4   44.60   98.49 
  -5  -2   4   29.50    8.70 
  -5  -2   4   47.90   11.60 
  -5  -2   4   52.99    9.30 
  -5  -2   4   40.30    9.20 
   4   2  -4  262.47   21.60 
   4   2  -4  244.88   22.60 
   4   2  -4  250.57   21.30 
   4   2  -4  253.17   21.90 
  -4  -2   4  280.47   27.10 
  -4  -2   4  188.08  218.98 
  -4  -2   4  213.58   23.20 
  -4  -2   4  261.87   25.60 
  -4  -2   4  251.87   30.50 
  -4  -2   4  233.28   24.40 
   3   2  -4  164.98   13.70 
   3   2  -4  152.28   13.60 
   3   2  -4  146.19   14.50 
   3   2  -4  147.99   13.80 
  -3  -2   4  145.19   15.80 
  -3  -2   4  148.39   15.40 
   2   2  -4   32.60    4.90 
   2   2  -4   38.50    4.60 
   2   2  -4   32.80    5.30 
   2   2  -4   25.70    4.90 
  -2  -2   4   36.50    8.10 
  -2  -2   4   37.80    5.90 
   1   2  -4 1084.79   91.99 
   1   2  -4 1254.47   91.69 
   1   2  -4 1234.68   91.39 
  -1  -2   4 1286.87   92.89 
  -1  -2   4 1291.57   92.49 
  -1  -2   4 1223.28   95.39 
   0   2  -4 1107.19   78.39 
   0   2  -4 1055.19   78.29 
   0   2  -4 1010.50   78.99 
   0  -2   4 1078.19   82.29 
   0  -2   4  940.61   78.69 
   0  -2   4 1080.49   79.79 
  -1   2  -4  570.84   44.90 
  -1   2  -4  543.75   45.70 
  -1   2  -4  573.54   45.20 
   1  -2   4  605.24   46.90 
   1  -2   4  624.24   44.50 
  -2   2  -4  219.08   19.90 
  -2   2  -4  233.38   18.60 
  -2   2  -4  196.88   18.90 
   2  -2   4  229.58   21.30 
   2  -2   4  217.28   18.00 
   2  -2   4  186.48   22.40 
  -3   2  -4    7.40    4.30 
  -3   2  -4   15.20    5.20 
  -3   2  -4   17.00    5.40 
  -3   2  -4    9.50    4.20 
  -3   2  -4   12.90    4.40 
  -3   2  -4   20.20    5.70 
   3  -2   4   13.40    3.50 
   3  -2   4   11.20    6.90 
   3  -2   4    9.80   13.60 
  -4   2  -4   -0.10    2.40 
  -4   2  -4   -0.20    2.60 
  -4   2  -4    5.10    3.80 
  -4   2  -4    4.40    4.20 
  -4   2  -4    0.90    3.30 
  -4   2  -4   -1.40    2.20 
   4  -2   4    4.20   10.20 
   4  -2   4    6.10    5.60 
   4  -2   4   -0.20    3.70 
   4  -2   4    4.40    2.30 
  -5   2  -4  170.88   17.30 
  -5   2  -4  118.19   16.50 
  -5   2  -4  146.39   16.50 
  -5   2  -4  147.79   14.90 
  -5   2  -4  121.69   14.50 
  -5   2  -4  135.79   16.80 
   5  -2   4  124.89   13.30 
   5  -2   4  146.39   12.80 
  -6   2  -4   18.90    5.20 
  -6   2  -4   33.50    5.20 
  -6   2  -4   33.70    7.50 
  -6   2  -4   31.30    5.00 
  -6   2  -4   41.40    6.20 
   6  -2   4   26.10    4.10 
   7   1  -4   10.80    3.10 
   7   1  -4    7.00    2.20 
  -7  -1   4  -15.00   24.00 
  -7  -1   4    9.90    3.60 
  -7  -1   4    4.60    2.50 
   6   1  -4   25.00    5.80 
   6   1  -4   37.60    6.20 
   6   1  -4   25.40    5.40 
  -6  -1   4   30.50    8.20 
  -6  -1   4   21.60    5.90 
  -6  -1   4   25.80    6.10 
  -6  -1   4   16.60    5.90 
  -6  -1   4   24.90    6.50 
  -6  -1   4   69.39  121.89 
   5   1  -4   65.49    9.40 
   5   1  -4   64.99    8.60 
   5   1  -4   85.09    8.90 
  -5  -1   4   65.79   12.20 
  -5  -1   4   64.99   12.30 
  -5  -1   4   50.39   10.50 
  -5  -1   4   78.79   11.80 
  -5  -1   4   56.29   12.40 
  -5  -1   4  133.19  138.49 
  -5  -1   4   79.59   14.50 
  -5  -1   4   77.49   12.50 
   4   1  -4   10.40    3.30 
   4   1  -4    7.40    3.20 
  -4  -1   4    9.00    3.30 
  -4  -1   4    4.90    4.40 
  -4  -1   4    0.70    6.40 
  -4  -1   4   12.90    4.80 
  -4  -1   4    5.50    3.30 
  -4  -1   4    6.80    4.20 
  -4  -1   4    5.40    3.50 
  -4  -1   4   12.30    5.10 
   3   1  -4 1637.44  123.19 
   3   1  -4 1578.44  124.29 
   3   1  -4 1748.63  123.09 
  -3  -1   4 1719.03  123.89 
  -3  -1   4 1602.74  126.29 
   2   1  -4  574.84   44.90 
   2   1  -4  578.64   44.10 
   2   1  -4  608.54   44.40 
  -2  -1   4  635.24   47.10 
  -2  -1   4  496.15   43.70 
  -2  -1   4  624.94   46.80 
   1   1  -4  179.98   17.00 
   1   1  -4  218.98   16.60 
   1   1  -4  211.98   17.10 
   1   1  -4  198.78   15.90 
  -1  -1   4  196.58   17.40 
  -1  -1   4  200.38   19.50 
  -1  -1   4  216.78   17.80 
   0   1  -4 2812.02  220.08 
   0   1  -4 3069.09  219.28 
   0   1  -4 2915.31  218.98 
   0  -1   4 3028.10  220.78 
   0  -1   4 3111.99  219.88 
   0  -1   4 2997.10  222.88 
  -1   1  -4  448.26   33.80 
  -1   1  -4  452.15   33.80 
  -1   1  -4  422.96   34.70 
   1  -1   4  441.26   37.50 
   1  -1   4  453.45   35.70 
   1  -1   4  419.86   33.40 
  -2   1  -4 1234.18   94.49 
  -2   1  -4 1266.57   93.19 
  -2   1  -4 1377.76   93.89 
   2  -1   4 1161.78   92.89 
   2  -1   4 1193.38   95.19 
   2  -1   4 1256.77   97.39 
  -3   1  -4  705.53   49.20 
  -3   1  -4  650.83   51.09 
  -3   1  -4  585.24   49.60 
   3  -1   4  614.64   51.29 
   3  -1   4  680.33   49.10 
   3  -1   4  552.14   55.09 
  -4   1  -4   91.49   12.30 
  -4   1  -4   78.79   13.30 
  -4   1  -4   88.89   11.80 
  -4   1  -4   79.39   10.40 
  -4   1  -4   88.99   11.60 
  -4   1  -4   86.29   10.90 
  -4   1  -4   93.39  119.99 
  -4   1  -4   86.89   12.00 
   4  -1   4   82.09   11.90 
   4  -1   4   89.29    9.90 
   4  -1   4   93.39    9.90 
   4  -1   4   72.19   11.00 
  -5   1  -4  134.99   15.80 
  -5   1  -4  157.08   18.30 
  -5   1  -4  149.19   16.50 
  -5   1  -4  176.58   18.80 
  -5   1  -4  155.88   18.30 
  -5   1  -4  158.48   16.60 
   5  -1   4  142.49   15.00 
   5  -1   4  183.48   14.40 
   5  -1   4  116.39   16.30 
  -6   1  -4    4.20    2.70 
  -6   1  -4    1.20    2.90 
  -6   1  -4    0.40    3.00 
  -6   1  -4    3.70    2.90 
  -6   1  -4    3.50    2.00 
   6  -1   4    2.00    1.70 
   6  -1   4    0.00    2.30 
   6  -1   4    2.40   40.70 
  -7   1  -4   40.90    4.70 
  -7   1  -4   41.80    4.80 
  -7   1  -4   55.09    6.70 
  -7   1  -4   30.30    5.50 
   6   0  -4    0.90    1.80 
   6   0  -4    0.10    4.10 
  -6   0   4   -0.80    4.10 
  -6   0   4   -2.20    2.90 
  -6   0   4   -2.80    1.80 
  -6   0   4   -0.60    2.30 
  -6   0   4    5.40    2.10 
  -6   0   4   15.60   48.00 
   5   0  -4   85.19   10.90 
   5   0  -4   88.99   11.30 
   5   0  -4   95.09   12.20 
  -5   0   4   76.89   14.90 
  -5   0   4   83.09   16.90 
  -5   0   4   42.30   88.29 
  -5   0   4   81.39   13.10 
  -5   0   4  110.29   13.90 
  -5   0   4  102.69   15.20 
  -5   0   4   93.79   14.30 
  -5   0   4  115.79   12.00 
   4   0  -4  112.19   11.10 
   4   0  -4   97.39   10.70 
  -4   0   4   80.59   12.40 
  -4   0   4   88.69   15.60 
  -4   0   4   94.29   14.30 
  -4   0   4   73.09   12.50 
  -4   0   4  116.99   11.40 
  -4   0   4   71.39   12.00 
  -4   0   4   -0.90  106.89 
  -4   0   4  105.49   14.20 
   3   0  -4  176.68   15.90 
   3   0  -4  176.58   16.00 
   3   0  -4  173.48   15.30 
  -3   0   4  190.18   17.20 
   2   0  -4  687.53   52.29 
   2   0  -4  680.33   51.59 
   2   0  -4  698.93   51.49 
  -2   0   4  680.43   52.19 
  -2   0   4  676.93   53.29 
  -2   0   4  679.43   54.19 
   1   0  -4 1250.97   93.89 
   1   0  -4 1162.88   92.69 
   1   0  -4 1267.37   93.19 
  -1   0   4 1308.97   95.39 
  -1   0   4 1292.87   93.89 
  -1   0   4 1295.47   97.89 
   0   0   4 9252.17  664.23 
   0   0   4 9360.86  666.33 
   0   0   4 8644.83  664.23 
  -1   0  -4 4050.69  330.07 
  -1   0  -4 4647.73  328.97 
   1   0   4 4564.34  330.87 
   1   0   4 4771.62  332.77 
   1   0   4 4472.55  330.07 
  -2   0  -4 1261.07   87.19 
  -2   0  -4 1127.69   86.59 
  -2   0  -4 1155.38   86.59 
   2   0   4 1169.58   88.69 
   2   0   4  996.80   86.69 
   2   0   4 1311.47   90.69 
  -3   0  -4  447.66   34.00 
  -3   0  -4  416.06   35.40 
   3   0   4  391.16   35.10 
   3   0   4  461.35   36.00 
   3   0   4  490.55   37.20 
   3   0   4  421.76   34.30 
  -4   0  -4   27.20    8.30 
  -4   0  -4   41.70    7.20 
   4   0   4   58.09    8.10 
   4   0   4   46.80    6.30 
   4   0   4   40.10    7.40 
  -5   0  -4    1.80    3.00 
  -5   0  -4    6.90    4.10 
  -5   0  -4   -0.60    2.40 
  -5   0  -4    0.60    1.90 
  -5   0  -4    3.40    3.00 
  -5   0  -4    2.00    3.40 
  -5   0  -4  -11.30   28.70 
  -5   0  -4    7.00    3.40 
   5   0   4   -0.50    3.80 
   5   0   4    2.30    2.30 
   5   0   4    7.20    3.20 
  -6   0  -4  382.86   34.30 
  -6   0  -4  379.06   33.80 
  -6   0  -4  320.47   31.80 
  -6   0  -4  383.06   35.90 
  -6   0  -4  367.16   33.50 
   6   0   4  366.36   28.90 
   6   0   4  332.37   30.00 
  -7   0  -4    8.30    2.70 
  -7   0  -4    6.10    3.20 
  -7   0  -4    3.50    2.40 
  -7   0  -4    6.00    3.60 
  -7   0  -4    2.70    2.50 
   7   0   4    8.20    2.30 
   7   0   4  -28.00   27.80 
   6  -1  -4    6.30    2.60 
  -6   1   4    0.30    1.50 
  -6   1   4   -1.80    1.90 
  -6   1   4  -15.40   26.00 
  -6   1   4   -2.50    3.80 
  -6   1   4    2.20    2.70 
   5  -1  -4  128.29   12.40 
  -5   1   4  112.89   14.20 
  -5   1   4  108.79   14.60 
  -5   1   4   22.70   74.19 
  -5   1   4  131.39   19.10 
  -5   1   4   99.39   15.00 
  -5   1   4  108.99   16.70 
   4  -1  -4  397.76   30.10 
   4  -1  -4  323.27   29.70 
  -4   1   4  350.06   33.80 
  -4   1   4  349.77   33.60 
  -4   1   4  321.57   32.80 
  -4   1   4  328.37   33.80 
  -4   1   4  395.76   36.20 
  -4   1   4  363.66   33.20 
  -4   1   4  181.48  196.58 
  -4   1   4  367.76   35.10 
   3  -1  -4  200.18   16.80 
   3  -1  -4  186.58   15.80 
  -3   1   4  182.68   20.30 
  -3   1   4  176.68   19.20 
  -3   1   4  101.79  137.49 
  -3   1   4  152.58   18.60 
   2  -1  -4  112.99    9.60 
   2  -1  -4   97.79   10.50 
  -2   1   4  106.59   10.00 
  -2   1   4   98.69   11.20 
  -2   1   4  103.79   11.90 
  -2   1   4   98.69   10.10 
   1  -1  -4 1046.30   76.59 
  -1   1   4 1105.09   79.89 
  -1   1   4  965.20   77.19 
  -1   1   4 1061.89   79.39 
  -1   1   4  996.20   77.49 
   0  -1  -4 4086.69  293.57 
   0  -1  -4 3950.70  294.57 
   0   1   4 4115.09  295.87 
   0   1   4 4089.79  297.07 
   0   1   4 3849.21  294.97 
  -1  -1  -4    5.20    2.10 
  -1  -1  -4    6.60    1.50 
   1   1   4   12.20    3.30 
   1   1   4    9.30    1.70 
   1   1   4    8.40    2.70 
   1   1   4   11.50    4.40 
  -2  -1  -4 2244.78  162.58 
  -2  -1  -4 2192.38  164.18 
  -2  -1  -4 2178.68  163.88 
   2   1   4 1887.11  162.48 
   2   1   4 2567.44  166.58 
   2   1   4 2492.85  164.78 
   2   1   4 1984.30  163.08 
  -3  -1  -4  592.94   49.40 
  -3  -1  -4  630.84   47.90 
  -3  -1  -4  644.54   49.10 
   3   1   4  617.44   52.39 
   3   1   4  671.73   50.99 
   3   1   4  665.53   49.70 
  -4  -1  -4   72.09    8.50 
  -4  -1  -4   68.19    9.40 
   4   1   4   57.59    9.00 
   4   1   4   67.59    7.80 
   4   1   4   76.59    8.50 
   4   1   4   63.29    8.50 
  -5  -1  -4   35.70    8.70 
  -5  -1  -4   34.80    9.80 
  -5  -1  -4   46.90    7.30 
  -5  -1  -4   37.40    8.80 
  -5  -1  -4   38.00    8.20 
  -5  -1  -4   40.90    8.20 
  -5  -1  -4   36.80    7.80 
  -5  -1  -4   -9.40   75.39 
   5   1   4   37.90    8.00 
   5   1   4   30.10    6.60 
   5   1   4   26.30    5.50 
   5   1   4   29.10    5.50 
  -6  -1  -4   76.39   11.60 
  -6  -1  -4  121.29  135.39 
  -6  -1  -4   71.99   11.80 
  -6  -1  -4   87.19   11.00 
  -6  -1  -4   64.59   11.70 
  -6  -1  -4   75.09   11.90 
  -6  -1  -4   50.89    8.90 
   6   1   4   79.09   11.60 
   6   1   4   22.00   66.19 
   6   1   4   46.40   10.10 
   6   1   4   78.59    8.40 
  -7  -1  -4    2.20    3.40 
  -7  -1  -4   14.80    4.40 
  -7  -1  -4   12.90    4.60 
   7   1   4   -0.80    3.20 
   7   1   4  -14.10   30.00 
   5  -2  -4    6.70    2.40 
  -5   2   4    5.80    3.50 
  -5   2   4    7.20    3.40 
  -5   2   4    4.40    3.10 
  -5   2   4   -5.00   30.20 
   4  -2  -4   62.69    7.70 
  -4   2   4   57.09   10.30 
  -4   2   4   64.79    9.90 
  -4   2   4   55.79   11.50 
  -4   2   4   38.00  106.99 
  -4   2   4   67.89    9.70 
  -4   2   4   71.59   12.00 
  -4   2   4   52.39   10.80 
   3  -2  -4  110.99   14.10 
   3  -2  -4  156.58   12.80 
  -3   2   4  125.29   15.60 
  -3   2   4  137.49   19.80 
  -3   2   4  127.99   16.60 
  -3   2   4  152.28   18.00 
  -3   2   4   -0.60   71.69 
  -3   2   4  132.09   16.90 
  -3   2   4  173.48   15.40 
  -3   2   4  155.18   17.80 
   2  -2  -4 1092.19   88.99 
   2  -2  -4 1226.58   88.49 
   2  -2  -4  991.70   90.39 
  -2   2   4 1295.77   89.69 
  -2   2   4 1297.87   89.59 
   1  -2  -4   41.20    5.20 
   1  -2  -4   49.60    4.90 
  -1   2   4   33.00    7.40 
  -1   2   4   39.50    5.40 
  -1   2   4   39.70    7.70 
  -1   2   4   46.70    6.80 
   0  -2  -4   51.79    4.60 
   0  -2  -4   50.59    5.50 
   0   2   4   52.09    7.90 
   0   2   4   45.00    4.70 
   0   2   4   59.09    7.80 
   0   2   4   47.70    8.20 
  -1  -2  -4 2563.94  207.88 
   1   2   4 2934.31  211.08 
   1   2   4 3209.68  210.28 
   1   2   4 3024.10  209.28 
   1   2   4 2427.56  206.58 
  -2  -2  -4  433.26   39.40 
  -2  -2  -4  510.65   41.30 
   2   2   4  564.34   41.10 
   2   2   4  518.95   42.30 
   2   2   4  557.04   39.10 
  -3  -2  -4  615.04   53.39 
  -3  -2  -4  732.43   54.99 
   3   2   4  741.13   53.09 
   3   2   4  711.03   54.29 
   3   2   4  707.33   55.69 
  -4  -2  -4  217.48   19.50 
  -4  -2  -4  206.98   18.60 
   4   2   4  196.98   17.90 
   4   2   4  246.38   19.20 
   4   2   4  177.08   19.00 
   4   2   4  232.88   18.90 
   4   2   4  215.58   17.20 
  -5  -2  -4    2.20    2.70 
  -5  -2  -4   12.50    3.60 
  -5  -2  -4    2.20    4.50 
  -5  -2  -4    0.00    4.70 
  -5  -2  -4   -8.00   43.90 
  -5  -2  -4   15.00    3.50 
  -5  -2  -4    3.30    3.60 
   5   2   4    8.40    4.20 
   5   2   4    6.10    3.40 
   5   2   4    5.40    3.00 
   5   2   4   10.60    2.80 
  -6  -2  -4  195.68   17.90 
  -6  -2  -4  170.18   21.20 
  -6  -2  -4  208.18   20.20 
  -6  -2  -4  217.88   22.30 
   6   2   4  152.98   17.00 
   6   2   4  176.38   15.90 
   6   2   4    4.90  112.29 
   6   2   4  173.08   16.90 
   6   2   4  215.48   18.60 
  -7  -2  -4    8.40    4.20 
  -7  -2  -4    1.90    2.90 
  -7  -2  -4    2.10    3.10 
   7   2   4    5.30    2.40 
   7   2   4    1.30    2.60 
   7   2   4   -6.40   53.79 
  -8  -2  -4   39.80    4.90 
   8   2   4    4.20   24.50 
   8   2   4   29.40    3.70 
  -5   3   4   27.80    4.60 
  -5   3   4   26.50    4.80 
   4  -3  -4    4.30    2.10 
  -4   3   4    9.20    3.60 
  -4   3   4   11.60    4.50 
  -4   3   4   10.10    3.60 
  -4   3   4  -32.40   24.90 
  -3   3   4  475.65   40.40 
  -3   3   4  448.16   38.20 
  -3   3   4  427.76   39.80 
  -3   3   4  169.38  172.78 
  -3   3   4  426.26   40.60 
   2  -3  -4   42.20    7.40 
  -2   3   4   24.10    8.20 
  -2   3   4   28.10    6.30 
  -2   3   4   28.30    6.80 
  -2   3   4   31.20    6.20 
  -2   3   4   29.80    7.20 
  -2   3   4   51.59    8.80 
   1  -3  -4  596.34   56.09 
   1  -3  -4  692.33   51.89 
   1  -3  -4  644.64   52.69 
  -1   3   4  765.72   55.39 
  -1   3   4  731.53   52.69 
   0  -3  -4   36.30    4.10 
   0  -3  -4   39.70    4.90 
   0   3   4   33.70    8.10 
   0   3   4   38.70    4.70 
   0   3   4   35.80    7.60 
   0   3   4   38.30    7.00 
  -1  -3  -4 1648.24  141.99 
   1   3   4 2078.59  144.89 
   1   3   4 1846.32  141.69 
   1   3   4 2093.89  145.29 
   1   3   4 1979.70  147.09 
  -2  -3  -4  158.18   15.30 
  -2  -3  -4  138.79   12.90 
  -2  -3  -4  149.88   13.90 
   2   3   4  173.58   17.80 
   2   3   4  146.39   12.50 
   2   3   4  166.18   15.20 
  -3  -3  -4   91.19   11.40 
  -3  -3  -4   99.39   12.20 
  -3  -3  -4  100.99    9.50 
   3   3   4  119.99   13.40 
   3   3   4  105.89   11.50 
   3   3   4  108.49    9.60 
  -4  -3  -4  513.65   47.50 
  -4  -3  -4  581.24   45.30 
   4   3   4  655.73   45.50 
   4   3   4  626.94   46.80 
   4   3   4  526.85   47.40 
  -5  -3  -4   37.30    8.90 
  -5  -3  -4   38.50    9.40 
  -5  -3  -4   40.00    6.20 
  -5  -3  -4   51.19    8.20 
  -5  -3  -4   39.50    7.50 
   5   3   4   28.90    5.90 
   5   3   4   30.50    6.00 
   5   3   4  -21.00   57.89 
   5   3   4   24.50    5.50 
   5   3   4   25.80    4.60 
  -6  -3  -4  117.19   16.50 
  -6  -3  -4  111.29   16.00 
  -6  -3  -4  160.78   18.30 
  -6  -3  -4  132.09   15.40 
   6   3   4  132.59   11.10 
   6   3   4  128.69   13.50 
   6   3   4   19.00   80.69 
   6   3   4  130.99   13.90 
  -7  -3  -4    8.90    4.00 
  -7  -3  -4   21.70    6.20 
  -7  -3  -4   16.30    4.80 
   7   3   4  -12.60   54.89 
  -8  -3  -4    4.00    2.20 
  -8  -3  -4    9.70    2.50 
   8   3   4    6.80    1.80 
   8   3   4   -1.70   25.70 
  -4   4   4    5.50    3.00 
  -3   4   4   37.20    7.60 
  -3   4   4   31.70    5.60 
  -3   4   4   19.10    5.70 
  -2   4   4  284.97   29.80 
  -2   4   4  337.47   31.00 
  -2   4   4  366.66   34.80 
   1  -4  -4    0.20    4.30 
  -1   4   4    2.50    3.30 
  -1   4   4    0.00    5.60 
  -1   4   4   13.60    4.90 
  -1   4   4   17.70    6.00 
  -1   4   4   14.00    4.60 
  -1   4   4    2.60    6.50 
  -1   4   4    5.50    4.90 
  -1   4   4   -0.40   70.99 
   0  -4  -4   94.69   13.10 
   0   4   4   86.49   12.80 
   0   4   4  114.09   14.40 
   0   4   4  134.19   14.40 
   0   4   4  117.89   11.10 
   0   4   4  108.29   14.20 
  -1  -4  -4  305.97   26.70 
  -1  -4  -4  257.97   27.80 
   1   4   4  275.47   26.30 
   1   4   4  290.47   23.00 
  -2  -4  -4  183.98   16.60 
  -2  -4  -4  210.08   24.20 
   2   4   4  177.48   20.30 
   2   4   4  189.48   16.00 
   2   4   4  194.68   19.70 
  -3  -4  -4  749.82   59.49 
  -3  -4  -4  718.43   57.69 
   3   4   4  728.23   58.29 
   3   4   4  711.83   55.29 
  -4  -4  -4  546.25   43.80 
  -4  -4  -4  529.25   40.30 
  -4  -4  -4  427.56   42.50 
   4   4   4  415.26   40.40 
   4   4   4  559.54   42.50 
   4   4   4  558.64   40.20 
   4   4   4  501.55   41.50 
   4   4   4  508.45   42.10 
  -5  -4  -4   13.50    6.30 
  -5  -4  -4   18.70    6.60 
  -5  -4  -4   18.20    7.20 
  -5  -4  -4   16.70    4.80 
   5   4   4   17.50    4.60 
   5   4   4    8.60    6.30 
   5   4   4   14.50    4.10 
   5   4   4   10.10    3.60 
   5   4   4   13.90   47.60 
  -6  -4  -4   19.40    6.90 
  -6  -4  -4   31.70    8.60 
  -6  -4  -4   27.00    7.50 
  -6  -4  -4   36.50    7.90 
   6   4   4   37.50    6.20 
   6   4   4  -30.40   35.90 
   6   4   4   39.70    8.10 
   6   4   4   23.30    4.90 
  -7  -4  -4    8.80    4.30 
  -7  -4  -4   21.20    6.20 
   7   4   4   -7.00   50.39 
  -8  -4  -4   38.10    6.00 
   8   4   4    9.20   40.70 
   8   4   4   53.59    5.90 
  -1   5   4   40.50    7.20 
  -1   5   4   57.29   10.80 
  -1   5   4   43.30    8.70 
  -1   5   4   59.09   11.80 
  -1   5   4   42.30    7.20 
   0  -5  -4   24.10    3.70 
   0   5   4   20.20    7.10 
   0   5   4   26.90    5.70 
   0   5   4   25.60    8.70 
   0   5   4   36.50    8.70 
   0   5   4   46.00   10.20 
   0   5   4   27.90    9.70 
  -1  -5  -4   16.90    3.30 
  -1  -5  -4   18.70    7.40 
   1   5   4   22.20    6.20 
   1   5   4   24.90    6.30 
   1   5   4   18.60    6.30 
   1   5   4   16.10    4.40 
   1   5   4   22.30    5.10 
   1   5   4   25.70    6.70 
  -2  -5  -4  147.39   15.10 
  -2  -5  -4  161.08   18.80 
   2   5   4  171.18   16.40 
   2   5   4  162.78   16.90 
   2   5   4  155.48   15.20 
   2   5   4  166.18   17.40 
   2   5   4  178.98   16.50 
   2   5   4  145.69   17.80 
   2   5   4  160.68   19.10 
   2   5   4  174.18   19.70 
  -3  -5  -4   85.49   13.50 
  -3  -5  -4  101.09   11.90 
  -3  -5  -4   72.39   10.90 
   3   5   4  102.09   11.40 
   3   5   4  116.19   11.00 
   3   5   4   91.89   13.30 
   3   5   4   79.99   10.50 
   3   5   4   95.99   13.20 
   3   5   4   79.79   11.80 
   3   5   4   77.69   11.60 
   3   5   4   97.99   10.30 
  -4  -5  -4   34.30    8.60 
  -4  -5  -4   48.80   10.60 
  -4  -5  -4   53.49    9.00 
  -4  -5  -4   37.40    9.60 
   4   5   4   50.69    7.80 
   4   5   4   48.30   10.50 
   4   5   4   45.20    8.40 
   4   5   4   50.79    7.30 
   4   5   4   47.00    7.90 
   4   5   4   60.49    9.40 
   4   5   4   51.09    7.50 
   4   5   4   43.60    8.40 
  -5  -5  -4  250.87   20.50 
  -5  -5  -4  158.08   34.80 
  -5  -5  -4  225.28   23.30 
   5   5   4  250.57   22.60 
   5   5   4  218.28   24.40 
   5   5   4  226.78   22.00 
   5   5   4  222.38   20.40 
   5   5   4  218.58   21.20 
   5   5   4  200.48   20.50 
   5   5   4  217.88   21.50 
  -6  -5  -4   13.90    6.00 
  -6  -5  -4    7.80    4.90 
  -6  -5  -4   -2.90    4.40 
   6   5   4   13.00    4.80 
   6   5   4  -15.40   33.50 
   6   5   4   16.40    3.70 
   6   5   4    7.90    3.50 
  -7  -5  -4   -1.80    1.60 
  -7  -5  -4   -3.30    2.60 
   7   5   4    5.10    3.50 
   7   5   4   -8.90   31.80 
   7   5   4    0.90    1.80 
  -8  -5  -4   15.50    3.70 
  -8  -5  -4   18.90    4.30 
   8   5   4  -24.10   18.00 
  -1   6   4    2.90    2.00 
  -1   6   4   -0.80    2.10 
  -1   6   4    0.20    2.20 
   0  -6  -4   19.00    3.50 
   0   6   4   24.30    7.30 
   0   6   4    7.80    3.60 
   0   6   4   16.50    4.70 
   0   6   4    8.10    3.90 
   0   6   4   29.80    7.40 
  -1  -6  -4   27.30    4.90 
   1   6   4   35.00    8.70 
   1   6   4   24.90    5.90 
   1   6   4   45.80    7.00 
   1   6   4   28.80    9.90 
  -2  -6  -4    6.50    2.80 
  -2  -6  -4   18.50    7.50 
   2   6   4   10.10    5.50 
   2   6   4    9.50    5.50 
   2   6   4    9.80    3.70 
   2   6   4   14.10    5.30 
   2   6   4   22.00    6.70 
   2   6   4    6.30    3.20 
   2   6   4    9.90    5.80 
  -3  -6  -4    6.10    5.20 
  -3  -6  -4    2.80    3.30 
   3   6   4    5.90    3.30 
   3   6   4    1.00    2.60 
   3   6   4    4.50    4.80 
   3   6   4    9.90    3.30 
   3   6   4    6.00    3.20 
  -4  -6  -4   38.30   13.20 
  -4  -6  -4   28.50    8.50 
  -4  -6  -4   35.00    8.60 
  -4  -6  -4   39.20    7.10 
   4   6   4   22.10    6.90 
   4   6   4   26.50    7.70 
   4   6   4   27.50    6.20 
   4   6   4   36.90    8.00 
   4   6   4   34.60    8.90 
   4   6   4   29.90    6.50 
  -5  -6  -4   16.50    5.30 
  -5  -6  -4   25.30    6.20 
  -5  -6  -4   10.50    5.40 
   5   6   4   21.40    5.00 
   5   6   4   19.20    5.60 
   5   6   4   18.40    4.60 
   5   6   4   27.70    6.30 
   5   6   4   21.50    5.50 
   5   6   4   25.10    6.70 
  -6  -6  -4   10.70    5.00 
  -6  -6  -4    6.80    4.10 
  -6  -6  -4    3.20    3.30 
   6   6   4    7.30    2.90 
   6   6   4   14.10    3.60 
   6   6   4   11.30    3.80 
  -7  -6  -4    4.40    3.40 
   7   6   4    8.40    3.20 
   7   6   4   10.70    4.10 
   0   7   4    7.30    3.10 
   0   7   4    3.60    2.20 
   0   7   4    7.50    2.40 
   0   7   4    3.20    3.00 
  -1  -7  -4    9.70    3.00 
   1   7   4   15.90    4.20 
   1   7   4   13.10    4.70 
   1   7   4   21.00    5.20 
   1   7   4   18.50    6.40 
  -2  -7  -4   19.30    4.60 
   2   7   4    9.70    4.30 
   2   7   4   21.10    5.60 
   2   7   4   36.30    6.90 
   2   7   4   19.00    6.80 
  -3  -7  -4   51.39    8.40 
  -3  -7  -4   37.30    7.10 
   3   7   4   44.10   10.20 
   3   7   4   55.49    8.50 
   3   7   4   55.59    8.20 
   3   7   4   53.59    9.80 
  -4  -7  -4    3.90    4.50 
  -4  -7  -4   -2.90    4.10 
   4   7   4    1.00    2.30 
   4   7   4    1.10    3.20 
   4   7   4   -0.70    2.70 
   4   7   4    2.50    2.70 
   4   7   4    4.90    3.40 
   4   7   4    3.40    2.50 
  -5  -7  -4    8.00    4.60 
  -5  -7  -4    2.10    3.40 
   5   7   4    0.70    2.40 
   5   7   4   -1.50    2.20 
   5   7   4    4.10    2.70 
   5   7   4   -1.30    1.60 
   5   7   4   -0.80    2.10 
   5   7   4    2.40    2.30 
  -6  -7  -4    4.70    2.40 
   6   7   4   11.90    2.80 
   6   7   4    8.20    3.60 
   6   7   4    3.30    2.50 
  -7  -7  -4    1.40    1.90 
   7   7   4    1.30    2.10 
   7   7   4    4.90    2.90 
  -2  -8  -4   34.00    6.10 
   2   8   4   47.40    5.70 
   2   8   4   46.10    6.70 
   2   8   4   28.00    4.60 
  -3  -8  -4   12.70    3.20 
   3   8   4    6.60    2.80 
   3   8   4   19.50    5.80 
   3   8   4   10.10    2.80 
   3   8   4    6.30    3.40 
   3   8   4   12.40    3.20 
  -4  -8  -4   12.00    3.60 
   4   8   4    8.90    3.10 
   4   8   4   14.00    4.20 
   4   8   4   10.00    2.70 
   4   8   4   14.10    3.20 
  -5  -8  -4   15.70    4.20 
  -5  -8  -4   19.80    3.50 
   5   8   4   30.90    5.90 
   5   8   4   16.60    4.40 
   5   8   4   27.70    4.30 
   5   7  -5    3.40    2.20 
   5   7  -5    8.00    2.20 
  -5  -7   5    9.60    3.40 
  -5  -7   5    8.50    2.40 
   4   7  -5    6.80    2.90 
   4   7  -5    9.00    2.40 
  -4  -7   5    9.60    4.20 
  -4  -7   5   10.20    3.20 
   3   7  -5    5.80    3.00 
   3   7  -5   10.90    4.30 
  -3  -7   5   16.30    3.70 
  -3  -7   5    2.20    3.00 
   2   7  -5    1.60    1.90 
   2   7  -5    1.00    1.70 
   2   7  -5    2.50    1.60 
   2   7  -5   -0.40    1.30 
  -2  -7   5    4.20    2.50 
   1   7  -5   30.50    5.20 
   1   7  -5   30.50    4.40 
   1   7  -5   22.50    4.10 
  -1  -7   5   33.30    5.60 
  -1  -7   5   40.50    4.90 
   0   7  -5   14.80    3.00 
   0   7  -5   14.70    3.70 
   0   7  -5   13.60    2.70 
   0  -7   5   22.40    3.90 
   6   6  -5    6.30    2.30 
  -6  -6   5   11.30    3.30 
  -6  -6   5   16.00    3.50 
   5   6  -5   70.49    9.20 
   5   6  -5   61.19    9.00 
  -5  -6   5   80.49   17.70 
  -5  -6   5   71.19   10.40 
   4   6  -5  111.29   14.50 
   4   6  -5   87.59   11.60 
  -4  -6   5   95.49   14.60 
  -4  -6   5  116.19   12.50 
   3   6  -5   51.79    8.10 
   3   6  -5   46.70   10.50 
   3   6  -5   64.29    9.60 
   3   6  -5   49.30    9.00 
  -3  -6   5   47.40   12.20 
   2   6  -5   29.50    4.90 
   2   6  -5   30.30    9.00 
   2   6  -5   25.30    6.10 
   2   6  -5   20.90    6.50 
   2   6  -5   31.20    5.40 
  -2  -6   5   33.30    6.30 
  -2  -6   5   32.40    6.70 
   1   6  -5   56.59    7.60 
   1   6  -5   54.89    9.50 
   1   6  -5   58.59    9.50 
   1   6  -5   67.89   11.10 
   1   6  -5   68.09    7.90 
   1   6  -5   49.10    7.10 
  -1  -6   5   52.49    9.20 
  -1  -6   5   52.69    7.70 
   0   6  -5   20.00    5.20 
   0   6  -5   22.20    5.40 
   0   6  -5   13.90    3.50 
   0   6  -5   15.40    4.20 
   0   6  -5   29.20    5.00 
   0   6  -5    9.80    4.70 
   0  -6   5   26.40    4.80 
   0  -6   5   19.00    4.30 
  -1   6  -5   11.00    3.10 
  -1   6  -5   10.00    3.20 
  -1   6  -5   15.50    4.80 
  -1   6  -5    9.00    3.60 
  -1   6  -5   13.90    4.30 
   1  -6   5   16.50    3.20 
  -2   6  -5   12.50    3.00 
  -2   6  -5   15.80    4.10 
  -2   6  -5   13.60    2.80 
   6   5  -5   33.90    8.70 
   6   5  -5   24.80    4.70 
  -6  -5   5   32.00    7.00 
  -6  -5   5   26.60    6.10 
   5   5  -5  113.49   14.90 
   5   5  -5   93.09   12.20 
   5   5  -5  128.79   14.70 
  -5  -5   5  153.08   15.00 
  -5  -5   5  144.89   17.60 
   4   5  -5   66.09   12.20 
   4   5  -5   89.19   12.30 
  -4  -5   5   88.39   11.20 
  -4  -5   5  108.39   15.80 
   3   5  -5    4.00    2.50 
   3   5  -5   -3.70    2.80 
   3   5  -5    1.40    2.70 
   3   5  -5   -0.50    1.80 
   3   5  -5    1.40    2.80 
  -3  -5   5    0.30    2.90 
  -3  -5   5   -6.10    4.90 
   2   5  -5  177.28   17.80 
   2   5  -5  123.79   18.30 
   2   5  -5  130.19   18.90 
   2   5  -5  150.38   15.80 
   2   5  -5  142.69   20.10 
  -2  -5   5  174.28   14.20 
  -2  -5   5  151.58   15.70 
  -2  -5   5  148.49   17.90 
  -2  -5   5  184.18   17.20 
   1   5  -5   84.59   11.20 
   1   5  -5   84.69   14.90 
   1   5  -5   99.19   10.70 
   1   5  -5   94.59   14.60 
   1   5  -5   92.69   11.00 
   1   5  -5   86.29   12.90 
  -1  -5   5   96.99    9.60 
  -1  -5   5   85.19   11.00 
  -1  -5   5  102.49   10.90 
  -1  -5   5  102.59   13.90 
   0   5  -5    4.10    3.20 
   0   5  -5    2.20    2.20 
   0   5  -5    1.60    2.60 
   0   5  -5    2.50    3.70 
   0   5  -5    0.90    3.90 
   0   5  -5    1.20    1.60 
   0  -5   5    2.20    2.30 
   0  -5   5    4.50    7.20 
   0  -5   5    4.70    2.20 
  -1   5  -5  446.86   38.30 
  -1   5  -5  362.56   40.20 
  -1   5  -5  402.46   36.40 
   1  -5   5  468.15   33.90 
   1  -5   5  395.36   36.90 
   1  -5   5  480.35   35.50 
  -2   5  -5   18.00    6.10 
  -2   5  -5   16.20    4.40 
  -2   5  -5   14.00    4.40 
  -2   5  -5   11.00    4.00 
  -2   5  -5   18.70    4.60 
  -2   5  -5   19.10    4.60 
   2  -5   5   22.70    4.50 
   2  -5   5   17.10    3.60 
  -3   5  -5   13.80    3.30 
  -3   5  -5   10.90    2.90 
  -3   5  -5    9.20    2.70 
  -3   5  -5    9.10    3.40 
   3  -5   5   16.00    3.30 
   7   4  -5    2.90    2.30 
   7   4  -5    4.10    1.80 
  -7  -4   5    2.30    1.90 
  -7  -4   5    1.20    1.60 
   6   4  -5   65.89    8.30 
   6   4  -5   61.89    9.30 
  -6  -4   5   69.69    9.40 
  -6  -4   5   49.60    9.00 
  -6  -4   5   60.19    9.50 
   5   4  -5   99.19    9.40 
   5   4  -5  111.39   13.90 
   5   4  -5  119.59   13.90 
   5   4  -5   89.49   11.50 
  -5  -4   5   83.29   12.40 
  -5  -4   5   95.89   13.00 
  -5  -4   5   85.59   13.10 
   4   4  -5   38.50    6.60 
   4   4  -5   30.00    8.40 
   4   4  -5   38.80   10.30 
  -4  -4   5   36.20    9.60 
  -4  -4   5   44.10    9.90 
  -4  -4   5   27.80    9.20 
  -4  -4   5   43.10    7.60 
   3   4  -5  292.07   25.20 
   3   4  -5  307.07   30.60 
   3   4  -5  287.47   28.00 
   3   4  -5  283.87   29.10 
  -3  -4   5  294.87   31.00 
  -3  -4   5  281.07   22.80 
  -3  -4   5  270.27   26.90 
  -3  -4   5  312.17   26.60 
  -3  -4   5  297.07   27.50 
   2   4  -5  276.67   28.10 
   2   4  -5  218.08   25.80 
   2   4  -5  295.97   23.50 
   2   4  -5  312.47   25.40 
   2   4  -5  233.78   28.10 
  -2  -4   5  270.67   24.00 
  -2  -4   5  222.98   24.70 
  -2  -4   5  260.87   22.70 
  -2  -4   5  246.38   23.90 
  -2  -4   5  256.97   21.00 
   1   4  -5   26.80    6.80 
   1   4  -5   32.70    5.90 
   1   4  -5   25.90    5.30 
   1   4  -5   30.80    8.10 
   1   4  -5   24.70    5.30 
   1   4  -5   40.70   10.20 
  -1  -4   5   33.40    9.90 
  -1  -4   5   23.40    4.50 
  -1  -4   5   21.90    5.30 
  -1  -4   5   27.90    5.10 
   0   4  -5  106.09   14.70 
   0   4  -5  128.39   14.70 
   0   4  -5  104.09   16.20 
   0   4  -5  135.39   12.50 
   0   4  -5  104.59   13.20 
   0   4  -5  119.59   12.80 
   0   4  -5  112.59   12.30 
   0   4  -5  104.19   13.70 
   0  -4   5  110.89   11.40 
   0  -4   5  129.89   14.90 
   0  -4   5  106.39   12.70 
   0  -4   5  117.89   10.50 
  -1   4  -5  166.98   17.60 
  -1   4  -5  181.98   18.90 
  -1   4  -5  191.18   17.30 
  -1   4  -5  148.39   19.30 
  -1   4  -5  158.58   17.50 
  -1   4  -5  200.98   19.90 
  -1   4  -5  182.08   22.50 
  -1   4  -5  169.08   19.00 
   1  -4   5  170.48   16.00 
   1  -4   5  172.38   14.90 
   1  -4   5  178.48   20.20 
  -2   4  -5  128.29   16.10 
  -2   4  -5  144.59   15.90 
  -2   4  -5  109.89   16.90 
  -2   4  -5  142.19   16.30 
  -2   4  -5  144.89   15.50 
   2  -4   5  127.99   14.30 
   2  -4   5  115.69   11.90 
  -3   4  -5   60.09    9.40 
  -3   4  -5   55.79   10.00 
  -3   4  -5   72.49   10.60 
  -3   4  -5   75.99    9.30 
  -3   4  -5   64.09    9.80 
  -3   4  -5   49.30    9.20 
   3  -4   5   76.49    7.70 
   3  -4   5   70.19    8.00 
  -4   4  -5    6.10    2.60 
  -4   4  -5    6.20    2.70 
  -4   4  -5    7.50    2.80 
  -4   4  -5    0.80    1.80 
  -4   4  -5    2.80    2.10 
   4  -4   5    5.80    2.00 
   4  -4   5    4.50    1.70 
  -7  -3   5   22.90    4.10 
  -7  -3   5   14.00    3.60 
  -7  -3   5    1.20   27.10 
   6   3  -5   69.99    7.80 
   6   3  -5   68.69   10.30 
  -6  -3   5   75.79   10.30 
  -6  -3   5   89.29  130.29 
  -6  -3   5   52.59    9.80 
  -6  -3   5   70.79   10.00 
  -6  -3   5   79.79   12.60 
   5   3  -5   81.69   11.50 
   5   3  -5   90.29   13.50 
   5   3  -5  110.19   10.50 
   5   3  -5   96.49   10.40 
  -5  -3   5   12.00   74.59 
  -5  -3   5   91.99   13.50 
  -5  -3   5  119.39   15.10 
  -5  -3   5   94.49   12.70 
  -5  -3   5   97.19   14.70 
  -5  -3   5   88.59   13.20 
   4   3  -5  203.78   20.50 
   4   3  -5  183.58   20.30 
   4   3  -5  260.47   24.20 
   4   3  -5  254.97   19.50 
   4   3  -5  207.98   23.10 
  -4  -3   5  205.58   22.70 
  -4  -3   5  193.88   22.80 
  -4  -3   5  241.28   22.40 
  -4  -3   5  225.28   23.90 
  -4  -3   5  238.98   25.40 
   3   3  -5    3.30    2.40 
   3   3  -5    1.00    3.40 
   3   3  -5   -4.50    3.00 
   3   3  -5    2.90    2.80 
  -3  -3   5    3.50    6.20 
  -3  -3   5    4.30    2.70 
  -3  -3   5   -4.60   11.00 
  -3  -3   5    6.30    4.50 
   2   3  -5  205.98   20.10 
   2   3  -5  260.07   19.80 
   2   3  -5  236.98   20.30 
  -2  -3   5  244.38   21.30 
  -2  -3   5  183.68   23.60 
  -2  -3   5  218.98   21.10 
   1   3  -5 1066.09   75.69 
   1   3  -5  966.60   75.69 
   1   3  -5  883.11   75.79 
  -1  -3   5 1046.80   76.09 
  -1  -3   5  859.21   80.49 
  -1  -3   5 1093.39   75.09 
  -1  -3   5 1026.10   77.69 
   0   3  -5   88.69   10.90 
   0   3  -5  112.49   10.80 
   0  -3   5  103.09    9.80 
   0  -3   5  107.89   13.00 
  -1   3  -5  173.08   20.00 
  -1   3  -5  176.98   21.90 
  -1   3  -5  216.18   18.90 
  -1   3  -5  203.38   19.10 
  -1   3  -5  197.28   18.30 
  -1   3  -5  192.98   21.10 
   1  -3   5  233.78   17.80 
   1  -3   5  219.68   21.40 
   1  -3   5  163.98   29.40 
  -2   3  -5  149.39   19.50 
  -2   3  -5  141.09   17.60 
  -2   3  -5  193.08   18.30 
  -2   3  -5  139.69   16.10 
  -2   3  -5  156.18   17.70 
  -2   3  -5  171.28   15.90 
  -2   3  -5  157.98   17.00 
  -2   3  -5  155.08   16.20 
   2  -3   5  162.48   19.60 
   2  -3   5  137.99   14.50 
   2  -3   5  167.48   14.80 
   2  -3   5  153.88   13.50 
  -3   3  -5  544.55   45.20 
  -3   3  -5  544.85   43.60 
  -3   3  -5  455.35   45.10 
  -3   3  -5  451.95   42.40 
  -3   3  -5  486.75   44.30 
  -3   3  -5  479.45   44.30 
  -3   3  -5  565.64   42.70 
  -3   3  -5  583.74   44.20 
  -3   3  -5  504.65   45.70 
   3  -3   5  533.35   41.10 
   3  -3   5  508.05   39.50 
   3  -3   5  459.95   44.90 
  -4   3  -5   19.60    5.80 
  -4   3  -5   35.20    8.80 
  -4   3  -5   21.60    6.10 
  -4   3  -5   27.90    6.50 
  -4   3  -5   22.30    5.30 
  -4   3  -5   35.10    7.30 
   4  -3   5   27.90    5.30 
   4  -3   5   25.40    4.80 
  -5   3  -5   24.40    5.00 
  -5   3  -5   31.30    4.90 
  -5   3  -5   14.50    4.30 
   5  -3   5   27.70    3.90 
   5  -3   5   26.80    3.80 
   5  -3   5   19.40    3.30 
   7   2  -5   11.40    2.80 
   7   2  -5    7.20    2.00 
  -7  -2   5    7.90    2.70 
  -7  -2   5   10.70    3.50 
  -7  -2   5   14.40    3.20 
  -7  -2   5    3.90   24.40 
   6   2  -5   24.90    6.60 
   6   2  -5   18.20    4.30 
   6   2  -5   32.40    5.40 
  -6  -2   5   -3.30   42.90 
  -6  -2   5   24.00    6.00 
  -6  -2   5   21.80    6.90 
  -6  -2   5   25.00    6.70 
  -6  -2   5   17.70    5.50 
  -6  -2   5   41.60    8.10 
   5   2  -5   93.99   13.00 
   5   2  -5   89.29   10.00 
   5   2  -5   72.89   13.60 
   5   2  -5   75.59   12.30 
  -5  -2   5   82.09   13.30 
  -5  -2   5   87.29   13.10 
  -5  -2   5   87.69   12.20 
  -5  -2   5   82.89   99.79 
  -5  -2   5   62.49   11.00 
  -5  -2   5  100.69   13.30 
   4   2  -5  383.96   31.30 
   4   2  -5  398.56   33.10 
   4   2  -5  435.36   31.40 
   4   2  -5  420.86   35.70 
  -4  -2   5  201.58  205.18 
  -4  -2   5  411.76   37.10 
  -4  -2   5  359.46   35.70 
  -4  -2   5  368.96   37.60 
  -4  -2   5  369.96   33.80 
  -4  -2   5  343.97   34.80 
  -4  -2   5  355.66   35.90 
  -4  -2   5  358.36   34.10 
   3   2  -5  488.65   41.60 
   3   2  -5  484.25   40.30 
   3   2  -5  574.34   42.50 
   3   2  -5  530.55   40.00 
  -3  -2   5  482.65   43.30 
   2   2  -5   58.09    7.30 
   2   2  -5   57.19    7.70 
   2   2  -5   48.80    7.40 
   2   2  -5   61.49    6.60 
  -2  -2   5   72.39    8.50 
  -2  -2   5   74.19    9.20 
   1   2  -5  347.07   31.10 
   1   2  -5  404.76   31.00 
   1   2  -5  359.76   31.70 
   1   2  -5  385.46   30.30 
  -1  -2   5  386.36   32.40 
  -1  -2   5  384.66   36.40 
  -1  -2   5  446.56   32.20 
   0   2  -5 1041.80   81.69 
   0   2  -5 1083.79   82.99 
   0   2  -5 1156.38   81.69 
   0  -2   5 1138.59   81.09 
   0  -2   5 1152.08   83.99 
   0  -2   5  945.01   86.19 
   0  -2   5 1078.09   81.49 
  -1   2  -5  247.18   22.50 
  -1   2  -5  241.58   21.20 
  -1   2  -5  276.17   21.70 
   1  -2   5  260.77   24.10 
   1  -2   5  209.68   25.70 
   1  -2   5  290.47   21.20 
  -2   2  -5 1186.48   88.29 
  -2   2  -5 1080.99   89.59 
  -2   2  -5 1193.88   89.89 
   2  -2   5 1209.78   87.49 
   2  -2   5 1136.59   91.19 
  -3   2  -5  134.79   18.30 
  -3   2  -5  171.78   16.00 
  -3   2  -5  164.48   17.60 
  -3   2  -5  166.38   17.00 
  -3   2  -5  145.79   17.00 
  -3   2  -5  158.98   17.50 
  -3   2  -5  142.59   18.10 
  -3   2  -5  176.48   17.30 
  -3   2  -5  149.29   15.90 
   3  -2   5  166.48   14.90 
   3  -2   5  141.59   15.30 
   3  -2   5  162.68   18.50 
  -4   2  -5   34.10    7.90 
  -4   2  -5   27.10    7.60 
  -4   2  -5   28.10    7.40 
  -4   2  -5   23.80    6.00 
  -4   2  -5   21.60    5.50 
  -4   2  -5   31.30    7.50 
  -4   2  -5   29.20    7.10 
   4  -2   5   25.50    5.20 
   4  -2   5   11.90    8.20 
   4  -2   5   34.20    8.60 
  -5   2  -5   37.30    8.50 
  -5   2  -5   35.60    7.80 
  -5   2  -5   49.40    7.40 
  -5   2  -5   38.80    9.30 
  -5   2  -5   56.09    9.80 
  -5   2  -5   42.10    7.30 
   5  -2   5   36.40    5.70 
   5  -2   5   42.20    5.70 
  -6   2  -5    5.60    2.80 
  -6   2  -5    6.20    2.70 
  -6   2  -5    8.00    2.60 
  -6   2  -5    9.70    2.90 
   6  -2   5    5.00    1.80 
   6  -2   5    9.20    2.20 
   6   1  -5    0.80    2.20 
   6   1  -5    4.90    3.40 
   6   1  -5    4.60    2.80 
  -6  -1   5    5.40    3.20 
  -6  -1   5   -0.60    2.70 
  -6  -1   5    1.00    2.70 
  -6  -1   5    6.90   22.70 
  -6  -1   5   11.40    4.90 
  -6  -1   5    5.50    3.40 
   5   1  -5   12.90    4.30 
   5   1  -5   10.20    3.70 
   5   1  -5    1.80    2.90 
  -5  -1   5   10.50    5.00 
  -5  -1   5   10.20    4.70 
  -5  -1   5    4.80   51.39 
  -5  -1   5    1.30    3.40 
  -5  -1   5    7.00    7.10 
  -5  -1   5    4.70    3.80 
  -5  -1   5    7.10    3.60 
   4   1  -5   36.30    6.20 
   4   1  -5   48.80    7.70 
   4   1  -5   34.90    6.90 
   4   1  -5   43.30    7.70 
  -4  -1   5   40.80    9.10 
  -4  -1   5   47.10    8.10 
  -4  -1   5   42.50    7.60 
  -4  -1   5   45.40    9.00 
  -4  -1   5   47.90   11.00 
  -4  -1   5   42.00    9.70 
   3   1  -5  391.46   33.30 
   3   1  -5  384.66   31.90 
   3   1  -5  426.56   31.80 
   3   1  -5  443.86   33.30 
  -3  -1   5  359.46   35.00 
   2   1  -5  555.44   41.60 
   2   1  -5  537.65   42.10 
   2   1  -5  529.65   40.80 
   2   1  -5  533.05   40.20 
  -2  -1   5  554.24   43.80 
  -2  -1   5  448.76   40.20 
  -2  -1   5  555.64   43.70 
   1   1  -5  588.34   46.20 
   1   1  -5  615.94   47.90 
   1   1  -5  654.63   47.20 
   1   1  -5  552.34   47.80 
  -1  -1   5  679.53   49.10 
  -1  -1   5  559.94   50.29 
  -1  -1   5  674.33   48.20 
   0   1  -5 1343.47   96.79 
   0   1  -5 1338.07   97.29 
   0   1  -5 1333.07   98.69 
   0  -1   5 1460.25   98.39 
   0  -1   5 1152.58  101.09 
   0  -1   5 1219.68   99.99 
  -1   1  -5  820.22   59.79 
  -1   1  -5  838.82   57.99 
  -1   1  -5  786.62   58.09 
   1  -1   5  645.94   61.79 
   1  -1   5  761.42   60.39 
   1  -1   5  748.03   57.49 
  -2   1  -5  149.09   15.10 
  -2   1  -5  146.89   13.60 
  -2   1  -5  166.98   13.90 
   2  -1   5  144.39   16.00 
   2  -1   5  157.88   13.30 
  -3   1  -5  548.45   41.80 
  -3   1  -5  448.66   43.20 
  -3   1  -5  456.05   40.00 
   3  -1   5  518.25   39.20 
   3  -1   5  438.26   42.80 
   3  -1   5  566.14   44.90 
  -4   1  -5   49.80    8.00 
  -4   1  -5   75.69   10.50 
  -4   1  -5   65.89   10.20 
  -4   1  -5   53.39    9.80 
  -4   1  -5   71.49    9.90 
  -4   1  -5   69.09   10.10 
  -4   1  -5   54.49    9.60 
   4  -1   5   61.09    7.20 
   4  -1   5   12.10   52.99 
   4  -1   5   42.50    9.30 
   4  -1   5   61.09    7.90 
   4  -1   5   54.49   10.70 
  -5   1  -5   31.70    6.60 
  -5   1  -5   25.70    7.00 
  -5   1  -5   15.80    6.00 
  -5   1  -5   17.50    6.50 
  -5   1  -5   17.90    5.10 
  -5   1  -5   19.90    6.00 
   5  -1   5    2.50    5.80 
   5  -1   5   26.00    4.70 
   5  -1   5   15.90    3.90 
   5  -1   5   10.30   47.30 
  -6   1  -5   45.00    7.00 
  -6   1  -5   53.89    8.60 
  -6   1  -5   61.29    8.90 
  -6   1  -5   61.79    9.40 
   6  -1   5   49.70    5.90 
   6  -1   5   43.80    6.10 
   6   0  -5    5.60    2.70 
   6   0  -5    7.30    3.00 
  -6   0   5    7.90    3.20 
  -6   0   5    0.30   21.70 
  -6   0   5    2.60    3.00 
  -6   0   5   -0.30    3.70 
  -6   0   5    3.50    2.80 
   5   0  -5  288.77   23.60 
   5   0  -5  220.18   21.80 
  -5   0   5  244.88   26.50 
  -5   0   5  234.98   25.70 
  -5   0   5  263.27   28.10 
  -5   0   5  260.37   25.30 
   4   0  -5  236.48   21.60 
   4   0  -5  282.67   23.40 
   4   0  -5  273.27   23.00 
  -4   0   5  204.88   24.40 
  -4   0   5  266.77   25.30 
  -4   0   5  257.57   26.90 
  -4   0   5  258.87   27.60 
  -4   0   5  228.48  223.08 
  -4   0   5  218.58   25.50 
  -4   0   5  235.68   25.50 
   3   0  -5  536.65   37.90 
   3   0  -5  525.55   38.00 
   3   0  -5  481.15   36.20 
  -3   0   5  407.06   39.60 
  -3   0   5  459.35   41.40 
  -3   0   5  389.76   40.10 
  -3   0   5  396.06   39.40 
   2   0  -5  189.98   15.90 
   2   0  -5  203.18   17.50 
   2   0  -5  196.18   17.40 
   2   0  -5  205.08   16.60 
  -2   0   5  198.78   19.00 
  -2   0   5  200.68   19.60 
   1   0  -5 2679.33  211.48 
   1   0  -5 2579.64  209.48 
   1   0  -5 2971.80  211.48 
   1   0  -5 2910.31  210.38 
  -1   0   5 2966.90  213.08 
  -1   0   5 2925.11  211.28 
  -1   0   5 3032.60  214.18 
   0   0  -5 2670.93  206.18 
   0   0   5 2825.22  207.88 
   0   0   5 3021.50  207.78 
   0   0   5 2722.53  209.88 
  -1   0  -5  447.86   40.60 
  -1   0  -5  492.45   37.80 
  -1   0  -5  526.95   40.00 
   1   0   5  467.65   41.70 
   1   0   5  512.35   41.90 
   1   0   5  531.35   38.90 
  -2   0  -5  572.94   42.90 
  -2   0  -5  527.45   43.00 
  -2   0  -5  555.24   41.30 
   2   0   5  547.55   45.50 
   2   0   5  569.74   43.70 
   2   0   5  478.65   41.10 
  -3   0  -5   97.39   10.60 
  -3   0  -5   82.69    8.60 
   3   0   5   93.09    9.00 
   3   0   5   89.09   11.20 
   3   0   5   83.69   13.10 
   3   0   5   80.19    9.70 
  -4   0  -5  108.39   13.60 
  -4   0  -5  116.29   12.90 
  -4   0  -5  102.79   11.00 
  -4   0  -5   96.09   13.00 
  -4   0  -5  116.69   13.40 
  -4   0  -5  115.59   12.80 
   4   0   5   93.49   12.00 
   4   0   5   89.29    9.90 
   4   0   5  125.69   12.80 
   4   0   5   41.70   80.89 
   4   0   5  101.59   10.80 
  -5   0  -5   36.20    8.90 
  -5   0  -5   40.30    8.30 
  -5   0  -5   31.70    6.60 
  -5   0  -5   42.70   12.80 
  -5   0  -5   38.50    8.20 
  -5   0  -5   43.40   10.60 
   5   0   5   36.40    8.80 
   5   0   5   25.20   69.59 
   5   0   5   31.60    5.70 
  -6   0  -5    6.40    3.40 
  -6   0  -5    1.40    2.20 
  -6   0  -5   11.90    6.50 
  -6   0  -5   10.90    4.90 
  -6   0  -5    4.70    4.20 
  -6   0  -5    5.10    4.20 
   6   0   5   -0.20   25.70 
   6   0   5    3.90    2.50 
  -7   0  -5   32.80    6.90 
  -7   0  -5   40.70    7.20 
  -7   0  -5   33.60    5.60 
  -7   0  -5   34.50    5.40 
  -7   0  -5   28.50    5.60 
   7   0   5   35.70    4.10 
   7   0   5    1.00   25.40 
   6  -1  -5   21.20    3.90 
  -6   1   5   25.30    4.00 
  -6   1   5    3.30   40.70 
  -6   1   5   20.90    4.40 
  -6   1   5   20.40    4.70 
   5  -1  -5   17.10    6.40 
  -5   1   5   11.70    5.10 
  -5   1   5  -11.40   17.00 
  -5   1   5    7.10    5.00 
  -5   1   5   11.70    3.50 
  -5   1   5   11.40    4.40 
   4  -1  -5  199.98   18.90 
   4  -1  -5  225.58   18.70 
  -4   1   5  193.98   21.30 
  -4   1   5  229.98   24.20 
  -4   1   5  190.48   22.00 
  -4   1   5  178.08   22.20 
  -4   1   5  148.49   20.00 
  -4   1   5  172.68   19.90 
  -4   1   5  -17.10  153.28 
   3  -1  -5   35.50    7.10 
  -3   1   5    3.70   42.50 
  -3   1   5   19.10    7.30 
  -3   1   5   20.80    6.20 
  -3   1   5    9.40    4.50 
  -3   1   5   19.30    4.70 
  -3   1   5   29.40    6.80 
  -3   1   5   10.60    5.80 
   2  -1  -5  249.18   22.40 
   2  -1  -5  212.58   18.40 
   2  -1  -5  227.28   18.00 
  -2   1   5  191.88   20.80 
  -2   1   5  222.28   22.10 
   1  -1  -5  153.28   13.10 
   1  -1  -5  179.48   15.10 
   1  -1  -5  181.78   13.90 
   1  -1  -5  148.49   15.70 
  -1   1   5  169.68   16.80 
  -1   1   5  164.08   15.10 
  -1   1   5  189.68   17.90 
   0  -1  -5 1695.03  126.79 
   0  -1  -5 1721.03  125.49 
   0   1   5 1701.33  128.09 
   0   1   5 1685.73  129.79 
   0   1   5 1727.03  127.29 
  -1  -1  -5  515.95   39.90 
  -1  -1  -5  476.55   41.50 
   1   1   5  589.64   42.50 
   1   1   5  560.34   44.50 
  -2  -1  -5  204.68   17.90 
  -2  -1  -5  208.38   16.40 
  -2  -1  -5  215.08   20.70 
  -2  -1  -5  199.88   18.30 
   2   1   5  218.88   20.60 
   2   1   5  225.58   19.00 
   2   1   5  211.08   16.50 
   2   1   5  197.18   16.40 
  -3  -1  -5 1491.05  123.99 
  -3  -1  -5 1681.73  123.69 
  -3  -1  -5 1549.94  121.99 
   3   1   5 1654.83  126.39 
   3   1   5 1709.33  124.59 
   3   1   5 1856.71  126.79 
  -4  -1  -5  334.97   28.40 
   4   1   5  322.97   27.70 
   4   1   5  335.77   31.00 
   4   1   5  324.97   28.00 
   4   1   5  312.77   26.70 
  -5  -1  -5   21.80    6.30 
  -5  -1  -5   12.90    4.50 
  -5  -1  -5   23.30    5.10 
  -5  -1  -5   13.50    5.00 
  -5  -1  -5    8.60    4.20 
  -5  -1  -5   17.70    4.90 
   5   1   5    7.70    3.50 
   5   1   5   13.90    5.00 
   5   1   5  -44.50   53.29 
   5   1   5   10.40    3.60 
  -6  -1  -5  133.59   14.50 
  -6  -1  -5  128.29   15.10 
  -6  -1  -5  166.38   15.80 
  -6  -1  -5  154.78   16.60 
  -6  -1  -5  109.89   13.30 
  -6  -1  -5  122.49   16.00 
  -6  -1  -5  139.09   16.90 
   6   1   5  136.79   12.20 
   6   1   5  121.29   14.80 
   6   1   5  116.49   12.80 
  -7  -1  -5    3.50    2.50 
  -7  -1  -5    0.20    1.90 
  -7  -1  -5    4.80    3.10 
  -7  -1  -5    5.40    2.60 
  -7  -1  -5    3.50    3.10 
   7   1   5  -11.40   30.30 
   7   1   5    1.20    1.80 
   5  -2  -5   13.10    3.20 
  -5   2   5   14.20    5.30 
  -5   2   5   16.60    3.40 
  -5   2   5   22.40    6.00 
  -5   2   5    0.90   47.30 
  -5   2   5   19.70    4.90 
   4  -2  -5   48.90    6.70 
  -4   2   5   59.39   10.90 
  -4   2   5   21.80   62.69 
  -4   2   5   38.50    9.20 
   3  -2  -5  910.21   60.89 
   3  -2  -5  892.11   62.89 
  -3   2   5  786.22   63.69 
  -3   2   5  653.93   64.29 
  -3   2   5  792.42   65.79 
  -3   2   5  666.73   64.49 
  -3   2   5  801.12   66.29 
  -3   2   5  761.52   66.99 
   2  -2  -5   15.00    3.50 
  -2   2   5    7.70    3.80 
  -2   2   5  -37.10   43.40 
  -2   2   5    7.90    4.50 
  -2   2   5   17.10    6.80 
  -2   2   5   13.00    6.50 
   1  -2  -5  796.32   56.09 
   1  -2  -5  718.53   55.89 
  -1   2   5  685.43   58.49 
  -1   2   5  725.03   56.89 
  -1   2   5  706.73   59.59 
   0  -2  -5  130.79   10.60 
   0  -2  -5  125.19   12.10 
   0   2   5  130.19   13.20 
   0   2   5  138.49   14.40 
   0   2   5  135.09   16.20 
  -1  -2  -5  216.48   19.10 
  -1  -2  -5  210.68   18.90 
   1   2   5  229.78   22.40 
   1   2   5  224.08   20.10 
   1   2   5  259.27   21.20 
  -2  -2  -5  774.12   69.59 
  -2  -2  -5  916.71   69.19 
  -2  -2  -5  971.90   70.19 
   2   2   5  969.50   72.79 
   2   2   5 1059.69   70.59 
   2   2   5  779.62   66.79 
  -3  -2  -5 1467.85  102.39 
  -3  -2  -5 1199.08  102.19 
  -3  -2  -5 1275.17  100.99 
   3   2   5 1325.77  105.79 
   3   2   5 1387.46   99.49 
   3   2   5 1392.96  101.99 
  -4  -2  -5   98.29   10.90 
  -4  -2  -5   92.49   11.50 
   4   2   5  111.59   11.70 
   4   2   5   91.49   11.50 
   4   2   5  109.59   10.70 
  -5  -2  -5   69.59    9.70 
  -5  -2  -5   79.29   11.00 
  -5  -2  -5   80.69    9.40 
  -5  -2  -5   63.49   10.10 
  -5  -2  -5   85.39   12.00 
   5   2   5   66.59    7.00 
   5   2   5   63.19    9.80 
   5   2   5   58.79    9.40 
   5   2   5   50.29    7.80 
   5   2   5  -38.80   58.99 
  -6  -2  -5    7.10    4.70 
  -6  -2  -5   -0.20    4.40 
  -6  -2  -5   13.90    4.30 
  -6  -2  -5    5.90    4.10 
  -6  -2  -5    4.50    3.70 
   6   2   5    9.60    4.50 
   6   2   5    8.80    2.90 
   6   2   5    9.10    3.50 
   6   2   5  -37.10   23.10 
  -7  -2  -5    5.30    3.30 
  -7  -2  -5    6.00    3.50 
  -7  -2  -5   10.00    4.00 
   7   2   5    3.80    2.00 
   7   2   5   11.60   60.59 
  -8  -2  -5   28.20    4.70 
  -4   3   5   30.20    5.40 
  -4   3   5    1.20   44.60 
  -4   3   5   20.30    5.20 
  -4   3   5   19.40    6.80 
   3  -3  -5  286.27   21.30 
  -3   3   5  307.97   27.20 
  -3   3   5  251.17   23.40 
  -3   3   5  229.98   26.00 
  -3   3   5  216.18   27.30 
  -3   3   5  221.18   25.10 
  -3   3   5   68.89  104.69 
   2  -3  -5  559.74   40.90 
  -2   3   5  468.05   43.90 
  -2   3   5  476.05   42.80 
  -2   3   5  527.55   44.40 
  -2   3   5  512.35   42.50 
  -2   3   5  481.85   43.20 
  -2   3   5  407.96   42.40 
   1  -3  -5   75.49   12.30 
  -1   3   5   69.29   11.30 
  -1   3   5   56.39    9.60 
  -1   3   5   58.09   10.80 
   0  -3  -5  339.17   28.40 
   0  -3  -5  338.67   28.50 
   0   3   5  370.76   31.20 
   0   3   5  407.96   34.60 
   0   3   5  322.37   33.00 
  -1  -3  -5  772.12   57.39 
  -1  -3  -5  627.54   53.09 
   1   3   5  737.83   56.89 
   1   3   5  740.43   56.39 
   1   3   5  644.64   58.09 
  -2  -3  -5  974.20   71.69 
  -2  -3  -5  919.91   70.09 
  -2  -3  -5  993.50   72.79 
   2   3   5  988.40   72.59 
   2   3   5  914.21   74.79 
   2   3   5  789.62   68.69 
  -3  -3  -5 1791.12  146.59 
  -3  -3  -5 2120.99  149.49 
   3   3   5 1837.92  150.38 
   3   3   5 2191.48  148.99 
   3   3   5 1926.21  145.19 
  -4  -3  -5   82.29    9.10 
  -4  -3  -5   79.09   11.40 
  -4  -3  -5   72.49   10.60 
   4   3   5   63.09   10.70 
   4   3   5   80.49   10.40 
   4   3   5   79.99    8.40 
  -5  -3  -5   19.70    5.90 
  -5  -3  -5    3.20    5.00 
  -5  -3  -5   11.70    3.90 
  -5  -3  -5   -1.60    5.90 
  -5  -3  -5    3.20    5.10 
   5   3   5    7.90    4.00 
   5   3   5    7.30    3.70 
   5   3   5    4.20    2.70 
   5   3   5  -45.40   29.20 
  -6  -3  -5   32.70    8.30 
  -6  -3  -5   39.50    7.20 
  -6  -3  -5   32.00    9.00 
  -6  -3  -5   39.40    7.40 
   6   3   5   23.80    5.50 
   6   3   5   24.70    5.70 
   6   3   5  -10.50   50.89 
  -7  -3  -5   14.30    4.90 
  -7  -3  -5   22.20    6.40 
   7   3   5   26.00    4.20 
   7   3   5  -28.20   69.49 
  -8  -3  -5   16.00    4.00 
  -8  -3  -5   18.60    3.90 
  -3   4   5   22.30   40.70 
  -3   4   5    3.50    3.80 
  -3   4   5    5.70    3.00 
  -2   4   5  -39.90   44.60 
  -2   4   5   40.20    8.10 
  -2   4   5   39.80   10.30 
  -1   4   5  441.36   39.20 
  -1   4   5  483.95   39.40 
  -1   4   5  405.56   36.20 
  -1   4   5  413.16   39.00 
  -1   4   5  447.66   39.90 
  -1   4   5  456.15   39.80 
   0  -4  -5    6.00    4.30 
   0   4   5   11.30    5.30 
   0   4   5    4.80   44.20 
   0   4   5   10.60    3.50 
   0   4   5    1.90    4.00 
   0   4   5   11.10    4.00 
   0   4   5    7.00    3.20 
  -1  -4  -5   14.00    5.20 
  -1  -4  -5   19.20    3.30 
   1   4   5    9.40    4.10 
   1   4   5   15.60    5.10 
   1   4   5   29.10    7.30 
   1   4   5   25.60    6.60 
  -2  -4  -5  180.08   18.60 
  -2  -4  -5  159.88   15.70 
   2   4   5  144.49   18.80 
   2   4   5  182.88   18.10 
  -3  -4  -5    4.50    4.80 
  -3  -4  -5    6.00    3.10 
   3   4   5    0.20    3.70 
   3   4   5    9.10    3.30 
   3   4   5    5.10    3.80 
   3   4   5    6.50    4.30 
   3   4   5    1.20    2.80 
  -4  -4  -5  179.78   21.20 
  -4  -4  -5  229.58   22.80 
  -4  -4  -5  233.78   19.90 
   4   4   5  222.98   20.40 
   4   4   5   75.89   76.39 
   4   4   5  221.98   20.00 
   4   4   5  165.08   22.70 
   4   4   5  210.78   18.80 
   4   4   5  211.98   21.10 
   4   4   5  209.18   21.50 
   4   4   5  245.78   21.80 
  -5  -4  -5  182.88   20.00 
  -5  -4  -5  185.08   16.20 
  -5  -4  -5  168.38   21.10 
  -5  -4  -5  177.28   19.40 
   5   4   5  153.18   16.80 
   5   4   5  184.28   16.20 
   5   4   5  162.38   17.50 
   5   4   5  174.78   17.60 
   5   4   5   -8.40   97.19 
   5   4   5  187.88   18.20 
  -6  -4  -5   72.29   13.30 
  -6  -4  -5   61.99   11.10 
  -6  -4  -5   96.19   13.90 
  -6  -4  -5   95.79   12.20 
   6   4   5   26.90   87.59 
   6   4   5   84.19   11.00 
   6   4   5  102.79   11.00 
  -7  -4  -5    2.70    2.40 
  -7  -4  -5   -1.20    2.00 
   7   4   5   -0.50    1.80 
   7   4   5    5.40   39.30 
  -8  -4  -5   11.40    3.40 
  -8  -4  -5    6.30    2.60 
   8   4   5    0.80   24.90 
  -1   5   5   24.50    5.50 
  -1   5   5   36.30    8.60 
  -1   5   5   19.20    8.20 
  -1   5   5   31.30    7.10 
  -1   5   5   37.70    7.90 
   0   5   5  315.17   28.20 
   0   5   5  288.77   25.80 
   0   5   5  273.27   29.10 
   0   5   5  262.27   25.00 
   0   5   5  322.47   27.50 
   0   5   5  307.27   29.20 
   0   5   5  242.58   27.90 
  -1  -5  -5   34.20    9.90 
  -1  -5  -5   39.90    5.90 
   1   5   5   38.70    8.90 
   1   5   5   47.70    7.50 
   1   5   5   59.19    9.90 
   1   5   5   64.69   10.50 
   1   5   5   44.00    8.70 
   1   5   5   37.60    7.00 
  -2  -5  -5   92.29   11.40 
  -2  -5  -5   90.59   19.10 
   2   5   5  110.59   15.00 
   2   5   5  128.59   15.90 
   2   5   5  116.59   12.70 
   2   5   5  114.09   12.70 
   2   5   5  119.59   12.60 
   2   5   5  105.09   13.60 
  -3  -5  -5   60.89   10.00 
  -3  -5  -5   64.39   10.10 
   3   5   5   60.29    9.30 
   3   5   5   75.99    9.30 
   3   5   5   68.19   11.30 
   3   5   5   64.29    9.80 
   3   5   5   64.59    9.20 
   3   5   5   80.99   12.30 
  -4  -5  -5  192.88   22.40 
  -4  -5  -5  209.08   23.00 
  -4  -5  -5  221.88   20.00 
   4   5   5  224.68   21.60 
   4   5   5  245.38   23.70 
   4   5   5  200.18   21.30 
   4   5   5  248.28   21.20 
   4   5   5  241.48   22.70 
   4   5   5  197.98   22.30 
   4   5   5  217.88   23.80 
  -5  -5  -5   21.50    5.70 
  -5  -5  -5   19.20    6.30 
  -5  -5  -5   19.50    5.50 
  -5  -5  -5   10.40    6.10 
   5   5   5   11.50    4.80 
   5   5   5   15.10    4.90 
   5   5   5   19.60    6.80 
   5   5   5   20.70    5.00 
   5   5   5   26.80    7.30 
   5   5   5   -0.90   61.39 
   5   5   5   12.70    4.80 
  -6  -5  -5   20.70    6.80 
  -6  -5  -5   32.10    8.70 
  -6  -5  -5   17.00    5.80 
  -7  -5  -5    6.60    2.90 
  -7  -5  -5    6.10    3.90 
   7   5   5   24.90   51.19 
   7   5   5   14.60    4.00 
  -8  -5  -5   24.10    6.00 
   8   5   5   36.20    5.20 
   8   5   5   -0.50   23.30 
  -1   6   5    4.00    2.60 
   0  -6  -5   49.60    6.40 
   0   6   5   55.99    9.10 
   0   6   5   53.69    7.50 
   0   6   5   63.29   11.50 
   0   6   5   31.80    7.60 
   0   6   5   45.60    6.70 
  -1  -6  -5   78.69    8.90 
   1   6   5  100.29   13.70 
   1   6   5   68.99   12.10 
   1   6   5   61.19   10.40 
   1   6   5   84.19   10.60 
  -2  -6  -5   24.60    5.70 
   2   6   5   25.30    7.40 
   2   6   5   34.00    6.90 
   2   6   5   25.70    6.60 
   2   6   5   33.70    7.50 
   2   6   5   24.20    7.40 
   2   6   5   46.30    9.50 
   2   6   5   43.10    8.60 
  -3  -6  -5  163.68   18.60 
  -3  -6  -5  150.78   16.00 
  -3  -6  -5  161.38   19.60 
   3   6   5  128.89   17.90 
   3   6   5  156.78   16.80 
   3   6   5  147.29   16.70 
   3   6   5  170.28   18.10 
   3   6   5  163.38   19.30 
   3   6   5  158.38   20.00 
  -4  -6  -5   31.90    6.40 
  -4  -6  -5   17.80    6.30 
  -4  -6  -5   22.80    6.40 
   4   6   5   29.50    6.60 
   4   6   5   46.10    7.50 
   4   6   5   46.60    9.00 
   4   6   5   41.10    7.70 
   4   6   5   28.90    8.20 
   4   6   5   32.00    6.70 
   4   6   5   38.10    9.50 
  -5  -6  -5   21.30    7.20 
  -5  -6  -5   19.90    6.40 
  -5  -6  -5   21.90    5.40 
   5   6   5   17.70    5.20 
   5   6   5   23.00    6.20 
   5   6   5   27.60    5.90 
   5   6   5   14.80    4.60 
   5   6   5   16.50    5.10 
  -6  -6  -5    8.80    3.00 
  -6  -6  -5    8.50    4.20 
   6   6   5    1.00    2.50 
   6   6   5    4.30    2.40 
   6   6   5    7.80    3.30 
  -7  -6  -5    8.20    3.70 
   7   6   5   14.40    3.50 
   7   6   5    1.90    5.90 
   0   7   5   -0.80    1.80 
   0   7   5    0.80    1.50 
   0   7   5    2.30    3.60 
  -1  -7  -5   10.40    3.00 
   1   7   5    7.90    2.80 
   1   7   5   17.40    4.60 
   1   7   5   11.30    4.50 
   1   7   5   13.90    3.70 
   1   7   5   11.80    4.10 
  -2  -7  -5    5.00    3.20 
   2   7   5    6.40    2.80 
   2   7   5    9.80    3.20 
   2   7   5    6.40    3.90 
   2   7   5   11.40    4.20 
   2   7   5   11.80    4.80 
  -3  -7  -5    0.70    4.20 
  -3  -7  -5    2.00    2.80 
   3   7   5    4.90    5.90 
   3   7   5    3.50    3.10 
   3   7   5    3.10    2.70 
   3   7   5    2.60    2.80 
   3   7   5    6.60    4.20 
   3   7   5    4.80    3.20 
  -4  -7  -5   80.29    9.20 
  -4  -7  -5   60.99   10.00 
   4   7   5   81.49   11.20 
   4   7   5   74.09    9.50 
   4   7   5   63.69    9.20 
   4   7   5   63.99   10.70 
  -5  -7  -5    8.10    4.30 
  -5  -7  -5   11.30    6.40 
  -5  -7  -5   12.20    4.20 
   5   7   5   14.60    4.80 
   5   7   5   10.40    3.70 
   5   7   5   12.00    3.70 
   5   7   5    8.00    3.30 
   5   7   5    8.50    4.10 
  -6  -7  -5   10.40    2.60 
  -6  -7  -5   10.10    4.70 
   6   7   5   19.70    4.00 
   6   7   5   10.70    2.60 
   6   7   5   16.80    4.20 
  -7  -7  -5    5.10    2.30 
   7   7   5    7.40    2.30 
   7   7   5    4.70    3.20 
  -3  -8  -5   20.70    3.90 
   3   8   5   27.70    4.90 
   3   8   5   29.20    4.20 
   3   8   5   26.50    5.50 
  -4  -8  -5   12.30    3.20 
  -4  -8  -5   14.60    4.30 
   4   8   5   14.10    3.20 
   4   8   5   20.60    3.40 
   4   8   5    8.50    3.30 
   4   8   5   11.80    4.00 
  -5  -8  -5    2.40    1.90 
  -5  -8  -5    5.60    2.90 
   5   8   5   10.10    4.60 
   5   8   5    0.50    1.80 
   5   8   5    3.90    1.60 
   4   7  -6    0.00    0.90 
  -4  -7   6    2.70    1.50 
  -4  -7   6   -0.30    1.70 
   3   7  -6   35.70    6.00 
   3   7  -6   36.70    5.50 
  -3  -7   6   38.40    5.80 
  -3  -7   6   37.30    6.70 
   2   7  -6   26.60    4.80 
   2   7  -6   28.70    5.20 
  -2  -7   6   13.30    5.20 
   1   7  -6    7.90    2.60 
   1   7  -6    9.00    3.00 
   1   7  -6    4.80    1.80 
   1   7  -6    7.20    2.70 
  -1  -7   6   10.20    2.90 
   5   6  -6    3.50    1.70 
   5   6  -6    1.90    1.40 
  -5  -6   6    0.90    2.00 
  -5  -6   6    1.90    1.50 
   4   6  -6   11.30    4.10 
  -4  -6   6   13.20    5.40 
  -4  -6   6   13.80    3.40 
   3   6  -6  108.99   13.80 
   3   6  -6   61.79   10.10 
   3   6  -6   84.29   10.40 
  -3  -6   6   83.09   13.30 
   2   6  -6   29.40    7.90 
   2   6  -6   31.60    7.70 
   2   6  -6   24.00    5.70 
   1   6  -6    1.50    2.30 
   1   6  -6    0.40    2.40 
   1   6  -6    0.90    2.20 
   1   6  -6    3.90    2.10 
   1   6  -6    0.20    2.30 
  -1  -6   6    6.90    4.40 
  -1  -6   6    4.30    3.00 
  -1  -6   6    3.00    2.40 
   0   6  -6    4.00    2.80 
   0   6  -6    2.60    1.50 
   0   6  -6    1.60    1.80 
   0   6  -6    4.50    2.10 
   0   6  -6    2.10    2.20 
   0   6  -6    0.60    1.60 
   0  -6   6    2.30    3.20 
   0  -6   6    3.30    2.50 
   0  -6   6    7.50    2.50 
  -1   6  -6    3.90    2.00 
  -1   6  -6    4.20    2.70 
  -1   6  -6    5.60    1.80 
  -1   6  -6    9.20    2.60 
  -1   6  -6    5.60    2.30 
   1  -6   6    7.90    2.40 
   6   5  -6    2.00    2.20 
  -6  -5   6   13.30    3.10 
  -6  -5   6    5.10    2.90 
   5   5  -6   22.30    5.00 
   5   5  -6   26.20    6.20 
  -5  -5   6   34.70    6.90 
  -5  -5   6   24.30    6.60 
   4   5  -6   45.20    8.70 
   4   5  -6   66.29   11.00 
  -4  -5   6   57.69    8.70 
  -4  -5   6   37.50    8.80 
  -4  -5   6   60.09   10.90 
   3   5  -6  125.89   16.80 
   3   5  -6  140.69   15.80 
   3   5  -6  148.39   19.50 
  -3  -5   6  168.28   16.40 
  -3  -5   6  162.78   19.80 
  -3  -5   6  122.09   15.50 
   2   5  -6   44.30   10.00 
   2   5  -6   33.60    8.90 
   2   5  -6   27.40    6.50 
   2   5  -6   27.30    6.10 
  -2  -5   6   29.20   11.80 
  -2  -5   6   32.30    6.90 
   1   5  -6    2.20    2.60 
   1   5  -6    3.90    2.80 
   1   5  -6   -0.10    3.20 
   1   5  -6    2.40    2.30 
   1   5  -6    4.50    2.90 
   1   5  -6    3.20    2.30 
   1   5  -6    2.80    2.10 
  -1  -5   6    2.90    2.40 
  -1  -5   6    1.60    2.40 
  -1  -5   6    4.30    2.40 
  -1  -5   6   -1.80    8.20 
   0   5  -6  386.06   34.00 
   0   5  -6  349.17   31.90 
   0   5  -6  401.46   39.50 
   0   5  -6  338.87   35.20 
   0   5  -6  435.46   35.40 
   0  -5   6  400.66   30.40 
   0  -5   6  394.86   33.30 
   0  -5   6  381.06   32.00 
  -1   5  -6   18.60    6.90 
  -1   5  -6   28.20    5.80 
  -1   5  -6   22.90    5.70 
  -1   5  -6   39.00    6.40 
  -1   5  -6   27.60    6.70 
   1  -5   6   26.50    6.00 
   1  -5   6   34.20    5.30 
  -2   5  -6    2.90    1.90 
  -2   5  -6    2.40    2.10 
  -2   5  -6    0.50    2.20 
  -2   5  -6    7.80    3.70 
  -2   5  -6    3.40    2.50 
   2  -5   6    5.40    2.00 
   2  -5   6    4.80    2.10 
   2  -5   6    3.40    2.10 
  -3   5  -6   26.30    4.30 
  -3   5  -6   30.20    5.00 
  -3   5  -6   31.10    4.30 
  -3   5  -6   23.50    4.00 
   3  -5   6   37.90    4.10 
   6   4  -6    1.10    1.90 
   6   4  -6    4.20    3.30 
  -6  -4   6    0.90    2.40 
  -6  -4   6    3.40    3.20 
  -6  -4   6    2.10    2.10 
   5   4  -6    7.00    3.20 
   5   4  -6    8.40    4.40 
   5   4  -6   14.80    5.30 
  -5  -4   6   17.40    5.20 
  -5  -4   6   10.60    3.80 
  -5  -4   6    9.80    3.60 
   4   4  -6   12.70    5.70 
   4   4  -6   14.60    4.60 
   4   4  -6    7.10    3.30 
   4   4  -6   11.60    5.40 
  -4  -4   6   16.20    5.40 
  -4  -4   6   16.50    6.00 
  -4  -4   6   14.20    5.40 
  -4  -4   6   11.30    6.30 
   3   4  -6   32.70    8.10 
   3   4  -6   25.60   11.30 
   3   4  -6   13.00    4.60 
  -3  -4   6   16.20    5.00 
  -3  -4   6   36.50    8.50 
  -3  -4   6   24.40    8.30 
  -3  -4   6   25.50    8.80 
   2   4  -6  319.67   30.90 
   2   4  -6  328.67   33.70 
   2   4  -6  364.26   35.20 
   2   4  -6  326.87   30.40 
  -2  -4   6  374.36   31.70 
  -2  -4   6  348.87   30.80 
  -2  -4   6  394.56   30.70 
  -2  -4   6  299.97   31.80 
  -2  -4   6  344.77   27.00 
   1   4  -6   28.50    5.90 
   1   4  -6   36.80   10.70 
   1   4  -6   46.60    6.60 
   1   4  -6   36.50    6.90 
   1   4  -6   33.00    9.40 
  -1  -4   6   39.40    6.60 
  -1  -4   6   38.50    5.60 
  -1  -4   6   58.19   12.40 
  -1  -4   6   37.90    6.30 
   0   4  -6  282.27   23.60 
   0   4  -6  252.07   27.40 
   0   4  -6  305.67   23.20 
   0   4  -6  236.78   22.70 
   0   4  -6  255.37   24.60 
   0   4  -6  230.08   25.10 
   0   4  -6  232.18   27.90 
   0  -4   6  262.37   27.00 
   0  -4   6  226.18   23.80 
   0  -4   6  266.67   20.90 
  -1   4  -6  474.35   40.50 
  -1   4  -6  532.25   42.30 
  -1   4  -6  463.25   42.50 
  -1   4  -6  557.14   40.20 
  -1   4  -6  447.66   40.30 
  -1   4  -6  476.75   42.10 
  -1   4  -6  476.55   46.30 
   1  -4   6  465.15   44.10 
   1  -4   6  498.65   37.70 
   1  -4   6  459.15   38.80 
  -2   4  -6   92.89   14.40 
  -2   4  -6   76.19   11.60 
  -2   4  -6   90.09   12.40 
  -2   4  -6   80.69   10.70 
  -2   4  -6   94.09   12.20 
  -2   4  -6   91.49   10.70 
   2  -4   6   93.19    9.10 
   2  -4   6   80.29    9.60 
  -3   4  -6   14.80    4.80 
  -3   4  -6   15.80    4.80 
  -3   4  -6   22.60    5.60 
  -3   4  -6   23.10    6.30 
  -3   4  -6   13.60    5.00 
  -3   4  -6   22.10    4.90 
   3  -4   6   21.90    4.30 
   3  -4   6   20.90    4.10 
  -4   4  -6    5.60    2.10 
  -4   4  -6    8.90    2.70 
  -4   4  -6    6.30    2.20 
  -4   4  -6    5.10    2.10 
  -4   4  -6    4.60    2.30 
   4  -4   6    4.30    2.00 
   6   3  -6   32.90    7.00 
   6   3  -6   35.70    5.20 
  -6  -3   6   -4.60   41.80 
  -6  -3   6   48.10    9.30 
  -6  -3   6   36.00    6.90 
  -6  -3   6   38.90    7.70 
  -6  -3   6   40.00    6.90 
   5   3  -6   61.99   10.70 
   5   3  -6   54.59    7.60 
   5   3  -6   60.39    9.90 
  -5  -3   6   30.90   72.99 
  -5  -3   6   63.99   10.10 
  -5  -3   6   64.09   11.10 
  -5  -3   6   65.89   10.60 
  -5  -3   6   46.40   13.60 
   4   3  -6   94.69   13.10 
   4   3  -6   85.29   13.70 
   4   3  -6  103.29   10.60 
   4   3  -6  112.39   14.40 
   4   3  -6  117.69   11.00 
  -4  -3   6   83.09   14.40 
  -4  -3   6   71.19   13.30 
  -4  -3   6  105.49   14.00 
  -4  -3   6   93.89   12.40 
  -4  -3   6   83.49   16.20 
   3   3  -6  110.39   10.60 
   3   3  -6  106.69   10.60 
   3   3  -6  101.29   14.00 
  -3  -3   6   97.09   13.60 
  -3  -3   6   96.99   12.90 
  -3  -3   6   81.79   14.40 
  -3  -3   6  107.69   15.10 
  -3  -3   6  101.79   12.10 
   2   3  -6  225.18   18.10 
   2   3  -6  198.98   16.70 
   2   3  -6  183.98   22.70 
   2   3  -6  179.08   19.20 
  -2  -3   6  167.08   22.90 
  -2  -3   6  215.18   19.90 
  -2  -3   6  193.58   19.70 
  -2  -3   6  217.18   19.20 
   1   3  -6  526.45   43.20 
   1   3  -6  580.84   41.80 
   1   3  -6  503.95   46.30 
   1   3  -6  484.75   43.90 
  -1  -3   6  525.25   48.50 
  -1  -3   6  575.34   42.70 
  -1  -3   6  423.66   48.40 
  -1  -3   6  528.25   44.80 
  -1  -3   6  539.55   39.90 
   0   3  -6  588.94   44.00 
   0   3  -6  586.34   44.30 
   0   3  -6  561.24   49.70 
   0   3  -6  504.85   45.10 
   0  -3   6  494.65   41.80 
   0  -3   6  527.55   42.90 
   0  -3   6  595.04   47.90 
   0  -3   6  597.74   45.20 
  -1   3  -6   37.80    7.80 
  -1   3  -6   36.10    6.60 
  -1   3  -6   33.90    6.00 
  -1   3  -6   42.10    8.40 
  -1   3  -6   40.30    9.90 
  -1   3  -6   34.70    7.70 
  -1   3  -6   34.70    5.90 
  -1   3  -6   45.90    8.50 
  -1   3  -6   39.80    6.80 
   1  -3   6   59.59   14.10 
   1  -3   6   31.70    5.30 
   1  -3   6   28.70    4.80 
  -2   3  -6 1013.10   83.09 
  -2   3  -6 1162.58   81.69 
  -2   3  -6 1084.09   84.09 
  -2   3  -6 1045.00   82.09 
  -2   3  -6 1141.99   88.39 
  -2   3  -6 1070.59   84.99 
  -2   3  -6 1092.79   84.59 
  -2   3  -6 1072.09   83.39 
   2  -3   6 1030.10   80.19 
   2  -3   6 1023.10   78.89 
   2  -3   6  981.00   80.09 
   2  -3   6  964.90   85.09 
  -3   3  -6   76.49   12.60 
  -3   3  -6   99.39   13.40 
  -3   3  -6   92.49   13.90 
  -3   3  -6  104.39   13.60 
  -3   3  -6   95.89   12.50 
  -3   3  -6  110.19   13.80 
  -3   3  -6  109.69   11.80 
  -3   3  -6   78.69   12.20 
   3  -3   6  102.89    9.70 
   3  -3   6   86.39   14.90 
   3  -3   6   92.29   10.40 
   3  -3   6   99.59   10.70 
  -4   3  -6   36.50    7.50 
  -4   3  -6   28.30    6.60 
  -4   3  -6   43.80    9.00 
  -4   3  -6   41.30    6.40 
  -4   3  -6   32.90    6.80 
   4  -3   6   28.20    5.20 
   4  -3   6   32.10    5.80 
   4  -3   6   40.30    5.30 
  -5   3  -6    7.20    2.60 
  -5   3  -6   10.50    2.70 
  -5   3  -6    4.50    2.80 
  -5   3  -6    7.50    2.90 
   5  -3   6    5.50    1.70 
   5  -3   6    9.50    2.00 
   6   2  -6    4.50    2.50 
   6   2  -6   -3.70    2.30 
   6   2  -6   -0.70    3.50 
  -6  -2   6    7.70   25.70 
  -6  -2   6   -0.80    3.50 
  -6  -2   6    0.90    2.40 
  -6  -2   6    0.50    2.20 
  -6  -2   6   -2.80    1.90 
   5   2  -6   92.79   11.90 
   5   2  -6   95.79   13.50 
   5   2  -6  108.49   11.20 
  -5  -2   6  116.89   15.10 
  -5  -2   6   96.09   13.20 
  -5  -2   6  101.69   14.60 
  -5  -2   6   85.09  147.89 
  -5  -2   6  109.09   15.80 
  -5  -2   6  100.99   13.20 
   4   2  -6   81.79   11.50 
   4   2  -6   85.19   11.20 
   4   2  -6  111.29   11.40 
   4   2  -6   95.79   13.20 
   4   2  -6   89.99   10.50 
  -4  -2   6   75.39   14.30 
  -4  -2   6   96.69   14.30 
  -4  -2   6  111.49  110.39 
  -4  -2   6   77.59   11.30 
  -4  -2   6   76.29   12.80 
  -4  -2   6   94.69   13.90 
  -4  -2   6  105.89   18.60 
  -4  -2   6   83.39   12.80 
   3   2  -6   21.00    5.20 
   3   2  -6   32.90    8.40 
   3   2  -6   39.40    5.70 
   3   2  -6   36.10    6.10 
   3   2  -6   22.00    5.40 
  -3  -2   6   36.10    7.50 
  -3  -2   6   35.60   10.40 
  -3  -2   6   47.40   11.20 
  -3  -2   6   31.80    6.90 
  -3  -2   6   39.20   57.79 
  -3  -2   6   31.20    5.70 
  -3  -2   6   29.50    8.00 
   2   2  -6   14.30    3.00 
   2   2  -6    6.40    4.40 
   2   2  -6   15.10    3.80 
   2   2  -6   16.00    4.00 
  -2  -2   6   19.40    6.00 
  -2  -2   6   10.10    5.40 
  -2  -2   6   26.90    6.10 
   1   2  -6  472.05   34.10 
   1   2  -6  368.46   34.70 
   1   2  -6  428.06   36.10 
   1   2  -6  461.15   34.80 
  -1  -2   6  390.66   36.30 
  -1  -2   6  478.25   36.30 
   0   2  -6  460.05   34.50 
   0   2  -6  427.96   34.90 
   0   2  -6  429.66   36.50 
   0  -2   6  411.96   37.60 
   0  -2   6  451.35   34.80 
  -1   2  -6  178.18   18.00 
  -1   2  -6  191.88   16.40 
  -1   2  -6  187.48   16.60 
   1  -2   6  170.98   15.40 
   1  -2   6  176.28   20.00 
  -2   2  -6   43.00    8.40 
  -2   2  -6   30.20    6.80 
  -2   2  -6   28.80    8.10 
  -2   2  -6   35.30    5.90 
  -2   2  -6   33.30    6.30 
  -2   2  -6   42.70    7.40 
  -2   2  -6   38.30    7.40 
   2  -2   6   29.30    9.00 
   2  -2   6   32.20    6.40 
   2  -2   6   40.20    5.10 
   2  -2   6   38.00    5.50 
  -3   2  -6  292.37   28.80 
  -3   2  -6  277.07   29.20 
  -3   2  -6  274.37   27.00 
  -3   2  -6  343.17   31.50 
  -3   2  -6  363.86   30.90 
  -3   2  -6  335.67   30.40 
  -3   2  -6  312.67   29.60 
  -3   2  -6  297.07   26.80 
  -3   2  -6  357.46   29.90 
   3  -2   6  245.28   34.90 
   3  -2   6  327.57   25.10 
   3  -2   6  309.47   26.10 
  -4   2  -6  406.06   34.20 
  -4   2  -6  368.86   33.70 
  -4   2  -6  387.46   34.30 
  -4   2  -6  377.76   34.60 
  -4   2  -6  379.06   35.10 
  -4   2  -6  358.96   33.50 
  -4   2  -6  352.76   31.30 
   4  -2   6  359.46   29.10 
   4  -2   6  339.27   30.20 
  -5   2  -6   20.60    5.70 
  -5   2  -6   14.10    4.20 
  -5   2  -6   23.60    6.50 
  -5   2  -6   24.30    5.20 
  -5   2  -6   26.60    6.60 
   5  -2   6   18.10    3.90 
   5  -2   6   20.90    4.00 
   5  -2   6   21.40    3.90 
  -6   2  -6    2.20    1.70 
  -6   2  -6    1.30    1.40 
  -6   2  -6    0.70    1.20 
  -6   2  -6    0.90    1.20 
   6  -2   6   -0.20    1.20 
   6  -2   6    1.20    1.20 
   6   1  -6   15.10    3.60 
   6   1  -6   12.80    3.10 
  -6  -1   6   10.50    4.70 
  -6  -1   6   13.90    3.50 
  -6  -1   6   13.60    4.10 
  -6  -1   6   14.40    6.40 
   5   1  -6   21.70    8.00 
  -5  -1   6   38.00    9.10 
  -5  -1   6   25.90   69.59 
  -5  -1   6   59.29   11.30 
  -5  -1   6   41.20   11.40 
  -5  -1   6   32.20    8.00 
   4   1  -6  127.59   13.30 
   4   1  -6  145.89   14.80 
   4   1  -6  153.08   14.90 
  -4  -1   6  125.69   22.50 
  -4  -1   6  104.09   16.30 
  -4  -1   6  143.79   18.40 
  -4  -1   6  124.39   25.50 
   3   1  -6  261.37   23.60 
   3   1  -6  313.57   25.80 
   3   1  -6  306.97   23.30 
   3   1  -6  333.97   25.80 
  -3  -1   6  279.87   28.10 
  -3  -1   6  273.37   26.10 
  -3  -1   6  244.28   26.30 
  -3  -1   6   60.79  112.49 
  -3  -1   6  277.67   27.40 
  -3  -1   6  379.96   40.90 
  -3  -1   6  224.28   27.30 
   2   1  -6  384.56   29.90 
   2   1  -6  409.96   33.30 
   2   1  -6  379.26   30.90 
   2   1  -6  362.26   29.60 
  -2  -1   6  354.96   32.40 
  -2  -1   6  325.17   32.40 
   1   1  -6   87.89   10.20 
   1   1  -6   92.39    8.30 
   1   1  -6   90.19   10.40 
   1   1  -6   97.69    9.60 
  -1  -1   6   94.89   13.10 
  -1  -1   6  108.69   10.70 
   0   1  -6 2259.77  178.38 
   0   1  -6 2438.66  179.28 
   0   1  -6 2513.85  177.58 
   0   1  -6 2386.86  176.58 
   0  -1   6 2414.36  179.48 
  -1   1  -6   31.50    5.90 
  -1   1  -6   33.90    6.10 
  -1   1  -6   22.90    3.60 
   1  -1   6   23.70    6.70 
   1  -1   6   19.70    9.00 
   1  -1   6   20.90    4.60 
   1  -1   6   21.40    3.70 
  -2   1  -6  678.83   48.90 
  -2   1  -6  672.63   51.19 
  -2   1  -6  646.14   48.60 
   2  -1   6  541.65   48.10 
   2  -1   6  600.24   51.59 
  -3   1  -6  101.39   12.10 
  -3   1  -6   82.69   11.00 
  -3   1  -6   93.09   11.80 
  -3   1  -6   80.79   11.40 
  -3   1  -6   96.59   12.50 
   3  -1   6   87.79    8.50 
   3  -1   6   77.19   10.80 
   3  -1   6  103.79   13.30 
   3  -1   6   92.59    9.40 
   3  -1   6   67.59   12.40 
  -4   1  -6  176.08   19.10 
  -4   1  -6  179.38   19.30 
  -4   1  -6  196.38   19.90 
  -4   1  -6  154.28   16.50 
  -4   1  -6  184.08   18.80 
  -4   1  -6  186.68   20.10 
  -4   1  -6  202.58   20.60 
   4  -1   6  181.28   15.30 
   4  -1   6  158.08   18.20 
   4  -1   6  177.68   16.30 
   4  -1   6  142.19   19.10 
  -5   1  -6  147.99   16.40 
  -5   1  -6  106.89   13.00 
  -5   1  -6  121.09   15.60 
  -5   1  -6  170.48   17.20 
  -5   1  -6  132.79   16.20 
  -5   1  -6  155.48   16.40 
   5  -1   6  120.89   11.70 
   5  -1   6  121.69   12.70 
   5  -1   6   15.60   56.79 
  -6   1  -6   -0.80    2.00 
  -6   1  -6    2.60    2.30 
  -6   1  -6   -2.70    1.40 
  -6   1  -6    2.30    2.30 
  -6   1  -6    0.10    1.50 
   6  -1   6   -0.30    1.60 
   6  -1   6    1.00    1.20 
   6  -1   6    0.80    1.70 
   6   0  -6    8.00    2.50 
  -6   0   6   13.10    3.00 
  -6   0   6  -10.40   17.20 
  -6   0   6   13.70    3.90 
  -6   0   6   12.10    3.10 
  -6   0   6   12.40    3.80 
   5   0  -6   22.40    5.30 
   5   0  -6   14.80    4.50 
  -5   0   6   10.10    4.70 
  -5   0   6   15.60    6.70 
  -5   0   6   25.20    6.30 
  -5   0   6   22.20    6.30 
  -5   0   6   19.30    6.40 
  -5   0   6   11.80   66.99 
   4   0  -6   75.99   11.70 
   4   0  -6  104.09   11.70 
  -4   0   6   91.79   15.00 
  -4   0   6   79.29   13.20 
  -4   0   6  100.39   13.20 
  -4   0   6  -20.80   89.19 
  -4   0   6  109.79   15.90 
  -4   0   6   86.39   13.20 
  -4   0   6  125.49   16.10 
   3   0  -6  137.19   14.00 
   3   0  -6  141.19   13.80 
  -3   0   6  124.99   16.40 
  -3   0   6  121.89   15.90 
  -3   0   6  129.99   18.20 
  -3   0   6  135.99   16.90 
  -3   0   6  114.39   15.30 
  -3   0   6  128.29   16.10 
   2   0  -6  641.64   49.60 
   2   0  -6  618.74   49.50 
   2   0  -6  647.14   48.30 
  -2   0   6  602.94   51.69 
   1   0  -6 1725.93  124.19 
   1   0  -6 1688.43  122.79 
   1   0  -6 1615.24  124.09 
  -1   0   6 1493.15  127.09 
  -1   0   6 1739.03  125.39 
  -1   0   6 1667.03  125.59 
   0   0  -6 1582.14  124.69 
   0   0  -6 1449.26  124.39 
   0   0  -6 1696.63  123.29 
   0   0   6 1888.51  125.19 
   0   0   6 1559.64  127.49 
   0   0   6 1811.62  125.69 
  -1   0  -6 3186.78  230.88 
  -1   0  -6 3121.49  232.88 
   1   0   6 3341.37  233.18 
   1   0   6 3143.79  232.08 
   1   0   6 2902.21  240.98 
  -2   0  -6  572.44   42.80 
  -2   0  -6  548.55   40.20 
  -2   0  -6  508.35   40.10 
   2   0   6  448.86   39.80 
   2   0   6  496.35   44.80 
   2   0   6  485.85   39.70 
   2   0   6  593.24   43.10 
  -3   0  -6  214.18   18.20 
  -3   0  -6  244.48   21.10 
   3   0   6  202.28   18.10 
   3   0   6  216.98   22.50 
   3   0   6  192.78   18.90 
  -4   0  -6    0.30    3.00 
  -4   0  -6    5.40    4.10 
  -4   0  -6    5.80    3.40 
  -4   0  -6    2.50    3.70 
  -4   0  -6    4.60    2.70 
  -4   0  -6    3.50    3.20 
   4   0   6    3.40    4.70 
   4   0   6    4.30    2.10 
   4   0   6    5.20    2.50 
   4   0   6  -14.90   26.00 
  -5   0  -6   80.19   11.60 
  -5   0  -6   63.19   10.40 
  -5   0  -6   60.19    8.40 
  -5   0  -6   77.99   11.20 
  -5   0  -6   67.49   10.60 
  -5   0  -6   64.19   10.30 
  -5   0  -6   82.79   11.10 
   5   0   6   70.29    8.20 
   5   0   6   -5.20   34.80 
   5   0   6   66.69   10.90 
   5   0   6   70.09    7.60 
  -6   0  -6   17.90    5.20 
  -6   0  -6   12.30    4.10 
  -6   0  -6   18.10    6.00 
  -6   0  -6   18.60    5.20 
  -6   0  -6   22.00    6.00 
  -6   0  -6   15.90    4.10 
   6   0   6   20.30    4.00 
   6   0   6  -11.10   27.50 
   6   0   6   18.80    4.10 
  -7   0  -6    5.90    2.30 
  -7   0  -6    1.50    1.90 
  -7   0  -6    1.20    2.30 
   7   0   6    3.40    1.40 
   7   0   6    7.40   23.20 
   7   0   6    5.20    1.90 
   5  -1  -6   -1.80    3.40 
   5  -1  -6    2.40    2.10 
  -5   1   6   -2.50   40.80 
  -5   1   6    6.30    5.30 
  -5   1   6    4.50    2.90 
  -5   1   6    5.80    3.40 
  -5   1   6    3.20    3.00 
   4  -1  -6   24.10    5.50 
  -4   1   6   16.60    5.90 
  -4   1   6   15.10    5.20 
  -4   1   6   20.00    8.20 
  -4   1   6   -0.20   27.80 
  -4   1   6   18.20    7.60 
  -4   1   6   15.30    5.70 
   3  -1  -6  317.87   23.50 
  -3   1   6  269.87   26.80 
  -3   1   6  241.18   28.20 
  -3   1   6  257.17   24.60 
  -3   1   6  231.58   27.20 
  -3   1   6  211.58   25.20 
  -3   1   6  236.98   25.90 
  -3   1   6  269.47   26.00 
   2  -1  -6  533.35   38.10 
   2  -1  -6  494.45   36.70 
   2  -1  -6  531.35   38.60 
  -2   1   6  449.56   40.20 
  -2   1   6  446.96   43.50 
  -2   1   6  446.16   40.50 
  -2   1   6  392.26   42.20 
  -2   1   6  433.86   40.70 
   1  -1  -6  411.96   31.50 
   1  -1  -6  342.57   30.70 
   1  -1  -6  392.16   29.70 
  -1   1   6  386.06   31.30 
  -1   1   6  378.56   34.50 
  -1   1   6  375.96   33.30 
   0  -1  -6 2007.90  174.88 
   0  -1  -6 2361.06  175.18 
   0  -1  -6 2470.65  173.58 
   0   1   6 2510.35  176.88 
   0   1   6 2502.85  175.78 
   0   1   6 2299.67  180.18 
  -1  -1  -6  703.33   58.09 
  -1  -1  -6  726.63   55.99 
   1   1   6  758.22   58.69 
   1   1   6  812.32   58.69 
  -2  -1  -6  827.92   63.39 
  -2  -1  -6  787.12   60.59 
  -2  -1  -6  807.82   63.19 
  -2  -1  -6  771.42   62.29 
   2   1   6  912.91   63.79 
   2   1   6  770.22   65.69 
  -3  -1  -6  202.48   17.90 
  -3  -1  -6  156.78   14.40 
   3   1   6  173.58   19.40 
   3   1   6  172.88   15.40 
   3   1   6  182.08   17.80 
  -4  -1  -6   12.60    4.70 
  -4  -1  -6   11.90    4.20 
  -4  -1  -6   15.40    4.80 
  -4  -1  -6   15.30    4.80 
   4   1   6    8.70    2.80 
   4   1   6   24.20   45.70 
   4   1   6    5.30    4.70 
   4   1   6    6.00    5.60 
   4   1   6    0.40    4.40 
   4   1   6    8.10    2.70 
  -5  -1  -6   31.70    8.50 
  -5  -1  -6   29.60    7.50 
  -5  -1  -6   52.09    9.70 
  -5  -1  -6   33.80    7.30 
  -5  -1  -6   20.90    5.80 
  -5  -1  -6   32.10    6.30 
   5   1   6   19.10    7.30 
   5   1   6   27.10    5.00 
   5   1   6   36.90    7.30 
   5   1   6   25.80    5.10 
   5   1   6  -28.30   34.60 
  -6  -1  -6   30.80    7.40 
  -6  -1  -6   40.70    9.30 
  -6  -1  -6   27.40    7.40 
  -6  -1  -6   38.10    7.50 
  -6  -1  -6   46.70    9.40 
   6   1   6  -21.40   49.90 
   6   1   6   39.70    5.20 
  -7  -1  -6    6.10    2.70 
  -7  -1  -6    2.90    2.10 
   7   1   6    6.50    2.40 
   7   1   6    7.40    2.00 
  -5   2   6    0.60    3.20 
  -5   2   6    1.40   31.20 
  -5   2   6   -0.30    3.30 
   4  -2  -6   23.00    7.00 
  -4   2   6   12.50    4.80 
  -4   2   6   -2.40   23.30 
  -4   2   6   18.80    4.40 
  -4   2   6   -0.40    6.60 
  -4   2   6   20.30    5.50 
  -4   2   6   10.20    4.50 
   3  -2  -6  166.58   16.70 
   3  -2  -6  191.58   16.20 
  -3   2   6  165.08   20.30 
  -3   2   6  164.58   20.00 
  -3   2   6  162.88   20.50 
  -3   2   6  163.38   19.90 
  -3   2   6  150.18   17.10 
   2  -2  -6  217.98   18.30 
   2  -2  -6  193.48   16.60 
  -2   2   6  201.88   21.30 
  -2   2   6  184.68   21.00 
  -2   2   6  156.48   19.40 
  -2   2   6  159.58   19.40 
  -2   2   6  175.68   20.60 
  -2   2   6  176.48   19.80 
   1  -2  -6  286.67   26.80 
   1  -2  -6  332.57   26.30 
   1  -2  -6  382.26   28.60 
  -1   2   6  320.47   31.60 
  -1   2   6  352.36   29.30 
  -1   2   6  338.37   31.30 
   0  -2  -6  612.94   45.10 
   0  -2  -6  576.64   42.90 
   0  -2  -6  476.15   44.10 
   0   2   6  519.45   48.50 
   0   2   6  634.14   47.80 
   0   2   6  599.44   46.30 
  -1  -2  -6 1121.49   82.99 
  -1  -2  -6  912.31   82.49 
   1   2   6  985.90   86.39 
   1   2   6 1262.17   85.19 
   1   2   6 1159.88   83.99 
  -2  -2  -6  335.87   27.80 
  -2  -2  -6  285.37   27.40 
  -2  -2  -6  321.87   27.20 
   2   2   6  376.46   28.60 
   2   2   6  287.17   29.90 
  -3  -2  -6  169.18   16.10 
  -3  -2  -6  156.08   15.10 
  -3  -2  -6  146.19   15.60 
   3   2   6  153.98   15.80 
   3   2   6  125.49   16.80 
   3   2   6  161.48   13.90 
  -4  -2  -6   44.80    9.00 
  -4  -2  -6   33.30    7.10 
  -4  -2  -6   38.40    7.90 
  -4  -2  -6   42.90    8.20 
   4   2   6   36.70    7.40 
   4   2   6   32.90    6.10 
   4   2   6   43.90    8.10 
   4   2   6  -23.00   61.19 
  -5  -2  -6  109.09   14.70 
  -5  -2  -6  119.19   15.20 
  -5  -2  -6  109.99   12.40 
  -5  -2  -6  111.19   13.40 
  -5  -2  -6  108.59   12.90 
   5   2   6  101.99   12.80 
   5   2   6   95.29    9.20 
   5   2   6  -77.09   90.29 
   5   2   6   99.09   10.70 
   5   2   6   98.79   11.60 
  -6  -2  -6   28.20    7.00 
  -6  -2  -6   32.10    7.40 
  -6  -2  -6   27.30    7.90 
  -6  -2  -6   35.00    7.20 
  -6  -2  -6   30.10    6.80 
   6   2   6   -7.90   82.69 
   6   2   6   22.80    4.30 
   6   2   6   31.50    6.20 
   6   2   6   34.80    7.80 
  -7  -2  -6    3.90    2.80 
  -7  -2  -6    3.10    2.80 
   7   2   6  -11.20   51.79 
   7   2   6    9.30    2.70 
  -8  -2  -6   43.40    5.30 
   8   2   6   42.70    4.30 
  -4   3   6   20.50    6.30 
  -4   3   6   12.00   33.90 
  -4   3   6    4.00    2.90 
  -4   3   6    6.20    3.70 
   3  -3  -6  105.19   10.20 
  -3   3   6   89.79   13.10 
  -3   3   6  102.99   15.70 
  -3   3   6   77.59   12.50 
  -3   3   6  105.89   14.70 
   2  -3  -6   24.80    6.00 
   2  -3  -6   13.90    3.50 
  -2   3   6   20.80    7.10 
  -2   3   6   11.20    6.20 
  -2   3   6    9.80    4.80 
  -2   3   6   25.20    7.40 
  -2   3   6   22.90    6.10 
  -2   3   6   18.30    7.20 
  -2   3   6  -25.50   32.30 
   1  -3  -6   81.79    9.50 
  -1   3   6   76.89   10.40 
  -1   3   6   67.69   10.20 
  -1   3   6   96.39   13.40 
  -1   3   6   67.19   11.70 
  -1   3   6   70.79   10.90 
  -1   3   6   68.49   11.90 
   0  -3  -6  306.77   25.50 
   0  -3  -6  270.57   24.10 
   0   3   6  271.57   29.70 
   0   3   6  299.77   28.60 
   0   3   6  353.06   33.70 
   0   3   6  326.37   28.20 
  -1  -3  -6    1.40    3.10 
  -1  -3  -6    0.90    1.60 
   1   3   6   -2.30    3.50 
   1   3   6    5.00    5.20 
   1   3   6    3.20    3.70 
  -2  -3  -6  271.87   23.80 
  -2  -3  -6  268.47   22.70 
  -2  -3  -6  282.37   29.80 
   2   3   6  232.58   26.30 
   2   3   6  277.27   32.60 
  -3  -3  -6    7.50    4.80 
  -3  -3  -6    1.80    2.40 
   3   3   6    5.50    4.20 
   3   3   6   -1.80    3.30 
  -4  -3  -6   30.00    7.10 
  -4  -3  -6   34.00    8.00 
  -4  -3  -6   33.40    8.90 
  -4  -3  -6   28.10    5.60 
  -4  -3  -6   32.30    6.80 
   4   3   6   30.10    5.40 
   4   3   6   16.00   59.49 
   4   3   6   30.70    9.20 
   4   3   6   32.30    6.40 
   4   3   6   36.30    7.60 
  -5  -3  -6   66.19   11.80 
  -5  -3  -6   81.09   12.70 
  -5  -3  -6   89.59   13.40 
  -5  -3  -6   70.69    8.20 
  -5  -3  -6   91.09   13.50 
   5   3   6   73.09    9.10 
   5   3   6   72.99    8.60 
   5   3   6  -16.20   88.69 
   5   3   6   85.79   12.00 
   5   3   6   69.59   10.10 
  -6  -3  -6   45.20    9.90 
  -6  -3  -6   32.70    7.10 
  -6  -3  -6   27.80    6.90 
   6   3   6   -8.40   49.70 
   6   3   6   24.00    4.90 
  -7  -3  -6    0.30    2.30 
  -7  -3  -6    0.00    2.30 
   7   3   6    1.40    1.60 
   7   3   6    1.50    2.00 
   7   3   6    4.10   41.60 
   8   3   6   -4.30   24.70 
  -3   4   6   21.50   42.30 
  -3   4   6   12.30    4.20 
  -2   4   6  412.06   36.10 
  -2   4   6  421.56   35.90 
  -2   4   6  330.67   34.10 
  -1   4   6  198.08   19.70 
  -1   4   6  189.18   21.60 
  -1   4   6  163.98   19.60 
  -1   4   6   42.90   76.09 
  -1   4   6  176.78   19.90 
  -1   4   6  203.38   20.10 
   0  -4  -6   62.09    6.90 
   0   4   6   -1.80   52.49 
   0   4   6   58.69   10.10 
   0   4   6   63.29   10.80 
   0   4   6   63.59    8.00 
   0   4   6   53.19   10.50 
   0   4   6   59.89    9.90 
  -1  -4  -6   99.49   11.10 
  -1  -4  -6   98.29   14.10 
   1   4   6  125.69   15.10 
   1   4   6  122.09   15.00 
   1   4   6  113.79   13.30 
   1   4   6  125.29   15.00 
   1   4   6   98.09   12.20 
  -2  -4  -6  178.48   17.50 
  -2  -4  -6  181.08   19.50 
   2   4   6  167.88   20.40 
   2   4   6  176.88   18.00 
   2   4   6  176.58   17.30 
   2   4   6  168.68   18.80 
   2   4   6  184.58   20.00 
  -3  -4  -6   62.69   10.20 
  -3  -4  -6   57.09    9.50 
  -3  -4  -6   58.19   10.70 
   3   4   6   56.59    8.90 
   3   4   6   76.69   16.50 
   3   4   6    3.00   35.20 
   3   4   6   59.49    8.40 
   3   4   6   70.89   10.30 
   3   4   6   69.99    8.60 
   3   4   6   54.49    9.80 
  -4  -4  -6   21.70    5.80 
  -4  -4  -6   10.20    4.90 
  -4  -4  -6    7.60    4.70 
  -4  -4  -6   10.30    6.40 
   4   4   6   11.40    4.30 
   4   4   6    7.30    3.80 
   4   4   6   17.10    5.70 
   4   4   6    5.80    3.10 
   4   4   6   12.70    5.10 
   4   4   6   10.40    5.00 
  -5  -4  -6   10.80    6.30 
  -5  -4  -6   13.10    5.50 
   5   4   6    9.80    5.30 
   5   4   6    6.20    4.30 
   5   4   6    0.50    4.60 
  -6  -4  -6  136.09   18.40 
  -6  -4  -6  126.09   16.40 
   6   4   6  161.68   15.40 
  -7  -4  -6   30.40    6.40 
  -7  -4  -6   43.60    8.50 
  -8  -4  -6   18.80    4.00 
   8   4   6    0.70   21.80 
   8   4   6   23.80    3.60 
  -1   5   6  165.78   18.00 
  -1   5   6  175.28   17.90 
  -1   5   6  168.28   19.30 
  -1   5   6  190.48   19.60 
   0  -5  -6  226.68   18.90 
   0   5   6  195.28   22.30 
   0   5   6  241.38   23.10 
   0   5   6  206.78   20.00 
   0   5   6  196.88   22.50 
   0   5   6  181.28   25.50 
  -1  -5  -6   29.40   10.10 
  -1  -5  -6   54.19    7.00 
   1   5   6   37.20   80.89 
   1   5   6   43.90   10.10 
   1   5   6   50.09    9.00 
   1   5   6   56.69   10.00 
   1   5   6   41.40    9.00 
   1   5   6   49.00    7.70 
   1   5   6   47.70    9.80 
   1   5   6   54.79   11.10 
  -2  -5  -6    3.20    2.90 
  -2  -5  -6    0.70    5.50 
   2   5   6   11.20    4.40 
   2   5   6  -32.60   44.40 
   2   5   6    4.10    4.50 
   2   5   6    1.50    3.70 
   2   5   6    9.30    4.10 
   2   5   6   -4.90    2.50 
   2   5   6   10.90    4.90 
   2   5   6    6.50    4.40 
  -3  -5  -6   10.90    4.60 
  -3  -5  -6    6.50    5.70 
   3   5   6   14.40    4.80 
   3   5   6   20.10    7.10 
   3   5   6   16.00    4.30 
   3   5   6   16.80    6.10 
   3   5   6  -23.00   36.90 
   3   5   6   17.70    6.00 
   3   5   6   11.30    5.40 
   3   5   6   22.00    5.80 
  -4  -5  -6   32.00    8.10 
  -4  -5  -6   31.30    6.60 
   4   5   6   37.10    7.60 
   4   5   6   33.70    9.50 
   4   5   6   42.20    7.70 
   4   5   6   23.40    5.90 
   4   5   6   41.70    8.70 
   4   5   6   35.20    7.60 
  -5  -5  -6  212.08   22.70 
  -5  -5  -6  238.98   19.20 
  -5  -5  -6  196.98   23.50 
  -5  -5  -6  183.28   21.80 
   5   5   6  197.18   21.60 
   5   5   6  222.38   21.30 
   5   5   6  205.78   20.50 
   5   5   6  209.88   20.10 
   5   5   6  189.88   21.30 
   5   5   6  209.08   21.50 
  -6  -5  -6    5.30    3.90 
  -6  -5  -6   -1.60    3.70 
   6   5   6    6.80    3.40 
   6   5   6   17.80   42.20 
   6   5   6    8.30    4.60 
  -7  -5  -6    0.00    2.30 
  -7  -5  -6   -2.80    4.60 
   7   5   6   29.40   48.20 
   7   5   6    5.80    2.50 
  -8  -5  -6   -1.10    1.30 
   8   5   6   -1.60   14.60 
   0  -6  -6   28.40    5.00 
   0   6   6   25.80    8.00 
   0   6   6   31.90    6.40 
   0   6   6   26.10    5.80 
   0   6   6   18.60    4.80 
  -1  -6  -6  145.19   14.90 
   1   6   6  124.09   14.20 
   1   6   6  171.28   16.00 
   1   6   6  127.49   17.70 
   1   6   6  171.48   18.20 
   1   6   6  162.98   18.80 
  -2  -6  -6    7.40    3.30 
   2   6   6   17.20    5.50 
   2   6   6    8.00    4.30 
   2   6   6    4.80    4.20 
   2   6   6   10.30    3.80 
   2   6   6   13.60    5.20 
   2   6   6    8.80    4.90 
  -3  -6  -6   90.59   11.60 
  -3  -6  -6   92.49   12.60 
   3   6   6  118.09   15.40 
   3   6   6  105.09   13.80 
   3   6   6   71.79   11.20 
   3   6   6   94.29   12.00 
   3   6   6   96.99   13.80 
  -4  -6  -6  119.59   15.60 
  -4  -6  -6  120.39   13.80 
   4   6   6  113.49   15.50 
   4   6   6  111.19   13.90 
   4   6   6  147.79   15.30 
   4   6   6  152.38   17.40 
   4   6   6  154.18   16.90 
  -5  -6  -6   34.30    7.00 
  -5  -6  -6   27.90    8.20 
   5   6   6   40.80    7.00 
   5   6   6   51.49    7.80 
   5   6   6   35.00    7.80 
   5   6   6   36.00    8.00 
  -6  -6  -6   11.20    5.10 
  -6  -6  -6    6.90    2.90 
   6   6   6   14.60    4.20 
   6   6   6    6.20    2.70 
   6   6   6    8.00    3.10 
   6   6   6    1.50   40.30 
  -7  -6  -6    5.10    3.30 
   1   7   6    1.80    2.10 
   1   7   6    3.90    2.10 
   1   7   6    1.60    7.30 
   1   7   6    5.30    3.00 
  -2  -7  -6   34.90    6.40 
  -2  -7  -6   31.20    6.10 
   2   7   6   40.10    5.60 
   2   7   6   38.90   11.10 
   2   7   6   33.90    5.90 
   2   7   6   45.20    7.70 
   2   7   6   31.30    7.50 
  -3  -7  -6    5.50    3.20 
  -3  -7  -6   -5.50    5.90 
   3   7   6    4.50    3.10 
   3   7   6    1.30    1.80 
   3   7   6   -0.30    3.50 
   3   7   6    3.40    2.70 
   3   7   6    6.00    2.60 
   3   7   6   -1.20    2.10 
  -4  -7  -6    3.00    3.40 
   4   7   6    2.30    2.00 
   4   7   6   -0.40    1.80 
   4   7   6    3.80    3.10 
   4   7   6    5.30    3.60 
   4   7   6   -4.00    3.60 
   4   7   6    3.10    3.00 
  -5  -7  -6    6.10    3.60 
  -5  -7  -6    9.60    3.40 
   5   7   6   11.50    4.10 
   5   7   6    4.50    2.80 
   5   7   6    7.50    4.60 
   5   7   6    2.90    2.50 
   5   7   6    7.30    3.00 
  -6  -7  -6    2.60    2.00 
  -6  -7  -6    3.00    2.80 
   6   7   6    2.00    2.00 
   6   7   6    0.30    2.10 
   6   7   6    4.20    1.90 
  -4  -8  -6    2.80    1.70 
  -4  -8  -6    0.10    2.10 
   4   8   6    1.10    1.80 
   4   8   6    4.10    1.90 
   4   8   6    2.70    1.60 
   4   8   6    7.60    2.50 
   5   6  -7    7.70    2.00 
  -5  -6   7    7.70    2.50 
   4   6  -7    2.90    1.70 
   4   6  -7    3.10    2.50 
  -4  -6   7    2.20    3.00 
  -4  -6   7    4.00    1.90 
   3   6  -7   16.50    5.00 
   3   6  -7   28.90    5.10 
  -3  -6   7   22.80    6.10 
  -3  -6   7   35.50    5.40 
   2   6  -7   -1.80    1.50 
   2   6  -7    0.30    1.80 
  -2  -6   7    2.00    3.10 
  -2  -6   7    0.00    2.00 
   1   6  -7    5.90    2.60 
   1   6  -7   11.40    4.20 
   1   6  -7    2.80    1.50 
   1   6  -7    6.40    3.50 
  -1  -6   7   10.30    3.00 
   0   6  -7   -0.90    1.10 
   0   6  -7    3.60    1.40 
   0   6  -7    2.00    1.60 
   0   6  -7    1.80    1.50 
   0  -6   7    4.00    2.70 
   0  -6   7   -0.30    1.60 
   0  -6   7    0.80    1.80 
  -1   6  -7   17.60    3.10 
  -1   6  -7   11.00    2.60 
  -1   6  -7   13.50    4.60 
  -1   6  -7    8.30    2.20 
   1  -6   7   19.80    3.80 
   5   5  -7    1.60    2.00 
   5   5  -7   -1.10    1.40 
  -5  -5   7    4.30    2.70 
  -5  -5   7    1.40    1.50 
   4   5  -7    4.80    2.80 
   4   5  -7    4.00    3.40 
  -4  -5   7   13.40    4.20 
  -4  -5   7    4.00    3.40 
  -4  -5   7    6.80    5.10 
   3   5  -7    5.10    4.40 
   3   5  -7   21.50    7.10 
   3   5  -7   12.20    4.20 
  -3  -5   7    4.00    5.00 
  -3  -5   7   12.30    3.90 
  -3  -5   7   17.30    5.20 
   2   5  -7  152.38   19.50 
   2   5  -7  128.29   17.30 
   2   5  -7  118.79   15.90 
  -2  -5   7  146.09   14.70 
  -2  -5   7   91.49   13.90 
   1   5  -7   41.70   10.50 
   1   5  -7   45.90    6.60 
   1   5  -7   66.69   11.70 
  -1  -5   7   41.40    8.80 
   0   5  -7   41.30    9.40 
   0   5  -7   62.49    7.90 
   0   5  -7   40.40    6.30 
   0   5  -7   51.79    8.20 
   0   5  -7   49.10    8.00 
   0   5  -7   67.99   12.50 
   0  -5   7   53.99    8.30 
   0  -5   7   56.09    7.90 
   0  -5   7   66.49    6.90 
  -1   5  -7   21.60    4.30 
  -1   5  -7   13.50    4.10 
  -1   5  -7   20.70    4.40 
  -1   5  -7   31.60    8.80 
  -1   5  -7   22.20    5.30 
   1  -5   7   30.60    4.70 
   1  -5   7   27.50    5.10 
   1  -5   7   24.10    4.90 
  -2   5  -7   23.60    4.30 
  -2   5  -7   15.00    4.30 
  -2   5  -7   14.50    3.20 
  -2   5  -7   13.90    3.50 
   6   4  -7    4.60    2.30 
   6   4  -7    4.60    1.60 
  -6  -4   7    4.20    1.80 
  -6  -4   7   -2.00    3.10 
   5   4  -7   -0.40    2.10 
   5   4  -7    5.30    2.60 
   5   4  -7    2.60    2.50 
  -5  -4   7    0.50    3.70 
  -5  -4   7    0.70    1.80 
  -5  -4   7    2.70    2.90 
   4   4  -7    8.20    4.00 
  -4  -4   7    6.30    3.80 
  -4  -4   7    8.50    4.00 
  -4  -4   7    5.40    4.60 
   3   4  -7  405.66   39.30 
   3   4  -7  443.46   37.60 
  -3  -4   7  415.36   38.40 
  -3  -4   7  369.96   37.70 
  -3  -4   7  404.46   35.00 
  -3  -4   7  376.36   36.00 
   2   4  -7   17.00    5.30 
   2   4  -7    8.40    3.90 
   2   4  -7    5.20    3.00 
   2   4  -7   11.90    4.60 
   2   4  -7   10.30    5.60 
  -2  -4   7    7.80    3.80 
  -2  -4   7   23.50   14.50 
  -2  -4   7    7.90    3.40 
   1   4  -7  255.87   27.70 
   1   4  -7  212.28   22.10 
   1   4  -7  232.08   26.70 
   1   4  -7  218.08   21.40 
   1   4  -7  232.78   27.70 
  -1  -4   7  248.58   23.00 
  -1  -4   7  210.38   24.90 
  -1  -4   7  257.47   19.60 
  -1  -4   7  288.87   23.30 
   0   4  -7  162.98   14.50 
   0   4  -7  150.38   16.10 
   0   4  -7  140.69   19.00 
   0   4  -7  135.89   14.80 
   0   4  -7  139.19   15.40 
   0   4  -7  138.39   19.20 
   0  -4   7  136.49   13.90 
   0  -4   7  148.39   12.50 
   0  -4   7  131.89   18.00 
   0  -4   7  112.49   15.00 
  -1   4  -7   20.00    7.50 
  -1   4  -7   19.20    4.20 
  -1   4  -7   32.10    7.10 
  -1   4  -7   30.70    6.10 
  -1   4  -7   18.30    6.60 
  -1   4  -7   24.40    5.80 
  -1   4  -7   15.40    5.30 
   1  -4   7   25.70    6.20 
   1  -4   7   20.90    4.10 
   1  -4   7   32.90    9.50 
  -2   4  -7    9.10    3.30 
  -2   4  -7    8.40    3.20 
  -2   4  -7   12.30    4.40 
  -2   4  -7   14.60    5.30 
  -2   4  -7    7.50    4.40 
  -2   4  -7    9.70    3.90 
   2  -4   7   10.40    3.40 
   2  -4   7   13.50    3.50 
  -3   4  -7   24.40    5.10 
  -3   4  -7   28.10    6.10 
  -3   4  -7   31.00    5.30 
  -3   4  -7   40.90    6.60 
  -3   4  -7   21.30    5.50 
   3  -4   7   28.20    4.40 
  -4   4  -7   56.19    7.00 
  -4   4  -7   53.89    7.10 
   4  -4   7   70.09    7.50 
   4  -4   7   78.99    6.20 
   6   3  -7   10.40    2.60 
   6   3  -7   11.40    3.30 
  -6  -3   7   11.40    3.60 
   5   3  -7   40.50    5.70 
   5   3  -7   29.20    6.80 
   5   3  -7   37.20    7.60 
  -5  -3   7   41.20    9.20 
  -5  -3   7   32.50    7.80 
  -5  -3   7   46.60    7.50 
   4   3  -7  364.16   32.90 
   4   3  -7  339.97   27.20 
   4   3  -7  286.47   30.90 
  -4  -3   7  312.67   31.90 
  -4  -3   7  324.97   32.90 
  -4  -3   7  357.56   30.60 
  -4  -3   7  362.56   33.10 
   3   3  -7    0.20    5.00 
   3   3  -7    1.70    5.30 
  -3  -3   7    2.20    4.30 
  -3  -3   7    3.70    3.90 
  -3  -3   7    5.60    4.40 
  -3  -3   7    2.70    5.60 
   2   3  -7  150.08   17.70 
   2   3  -7  163.28   14.60 
   2   3  -7  179.88   21.30 
   2   3  -7  181.98   16.10 
   2   3  -7  184.48   20.10 
  -2  -3   7  135.39   22.10 
  -2  -3   7  196.68   18.30 
  -2  -3   7  199.58   17.60 
  -2  -3   7  146.69   19.90 
  -2  -3   7  181.68   18.60 
   1   3  -7   74.19   12.50 
   1   3  -7   80.59    9.00 
   1   3  -7   72.89   12.60 
   1   3  -7   79.39   11.10 
   1   3  -7   75.39   11.90 
  -1  -3   7   66.29   12.90 
  -1  -3   7   79.99    9.50 
  -1  -3   7   75.19    9.70 
  -1  -3   7   70.49    7.30 
   0   3  -7  271.27   28.30 
   0   3  -7  297.47   23.10 
   0   3  -7  261.07   22.50 
   0   3  -7  250.77   24.80 
   0   3  -7  250.27   24.00 
   0   3  -7  256.07   27.30 
   0   3  -7  257.77   24.40 
   0  -3   7  252.07   26.90 
   0  -3   7  284.37   24.20 
   0  -3   7  247.18   22.00 
   0  -3   7  246.78   20.60 
  -1   3  -7  342.37   26.90 
  -1   3  -7  282.97   28.90 
  -1   3  -7  313.37   29.30 
  -1   3  -7  334.07   29.00 
  -1   3  -7  322.67   32.80 
  -1   3  -7  315.57   27.10 
  -1   3  -7  297.67   30.90 
  -1   3  -7  369.16   30.00 
  -1   3  -7  284.47   27.30 
   1  -3   7  295.57   25.90 
   1  -3   7  323.17   31.60 
   1  -3   7  317.67   24.70 
   1  -3   7  279.57   25.60 
  -2   3  -7  180.28   19.20 
  -2   3  -7  161.28   18.30 
  -2   3  -7  140.39   16.20 
  -2   3  -7  152.18   17.20 
  -2   3  -7  180.98   21.70 
  -2   3  -7  179.98   16.50 
  -2   3  -7  181.38   18.40 
  -2   3  -7  187.28   19.10 
   2  -3   7  168.28   15.60 
   2  -3   7  169.98   14.50 
   2  -3   7  156.78   15.40 
   2  -3   7  173.28   20.80 
  -3   3  -7  412.56   34.60 
  -3   3  -7  387.86   31.30 
  -3   3  -7  380.96   34.90 
  -3   3  -7  330.97   33.40 
  -3   3  -7  304.77   34.80 
  -3   3  -7  369.46   32.90 
   3  -3   7  399.36   29.40 
   3  -3   7  354.96   30.60 
   3  -3   7  392.26   31.30 
  -4   3  -7    7.30    3.70 
  -4   3  -7    7.80    2.70 
  -4   3  -7    9.00    2.80 
  -4   3  -7    7.50    3.10 
   4  -3   7    6.00    2.40 
   4  -3   7    8.70    2.50 
   4  -3   7    9.80    2.70 
  -5   3  -7   -0.20    0.90 
  -5   3  -7    2.00    1.60 
  -5   3  -7    1.90    1.00 
  -5   3  -7    0.60    1.00 
  -5   3  -7    1.80    1.00 
   5  -3   7    1.70    1.50 
   5  -3   7    2.00    1.30 
   6   2  -7    9.30    3.10 
  -6  -2   7   10.40    3.30 
  -6  -2   7    8.80    3.80 
  -6  -2   7   13.10    3.10 
  -6  -2   7  -11.10   28.60 
  -6  -2   7   10.30    3.90 
   5   2  -7   25.20    4.90 
   5   2  -7   16.30    4.20 
   5   2  -7   21.80    6.60 
  -5  -2   7   38.70    8.20 
  -5  -2   7   25.00   53.69 
  -5  -2   7   30.20    6.70 
  -5  -2   7   30.00    9.10 
  -5  -2   7   25.60    5.80 
   4   2  -7   57.89   12.20 
   4   2  -7   56.09    7.50 
   4   2  -7   55.09   10.70 
  -4  -2   7   44.60    9.80 
  -4  -2   7   63.29   12.80 
  -4  -2   7   49.80    8.70 
  -4  -2   7   47.90    8.50 
  -4  -2   7   85.99   13.50 
   3   2  -7  404.76   30.80 
   3   2  -7  397.86   36.20 
   3   2  -7  460.65   39.30 
   3   2  -7  355.66   32.20 
  -3  -2   7  127.39  130.99 
  -3  -2   7  421.56   36.00 
  -3  -2   7  315.47   34.60 
  -3  -2   7  361.56   34.90 
  -3  -2   7  334.37   32.90 
  -3  -2   7  383.66   38.30 
  -3  -2   7  352.86   32.80 
   2   2  -7    4.40    4.30 
   2   2  -7    6.20    3.10 
   2   2  -7    9.80    3.20 
  -2  -2   7   -0.90    2.00 
  -2  -2   7    4.20    3.00 
  -2  -2   7    4.30    3.00 
  -2  -2   7   11.80    5.00 
  -2  -2   7    9.90    9.10 
   1   2  -7    3.60    3.60 
   1   2  -7    6.50    2.80 
   1   2  -7   13.40    4.70 
   1   2  -7    6.20    3.50 
  -1  -2   7    7.70    4.40 
  -1  -2   7    4.00    3.10 
  -1  -2   7   -0.10    8.50 
  -1  -2   7   -1.40    5.10 
   0   2  -7  471.95   41.40 
   0   2  -7  566.14   44.30 
   0  -2   7  533.85   45.10 
  -1   2  -7  391.86   32.20 
  -1   2  -7  324.57   31.40 
  -1   2  -7  407.06   32.80 
  -1   2  -7  371.96   29.20 
  -1   2  -7  364.56   35.20 
   1  -2   7  348.87   27.60 
   1  -2   7  315.67   28.40 
   1  -2   7  350.36   33.60 
  -2   2  -7  152.68   15.90 
  -2   2  -7  188.28   18.30 
  -2   2  -7  160.58   16.90 
  -2   2  -7  183.08   19.00 
  -2   2  -7  183.88   21.40 
  -2   2  -7  162.48   16.30 
  -2   2  -7  195.28   19.70 
  -2   2  -7  169.48   19.00 
   2  -2   7  177.38   14.60 
   2  -2   7  179.48   16.10 
   2  -2   7  174.08   20.50 
   2  -2   7  175.78   17.00 
  -3   2  -7  165.78   18.80 
  -3   2  -7  174.68   21.60 
  -3   2  -7  180.18   19.00 
  -3   2  -7  180.28   20.70 
  -3   2  -7  181.68   19.20 
  -3   2  -7  171.38   19.60 
   3  -2   7  177.78   15.20 
   3  -2   7  168.38   18.00 
   3  -2   7  166.98   20.20 
   3  -2   7  152.18   15.60 
  -4   2  -7  130.59   13.60 
  -4   2  -7  154.88   16.70 
  -4   2  -7  121.19   15.30 
  -4   2  -7  131.99   15.90 
  -4   2  -7  135.69   16.70 
   4  -2   7  144.29   12.20 
   4  -2   7  127.49   13.00 
   4  -2   7  135.39   13.70 
  -5   2  -7    5.70    2.70 
  -5   2  -7    4.70    3.00 
  -5   2  -7    5.60    2.30 
  -5   2  -7    1.40    2.10 
  -5   2  -7    4.40    2.90 
   5  -2   7    4.10    2.00 
   5  -2   7    1.80    1.70 
   5  -2   7    4.50    2.30 
   6   1  -7    6.40    2.10 
   6   1  -7    5.60    2.50 
  -6  -1   7    7.40    3.10 
  -6  -1   7    9.10   35.90 
  -6  -1   7   10.10    2.80 
  -6  -1   7   11.70    3.60 
  -6  -1   7    7.70    2.70 
   5   1  -7   49.40    7.50 
   5   1  -7   49.30    7.40 
  -5  -1   7   60.99   10.90 
  -5  -1   7   45.60    9.10 
  -5  -1   7   35.00    8.50 
  -5  -1   7   56.99   10.10 
  -5  -1   7   51.19    7.80 
  -5  -1   7   33.80   79.49 
   4   1  -7   58.19    9.20 
   4   1  -7   37.60   10.50 
   4   1  -7   50.39    8.10 
   4   1  -7   62.79    9.50 
  -4  -1   7   40.90    8.00 
  -4  -1   7   37.80    8.80 
  -4  -1   7   45.00   10.30 
  -4  -1   7   40.60    9.80 
  -4  -1   7   62.69   14.70 
  -4  -1   7   17.50   81.29 
  -4  -1   7   60.49   13.50 
   3   1  -7   11.50    3.60 
   3   1  -7    7.40    3.90 
   3   1  -7   11.90    4.30 
  -3  -1   7   24.80    8.10 
  -3  -1   7   16.40    5.00 
  -3  -1   7    9.70    4.70 
  -3  -1   7  -13.00   32.40 
  -3  -1   7   12.20    5.70 
  -3  -1   7   17.60    5.30 
  -3  -1   7    8.70    4.00 
  -3  -1   7    1.50    4.90 
   2   1  -7    9.10    3.50 
   2   1  -7   19.30    6.20 
   2   1  -7   16.50    4.40 
  -2  -1   7   23.30    6.40 
  -2  -1   7   10.50    4.40 
  -2  -1   7   10.80    3.40 
  -2  -1   7   18.90    6.90 
  -2  -1   7   18.10    7.00 
   1   1  -7   35.90    5.80 
   1   1  -7   30.20    6.00 
  -1  -1   7   45.20    8.20 
  -1  -1   7   42.30    8.70 
  -1  -1   7   51.19    7.40 
   0   1  -7   13.10    3.80 
   0   1  -7   14.10    5.30 
   0   1  -7   12.00    3.50 
   0  -1   7   21.10    5.10 
   0  -1   7   10.70    6.70 
   0  -1   7   15.90    6.40 
  -1   1  -7  291.77   22.00 
  -1   1  -7  298.37   21.40 
   1  -1   7  216.08   26.00 
   1  -1   7  206.88   23.60 
  -2   1  -7  235.78   19.70 
  -2   1  -7  241.58   22.20 
  -2   1  -7  198.78   18.60 
   2  -1   7  236.68   22.70 
   2  -1   7  197.78   18.40 
  -3   1  -7   45.10    7.70 
  -3   1  -7   45.80    9.50 
  -3   1  -7   37.70    7.50 
  -3   1  -7   65.39    9.10 
  -3   1  -7   48.80    9.20 
   3  -1   7   39.40    6.20 
   3  -1   7   48.50    6.40 
   3  -1   7   35.50    7.90 
   3  -1   7   49.70   10.00 
   3  -1   7   47.70    5.70 
  -4   1  -7  337.27   31.30 
  -4   1  -7  405.46   35.10 
  -4   1  -7  414.96   36.40 
  -4   1  -7  405.36   35.40 
  -4   1  -7  393.76   35.00 
  -4   1  -7  365.56   34.30 
   4  -1   7  392.76   30.00 
   4  -1   7  359.16   31.20 
   4  -1   7  387.66   32.10 
  -5   1  -7    9.50    5.00 
  -5   1  -7    9.90    4.00 
  -5   1  -7    8.10    3.90 
  -5   1  -7   10.20    3.50 
  -5   1  -7    6.50    4.60 
   5  -1   7   11.30    2.70 
   5  -1   7   14.00    4.90 
   5  -1   7  145.79  115.79 
   5  -1   7   12.50    3.60 
  -6   1  -7    0.60    1.80 
  -6   1  -7    0.90    1.40 
  -6   1  -7    3.00    2.00 
  -6   1  -7    0.70    1.40 
  -6   1  -7    2.50    1.80 
   6  -1   7    0.40    1.40 
   6  -1   7    0.90    1.50 
   5   0  -7   12.60    4.30 
   5   0  -7   24.60    4.80 
  -5   0   7   -7.20   20.10 
  -5   0   7    6.20    5.80 
  -5   0   7    7.20    4.20 
  -5   0   7   12.70    5.00 
  -5   0   7   13.50    3.40 
  -5   0   7   19.10    6.60 
   4   0  -7   56.79    9.50 
   4   0  -7   71.59    9.70 
  -4   0   7   77.09   10.30 
  -4   0   7   68.69   11.30 
  -4   0   7   70.19   14.00 
  -4   0   7   77.79   13.20 
  -4   0   7   95.59   13.60 
  -4   0   7    1.80   63.79 
   3   0  -7  687.13   60.99 
   3   0  -7  881.81   63.29 
   3   0  -7  893.01   63.59 
  -3   0   7  733.93   65.19 
  -3   0   7  800.42   66.29 
  -3   0   7  837.02   66.39 
  -3   0   7  886.51   68.29 
  -3   0   7  707.13   65.59 
  -3   0   7  767.32   63.79 
  -3   0   7  746.83   67.39 
   2   0  -7  306.27   26.20 
   2   0  -7  314.97   26.10 
  -2   0   7  259.57   27.40 
  -2   0   7  245.28   31.30 
  -2   0   7  300.97   29.20 
  -2   0   7  295.57   28.30 
  -2   0   7  329.17   29.40 
  -2   0   7  328.37   35.20 
  -2   0   7  296.27   27.60 
   1   0  -7   78.49    8.20 
   1   0  -7   77.09    8.80 
   1   0  -7   65.39    9.50 
  -1   0   7   65.19    8.90 
  -1   0   7   55.89   10.80 
   0   0  -7  750.82   55.49 
   0   0  -7  710.63   57.49 
   0   0  -7  654.73   56.69 
   0   0   7  838.32   58.49 
   0   0   7  801.42   57.39 
   0   0   7  607.94   59.59 
  -1   0  -7  161.18   12.80 
  -1   0  -7  136.09   13.70 
  -1   0  -7  146.29   15.30 
   1   0   7  135.79   14.90 
   1   0   7  132.89   13.80 
   1   0   7  123.39   16.50 
  -2   0  -7  354.06   26.40 
  -2   0  -7  335.27   26.90 
   2   0   7  282.17   30.80 
  -3   0  -7  321.17   25.70 
  -3   0  -7  334.77   27.40 
  -3   0  -7  300.47   27.60 
   3   0   7  268.17   22.00 
   3   0   7  238.38   23.70 
   3   0   7  262.77   23.20 
   3   0   7  315.37   27.10 
   3   0   7  228.98   27.30 
   3   0   7  310.07   24.50 
  -4   0  -7   67.59    9.80 
  -4   0  -7   62.79    9.40 
  -4   0  -7   63.59   11.20 
  -4   0  -7   78.49   11.70 
  -4   0  -7   55.89   10.00 
  -4   0  -7   42.10    9.00 
   4   0   7   67.69    6.80 
   4   0   7   62.79   10.40 
   4   0   7   74.89   10.50 
   4   0   7   47.00    7.30 
   4   0   7  -11.80   36.60 
  -5   0  -7  384.36   31.50 
  -5   0  -7  340.17   31.40 
  -5   0  -7  326.27   30.50 
  -5   0  -7  319.67   30.30 
  -5   0  -7  328.67   29.70 
  -5   0  -7  299.27   29.40 
   5   0   7  273.67   26.10 
   5   0   7  320.27   25.20 
  -6   0  -7   13.00    3.80 
  -6   0  -7    9.60    3.80 
  -6   0  -7   12.00    4.20 
  -6   0  -7   10.70    4.20 
   6   0   7   10.80    2.70 
   6   0   7  -23.20   22.90 
   6   0   7   13.40    3.40 
  -7   0  -7    1.00    1.10 
   7   0   7    0.60    0.80 
   5  -1  -7   14.40    3.40 
  -5   1   7   16.00    4.90 
  -5   1   7   20.40    4.60 
  -5   1   7   17.20    4.70 
  -5   1   7   17.80    4.40 
  -5   1   7  -14.60   21.20 
   4  -1  -7   12.30    3.50 
  -4   1   7    3.90    4.20 
  -4   1   7   10.70    4.70 
  -4   1   7   11.00    5.00 
  -4   1   7    8.10    5.40 
  -4   1   7    0.90   40.20 
  -4   1   7    7.00    3.40 
   3  -1  -7  147.79   14.40 
   3  -1  -7  156.68   15.30 
  -3   1   7  129.69   17.20 
  -3   1   7  118.19   16.30 
  -3   1   7  113.49   14.80 
  -3   1   7  151.08   18.90 
  -3   1   7  127.59   17.10 
  -3   1   7  129.49   18.50 
   2  -1  -7   98.49   11.30 
   2  -1  -7   91.59   10.10 
  -2   1   7  108.99   12.80 
  -2   1   7   75.99   13.50 
  -2   1   7   74.49   11.80 
  -2   1   7   80.29   12.50 
  -2   1   7   66.59   11.60 
  -2   1   7   79.39   11.40 
   1  -1  -7    7.10    3.40 
   1  -1  -7    1.80    3.30 
   1  -1  -7    6.20    2.80 
  -1   1   7   10.30    4.60 
  -1   1   7   14.20    6.00 
  -1   1   7    5.60    4.70 
   0  -1  -7  144.69   15.10 
   0  -1  -7  140.09   14.60 
   0  -1  -7  154.08   14.10 
   0   1   7  145.99   15.10 
   0   1   7  170.98   16.60 
  -1  -1  -7  850.41   67.49 
  -1  -1  -7  945.31   64.99 
  -1  -1  -7  747.63   66.89 
   1   1   7 1000.70   68.29 
   1   1   7  744.53   70.19 
   1   1   7  894.11   68.09 
  -2  -1  -7 1104.59   81.99 
  -2  -1  -7 1125.99   84.89 
  -2  -1  -7 1131.99   85.29 
  -2  -1  -7 1109.39   84.19 
   2   1   7  958.90   87.49 
   2   1   7 1170.28   85.49 
  -3  -1  -7  113.49   11.10 
  -3  -1  -7  107.69   13.60 
  -3  -1  -7  124.79   14.20 
   3   1   7  129.59   14.20 
   3   1   7  134.39   21.70 
  -4  -1  -7   65.89   10.50 
  -4  -1  -7   82.99   10.20 
  -4  -1  -7   77.69    9.30 
  -4  -1  -7   75.89   10.80 
  -4  -1  -7   67.39   11.80 
   4   1   7   54.09    9.60 
   4   1   7   48.60    6.20 
   4   1   7    7.10   42.20 
   4   1   7   61.19    7.60 
  -5  -1  -7   42.10    7.50 
  -5  -1  -7   33.00    7.70 
  -5  -1  -7   41.90    8.80 
  -5  -1  -7   44.70    8.70 
  -5  -1  -7   37.30    8.00 
   5   1   7   36.10    5.00 
   5   1   7   25.40    7.50 
   5   1   7   10.70   63.89 
  -6  -1  -7   75.49    9.60 
  -6  -1  -7   96.59   12.30 
  -6  -1  -7   57.49   10.00 
  -6  -1  -7   69.59   10.70 
   6   1   7   85.39    9.20 
   6   1   7   78.69    7.10 
   6   1   7   -1.50   37.90 
  -7  -1  -7   15.40    3.90 
  -7  -1  -7    5.80    3.50 
   7   1   7    6.60    2.00 
   7   1   7  -11.80   22.30 
   4  -2  -7   42.20    6.10 
  -4   2   7   51.59   10.60 
  -4   2   7   50.69    9.60 
  -4   2   7   55.99    8.80 
  -4   2   7   -8.00   49.50 
  -4   2   7   43.40    8.70 
   3  -2  -7  193.18   17.30 
  -3   2   7  186.48   21.50 
  -3   2   7  166.98   20.50 
  -3   2   7  170.78   21.20 
  -3   2   7  198.28   21.60 
   2  -2  -7   39.00    7.20 
   2  -2  -7   34.40    5.80 
  -2   2   7   21.50    8.20 
  -2   2   7   46.30    7.80 
  -2   2   7   -1.20   51.99 
  -2   2   7   31.00    8.10 
  -2   2   7   24.00    7.50 
  -2   2   7   27.90    9.60 
  -2   2   7   31.30    7.40 
   1  -2  -7   57.29    7.30 
   1  -2  -7   54.99    8.50 
  -1   2   7    4.80   38.90 
  -1   2   7   48.60    9.80 
  -1   2   7   52.29    8.30 
  -1   2   7   59.59   14.50 
  -1   2   7   43.00   10.40 
  -1   2   7   48.20    8.30 
   0  -2  -7  836.12   58.29 
   0  -2  -7  685.73   57.39 
   0   2   7  689.33   63.49 
   0   2   7  666.33   62.89 
   0   2   7  768.92   60.39 
  -1  -2  -7  554.84   43.00 
  -1  -2  -7  473.65   42.60 
   1   2   7  554.74   43.80 
   1   2   7  581.84   44.90 
   1   2   7  456.35   45.80 
  -2  -2  -7  671.23   58.79 
  -2  -2  -7  741.03   58.59 
  -2  -2  -7  804.62   59.49 
  -3  -2  -7    6.40    3.00 
  -3  -2  -7    8.40    5.00 
   3   2   7    5.90    4.30 
   3   2   7    6.50    5.00 
  -4  -2  -7   98.59   13.10 
  -4  -2  -7   98.19   12.30 
  -4  -2  -7   72.29   12.90 
  -4  -2  -7  115.99   13.70 
   4   2   7   86.39   12.40 
   4   2   7  100.49   10.50 
   4   2   7  102.79   12.70 
  -5  -2  -7   62.79   16.30 
  -5  -2  -7   68.29   12.50 
  -5  -2  -7   49.90   10.00 
   5   2   7   50.49    7.20 
   5   2   7   40.50    7.10 
   5   2   7   42.20    9.60 
  -6  -2  -7    8.30    4.30 
  -6  -2  -7   14.10    4.90 
   6   2   7   11.20    3.40 
   6   2   7   10.40    4.20 
   6   2   7   -7.20   50.59 
  -7  -2  -7   31.80    6.60 
  -7  -2  -7   29.90    5.50 
   7   2   7   28.80    5.10 
  -4   3   7   39.20    7.40 
  -4   3   7   12.70   37.90 
  -4   3   7   28.40    4.90 
  -4   3   7   24.40    5.20 
  -3   3   7   -1.80    2.30 
  -3   3   7    4.30    2.70 
  -3   3   7   25.90   48.40 
  -3   3   7   -2.30    4.50 
  -3   3   7    5.90    4.10 
   2  -3  -7  265.67   23.20 
   2  -3  -7  274.07   21.90 
  -2   3   7  201.38   23.80 
  -2   3   7  248.18   26.40 
  -2   3   7  230.78   25.30 
  -2   3   7  236.68   25.10 
  -2   3   7  267.57   25.90 
   1  -3  -7  134.99   13.80 
   1  -3  -7  122.99   12.60 
  -1   3   7  132.59   15.50 
  -1   3   7  120.99   14.80 
  -1   3   7  127.39   15.20 
  -1   3   7  105.79   16.20 
  -1   3   7  134.49   16.80 
  -1   3   7  130.09   15.70 
   0  -3  -7   12.70    3.80 
   0  -3  -7   19.50    5.00 
   0   3   7   20.20    6.70 
   0   3   7   15.70    5.60 
   0   3   7   19.20    7.30 
   0   3   7   32.10   62.19 
   0   3   7   21.30    5.90 
   0   3   7   16.40    6.90 
   0   3   7   12.10    4.70 
   0   3   7   21.30    5.70 
  -1  -3  -7  348.87   33.20 
  -1  -3  -7  250.37   26.00 
   1   3   7  308.67   29.30 
   1   3   7  317.77   29.80 
   1   3   7  317.97   29.30 
   1   3   7  332.97   29.10 
   1   3   7  268.07   27.30 
   1   3   7  299.77   26.50 
  -2  -3  -7   77.19   10.70 
  -2  -3  -7   92.39   11.00 
  -2  -3  -7   95.99   12.40 
   2   3   7   83.89   10.00 
   2   3   7   95.69   12.80 
   2   3   7   77.49   11.80 
  -3  -3  -7  197.58   18.70 
  -3  -3  -7  183.58   19.90 
  -3  -3  -7  212.68   21.50 
  -3  -3  -7  197.98   17.50 
   3   3   7  205.28   21.20 
   3   3   7  195.98   19.20 
   3   3   7  209.28   20.80 
   3   3   7  174.18   17.90 
  -4  -3  -7  189.88   20.70 
  -4  -3  -7  193.38   20.30 
  -4  -3  -7  200.18   16.60 
  -4  -3  -7  181.58   19.10 
  -4  -3  -7  172.88   17.90 
   4   3   7  155.18   16.80 
   4   3   7  191.18   19.90 
   4   3   7  219.28   18.30 
   4   3   7  158.98   18.10 
  -5  -3  -7  165.88   25.10 
  -5  -3  -7  170.38   14.50 
  -5  -3  -7  180.28   20.10 
   5   3   7  162.08   15.60 
  -6  -3  -7   66.39   11.50 
  -6  -3  -7   70.19   10.30 
   6   3   7   72.39    8.50 
   6   3   7   68.19    8.70 
   6   3   7  -46.00   58.79 
  -7  -3  -7    0.90    2.90 
  -7  -3  -7    3.50    3.30 
   7   3   7    2.10    1.70 
   7   3   7   12.60   38.10 
   7   3   7    4.50    2.50 
  -8  -3  -7    0.00    1.10 
   8   3   7   -0.60   29.00 
  -3   4   7   16.10    8.60 
  -3   4   7   13.40   28.80 
   2  -4  -7   83.39    7.90 
  -2   4   7   76.89   11.60 
  -2   4   7   65.69   11.70 
  -2   4   7   -3.10   47.20 
  -2   4   7   60.69    9.70 
  -2   4   7   59.49   10.70 
   1  -4  -7  142.99   13.70 
  -1   4   7  163.48   17.60 
  -1   4   7  109.49   15.40 
  -1   4   7  134.39   16.00 
  -1   4   7  145.29   17.90 
  -1   4   7  119.39   15.20 
   0  -4  -7   46.30    7.00 
   0   4   7   64.19   10.10 
   0   4   7   43.70   10.80 
   0   4   7   60.69   11.10 
   0   4   7   60.99   11.80 
   0   4   7   45.60    7.70 
   0   4   7   61.69   13.40 
  -1  -4  -7   55.69   10.60 
  -1  -4  -7   45.10    7.60 
   1   4   7   40.20    9.10 
   1   4   7   60.39    9.20 
   1   4   7   46.20    9.90 
   1   4   7   13.70   67.09 
   1   4   7   84.09   16.40 
   1   4   7   48.10    7.90 
   1   4   7   67.89   12.60 
  -2  -4  -7   29.80    8.10 
  -2  -4  -7   18.30    5.50 
   2   4   7   26.40    6.20 
   2   4   7   24.60    7.30 
   2   4   7   16.20    6.20 
   2   4   7   32.70    6.70 
   2   4   7   20.40    6.20 
   2   4   7   30.60    7.40 
   2   4   7  -21.50   28.20 
  -3  -4  -7  120.39   17.20 
  -3  -4  -7  124.39   15.70 
  -3  -4  -7  128.29   13.70 
   3   4   7  133.99   14.30 
   3   4   7  164.58   17.50 
   3   4   7   11.80   58.49 
   3   4   7  137.89   14.90 
   3   4   7  127.69   15.60 
   3   4   7  128.69   16.30 
   3   4   7  159.38   15.30 
   3   4   7  172.48   18.00 
  -4  -4  -7   45.10   10.40 
  -4  -4  -7   66.89   12.00 
  -4  -4  -7   54.69    9.70 
  -4  -4  -7   57.39    8.90 
   4   4   7   52.19    9.00 
   4   4   7   46.10    9.60 
   4   4   7   25.50   68.19 
   4   4   7   52.49    9.40 
   4   4   7   60.39    8.60 
   4   4   7   46.70    9.40 
   4   4   7   57.89    8.50 
  -5  -4  -7   45.60   10.10 
  -5  -4  -7   53.79    7.20 
  -5  -4  -7   60.49   10.30 
   5   4   7   40.50    9.20 
   5   4   7   64.59    8.20 
   5   4   7    6.20   43.10 
   5   4   7   54.99    8.20 
   5   4   7   46.30    8.40 
  -6  -4  -7   14.20    6.60 
  -6  -4  -7   12.50    5.30 
   6   4   7    0.50   41.70 
  -7  -4  -7    1.40    2.60 
  -7  -4  -7    4.80    3.30 
   7   4   7    3.00   23.20 
  -8  -4  -7    4.60    2.10 
   8   4   7    7.40   22.50 
  -1   5   7   56.49   10.20 
  -1   5   7   38.20    6.80 
  -1   5   7   45.80    7.70 
   0  -5  -7   66.79    8.40 
   0   5   7   61.39   12.30 
   0   5   7   87.89   13.00 
   0   5   7   61.79    8.50 
   0   5   7   85.09   16.70 
   0   5   7  -20.60   54.19 
  -1  -5  -7   42.90    7.50 
   1   5   7   58.39   10.70 
   1   5   7   71.59   11.00 
   1   5   7   52.39   10.00 
   1   5   7   65.19   10.30 
   1   5   7   -8.10   48.40 
   1   5   7   49.20    7.80 
  -2  -5  -7  146.49   19.80 
  -2  -5  -7  141.79   16.70 
   2   5   7  171.58   17.30 
   2   5   7  174.08   19.90 
   2   5   7  164.78   19.90 
   2   5   7  180.98   19.50 
   2   5   7  158.28   16.10 
  -3  -5  -7  145.29   15.50 
  -3  -5  -7  134.09   19.30 
  -3  -5  -7  155.88   18.00 
   3   5   7  181.38   17.70 
   3   5   7  203.98   21.30 
   3   5   7  195.18   17.20 
   3   5   7  122.79   18.40 
   3   5   7  182.88   19.70 
   3   5   7  175.98   19.30 
  -4  -5  -7   36.00    8.90 
  -4  -5  -7   40.50   10.60 
  -4  -5  -7   36.10    6.80 
  -4  -5  -7   38.40    9.30 
   4   5   7   43.10    7.30 
   4   5   7   43.30    7.80 
   4   5   7   45.30    9.10 
   4   5   7   52.89    8.10 
   4   5   7    5.80   38.40 
   4   5   7   33.70    8.30 
  -5  -5  -7   -3.50    4.80 
  -5  -5  -7    3.40    3.20 
  -5  -5  -7   -1.10    3.00 
   5   5   7   -3.20    2.00 
   5   5   7   -1.60    2.40 
   5   5   7  -15.30   34.10 
   5   5   7    6.30    3.90 
   5   5   7   -2.60    2.80 
   5   5   7    1.50    4.20 
  -6  -5  -7   49.00    9.70 
  -6  -5  -7   42.90    9.00 
   6   5   7   43.00    8.80 
   6   5   7   54.29    7.80 
   6   5   7    3.50   30.00 
  -7  -5  -7    7.60    3.50 
  -7  -5  -7    3.40    2.40 
   7   5   7  -13.40   17.60 
   7   5   7    5.40    2.40 
   0   6   7   89.09    9.00 
   0   6   7   63.69    9.20 
   0   6   7   90.19   11.10 
   0   6   7   58.69    9.00 
  -1  -6  -7   40.10    7.00 
   1   6   7   58.69    9.20 
   1   6   7   52.39   10.50 
   1   6   7   45.00    6.90 
   1   6   7   46.20    8.70 
   1   6   7   35.50    8.80 
  -2  -6  -7  149.19   17.30 
   2   6   7  205.68   20.70 
   2   6   7  157.88   20.30 
   2   6   7  134.19   15.90 
   2   6   7  184.58   20.40 
   2   6   7  209.28   18.70 
   2   6   7  173.38   17.70 
  -3  -6  -7   22.50    6.30 
   3   6   7   17.20    4.60 
   3   6   7   28.40   11.70 
   3   6   7   15.80    7.00 
   3   6   7   30.10    7.10 
   3   6   7   24.00    8.40 
   3   6   7   30.10    9.00 
  -4  -6  -7   29.20    7.10 
  -4  -6  -7   30.20    6.20 
  -4  -6  -7   19.20    7.20 
   4   6   7   20.00    5.40 
   4   6   7   23.20    6.60 
   4   6   7   16.70    5.20 
   4   6   7   31.20    8.20 
   4   6   7   37.50    6.80 
  -5  -6  -7   23.10    4.60 
  -5  -6  -7   19.30    6.30 
  -5  -6  -7   25.60    6.50 
   5   6   7   18.40    5.20 
   5   6   7   22.10    5.30 
   5   6   7    9.90    4.00 
   5   6   7   15.80    5.10 
   5   6   7  -13.50   32.90 
  -6  -6  -7    1.50    2.80 
  -6  -6  -7    0.60    2.30 
  -6  -6  -7    0.60    2.80 
   6   6   7   -2.10    2.70 
   6   6   7    1.00   35.00 
   6   6   7   -0.40    1.90 
  -7  -6  -7   -1.00    3.00 
  -7  -6  -7    0.70    1.70 
   1   7   7   14.40    4.00 
   1   7   7   15.90    4.20 
   1   7   7   18.10    3.10 
  -2  -7  -7    9.20    4.30 
  -2  -7  -7   15.70    4.70 
   2   7   7    8.00    3.60 
   2   7   7    9.50    5.20 
   2   7   7    7.70    2.80 
   2   7   7    4.80    3.50 
   2   7   7    4.50    2.50 
  -3  -7  -7   -1.50    1.60 
  -3  -7  -7    7.20    3.00 
  -3  -7  -7   -0.20    3.30 
   3   7   7   -4.20    2.50 
   3   7   7    0.50    2.40 
   3   7   7   -2.70    3.30 
   3   7   7    1.80    1.90 
  -4  -7  -7    2.80    2.60 
  -4  -7  -7   -2.10    3.30 
  -4  -7  -7    0.20    2.80 
   4   7   7    7.60    2.90 
   4   7   7    3.50    2.50 
   4   7   7    3.30    2.10 
   4   7   7   11.00    4.60 
   4   7   7    3.20    2.90 
  -5  -7  -7    0.20    1.70 
  -5  -7  -7    1.10    2.50 
   5   7   7   -0.40    1.60 
   5   7   7   -0.80    2.70 
   5   7   7   -2.00    1.50 
   5   7   7    1.90    2.00 
  -6  -7  -7   -1.20    1.60 
  -6  -7  -7    3.10    2.30 
   6   7   7    2.70    2.90 
  -4  -6   8   11.70    2.70 
   3   6  -8   16.70    4.10 
   3   6  -8   11.40    4.40 
  -3  -6   8   17.80    4.00 
   2   6  -8   16.30    4.20 
   2   6  -8   16.90    4.20 
  -2  -6   8   12.40    3.00 
  -2  -6   8    5.30    3.50 
   1   6  -8    5.20    2.10 
   1   6  -8    2.50    1.70 
  -1  -6   8    0.20    2.60 
  -1  -6   8    1.70    2.00 
   0   6  -8   33.00    4.30 
   0   6  -8   32.70    3.80 
   0   6  -8   28.70    5.30 
   0  -6   8   41.30    5.70 
   5   5  -8    2.70    1.40 
   5   5  -8    0.00    1.30 
  -5  -5   8    2.80    1.80 
   4   5  -8    6.30    2.90 
   4   5  -8    4.70    2.50 
  -4  -5   8    6.00    2.90 
  -4  -5   8    3.90    2.20 
   3   5  -8   70.99   11.80 
   3   5  -8   93.39   10.30 
   3   5  -8   81.89   12.50 
  -3  -5   8   94.59   10.40 
  -3  -5   8   71.59    9.90 
  -3  -5   8   58.49   10.40 
   2   5  -8   16.80    4.90 
   2   5  -8   22.90    6.60 
  -2  -5   8   14.20    4.70 
  -2  -5   8   24.00    5.40 
  -2  -5   8   12.00    5.80 
   1   5  -8   40.40    6.10 
   1   5  -8   49.30    7.70 
   1   5  -8   52.29   10.40 
   1   5  -8   54.99   10.20 
  -1  -5   8   45.80    7.60 
  -1  -5   8   54.29    8.00 
   0   5  -8   21.80    6.60 
   0   5  -8   13.00    3.70 
   0   5  -8   12.70    3.80 
   0   5  -8   10.80    4.20 
   0  -5   8   13.90    3.80 
   0  -5   8   18.80    3.40 
   0  -5   8   11.70    3.70 
  -1   5  -8   24.20    4.30 
  -1   5  -8   22.00    3.40 
  -1   5  -8   13.80    3.60 
  -1   5  -8   16.10    5.00 
   1  -5   8   20.30    5.00 
  -2   5  -8    7.30    3.60 
  -2   5  -8   11.40    2.90 
  -2   5  -8    9.90    2.10 
  -2   5  -8   10.10    2.60 
   2  -5   8    8.70    2.50 
   5   4  -8    2.70    2.60 
   5   4  -8    5.20    2.80 
  -5  -4   8    7.00    2.90 
  -5  -4   8    4.70    2.60 
   4   4  -8   31.30    6.90 
   4   4  -8   33.00    7.00 
  -4  -4   8   31.50    7.00 
  -4  -4   8   36.20    7.10 
   3   4  -8   22.30    7.10 
  -3  -4   8   23.40    5.70 
  -3  -4   8   22.40    8.50 
   2   4  -8  176.78   20.20 
   2   4  -8  258.87   25.30 
   2   4  -8  203.28   24.50 
  -2  -4   8  234.78   21.10 
  -2  -4   8  218.88   21.70 
   1   4  -8   14.10    7.30 
   1   4  -8   21.80    7.00 
   1   4  -8   12.70    4.30 
  -1  -4   8    9.30    4.00 
  -1  -4   8   16.00    4.70 
  -1  -4   8   14.10    3.20 
  -1  -4   8   29.00    9.60 
   0   4  -8  112.59   11.60 
   0   4  -8  107.29   16.60 
   0   4  -8   90.39   15.40 
   0   4  -8   94.39   12.40 
   0   4  -8  102.59   12.40 
   0  -4   8  126.39   22.40 
   0  -4   8  121.99   10.20 
   0  -4   8  108.09   13.10 
  -1   4  -8    4.60    3.30 
  -1   4  -8    1.30    3.10 
  -1   4  -8    1.80    2.10 
  -1   4  -8    3.90    4.40 
  -1   4  -8    1.70    1.60 
  -1   4  -8    3.60    2.00 
   1  -4   8    2.40    3.00 
   1  -4   8    4.50    2.30 
   1  -4   8    3.40    2.90 
  -2   4  -8   39.70    6.50 
  -2   4  -8   33.20    8.40 
  -2   4  -8   26.40    5.00 
  -2   4  -8   34.60    5.90 
  -2   4  -8   32.20    5.50 
   2  -4   8   24.80    5.30 
  -3   4  -8   13.70    3.10 
  -3   4  -8   11.20    3.70 
  -3   4  -8   16.40    3.80 
  -3   4  -8   15.40    3.40 
  -3   4  -8   13.90    3.30 
   3  -4   8   14.00    3.50 
   6   3  -8    5.60    2.10 
   6   3  -8   -0.80    1.20 
  -6  -3   8    3.90    1.40 
  -6  -3   8    0.00    2.00 
   5   3  -8   64.29    9.50 
   5   3  -8   79.59    9.30 
   5   3  -8   59.29    7.30 
  -5  -3   8   60.99    8.60 
  -5  -3   8   63.09   10.80 
  -5  -3   8   86.19   10.50 
   4   3  -8   27.70    6.80 
   4   3  -8   41.50    5.70 
   4   3  -8   32.50    7.10 
  -4  -3   8   32.40    7.40 
  -4  -3   8   45.00    8.90 
  -4  -3   8   32.20   10.00 
  -4  -3   8   26.60    5.90 
   3   3  -8   47.20   11.40 
   3   3  -8   36.90    9.00 
   3   3  -8   51.49   10.80 
   3   3  -8   49.50    6.90 
  -3  -3   8   37.50    7.90 
  -3  -3   8   60.99   10.00 
  -3  -3   8   57.19   10.60 
  -3  -3   8   68.59    8.90 
   2   3  -8  959.00   82.29 
   2   3  -8  890.71   77.59 
   2   3  -8 1063.39   86.59 
  -2  -3   8 1079.79   77.99 
  -2  -3   8 1008.40   80.79 
  -2  -3   8  942.41   78.39 
  -2  -3   8 1021.20   79.19 
   1   3  -8  159.58   17.90 
   1   3  -8  178.58   20.50 
   1   3  -8  135.69   17.80 
   1   3  -8  170.58   20.60 
  -1  -3   8  151.18   16.20 
  -1  -3   8  137.79   19.10 
  -1  -3   8  159.98   17.20 
  -1  -3   8  196.98   16.90 
   0   3  -8  725.63   54.69 
   0   3  -8  680.83   57.59 
   0   3  -8  636.64   56.39 
   0   3  -8  710.23   60.79 
   0   3  -8  695.33   61.69 
   0  -3   8  769.32   56.99 
   0  -3   8  725.23   52.39 
   0  -3   8  671.43   59.19 
   0  -3   8  661.43   54.79 
  -1   3  -8  103.29   20.60 
  -1   3  -8  109.39   14.70 
  -1   3  -8  137.49   12.70 
  -1   3  -8  118.09   14.50 
  -1   3  -8  108.89   17.50 
   1  -3   8  136.49   11.20 
   1  -3   8  118.19   14.00 
   1  -3   8  135.19   12.60 
   1  -3   8  112.09   16.90 
  -2   3  -8  288.27   30.80 
  -2   3  -8  285.77   24.70 
  -2   3  -8  263.07   27.30 
  -2   3  -8  319.07   28.80 
  -2   3  -8  360.96   28.90 
  -2   3  -8  283.87   25.60 
  -2   3  -8  278.57   26.10 
   2  -3   8  312.87   23.20 
   2  -3   8  241.48   23.80 
   2  -3   8  254.97   28.10 
   2  -3   8  305.17   24.80 
  -3   3  -8    4.00    2.20 
  -3   3  -8    4.70    4.20 
  -3   3  -8    6.00    2.90 
  -3   3  -8    6.70    3.20 
  -3   3  -8    7.60    3.30 
  -3   3  -8    7.00    3.70 
   3  -3   8    2.20    2.30 
   3  -3   8    2.80    2.60 
   3  -3   8    9.20    2.80 
  -4   3  -8    9.50    3.60 
  -4   3  -8   23.30    4.70 
  -4   3  -8   14.30    4.70 
  -4   3  -8   13.30    3.40 
  -4   3  -8   18.30    3.50 
   4  -3   8   30.20    5.30 
   4  -3   8   22.10    3.40 
   6   2  -8    4.50    1.80 
   6   2  -8    8.00    2.20 
   5   2  -8   29.20    6.80 
   5   2  -8   23.90    4.70 
  -5  -2   8   17.30    4.70 
  -5  -2   8   36.50    6.60 
  -5  -2   8   24.40    7.10 
  -5  -2   8   -6.10   41.50 
  -5  -2   8   30.70    6.80 
   4   2  -8  168.58   20.20 
   4   2  -8  177.38   18.00 
   4   2  -8  199.88   17.00 
  -4  -2   8  198.68   23.80 
  -4  -2   8  177.98   21.00 
  -4  -2   8   46.40   81.09 
  -4  -2   8  205.08   21.90 
  -4  -2   8  183.68   21.30 
   3   2  -8  695.93   57.09 
   3   2  -8  717.43   50.99 
   3   2  -8  603.94   52.39 
   3   2  -8  650.13   53.39 
  -3  -2   8  626.64   55.79 
  -3  -2   8  678.43   59.49 
  -3  -2   8  609.54   53.79 
  -3  -2   8  662.63   53.39 
  -3  -2   8  665.33   55.49 
  -3  -2   8  600.04   55.09 
   2   2  -8   12.50    4.70 
   2   2  -8   14.20    6.50 
   2   2  -8   18.80    4.30 
   2   2  -8   13.20    5.10 
   2   2  -8   13.80    6.10 
  -2  -2   8   17.00    5.20 
  -2  -2   8   11.80    6.80 
  -2  -2   8   11.20    6.40 
  -2  -2   8   25.20    5.80 
  -2  -2   8   12.80    4.70 
   1   2  -8  122.49   16.00 
   1   2  -8  145.29   12.20 
   1   2  -8  122.99   15.00 
   1   2  -8  138.69   16.70 
  -1  -2   8  121.19   14.60 
  -1  -2   8  120.19   13.00 
  -1  -2   8  127.09   14.30 
  -1  -2   8  114.59   19.60 
  -1  -2   8  107.59   13.10 
  -1  -2   8  143.19   15.50 
   0   2  -8  130.19   14.90 
   0   2  -8  114.79   12.70 
   0   2  -8  126.99   16.50 
   0   2  -8  103.29   10.60 
   0   2  -8  118.69   15.60 
   0  -2   8  110.19   12.50 
   0  -2   8  114.39   11.10 
   0  -2   8  113.89   15.60 
   0  -2   8  124.69   13.40 
   0  -2   8  101.59   15.00 
  -1   2  -8  167.68   19.50 
  -1   2  -8  168.38   15.80 
  -1   2  -8  187.38   20.40 
  -1   2  -8  186.98   21.70 
  -1   2  -8  176.68   18.40 
   1  -2   8  180.78   14.40 
   1  -2   8  159.08   20.00 
   1  -2   8  199.78   18.20 
   1  -2   8  176.78   16.40 
  -2   2  -8   25.80    7.80 
  -2   2  -8   17.70    4.50 
  -2   2  -8   13.90    3.90 
  -2   2  -8   20.30    5.90 
  -2   2  -8   17.10    5.70 
  -2   2  -8   12.70    4.70 
   2  -2   8   14.90    3.60 
   2  -2   8   10.10    6.90 
   2  -2   8   12.30    3.90 
  -3   2  -8  189.28   19.20 
  -3   2  -8  181.08   22.30 
  -3   2  -8  168.28   17.10 
  -3   2  -8  193.48   20.90 
  -3   2  -8  216.38   20.90 
  -3   2  -8  208.38   27.90 
  -3   2  -8  185.58   19.20 
   3  -2   8  144.09   19.90 
   3  -2   8  214.38   18.20 
   3  -2   8  208.08   16.10 
  -4   2  -8  226.18   23.90 
  -4   2  -8  246.98   25.70 
  -4   2  -8  278.27   24.90 
  -4   2  -8  290.97   26.80 
  -4   2  -8  229.38   21.80 
   4  -2   8  267.67   22.80 
   4  -2   8  265.77   20.90 
   4  -2   8  296.47   23.70 
  -5   2  -8    4.40    1.90 
  -5   2  -8    4.30    1.40 
  -5   2  -8    3.90    2.50 
  -5   2  -8    2.30    1.90 
  -5   2  -8    4.40    2.00 
   5  -2   8    4.20    1.80 
   5  -2   8    4.20    1.90 
   5   1  -8    8.00    3.00 
   5   1  -8    3.90    3.20 
   5   1  -8   15.40    6.90 
  -5  -1   8   17.30    5.30 
  -5  -1   8    9.70   26.70 
  -5  -1   8   10.80    3.10 
  -5  -1   8    2.20    3.20 
  -5  -1   8    7.50    4.30 
   4   1  -8    7.10    4.50 
   4   1  -8    9.80    3.80 
  -4  -1   8    2.50    5.10 
  -4  -1   8    3.20    8.40 
  -4  -1   8    7.10    4.10 
  -4  -1   8   11.00    4.90 
  -4  -1   8    7.20    5.10 
  -4  -1   8  -18.60   23.00 
   3   1  -8  433.26   39.30 
   3   1  -8  420.56   36.60 
   3   1  -8  448.96   36.40 
   3   1  -8  432.26   34.20 
  -3  -1   8  384.96   38.60 
  -3  -1   8  405.76   39.40 
  -3  -1   8  417.96   41.30 
  -3  -1   8  426.36   39.10 
  -3  -1   8  440.66   38.30 
  -3  -1   8  389.56   39.10 
  -3  -1   8  437.46   36.70 
   2   1  -8  153.78   17.80 
   2   1  -8  167.38   15.50 
   2   1  -8  188.68   17.50 
  -2  -1   8  192.08   19.50 
  -2  -1   8  181.48   20.80 
  -2  -1   8  175.88   21.80 
  -2  -1   8  177.58   18.90 
  -2  -1   8  141.39   18.70 
  -2  -1   8  163.08   16.70 
  -2  -1   8  158.08   18.00 
   1   1  -8    3.00    4.10 
   1   1  -8    4.10    5.10 
   1   1  -8    3.80    2.90 
  -1  -1   8    0.00    5.30 
  -1  -1   8    4.30    2.10 
  -1  -1   8    8.30    4.50 
  -1  -1   8    3.10    5.70 
  -1  -1   8   10.80    5.00 
   0   1  -8  161.88   14.50 
   0   1  -8  150.78   16.50 
   0   1  -8  136.09   14.50 
   0   1  -8  138.49   17.40 
   0   1  -8  144.09   13.30 
   0  -1   8  139.69   18.00 
   0  -1   8  137.99   13.90 
   0  -1   8  134.59   14.80 
   0  -1   8  153.78   15.00 
   0  -1   8  148.29   16.50 
  -1   1  -8   65.29    9.60 
  -1   1  -8   71.79    8.30 
  -1   1  -8   66.09   10.70 
  -1   1  -8   62.69   11.10 
   1  -1   8   66.39   11.20 
   1  -1   8   65.39    7.80 
   1  -1   8   71.29    9.10 
  -2   1  -8   82.89   11.60 
  -2   1  -8   99.89   12.70 
  -2   1  -8   82.29   13.40 
  -2   1  -8   94.09   11.60 
   2  -1   8   82.19    9.40 
   2  -1   8   77.79    7.60 
   2  -1   8   80.99   12.30 
  -3   1  -8  142.29   16.20 
  -3   1  -8  136.49   15.70 
  -3   1  -8  106.09   13.50 
  -3   1  -8  128.19   17.80 
  -3   1  -8  140.19   16.30 
  -3   1  -8  104.29   12.10 
   3  -1   8  132.39   11.30 
   3  -1   8  134.79   16.50 
   3  -1   8  111.69   12.30 
   3  -1   8  148.59   13.70 
  -4   1  -8   19.90    5.70 
  -4   1  -8   22.20    6.40 
  -4   1  -8   21.00    7.30 
  -4   1  -8   24.10    6.30 
  -4   1  -8   19.00    6.60 
  -4   1  -8   24.90    4.50 
   4  -1   8   26.00    4.30 
   4  -1   8   18.50    4.70 
   4  -1   8   14.60    3.90 
   4  -1   8   12.90    5.60 
  -5   1  -8  117.19   14.10 
  -5   1  -8  146.39   15.50 
  -5   1  -8  127.89   12.60 
  -5   1  -8  142.19   15.60 
  -5   1  -8  150.98   16.50 
   5  -1   8  150.38   13.80 
   5  -1   8  142.39   11.70 
  -6   1  -8    4.50    2.30 
  -6   1  -8    1.50    1.60 
  -6   1  -8    4.70    1.80 
   6  -1   8    5.60    1.80 
   6  -1   8    5.20    1.70 
   5   0  -8   12.70    3.40 
   5   0  -8    8.60    2.80 
   5   0  -8   17.30    4.20 
  -5   0   8   12.50    3.50 
  -5   0   8   -3.30   14.60 
  -5   0   8   11.70    3.20 
  -5   0   8   12.70    4.30 
  -5   0   8    8.10    3.30 
   4   0  -8   11.60    3.50 
   4   0  -8    7.50    3.30 
  -4   0   8   12.00    4.90 
  -4   0   8   13.10    4.70 
  -4   0   8   10.40    6.50 
  -4   0   8    6.30    3.20 
  -4   0   8   12.30    5.10 
  -4   0   8  -10.90   29.40 
   3   0  -8    5.20    3.10 
   3   0  -8   12.10    4.50 
  -3   0   8    7.50    3.80 
  -3   0   8   10.00    3.60 
  -3   0   8   -9.40   26.50 
  -3   0   8    4.90    4.70 
  -3   0   8    8.00    4.30 
  -3   0   8    6.60    5.30 
  -3   0   8   13.40    5.30 
  -3   0   8    5.10    4.00 
   2   0  -8  156.38   16.50 
   2   0  -8  211.78   18.70 
  -2   0   8  200.58   22.90 
  -2   0   8  196.98   20.60 
  -2   0   8  146.89   18.40 
  -2   0   8  192.48   21.00 
  -2   0   8  190.38   19.80 
  -2   0   8  214.78   22.20 
   1   0  -8  179.58   17.10 
   1   0  -8  155.98   17.10 
  -1   0   8  193.08   25.00 
  -1   0   8  179.48   19.30 
  -1   0   8  173.28   20.70 
  -1   0   8  176.98   18.70 
  -1   0   8  161.08   17.50 
  -1   0   8  174.58   18.40 
  -1   0   8  149.79   20.40 
   0   0  -8  248.28   23.50 
   0   0  -8  197.88   21.60 
   0   0  -8  233.88   20.60 
   0   0   8  264.97   22.80 
   0   0   8  280.07   24.00 
  -1   0  -8  203.08   20.10 
  -1   0  -8  222.88   22.10 
  -1   0  -8  225.98   19.20 
   1   0   8  237.48   21.00 
   1   0   8  223.08   21.60 
  -2   0  -8  384.16   35.80 
  -2   0  -8  432.86   32.90 
  -2   0  -8  412.86   38.20 
  -2   0  -8  414.86   32.00 
  -2   0  -8  427.46   36.20 
   2   0   8  366.86   35.10 
   2   0   8  407.56   33.40 
  -3   0  -8   98.49   13.80 
  -3   0  -8   82.29   11.70 
  -3   0  -8   97.49   11.60 
  -3   0  -8   96.69   12.70 
  -3   0  -8   93.69   11.20 
   3   0   8  100.59   10.30 
   3   0   8   -0.30   55.09 
   3   0   8   73.19   12.10 
   3   0   8   74.89    7.70 
  -4   0  -8   66.09   10.20 
  -4   0  -8   55.29   12.10 
  -4   0  -8   57.99    9.90 
  -4   0  -8   57.09   11.70 
   4   0   8   56.89    7.90 
   4   0   8   22.70   50.89 
   4   0   8   39.50    9.70 
  -5   0  -8    1.80    2.40 
  -5   0  -8    1.50    3.10 
  -5   0  -8    2.40    2.40 
   5   0   8    1.00    2.10 
   5   0   8    2.40    2.30 
   5   0   8   17.90   32.80 
  -6   0  -8   56.79    8.80 
  -6   0  -8   59.79    7.80 
  -6   0  -8   61.19   10.10 
   6   0   8   66.59    7.70 
   6   0   8   68.29    7.00 
   5  -1  -8   -0.90    1.70 
  -5   1   8   -3.00   14.60 
  -5   1   8    1.00    1.60 
  -5   1   8   -0.10    1.50 
  -5   1   8    1.20    3.70 
   4  -1  -8   76.19    8.40 
   4  -1  -8   48.40    8.00 
  -4   1   8   83.69   11.70 
  -4   1   8    3.40   48.50 
  -4   1   8   65.79    8.60 
  -4   1   8   72.79   10.30 
  -4   1   8   55.79   11.10 
  -4   1   8   55.69   10.00 
   3  -1  -8   57.79    7.40 
   3  -1  -8   50.39   10.40 
  -3   1   8   39.40    9.00 
  -3   1   8   61.09   12.10 
  -3   1   8   -1.60   41.70 
  -3   1   8   53.69   10.40 
  -3   1   8   32.30   14.50 
  -3   1   8   48.60   10.30 
  -3   1   8   36.30    9.30 
   2  -1  -8  124.29   13.10 
   2  -1  -8  123.59   14.10 
  -2   1   8  112.99   17.60 
  -2   1   8  112.39   14.80 
  -2   1   8  114.29   15.10 
  -2   1   8  117.49   15.40 
  -2   1   8  108.39   15.20 
  -2   1   8  120.99   15.20 
   1  -1  -8    7.00    3.10 
  -1   1   8    6.80    3.80 
  -1   1   8   13.90    4.50 
  -1   1   8   11.90    3.10 
  -1   1   8   -0.40   30.90 
  -1   1   8   12.00    3.90 
  -1   1   8   12.20    5.20 
  -1   1   8   18.10    8.00 
  -1   1   8    7.70    5.60 
   0  -1  -8  234.78   21.70 
   0  -1  -8  216.38   20.60 
   0  -1  -8  209.78   18.50 
   0   1   8  229.98   23.60 
   0   1   8  185.78   23.60 
   0   1   8  221.98   21.00 
   0   1   8  213.68   20.20 
   0   1   8  246.28   23.00 
  -1  -1  -8   17.00    4.00 
  -1  -1  -8    8.90    4.30 
  -1  -1  -8    9.40    3.20 
   1   1   8   20.20    8.20 
   1   1   8   14.60    5.20 
  -2  -1  -8  974.70   73.89 
  -2  -1  -8  972.10   75.09 
  -2  -1  -8  933.91   73.99 
   2   1   8  880.71   74.39 
   2   1   8  979.90   81.19 
  -3  -1  -8  292.67   27.30 
  -3  -1  -8  290.77   26.30 
  -3  -1  -8  312.67   27.90 
   3   1   8  246.78   26.10 
   3   1   8  303.07   24.80 
   3   1   8  275.77   29.60 
  -4  -1  -8   62.79   10.40 
  -4  -1  -8   54.59   10.00 
  -4  -1  -8   60.19    9.30 
  -4  -1  -8   48.10    7.70 
  -4  -1  -8   64.89   10.90 
   4   1   8   29.00   21.70 
   4   1   8   62.59    8.00 
   4   1   8   44.70    9.50 
  -5  -1  -8   47.70    8.20 
  -5  -1  -8   37.00    8.30 
  -5  -1  -8   38.20    8.50 
  -5  -1  -8   32.90    6.40 
   5   1   8   44.90    6.70 
   5   1   8   44.10    4.70 
   5   1   8    4.50   43.70 
  -6  -1  -8   83.29   11.50 
  -6  -1  -8   93.59   11.60 
   6   1   8   24.90   53.49 
   6   1   8   82.79    9.50 
  -7  -1  -8   -3.30    2.60 
  -7  -1  -8    1.30    1.70 
   7   1   8    0.70    1.10 
   7   1   8    2.80   28.60 
  -4   2   8   13.80   52.79 
  -4   2   8    4.50    2.50 
  -4   2   8    4.20    3.90 
  -4   2   8    7.50    3.30 
  -3   2   8   12.90    5.00 
  -3   2   8   25.90    8.20 
  -3   2   8  -14.90   32.60 
  -3   2   8   44.10    8.40 
  -3   2   8   20.40    6.20 
  -3   2   8   22.90    6.70 
   2  -2  -8  304.27   23.60 
  -2   2   8  255.57   26.30 
  -2   2   8  267.37   26.20 
  -2   2   8  234.68   25.10 
  -2   2   8  211.48   26.30 
  -2   2   8  249.18   27.20 
  -2   2   8  253.57   26.50 
   1  -2  -8   74.69   11.10 
   1  -2  -8   77.49    9.50 
  -1   2   8   62.69   10.20 
  -1   2   8   80.49   11.30 
  -1   2   8   70.29   11.30 
  -1   2   8   64.39   10.30 
  -1   2   8   82.29   15.40 
  -1   2   8   77.19   11.30 
  -1   2   8   64.09   12.00 
   0  -2  -8   60.19   10.10 
   0  -2  -8   58.39    9.00 
   0   2   8   19.20   59.69 
   0   2   8   60.99    8.60 
   0   2   8   63.99   10.20 
   0   2   8   69.29    9.20 
   0   2   8   65.29   10.40 
   0   2   8   55.09   10.60 
  -1  -2  -8  827.42   68.69 
  -1  -2  -8  908.21   68.99 
   1   2   8  766.62   69.79 
   1   2   8  853.01   67.99 
   1   2   8  900.91   69.59 
   1   2   8  823.52   68.09 
   1   2   8  909.71   70.59 
   1   2   8  903.51   71.69 
   1   2   8  930.21   71.69 
  -2  -2  -8  411.46   38.10 
  -2  -2  -8  500.05   39.20 
  -2  -2  -8  488.45   38.80 
   2   2   8  460.25   40.70 
   2   2   8  423.36   43.80 
   2   2   8  454.05   37.30 
   2   2   8  420.86   38.70 
   2   2   8  435.36   37.70 
  -3  -2  -8  684.73   58.69 
  -3  -2  -8  747.43   57.69 
  -3  -2  -8  719.73   54.29 
  -3  -2  -8  656.23   57.99 
  -3  -2  -8  722.53   57.39 
  -3  -2  -8  764.72   57.89 
   3   2   8  588.54   55.19 
   3   2   8  648.94   62.19 
   3   2   8  714.83   57.09 
   3   2   8  804.22   57.59 
  -4  -2  -8   90.29    9.40 
  -4  -2  -8   92.69   13.50 
  -4  -2  -8   87.79   11.90 
  -4  -2  -8   91.49   12.80 
   4   2   8  105.99   10.60 
   4   2   8   92.09   10.40 
   4   2   8   69.69   12.40 
   4   2   8   93.29   12.80 
  -5  -2  -8   78.19   11.00 
  -5  -2  -8   77.89   11.60 
  -5  -2  -8   78.69   12.20 
   5   2   8   90.09   10.00 
   5   2   8   73.19    9.50 
  -6  -2  -8  123.89   15.60 
  -6  -2  -8  138.59   15.80 
   6   2   8  127.39   12.90 
   6   2   8  -27.10   87.79 
  -7  -2  -8    3.00    1.60 
  -7  -2  -8    0.40    2.00 
   7   2   8    1.10    1.10 
   7   2   8   -1.30   21.00 
   3  -3  -8   29.30    4.20 
  -3   3   8   23.20    5.80 
  -3   3   8   26.60    6.00 
  -3   3   8   14.90    4.60 
  -3   3   8   26.10    7.90 
  -2   3   8   41.70    9.50 
  -2   3   8   73.09   10.20 
  -2   3   8   62.79   14.20 
  -2   3   8   50.89    9.00 
   1  -3  -8  191.88   18.20 
   1  -3  -8  205.58   17.90 
  -1   3   8  183.68   19.70 
  -1   3   8  194.18   20.60 
  -1   3   8  162.18   20.40 
  -1   3   8  181.38   19.90 
  -1   3   8  178.78   19.30 
  -1   3   8  142.39   19.60 
   0  -3  -8  131.09   13.80 
   0   3   8  124.69   14.60 
   0   3   8   86.69  120.39 
   0   3   8  125.89   14.90 
   0   3   8  119.39   16.50 
   0   3   8  112.29   14.70 
   0   3   8  133.89   16.80 
   0   3   8  100.09   15.80 
  -1  -3  -8  319.17   30.10 
  -1  -3  -8  330.47   30.00 
   1   3   8  327.07   32.20 
   1   3   8  329.67   30.00 
   1   3   8  360.06   30.30 
   1   3   8  307.87   31.30 
   1   3   8  366.36   32.00 
   1   3   8  368.06   33.00 
   1   3   8  359.66   33.00 
   1   3   8  344.37   29.50 
  -2  -3  -8  923.91   70.79 
  -2  -3  -8  729.83   65.99 
  -2  -3  -8  918.11   68.79 
  -2  -3  -8  831.32   69.39 
   2   3   8  971.00   72.39 
   2   3   8  836.22   70.29 
   2   3   8  789.62   69.49 
   2   3   8  830.42   68.39 
   2   3   8  880.21   68.69 
   2   3   8  887.71   68.19 
   2   3   8 1006.60   72.89 
  -3  -3  -8  410.96   37.10 
  -3  -3  -8  469.45   38.50 
  -3  -3  -8  435.46   33.80 
  -3  -3  -8  443.66   35.90 
  -3  -3  -8  393.86   37.20 
   3   3   8  359.46   36.00 
   3   3   8  382.96   37.00 
   3   3   8  359.96   34.90 
   3   3   8  433.06   36.20 
   3   3   8  455.25   34.90 
   3   3   8  466.35   38.50 
   3   3   8  436.36   38.50 
  -4  -3  -8  162.78   17.70 
  -4  -3  -8  146.19   17.60 
  -4  -3  -8  157.18   14.70 
  -4  -3  -8  136.09   19.10 
  -4  -3  -8  148.29   17.10 
   4   3   8  147.39   15.60 
   4   3   8  173.38   15.20 
   4   3   8  157.98   16.70 
   4   3   8  163.08   18.30 
  -5  -3  -8    7.90    4.00 
  -5  -3  -8   26.20    7.00 
  -5  -3  -8   29.20    6.60 
   5   3   8   15.30    4.40 
   5   3   8    4.70    5.80 
   5   3   8   26.10    6.70 
   5   3   8   -4.40   68.79 
  -6  -3  -8   25.40    6.60 
  -6  -3  -8   31.30    7.20 
   6   3   8   31.10    6.00 
   6   3   8  -32.50   51.69 
   6   3   8   18.90    3.80 
  -7  -3  -8    1.40    2.00 
  -7  -3  -8    3.90    1.90 
   7   3   8   -0.80    1.10 
   2  -4  -8    4.50    2.10 
  -2   4   8    4.40   33.90 
  -2   4   8    5.00    3.90 
  -2   4   8    2.00    3.00 
  -2   4   8    7.70    4.10 
  -2   4   8   16.80    4.90 
   1  -4  -8   99.89    9.90 
  -1   4   8   94.29   14.10 
  -1   4   8   88.89   12.10 
  -1   4   8   -2.50   45.50 
  -1   4   8   76.69   11.00 
  -1   4   8   73.99   11.10 
   0  -4  -8   15.70    4.20 
   0   4   8  -16.20   51.69 
   0   4   8   17.30    6.30 
   0   4   8   14.40    5.60 
   0   4   8   15.00    5.30 
   0   4   8   11.60    4.80 
   0   4   8   10.70    5.60 
   0   4   8   -1.00    8.70 
   0   4   8    0.40    4.80 
  -1  -4  -8   37.90    7.30 
  -1  -4  -8   46.20    9.30 
   1   4   8   37.60    9.10 
   1   4   8   42.30    9.20 
   1   4   8   61.29   11.90 
   1   4   8   46.70    8.50 
   1   4   8   24.80   59.69 
   1   4   8   46.90   10.50 
   1   4   8   63.29   10.10 
  -2  -4  -8   45.70   10.40 
  -2  -4  -8   40.30    8.80 
  -2  -4  -8   47.00   10.50 
   2   4   8   45.10    9.60 
   2   4   8   48.40    9.90 
   2   4   8   53.39    9.10 
   2   4   8   -3.00   28.90 
   2   4   8   60.19    8.20 
  -3  -4  -8  315.17   31.30 
  -3  -4  -8  326.07   28.40 
  -3  -4  -8  298.07   31.00 
  -3  -4  -8  354.76   33.60 
   3   4   8  329.27   30.30 
   3   4   8  367.46   33.30 
   3   4   8  334.67   32.90 
   3   4   8  365.36   32.60 
   3   4   8  395.06   36.30 
  -4  -4  -8  245.18   19.20 
  -4  -4  -8  198.48   22.00 
  -4  -4  -8  186.28   22.90 
  -4  -4  -8  208.88   21.90 
   4   4   8  221.98   22.90 
   4   4   8  172.58   20.40 
   4   4   8  256.07   21.30 
   4   4   8  168.88   21.00 
   4   4   8  213.18   20.90 
   4   4   8  214.08   21.70 
  -5  -4  -8    2.80    3.40 
  -5  -4  -8    3.10    2.90 
  -5  -4  -8    3.70    3.30 
   5   4   8   -8.60    4.60 
   5   4   8    1.60    3.10 
   5   4   8  -13.30   34.70 
   5   4   8    0.90    2.50 
  -6  -4  -8   64.29    9.50 
  -6  -4  -8   50.79    8.80 
   6   4   8   47.10    7.50 
   6   4   8   -6.70   46.20 
  -7  -4  -8    3.60    2.60 
  -7  -4  -8    5.80    2.70 
   7   4   8  -26.10   19.90 
   7   4   8    5.30    2.20 
  -1   5   8    5.70   32.80 
  -1   5   8    3.20    3.80 
  -1   5   8    9.80    3.10 
  -1   5   8   14.70    5.40 
   0  -5  -8  112.39   11.90 
   0   5   8    1.20   48.60 
   0   5   8  106.79   13.70 
   0   5   8  112.09   14.50 
   0   5   8   87.59   12.40 
  -1  -5  -8   10.60    4.00 
   1   5   8   12.90    5.40 
   1   5   8   10.20    5.30 
   1   5   8    7.80    4.30 
   1   5   8   12.90    5.40 
   1   5   8   11.20    5.00 
   1   5   8    0.20   34.90 
  -2  -5  -8   81.29   11.00 
  -2  -5  -8   64.09   14.00 
   2   5   8   -3.60   43.60 
   2   5   8   86.69   13.60 
   2   5   8  102.19   13.70 
   2   5   8  109.29   14.90 
   2   5   8   76.19   11.10 
   2   5   8   82.39   10.70 
   2   5   8   64.89   12.90 
  -3  -5  -8    1.50    3.90 
  -3  -5  -8   -4.60    3.20 
  -3  -5  -8   -2.10    4.80 
   3   5   8   -0.40    5.10 
   3   5   8    1.40    3.10 
   3   5   8  -34.40   40.50 
   3   5   8    1.80    3.10 
   3   5   8    6.70    4.10 
   3   5   8    2.60    3.00 
   3   5   8    3.00    3.30 
  -4  -5  -8   -1.70    2.50 
  -4  -5  -8   -0.10    3.50 
  -4  -5  -8   -1.20    2.70 
   4   5   8    1.30    2.30 
   4   5   8  -36.80   39.10 
   4   5   8   -0.40    3.00 
   4   5   8    0.80    4.20 
   4   5   8    2.10    3.20 
   4   5   8    1.10    2.70 
  -5  -5  -8   -0.30    3.20 
  -5  -5  -8    8.00    4.10 
   5   5   8   12.60    4.50 
   5   5   8    8.00    4.10 
   5   5   8    3.80   40.90 
   5   5   8    1.80    4.40 
   5   5   8    4.50    2.80 
  -6  -5  -8   -2.00    2.10 
  -6  -5  -8   -1.00    2.30 
   6   5   8    0.50   14.50 
   6   5   8    1.30    2.20 
  -7  -5  -8    2.10    1.70 
  -7  -5  -8    2.30    2.30 
   7   5   8    1.80    1.60 
   7   5   8    7.70   23.30 
   0   6   8   -0.60    5.60 
   0   6   8    4.60    2.50 
   0   6   8    6.20    2.60 
   0   6   8    3.20    3.90 
  -1  -6  -8  190.98   17.80 
   1   6   8  179.18   16.80 
   1   6   8  232.88   21.00 
   1   6   8  170.78   19.40 
   1   6   8  156.98   18.80 
  -2  -6  -8   10.20    4.00 
   2   6   8   13.60    4.80 
   2   6   8   11.60    3.90 
   2   6   8    5.50    4.50 
   2   6   8    7.60    4.00 
   2   6   8    7.10    3.80 
  -3  -6  -8   33.20    7.80 
  -3  -6  -8   46.20    7.60 
  -3  -6  -8   38.70    8.00 
   3   6   8   30.90    7.40 
   3   6   8   48.90    7.40 
   3   6   8   49.60   10.00 
   3   6   8   55.49    9.70 
  -4  -6  -8    4.50    3.10 
  -4  -6  -8   16.90    4.30 
  -4  -6  -8   11.60    5.00 
   4   6   8   24.60    6.70 
   4   6   8    7.40    4.00 
   4   6   8   13.30   46.70 
   4   6   8   13.50    4.30 
   4   6   8    8.90    4.30 
   4   6   8   13.50    3.80 
  -5  -6  -8    0.40    2.10 
  -5  -6  -8   -0.30    2.80 
   5   6   8    2.10    3.20 
   5   6   8    4.40    2.60 
   5   6   8    5.00   28.20 
   5   6   8    3.50    2.80 
   5   6   8    2.00    2.00 
  -6  -6  -8    1.50    2.00 
  -6  -6  -8   11.20    4.10 
   6   6   8  -29.50   19.00 
   6   6   8    5.60    3.10 
   6   6   8    9.90    3.50 
  -7  -6  -8    1.90    1.40 
   7   6   8    3.70    1.70 
   2   7   8   31.10    6.30 
   2   7   8   28.80    5.20 
   2   7   8   33.60    5.60 
   3   7   8   21.50    5.60 
   3   7   8   21.00    5.30 
   3   7   8   19.30    5.20 
   3   7   8   25.50    6.00 
   3   7   8   26.00    4.40 
  -4  -7  -8    5.00    2.60 
  -4  -7  -8    3.40    1.80 
   4   7   8    1.20    2.70 
   4   7   8    7.80    2.60 
   4   7   8    3.20    2.00 
   4   7   8    4.50    2.10 
   4   7   8    1.30    1.60 
  -5  -7  -8    1.00    1.40 
  -5  -7  -8    4.80    2.10 
   5   7   8    0.20    1.90 
   5   7   8   -0.40    1.10 
   5   7   8    2.60    1.90 
   5   7   8   -2.30    1.50 
   5   7   8   -1.00    1.40 
   2   6  -9    3.90    1.70 
   2   6  -9    3.70    1.70 
  -2  -6   9    4.30    1.90 
   1   6  -9    6.10    2.40 
  -1  -6   9    6.10    2.20 
   4   5  -9    2.70    1.50 
   4   5  -9    1.40    1.50 
  -4  -5   9    2.30    1.60 
  -4  -5   9    1.30    2.50 
   3   5  -9   15.70    4.00 
  -3  -5   9   29.90    5.50 
  -3  -5   9   23.90    4.80 
   2   5  -9   39.70    7.20 
   2   5  -9   41.90    7.60 
  -2  -5   9   42.50    6.50 
  -2  -5   9   39.50    6.20 
   1   5  -9   23.10    6.90 
   1   5  -9   19.80    5.80 
  -1  -5   9   15.10    4.70 
  -1  -5   9   28.70    5.10 
   0   5  -9   26.70    7.70 
   0   5  -9   20.20    4.50 
   0   5  -9   24.30    3.40 
   0  -5   9   17.30    4.10 
   0  -5   9   34.30    6.00 
  -1   5  -9    8.10    2.10 
  -1   5  -9    3.20    2.20 
   1  -5   9    8.70    2.30 
   1  -5   9    5.70    2.30 
   5   4  -9    1.00    1.40 
  -5  -4   9    0.40    1.70 
  -5  -4   9    0.90    1.60 
   4   4  -9   21.20    5.30 
   4   4  -9   35.60    7.30 
  -4  -4   9   24.50    5.20 
  -4  -4   9   40.00    7.00 
   3   4  -9   69.99   11.40 
   3   4  -9   60.69    8.70 
  -3  -4   9   62.89    9.80 
  -3  -4   9   85.89    9.70 
   2   4  -9   89.49   13.30 
   2   4  -9   58.09    9.40 
   2   4  -9   93.19   12.10 
  -2  -4   9   66.79    9.70 
  -2  -4   9   74.29    9.90 
   1   4  -9    9.30    5.00 
   1   4  -9    7.80    4.00 
  -1  -4   9   10.40    3.40 
  -1  -4   9    8.50    3.50 
   0   4  -9   14.30    3.90 
   0   4  -9    8.80    4.80 
   0   4  -9   14.80    5.50 
   0  -4   9   11.30    3.80 
   0  -4   9    5.90    3.50 
  -1   4  -9   50.79    6.50 
  -1   4  -9   55.19   10.10 
  -1   4  -9   53.69    7.70 
   1  -4   9   50.89    5.50 
   1  -4   9   55.79    8.00 
  -2   4  -9   18.30    4.30 
  -2   4  -9   12.80    2.50 
  -2   4  -9   15.40    3.60 
  -2   4  -9    8.00    4.00 
   2  -4   9   10.50    3.50 
  -3   4  -9   27.40    3.50 
  -3   4  -9   27.30    4.30 
  -3   4  -9   18.30    2.90 
   3  -4   9   29.90    4.60 
   3  -4   9   23.40    2.90 
   5   3  -9    4.10    2.00 
   5   3  -9    8.70    3.00 
  -5  -3   9    5.50    2.20 
  -5  -3   9    9.70    3.20 
   4   3  -9   41.80    8.30 
   4   3  -9   36.40    7.70 
  -4  -3   9   34.70    6.90 
  -4  -3   9   38.70    6.60 
  -4  -3   9   49.00    8.20 
   3   3  -9    1.90    2.80 
   3   3  -9    3.60    2.50 
   3   3  -9   -1.10    3.10 
  -3  -3   9   -3.90    3.00 
  -3  -3   9    1.10    2.60 
  -3  -3   9    3.90    2.60 
   2   3  -9    7.40    4.80 
   2   3  -9   16.80    5.50 
   2   3  -9   16.90    5.80 
  -2  -3   9   14.50    5.00 
  -2  -3   9   17.60    4.90 
  -2  -3   9    7.50    4.00 
   1   3  -9  493.25   44.80 
   1   3  -9  494.75   49.90 
   1   3  -9  506.85   45.20 
  -1  -3   9  502.55   41.80 
  -1  -3   9  520.25   40.40 
  -1  -3   9  393.36   39.30 
   0   3  -9   45.10    9.90 
   0   3  -9   43.90   10.90 
   0   3  -9   42.40    7.60 
   0  -3   9   23.20   12.10 
   0  -3   9   31.60    5.70 
   0  -3   9   39.60    7.00 
  -1   3  -9   79.59    9.40 
  -1   3  -9   74.29   12.80 
  -1   3  -9   80.49   11.30 
  -1   3  -9   95.79   14.60 
   1  -3   9  100.79   12.00 
   1  -3   9   95.89    8.00 
   1  -3   9   79.99    9.70 
   1  -3   9   70.39   13.50 
  -2   3  -9   53.09    7.20 
  -2   3  -9   53.49   13.60 
  -2   3  -9   58.89    9.50 
  -2   3  -9   53.59    7.20 
   2  -3   9   62.29    6.60 
   2  -3   9   76.09   11.60 
   2  -3   9   58.09    7.50 
  -3   3  -9    5.30    2.60 
  -3   3  -9   10.50    2.70 
  -3   3  -9    8.90    4.20 
  -3   3  -9   14.90    4.40 
   3  -3   9    9.70    3.00 
   3  -3   9   10.50    2.40 
   3  -3   9   11.00    3.40 
  -4   3  -9   13.70    2.50 
  -4   3  -9   14.20    3.10 
  -4   3  -9   19.20    4.20 
   4  -3   9   11.10    3.00 
   4  -3   9   20.00    2.80 
   4  -3   9   16.90    2.80 
   5   2  -9    1.00    2.00 
   5   2  -9    0.10    1.70 
  -5  -2   9    1.30    2.40 
  -5  -2   9   15.00   29.60 
  -5  -2   9    0.40    1.30 
  -5  -2   9    3.30    2.00 
   4   2  -9    5.20    2.70 
   4   2  -9    4.40    3.20 
  -4  -2   9    5.60    2.50 
  -4  -2   9    5.20    3.80 
  -4  -2   9   14.90   33.90 
  -4  -2   9    1.20    3.10 
  -4  -2   9    0.60    2.70 
   3   2  -9  200.88   16.40 
   3   2  -9  190.98   20.90 
  -3  -2   9  166.78   18.80 
  -3  -2   9  147.59   20.00 
  -3  -2   9  177.08   20.30 
  -3  -2   9  195.28   23.40 
  -3  -2   9  172.68   18.10 
   2   2  -9   32.10    7.70 
   2   2  -9   29.20    9.00 
   2   2  -9   24.10    8.10 
   2   2  -9   35.90    6.30 
  -2  -2   9   30.90    7.10 
  -2  -2   9   42.80   10.90 
  -2  -2   9   24.60    5.30 
  -2  -2   9   38.50    6.60 
  -2  -2   9   45.30   10.60 
   1   2  -9   49.70   10.00 
   1   2  -9   46.70   11.90 
   1   2  -9   53.09   10.10 
   1   2  -9   67.39    7.80 
  -1  -2   9   48.70    7.80 
  -1  -2   9   61.59    8.70 
  -1  -2   9   32.70   10.30 
   0   2  -9  248.58   28.10 
   0   2  -9  283.87   29.40 
   0   2  -9  286.87   27.00 
   0  -2   9  256.37   24.20 
   0  -2   9  291.17   26.00 
   0  -2   9  289.37   24.70 
   0  -2   9  267.47   27.40 
  -1   2  -9   47.80   10.60 
  -1   2  -9   51.69    9.20 
  -1   2  -9   42.20    9.70 
  -1   2  -9   40.00    5.80 
  -1   2  -9   69.79   17.60 
   1  -2   9   32.10    7.70 
   1  -2   9   29.40    5.50 
   1  -2   9   56.49   10.30 
   1  -2   9   30.80    8.50 
  -2   2  -9  237.58   22.30 
  -2   2  -9  269.17   26.10 
  -2   2  -9  296.07   30.30 
  -2   2  -9  281.67   27.10 
   2  -2   9  249.68   26.70 
   2  -2   9  240.98   25.30 
   2  -2   9  288.87   21.10 
   2  -2   9  284.97   24.10 
  -3   2  -9  127.89   15.10 
  -3   2  -9  100.99   15.90 
   3  -2   9  132.19   14.20 
   3  -2   9  117.59   12.50 
   3  -2   9  118.09   10.50 
  -4   2  -9    0.90    2.50 
  -4   2  -9    3.40    2.10 
  -4   2  -9    2.60    3.10 
  -4   2  -9    3.10    2.50 
  -4   2  -9    4.90    2.00 
   4  -2   9    3.30    1.90 
   4  -2   9    3.10    2.30 
   4  -2   9    0.90    1.80 
  -5   2  -9    4.50    1.70 
  -5   2  -9    2.50    1.60 
   5  -2   9    6.70    2.20 
   5  -2   9    6.30    1.80 
   5   1  -9   12.60    3.80 
  -5  -1   9    0.20   24.20 
  -5  -1   9    9.70    3.50 
  -5  -1   9    8.20    3.00 
  -5  -1   9   11.20    2.50 
   4   1  -9   43.20    7.00 
   4   1  -9   37.70    8.00 
   4   1  -9   40.10    6.40 
  -4  -1   9    1.50   43.10 
  -4  -1   9   50.69    8.20 
  -4  -1   9   57.79    9.40 
  -4  -1   9   53.09    9.60 
  -4  -1   9   36.90    9.50 
   3   1  -9   54.99    8.40 
   3   1  -9   68.39    8.40 
   3   1  -9   67.29   11.00 
  -3  -1   9   73.49   10.70 
  -3  -1   9   60.79   11.50 
  -3  -1   9   16.40   46.50 
  -3  -1   9   55.09   13.20 
  -3  -1   9   57.89   10.50 
  -3  -1   9   47.00    8.40 
   2   1  -9   57.79    9.70 
   2   1  -9   47.00    7.20 
   2   1  -9   42.30    7.50 
  -2  -1   9   70.89   13.40 
  -2  -1   9   34.70    9.30 
  -2  -1   9   64.89    9.90 
  -2  -1   9   48.40    8.40 
  -2  -1   9  -15.60   37.30 
  -2  -1   9   39.80    8.90 
  -2  -1   9   47.80    9.60 
  -2  -1   9   63.69   11.00 
   1   1  -9  389.96   38.10 
   1   1  -9  397.56   36.70 
   1   1  -9  460.15   33.50 
  -1  -1   9  360.56   34.40 
  -1  -1   9  441.96   38.70 
  -1  -1   9  393.36   35.50 
  -1  -1   9  416.36   40.10 
  -1  -1   9  423.06   35.80 
  -1  -1   9  418.66   40.40 
  -1  -1   9  440.56   37.20 
   0   1  -9   24.20    6.80 
   0   1  -9   22.20    4.50 
   0   1  -9   23.90    6.90 
   0   1  -9   11.60    4.90 
   0  -1   9   23.50    5.90 
   0  -1   9   33.70    7.80 
   0  -1   9    7.90    7.80 
   0  -1   9   27.20   44.80 
   0  -1   9   34.50    7.80 
   0  -1   9   20.20    4.80 
   0  -1   9   18.40    5.70 
  -1   1  -9  271.87   26.20 
  -1   1  -9  202.58   18.40 
  -1   1  -9  206.68   21.50 
  -1   1  -9  232.08   25.10 
   1  -1   9  229.18   21.50 
   1  -1   9  223.38   23.00 
   1  -1   9  218.18   24.40 
   1  -1   9  226.98   20.40 
  -2   1  -9   82.69   13.30 
  -2   1  -9   83.79   11.70 
  -2   1  -9   82.79   14.70 
  -2   1  -9   85.09   12.90 
   2  -1   9   95.69   11.20 
   2  -1   9   77.29    8.00 
   2  -1   9   76.19    9.60 
  -3   1  -9  160.28   17.70 
  -3   1  -9  146.89   17.30 
  -3   1  -9  144.79   15.60 
  -3   1  -9  136.49   18.90 
  -3   1  -9  152.28   17.80 
   3  -1   9  167.28   16.90 
   3  -1   9  153.88   12.70 
   3  -1   9  160.18   15.50 
  -4   1  -9   93.29   13.60 
  -4   1  -9   87.89   13.90 
  -4   1  -9  100.89   13.60 
  -4   1  -9  119.89   14.20 
   4  -1   9  105.89   11.20 
  -5   1  -9    7.10    3.10 
  -5   1  -9    5.60    2.80 
  -5   1  -9   12.60    3.30 
   5  -1   9   14.50    3.40 
   5  -1   9    0.00    2.60 
   5  -1   9    6.50    2.60 
  -6   1  -9    5.20    1.60 
  -6   1  -9    1.70    1.40 
   6  -1   9    2.50    1.50 
   6  -1   9    5.10    1.70 
   5   0  -9    3.80    1.60 
   5   0  -9    1.30    1.80 
  -5   0   9   -0.10   17.40 
  -5   0   9    3.80    1.60 
  -5   0   9    5.40    4.30 
  -5   0   9    3.90    1.80 
   4   0  -9    3.60    1.80 
   4   0  -9    3.00    2.60 
  -4   0   9    3.20    2.70 
  -4   0   9   -0.60    1.70 
  -4   0   9  -23.50   25.20 
  -4   0   9    4.10    3.00 
  -4   0   9    3.30    3.50 
  -4   0   9    2.10    3.90 
   3   0  -9   52.99    7.70 
   3   0  -9   59.79    8.70 
  -3   0   9   36.20    8.60 
  -3   0   9   46.70    8.50 
  -3   0   9   -6.50   33.70 
  -3   0   9   59.79   12.00 
  -3   0   9   60.69   10.20 
  -3   0   9   53.59   10.40 
  -3   0   9   58.19   10.90 
   2   0  -9   78.39    9.70 
   2   0  -9   70.19    8.50 
   2   0  -9   62.99   10.10 
  -2   0   9   62.39   10.20 
  -2   0   9   87.19   12.70 
  -2   0   9   69.39   11.40 
  -2   0   9   69.69   11.60 
  -2   0   9   67.69   13.60 
  -2   0   9   11.90   45.80 
  -2   0   9   77.59   11.60 
   1   0  -9   45.30    9.20 
   1   0  -9   41.30    8.90 
   1   0  -9   35.20    6.50 
  -1   0   9    8.90   40.20 
  -1   0   9   46.90   11.50 
  -1   0   9   30.20   12.30 
  -1   0   9   35.60    8.30 
  -1   0   9   43.80    7.30 
  -1   0   9   21.20   10.20 
  -1   0   9   41.90    9.80 
   0   0  -9  897.21   75.09 
   0   0  -9  911.31   77.49 
   0   0  -9 1004.30   71.49 
   0   0  -9  904.01   74.89 
   0   0   9  928.01   73.69 
   0   0   9  921.91   73.99 
   0   0   9  900.81   77.19 
   0   0   9  967.90   74.99 
   0   0   9  963.40   75.49 
   0   0   9 1021.20   79.29 
  -1   0  -9  310.67   30.30 
  -1   0  -9  284.37   27.00 
  -1   0  -9  312.57   24.20 
  -1   0  -9  311.17   28.30 
  -1   0  -9  291.97   26.40 
   1   0   9  277.77   26.60 
   1   0   9  310.07   27.00 
   1   0   9  310.07   29.80 
   1   0   9  275.67   27.30 
   1   0   9  291.77   25.90 
  -2   0  -9  144.39   17.50 
  -2   0  -9  144.49   16.40 
  -2   0  -9  134.69   15.70 
  -2   0  -9  124.69   12.20 
   2   0   9  122.79   16.30 
   2   0   9  146.19   14.80 
   2   0   9  134.19   13.50 
   2   0   9  125.69   15.80 
  -3   0  -9   71.69   12.30 
  -3   0  -9   54.59   11.70 
  -3   0  -9   74.79   10.80 
  -3   0  -9   71.19    9.10 
   3   0   9   54.79   10.80 
   3   0   9   70.89    8.90 
   3   0   9  -15.20   47.70 
   3   0   9   83.79   10.10 
  -4   0  -9   10.90    4.10 
  -4   0  -9   11.50    4.10 
  -4   0  -9   12.10    4.50 
  -4   0  -9   12.30    4.30 
  -4   0  -9   14.80    6.00 
   4   0   9   14.40    3.80 
   4   0   9   15.30    2.50 
   4   0   9   19.50   33.60 
   4   0   9    7.60    4.90 
  -5   0  -9  102.99   12.50 
  -5   0  -9  127.89   15.00 
  -5   0  -9  105.99   13.20 
   5   0   9  132.69   12.70 
  -6   0  -9   20.00    4.10 
  -6   0  -9   19.70    4.30 
   6   0   9   15.60    3.40 
   6   0   9   -6.80   22.80 
   6   0   9   22.30    3.60 
   4  -1  -9    4.80    2.20 
   4  -1  -9    2.70    2.40 
  -4   1   9    3.40   34.80 
  -4   1   9    4.50    2.70 
  -4   1   9    4.30    3.70 
  -4   1   9    8.90    4.00 
  -4   1   9   10.90    3.50 
   3  -1  -9    5.10    2.30 
   3  -1  -9   -5.10    3.90 
  -3   1   9    4.60    3.40 
  -3   1   9   -2.40    3.00 
  -3   1   9    6.00    3.50 
  -3   1   9    1.70    3.40 
  -3   1   9   -3.10   10.90 
  -3   1   9    1.90    2.30 
   2  -1  -9  163.48   15.70 
   2  -1  -9  198.28   19.90 
   2  -1  -9  156.48   20.50 
  -2   1   9  142.99   20.20 
  -2   1   9  144.79   21.30 
  -2   1   9  163.38   19.30 
  -2   1   9  143.59   18.50 
  -2   1   9  179.18   18.80 
  -2   1   9  166.78   19.50 
   1  -1  -9  254.07   21.80 
   1  -1  -9  211.68   22.40 
  -1   1   9  226.38   22.60 
  -1   1   9  230.48   23.80 
  -1   1   9  208.58   22.80 
  -1   1   9  208.08   24.90 
  -1   1   9  223.78   22.60 
  -1   1   9  261.07   25.40 
  -1   1   9  191.98   23.30 
   0  -1  -9  136.39   14.20 
   0  -1  -9  104.79   11.80 
   0  -1  -9  109.99   14.80 
   0   1   9  117.49   15.20 
   0   1   9  146.49   14.70 
   0   1   9  138.89   16.80 
   0   1   9  120.59   13.60 
   0   1   9  137.39   16.00 
   0   1   9   98.39   15.90 
   0   1   9  115.39   13.80 
   0   1   9  133.79   14.80 
  -1  -1  -9   34.70    6.70 
  -1  -1  -9   21.40    6.30 
   1   1   9   26.30    5.50 
   1   1   9   31.20    7.60 
   1   1   9   22.70    6.30 
   1   1   9   28.70    5.70 
   1   1   9   19.80    6.90 
   1   1   9   27.30    7.30 
  -2  -1  -9   31.40    6.70 
  -2  -1  -9   46.10    9.20 
  -2  -1  -9   24.40    5.40 
  -2  -1  -9   36.20    7.10 
  -2  -1  -9   54.99   10.40 
   2   1   9   34.70    6.90 
   2   1   9   45.70    7.80 
   2   1   9   39.60    9.80 
   2   1   9   41.00    6.20 
   2   1   9   26.50   40.70 
  -3  -1  -9  185.38   19.30 
  -3  -1  -9  159.28   20.30 
  -3  -1  -9  190.98   20.10 
  -3  -1  -9  144.19   17.40 
  -3  -1  -9  164.18   14.90 
   3   1   9  158.88   19.40 
   3   1   9  174.88   17.10 
   3   1   9   25.80   66.79 
   3   1   9  187.78   16.80 
  -4  -1  -9   14.80    6.00 
  -4  -1  -9   17.60    4.30 
  -4  -1  -9   16.90    5.20 
  -4  -1  -9   12.50    6.60 
   4   1   9    7.50    4.90 
   4   1   9    6.00    3.00 
   4   1   9   -7.30   36.40 
   4   1   9    9.30    4.10 
  -5  -1  -9    6.20    3.60 
  -5  -1  -9    1.30    3.00 
   5   1   9    6.90    3.00 
   5   1   9   -1.80   38.20 
  -6  -1  -9  120.69   14.10 
  -6  -1  -9  131.79   14.70 
   6   1   9  138.69   12.90 
  -7  -1  -9    2.30    1.30 
   7   1   9    4.70    1.50 
   4  -2  -9    5.40    2.80 
  -4   2   9    4.20    2.60 
  -4   2   9    8.50    3.40 
  -4   2   9    2.90   17.40 
  -4   2   9   17.20    4.00 
   3  -2  -9    8.50    4.50 
   3  -2  -9    0.20    1.80 
  -3   2   9   -2.00    2.80 
  -3   2   9    5.40    3.50 
  -3   2   9    0.00    2.10 
  -3   2   9    0.40    3.20 
  -3   2   9  -12.70   17.30 
  -3   2   9   -0.20    2.70 
   2  -2  -9  163.28   14.90 
  -2   2   9  127.59   16.90 
  -2   2   9  106.69   16.90 
  -2   2   9  133.89   19.90 
  -2   2   9  145.39   17.10 
  -2   2   9  144.69   18.00 
   1  -2  -9  289.87   26.40 
   1  -2  -9  323.17   26.10 
  -1   2   9  251.17   27.30 
  -1   2   9  261.37   28.80 
  -1   2   9  289.87   27.50 
  -1   2   9  267.07   26.70 
  -1   2   9  317.57   29.30 
  -1   2   9  242.08   26.20 
   0  -2  -9  280.17   25.00 
   0  -2  -9  249.58   25.10 
   0   2   9  259.77   25.30 
   0   2   9  226.48   26.00 
   0   2   9  282.17   25.50 
   0   2   9  226.38   26.70 
   0   2   9  310.47   28.00 
   0   2   9  271.87   27.80 
   0   2   9  303.57   33.40 
  -1  -2  -9   12.70    4.30 
  -1  -2  -9    5.90    3.40 
  -1  -2  -9   -2.10    3.20 
  -1  -2  -9    8.80    4.20 
   1   2   9    5.90    3.80 
   1   2   9    4.60    4.00 
   1   2   9    0.90    3.20 
   1   2   9   18.30   34.50 
   1   2   9    0.00    2.00 
   1   2   9    6.30    5.50 
   1   2   9    5.90    6.50 
   1   2   9   -1.00    5.00 
  -2  -2  -9  508.95   40.80 
  -2  -2  -9  479.85   36.60 
  -2  -2  -9  468.75   39.70 
  -2  -2  -9  500.25   40.30 
  -2  -2  -9  436.16   40.10 
   2   2   9  412.36   40.00 
   2   2   9  437.66   42.00 
   2   2   9  433.46   38.30 
   2   2   9  430.16   39.60 
   2   2   9  455.35   41.60 
   2   2   9  476.75   38.40 
  -3  -2  -9  230.58   23.00 
  -3  -2  -9  253.67   20.50 
  -3  -2  -9  226.48   24.30 
  -3  -2  -9  245.68   24.40 
   3   2   9  249.38   24.50 
   3   2   9  268.07   22.30 
   3   2   9  200.88   21.70 
   3   2   9  266.17   26.10 
  -4  -2  -9   14.60    4.80 
  -4  -2  -9   11.00    5.50 
   4   2   9    8.90    3.90 
   4   2   9    8.50   41.00 
   4   2   9   20.80    4.50 
   4   2   9    8.50    3.80 
   4   2   9   -0.90    5.70 
  -5  -2  -9   50.19    8.90 
  -5  -2  -9   72.89   11.30 
  -5  -2  -9   58.19   10.20 
   5   2   9   22.20   60.09 
   5   2   9   63.59    8.10 
  -6  -2  -9    0.90    2.40 
  -6  -2  -9    1.70    2.10 
   6   2   9  -24.90   17.10 
   6   2   9   -1.10    1.30 
  -7  -2  -9    4.90    2.00 
  -7  -2  -9   12.20    3.00 
   7   2   9   -5.90   18.40 
  -3   3   9   -2.60   16.10 
  -3   3   9    8.60    4.50 
  -3   3   9   15.60    4.40 
   2  -3  -9   37.30    5.50 
  -2   3   9   28.30    6.60 
  -2   3   9   34.20    8.00 
  -2   3   9   24.50   69.69 
  -2   3   9   28.40    7.20 
  -2   3   9   19.10    5.40 
  -1   3   9    7.10    5.70 
  -1   3   9   18.90    6.70 
  -1   3   9  -20.10   19.50 
  -1   3   9   16.70    5.50 
  -1   3   9   17.20    6.30 
  -1   3   9   11.70    5.00 
   0  -3  -9   59.69    8.40 
   0  -3  -9   46.10    9.60 
   0   3   9   61.69   14.10 
   0   3   9   48.80    9.90 
   0   3   9   43.80    9.60 
   0   3   9   32.60    9.60 
   0   3   9   33.20    8.20 
   0   3   9   48.00    9.20 
   0   3   9   53.39    8.80 
   0   3   9  -22.20   40.60 
  -1  -3  -9  202.68   20.50 
  -1  -3  -9  224.98   21.10 
   1   3   9  200.28   19.40 
   1   3   9  174.48   21.70 
   1   3   9  206.28   20.60 
   1   3   9  197.48   26.40 
   1   3   9  225.18   25.90 
   1   3   9  206.78   21.80 
  -2  -3  -9   56.49   10.60 
  -2  -3  -9   46.60    8.70 
  -2  -3  -9   43.60    7.30 
   2   3   9   51.79   10.00 
   2   3   9   60.99   10.00 
   2   3   9   50.09    8.10 
   2   3   9   53.99   10.10 
   2   3   9   58.49    8.40 
   2   3   9    4.40   49.70 
   2   3   9   52.99    9.30 
   2   3   9   53.99   11.30 
  -3  -3  -9  503.95   43.90 
  -3  -3  -9  467.55   41.40 
  -3  -3  -9  479.25   42.20 
  -3  -3  -9  538.35   39.40 
   3   3   9  502.35   44.30 
   3   3   9  476.35   41.40 
   3   3   9  445.86   42.00 
   3   3   9  501.75   43.50 
   3   3   9  462.25   44.50 
   3   3   9  501.15   40.40 
  -4  -3  -9  221.08   18.40 
  -4  -3  -9  205.38   21.50 
  -4  -3  -9  222.08   23.20 
   4   3   9  214.88   22.70 
   4   3   9  202.28   20.40 
   4   3   9  211.48   19.70 
  -5  -3  -9   19.70    5.90 
  -5  -3  -9   23.30    6.50 
  -5  -3  -9   18.10    7.40 
   5   3   9   18.50    3.90 
   5   3   9   20.80    4.80 
   5   3   9   -5.30   59.79 
  -6  -3  -9   26.70    6.00 
  -6  -3  -9   36.30    7.90 
   6   3   9   46.30    8.80 
   6   3   9   28.60    4.70 
   6   3   9    0.50   33.60 
  -7  -3  -9   11.30    3.10 
  -7  -3  -9    7.10    3.50 
   7   3   9   -3.50   15.50 
   7   3   9    7.30    2.40 
  -2   4   9    9.10   27.80 
   1  -4  -9    3.40    2.10 
  -1   4   9   -0.40   23.40 
  -1   4   9    1.10    3.30 
  -1   4   9    7.60    3.70 
  -1   4   9   -0.40    2.60 
  -1   4   9    7.50    3.90 
  -1   4   9    5.60    3.50 
   0  -4  -9   60.79    8.00 
   0   4   9   47.20   12.10 
   0   4   9   42.70    8.60 
   0   4   9   66.29   14.50 
   0   4   9   42.70    8.30 
  -1  -4  -9    6.80    5.40 
  -1  -4  -9    5.60    2.70 
   1   4   9    1.40    3.40 
   1   4   9    6.30    3.50 
   1   4   9    0.50    2.50 
   1   4   9   23.40   58.49 
   1   4   9   -0.40    2.40 
   1   4   9    4.70    4.60 
  -2  -4  -9    4.30    7.80 
  -2  -4  -9   12.40    4.50 
   2   4   9    8.90    5.70 
   2   4   9   10.50    4.60 
   2   4   9   22.10    6.30 
   2   4   9   11.30    4.40 
   2   4   9    1.40    7.40 
   2   4   9   15.00    4.40 
   2   4   9   -2.90   35.90 
  -3  -4  -9  146.19   15.40 
  -3  -4  -9  175.58   18.60 
   3   4   9  148.49   17.00 
   3   4   9  192.28   20.30 
   3   4   9  162.18   19.10 
   3   4   9  176.88   18.10 
   3   4   9  150.18   18.80 
  -4  -4  -9   -2.20    2.90 
  -4  -4  -9   15.50   12.20 
  -4  -4  -9    1.10    3.10 
  -4  -4  -9    4.10    2.90 
   4   4   9   -3.00   48.80 
   4   4   9    3.70    2.20 
   4   4   9    1.50    2.30 
   4   4   9    5.20    3.10 
   4   4   9   -0.60    4.00 
   4   4   9   -4.40    5.00 
   4   4   9   -3.00    3.00 
  -5  -4  -9   55.59    7.30 
  -5  -4  -9   66.19   16.40 
  -5  -4  -9   56.79    9.40 
   5   4   9   58.69    8.60 
   5   4   9  -15.30   69.59 
   5   4   9   49.70    8.70 
  -6  -4  -9    0.00    2.00 
  -6  -4  -9   -0.70    2.00 
   6   4   9   -0.10   28.50 
   6   4   9   -2.30    2.10 
  -7  -4  -9    2.60    2.10 
  -7  -4  -9    3.60    1.80 
   7   4   9    5.70   18.90 
   7   4   9    5.70    2.30 
  -1   5   9    7.40    2.90 
  -1   5   9   10.80    3.80 
  -1   5   9   13.50    5.80 
   0  -5  -9   19.30    3.90 
   0   5   9   18.70    5.00 
   0   5   9   19.30    5.90 
   0   5   9   17.90    5.10 
   0   5   9   19.60    5.70 
   0   5   9   -4.40   34.20 
  -1  -5  -9   12.20    4.80 
   1   5   9    4.40    4.10 
   1   5   9    4.60    3.50 
   1   5   9    5.70    2.60 
   1   5   9    3.70    3.60 
   1   5   9    7.10   26.30 
   1   5   9   15.10    6.10 
  -2  -5  -9   33.80    7.30 
  -2  -5  -9   21.10    5.50 
   2   5   9   19.30    5.70 
   2   5   9   24.70    5.50 
   2   5   9   20.10    6.20 
   2   5   9   19.10   37.40 
   2   5   9   23.80    6.50 
   2   5   9   34.70    9.20 
  -3  -5  -9   58.29    9.20 
  -3  -5  -9   43.90    8.10 
   3   5   9   54.19   12.00 
   3   5   9   45.00   10.20 
   3   5   9   65.19   20.90 
  -4  -5  -9   71.19   10.40 
  -4  -5  -9   60.09    9.70 
  -4  -5  -9   74.09    9.10 
   4   5   9   76.89   10.20 
   4   5   9   68.59   10.70 
   4   5   9   56.59   11.30 
   4   5   9   15.90   50.19 
   4   5   9   81.29   11.60 
  -5  -5  -9    3.70    2.90 
  -5  -5  -9    1.10    2.90 
  -5  -5  -9   -0.50    1.90 
   5   5   9    0.80    4.00 
   5   5   9    8.60   30.50 
   5   5   9   -0.20    1.90 
  -6  -5  -9   20.20    5.50 
  -6  -5  -9   12.40    4.60 
   6   5   9   24.80    7.80 
   6   5   9   -4.00   23.00 
  -7  -5  -9   -1.50    1.50 
  -7  -5  -9    4.00    1.70 
   7   5   9   -4.00   15.00 
   7   5   9    5.10    2.00 
   1   6   9   11.10    3.60 
   1   6   9    7.70    4.30 
   1   6   9   11.40    3.70 
   1   6   9   17.60    5.20 
   1   6   9   16.20    4.20 
  -2  -6  -9   50.09    7.20 
  -2  -6  -9   40.10    6.80 
   2   6   9   47.00    8.20 
   2   6   9   57.09   10.20 
   2   6   9   60.89    9.20 
   2   6   9   57.49    9.40 
   2   6   9   53.49    6.90 
  -3  -6  -9    2.60    2.60 
   3   6   9   12.90    4.10 
   3   6   9    3.10    2.90 
   3   6   9   14.40    5.20 
   3   6   9    3.30    2.50 
   3   6   9  -24.60   24.80 
   3   6   9    4.40    3.60 
  -4  -6  -9    1.40    2.70 
  -4  -6  -9    3.10    2.10 
  -4  -6  -9    0.90    2.60 
   4   6   9    3.00    1.90 
   4   6   9    2.50    2.90 
   4   6   9    3.60    2.70 
   4   6   9   15.00   29.90 
   4   6   9    0.20    3.50 
   4   6   9    1.80    2.00 
  -5  -6  -9   14.10    3.90 
  -5  -6  -9   21.00    4.60 
  -5  -6  -9   21.50    5.80 
   5   6   9   22.80    4.80 
   5   6   9   17.90   28.10 
   5   6   9   19.80    5.40 
   5   6   9   14.50    4.20 
   5   6   9   22.10    4.70 
   5   6   9   26.90    6.20 
  -6  -6  -9    0.60    1.80 
  -6  -6  -9   -1.50    1.40 
   6   6   9    1.40   22.20 
   3   7   9   13.60    3.60 
   3   7   9   15.10    3.30 
   3   7   9   29.40    9.00 
   3   7   9   12.20    3.20 
   3   7   9   21.10    3.50 
  -4  -7  -9    1.10    2.10 
   4   7   9    2.80    1.80 
   4   7   9    1.70    1.50 
   4   7   9   10.70    4.50 
   4   7   9    5.50    2.30 
   4   7   9    2.30    2.30 
   3   5 -10    0.10    1.30 
  -3  -5  10    0.80    1.50 
  -3  -5  10    1.20    1.40 
   2   5 -10    4.00    1.90 
   2   5 -10    0.90    1.60 
  -2  -5  10    1.80    1.50 
  -2  -5  10    1.00    1.50 
   1   5 -10    8.10    2.80 
   1   5 -10   11.50    4.20 
  -1  -5  10   12.40    3.20 
  -1  -5  10    4.60    2.70 
   0   5 -10    1.30    1.40 
   0  -5  10    0.20    1.40 
   0  -5  10   -0.40    1.00 
   4   4 -10    3.30    1.70 
   4   4 -10    1.10    2.00 
  -4  -4  10    4.10    1.90 
  -4  -4  10    0.50    1.70 
   3   4 -10   10.90    2.90 
   3   4 -10   15.50    5.10 
  -3  -4  10   10.00    3.00 
  -3  -4  10   10.60    3.70 
   2   4 -10   -1.70    2.00 
   2   4 -10    0.70    1.90 
  -2  -4  10   -0.50    1.50 
  -2  -4  10    1.40    1.80 
   1   4 -10   31.50    7.50 
   1   4 -10   40.50    8.30 
  -1  -4  10   28.10    6.50 
  -1  -4  10   38.90    6.20 
   0   4 -10    2.10    2.50 
   0   4 -10    9.30    3.30 
   0  -4  10    6.00    2.50 
   0  -4  10    3.70    2.90 
  -1   4 -10   27.30    4.40 
  -1   4 -10   11.40    4.40 
   1  -4  10   19.70    4.20 
   1  -4  10   15.20    3.80 
  -2   4 -10   37.90    5.20 
   2  -4  10   32.20    5.50 
   2  -4  10   37.00    5.60 
   4   3 -10   10.00    3.10 
   4   3 -10   21.40    5.00 
  -4  -3  10   14.50    3.80 
   3   3 -10   -2.90    1.80 
   3   3 -10   -1.30    2.40 
  -3  -3  10    1.60    1.70 
  -3  -3  10   -2.80    1.90 
   2   3 -10  196.28   21.10 
   2   3 -10  141.79   16.80 
   2   3 -10  189.18   19.40 
  -2  -3  10  179.38   17.00 
  -2  -3  10  184.58   17.30 
  -2  -3  10  156.78   18.40 
   1   3 -10   27.20    7.20 
   1   3 -10   20.80    8.10 
  -1  -3  10   29.90    7.80 
  -1  -3  10   25.20    5.10 
  -1  -3  10   15.10    4.10 
   0   3 -10   51.19   12.80 
   0   3 -10   38.70    9.90 
   0  -3  10   28.00    7.20 
   0  -3  10   50.29    6.90 
   0  -3  10   37.80    6.20 
  -1   3 -10    9.10    4.30 
  -1   3 -10    3.00    2.00 
  -1   3 -10    2.40    2.30 
   1  -3  10    2.70    2.30 
   1  -3  10    4.00    2.40 
   1  -3  10    1.30    1.90 
  -2   3 -10    1.20    2.00 
  -2   3 -10   -1.00    2.20 
   2  -3  10    2.40    2.10 
   2  -3  10    3.70    2.20 
   2  -3  10    2.50    2.00 
  -3   3 -10   22.20    5.70 
  -3   3 -10   27.70    5.70 
   3  -3  10   20.70    3.70 
   3  -3  10   22.20    3.80 
   3  -3  10   23.30    4.90 
   4   2 -10    6.20    2.20 
   4   2 -10    7.70    3.10 
   4   2 -10    4.60    2.60 
  -4  -2  10    0.60    2.40 
  -4  -2  10   11.00    2.90 
  -4  -2  10    4.40    3.30 
  -4  -2  10    5.50    2.50 
   3   2 -10   81.09    8.50 
   3   2 -10   78.89   12.10 
  -3  -2  10   91.39   12.20 
  -3  -2  10   75.79    9.90 
  -3  -2  10   83.09   14.70 
  -3  -2  10   93.59   13.10 
  -3  -2  10   74.09   10.00 
   2   2 -10   81.09   12.50 
   2   2 -10   72.39   10.30 
   2   2 -10   65.29    7.90 
  -2  -2  10   75.99   14.00 
  -2  -2  10   68.89   11.00 
  -2  -2  10   58.99   10.40 
   1   2 -10   92.79   13.80 
   1   2 -10   78.89   12.40 
   1   2 -10   71.39    8.30 
   1   2 -10   97.29   12.80 
  -1  -2  10   79.39   10.40 
  -1  -2  10   97.89   16.50 
  -1  -2  10   76.79   10.50 
  -1  -2  10  101.29   12.20 
   0   2 -10   43.80   10.10 
   0   2 -10   31.30    7.90 
   0   2 -10   46.70   11.10 
   0  -2  10   37.00    6.10 
   0  -2  10   21.20    7.70 
   0  -2  10   32.50    7.00 
   0  -2  10   38.00    6.80 
  -1   2 -10  226.98   22.10 
  -1   2 -10  224.88   23.80 
  -1   2 -10  209.18   25.20 
  -1   2 -10  232.08   23.50 
   1  -2  10  207.08   23.60 
   1  -2  10  265.07   23.00 
   1  -2  10  224.98   20.70 
   1  -2  10  212.68   20.50 
  -2   2 -10  160.18   17.50 
  -2   2 -10  157.58   20.30 
   2  -2  10  158.08   17.00 
   2  -2  10  163.08   15.80 
   2  -2  10  164.48   16.00 
  -3   2 -10    8.30    3.20 
  -3   2 -10    5.40    2.70 
  -3   2 -10    0.50    2.50 
   3  -2  10    0.80    2.20 
   3  -2  10    1.10    1.70 
  -4   2 -10    5.80    2.10 
  -4   2 -10    3.50    2.40 
  -4   2 -10    3.80    3.10 
   4  -2  10    6.30    2.50 
   4  -2  10    3.20    2.00 
   4   1 -10    5.90    2.70 
   4   1 -10   11.00    2.90 
  -4  -1  10    4.80   23.80 
  -4  -1  10   10.70    4.60 
  -4  -1  10    4.10    2.60 
  -4  -1  10    8.40    3.40 
  -4  -1  10    2.90    4.10 
  -4  -1  10    7.70    3.20 
   3   1 -10   13.20    4.30 
   3   1 -10   25.30    6.40 
   3   1 -10   23.30    5.00 
  -3  -1  10   24.10    5.70 
  -3  -1  10  -25.30   32.90 
  -3  -1  10   20.00    4.40 
  -3  -1  10   25.80    6.50 
  -3  -1  10   13.70    4.90 
  -3  -1  10   15.40    6.90 
   2   1 -10   57.09   16.40 
   2   1 -10   51.49    7.20 
   2   1 -10   34.40    8.50 
  -2  -1  10   -8.30   44.10 
  -2  -1  10   56.49    9.80 
  -2  -1  10   50.39    8.90 
  -2  -1  10   62.59   10.10 
  -2  -1  10   69.99   12.90 
   1   1 -10    6.10    3.60 
   1   1 -10    8.80    3.70 
   1   1 -10   -5.30    4.60 
  -1  -1  10   11.40    6.50 
  -1  -1  10   10.30    6.10 
  -1  -1  10    3.30    2.50 
  -1  -1  10   -5.50    4.70 
  -1  -1  10   12.30    4.80 
  -1  -1  10  -10.80   34.50 
   0   1 -10  366.96   34.70 
   0   1 -10  420.36   30.80 
   0   1 -10  392.16   37.40 
   0  -1  10  388.36   33.30 
   0  -1  10  446.76   39.40 
   0  -1  10  319.27   33.40 
   0  -1  10  384.56   34.40 
  -1   1 -10   -1.70    2.70 
  -1   1 -10    6.00    4.30 
  -1   1 -10    4.30    3.50 
  -1   1 -10   11.00    5.10 
   1  -1  10    1.90    2.60 
   1  -1  10    5.60    3.10 
   1  -1  10    3.80    6.20 
  -2   1 -10  312.57   32.30 
  -2   1 -10  353.26   32.00 
  -2   1 -10  364.96   35.50 
  -2   1 -10  367.16   34.30 
   2  -1  10  377.46   31.60 
   2  -1  10  293.67   31.60 
   2  -1  10  378.56   30.20 
  -3   1 -10   20.50    7.30 
  -3   1 -10   13.40    5.10 
   3  -1  10   18.80    4.40 
   3  -1  10   11.50    4.30 
  -4   1 -10   22.20    4.80 
  -4   1 -10   13.70    4.60 
  -4   1 -10   19.80    5.90 
   4  -1  10   13.60    4.00 
   4  -1  10   19.50    4.10 
  -5   1 -10   11.80    3.30 
  -5   1 -10   10.60    2.70 
   5  -1  10   14.90    3.20 
   5  -1  10    9.60    2.60 
   4   0 -10    8.00    2.40 
  -4   0  10   12.00    3.40 
  -4   0  10   12.40    4.40 
  -4   0  10   14.90    4.50 
  -4   0  10    7.80    3.90 
  -4   0  10   -3.10   18.50 
   3   0 -10    8.10    3.00 
   3   0 -10    4.00    2.60 
   3   0 -10    1.80    2.20 
  -3   0  10    1.80    3.50 
  -3   0  10    1.50    2.20 
  -3   0  10   -1.60    2.90 
  -3   0  10    2.80    2.60 
  -3   0  10    8.10   30.60 
   2   0 -10   76.19   10.20 
   2   0 -10   85.19    9.80 
  -2   0  10   91.19   12.00 
  -2   0  10   87.89   13.30 
  -2   0  10   72.19   12.00 
  -2   0  10  104.09   13.30 
  -2   0  10   86.49   14.10 
  -2   0  10   -5.10   54.89 
   1   0 -10  296.47   22.60 
   1   0 -10  231.48   26.00 
   1   0 -10  278.97   24.60 
   1   0 -10  266.47   25.80 
  -1   0  10  223.68   25.10 
  -1   0  10  253.77   28.30 
  -1   0  10  277.27   26.80 
  -1   0  10  287.57   28.70 
  -1   0  10  227.08   25.80 
  -1   0  10  271.27   25.40 
   0   0 -10   12.90    5.50 
   0   0 -10    2.90    5.90 
   0   0 -10   10.30    3.60 
   0   0  10  -10.50   22.10 
   0   0  10    7.50    7.70 
   0   0  10    8.30    4.00 
   0   0  10    9.40    4.50 
   0   0  10    6.70    3.80 
   0   0  10   22.60    7.10 
  -1   0 -10  164.58   19.80 
  -1   0 -10  133.89   15.80 
  -1   0 -10  149.19   16.40 
  -1   0 -10  146.69   18.00 
  -1   0 -10  163.98   14.30 
   1   0  10  178.28   20.60 
   1   0  10  153.58   16.90 
   1   0  10  158.18   16.10 
  -2   0 -10   94.49   14.30 
  -2   0 -10  119.99   15.60 
   2   0  10   75.29   15.40 
   2   0  10   99.89   11.70 
   2   0  10  108.39   16.50 
  -3   0 -10   45.30   11.30 
  -3   0 -10   51.69    9.80 
   3   0  10   45.30    6.70 
   3   0  10   31.40   12.20 
   3   0  10   54.39   84.09 
   3   0  10   41.30    7.10 
  -4   0 -10   23.80    6.90 
  -4   0 -10   27.80    6.20 
  -4   0 -10   38.40    9.30 
   4   0  10   35.00    6.10 
   4   0  10   37.40    6.10 
  -5   0 -10   43.50    7.10 
   5   0  10   21.50   35.20 
   5   0  10   29.10    4.90 
   5   0  10   32.80    5.20 
  -6   0 -10   26.80    4.50 
  -6   0 -10   23.40    4.20 
   6   0  10   30.50    3.90 
   4  -1 -10    1.60    1.80 
  -4   1  10    0.30    2.70 
  -4   1  10   -2.30    5.30 
  -4   1  10   -0.50    2.50 
  -4   1  10    2.10    1.30 
  -4   1  10    1.30    1.50 
   3  -1 -10   23.90    4.40 
   3  -1 -10   15.50    4.00 
   3  -1 -10    7.60    3.30 
  -3   1  10   -2.80   17.00 
  -3   1  10   18.60    6.00 
  -3   1  10   13.50    4.50 
  -3   1  10   16.70    5.60 
  -3   1  10    9.80    3.80 
   2  -1 -10   15.50    4.10 
   2  -1 -10    6.40    3.70 
  -2   1  10   10.50    4.00 
  -2   1  10   21.10    6.80 
  -2   1  10   16.80    5.30 
   1  -1 -10  197.88   25.90 
   1  -1 -10  205.58   22.80 
   1  -1 -10  234.98   19.20 
  -1   1  10  206.78   24.00 
  -1   1  10  217.78   24.90 
  -1   1  10  194.48   24.20 
  -1   1  10  198.28   22.70 
  -1   1  10  249.08   23.30 
  -1   1  10  244.68   23.20 
   0  -1 -10  210.48   22.20 
   0  -1 -10  222.98   20.80 
   0  -1 -10  209.08   18.30 
   0   1  10  154.98   22.10 
   0   1  10  219.78   23.40 
   0   1  10  217.68   20.80 
   0   1  10  194.68   21.90 
   0   1  10  196.28   21.50 
   0   1  10  215.58   24.30 
   0   1  10  189.08   27.00 
   0   1  10  250.87   25.20 
  -1  -1 -10  159.68   16.10 
  -1  -1 -10  140.49   17.20 
  -1  -1 -10  130.49   15.60 
   1   1  10  140.89   15.70 
   1   1  10  135.79   16.60 
   1   1  10  135.09   15.90 
   1   1  10  157.08   19.10 
   1   1  10  141.89   16.70 
   1   1  10  168.68   19.10 
   1   1  10  147.79   15.80 
   1   1  10  127.59   17.80 
  -2  -1 -10   61.49    8.80 
  -2  -1 -10   50.09    8.50 
  -2  -1 -10   60.59    9.70 
  -2  -1 -10   62.99   11.40 
   2   1  10   61.49    8.60 
   2   1  10  -17.00   37.40 
   2   1  10   61.49    9.90 
   2   1  10   56.09    8.80 
   2   1  10   59.19   17.80 
  -3  -1 -10  259.87   21.70 
  -3  -1 -10  280.07   28.90 
  -3  -1 -10  279.37   26.90 
  -3  -1 -10  252.37   26.40 
   3   1  10  258.67   24.20 
   3   1  10  287.97   24.60 
  -4  -1 -10    7.10    3.70 
  -4  -1 -10    4.00    3.90 
  -4  -1 -10    1.70    2.00 
   4   1  10    4.10    2.20 
   4   1  10    4.50   48.30 
  -5  -1 -10    5.00    3.20 
  -5  -1 -10    0.10    4.50 
  -5  -1 -10    3.50    2.10 
   5   1  10   11.70   35.50 
   5   1  10    6.50    2.40 
  -6  -1 -10   41.90    6.00 
  -6  -1 -10   42.70    6.70 
   6   1  10    8.10   27.30 
  -3   2  10   32.80    5.00 
  -3   2  10   12.80    4.70 
  -3   2  10   22.50    5.60 
  -3   2  10   20.30    4.80 
   2  -2 -10    7.90    4.00 
   2  -2 -10    4.30    2.30 
  -2   2  10  -14.40   28.80 
  -2   2  10    1.50    2.50 
  -2   2  10    3.60    3.00 
  -2   2  10    8.20    4.20 
  -2   2  10   -4.10    3.00 
  -2   2  10    6.40    3.50 
   1  -2 -10  201.98   17.90 
  -1   2  10  180.48   19.40 
  -1   2  10  145.59   20.60 
  -1   2  10  150.88   19.60 
  -1   2  10  161.18   19.90 
  -1   2  10  183.48   19.50 
   0  -2 -10   28.30    8.30 
   0  -2 -10   42.70    7.10 
   0   2  10   28.50    7.50 
   0   2  10   28.60    7.50 
   0   2  10    8.70    9.40 
   0   2  10   20.80    5.90 
   0   2  10   43.50   10.90 
   0   2  10   19.50   71.39 
   0   2  10   24.40    7.00 
   0   2  10   34.70   10.30 
  -1  -2 -10   69.79    9.60 
  -1  -2 -10   63.19   11.20 
   1   2  10   56.19   11.60 
   1   2  10   44.70   10.60 
   1   2  10   69.49    9.60 
   1   2  10   70.39    9.90 
   1   2  10   63.29   10.90 
   1   2  10   80.49   12.30 
   1   2  10   47.90   11.10 
   1   2  10   10.10   50.99 
  -2  -2 -10   77.09   12.80 
  -2  -2 -10   86.89   12.70 
  -2  -2 -10   78.79   13.20 
  -2  -2 -10   84.79   11.30 
  -2  -2 -10  101.89   10.10 
   2   2  10   93.99   11.00 
   2   2  10   89.89   15.50 
   2   2  10   86.89   13.30 
   2   2  10   89.49   13.70 
  -3  -2 -10  212.68   23.10 
  -3  -2 -10  239.48   23.90 
  -3  -2 -10  266.27   21.10 
  -3  -2 -10  245.78   25.20 
   3   2  10  244.08   26.40 
   3   2  10  267.57   23.50 
   3   2  10  236.58   22.90 
   3   2  10  261.47   25.20 
  -4  -2 -10   19.70    6.50 
  -4  -2 -10   14.80    6.00 
  -4  -2 -10   20.10    6.60 
  -4  -2 -10   14.10    3.70 
  -4  -2 -10   17.40    4.50 
   4   2  10   14.70    5.40 
   4   2  10   17.90    5.10 
   4   2  10  -26.80   21.20 
   4   2  10   18.40    4.80 
  -5  -2 -10   22.20    5.80 
  -5  -2 -10   27.70    6.70 
  -5  -2 -10   20.50    5.50 
   5   2  10    0.20   37.70 
   5   2  10   19.60    4.30 
  -6  -2 -10   38.20    8.00 
  -6  -2 -10   31.90    5.50 
   6   2  10   44.40    5.60 
   6   2  10    1.30   42.80 
   2  -3 -10   12.80    2.70 
  -2   3  10   17.30    5.10 
  -2   3  10   11.00    4.10 
  -2   3  10    6.90    3.00 
  -2   3  10    9.30    3.70 
  -2   3  10   -4.20   31.10 
  -1   3  10   47.10    9.30 
  -1   3  10   49.90    8.40 
  -1   3  10   47.30   10.50 
  -1   3  10   48.30    8.40 
   0  -3 -10  157.28   14.50 
   0   3  10  145.79   17.00 
   0   3  10  136.29   16.10 
   0   3  10  122.09   16.50 
   0   3  10  155.38   19.40 
   0   3  10  164.88   18.90 
  -1  -3 -10   66.99    8.80 
  -1  -3 -10   62.19   10.80 
  -1  -3 -10   64.19   11.50 
  -1  -3 -10   73.39    9.90 
  -1  -3 -10   57.49    9.50 
   1   3  10   58.29   10.00 
   1   3  10   49.99   10.90 
   1   3  10   49.00    8.60 
   1   3  10   59.69   12.20 
   1   3  10   78.29   11.60 
  -2  -3 -10  386.16   35.10 
  -2  -3 -10  410.46   33.80 
  -2  -3 -10  335.37   29.80 
  -2  -3 -10  344.47   33.10 
  -2  -3 -10  407.86   42.20 
   2   3  10  330.27   34.40 
   2   3  10  346.27   31.90 
   2   3  10  374.76   35.60 
   2   3  10  374.36   35.30 
   2   3  10  379.76   33.00 
  -3  -3 -10   89.09   12.10 
  -3  -3 -10   76.99    9.20 
  -3  -3 -10   77.79   16.30 
   3   3  10   75.49    9.90 
   3   3  10   72.99   11.90 
   3   3  10   84.29   11.00 
   3   3  10   72.19   11.50 
   3   3  10   64.99   13.00 
  -4  -3 -10   64.19   10.20 
  -4  -3 -10   48.60    7.10 
  -4  -3 -10   49.20    8.20 
   4   3  10   57.49    8.40 
   4   3  10   49.80    7.20 
   4   3  10  -15.50   48.60 
   4   3  10   64.59   10.30 
  -5  -3 -10   54.59    9.10 
  -5  -3 -10   49.70    8.70 
  -5  -3 -10   45.70    7.30 
   5   3  10   45.00    7.10 
   5   3  10  -14.20   29.50 
   5   3  10   44.30    6.30 
  -6  -3 -10    6.70    2.90 
  -6  -3 -10    8.80    3.20 
   6   3  10    8.30   31.40 
   6   3  10    8.30    2.00 
  -7  -3 -10   12.90    2.60 
  -7  -3 -10   14.00    3.30 
   1  -4 -10   23.80    4.30 
  -1   4  10   14.50   38.90 
  -1   4  10   28.00    6.00 
  -1   4  10   27.90    6.70 
  -1   4  10   19.90    4.90 
   0   4  10   36.60    7.70 
   0   4  10   59.79   10.70 
   0   4  10   62.69    9.00 
   0   4  10   21.80    7.10 
   0   4  10   44.90    9.20 
  -1  -4 -10   10.20    3.50 
   1   4  10    1.40   17.00 
   1   4  10    6.80    4.00 
   1   4  10   10.50    4.10 
   1   4  10    3.80    3.40 
   1   4  10    5.50    4.70 
   1   4  10    0.20    2.60 
   1   4  10    5.00    3.40 
  -2  -4 -10   13.40    4.40 
   2   4  10   23.30    6.90 
   2   4  10    6.50    4.40 
   2   4  10   11.80    4.20 
   2   4  10    3.70    4.30 
   2   4  10   11.70   58.39 
   2   4  10   16.50    4.90 
   2   4  10   12.00    5.10 
  -3  -4 -10   35.40    7.40 
  -3  -4 -10   23.00    5.80 
   3   4  10   28.80    7.60 
   3   4  10   36.80    7.30 
   3   4  10    1.10   43.30 
   3   4  10   39.90   10.30 
   3   4  10   32.30    7.90 
   3   4  10   32.60    7.50 
  -4  -4 -10   -2.50    3.20 
  -4  -4 -10    0.40    3.50 
  -4  -4 -10    3.70    2.70 
  -4  -4 -10    2.50    2.90 
   4   4  10    6.70    4.50 
   4   4  10    2.40    3.20 
   4   4  10    0.00    1.90 
   4   4  10    4.20    2.70 
   4   4  10    1.00   37.70 
  -5  -4 -10    9.40    3.40 
  -5  -4 -10    5.90    2.70 
  -5  -4 -10    4.60    2.60 
   5   4  10    7.60    3.80 
   5   4  10   -4.50   28.70 
   5   4  10    8.70    3.50 
  -6  -4 -10    4.80    3.00 
  -6  -4 -10    4.60    1.80 
   6   4  10    5.40    2.60 
  -7  -4 -10    9.50    2.10 
  -7  -4 -10    4.50    1.80 
   0   5  10   11.90    3.80 
   0   5  10   14.80    4.00 
   0   5  10    5.30    2.70 
   0   5  10   17.30   27.70 
   0   5  10   10.30    3.70 
  -1  -5 -10    7.80    3.90 
  -1  -5 -10   17.50    4.30 
   1   5  10  -11.60   30.50 
   1   5  10   18.20    4.80 
   1   5  10   10.50    3.70 
   1   5  10   13.70    5.70 
   1   5  10   12.30    4.40 
  -2  -5 -10    9.40    3.40 
  -2  -5 -10    3.80    2.80 
   2   5  10    5.10    4.40 
   2   5  10    2.40    2.80 
   2   5  10    2.90    3.20 
   2   5  10    3.00   44.60 
   2   5  10    1.20    3.30 
   2   5  10    2.60    2.20 
  -3  -5 -10   59.69    8.70 
  -3  -5 -10   62.39    7.70 
   3   5  10    0.80   34.50 
   3   5  10   49.20   10.20 
   3   5  10   48.80    9.00 
   3   5  10   69.29    9.70 
   3   5  10   49.90    7.80 
  -4  -5 -10    9.40    4.10 
  -4  -5 -10    2.20    3.30 
  -4  -5 -10    7.60    3.30 
   4   5  10   11.60    3.80 
   4   5  10    3.80    2.80 
   4   5  10   22.10   49.10 
   4   5  10    6.20    3.60 
   4   5  10    9.90    3.70 
  -5  -5 -10   24.90    5.20 
  -5  -5 -10   17.40    4.50 
  -5  -5 -10   14.80    3.60 
   5   5  10    0.60   20.00 
   5   5  10   22.70    6.10 
   5   5  10   22.80    5.40 
  -6  -5 -10   -0.90    1.60 
  -6  -5 -10    0.40    1.90 
   6   5  10   13.20   30.70 
   6   5  10    2.60    2.00 
   1   6  10   14.20    3.50 
   1   6  10   16.30    3.40 
   1   6  10   17.00    4.00 
  -2  -6 -10    4.20    2.40 
  -2  -6 -10    3.10    2.40 
   2   6  10    5.50    3.00 
   2   6  10    0.00    2.30 
   2   6  10    9.90    3.20 
   2   6  10   12.00    4.30 
  -3  -6 -10    3.10    2.40 
   3   6  10   11.10    4.50 
   3   6  10   13.40   31.50 
   3   6  10    8.50    3.00 
   3   6  10   -0.50    1.70 
   3   6  10    5.30    3.20 
   3   6  10    3.70    2.90 
  -4  -6 -10    5.00    2.60 
  -4  -6 -10    8.50    2.70 
   4   6  10    8.10    2.50 
   4   6  10   16.70   26.30 
   4   6  10   11.60    4.10 
   4   6  10    8.90    3.20 
   4   6  10   13.40    3.90 
   4   6  10   12.90    4.60 
  -5  -6 -10    0.40    1.70 
  -5  -6 -10    1.00    1.40 
   5   6  10    3.40    3.00 
   5   6  10    2.90    1.70 
   5   6  10   -6.80   21.20 
   5   6  10    2.30    2.20 
   3   4 -11   19.70    4.40 
  -3  -4  11   12.70    2.60 
  -3  -4  11   21.80    3.70 
   2   4 -11   31.70    4.90 
   2   4 -11   26.70    5.70 
  -2  -4  11   29.60    4.40 
  -2  -4  11   28.70    5.30 
   1   4 -11   18.10    4.80 
   1   4 -11   19.50    5.20 
  -1  -4  11   22.20    4.10 
  -1  -4  11   25.10    5.00 
   0   4 -11   22.40    5.90 
   0   4 -11   12.10    4.00 
   0  -4  11   11.60    3.00 
   0  -4  11   13.40    3.60 
  -1   4 -11    3.80    1.70 
  -1   4 -11    3.30    2.20 
   1  -4  11    4.00    1.80 
   1  -4  11    0.10    1.60 
   3   3 -11    5.30    2.30 
   3   3 -11    1.10    2.30 
  -3  -3  11    9.50    3.40 
  -3  -3  11   13.40    4.10 
   2   3 -11    8.90    4.10 
   2   3 -11    4.30    3.00 
   2   3 -11   11.50    3.40 
  -2  -3  11    8.70    2.90 
  -2  -3  11    6.90    3.00 
   1   3 -11   -2.70    1.30 
   1   3 -11    1.50    2.30 
  -1  -3  11   -2.60    2.10 
  -1  -3  11   -1.00    3.00 
  -1  -3  11    0.70    1.70 
   0   3 -11   -1.40    2.60 
   0   3 -11    3.00    2.70 
   0  -3  11    1.10    2.70 
   0  -3  11    1.20    3.40 
   0  -3  11    2.60    2.10 
  -1   3 -11   14.10    5.00 
  -1   3 -11   16.10    3.30 
  -1   3 -11    9.20    4.70 
   1  -3  11   10.00    3.60 
   1  -3  11    9.60    3.10 
   1  -3  11    7.30    3.00 
  -2   3 -11   13.20    4.90 
  -2   3 -11   11.20    3.10 
   2  -3  11   13.70    3.10 
   2  -3  11   10.40    4.00 
   2  -3  11   15.60    4.00 
  -3   3 -11   41.70    5.30 
  -3   3 -11   25.20    4.70 
   3  -3  11   36.90    5.10 
   4   2 -11   10.40    3.70 
   4   2 -11    2.70    2.60 
  -4  -2  11    5.20    1.90 
   3   2 -11   24.60    5.20 
   3   2 -11    9.60    3.90 
  -3  -2  11   17.90    4.00 
  -3  -2  11   15.80    5.20 
  -3  -2  11   15.10    4.00 
   2   2 -11   18.20    3.70 
   2   2 -11   21.90    6.30 
   2   2 -11   17.40    4.40 
  -2  -2  11   23.10    7.00 
  -2  -2  11   19.00    4.60 
  -2  -2  11   10.20    3.70 
  -2  -2  11   14.50    4.80 
   1   2 -11    6.20    3.90 
   1   2 -11    0.40    3.10 
   1   2 -11    4.70    3.70 
  -1  -2  11   -3.00    2.90 
  -1  -2  11    1.70    2.50 
  -1  -2  11    2.90    2.90 
   0   2 -11   18.70    6.00 
   0   2 -11   32.90    8.80 
   0  -2  11   19.50    4.80 
   0  -2  11   37.30    6.40 
  -1   2 -11    2.00    3.30 
  -1   2 -11    0.50    2.40 
  -1   2 -11    2.70    2.20 
   1  -2  11   -0.10    2.20 
   1  -2  11   -0.80    1.60 
  -2   2 -11    0.80    1.90 
  -2   2 -11    2.60    2.90 
   2  -2  11    1.30    2.00 
   2  -2  11    0.80    1.60 
  -3   2 -11   16.00    5.60 
  -3   2 -11   15.00    4.10 
   3  -2  11   19.10    4.50 
   3  -2  11   26.70    4.80 
  -4   2 -11    2.60    1.70 
   4  -2  11    1.20    1.30 
   4  -2  11    1.80    1.50 
   4   1 -11   29.80    6.10 
  -4  -1  11   20.70    4.00 
  -4  -1  11   19.00    4.10 
  -4  -1  11   27.70    4.70 
   3   1 -11   21.10    4.90 
   3   1 -11   14.90    3.60 
  -3  -1  11   19.60    4.90 
  -3  -1  11   17.70    4.80 
  -3  -1  11   28.40    8.10 
  -3  -1  11   -1.30   26.40 
  -3  -1  11   17.10    4.20 
   2   1 -11  -10.20    6.20 
   2   1 -11    3.20    2.40 
   2   1 -11   -0.70    2.50 
  -2  -1  11    1.00    2.20 
  -2  -1  11    1.60    1.90 
  -2  -1  11    1.00   37.80 
  -2  -1  11    9.20    4.80 
  -2  -1  11    7.30    3.90 
   1   1 -11    5.30    3.70 
   1   1 -11   -0.50    2.70 
   1   1 -11    4.40    3.20 
  -1  -1  11    9.20    6.50 
  -1  -1  11  -26.10   21.80 
  -1  -1  11   -3.50    2.10 
  -1  -1  11    0.50    2.40 
   0   1 -11    5.00    3.40 
   0   1 -11    0.90    2.70 
   0   1 -11    1.90    3.70 
   0  -1  11    2.20    7.60 
   0  -1  11   -0.20    2.60 
   0  -1  11    1.50    2.10 
  -1   1 -11  255.57   24.10 
  -1   1 -11  258.17   28.10 
  -1   1 -11  249.18   26.60 
   1  -1  11  286.27   24.70 
   1  -1  11  279.27   25.70 
  -2   1 -11   48.40   10.00 
  -2   1 -11   66.29   11.50 
  -2   1 -11   52.79   10.90 
   2  -1  11   72.59   11.40 
   2  -1  11   67.89    8.90 
  -3   1 -11   32.00    8.20 
  -3   1 -11   34.70    7.40 
   3  -1  11   36.60    6.40 
   3  -1  11   32.90    5.80 
  -4   1 -11   13.60    4.40 
  -4   1 -11   20.60    4.90 
   4  -1  11   25.00    4.10 
   4  -1  11   15.60    4.00 
  -5   1 -11   27.10    4.20 
   5  -1  11   20.10    3.70 
   5  -1  11   22.40    3.80 
   3   0 -11   35.00    5.80 
  -3   0  11   23.40    5.70 
  -3   0  11   20.60    4.50 
  -3   0  11   22.60    7.40 
  -3   0  11   21.00    4.80 
   2   0 -11    6.10    2.80 
   2   0 -11   12.90    3.40 
  -2   0  11    4.60    2.80 
  -2   0  11   13.00    5.10 
  -2   0  11   13.20    5.00 
  -2   0  11    9.80    4.90 
  -2   0  11   13.30   43.60 
   1   0 -11   27.60    7.90 
   1   0 -11   27.80    5.40 
  -1   0  11   23.70    6.30 
  -1   0  11   26.30   10.30 
  -1   0  11   15.00   53.89 
  -1   0  11   28.20    8.80 
  -1   0  11   31.20    7.30 
  -1   0  11   19.80    6.20 
   0   0 -11   98.09   14.10 
   0   0 -11   85.09   11.80 
   0   0 -11  125.99   15.80 
   0   0  11  110.39   13.60 
   0   0  11  133.49   17.00 
   0   0  11  114.39   13.10 
   0   0  11   83.49   16.80 
   0   0  11  105.79   14.20 
  -1   0 -11   53.29    8.40 
  -1   0 -11   61.69   11.10 
  -1   0 -11   46.20   10.60 
  -1   0 -11   60.59    7.00 
   1   0  11   54.79    8.20 
   1   0  11   65.39   11.30 
   1   0  11   63.89    8.90 
   1   0  11  -30.50   41.60 
  -2   0 -11  157.38   17.30 
  -2   0 -11  154.18   20.00 
  -2   0 -11  149.59   19.80 
   2   0  11  168.48   18.90 
   2   0  11  182.48   17.10 
   2   0  11  157.48   17.00 
  -3   0 -11  156.68   19.90 
  -3   0 -11  155.78   21.30 
   3   0  11  130.29   14.90 
   3   0  11  141.49   15.20 
  -4   0 -11   50.09    8.50 
  -4   0 -11   38.00    8.70 
   4   0  11   51.39    6.90 
   4   0  11   64.59    7.80 
   4   0  11   -2.30   40.70 
  -5   0 -11   12.50    3.50 
  -5   0 -11    5.80    2.10 
   5   0  11   11.20    2.80 
   5   0  11   12.70    2.80 
   3  -1 -11    3.00    2.10 
   3  -1 -11    4.30    2.80 
  -3   1  11    0.90   19.50 
  -3   1  11    4.90    2.40 
  -3   1  11    6.40    3.40 
  -3   1  11    1.30    3.00 
  -3   1  11    5.30    2.50 
   2  -1 -11   -0.90    2.90 
   2  -1 -11    0.70    1.40 
  -2   1  11   -0.50    2.00 
  -2   1  11    3.20    3.60 
  -2   1  11   -0.20    2.20 
  -2   1  11    3.10    3.70 
  -2   1  11    2.60    2.50 
  -2   1  11   14.40   32.60 
   1  -1 -11   36.10    7.50 
  -1   1  11   29.20    6.20 
  -1   1  11   23.50    5.90 
  -1   1  11   39.70    8.80 
  -1   1  11   24.60    7.20 
  -1   1  11   -6.90   35.40 
   0  -1 -11    7.40    3.20 
   0  -1 -11    2.90    3.70 
   0  -1 -11    4.90    3.40 
   0   1  11    3.00    2.90 
   0   1  11    9.80    5.30 
   0   1  11   -1.10   33.40 
   0   1  11    5.90    3.30 
   0   1  11    5.00    3.40 
   0   1  11    0.60    4.00 
  -1  -1 -11  144.99   18.70 
  -1  -1 -11  140.09   17.30 
  -1  -1 -11  147.69   15.30 
  -1  -1 -11  168.08   13.70 
   1   1  11  134.29   18.50 
   1   1  11  156.78   16.20 
   1   1  11  156.38   18.80 
   1   1  11  148.09   15.70 
   1   1  11  137.49   16.20 
   1   1  11  108.59   15.80 
   1   1  11  104.79   17.40 
  -2  -1 -11   49.20   10.80 
  -2  -1 -11   66.89    9.10 
  -2  -1 -11   24.80    7.80 
  -2  -1 -11   43.60    6.40 
   2   1  11   55.29    7.80 
   2   1  11   33.20    8.50 
   2   1  11   13.60   53.69 
   2   1  11   48.10    8.30 
   2   1  11   32.70    8.10 
  -3  -1 -11   34.70    9.10 
  -3  -1 -11   30.00    6.50 
   3   1  11   -1.70   30.30 
   3   1  11   41.20    6.60 
  -4  -1 -11    0.80    3.20 
  -4  -1 -11    6.00    2.90 
   4   1  11    6.20    2.70 
   4   1  11  -12.10   21.60 
  -5  -1 -11   11.60    3.10 
  -5  -1 -11   15.50    4.30 
   5   1  11   12.40    3.30 
   5   1  11   -4.50   27.80 
  -6  -1 -11    7.50    2.00 
  -6  -1 -11   10.90    2.50 
   6   1  11    2.00   13.20 
   2  -2 -11    7.80    2.70 
   2  -2 -11    6.90    3.40 
  -2   2  11   11.40    3.20 
  -2   2  11   12.30    4.60 
  -2   2  11    7.80    3.60 
  -2   2  11    9.90    4.00 
  -2   2  11   14.60   25.20 
   1  -2 -11   15.20    5.60 
   1  -2 -11    7.80    3.30 
   1  -2 -11    9.90    4.00 
  -1   2  11   11.20    4.40 
  -1   2  11   17.70    5.60 
  -1   2  11   12.00    4.70 
  -1   2  11   17.00   48.30 
   0  -2 -11   91.39   11.00 
   0  -2 -11  116.69   12.50 
   0   2  11   87.59   14.30 
   0   2  11   95.89   14.50 
   0   2  11  119.09   16.50 
  -1  -2 -11   22.70    5.60 
  -1  -2 -11   37.20    6.90 
   1   2  11   32.00    7.80 
   1   2  11   29.70    6.70 
   1   2  11    8.20   33.30 
   1   2  11   50.49    8.60 
   1   2  11   28.00    6.50 
   1   2  11   34.30    9.00 
  -2  -2 -11   36.70    7.50 
  -2  -2 -11   39.80    7.60 
  -2  -2 -11   47.70    6.50 
   2   2  11   18.50   36.70 
   2   2  11   38.00    8.10 
   2   2  11   30.70    8.10 
   2   2  11   44.90   10.20 
   2   2  11   55.49    8.00 
   2   2  11   51.19   10.50 
  -3  -2 -11  120.29   11.60 
  -3  -2 -11  127.39   15.30 
   3   2  11  140.89   14.20 
   3   2  11  108.49   14.80 
   3   2  11  124.09   16.30 
  -4  -2 -11   -2.90    1.60 
  -4  -2 -11    0.90    2.80 
   4   2  11   -0.90    1.60 
   4   2  11    8.80   32.90 
  -5  -2 -11    8.20    3.60 
  -5  -2 -11   12.20    4.60 
  -5  -2 -11    5.70    2.60 
   5   2  11    5.20   19.00 
   5   2  11   10.50    3.30 
  -6  -2 -11    7.60    2.70 
   6   2  11   10.90    2.20 
   6   2  11   21.50   36.30 
  -2   3  11    8.00   19.10 
  -2   3  11    8.90    2.60 
  -2   3  11   11.80    3.70 
  -2   3  11    6.60    4.30 
   1  -3 -11    7.80    2.80 
   1  -3 -11   11.50    2.60 
  -1   3  11   -1.10   11.50 
  -1   3  11    9.60    3.60 
  -1   3  11   10.00    4.60 
  -1   3  11    3.00    3.60 
   0  -3 -11   16.80    5.50 
   0  -3 -11   18.90    3.80 
   0   3  11    9.20    4.00 
   0   3  11   21.50    5.80 
   0   3  11   17.50    5.60 
   0   3  11    7.60    3.60 
   0   3  11    8.30    4.60 
   0   3  11   16.80   40.00 
  -1  -3 -11  100.19   11.70 
   1   3  11   94.29   14.80 
   1   3  11   97.99   13.50 
   1   3  11  102.69   12.70 
   1   3  11   75.99   10.90 
   1   3  11  102.49   13.90 
  -2  -3 -11   41.80    6.40 
  -2  -3 -11   51.69    7.80 
  -2  -3 -11   47.40    7.50 
   2   3  11   33.40    7.20 
   2   3  11   39.40    9.80 
   2   3  11   34.20    8.80 
   2   3  11   -3.00   46.00 
   2   3  11   38.50   15.40 
  -3  -3 -11    0.40    2.50 
  -3  -3 -11   -2.20    2.60 
   3   3  11   -8.20   42.20 
   3   3  11   -0.10    4.90 
   3   3  11    3.70    2.90 
   3   3  11    3.90    3.10 
   3   3  11    5.30    2.60 
  -4  -3 -11   30.80    7.20 
  -4  -3 -11   21.90    4.40 
   4   3  11   13.50    4.40 
   4   3  11   10.50   44.10 
   4   3  11   24.40    5.00 
   4   3  11   15.30    4.20 
  -5  -3 -11   11.70    2.80 
  -5  -3 -11   10.30    4.50 
  -5  -3 -11   16.80    5.00 
   5   3  11    0.60   36.80 
   5   3  11   16.30    3.60 
   5   3  11   20.10    4.00 
  -6  -3 -11   -1.80    1.50 
  -6  -3 -11   -0.10    1.00 
   6   3  11   -1.30    1.20 
   6   3  11   -2.10   17.50 
  -1   4  11    0.20    3.00 
  -1   4  11    2.40    2.30 
  -1   4  11    6.90   20.90 
  -1   4  11    0.20    1.60 
   0  -4 -11   -1.80    2.60 
   0  -4 -11    0.70    2.20 
   0   4  11   -0.20    1.90 
   0   4  11   -8.00   13.60 
   0   4  11   -0.60    3.50 
   0   4  11    2.00    2.90 
   0   4  11    5.50    3.60 
   0   4  11    0.40    1.70 
  -1  -4 -11   34.70    6.30 
   1   4  11   50.49    9.00 
   1   4  11   -2.50   25.20 
   1   4  11   51.39   10.40 
   1   4  11   57.69    8.80 
   1   4  11   36.00    6.50 
  -2  -4 -11   12.10    4.00 
  -2  -4 -11   10.30    3.50 
  -2  -4 -11   14.40    4.60 
   2   4  11    6.10    3.50 
   2   4  11    1.50   43.00 
   2   4  11   -0.10    4.20 
   2   4  11    8.50    3.80 
   2   4  11    0.60    2.90 
  -3  -4 -11   28.50    6.30 
  -3  -4 -11   16.30    4.00 
  -3  -4 -11   21.60    4.80 
   3   4  11   16.70    5.70 
   3   4  11   11.50    4.80 
   3   4  11   14.90   38.70 
   3   4  11   15.80    4.90 
   3   4  11   22.20    6.60 
  -4  -4 -11    8.30    3.30 
  -4  -4 -11    6.70    3.80 
   4   4  11   -9.00   14.60 
   4   4  11   14.80    5.20 
   4   4  11    9.80    4.10 
   4   4  11   19.40    4.50 
   4   4  11   20.80    5.40 
  -5  -4 -11   11.40    3.50 
  -5  -4 -11   10.70    4.20 
   5   4  11   17.50    4.10 
   5   4  11   -3.00   28.40 
  -6  -4 -11    7.00    2.10 
  -6  -4 -11   19.10    4.60 
   6   4  11   -5.00   21.20 
   1   5  11    7.70    3.20 
   1   5  11    1.70    2.10 
   1   5  11    4.30    3.30 
   1   5  11   17.20    5.30 
  -2  -5 -11   11.90    3.10 
  -2  -5 -11    7.20    3.10 
  -2  -5 -11    4.00    2.50 
   2   5  11    6.10    3.60 
   2   5  11   -4.00   16.90 
   2   5  11    8.20    3.40 
   2   5  11    7.40    3.10 
  -3  -5 -11   12.50    3.60 
  -3  -5 -11   17.70    5.00 
   3   5  11    5.30   30.30 
   3   5  11    6.60    4.30 
   3   5  11   20.40    5.20 
   3   5  11   12.60    4.50 
  -4  -5 -11    7.00    3.20 
  -4  -5 -11    6.00    2.80 
   4   5  11   12.40    4.10 
   4   5  11   12.10   34.20 
   4   5  11   10.10    3.70 
   4   5  11   11.00    3.00 
   4   5  11   15.30    4.60 
  -5  -5 -11    1.40    2.00 
  -5  -5 -11    2.70    2.00 
   5   5  11    5.40    2.40 
   5   5  11   -4.80   15.70 
  -6  -5 -11    9.80    2.30 
  -3  -6 -11    1.90    1.40 
   3   6  11    7.60    2.80 
   3   6  11   -1.20    1.50 
   3   6  11    4.30    2.40 
  -4  -6 -11    7.50    3.00 
  -4  -6 -11    8.90    2.60 
   4   6  11   17.40    4.00 
   4   6  11   16.60    5.30 
   4   6  11    9.50    2.80 
   2   3 -12   34.70    6.10 
  -2  -3  12   35.00    5.70 
   1   3 -12    5.90    2.90 
   1   3 -12    2.70    2.30 
  -1  -3  12    3.50    2.00 
   0   3 -12   55.29    8.50 
   0   3 -12   47.70    7.10 
   0  -3  12   52.29    7.60 
  -1   3 -12    2.70    2.10 
   1  -3  12    8.40    2.90 
  -2   3 -12    4.10    2.20 
  -2   3 -12    6.70    1.90 
   2  -3  12    3.90    1.70 
   3   2 -12   19.70    3.80 
   3   2 -12   18.30    4.00 
  -3  -2  12   22.30    4.40 
  -3  -2  12   10.70    4.10 
   2   2 -12   32.20    6.50 
  -2  -2  12   23.90    5.60 
  -2  -2  12   29.20    4.40 
   1   2 -12   -0.50    1.80 
   1   2 -12    8.40    3.60 
  -1  -2  12   -0.20    1.50 
  -1  -2  12    4.30    2.20 
   0   2 -12    3.70    2.40 
   0   2 -12    0.30    2.00 
   0  -2  12   -2.20    1.50 
   0  -2  12    3.40    2.30 
  -1   2 -12    5.10    3.00 
  -1   2 -12    9.40    4.10 
   1  -2  12    3.30    2.40 
   1  -2  12    4.90    2.90 
  -2   2 -12    3.30    2.70 
  -2   2 -12   12.40    3.20 
   2  -2  12   11.60    3.10 
   2  -2  12    4.40    3.10 
  -3   2 -12   25.10    5.70 
  -3   2 -12   19.50    4.10 
   3  -2  12   21.30    3.60 
   3  -2  12   25.60    4.20 
   3   1 -12   16.30    3.70 
   3   1 -12   12.20    3.30 
   3   1 -12    9.10    2.10 
  -3  -1  12   13.40    3.40 
  -3  -1  12   15.10    3.60 
   2   1 -12    1.30    2.20 
   2   1 -12   -2.70    2.00 
  -2  -1  12    3.80    2.60 
  -2  -1  12   -2.00    3.30 
  -2  -1  12    6.70    2.90 
   1   1 -12   77.99    7.80 
   1   1 -12   77.49   11.60 
   1   1 -12   81.09   10.60 
  -1  -1  12   75.39    9.90 
  -1  -1  12   82.29   11.00 
  -1  -1  12   87.89   15.10 
   0   1 -12   28.40    7.80 
   0   1 -12   16.90    5.20 
   0  -1  12   17.50    4.60 
   0  -1  12   29.10    6.00 
  -1   1 -12   11.90    4.40 
  -1   1 -12   23.10    7.10 
   1  -1  12   11.20    3.50 
   1  -1  12   13.70    4.60 
  -2   1 -12   10.90    5.40 
  -2   1 -12   13.00    3.70 
  -2   1 -12    7.50    3.60 
   2  -1  12   11.50    3.70 
   2  -1  12   12.20    3.50 
  -3   1 -12    1.70    2.70 
  -3   1 -12    4.20    4.40 
   3  -1  12    6.60    2.40 
   3  -1  12    2.00    2.00 
  -4   1 -12    5.70    2.00 
  -4   1 -12    3.50    1.50 
   4  -1  12    3.70    1.60 
   4  -1  12    6.00    2.20 
   3   0 -12    9.40    2.60 
   3   0 -12    7.80    2.80 
  -3   0  12    4.90    9.60 
  -3   0  12    8.40    4.20 
  -3   0  12   11.50    3.00 
  -3   0  12    8.40    2.90 
   2   0 -12    9.10    4.20 
   2   0 -12   11.50    3.10 
  -2   0  12   17.40    4.60 
  -2   0  12  -19.60   18.10 
  -2   0  12    8.90    3.40 
  -2   0  12    6.40    3.90 
  -2   0  12    5.90    3.10 
   1   0 -12    1.80    4.30 
   1   0 -12    7.00    3.10 
   1   0 -12   15.50    5.20 
  -1   0  12   11.40    6.40 
  -1   0  12   14.70    4.60 
  -1   0  12    6.00    4.00 
  -1   0  12    9.90    3.60 
  -1   0  12    0.20   22.30 
   0   0 -12   -1.60    2.30 
   0   0 -12   -3.00    2.20 
   0   0  12    0.60    2.10 
   0   0  12    0.00    5.00 
   0   0  12    9.40   28.50 
   0   0  12    1.70    2.40 
   0   0  12    1.60    2.60 
  -1   0 -12   12.00    3.00 
  -1   0 -12   11.40    5.10 
   1   0  12    6.70   27.10 
   1   0  12   12.70    4.20 
   1   0  12    7.90    3.70 
   1   0  12   15.20    4.10 
  -2   0 -12   30.90    6.70 
  -2   0 -12   25.90    6.60 
  -2   0 -12   32.70    8.80 
   2   0  12   29.90    6.10 
   2   0  12   21.90    5.30 
   2   0  12   -3.80   29.50 
  -3   0 -12    7.50    3.20 
  -3   0 -12    4.80    2.50 
   3   0  12    4.10    1.90 
   3   0  12   24.60   49.70 
   3   0  12    2.50    2.40 
  -4   0 -12    1.90    2.10 
  -4   0 -12    2.40    1.50 
   4   0  12   -1.90    1.70 
   4   0  12   -1.00    1.70 
  -5   0 -12   -0.40    1.00 
   5   0  12    1.60    1.20 
   2  -1 -12   25.40    5.20 
   2  -1 -12   20.00    4.20 
  -2   1  12   31.50    5.20 
  -2   1  12   -8.80   19.60 
  -2   1  12   34.90    5.70 
  -2   1  12   26.40    5.70 
  -2   1  12   38.00    7.50 
   1  -1 -12    4.50    2.50 
   1  -1 -12    9.80    3.40 
   1  -1 -12    3.10    2.70 
  -1   1  12    4.80    3.30 
  -1   1  12    5.90    4.10 
  -1   1  12    0.90    2.70 
  -1   1  12    8.20    3.30 
  -1   1  12    3.20    2.70 
   0  -1 -12   27.60    7.20 
   0  -1 -12   24.80    5.20 
   0  -1 -12   25.70    4.90 
   0   1  12   20.50    5.00 
   0   1  12   23.80    5.90 
   0   1  12   22.10    5.80 
   0   1  12   25.70    7.60 
  -1  -1 -12   37.00    9.00 
   1   1  12   40.00    6.60 
   1   1  12   28.60    6.60 
   1   1  12   22.20    6.60 
   1   1  12   34.10    8.20 
   1   1  12   21.20    5.40 
   1   1  12    6.50   38.20 
  -2  -1 -12   25.80    5.60 
  -2  -1 -12   16.80    3.40 
  -2  -1 -12   16.00    6.00 
   2   1  12  -30.60   25.70 
   2   1  12   20.80    5.30 
   2   1  12   17.10    5.50 
  -3  -1 -12   31.60    6.60 
  -3  -1 -12   28.90    7.50 
   3   1  12   19.40   34.50 
   3   1  12   19.50    4.40 
  -4  -1 -12   59.09    9.30 
  -4  -1 -12   52.79    8.50 
   4   1  12   58.19    7.60 
  -5  -1 -12    5.10    2.60 
   5   1  12    3.80    1.80 
   5   1  12   14.00   33.70 
   2  -2 -12   -0.30    1.80 
   2  -2 -12    1.10    1.50 
  -2   2  12    1.80    3.30 
  -2   2  12    1.30   10.10 
  -2   2  12   -1.00    2.60 
   1  -2 -12    5.20    2.40 
   1  -2 -12    2.10    2.30 
  -1   2  12    7.30    3.60 
  -1   2  12    0.60    2.30 
  -1   2  12    4.50    2.80 
  -1   2  12   -0.70    2.90 
  -1   2  12    4.00   27.90 
   0  -2 -12    7.80    3.70 
   0  -2 -12    1.70    3.30 
   0  -2 -12   12.20    3.50 
   0   2  12    6.90    5.40 
   0   2  12    8.90    3.70 
   0   2  12    7.20    3.40 
   0   2  12    8.00    4.00 
   0   2  12    1.10   26.80 
  -1  -2 -12   10.50    3.40 
  -1  -2 -12    7.00    4.00 
  -1  -2 -12    9.00    4.00 
   1   2  12    5.90    4.10 
   1   2  12   12.80    4.00 
   1   2  12    6.80    3.10 
   1   2  12   15.90    6.00 
  -2  -2 -12   14.10    4.60 
  -2  -2 -12   15.70    4.40 
  -2  -2 -12   14.50    5.50 
  -2  -2 -12   18.80    3.90 
   2   2  12   16.10    4.50 
   2   2  12   13.60    5.10 
   2   2  12   15.10    4.70 
   2   2  12    4.90    5.80 
   2   2  12   -2.90   25.40 
  -3  -2 -12   15.60    4.20 
  -3  -2 -12   11.90    3.20 
  -3  -2 -12   14.40    5.40 
   3   2  12    0.50    4.20 
   3   2  12   14.90    4.00 
   3   2  12  -39.90   26.00 
   3   2  12   12.60    5.00 
  -4  -2 -12    2.10    2.40 
  -4  -2 -12    4.60    3.20 
   4   2  12    5.70    2.30 
   4   2  12   11.00   31.10 
  -5  -2 -12   -2.60    1.90 
  -5  -2 -12    4.20    2.10 
   5   2  12   -8.10   11.70 
   5   2  12    5.10    1.90 
   1  -3 -12   -1.20    1.80 
  -1   3  12    1.50    1.40 
  -1   3  12    1.50    2.10 
  -1   3  12    0.30   14.00 
  -1   3  12   -0.30    2.20 
  -1   3  12    0.60    2.30 
   0  -3 -12    5.80    2.80 
   0  -3 -12   12.10    3.60 
   0  -3 -12    8.30    3.40 
   0   3  12    6.60    5.30 
   0   3  12    8.60    3.80 
   0   3  12    9.20    3.10 
   0   3  12   11.00    4.50 
  -1  -3 -12    9.90    3.40 
  -1  -3 -12    4.80    3.20 
   1   3  12    8.10    4.40 
   1   3  12   -3.80    9.80 
   1   3  12   13.00    4.50 
   1   3  12    7.80    3.00 
   1   3  12   13.00    4.10 
   1   3  12    5.60    4.00 
  -2  -3 -12   14.20    4.00 
  -2  -3 -12   15.80    3.60 
  -2  -3 -12   27.60    7.00 
   2   3  12   10.70    3.50 
   2   3  12   11.40    4.80 
   2   3  12   -0.40    6.70 
   2   3  12   18.00    4.60 
   2   3  12   14.80    4.60 
   2   3  12    9.60    4.20 
  -3  -3 -12   21.20    4.60 
  -3  -3 -12   27.80    4.50 
   3   3  12   -6.70   24.50 
   3   3  12   24.20    4.90 
   3   3  12   18.50    5.00 
   3   3  12   13.80    6.50 
   3   3  12   21.90    5.50 
   3   3  12   28.10    6.20 
  -4  -3 -12    0.90    2.30 
  -4  -3 -12    4.40    2.80 
  -4  -3 -12    1.10    2.60 
   4   3  12   -0.90    2.60 
   4   3  12  -11.20   29.30 
   4   3  12    3.90    2.10 
  -5  -3 -12   14.40    3.60 
  -5  -3 -12    3.90    3.30 
   5   3  12    6.80    2.10 
   5   3  12    5.50   17.30 
   0   4  12    3.40    2.00 
   0   4  12   -0.10    2.60 
   0   4  12   -0.50    2.20 
   0   4  12    7.30   19.40 
  -1  -4 -12   12.50    2.60 
   1   4  12   -0.90   20.60 
   1   4  12   15.10    4.60 
   1   4  12   17.20    4.70 
   1   4  12   12.70    4.80 
   1   4  12   10.10    3.30 
  -2  -4 -12    4.00    2.40 
  -2  -4 -12    0.70    3.00 
  -2  -4 -12    4.40    2.40 
   2   4  12   -2.00    2.00 
   2   4  12   -1.00    1.50 
   2   4  12    2.60    3.30 
   2   4  12    3.40    2.90 
   2   4  12   -6.10    9.20 
  -3  -4 -12    0.50    1.70 
  -3  -4 -12    7.50    2.60 
   3   4  12    3.30    2.20 
   3   4  12    4.50   23.90 
   3   4  12   -0.20    3.20 
   3   4  12    1.60    1.90 
   3   4  12    1.50    2.70 
  -4  -4 -12    7.50    2.30 
  -4  -4 -12    4.90    2.70 
  -4  -4 -12   11.20    3.70 
   4   4  12    0.60    4.90 
   4   4  12   14.40    4.10 
   4   4  12   12.90    4.30 
   4   4  12  -15.60   17.00 
  -5  -4 -12   13.30    3.40 
   5   4  12    7.30   23.20 
  -2  -5 -12   -0.80    2.70 
   2   5  12    7.80    2.80 
   2   5  12    2.50    2.10 
   2   5  12    8.00   19.60 
   2   5  12    2.90    1.70 
  -3  -5 -12    5.70    2.30 
  -3  -5 -12    5.90    1.80 
   3   5  12   -2.10   16.20 
   3   5  12    7.60    2.90 
   3   5  12    5.40    3.00 
   3   5  12    1.40    3.10 
   3   5  12    4.30    2.10 
  -4  -5 -12   35.40    4.30 
  -4  -5 -12   38.10    7.40 
   4   5  12   25.40    5.10 
   4   5  12   49.30    7.40 
   1   2 -13   12.10    3.50 
   1   2 -13   16.10    3.80 
  -1  -2  13    9.10    2.50 
  -1  -2  13    7.80    2.80 
   0   2 -13   24.30    5.30 
   0   2 -13   21.00    4.50 
   0  -2  13   16.80    4.00 
   0  -2  13   25.00    4.20 
  -1   2 -13   14.60    3.90 
  -1   2 -13   18.90    4.10 
   1  -2  13   19.30    3.80 
   1  -2  13   18.10    4.10 
  -2   2 -13    0.80    1.10 
   2  -2  13    0.60    1.40 
   2  -2  13   -1.20    1.10 
   2   1 -13    7.20    3.40 
   2   1 -13    9.10    2.30 
  -2  -1  13    6.10    2.30 
  -2  -1  13    7.50    2.70 
   1   1 -13   -2.50    2.20 
   1   1 -13   -1.00    2.50 
   1   1 -13    3.30    2.40 
  -1  -1  13    6.50    2.50 
  -1  -1  13    3.40    2.10 
   0   1 -13   12.50    3.60 
   0   1 -13   14.80    3.80 
   0  -1  13   10.60    3.60 
   0  -1  13    5.30    2.50 
  -1   1 -13   11.30    3.70 
  -1   1 -13   19.90    5.80 
   1  -1  13   17.20    4.00 
   1  -1  13   11.60    3.00 
  -2   1 -13    4.10    2.40 
  -2   1 -13    3.80    2.10 
   2  -1  13    0.70    1.70 
   2  -1  13    1.70    1.90 
  -3   1 -13    0.90    1.50 
  -3   1 -13    0.30    1.50 
   3  -1  13    0.50    1.40 
   3  -1  13    3.60    1.60 
   2   0 -13    4.00    2.00 
   2   0 -13    2.40    1.50 
  -2   0  13    5.20    1.90 
  -2   0  13    3.40    3.60 
  -2   0  13    0.40    2.20 
   1   0 -13   16.60    3.50 
   1   0 -13   19.00    4.90 
   1   0 -13   19.80    4.10 
  -1   0  13   14.00    4.80 
  -1   0  13   17.70    4.00 
  -1   0  13   -0.90   13.20 
   0   0 -13   11.20    2.50 
   0   0 -13   11.20    4.00 
   0   0 -13   19.60    5.30 
   0   0  13   10.20    3.20 
   0   0  13    8.00   21.10 
   0   0  13   16.60    5.30 
   0   0  13    6.20    3.00 
  -1   0 -13   36.70    8.30 
  -1   0 -13   18.70    6.20 
   1   0  13   14.30   35.40 
   1   0  13   34.20    5.70 
   1   0  13   26.60    5.30 
  -2   0 -13    3.60    3.30 
  -2   0 -13    6.10    2.40 
  -2   0 -13    6.30    3.60 
   2   0  13    1.40    1.90 
   2   0  13    2.10    2.10 
   2   0  13   -5.60   23.60 
  -3   0 -13    2.20    2.10 
  -3   0 -13    5.70    2.50 
   3   0  13    6.40    2.30 
   3   0  13    2.40    2.40 
  -4   0 -13    4.30    1.70 
  -4   0 -13    4.70    2.30 
   4   0  13    2.60    1.50 
   1  -1 -13    5.20    2.70 
  -1   1  13   17.10    4.70 
  -1   1  13    6.70   17.40 
  -1   1  13    8.70    2.90 
  -1   1  13   11.90    3.80 
   0  -1 -13   22.30    5.30 
   0   1  13   19.10    5.40 
   0   1  13   15.30    4.70 
   0   1  13    7.30   29.80 
   0   1  13   18.90    6.30 
  -1  -1 -13    1.40    2.30 
   1   1  13    0.50    2.10 
   1   1  13   -0.50    2.10 
   1   1  13   -2.50    5.10 
   1   1  13    2.00   21.40 
  -2  -1 -13   49.50    8.80 
  -2  -1 -13   43.00    6.40 
  -2  -1 -13   47.60    7.60 
   2   1  13   47.70    7.20 
  -3  -1 -13   11.10    5.40 
   3   1  13   11.30    3.50 
   3   1  13  -25.10   15.70 
  -4  -1 -13    6.10    2.20 
  -4  -1 -13    2.10    1.90 
   4   1  13    1.00   23.30 
   4   1  13    3.30    1.80 
   1  -2 -13    2.60    1.60 
   1  -2 -13    1.60    1.60 
  -1   2  13    1.10    2.80 
  -1   2  13   14.10   20.60 
  -1   2  13    2.40    2.20 
  -1   2  13    3.10    1.60 
  -1   2  13    1.60    1.50 
   0  -2 -13   14.90    3.90 
   0   2  13   15.30    4.70 
   0   2  13   11.40    3.50 
   0   2  13   10.00    3.30 
   0   2  13    9.70    3.60 
   0   2  13   -6.20   12.70 
  -1  -2 -13   65.19    7.90 
  -1  -2 -13   63.49    9.30 
   1   2  13   44.80   10.40 
   1   2  13   56.69    8.70 
   1   2  13   49.90    8.10 
   1   2  13   58.29   10.10 
  -2  -2 -13   11.30    4.70 
   2   2  13  -12.40   10.90 
   2   2  13    6.50    3.80 
   2   2  13    3.50    3.70 
  -3  -2 -13   11.80    3.20 
  -3  -2 -13    2.60    4.10 
   3   2  13   14.10    3.90 
  -4  -2 -13    3.80    2.10 
  -4  -2 -13    3.90    2.30 
   4   2  13    0.20    9.50 
   4   2  13    2.60    1.70 
  -5  -2 -13    2.50    1.50 
   5   2  13    7.50    1.90 
   5   2  13   -0.90   27.20 
   0   3  13    3.50    2.20 
   0   3  13    1.40    2.20 
   0   3  13    1.50    1.60 
   0   3  13  -12.20   15.00 
   0   3  13    0.30    3.00 
  -1  -3 -13    9.60    3.70 
   1   3  13    8.90    3.00 
   1   3  13   11.50    3.70 
   1   3  13    8.30    3.00 
   1   3  13    5.80    3.20 
  -2  -3 -13    6.50    2.70 
  -2  -3 -13   18.70    5.00 
   2   3  13    8.90    3.30 
   2   3  13   13.00    5.30 
   2   3  13   12.80    4.30 
   2   3  13    1.90   21.10 
  -3  -3 -13    0.20    1.90 
  -3  -3 -13    1.70    1.80 
  -3  -3 -13   -0.10    1.60 
   3   3  13   -2.60    1.60 
   3   3  13   -0.70    1.50 
   3   3  13  -10.40   16.50 
  -4  -3 -13    6.20    2.50 
  -4  -3 -13    5.90    2.40 
   4   3  13    1.00    1.50 
   4   3  13   -7.70   23.10 
  -2  -4 -13    1.00    1.70 
  -2  -4 -13    1.10    1.60 
   2   4  13    4.90    2.70 
   2   4  13    5.30    3.00 
   2   4  13    1.70    2.70 
   2   4  13   -1.30   11.90 
  -3  -4 -13    6.20    2.00 
   3   4  13   -8.80    9.60 
   3   4  13   10.40    3.30 
   3   4  13    9.60    3.00 
  -4  -4 -13   35.70    4.50 
  -4  -4 -13   31.20    5.20 
   4   4  13   26.40    5.60 
   4   4  13   16.80   36.90 
   0   1 -14   17.10    3.00 
   0   1 -14   11.00    2.90 
   0  -1  14   13.60    2.70 
   0  -1  14   13.50    2.80 
  -1   1 -14    0.30    1.30 
   1  -1  14    0.90    1.70 
   1  -1  14   -1.40    1.10 
   0   0 -14    4.20    2.00 
   0   0 -14    5.80    1.90 
   0   0  14    3.20    1.90 
  -1   0 -14    4.40    2.10 
  -1   0 -14    3.30    1.70 
   1   0  14    3.20    2.10 
  -2   0 -14    2.30    1.70 
   2   0  14    5.70    2.10 
   0  -1 -14    0.80    1.80 
   0  -1 -14    4.40    2.40 
   0   1  14   -2.30   12.50 
   0   1  14    2.90    1.60 
  -1  -1 -14   10.30    3.10 
   1   1  14    3.10   19.50 
  -2  -1 -14   18.60    4.50 
  -2  -1 -14    9.00    3.10 
   2   1  14    6.70   30.10 
  -3  -1 -14    3.90    2.00 
   3   1  14    2.60    1.60 
  -1  -2 -14    5.10    1.60 
  -1  -2 -14    2.90    1.80 
  -1  -2 -14    4.30    2.50 
   1   2  14    5.20    2.30 
   1   2  14  -11.90   14.80 
   1   2  14    6.20    2.70 
  -2  -2 -14   32.10    5.00 
   2   2  14   48.70    5.90 
   2   2  14    2.70   18.20 
   3   2  14   -2.70   18.00 
   0   0   0    0.00    0.00 
  
_computing_structure_solution     'SHELXT 2014/5 (Sheldrick, 2014)' 
;
_shelx_hkl_checksum              35841
loop_
_space_group_symop_operation_xyz
'x, y, z'
loop_
_atom_site_label
_atom_site_type_symbol
_atom_site_fract_x
_atom_site_fract_y
_atom_site_fract_z
_atom_site_U_iso_or_equiv
_atom_site_adp_type
_atom_site_occupancy
_atom_site_site_symmetry_order
_atom_site_calc_flag
_atom_site_refinement_flags_posn
_atom_site_refinement_flags_adp
O1 O 1.0583(6) -0.2389(6) 0.7076(4) 0.1018(14) Uani 1 1 d . .
O2 O 0.8202(4) 0.0460(5) 0.6297(2) 0.0655(7) Uani 1 1 d . .
O3 O 0.0086(6) 0.2441(8) 0.8308(4) 0.1004(13) Uani 1 1 d . .
N1 N 0.7828(7) -0.0451(8) 0.9306(3) 0.0759(11) Uani 1 1 d . .
C1 C 0.8821(7) -0.0908(6) 0.7182(4) 0.0654(10) Uani 1 1 d . .
C2 C 0.7040(7) -0.0315(6) 0.8233(3) 0.0591(9) Uani 1 1 d . .
C3 C 0.5609(6) 0.2038(6) 0.7939(3) 0.0526(8) Uani 1 1 d . .
H3 H 0.6196 0.2914 0.8223 0.063 Uiso 1 1 calc R U
C4 C 0.6022(6) 0.2192(6) 0.6626(3) 0.0549(9) Uani 1 1 d . .
C5 C 0.4479(8) 0.1783(7) 0.6067(4) 0.0669(10) Uani 1 1 d . .
H5 H 0.4882 0.1420 0.5296 0.080 Uiso 1 1 calc R U
C6 C 0.2581(8) 0.1908(8) 0.6605(4) 0.0749(12) Uani 1 1 d . .
H6 H 0.1690 0.1672 0.6192 0.090 Uiso 1 1 calc R U
C7 C 0.1824(7) 0.2401(7) 0.7824(4) 0.0708(11) Uani 1 1 d . .
C8 C 0.3204(6) 0.2924(7) 0.8444(4) 0.0623(10) Uani 1 1 d . .
H8A H 0.3066 0.2392 0.9231 0.075 Uiso 1 1 calc R U
H8B H 0.2634 0.4468 0.8471 0.075 Uiso 1 1 calc R U
C9 C 0.5945(9) -0.1823(7) 0.8318(5) 0.0789(13) Uani 1 1 d . .
H9A H 0.6965 -0.3255 0.8474 0.118 Uiso 1 1 calc R U
H9B H 0.5462 -0.1782 0.7604 0.118 Uiso 1 1 calc R U
H9C H 0.4720 -0.1382 0.8928 0.118 Uiso 1 1 calc R U
C10 C 0.6155(8) 0.4253(7) 0.6145(4) 0.0731(12) Uani 1 1 d . .
H10A H 0.7275 0.4411 0.6439 0.110 Uiso 1 1 calc R U
H10B H 0.4786 0.5447 0.6371 0.110 Uiso 1 1 calc R U
H10C H 0.6489 0.4201 0.5321 0.110 Uiso 1 1 calc R U
O4 O 0.6354(7) 0.2236(6) 0.2934(4) 0.1007(13) Uani 1 1 d . .
O5 O 0.3275(5) 0.4797(4) 0.3730(2) 0.0656(8) Uani 1 1 d . .
O6 O 0.1753(8) 1.2372(5) 0.1707(4) 0.0995(13) Uani 1 1 d . .
N2 N 0.4985(10) 0.4463(7) 0.0707(4) 0.0814(12) Uani 1 1 d . .
C11 C 0.4874(7) 0.3973(6) 0.2839(4) 0.0664(10) Uani 1 1 d . .
C12 C 0.4544(7) 0.5470(6) 0.1798(4) 0.0590(9) Uani 1 1 d . .
C13 C 0.2097(6) 0.6941(5) 0.2093(3) 0.0530(8) Uani 1 1 d . .
H13 H 0.1313 0.6252 0.1814 0.064 Uiso 1 1 calc R U
C14 C 0.1600(6) 0.6894(5) 0.3404(3) 0.0554(9) Uani 1 1 d . .
C15 C 0.1868(7) 0.8588(6) 0.3962(4) 0.0646(10) Uani 1 1 d . .
H15 H 0.2045 0.8394 0.4730 0.078 Uiso 1 1 calc R U
C16 C 0.1864(9) 1.0348(7) 0.3411(4) 0.0744(12) Uani 1 1 d . .
H16 H 0.1990 1.1358 0.3814 0.089 Uiso 1 1 calc R U
C17 C 0.1671(8) 1.0756(6) 0.2203(4) 0.0688(11) Uani 1 1 d . .
C18 C 0.1298(7) 0.9211(6) 0.1588(4) 0.0614(10) Uani 1 1 d . .
H18A H 0.2012 0.9150 0.0796 0.074 Uiso 1 1 calc R U
H18B H -0.0250 0.9759 0.1582 0.074 Uiso 1 1 calc R U
C19 C 0.6052(8) 0.6566(8) 0.1732(5) 0.0759(12) Uani 1 1 d . .
H19A H 0.7537 0.5522 0.1580 0.114 Uiso 1 1 calc R U
H19B H 0.5795 0.7236 0.2450 0.114 Uiso 1 1 calc R U
H19C H 0.5772 0.7630 0.1125 0.114 Uiso 1 1 calc R U
C20 C -0.0578(8) 0.6893(8) 0.3909(5) 0.0754(12) Uani 1 1 d . .
H20A H -0.0654 0.5672 0.3644 0.113 Uiso 1 1 calc R U
H20B H -0.1723 0.8177 0.3671 0.113 Uiso 1 1 calc R U
H20C H -0.0738 0.6829 0.4733 0.113 Uiso 1 1 calc R U
H2A H 0.422(11) 0.352(11) 0.080(5) 0.097(18) Uiso 1 1 d . .
H1A H 0.889(15) -0.184(14) 0.939(7) 0.12(2) Uiso 1 1 d . .
H1B H 0.890(14) 0.015(12) 0.920(7) 0.12(2) Uiso 1 1 d . .
H2B H 0.625(15) 0.405(14) 0.049(8) 0.12(3) Uiso 1 1 d . .
loop_
_atom_site_aniso_label
_atom_site_aniso_U_11
_atom_site_aniso_U_22
_atom_site_aniso_U_33
_atom_site_aniso_U_23
_atom_site_aniso_U_13
_atom_site_aniso_U_12
O1 0.075(2) 0.083(2) 0.092(3) 0.0063(19) -0.0012(18) 0.0104(19)
O2 0.0576(15) 0.0635(16) 0.0588(15) 0.0000(12) -0.0017(12) -0.0141(13)
O3 0.0600(19) 0.129(3) 0.117(3) -0.003(2) -0.0073(19) -0.047(2)
N1 0.074(2) 0.083(3) 0.060(2) 0.0103(18) -0.0171(17) -0.024(2)
C1 0.057(2) 0.057(2) 0.065(2) 0.0014(17) -0.0077(18) -0.0102(19)
C2 0.062(2) 0.0516(19) 0.057(2) 0.0043(16) -0.0095(16) -0.0190(18)
C3 0.0477(18) 0.0497(18) 0.058(2) -0.0041(15) -0.0071(15) -0.0189(15)
C4 0.0462(17) 0.0468(18) 0.064(2) 0.0017(15) -0.0090(15) -0.0132(15)
C5 0.072(3) 0.067(2) 0.064(2) 0.0030(18) -0.0216(19) -0.029(2)
C6 0.071(3) 0.085(3) 0.081(3) 0.001(2) -0.030(2) -0.039(2)
C7 0.052(2) 0.069(2) 0.090(3) 0.003(2) -0.014(2) -0.025(2)
C8 0.052(2) 0.062(2) 0.068(2) -0.0038(17) -0.0076(17) -0.0202(18)
C9 0.091(3) 0.053(2) 0.088(3) 0.008(2) -0.012(3) -0.029(2)
C10 0.072(3) 0.058(2) 0.089(3) 0.014(2) -0.014(2) -0.030(2)
O4 0.090(2) 0.0647(19) 0.098(3) 0.0151(17) -0.006(2) 0.0053(18)
O5 0.0742(18) 0.0468(13) 0.0607(16) 0.0065(11) -0.0089(14) -0.0144(13)
O6 0.134(3) 0.0536(17) 0.112(3) 0.0116(17) -0.011(2) -0.047(2)
N2 0.097(3) 0.065(2) 0.064(2) -0.0104(17) 0.006(2) -0.024(2)
C11 0.069(2) 0.0476(19) 0.068(2) 0.0060(17) -0.009(2) -0.0135(19)
C12 0.061(2) 0.0480(18) 0.059(2) -0.0018(15) -0.0051(17) -0.0167(17)
C13 0.059(2) 0.0410(16) 0.060(2) 0.0000(14) -0.0139(16) -0.0208(15)
C14 0.059(2) 0.0374(16) 0.062(2) 0.0018(14) -0.0068(16) -0.0150(15)
C15 0.078(3) 0.054(2) 0.057(2) -0.0077(16) -0.0066(18) -0.0245(19)
C16 0.093(3) 0.059(2) 0.078(3) -0.014(2) -0.008(2) -0.039(2)
C17 0.078(3) 0.0429(18) 0.082(3) 0.0007(17) -0.007(2) -0.0251(19)
C18 0.064(2) 0.0476(19) 0.065(2) 0.0059(16) -0.0141(18) -0.0177(17)
C19 0.062(2) 0.075(3) 0.086(3) 0.003(2) -0.006(2) -0.028(2)
C20 0.068(3) 0.068(2) 0.085(3) 0.002(2) 0.001(2) -0.030(2)
loop_
_atom_type_symbol
_atom_type_description
_atom_type_scat_dispersion_real
_atom_type_scat_dispersion_imag
_atom_type_scat_source
C C 0.0181 0.0091 'International Tables Vol C Tables 4.2.6.8 and 6.1.1.4'
H H 0.0000 0.0000 'International Tables Vol C Tables 4.2.6.8 and 6.1.1.4'
N N 0.0311 0.0180 'International Tables Vol C Tables 4.2.6.8 and 6.1.1.4'
O O 0.0492 0.0322 'International Tables Vol C Tables 4.2.6.8 and 6.1.1.4'
loop_
_geom_angle_atom_site_label_1
_geom_angle_atom_site_label_2
_geom_angle_atom_site_label_3
_geom_angle
C1 O2 C4 111.1(3)
C2 N1 H1A 108(5)
C2 N1 H1B 110(5)
H1A N1 H1B 93(7)
O1 C1 O2 120.1(4)
O1 C1 C2 128.2(4)
O2 C1 C2 111.6(3)
N1 C2 C1 113.7(4)
N1 C2 C9 108.8(4)
C1 C2 C9 108.2(4)
N1 C2 C3 110.1(3)
C1 C2 C3 100.8(3)
C9 C2 C3 115.1(4)
C8 C3 C4 113.0(3)
C8 C3 C2 117.1(3)
C4 C3 C2 104.9(3)
C8 C3 H3 107.1
C4 C3 H3 107.1
C2 C3 H3 107.1
O2 C4 C5 107.5(3)
O2 C4 C10 106.2(3)
C5 C4 C10 110.2(3)
O2 C4 C3 104.1(3)
C5 C4 C3 113.9(3)
C10 C4 C3 114.3(3)
C6 C5 C4 123.8(4)
C6 C5 H5 118.1
C4 C5 H5 118.1
C5 C6 C7 122.4(4)
C5 C6 H6 118.8
C7 C6 H6 118.8
O3 C7 C6 121.0(4)
O3 C7 C8 121.2(5)
C6 C7 C8 117.8(4)
C7 C8 C3 116.0(4)
C7 C8 H8A 108.3
C3 C8 H8A 108.3
C7 C8 H8B 108.3
C3 C8 H8B 108.3
H8A C8 H8B 107.4
C2 C9 H9A 109.5
C2 C9 H9B 109.5
H9A C9 H9B 109.5
C2 C9 H9C 109.5
H9A C9 H9C 109.5
H9B C9 H9C 109.5
C4 C10 H10A 109.5
C4 C10 H10B 109.5
H10A C10 H10B 109.5
C4 C10 H10C 109.5
H10A C10 H10C 109.5
H10B C10 H10C 109.5
C11 O5 C14 110.6(3)
C12 N2 H2A 108(4)
C12 N2 H2B 106(6)
H2A N2 H2B 123(7)
O4 C11 O5 120.0(4)
O4 C11 C12 128.0(4)
O5 C11 C12 112.0(3)
N2 C12 C11 115.3(4)
N2 C12 C19 108.1(4)
C11 C12 C19 107.7(4)
N2 C12 C13 109.6(4)
C11 C12 C13 100.9(3)
C19 C12 C13 115.3(3)
C18 C13 C14 112.6(3)
C18 C13 C12 117.3(3)
C14 C13 C12 104.7(3)
C18 C13 H13 107.3
C14 C13 H13 107.3
C12 C13 H13 107.3
O5 C14 C15 107.2(3)
O5 C14 C20 106.2(3)
C15 C14 C20 109.5(3)
O5 C14 C13 103.7(3)
C15 C14 C13 114.2(3)
C20 C14 C13 115.2(4)
C16 C15 C14 123.1(4)
C16 C15 H15 118.5
C14 C15 H15 118.5
C15 C16 C17 122.4(4)
C15 C16 H16 118.8
C17 C16 H16 118.8
O6 C17 C16 120.7(4)
O6 C17 C18 121.0(4)
C16 C17 C18 118.3(3)
C17 C18 C13 115.5(3)
C17 C18 H18A 108.4
C13 C18 H18A 108.4
C17 C18 H18B 108.4
C13 C18 H18B 108.4
H18A C18 H18B 107.5
C12 C19 H19A 109.5
C12 C19 H19B 109.5
H19A C19 H19B 109.5
C12 C19 H19C 109.5
H19A C19 H19C 109.5
H19B C19 H19C 109.5
C14 C20 H20A 109.5
C14 C20 H20B 109.5
H20A C20 H20B 109.5
C14 C20 H20C 109.5
H20A C20 H20C 109.5
H20B C20 H20C 109.5
loop_
_geom_bond_atom_site_label_1
_geom_bond_atom_site_label_2
_geom_bond_distance
O1 C1 1.198(5)
O2 C1 1.342(5)
O2 C4 1.472(5)
O3 C7 1.222(6)
N1 C2 1.455(6)
N1 H1A 0.93(9)
N1 H1B 0.98(8)
C1 C2 1.522(6)
C2 C9 1.526(6)
C2 C3 1.543(5)
C3 C8 1.521(5)
C3 C4 1.529(5)
C3 H3 0.9800
C4 C5 1.495(6)
C4 C10 1.522(5)
C5 C6 1.318(7)
C5 H5 0.9300
C6 C7 1.460(7)
C6 H6 0.9300
C7 C8 1.488(6)
C8 H8A 0.9700
C8 H8B 0.9700
C9 H9A 0.9600
C9 H9B 0.9600
C9 H9C 0.9600
C10 H10A 0.9600
C10 H10B 0.9600
C10 H10C 0.9600
O4 C11 1.207(5)
O5 C11 1.339(5)
O5 C14 1.483(4)
O6 C17 1.233(5)
N2 C12 1.450(6)
N2 H2A 0.99(7)
N2 H2B 0.79(9)
C11 C12 1.515(6)
C12 C19 1.527(7)
C12 C13 1.541(5)
C13 C18 1.525(5)
C13 C14 1.526(5)
C13 H13 0.9800
C14 C15 1.501(5)
C14 C20 1.515(6)
C15 C16 1.327(6)
C15 H15 0.9300
C16 C17 1.450(7)
C16 H16 0.9300
C17 C18 1.491(6)
C18 H18A 0.9700
C18 H18B 0.9700
C19 H19A 0.9600
C19 H19B 0.9600
C19 H19C 0.9600
C20 H20A 0.9600
C20 H20B 0.9600
C20 H20C 0.9600
loop_
_geom_hbond_atom_site_label_D
_geom_hbond_atom_site_label_H
_geom_hbond_atom_site_label_A
_geom_hbond_distance_DH
_geom_hbond_distance_HA
_geom_hbond_distance_DA
_geom_hbond_angle_DHA
_geom_hbond_site_symmetry_A
N1 H1B O3 0.98(8) 2.19(8) 3.075(6) 149(6) 1_655
N2 H2A O6 0.99(7) 2.25(7) 3.165(7) 154(5) 1_545
C18 H18B O4 0.97 2.58 3.318(6) 133.0 1_465
C13 H13 O6 0.98 2.59 3.368(5) 136.2 1_545
C10 H10B O1 0.96 2.64 3.550(6) 159.4 1_465
C8 H8B O1 0.97 2.64 3.380(5) 133.2 1_465
C3 H3 O3 0.98 2.59 3.347(5) 134.1 1_655
loop_
_geom_torsion_atom_site_label_1
_geom_torsion_atom_site_label_2
_geom_torsion_atom_site_label_3
_geom_torsion_atom_site_label_4
_geom_torsion
C4 O2 C1 O1 -178.0(5)
C4 O2 C1 C2 2.9(5)
O1 C1 C2 N1 44.6(7)
O2 C1 C2 N1 -136.4(4)
O1 C1 C2 C9 -76.4(7)
O2 C1 C2 C9 102.6(4)
O1 C1 C2 C3 162.4(5)
O2 C1 C2 C3 -18.6(5)
N1 C2 C3 C8 -87.3(4)
C1 C2 C3 C8 152.3(4)
C9 C2 C3 C8 36.1(5)
N1 C2 C3 C4 146.6(3)
C1 C2 C3 C4 26.2(4)
C9 C2 C3 C4 -90.0(4)
C1 O2 C4 C5 -106.6(4)
C1 O2 C4 C10 135.5(4)
C1 O2 C4 C3 14.5(4)
C8 C3 C4 O2 -154.1(3)
C2 C3 C4 O2 -25.5(4)
C8 C3 C4 C5 -37.4(4)
C2 C3 C4 C5 91.2(4)
C8 C3 C4 C10 90.5(4)
C2 C3 C4 C10 -140.9(4)
O2 C4 C5 C6 134.0(5)
C10 C4 C5 C6 -110.7(5)
C3 C4 C5 C6 19.3(6)
C4 C5 C6 C7 -1.9(8)
C5 C6 C7 O3 -177.7(5)
C5 C6 C7 C8 4.3(7)
O3 C7 C8 C3 157.6(5)
C6 C7 C8 C3 -24.4(6)
C4 C3 C8 C7 40.8(5)
C2 C3 C8 C7 -81.2(5)
C14 O5 C11 O4 -177.8(5)
C14 O5 C11 C12 2.8(5)
O4 C11 C12 N2 43.5(8)
O5 C11 C12 N2 -137.2(5)
O4 C11 C12 C19 -77.3(6)
O5 C11 C12 C19 102.0(4)
O4 C11 C12 C13 161.5(5)
O5 C11 C12 C13 -19.2(5)
N2 C12 C13 C18 -85.2(4)
C11 C12 C13 C18 152.8(3)
C19 C12 C13 C18 37.0(5)
N2 C12 C13 C14 149.3(3)
C11 C12 C13 C14 27.2(4)
C19 C12 C13 C14 -88.6(4)
C11 O5 C14 C15 -106.0(4)
C11 O5 C14 C20 137.0(4)
C11 O5 C14 C13 15.2(4)
C18 C13 C14 O5 -154.9(3)
C12 C13 C14 O5 -26.4(4)
C18 C13 C14 C15 -38.6(5)
C12 C13 C14 C15 89.9(4)
C18 C13 C14 C20 89.5(4)
C12 C13 C14 C20 -142.0(3)
O5 C14 C15 C16 134.3(5)
C20 C14 C15 C16 -110.9(5)
C13 C14 C15 C16 19.9(6)
C14 C15 C16 C17 -2.1(8)
C15 C16 C17 O6 -177.3(5)
C15 C16 C17 C18 4.7(7)
O6 C17 C18 C13 156.8(5)
C16 C17 C18 C13 -25.3(6)
C14 C13 C18 C17 41.8(5)
C12 C13 C18 C17 -79.8(5)
