#------------------------------------------------------------------------------
#$Date: 2019-11-24 14:22:03 +0200 (Sun, 24 Nov 2019) $
#$Revision: 238138 $
#$URL: file:///home/coder/svn-repositories/cod/cif/1/55/48/1554816.cif $
#------------------------------------------------------------------------------
#
# This file is available in the Crystallography Open Database (COD),
# http://www.crystallography.net/
#
# All data on this site have been placed in the public domain by the
# contributors.
#
data_1554816
loop_
_publ_author_name
'Chen, Daoqian'
'Lu, Long'
'Shen, Qilong'
_publ_section_title
;
 [Ag(bpy)(PPhtBu2)(OCF3)]: a stable nucleophilic reagent for
 chemoselective and stereospecific trifluoromethoxylation of secondary
 alkyl nosylates
;
_journal_issue                   11
_journal_name_full               'Organic Chemistry Frontiers'
_journal_page_first              1801
_journal_paper_doi               10.1039/C9QO00278B
_journal_volume                  6
_journal_year                    2019
_chemical_absolute_configuration rmad
_chemical_formula_moiety         'C17 H16 Br F3 O2'
_chemical_formula_sum            'C17 H16 Br F3 O2'
_chemical_formula_weight         389.21
_space_group_crystal_system      monoclinic
_space_group_IT_number           4
_space_group_name_Hall           'P 2yb'
_space_group_name_H-M_alt        'P 1 21 1'
_atom_sites_solution_hydrogens   geom
_atom_sites_solution_primary     dual
_audit_creation_date             2018-06-29
_audit_creation_method
;
Olex2 1.2
(compiled 2018.05.29 svn.r3508 for OlexSys, GUI svn.r5506)
;
_audit_update_record
;
2018-08-13 deposited with the CCDC.	2019-04-11 downloaded from the CCDC.
;
_cell_angle_alpha                90
_cell_angle_beta                 90.759(3)
_cell_angle_gamma                90
_cell_formula_units_Z            2
_cell_length_a                   6.2353(4)
_cell_length_b                   7.7873(4)
_cell_length_c                   17.3098(10)
_cell_measurement_reflns_used    6877
_cell_measurement_temperature    170(2)
_cell_measurement_theta_max      54.77
_cell_measurement_theta_min      4.446
_cell_volume                     840.42(8)
_computing_cell_refinement       'SAINT v8.37A (Bruker, 2015)'
_computing_data_reduction        'SAINT v8.37A (Bruker, 2015)'
_computing_molecular_graphics    'Olex2 (Dolomanov et al., 2009)'
_computing_publication_material  'Olex2 (Dolomanov et al., 2009)'
_computing_structure_refinement  'ShelXL (Sheldrick, 2015)'
_computing_structure_solution    'ShelXT (Sheldrick, 2015)'
_diffrn_ambient_temperature      169.99
_diffrn_measured_fraction_theta_full 0.994
_diffrn_measured_fraction_theta_max 0.991
_diffrn_measurement_device_type  'Bruker D8 Venture'
_diffrn_measurement_method       '\f and \w scans'
_diffrn_radiation_type           GaK\a
_diffrn_radiation_wavelength     1.34139
_diffrn_reflns_av_R_equivalents  0.0508
_diffrn_reflns_av_unetI/netI     0.0471
_diffrn_reflns_Laue_measured_fraction_full 0.994
_diffrn_reflns_Laue_measured_fraction_max 0.991
_diffrn_reflns_limit_h_max       7
_diffrn_reflns_limit_h_min       -7
_diffrn_reflns_limit_k_max       9
_diffrn_reflns_limit_k_min       -6
_diffrn_reflns_limit_l_max       21
_diffrn_reflns_limit_l_min       -21
_diffrn_reflns_number            8561
_diffrn_reflns_point_group_measured_fraction_full 0.880
_diffrn_reflns_point_group_measured_fraction_max 0.872
_diffrn_reflns_theta_full        53.594
_diffrn_reflns_theta_max         54.952
_diffrn_reflns_theta_min         4.445
_diffrn_standards_number         0
_exptl_absorpt_coefficient_mu    2.505
_exptl_absorpt_correction_T_max  0.7508
_exptl_absorpt_correction_T_min  0.4931
_exptl_absorpt_correction_type   multi-scan
_exptl_absorpt_process_details
'SADABS-2016/2 (Bruker,2016/2) was used for absorption correction. wR2(int) was 0.1363 before and 0.0802 after correction. The Ratio of minimum to maximum transmission is 0.6568. The \l/2 correction factor is Not present.'
_exptl_crystal_colour            colourless
_exptl_crystal_density_diffrn    1.538
_exptl_crystal_description       plate
_exptl_crystal_F_000             392
_exptl_crystal_size_max          0.12
_exptl_crystal_size_mid          0.1
_exptl_crystal_size_min          0.01
_refine_diff_density_max         0.202
_refine_diff_density_min         -0.461
_refine_diff_density_rms         0.049
_refine_ls_abs_structure_details
;
 Flack x determined using 934 quotients [(I+)-(I-)]/[(I+)+(I-)]
 (Parsons, Flack and Wagner, Acta Cryst. B69 (2013) 249-259).
;
_refine_ls_abs_structure_Flack   0.052(17)
_refine_ls_extinction_method     none
_refine_ls_goodness_of_fit_ref   1.064
_refine_ls_hydrogen_treatment    constr
_refine_ls_matrix_type           full
_refine_ls_number_parameters     209
_refine_ls_number_reflns         2803
_refine_ls_number_restraints     1
_refine_ls_restrained_S_all      1.064
_refine_ls_R_factor_all          0.0375
_refine_ls_R_factor_gt           0.0343
_refine_ls_shift/su_max          0.000
_refine_ls_shift/su_mean         0.000
_refine_ls_structure_factor_coef Fsqd
_refine_ls_weighting_details
'w=1/[\s^2^(Fo^2^)+(0.0308P)^2^+0.2708P] where P=(Fo^2^+2Fc^2^)/3'
_refine_ls_weighting_scheme      calc
_refine_ls_wR_factor_gt          0.0841
_refine_ls_wR_factor_ref         0.0874
_reflns_Friedel_coverage         0.631
_reflns_Friedel_fraction_full    0.747
_reflns_Friedel_fraction_max     0.732
_reflns_number_gt                2608
_reflns_number_total             2803
_reflns_threshold_expression     'I > 2\s(I)'
_cod_data_source_file            c9qo00278b2.cif
_cod_data_source_block           mjl18292_0m
_cod_database_code               1554816
_shelx_shelxl_version_number     2016/6
_shelx_space_group_comment
;
The symmetry employed for this shelxl refinement is uniquely defined
by the following loop, which should always be used as a source of
symmetry information in preference to the above space-group names.
They are only intended as comments.
;
_shelx_estimated_absorpt_t_max   0.975
_shelx_estimated_absorpt_t_min   0.753
_olex2_refinement_description
;
1. Fixed Uiso
 At 1.2 times of:
  All C(H) groups, All C(H,H) groups
 At 1.5 times of:
  All C(H,H,H) groups
2.a Ternary CH refined with riding coordinates:
 C3(H3)
2.b Secondary CH2 refined with riding coordinates:
 C4(H4A,H4B), C5(H5A,H5B)
2.c Aromatic/amide H refined with riding coordinates:
 C7(H7), C8(H8), C10(H10), C11(H11), C13(H13), C14(H14), C16(H16), C17(H17)
2.d Idealised Me refined as rotating group:
 C2(H2A,H2B,H2C)
;
_shelx_res_file
;
TITL mjl18292_0m_b.res in P2(1)
    mjl18292_0m.res
    created by SHELXL-2016/6 at 08:47:12 on 29-Jun-2018
REM Old TITL mjl18292_0m_a.res in P2(1)/m
REM SHELXT solution in P2(1)
REM R1 0.117, Rweak 0.037, Alpha 0.004, Orientation as input
REM Flack x = 0.187 ( 0.014 ) from Parsons' quotients
REM Formula found by SHELXT: C17 O2 F3 Br
CELL 1.34139 6.2353 7.7873 17.3098 90 90.759 90
ZERR 2 0.0004 0.0004 0.001 0 0.003 0
LATT -1
SYMM -X,0.5+Y,-Z
SFAC C H Br F O
DISP Br -0.9502 1.041 8191.5115
DISP C 0.0148 0.007 57.7477
DISP F 0.0599 0.0411 317.6292
DISP H -0 0 0.6481
DISP O 0.0412 0.025 193.9543
UNIT 34 32 2 6 4

L.S. 10
PLAN  20
SIZE 0.01 0.1 0.12
TEMP -103.16
BOND $H
LIST 6
fmap 2
ACTA
REM <olex2.extras>
REM <HklSrc "%.\\mjl18292_0m.hkl">
REM </olex2.extras>

WGHT    0.030800    0.270800
FVAR       1.07225
BR1   3    1.167006    0.306880    0.221788    11.00000    0.08147    0.06131 =
         0.07036   -0.01514    0.01225   -0.01338
F1    4    0.572954    0.552073    0.896939    11.00000    0.06832    0.11449 =
         0.17737   -0.03882    0.04733   -0.01912
F2    4    0.398372    0.781437    0.917483    11.00000    0.12177    0.07352 =
         0.12164   -0.01169    0.00589   -0.02779
F3    4    0.422365    0.591993    1.004457    11.00000    0.10996    0.12868 =
         0.09012   -0.00265   -0.01941   -0.02151
O1    5    0.368698    0.294951    0.742059    11.00000    0.04887    0.04076 =
         0.06452    0.00286    0.00071    0.00513
O2    5    0.218138    0.549700    0.901297    11.00000    0.06135    0.05294 =
         0.06758   -0.00166   -0.00083    0.00018
C1    1    0.397663    0.613655    0.927765    11.00000    0.07013    0.06629 =
         0.07948   -0.00676    0.01563   -0.00878
C2    1    0.084153    0.300370    0.969885    11.00000    0.07562    0.07441 =
         0.08933    0.01270    0.01947    0.00192
AFIX 137
H2A   2    0.164535    0.338679    1.015766    11.00000   -1.50000
H2B   2    0.077319    0.174648    0.969360    11.00000   -1.50000
H2C   2   -0.061547    0.347400    0.971088    11.00000   -1.50000
AFIX   0
C3    1    0.195676    0.362792    0.897920    11.00000    0.05566    0.04956 =
         0.07476    0.00724    0.00467    0.00129
AFIX  13
H3    2    0.340675    0.308598    0.894683    11.00000   -1.20000
AFIX   0
C4    1    0.070467    0.327361    0.824997    11.00000    0.04568    0.05169 =
         0.08595   -0.00084    0.00541   -0.00142
AFIX  23
H4A   2    0.046539    0.201972    0.821048    11.00000   -1.20000
H4B   2   -0.071853    0.382703    0.829154    11.00000   -1.20000
AFIX   0
C5    1    0.171772    0.387241    0.752328    11.00000    0.04607    0.05111 =
         0.07176   -0.00836   -0.00586    0.00811
AFIX  23
H5A   2    0.073821    0.366335    0.707840    11.00000   -1.20000
H5B   2    0.200954    0.512033    0.755426    11.00000   -1.20000
AFIX   0
C6    1    0.472621    0.313532    0.673896    11.00000    0.04205    0.02895 =
         0.06072   -0.00166   -0.00864    0.00002
C7    1    0.404112    0.420286    0.613631    11.00000    0.04407    0.03579 =
         0.06548    0.00174   -0.00437    0.00726
AFIX  43
H7    2    0.279760    0.489488    0.619094    11.00000   -1.20000
AFIX   0
C8    1    0.518491    0.424168    0.546337    11.00000    0.04849    0.03332 =
         0.06255    0.00277   -0.01158    0.00955
AFIX  43
H8    2    0.469358    0.496749    0.505696    11.00000   -1.20000
AFIX   0
C9    1    0.703267    0.326807    0.534695    11.00000    0.03448    0.02389 =
         0.06279   -0.00165   -0.01034   -0.00223
C10   1    0.770815    0.224240    0.596604    11.00000    0.03858    0.03448 =
         0.06481   -0.00098   -0.01116    0.00928
AFIX  43
H10   2    0.896720    0.156642    0.591663    11.00000   -1.20000
AFIX   0
C11   1    0.658451    0.218913    0.664943    11.00000    0.04446    0.03943 =
         0.06264    0.00532   -0.01171    0.00646
AFIX  43
H11   2    0.709617    0.149293    0.706314    11.00000   -1.20000
AFIX   0
C12   1    0.816490    0.325682    0.460443    11.00000    0.04331    0.02419 =
         0.06080   -0.00165   -0.01115   -0.00284
C13   1    0.722080    0.392821    0.392755    11.00000    0.04331    0.04487 =
         0.06304    0.00470   -0.00694    0.00159
AFIX  43
H13   2    0.583344    0.442731    0.395380    11.00000   -1.20000
AFIX   0
C14   1    0.824131    0.388586    0.322805    11.00000    0.05746    0.04688 =
         0.06345    0.00062   -0.01117   -0.00383
AFIX  43
H14   2    0.755568    0.435027    0.278142    11.00000   -1.20000
AFIX   0
C15   1    1.025637    0.317121    0.317355    11.00000    0.05918    0.03519 =
         0.06195   -0.00737   -0.00262   -0.00884
C16   1    1.125503    0.250248    0.382724    11.00000    0.04680    0.03919 =
         0.07870   -0.00786   -0.00280    0.00199
AFIX  43
H16   2    1.264093    0.200372    0.379293    11.00000   -1.20000
AFIX   0
C17   1    1.022971    0.256371    0.452762    11.00000    0.04360    0.03877 =
         0.06740   -0.00060   -0.00724    0.00232
AFIX  43
H17   2    1.094446    0.212208    0.497313    11.00000   -1.20000
AFIX   0
HKLF 4




REM  mjl18292_0m_b.res in P2(1)
REM R1 =  0.0343 for    2608 Fo > 4sig(Fo)  and  0.0375 for all    2803 data
REM    209 parameters refined using      1 restraints

END

WGHT      0.0304      0.2735

REM Highest difference peak  0.202,  deepest hole -0.461,  1-sigma level  0.049
Q1    1   0.5821  0.3199  0.5267  11.00000  0.05    0.20
Q2    1   1.0972  0.3057  0.3551  11.00000  0.05    0.19
Q3    1   0.1863  0.3066  1.0909  11.00000  0.05    0.17
Q4    1   0.1277  0.7090  0.8399  11.00000  0.05    0.17
Q5    1   0.8273  0.2814  0.4471  11.00000  0.05    0.17
Q6    1   0.2254  0.7547  0.9016  11.00000  0.05    0.17
Q7    1   0.8916  0.3070  0.4561  11.00000  0.05    0.17
Q8    1   0.9614  0.3602  0.3189  11.00000  0.05    0.17
Q9    1   1.1098  0.3091  0.2192  11.00000  0.05    0.16
Q10   1   0.7305  0.3068  0.5584  11.00000  0.05    0.16
Q11   1   0.1291  0.6788  0.8958  11.00000  0.05    0.16
Q12   1   1.3766  0.3081  0.2201  11.00000  0.05    0.15
Q13   1   0.4628  0.6395  0.8639  11.00000  0.05    0.15
Q14   1   0.4494  0.2970  0.8181  11.00000  0.05    0.15
Q15   1   0.4008  0.6689  0.8000  11.00000  0.05    0.15
Q16   1   0.4302  0.6939  0.8148  11.00000  0.05    0.15
Q17   1   0.1786  0.6752  0.7679  11.00000  0.05    0.15
Q18   1   0.6425  0.3902  0.5462  11.00000  0.05    0.15
Q19   1   1.4873  0.1760  0.2435  11.00000  0.05    0.14
Q20   1  -0.2661  0.2997  0.8899  11.00000  0.05    0.14
;
_shelx_res_checksum              52910
_shelx_hkl_file
;
   1   0   0   34.20    2.80
   1   0   0   32.20    2.80
  -1   0   0   32.40    2.70
  -1   0   0   33.10    2.80
   2   0   0  485.65   33.90
   2   0   0  458.25   33.40
  -2   0   0  501.25   33.30
  -2   0   0  434.36   33.50
  -2   0   0  482.45   34.60
  -2   0   0  506.35   33.90
   2   0   0  522.35   33.90
   2   0   0  427.36   33.50
  -3   0   0 1994.20  142.89
   3   0   0 2129.99  142.99
   3   0   0 1947.91  142.49
  -3   0   0 2121.69  142.09
   4   0   0  250.07   18.50
   4   0   0  246.58   18.10
  -4   0   0  253.97   18.70
  -4   0   0  260.77   17.90
  -4   0   0  232.38   19.00
   5   0   0  411.96   32.20
  -5   0   0  400.26   32.10
  -5   0   0  477.05   31.70
  -5   0   0  429.06   30.50
   6   0   0   77.49    7.60
   6   0   0   63.79    6.40
  -6   0   0   81.99    7.70
   7   0   0    0.00    2.00
  -7   0   0    1.30    2.50
   0   1   0    0.40    0.20
   0   1   0    0.90    0.20
   1  -1   0 2196.18  173.38
   1  -1   0 2605.94  173.58
   1   1   0 2710.93  173.58
  -2  -1   0 5679.13  370.56
   2  -1   0 5867.41  370.76
   2  -1   0 5051.19  370.26
   2  -1   0 5473.35  370.06
  -2  -1   0 4933.01  370.16
   2   1   0 5607.64  370.66
  -2   1   0 4910.61  370.26
   2   1   0 5395.36  370.36
   2   1   0 5356.86  370.06
  -2   1   0 5198.58  370.56
   3  -1   0  731.63   53.59
  -3  -1   0  708.03   53.49
  -3  -1   0  878.71   53.29
   3  -1   0  815.22   54.09
   3  -1   0  795.42   53.39
  -3  -1   0  776.72   54.09
   3   1   0  795.32   54.09
   3   1   0  713.23   53.59
  -3   1   0  715.73   53.59
   3   1   0  765.92   53.39
  -3   1   0  740.43   53.19
   3   1   0  694.53   54.29
  -3   1   0  791.52   54.19
  -4  -1   0  269.07   20.90
   4  -1   0  294.07   21.10
  -4  -1   0  267.57   21.50
  -4  -1   0  242.08   20.20
   4  -1   0  264.17   21.50
  -4   1   0  301.47   20.40
   4   1   0  297.47   21.10
  -4   1   0  278.37   21.00
   4   1   0  315.17   20.80
   4   1   0  304.87   21.80
  -4   1   0  310.77   21.90
   5  -1   0  129.79   10.70
  -5  -1   0  129.19   12.30
   5  -1   0  154.18   11.70
   5  -1   0  127.99   12.30
  -5  -1   0  144.69   11.50
  -5   1   0  155.58   10.70
  -5   1   0  133.99   12.30
  -5   1   0  143.59   11.60
   5   1   0  134.89   12.40
   5   1   0  148.09   11.70
   6  -1   0   42.70    7.00
  -6  -1   0   45.00    7.10
   6   1   0   46.70    5.90
  -6   1   0   55.89    6.80
  -6   1   0   54.59    4.60
   6   1   0   44.00    4.90
   6   1   0   39.50    7.20
   7  -1   0   20.20    3.80
  -7  -1   0   15.80    3.80
   7   1   0   22.30    4.30
  -7   1   0   21.20    3.90
   1  -2   0 3821.52  288.77
   1   2   0 4523.95  288.97
   2  -2   0  654.03   43.20
   2  -2   0  554.04   42.80
  -2  -2   0  561.44   43.00
  -2  -2   0  602.24   42.80
  -2   2   0  656.83   42.60
  -2   2   0  677.13   43.40
   2   2   0  606.64   42.70
  -2   2   0  610.54   43.20
   2   2   0  565.44   42.80
  -2   2   0  565.64   42.90
   2   2   0  677.33   43.20
   3  -2   0  758.52   57.69
  -3  -2   0  745.93   57.89
  -3  -2   0  773.72   57.59
   3  -2   0  808.32   58.09
  -3   2   0  894.81   58.89
   3   2   0  832.82   57.49
  -3   2   0  816.22   57.79
  -3   2   0  853.01   57.29
   3   2   0  816.42   57.69
   3   2   0  853.21   58.49
   3   2   0  892.01   58.29
   4  -2   0  208.18   16.00
  -4  -2   0  203.78   15.70
  -4   2   0  200.08   16.00
  -4   2   0  197.28   15.40
   4   2   0  202.48   16.40
   4   2   0  208.58   15.40
  -4   2   0  197.18   14.60
   4   2   0  198.08   16.10
  -5  -2   0   10.60    2.70
   5  -2   0   16.40    3.70
   5   2   0   11.30    2.90
   5   2   0   13.70    2.70
   5   2   0   13.70    3.50
  -5   2   0   12.90    3.40
  -5   2   0   14.80    3.20
  -5   2   0   14.60    2.30
  -6  -2   0  230.38   17.50
   6  -2   0  226.68   17.50
   6   2   0  219.88   17.60
  -6   2   0  239.18   17.90
   6   2   0  205.68   16.80
  -7  -2   0    3.30    2.40
   7  -2   0    1.40    1.80
   7   2   0    1.00    2.70
  -7   2   0    0.60    2.50
   7   2   0    2.40    2.10
   0   3   0    3.00    0.90
  -1   3   0 2447.35  174.58
   1   3   0 2508.55  174.48
   1   3   0 2594.84  174.58
   2  -3   0 1161.08   88.49
  -2  -3   0 1317.37   88.39
   2  -3   0 1318.27   88.99
   2   3   0 1308.57   88.99
   2   3   0 1167.08   88.29
  -2   3   0 1364.76   89.79
  -2   3   0 1287.57   89.09
  -2   3   0 1198.38   88.19
  -2   3   0 1263.17   88.99
   2   3   0 1338.77   88.99
  -3  -3   0  587.24   38.90
   3  -3   0  543.25   38.90
  -3   3   0  524.85   39.10
   3   3   0  535.95   39.80
  -3   3   0  542.75   38.50
   3   3   0  525.45   38.90
  -3   3   0  587.14   39.80
   3   3   0  575.94   39.70
   3   3   0  558.84   38.80
  -3   3   0  519.75   39.80
   4  -3   0  196.78   15.30
  -4  -3   0  195.18   15.20
  -4   3   0  197.28   14.70
   4   3   0  208.88   16.40
   4   3   0  194.68   15.30
  -4   3   0  205.98   16.30
  -4   3   0  200.88   15.50
   4   3   0  211.88   15.10
  -5  -3   0   56.99    6.20
   5  -3   0   61.49    6.10
  -5   3   0   52.79    6.90
  -5   3   0   61.99    6.50
   5   3   0   62.09    6.20
  -5   3   0   57.19    5.20
   5   3   0   64.39    7.50
  -6  -3   0    6.20    2.80
   6  -3   0    8.80    2.50
  -6   3   0   10.30    2.10
   6   3   0    4.30    2.20
  -6   3   0   11.80    3.10
   6   3   0   10.00    2.80
  -7  -3   0    6.30    2.80
   7  -3   0   11.50    2.30
  -7   3   0    8.40    3.00
   7   3   0   11.20    2.40
   7   3   0    9.90    2.90
   1   4   0  322.27   22.70
  -1   4   0  265.77   21.60
  -1   4   0  317.67   22.30
   1   4   0  340.07   22.30
  -2   4   0   77.69    5.60
   2   4   0   68.59    5.70
  -2   4   0   77.39    6.70
  -2   4   0   60.29    6.10
   2   4   0   79.19    6.60
   2   4   0   77.89    6.60
  -2   4   0   88.49    6.80
   3  -4   0  442.36   33.00
  -3  -4   0  399.76   32.80
   3   4   0  526.45   33.40
  -3   4   0  502.75   34.30
  -3   4   0  491.15   32.90
   3   4   0  426.06   33.20
   3   4   0  509.65   34.20
  -3   4   0  437.56   33.40
   4  -4   0   97.59    8.30
  -4  -4   0   91.29    8.10
  -4   4   0  102.69    9.60
   4   4   0   97.79    8.40
  -4   4   0   96.99    8.70
   4   4   0  112.39    8.40
   4   4   0  102.99    9.70
  -4   4   0   97.99    7.80
   5  -4   0   68.49    6.10
   5   4   0   60.49    7.50
  -5   4   0   62.99    6.80
  -5   4   0   61.09    5.40
   5   4   0   47.40    6.20
   6  -4   0   27.80    3.90
   6   4   0   27.00    4.00
  -6   4   0   29.50    3.30
   6   4   0   22.40    4.20
   0   5   0   -0.20    1.40
   0   5   0    0.40    1.00
  -1   5   0  844.92   56.09
  -1   5   0  810.72   56.29
   1   5   0  796.62   55.99
  -1   5   0  739.13   55.39
  -2   5   0  600.24   44.90
   2   5   0  617.24   43.80
  -2   5   0  617.14   44.50
   2   5   0  641.34   44.50
   2   5   0  667.43   44.60
  -2   5   0  607.74   43.60
   3  -5   0    4.00    1.10
   3   5   0    5.60    1.60
   3   5   0    7.30    2.40
  -4   5   0   37.40    3.90
  -4   5   0   46.30    5.30
   4   5   0   40.90    5.80
   5  -5   0   12.10    2.10
   5   5   0   14.20    2.80
  -5   5   0   12.30    3.20
  -5   5   0   12.60    2.30
   6  -5   0   -1.40    1.40
   6   5   0   -1.80    1.80
  -6   5   0    1.60    1.50
   0   6   0  290.67   21.60
   0   6   0  326.57   22.30
  -1   6   0  231.58   15.10
  -1   6   0  198.58   15.90
  -1   6   0  203.18   16.20
  -2   6   0   67.19    6.60
   2   6   0   70.59    6.50
  -2   6   0   67.19    5.40
  -3   6   0   51.99    5.70
   3   6   0   50.19    5.90
  -3   6   0   53.39    4.60
   4   6   0   56.19    5.40
  -4   6   0   55.49    5.10
  -5   6   0    8.80    2.00
   5   6   0    4.50    2.20
   0   7   0   -0.60    0.80
   1   7   0  232.18   18.00
  -1   7   0  274.97   18.00
  -2   7   0   21.40    4.30
  -2   7   0   25.60    2.70
   2   7   0   23.50    3.00
   3   7   0   47.50    4.80
  -3   7   0   53.09    4.60
  -4   7   0   23.30    2.90
   4   7   0   18.70    3.10
   5   7   0    3.20    1.90
  -5   7   0    3.20    1.50
   0   8   0  314.07   22.20
   1   8   0    5.20    1.30
   2   8   0    3.70    1.40
  -2   8   0   -1.00    1.00
   3   8   0   40.40    4.00
  -3   8   0   38.50    3.90
   4   8   0    4.30    1.70
  -4   8   0    0.50    1.20
   1   9   0   26.50    2.40
  -1   9   0   27.00    2.70
   2   9   0    8.50    1.50
  -2   9   0   11.90    2.00
  -7   0   1    5.60    2.40
   7   0  -1    5.10    2.30
   6   0  -1  131.39   10.90
  -6   0   1  128.39   10.90
   6   0  -1  109.09    9.60
  -5   0   1    0.60    1.80
  -5   0   1   -0.10    2.00
   5   0  -1   -0.20    1.80
  -5   0   1   -0.50    1.10
   5   0  -1    1.80    2.10
   5   0  -1    0.80    1.90
   4   0  -1  661.63   52.49
  -4   0   1  670.83   52.49
  -4   0   1  870.41   52.59
  -4   0   1  738.83   51.39
   3   0  -1  191.18   14.70
  -3   0   1  178.98   14.20
  -3   0   1  196.38   14.80
  -3   0   1  202.38   13.80
   3   0  -1  199.18   14.20
   2   0  -1 2960.20  196.28
  -2   0   1 2997.60  196.38
  -2   0   1 2818.22  196.18
   2   0  -1 2851.11  195.78
  -2   0   1 2566.24  195.88
   2   0  -1 2558.64  195.88
   2   0  -1 2945.71  196.28
  -2   0   1 2915.91  195.68
  -1   0   1   35.10    3.00
   1   0  -1   37.80    3.10
   1   0  -1   34.10    3.00
  -1   0   1   37.00    3.10
   1   0   1  527.35   36.00
  -1   0  -1  493.05   35.90
   1   0   1  511.85   35.90
  -1   0  -1  522.65   35.90
   2   0   1  879.31   66.39
  -2   0  -1  987.90   66.69
   2   0   1  994.90   66.79
  -2   0  -1 1053.49   66.19
   2   0   1  907.31   66.19
  -2   0  -1  917.01   66.59
   2   0   1 1016.80   66.69
  -2   0  -1  859.81   66.29
   3   0   1   20.50    3.20
   3   0   1   17.90    2.60
  -3   0  -1   21.50    3.10
  -3   0  -1   16.20    2.50
  -3   0  -1   21.70    2.00
   3   0   1   19.80    2.30
  -4   0  -1   59.99    4.80
   4   0   1   59.29    5.60
  -4   0  -1   53.99    5.50
   4   0   1   58.59    6.20
  -4   0  -1   64.99    6.20
   4   0   1   58.99    5.20
  -5   0  -1  415.56   29.30
  -5   0  -1  385.86   30.10
   5   0   1  421.46   29.40
   5   0   1  366.96   30.00
  -5   0  -1  401.16   28.30
   6   0   1    7.50    2.20
   6   0   1    6.10    2.60
   6   0   1    5.40    4.00
  -6   0  -1    8.60    2.90
  -7   0  -1   27.50    4.50
   7   0   1   24.10    4.30
  -7  -1   1   17.70    3.50
   7  -1  -1   14.30    3.30
   7   1  -1   21.10    3.80
  -7   1   1   18.30    3.50
  -6  -1   1   74.69   10.00
  -6   1   1  103.79    9.50
   6   1  -1   78.19   10.20
   6   1  -1   89.29    7.50
  -6   1   1   83.29    7.20
   6   1  -1  100.19    8.70
  -5  -1   1  173.98   12.50
   5  -1  -1  143.39   13.30
   5  -1  -1  176.98   12.70
   5  -1  -1  151.88   11.50
  -5  -1   1  129.09   13.30
   5   1  -1  144.59   13.30
   5   1  -1  154.78   12.40
   5   1  -1  143.79   11.70
  -5   1   1  150.38   13.20
  -5   1   1  157.28   12.50
  -5   1   1  157.48   11.50
   4  -1  -1   44.00    4.40
  -4  -1   1   52.19    5.20
  -4  -1   1   47.00    3.70
   4  -1  -1   43.70    4.60
  -4  -1   1   46.90    4.50
   4  -1  -1   43.90    5.20
  -4   1   1   31.80    4.90
   4   1  -1   44.50    4.70
   4   1  -1   42.80    4.20
   4   1  -1   39.70    5.30
  -4   1   1   37.40    4.40
  -4   1   1   36.40    3.60
   3  -1  -1  267.07   18.50
  -3  -1   1  273.67   18.90
  -3  -1   1  290.97   19.50
  -3  -1   1  294.77   18.50
   3  -1  -1  287.77   19.50
   3  -1  -1  284.47   18.90
  -3   1   1  233.78   19.30
   3   1  -1  221.58   19.20
  -3   1   1  232.18   18.40
   3   1  -1  224.58   18.60
   2  -1  -1 2601.24  200.18
  -2  -1   1 2963.40  200.58
   2  -1  -1 3036.30  200.58
  -2  -1   1 2719.03  200.18
   2   1  -1 3078.39  200.68
   2   1  -1 2823.52  200.08
  -2   1   1 2883.31  200.58
  -2   1   1 3063.79  199.98
  -2   1   1 2599.94  200.18
   2   1  -1 3134.49  200.68
  -2   1   1 3091.49  200.68
   2   1  -1 2670.43  200.18
  -1  -1   1  268.97   20.40
  -1  -1   1  317.27   20.60
   1  -1  -1  309.97   20.60
   1  -1  -1  308.97   20.50
  -1  -1   1  322.27   20.70
   1   1  -1  288.27   20.60
   1   1  -1  288.17   20.60
  -1   1   1  251.77   20.50
  -1   1   1  307.77   20.40
  -1   1   1  251.57   20.50
   2  -1   1   45.60    4.80
  -2  -1  -1   64.09    4.80
  -2  -1  -1   50.89    4.40
   2  -1   1   52.09    5.20
  -2   1  -1   58.99    4.20
  -2   1  -1   56.99    4.80
  -2   1  -1   58.89    4.60
  -2   1  -1   54.29    4.80
   3  -1   1 3676.53  254.67
   3  -1   1 3780.72  255.37
  -3  -1  -1 3416.76  254.77
   3   1   1 3695.53  255.67
   3   1   1 3687.93  254.67
  -3   1  -1 3680.83  255.47
  -3   1  -1 3581.44  254.47
  -3   1  -1 3911.21  255.17
   3   1   1 3543.85  254.97
   3   1   1 3775.32  255.37
   4  -1   1   57.89    6.00
   4  -1   1   64.19    6.70
   4  -1   1   64.19    5.50
  -4  -1  -1   62.29    5.90
  -4  -1  -1   56.49    6.30
   4   1   1   69.79    5.70
  -4   1  -1   70.09    6.10
   4   1   1   69.99    6.20
  -4   1  -1   67.29    6.70
   4   1   1   71.49    6.80
  -4   1  -1   71.39    5.40
   5  -1   1   55.49    5.80
  -5  -1  -1   58.89    5.70
   5  -1   1   43.90    4.70
   5  -1   1   52.49    6.60
  -5   1  -1   46.50    5.70
  -5   1  -1   48.60    4.50
   5   1   1   55.39    5.30
   5   1   1   49.60    6.50
   5   1   1   52.29    5.80
  -5   1  -1   48.20    6.20
  -6   1  -1   58.79    5.20
   6   1   1   53.19    5.30
   6   1   1   62.89    6.50
  -6   1  -1   55.29    7.60
   6   1   1   39.90    7.60
   7  -1   1  102.89    9.10
  -7  -1  -1  103.99    9.30
  -7   1  -1  108.09    9.50
   7   1   1   85.29    8.80
  -7  -2   1    9.00    2.70
   7  -2  -1   13.20    2.80
  -7   2   1   12.70    3.60
   6  -2  -1    0.40    2.00
  -6  -2   1    0.50    2.20
   6   2  -1   -0.30    2.10
   6   2  -1   -0.70    1.70
  -6   2   1    1.50    2.00
   5  -2  -1  227.18   16.70
  -5  -2   1  237.18   16.70
  -5   2   1  210.58   16.80
  -5   2   1  191.88   17.40
   5   2  -1  204.38   17.70
  -5   2   1  219.68   15.80
  -4  -2   1  490.35   35.50
  -4  -2   1  436.16   36.20
   4  -2  -1  494.45   35.60
  -4   2   1  498.75   35.80
   4   2  -1  481.15   35.70
  -4   2   1  514.15   34.30
   4   2  -1  493.15   34.90
  -4   2   1  481.45   35.00
   3  -2  -1  445.76   31.30
  -3  -2   1  419.16   31.70
  -3  -2   1  455.35   31.30
   3  -2  -1  449.86   31.80
   3   2  -1  454.25   32.10
  -3   2   1  406.16   31.90
   3   2  -1  422.46   31.30
  -3   2   1  458.15   30.90
   3   2  -1  455.65   31.20
   2  -2  -1 2827.32  211.88
  -2  -2   1 3032.00  211.98
   2  -2  -1 3429.16  212.38
  -2   2   1 3225.88  212.48
   2   2  -1 3178.88  212.48
  -2   2   1 2798.32  212.28
  -2   2   1 2953.80  211.68
   2   2  -1 3272.77  212.48
   2   2  -1 2809.42  211.78
   1  -2  -1 2807.62  188.08
  -1  -2   1 2736.53  188.28
   1  -2  -1 2766.12  188.18
  -1  -2   1 2576.04  188.18
   1  -2  -1 2795.92  188.18
  -1   2   1 2597.64  187.98
   1   2  -1 2742.13  188.38
  -1  -2  -1 5187.88  364.96
   1   2   1 5364.36  365.26
   2  -2   1 2296.17  167.98
  -2  -2  -1 2304.87  167.78
   2  -2   1 2611.84  168.38
   2   2   1 2614.34  168.28
   2   2   1 2352.16  167.78
  -2   2  -1 2387.06  168.38
   2   2   1 2198.68  167.88
   2   2   1 2573.94  168.38
  -2   2  -1 2515.85  167.68
  -2   2  -1 2221.48  167.98
  -2   2  -1 2556.34  168.48
   3  -2   1  245.98   18.30
  -3  -2  -1  235.98   18.10
  -3  -2  -1  234.98   18.50
   3  -2   1  256.57   18.90
  -3   2  -1  269.17   17.80
  -3   2  -1  282.37   19.10
   3   2   1  230.48   18.20
  -3   2  -1  246.18   18.30
   3   2   1  252.57   18.00
   3   2   1  261.77   18.80
   3   2   1  238.98   18.90
   4  -2   1   37.00    4.80
  -4  -2  -1   34.60    4.00
  -4   2  -1   24.00    2.80
   4   2   1   21.20    4.30
  -4   2  -1   27.20    4.20
   4   2   1   24.00    3.70
  -4   2  -1   26.40    3.80
   5  -2   1   44.40    5.20
  -5  -2  -1   45.60    5.20
  -5   2  -1   38.70    3.90
  -5   2  -1   38.50    5.80
   5   2   1   42.20    5.20
   5   2   1   35.50    5.80
  -5   2  -1   42.30    5.20
   5   2   1   44.60    4.80
  -6  -2  -1    9.50    3.00
   6  -2   1    8.30    2.70
   6   2   1    8.50    2.90
  -6   2  -1   15.70    3.70
   6   2   1    9.30    2.40
  -7  -2  -1   25.50    4.50
   7  -2   1   27.30    4.00
   7   2   1   19.40    3.40
   7   2   1   26.00    4.40
  -7   2  -1   25.60    4.60
   7  -3  -1   24.50    3.40
  -7  -3   1   16.20    3.30
  -7   3   1   19.00    3.30
   7   3  -1   21.80    3.40
   7   3  -1   26.50    4.10
  -7   3   1   25.50    4.40
   6  -3  -1   53.89    5.90
  -6  -3   1   55.69    6.20
  -6   3   1   57.19    6.50
   6   3  -1   54.69    6.10
  -6   3   1   53.89    4.90
   6   3  -1   52.39    5.60
  -5  -3   1  166.28   12.80
   5  -3  -1  163.58   12.70
  -5   3   1  142.39   13.60
  -5   3   1  159.38   11.90
   5   3  -1  157.88   12.70
   5   3  -1  145.19   13.80
  -5   3   1  168.58   13.10
  -4  -3   1   12.00    2.50
   4  -3  -1   10.60    2.30
  -4   3   1    6.30    2.40
   4   3  -1    8.40    2.00
  -4   3   1    5.90    1.40
  -4   3   1    6.70    2.00
   4   3  -1    9.00    2.10
   4   3  -1    8.80    2.60
  -3  -3   1  635.64   48.00
   3  -3  -1  699.13   49.00
   3  -3  -1  698.33   47.90
  -3  -3   1  723.63   47.90
   3   3  -1  719.23   48.70
  -3   3   1  650.73   49.00
   3   3  -1  662.53   47.90
  -3   3   1  681.83   47.50
   3   3  -1  704.13   47.80
   3   3  -1  675.53   48.80
  -3   3   1  738.43   48.90
  -3   3   1  578.34   48.40
   2  -3  -1  829.22   66.19
  -2  -3   1  899.11   66.29
   2  -3  -1  888.31   66.49
  -2   3   1 1093.49   66.99
   2   3  -1  962.70   66.19
   2   3  -1  843.22   66.29
  -2   3   1  985.40   66.79
   2   3  -1 1092.19   66.89
  -2   3   1  988.50   65.99
  -2   3   1  837.42   66.39
   2   3  -1 1046.60   66.89
  -1  -3   1  313.37   20.10
  -1   3   1  276.37   20.40
   1   3  -1  289.77   20.60
   1   3  -1  284.97   20.40
  -1   3   1  268.17   20.30
   0  -3   1 1565.54  107.79
   0   3  -1 1546.75  108.19
   1  -3   1 2736.93  219.68
  -1   3  -1 2927.71  219.48
   1   3   1 3416.56  219.88
  -1   3  -1 3381.86  220.08
   1   3   1 3401.36  219.88
   2  -3   1  165.98   13.50
  -2  -3  -1  151.88   11.60
   2  -3   1  149.79   11.80
  -2   3  -1  166.68   12.40
   2   3   1  149.69   11.70
  -2   3  -1  149.88   11.90
  -2   3  -1  181.48   11.50
   2   3   1  175.18   12.20
   2   3   1  157.98   12.20
  -3  -3  -1  931.21   60.89
   3  -3   1  941.71   62.09
   3  -3   1  913.71   61.19
  -3   3  -1  859.71   60.59
   3   3   1  799.02   60.99
   3   3   1  855.61   61.79
  -3   3  -1  773.02   61.79
   3   3   1  834.72   60.79
  -3   3  -1  838.52   61.29
  -3   3  -1  930.21   61.89
   3   3   1  890.91   61.69
  -4  -3  -1  129.99    9.50
   4  -3   1  124.39    9.60
  -4   3  -1  103.79    9.50
   4   3   1  118.29    9.20
  -4   3  -1  107.39   10.20
   4   3   1  116.99   10.40
  -4   3  -1  105.39    8.70
   4   3   1  114.89    9.40
   5  -3   1   35.50    4.80
  -5  -3  -1   36.70    4.80
   5   3   1   32.90    4.60
   5   3   1   35.70    4.50
  -5   3  -1   37.40    3.70
   5   3   1   29.50    5.60
  -5   3  -1   42.10    5.20
   6  -3   1   90.99    7.80
  -6  -3  -1   83.89    7.80
   6   3   1   83.79    7.90
  -6   3  -1   80.79    8.00
  -6   3  -1   72.79    6.60
   6   3   1   66.09    6.90
   7  -3   1   16.20    3.10
  -7  -3  -1   10.70    2.90
   7   3   1   16.30    2.80
   7   3   1   24.60    4.40
  -7   3  -1   22.90    4.10
   6  -4  -1   36.80    4.20
  -6   4   1   33.30    3.70
  -6   4   1   35.70    5.00
   6   4  -1   29.90    4.40
   6   4  -1   30.20    4.90
  -5  -4   1   30.80    4.40
   5  -4  -1   33.00    4.00
  -5   4   1   27.80    3.40
   5   4  -1   22.40    4.60
   5   4  -1   27.20    4.70
  -5   4   1   32.00    4.80
   5   4  -1   30.50    4.00
   4  -4  -1  388.06   26.40
  -4  -4   1  345.77   26.40
  -4   4   1  364.76   27.00
  -4   4   1  373.06   27.80
  -4   4   1  363.06   26.10
   4   4  -1  371.66   27.90
   4   4  -1  351.06   26.50
   3  -4  -1  107.39    7.90
  -3  -4   1   85.09    7.90
  -3   4   1  114.69    9.20
   3   4  -1  107.99    9.10
  -3   4   1  114.39    7.90
  -3   4   1   88.09    9.00
   3   4  -1   87.79    8.00
   2  -4  -1  964.80   76.19
  -2   4   1 1056.99   76.19
   2   4  -1 1080.09   76.39
  -2   4   1 1203.08   77.19
  -2   4   1 1102.29   77.19
   2   4  -1 1176.38   77.09
  -2   4   1 1003.90   76.69
   2   4  -1 1194.48   77.19
   1   4  -1  174.18   13.50
  -1   4   1  185.78   13.50
  -1   4   1  194.18   13.60
   0   4  -1 1424.36   97.99
   0   4  -1 1383.46   97.99
   1  -4   1 1689.23  129.89
  -1   4  -1 1924.01  130.69
  -1   4  -1 1969.80  130.89
   1   4   1 2017.20  130.29
   1   4   1 1940.31  130.19
  -1   4  -1 1717.33  129.89
   2  -4   1  961.50   67.39
   2   4   1  894.41   67.19
  -2   4  -1 1043.20   68.69
   2   4   1 1023.90   67.89
  -2   4  -1  854.31   67.59
   2   4   1 1029.30   67.89
  -2   4  -1  956.70   67.09
   3  -4   1   39.60    4.00
  -3  -4  -1   37.00    3.50
   3   4   1   40.10    5.30
  -3   4  -1   36.40    4.30
  -3   4  -1   38.80    3.50
   3   4   1   43.40    3.90
   3   4   1   47.50    5.10
  -4  -4  -1  166.88   12.70
   4  -4   1  193.78   13.20
   4   4   1  141.39   12.90
  -4   4  -1  165.48   12.50
   4   4   1  173.98   14.30
   4   4   1  170.98   12.90
   5  -4   1  130.89   10.60
   5   4   1  138.69   10.70
   5   4   1  120.99   12.00
  -5   4  -1  133.69   11.30
  -5   4  -1  128.09   10.00
   5   4   1  119.59   10.80
   6  -4   1    9.40    2.50
  -6  -4  -1    4.70    2.40
   6   4   1   11.10    2.60
  -6   4  -1   10.70    2.10
  -6   4  -1   11.00    3.10
  -6   5   1   44.70    4.40
   6   5  -1   36.20    4.70
   5  -5  -1  127.59    9.70
   5   5  -1  122.59   10.20
  -5   5   1  129.79   10.00
   4  -5  -1   60.19    5.00
  -4   5   1   59.99    5.20
   4   5  -1   58.79    7.10
  -3   5   1  240.48   17.60
   3   5  -1  249.58   19.10
  -2   5   1  649.24   45.10
  -2   5   1  648.44   43.80
   2   5  -1  678.93   45.00
   2   5  -1  536.65   44.60
   1   5  -1  539.95   35.60
   1   5  -1  427.66   35.50
  -1   5   1  500.25   35.20
  -1   5   1  490.85   34.60
  -1   5   1  526.65   35.40
   0   5  -1  598.34   44.70
   0   5  -1  658.33   43.70
  -1   5  -1  478.45   34.10
   1   5   1  483.35   33.50
  -1   5  -1  485.95   34.00
  -1   5  -1  451.65   33.10
   2   5   1   66.59    5.60
  -2   5  -1   56.49    5.60
  -2   5  -1   52.19    5.30
   2   5   1   61.19    5.60
   2   5   1   51.69    4.60
   3  -5   1  315.17   24.70
  -3   5  -1  351.76   26.00
  -3   5  -1  355.06   24.70
   3   5   1  357.56   25.90
   3   5   1  356.96   24.90
   4  -5   1   26.80    3.50
  -4   5  -1   34.70    3.60
  -4   5  -1   29.50    4.90
  -4   5  -1   40.70    4.70
   4   5   1   39.00    4.20
   4   5   1   34.30    5.10
   5  -5   1   26.20    3.40
  -5   5  -1   22.90    4.20
  -5   5  -1   27.40    3.30
   6  -5   1   29.60    3.30
   6   5   1   24.00    3.90
  -6   5  -1   30.50    4.30
  -6   5  -1   27.00    4.50
  -5   6   1   36.80    4.00
   5   6  -1   36.80    4.50
   4   6  -1  180.78   14.30
  -4   6   1  197.88   14.20
  -3   6   1   28.90    2.90
   3   6  -1   23.20    3.30
   3   6  -1   24.80    4.20
   2   6  -1  464.35   35.60
  -2   6   1  535.95   36.50
   2   6  -1  510.25   36.60
  -2   6   1  513.45   35.50
  -1   6   1  429.76   28.60
  -1   6   1  405.96   28.30
  -1   6   1  420.96   27.80
   1   6  -1  399.76   28.40
   1   6  -1  348.07   28.70
   1   6  -1  355.96   27.70
   0   6  -1   39.40    4.80
   0   6  -1   37.10    3.30
   0   6  -1   41.90    4.30
  -1   6  -1  224.88   15.80
  -1   6  -1  219.48   18.10
  -2   6  -1  719.13   50.59
   2   6   1  677.13   49.90
  -2   6  -1  705.13   49.40
   2   6   1  721.93   49.50
  -3   6  -1  106.59    8.20
   3   6   1  113.09    8.50
  -3   6  -1  100.89    9.40
   3   6   1   96.39    9.10
  -4   6  -1   44.10    4.30
   5   6   1   19.10    3.60
  -5   6  -1   26.70    3.20
  -5   7   1   34.90    3.70
   5   7  -1   33.80    4.20
  -4   7   1    8.00    1.80
   4   7  -1   11.10    2.50
  -3   7   1  195.88   14.30
   3   7  -1  191.58   14.40
   2   7  -1  161.18   12.30
   2   7  -1  150.28   12.90
  -2   7   1  177.68   13.80
  -2   7   1  175.38   12.20
  -1   7   1  142.79   10.20
   1   7  -1  140.09   10.40
   0   7  -1  164.98   11.50
   0   7   1  151.38   11.30
  -1   7  -1  223.78   15.10
   1   7   1  196.38   15.00
  -2   7  -1   31.60    5.10
  -2   7  -1   40.30    3.40
   2   7   1   28.80    3.30
  -3   7  -1   35.70    3.50
   3   7   1   27.10    3.50
  -4   7  -1   14.30    2.50
   4   7   1   14.40    2.60
  -5   7  -1   12.80    2.20
   5   7   1   12.40    2.50
  -4   8   1   26.90    3.00
   4   8  -1   22.70    3.30
  -3   8   1    1.10    1.20
   3   8  -1    1.70    1.50
   2   8  -1   54.19    4.70
  -2   8   1   52.79    4.60
   1   8  -1  206.58   14.80
  -1   8   1  202.78   14.70
   0   8   1    5.80    1.00
   0   8  -1    2.90    1.10
   1   8   1   17.30    2.10
  -1   8  -1   16.90    2.20
  -2   8  -1  167.58   12.10
   2   8   1  158.78   12.00
  -3   8  -1    4.40    1.50
   3   8   1    4.00    1.60
   4   8   1   10.50    2.10
  -4   8  -1    9.50    1.90
   2   9  -1   30.60    3.30
  -2   9   1   44.40    3.50
  -1   9   1   19.50    2.30
   1   9  -1   23.00    2.30
   0   9  -1   13.20    1.90
  -1   9  -1  117.89    8.80
  -2   9  -1    7.50    1.50
   2   9   1    3.70    1.10
   7   0  -2    3.50    2.20
  -7   0   2    0.20    2.30
  -6   0   2  358.96   27.20
   5   0  -2  134.79   11.00
  -5   0   2  128.19    9.40
  -5   0   2  128.59   10.50
   5   0  -2  132.89   10.60
   5   0  -2  107.79   11.10
  -5   0   2  111.39   11.00
   4   0  -2    1.30    1.70
  -4   0   2    1.40    0.90
   4   0  -2    1.40    1.90
  -4   0   2    0.80    2.30
  -4   0   2    0.60    1.50
   4   0  -2    0.40    1.20
  -3   0   2  987.40   70.09
   3   0  -2 1038.80   70.09
  -3   0   2  916.91   69.49
  -3   0   2 1033.30   69.39
  -2   0   2  797.22   56.99
   2   0  -2  855.11   57.09
   2   0  -2  891.61   57.19
  -2   0   2  732.23   56.69
  -2   0   2  839.12   57.09
   2   0  -2  725.13   56.59
  -2   0   2  850.11   56.49
   0   0   2  229.78   18.30
   0   0  -2  287.97   18.40
   0   0  -2  270.27   18.40
   0   0   2  255.27   18.40
   1   0   2  895.41   58.79
  -1   0  -2  864.71   58.79
  -1   0  -2  743.23   58.59
   1   0   2  810.22   58.59
   1   0   2  906.71   58.89
   2   0   2 1553.64   96.49
   2   0   2 1292.27   96.09
  -2   0  -2 1278.67   96.39
   2   0   2 1456.75   96.59
   2   0   2 1347.17   95.99
  -2   0  -2 1502.35   96.49
  -2   0  -2 1246.58   96.09
  -3   0  -2  668.63   42.90
  -3   0  -2  552.84   43.10
   3   0   2  635.44   43.70
   3   0   2  598.04   43.30
  -3   0  -2  605.24   43.60
   3   0   2  615.34   43.00
   4   0   2 1139.19   81.09
  -4   0  -2 1167.78   81.59
   4   0   2 1130.99   81.59
   4   0   2 1165.18   80.69
  -4   0  -2 1163.18   80.39
  -5   0  -2    5.90    3.00
   5   0   2    6.80    2.50
   5   0   2    4.60    2.30
   5   0   2    4.40    1.80
   6   0   2   32.10    4.00
   6   0   2   46.20    5.50
   6   0   2   33.70   10.10
  -7   0  -2    0.10    2.10
   7   0   2   -2.80    1.90
   7  -1  -2   29.10    4.40
  -7  -1   2   31.60    4.80
  -7   1   2   30.10    4.70
   7   1  -2   28.40    4.30
   6  -1  -2    2.70    2.30
  -6  -1   2    3.30    3.90
  -6   1   2   13.40    5.20
   6   1  -2    5.10    2.20
   6   1  -2    7.70    4.20
  -6   1   2    6.20    1.60
   6   1  -2   10.00    3.20
  -5  -1   2  160.38   12.80
   5  -1  -2  137.29   13.70
  -5  -1   2  141.69   13.50
   5  -1  -2  167.48   12.90
   5   1  -2  165.38   12.30
   5   1  -2  175.78   13.00
  -5   1   2  145.79   13.60
  -5   1   2  175.38   13.00
  -5   1   2  166.18   11.90
   5   1  -2  159.68   13.90
   4  -1  -2  973.90   65.49
  -4  -1   2  930.51   66.79
   4  -1  -2  934.31   66.79
  -4  -1   2  933.71   65.39
  -4  -1   2  995.80   66.09
   4  -1  -2  939.01   65.99
   4   1  -2  941.81   66.89
   4   1  -2  940.81   65.99
  -4   1   2  895.91   66.79
  -4   1   2  932.91   65.39
  -4   1   2  895.71   65.99
  -3  -1   2   12.40    2.30
   3  -1  -2   12.20    2.30
   3  -1  -2   11.50    2.00
  -3  -1   2    9.80    2.00
   3   1  -2    7.50    1.50
  -3   1   2    8.10    1.60
   3   1  -2    7.20    1.40
   3   1  -2    6.50    1.90
  -3   1   2    7.30    1.90
  -3   1   2    8.20    1.30
   2  -1  -2  775.12   61.29
  -2  -1   2  843.52   61.69
  -2  -1   2  833.72   61.09
   2  -1  -2  867.31   61.59
  -2  -1   2  818.22   61.29
   2   1  -2  841.42   61.29
  -2   1   2  817.32   61.29
  -2   1   2  949.60   61.09
  -2   1   2  995.50   61.79
  -2   1   2  926.21   61.69
   2   1  -2  935.51   61.29
   2   1  -2  955.40   61.79
  -1  -1   2  429.66   35.00
   1  -1  -2  483.25   35.10
  -1  -1   2  511.75   35.30
  -1  -1   2  507.25   35.20
  -1   1   2  446.96   34.80
  -1   1   2  496.25   35.10
   1   1  -2  575.94   35.40
   1   1  -2  538.65   35.20
  -1   1   2  528.95   35.20
   0   1  -2 2415.26  167.38
   2  -1   2  544.65   34.40
  -2  -1  -2  522.85   34.30
  -2  -1  -2  448.16   33.90
   2  -1   2  502.05   33.90
   2  -1   2  510.15   34.10
   2   1   2  488.05   34.30
  -2   1  -2  446.56   34.30
  -2   1  -2  523.95   34.40
   2   1   2  447.96   34.30
  -2   1  -2  433.76   34.00
  -2   1  -2  509.85   33.80
   2   1   2  429.76   33.80
   3  -1   2  167.18   13.00
   3  -1   2  201.28   13.60
   3  -1   2  175.38   12.70
  -3  -1  -2  180.28   12.90
   3   1   2  180.68   12.80
  -3   1  -2  165.98   12.50
  -3   1  -2  155.18   13.30
   3   1   2  175.38   13.00
   3   1   2  185.58   13.80
  -3   1  -2  148.69   12.90
   3   1   2  184.68   13.50
   4  -1   2  444.76   31.20
   4  -1   2  439.96   31.80
  -4  -1  -2  430.86   31.00
   4  -1   2  450.45   30.70
   4   1   2  413.36   30.70
  -4   1  -2  434.16   30.50
   4   1   2  416.86   31.70
   4   1   2  411.26   31.10
  -4   1  -2  437.46   31.80
  -5  -1  -2  218.58   15.70
   5  -1   2  196.58   16.50
   5  -1   2  218.58   15.90
  -5   1  -2  191.48   14.70
   5   1   2  187.48   15.60
  -5   1  -2  193.68   15.70
   5   1   2  194.88   15.20
   6  -1   2   16.00    3.80
  -6  -1  -2   16.70    4.00
  -6   1  -2   20.20    4.70
   6   1   2   23.20    4.30
  -7  -1  -2   39.40    5.40
   7  -1   2   35.10    4.90
   7   1   2   40.00    5.00
   7   1   2   32.30    4.50
  -7   1  -2   40.20    5.40
   7  -2  -2   13.60    2.70
  -7  -2   2   14.10    3.40
   7   2  -2   12.00    2.60
   7   2  -2   13.80    3.70
  -7   2   2   24.10    5.30
   6  -2  -2   61.79    6.20
  -6  -2   2   63.49    6.50
   6   2  -2   53.29    6.20
  -6   2   2   55.09    6.40
  -6   2   2   48.00    5.50
   6   2  -2   53.49    5.60
  -5  -2   2  351.06   24.30
   5  -2  -2  338.07   24.30
   5   2  -2  301.77   25.40
  -5   2   2  344.27   23.50
   5   2  -2  329.97   24.30
  -5   2   2  300.27   25.20
   5   2  -2  312.47   23.70
  -5   2   2  332.37   24.50
   4  -2  -2   23.60    4.10
   4  -2  -2   25.10    3.50
  -4  -2   2   26.80    4.30
  -4  -2   2   18.50    3.60
   4   2  -2   21.60    4.40
   4   2  -2   24.20    3.60
  -4   2   2   25.40    3.60
  -4   2   2   20.70    3.90
  -3  -2   2  195.08   17.00
  -3  -2   2  209.28   16.60
   3  -2  -2  198.58   17.00
   3   2  -2  251.97   16.60
  -3   2   2  232.48   16.30
   3   2  -2  257.67   17.60
  -3   2   2  239.58   17.40
  -3   2   2  233.28   17.40
   3   2  -2  243.68   17.50
   2  -2  -2  650.23   45.70
  -2  -2   2  701.13   45.80
  -2  -2   2  684.83   46.10
   2   2  -2  578.64   45.70
   2   2  -2  700.53   46.30
   2   2  -2  648.14   46.10
  -2   2   2  709.13   46.20
  -2   2   2  624.84   45.40
  -2   2   2  609.64   46.00
   2   2  -2  629.54   45.60
  -1  -2   2  348.47   23.50
  -1  -2   2  292.27   23.70
   1   2  -2  364.96   23.70
  -1   2   2  299.97   23.10
  -1   2   2  361.76   23.60
   1   2  -2  375.26   23.90
  -1   2   2  320.97   23.50
   1   2  -2  307.27   23.30
   0   2  -2 5461.35  338.97
   0   2  -2 4326.07  338.47
   1  -2   2 2984.10  212.28
   1  -2   2 2804.42  211.98
   1  -2   2 3082.49  212.18
  -1  -2  -2 2695.53  211.68
  -1   2  -2 3416.56  211.78
   1   2   2 3377.16  211.98
  -2  -2  -2  173.58   12.90
   2  -2   2  165.88   13.20
   2  -2   2  191.88   13.50
   2   2   2  196.48   13.40
  -2   2  -2  162.98   13.10
   2   2   2  186.58   13.30
  -2   2  -2  177.08   13.40
   2   2   2  177.18   12.70
   2   2   2  176.48   13.10
  -2   2  -2  183.78   13.50
   3  -2   2 2115.09  148.69
   3  -2   2 2215.88  149.49
  -3  -2  -2 2071.19  148.79
   3  -2   2 2118.19  148.99
   3   2   2 2178.88  149.69
   3   2   2 2258.77  149.39
   3   2   2 2110.89  148.69
  -3   2  -2 1969.20  148.99
  -3   2  -2 2323.37  149.88
  -3   2  -2 2189.18  148.49
   3   2   2 1999.20  148.89
   4  -2   2  817.32   57.69
   4  -2   2  818.12   56.99
  -4   2  -2  816.12   57.69
   4   2   2  801.22   56.69
   4   2   2  791.32   56.89
  -4   2  -2  779.32   56.99
  -4   2  -2  801.02   56.29
   4   2   2  810.72   57.59
   5  -2   2   48.80    5.60
  -5  -2  -2   45.50    5.40
   5   2   2   51.69    6.50
   5   2   2   49.40    5.00
  -5   2  -2   45.30    5.50
  -5   2  -2   47.00    4.40
   5   2   2   43.90    5.40
   6  -2   2   36.30    4.90
  -6  -2  -2   43.60    5.40
  -6   2  -2   36.20    5.70
   6   2   2   37.50    5.20
  -7  -2  -2    3.00    3.10
   7  -2   2    1.40    2.00
  -7   2  -2    3.80    3.20
   7   2   2    0.70    2.30
   7   2   2   -2.10    1.60
   7  -3  -2   50.99    4.80
  -7  -3   2   38.90    5.30
  -7   3   2   57.39    5.70
   7   3  -2   42.30    4.70
   7   3  -2   42.60    5.40
  -7   3   2   45.70    4.80
   6  -3  -2   39.70    4.50
  -6  -3   2   28.00    4.70
   6   3  -2   28.30    4.50
  -6   3   2   33.70    3.50
   6   3  -2   24.80    4.20
  -6   3   2   28.20    5.00
   5  -3  -2  139.79   10.90
  -5  -3   2  136.49   11.00
   5   3  -2  128.59   12.40
  -5   3   2  133.29   11.30
   5   3  -2  132.29   11.00
  -5   3   2  124.99   12.00
   5   3  -2  127.49   10.50
  -5   3   2  131.19   10.10
  -4  -3   2  239.78   17.30
   4  -3  -2  229.78   17.10
  -4   3   2  224.78   17.40
  -4   3   2  236.68   18.20
   4   3  -2  222.38   17.20
  -4   3   2  226.68   16.60
   4   3  -2  226.18   18.30
   3  -3  -2  121.99   10.60
   3  -3  -2  135.59   10.00
  -3  -3   2  133.49   10.20
  -3   3   2  134.19   10.80
  -3   3   2  123.39   10.10
  -3   3   2  133.59    9.60
   3   3  -2  121.19   11.00
   3   3  -2  132.69   11.00
   3   3  -2  138.49   10.00
  -3   3   2  143.69   11.00
  -2  -3   2  568.84   40.50
  -2  -3   2  510.65   40.50
  -2   3   2  587.94   40.10
   2   3  -2  534.55   40.40
  -2   3   2  602.04   40.90
  -2   3   2  675.83   41.10
  -2   3   2  514.95   40.40
   2   3  -2  616.14   40.30
  -1  -3   2 1432.16   99.89
  -1  -3   2 1346.37   99.89
   1   3  -2 1577.44  100.59
  -1   3   2 1388.06  100.09
  -1   3   2 1528.35  100.19
   1   3  -2 1309.37   99.89
   1   3  -2 1503.65  100.29
   0   3  -2   16.90    2.40
   0   3  -2   12.10    2.10
   0   3  -2   12.50    1.30
   1  -3   2 4151.58  315.97
  -1   3  -2 4577.54  315.77
  -1   3  -2 4836.52  316.47
   1   3   2 4691.23  316.07
  -2  -3  -2 1452.85   96.29
   2  -3   2 1221.98   97.39
   2  -3   2 1430.56   96.59
  -2   3  -2 1407.76   97.19
  -2   3  -2 1450.15   96.19
  -2   3  -2 1256.27   96.59
   2   3   2 1424.56   96.89
   2   3   2 1448.06   96.79
  -3  -3  -2  144.19   10.90
   3  -3   2  149.79   11.20
   3  -3   2  135.09   11.70
   3   3   2  130.29   11.00
  -3   3  -2  152.58   10.60
  -3   3  -2  143.79   11.30
   3   3   2  152.18   10.80
   3   3   2  136.99   11.80
   3   3   2  160.28   11.80
   4  -3   2  175.38   12.30
  -4  -3  -2  165.58   12.00
   4   3   2  140.29   11.70
  -4   3  -2  151.68   12.30
   4   3   2  147.49   12.90
  -4   3  -2  156.28   11.50
   4   3   2  138.79   12.00
  -5  -3  -2  161.68   11.70
   5  -3   2  143.89   11.70
  -5   3  -2  135.49   10.70
   5   3   2  127.69   11.40
  -5   3  -2  136.49   11.90
   5   3   2  127.29   12.50
   5   3   2  150.18   11.40
   6  -3   2   -0.20    1.70
  -6  -3  -2    0.30    2.20
  -6   3  -2    1.70    2.70
   6   3   2    5.50    2.70
  -6   3  -2   -1.00    1.20
   7  -3   2   12.20    2.40
  -7   3  -2   10.40    3.00
   7   3   2   10.20    2.30
   7   3   2    8.70    3.40
   6  -4  -2   77.59    6.70
   6   4  -2   67.99    6.80
   6   4  -2   69.89    7.50
  -6   4   2   77.09    6.40
  -6   4   2   88.69    8.30
  -5  -4   2   41.20    5.70
   5  -4  -2   57.79    5.40
   5   4  -2   51.99    5.50
  -5   4   2   56.49    7.00
   5   4  -2   54.29    7.20
   5   4  -2   52.49    5.80
  -5   4   2   63.99    6.40
  -5   4   2   56.99    5.00
  -4  -4   2    6.80    2.40
   4  -4  -2   10.30    2.00
  -4   4   2    8.80    2.80
   4   4  -2    8.50    2.30
  -4   4   2    8.30    1.70
   4   4  -2    7.60    2.70
  -4   4   2    5.20    1.80
   3  -4  -2  339.67   24.50
  -3  -4   2  329.87   24.80
  -3   4   2  386.96   26.00
   3   4  -2  295.57   24.80
   3   4  -2  385.16   26.10
  -3   4   2  342.17   25.00
  -3   4   2  342.07   24.40
  -2   4   2   51.69    4.00
   2   4  -2   54.19    5.30
   2   4  -2   49.10    5.10
  -2   4   2   57.59    5.20
  -2   4   2   51.29    4.90
  -1   4   2  141.09   11.10
   1   4  -2  161.88   11.90
   1   4  -2  167.18   11.60
  -1   4   2  139.79   11.20
   0   4  -2  771.02   51.69
   0   4  -2  689.03   51.49
   1  -4   2  913.71   72.69
   1   4   2 1054.59   72.69
  -1   4  -2 1082.69   73.19
  -1   4  -2 1083.59   72.49
  -1   4  -2 1090.29   73.39
   2  -4   2  126.29    9.00
  -2   4  -2  104.89    9.20
   2   4   2  108.79    9.40
   2   4   2  121.39    9.30
  -2   4  -2  126.69    9.70
  -2   4  -2  126.29    8.60
  -2   4  -2  111.99    9.80
   3  -4   2  284.67   21.90
   3   4   2  262.57   23.00
  -3   4  -2  311.07   21.50
   3   4   2  326.37   22.70
  -3   4  -2  307.67   22.30
   3   4   2  317.97   22.00
  -4  -4  -2  165.28   13.40
   4  -4   2  202.68   14.20
  -4   4  -2  181.78   14.50
   4   4   2  194.28   15.20
  -4   4  -2  173.68   15.00
  -4   4  -2  174.48   13.50
   4   4   2  187.68   13.90
   5  -4   2    3.30    2.00
  -5  -4  -2    0.20    1.70
  -5   4  -2    3.20    2.60
   5   4   2   -0.20    1.70
  -5   4  -2    2.90    1.40
   5   4   2    7.70    3.00
  -5   4  -2    2.90    2.20
   6  -4   2    8.00    2.20
  -6   4  -2    6.10    1.70
   6   4   2    3.00    2.00
  -6   4  -2    5.40    2.40
   6   5  -2   12.40    3.00
  -6   5   2   22.40    3.60
   5  -5  -2  135.59   10.30
   5   5  -2  128.39   11.00
  -5   5   2  152.08   10.80
   4  -5  -2  148.49   10.60
   4   5  -2  142.19   13.00
  -4   5   2  151.58   13.00
   4   5  -2  135.29   11.30
  -4   5   2  153.08   11.10
  -3   5   2   53.39    5.70
   3   5  -2   39.00    4.40
   3   5  -2   44.00    5.80
  -3   5   2   49.80    4.10
  -2   5   2  161.78   11.70
   2   5  -2  120.59   11.10
  -2   5   2  149.69   11.70
   2   5  -2  155.58   11.90
  -2   5   2  142.89   10.50
  -1   5   2 1166.08   80.49
   1   5  -2  991.80   79.99
  -1   5   2 1197.08   80.39
   1   5  -2 1258.47   81.19
   0   5  -2  345.57   24.30
   0   5  -2  327.27   24.40
   0   5  -2  315.87   23.10
  -1   5  -2 1353.86   98.09
  -1   5  -2 1418.06   96.99
  -1   5  -2 1423.46   98.09
   2  -5   2  179.28   14.30
  -2   5  -2  206.98   14.40
   2   5   2  214.38   15.10
  -2   5  -2  206.98   15.50
   2   5   2  209.48   15.00
   2   5   2  187.88   14.30
   3  -5   2  193.58   14.50
   3   5   2  204.68   15.50
  -3   5  -2  183.48   15.20
  -3   5  -2  198.28   15.70
  -3   5  -2  193.38   14.40
   3   5   2  204.68   14.50
   4  -5   2  159.38   11.60
  -4   5  -2  148.29   11.30
  -4   5  -2  141.59   12.30
  -4   5  -2  152.48   13.00
   4   5   2  142.59   12.80
   4   5   2  147.29   11.60
   5  -5   2   68.19    6.10
  -5   5  -2   70.89    7.20
  -5   5  -2   60.79    5.80
   5   5   2   66.39    6.50
   6  -5   2   12.60    2.00
  -6   5  -2    8.70    3.10
   6   5   2    8.80    2.40
  -6   5  -2   10.90    2.50
   5   6  -2   30.90    4.50
  -5   6   2   38.90    4.00
   4   6  -2   20.70    3.80
  -4   6   2   27.00    3.20
  -3   6   2   48.50    4.10
  -3   6   2   46.00    5.20
   3   6  -2   40.70    5.50
   3   6  -2   42.90    4.60
  -2   6   2  211.58   15.00
   2   6  -2  176.78   14.20
   2   6  -2  186.78   15.30
  -2   6   2  202.98   14.00
  -1   6   2    8.00    1.00
   0   6  -2  497.25   33.60
   0   6  -2  507.55   35.00
   0   6  -2  435.06   34.80
  -1   6  -2  181.58   15.70
  -1   6  -2  176.58   12.80
   2   6   2  232.78   17.80
  -2   6  -2  260.47   17.80
  -2   6  -2  260.77   19.40
   2   6   2  239.78   18.10
  -3   6  -2  248.18   18.20
   3   6   2  267.17   18.40
  -3   6  -2  244.98   19.70
   3   6   2  243.18   18.90
   4   6   2   70.29    6.30
  -4   6  -2   61.59    5.70
   5   6   2    3.10    1.90
  -5   6  -2    4.00    1.50
  -5   7   2   23.00    2.90
   5   7  -2   20.50    3.30
  -4   7   2   45.10    4.30
   4   7  -2   40.40    4.70
   3   7  -2   25.90    3.60
  -3   7   2   26.40    3.10
   2   7  -2   31.00    3.50
  -2   7   2   30.30    2.90
   2   7  -2   26.90    4.10
  -2   7   2   25.30    4.20
   1   7  -2  257.97   17.60
  -1   7   2  260.27   17.30
   1   7  -2  213.18   18.10
   0   7  -2   91.19    8.60
   0   7  -2  110.69    7.70
  -1   7  -2  299.37   21.30
  -2   7  -2  233.48   15.80
  -2   7  -2  197.18   17.50
  -3   7  -2   58.69    5.20
  -4   7  -2   10.80    2.00
   4   7   2    9.80    2.30
   5   7   2   23.40    3.50
  -5   7  -2   23.30    3.00
  -4   8   2    7.30    1.70
   4   8  -2    3.80    1.80
  -3   8   2   33.30    3.30
   3   8  -2   29.10    3.60
   2   8  -2   17.60    2.80
  -2   8   2   18.80    2.40
  -1   8   2   22.10    2.30
   1   8  -2   21.20    2.70
   0   8  -2   96.89    7.40
  -1   8  -2   90.79    7.10
   2   8   2   75.09    6.40
  -2   8  -2   91.09    6.80
  -3   8  -2   15.50    2.50
   3   8   2   12.30    2.20
   4   8   2   56.19    5.00
  -4   8  -2   52.79    4.90
  -2   9   2   12.90    1.90
   2   9  -2   10.50    2.00
   1   9  -2   28.50    2.80
  -1   9   2   30.70    2.90
   0   9  -2   48.90    4.10
  -1   9  -2   96.69    7.50
  -2   9  -2   26.60    3.00
  -7   0   3    6.60    2.90
   7   0  -3    6.60    2.40
   6   0  -3   37.90    6.40
  -6   0   3   32.20    6.30
   5   0  -3   60.29    5.90
  -5   0   3   43.20    6.20
   5   0  -3   44.40    6.50
  -5   0   3   51.79    4.60
   5   0  -3   53.29    5.00
  -5   0   3   54.19    5.80
  -4   0   3  400.16   25.90
   4   0  -3  370.26   26.50
   4   0  -3  371.26   26.00
  -4   0   3  367.36   26.50
  -4   0   3  303.97   29.00
   4   0  -3  368.46   27.40
  -3   0   3 1012.60   66.79
   3   0  -3  971.90   67.69
   3   0  -3  925.01   66.99
   3   0  -3  955.30   66.79
  -3   0   3  937.41   67.69
  -3   0   3  950.30   67.09
  -2   0   3  169.88   12.40
   2   0  -3  184.48   12.50
   2   0  -3  151.38   11.70
  -2   0   3  170.18   11.70
   2   0  -3  149.88   11.80
   2   0  -3  169.18   12.30
  -2   0   3  155.98   11.90
   1   0  -3 5726.23  396.16
   0   0  -3   44.00    3.60
   0   0  -3   48.20    3.70
   0   0   3   37.80    3.60
  -1   0  -3  393.56   25.00
   1   0   3  315.67   24.70
   1   0   3  360.86   25.10
   1   0   3  385.46   25.10
  -1   0  -3  302.87   24.80
  -1   0  -3  367.16   25.10
   2   0   3 1898.81  139.49
   2   0   3 2222.98  139.89
   2   0   3 1921.81  139.29
   2   0   3 1993.00  139.89
   3   0   3  122.99    9.90
  -3   0  -3  122.19    9.80
   3   0   3  134.79   10.40
   3   0   3  127.99    9.60
  -3   0  -3  137.89    9.50
  -4   0  -3  547.55   39.80
   4   0   3  568.94   39.90
   4   0   3  569.04   40.40
   4   0   3  563.24   39.40
  -4   0  -3  533.45   39.20
  -5   0  -3   90.99    9.20
   5   0   3   97.69    8.70
  -5   0  -3  104.89    8.80
   5   0   3  101.39    8.10
   5   0   3   87.09    9.20
   6   0   3    0.40    1.90
   6   0   3    0.60    4.10
  -6   0  -3   -0.60    1.70
   7   0   3    1.90    2.10
  -7   0  -3   -2.10    1.80
   7  -1  -3    3.30    2.30
  -7  -1   3    3.80    2.30
  -7   1   3   -1.00    2.30
   7   1  -3    1.30    2.10
  -6  -1   3   11.00    2.80
   6  -1  -3   14.60    3.00
   6   1  -3    9.90    3.90
   6   1  -3    1.30    4.60
   6   1  -3   10.90    2.40
  -6   1   3    6.00    2.60
  -6   1   3    9.60    5.60
  -6   1   3    8.10    1.80
   5  -1  -3  201.88   15.90
   5  -1  -3  180.38   16.80
  -5  -1   3  218.88   16.10
  -5  -1   3  171.88   16.60
  -5   1   3  190.98   16.80
   5   1  -3  197.38   17.10
  -5   1   3  230.48   15.10
   5   1  -3  220.18   15.40
   5   1  -3  215.08   16.10
  -5   1   3  222.58   16.20
   4  -1  -3  113.79   10.40
  -4  -1   3  121.79    9.80
  -4  -1   3  111.39   10.40
   4  -1  -3  122.59    9.10
   4  -1  -3  126.39    9.70
   4   1  -3  117.39   10.70
   4   1  -3  119.89    9.70
  -4   1   3  133.49    9.10
  -4   1   3  124.49    9.80
   4   1  -3  114.89    9.20
  -4   1   3  122.29   10.60
   3  -1  -3 1054.29   76.19
   3  -1  -3 1161.58   76.89
  -3  -1   3 1176.38   76.39
  -3  -1   3 1160.88   75.89
   3  -1  -3 1109.09   75.89
  -3  -1   3 1118.89   76.89
   3   1  -3 1039.90   76.19
   3   1  -3 1138.79   76.99
   3   1  -3  964.70   75.89
  -3   1   3  990.20   76.19
  -3   1   3 1107.89   75.89
  -3   1   3 1077.79   76.89
   2  -1  -3 1814.02  136.99
  -2  -1   3 2090.89  136.99
   2  -1  -3 2085.89  137.49
  -2  -1   3 1939.71  137.09
  -2  -1   3 1983.70  137.49
  -2   1   3 2129.69  137.49
   2   1  -3 2193.28  137.69
  -2   1   3 1973.90  137.39
  -2   1   3 1820.22  137.09
   2   1  -3 1849.21  136.99
  -2   1   3 2037.40  136.79
   2   1  -3 1781.42  136.89
   1  -1  -3  417.46   26.60
  -1  -1   3  363.46   26.00
   1  -1  -3  378.96   25.80
  -1  -1   3  352.66   26.10
  -1  -1   3  329.97   25.70
   1   1  -3  380.76   25.80
   1   1  -3  403.56   26.20
   1   1  -3  310.37   25.60
  -1   1   3  353.56   25.90
   1   1  -3  379.36   26.00
  -1   1   3  372.26   25.90
   0  -1   3 2549.04  180.28
   0  -1   3 2729.83  180.28
   0  -1  -3 2618.14  179.98
   0  -1   3 2318.67  180.08
   0  -1  -3 2679.13  180.08
   0   1   3 2688.63  180.18
   0   1  -3 2266.37  180.28
   0   1   3 2903.11  180.18
   0   1  -3 2652.63  179.98
  -1  -1  -3 3844.62  258.77
   1  -1   3 4061.89  259.07
   1  -1   3 3799.52  258.67
  -1  -1  -3 3617.94  258.67
   1  -1   3 3883.11  258.77
  -1   1  -3 3506.25  258.77
   1   1   3 3653.53  258.57
  -1   1  -3 3529.05  258.57
   2  -1   3 1132.19   80.89
   2  -1   3 1270.07   81.49
  -2  -1  -3 1291.57   81.19
  -2  -1  -3 1048.70   80.99
  -2   1  -3 1095.19   81.09
  -2   1  -3 1093.69   81.39
   2   1   3 1143.89   80.79
   2   1   3 1230.68   81.29
  -2   1  -3 1206.98   80.79
   2   1   3 1196.58   81.49
   2   1   3 1092.69   81.09
   3  -1   3 1755.02  127.09
   3  -1   3 1857.71  127.59
  -3  -1  -3 1705.93  126.99
   3  -1   3 1925.51  127.09
   3   1   3 2005.00  127.59
   3   1   3 1800.22  126.79
   3   1   3 1737.63  127.79
  -3   1  -3 1773.32  127.09
   3   1   3 1763.22  127.29
  -3   1  -3 1924.31  126.69
   4  -1   3   28.60    4.20
  -4  -1  -3   19.60    3.50
   4  -1   3   27.50    3.70
  -4  -1  -3   25.60    3.50
   4  -1   3   24.70    2.90
   4   1   3   23.50    3.50
  -4   1  -3   21.80    3.40
  -4   1  -3   21.80    2.60
   4   1   3   22.00    4.00
   4   1   3   24.40    3.00
  -5  -1  -3   23.20    4.10
   5  -1   3   31.50    5.10
   5  -1   3   20.80    4.90
   5   1   3   27.70    4.90
  -5   1  -3   23.50    4.10
  -5   1  -3   20.60    2.90
   5   1   3   24.70    4.30
   5   1   3   27.80    3.60
   6  -1   3   82.49    8.00
  -6  -1  -3   89.59    8.30
   6   1   3   76.79   10.80
  -6   1  -3   78.19    8.10
  -7  -1  -3   -0.20    2.20
   7  -1   3    3.20    2.10
   7   1   3    4.10    2.40
  -7   1  -3    2.30    2.70
   7   1   3   -0.80    2.20
   7  -2  -3   51.89    5.30
  -7  -2   3   39.70    5.50
   7   2  -3   30.00    5.70
   7   2  -3   40.40    5.10
  -7   2   3   45.00    6.00
  -6  -2   3   -0.10    2.30
   6  -2  -3    4.70    2.20
   6   2  -3    1.20    2.10
  -6   2   3    3.60    2.60
  -6   2   3    5.00    1.50
   6   2  -3    6.00    2.60
   5  -2  -3    8.50    2.40
  -5  -2   3   10.90    2.80
   5   2  -3   13.90    2.70
  -5   2   3   13.30    2.10
   5   2  -3   14.50    3.70
  -5   2   3    7.80    2.80
   5   2  -3   12.90    3.00
  -5   2   3   11.80    2.90
  -4  -2   3  714.03   57.39
   4  -2  -3  765.22   57.59
   4  -2  -3  827.12   56.79
  -4  -2   3  855.61   56.89
   4   2  -3  844.32   57.99
  -4   2   3  788.12   56.99
  -4   2   3  805.02   57.79
  -4   2   3  812.12   56.29
   4   2  -3  830.82   56.89
   4   2  -3  808.42   56.99
  -3  -2   3   30.80    4.30
  -3  -2   3   34.30    3.90
   3  -2  -3   34.70    3.70
   3   2  -3   43.60    4.00
  -3   2   3   44.90    5.20
  -3   2   3   45.70    3.40
  -3   2   3   40.90    4.40
   3   2  -3   42.80    4.80
  -3   2   3   46.40    4.70
  -2  -2   3   64.69    5.70
   2  -2  -3   65.89    5.50
  -2  -2   3   73.89    5.60
   2  -2  -3   58.59    5.10
   2   2  -3   77.29    6.10
   2   2  -3   68.49    5.80
   2   2  -3   58.49    5.20
  -2   2   3   67.99    5.60
  -2   2   3   70.19    5.80
  -1  -2   3 1571.74  105.89
  -1  -2   3 1450.25  105.69
   1  -2  -3 1376.16  105.39
   1   2  -3 1723.23  105.99
  -1   2   3 1731.93  105.89
  -1   2   3 1553.04  105.79
   1   2  -3 1401.56  105.59
   1   2  -3 1373.46  105.49
   0  -2   3  447.46   34.90
   0  -2   3  561.64   35.20
   0  -2   3  439.16   35.00
   0   2   3  576.04   34.90
   0   2  -3  517.35   35.30
   0   2  -3  475.15   35.30
   0   2  -3  484.95   34.80
   1  -2   3  707.63   58.49
  -1   2  -3  914.01   58.99
   1   2   3  887.91   58.59
  -1   2  -3  906.01   58.89
   1   2   3  843.82   58.49
  -1   2  -3  784.62   58.59
  -2  -2  -3 1648.14  108.19
  -2  -2  -3 1475.45  108.09
   2  -2   3 1557.04  108.29
   2  -2   3 1661.63  108.79
  -2   2  -3 1501.05  108.29
  -2   2  -3 1533.95  108.69
   2   2   3 1449.85  107.89
  -2   2  -3 1583.84  107.89
   2   2   3 1449.26  108.19
   2   2   3 1653.93  108.49
   2   2   3 1603.64  108.59
   3  -2   3  332.17   24.10
  -3  -2  -3  362.26   24.10
   3  -2   3  328.27   23.60
   3  -2   3  337.67   24.60
  -3   2  -3  343.57   24.30
   3   2   3  335.97   24.40
   3   2   3  326.17   23.70
   3   2   3  315.47   24.00
   3   2   3  330.17   24.70
  -3   2  -3  318.27   23.60
   4  -2   3  258.57   18.50
   4  -2   3  246.18   19.10
  -4  -2  -3  248.58   18.40
  -4   2  -3  253.57   17.70
   4   2   3  226.28   18.30
   4   2   3  242.58   18.00
  -4   2  -3  239.18   18.50
   4   2   3  242.98   19.00
   5  -2   3  179.78   13.10
  -5   2  -3  158.08   13.00
   5   2   3  152.18   13.70
  -5   2  -3  152.98   13.50
  -5   2  -3  157.28   11.90
   5   2   3  153.48   12.40
   5   2   3  153.38   12.80
   6  -2   3   11.00    2.80
  -6  -2  -3   19.30    3.60
   6   2   3   11.00    2.90
  -6   2  -3   14.30    3.40
   6   2   3   14.70    2.90
  -6   2  -3   12.90    2.50
  -7  -2  -3    4.50    2.30
   7  -2   3    3.50    2.20
   7   2   3    2.40    1.80
  -7   2  -3    1.40    2.70
   7   2   3    3.20    2.40
   7  -3  -3    6.30    1.90
  -7  -3   3    4.80    2.40
  -7   3   3    7.60    2.00
  -7   3   3    2.60    2.60
   7   3  -3    7.60    2.20
   7   3  -3    2.30    2.30
  -6  -3   3   35.60    5.60
   6  -3  -3   39.60    5.00
   6   3  -3   46.10    5.20
  -6   3   3   57.79    6.40
   6   3  -3   49.20    5.60
  -6   3   3   49.50    4.40
  -5  -3   3   66.89    6.70
   5  -3  -3   74.79    6.40
   5   3  -3   66.39    7.80
   5   3  -3   62.39    6.40
  -5   3   3   63.09    5.50
  -5   3   3   67.79    6.80
   5   3  -3   57.79    6.10
  -5   3   3   57.19    7.30
   4  -3  -3   19.30    3.10
  -4  -3   3   15.00    2.90
  -4   3   3   21.10    2.40
   4   3  -3   13.10    2.70
   4   3  -3   14.40    3.60
  -4   3   3   17.20    3.10
   4   3  -3   17.40    3.10
  -4   3   3   19.30    4.00
   3  -3  -3  415.96   29.40
  -3  -3   3  396.16   30.70
   3  -3  -3  441.56   30.00
  -3  -3   3  448.66   29.70
  -3   3   3  398.06   30.30
   3   3  -3  438.36   30.60
   3   3  -3  410.46   29.60
   3   3  -3  427.06   30.60
  -3   3   3  368.26   29.60
  -3   3   3  412.66   30.40
  -3   3   3  402.66   29.10
  -2  -3   3 1639.84  117.49
  -2  -3   3 1783.52  116.79
   2  -3  -3 1626.34  116.39
  -2   3   3 1425.16  116.59
   2   3  -3 1554.64  116.59
  -2   3   3 1872.61  117.99
  -2   3   3 1599.44  116.99
  -2   3   3 1625.24  116.29
   2   3  -3 1819.82  118.69
   2   3  -3 1846.12  117.29
  -1  -3   3  674.73   47.20
  -1  -3   3  664.63   47.30
   1   3  -3  783.72   47.60
  -1   3   3  671.43   47.30
  -1   3   3  624.34   47.20
   1   3  -3  574.64   46.90
   1   3  -3  665.43   47.10
   1   3  -3  748.23   48.00
   0  -3   3  370.06   23.10
   0   3  -3  338.67   23.60
   0   3  -3  311.37   23.60
   0   3  -3  288.47   22.80
   1  -3   3  998.60   77.39
   1  -3   3 1208.28   77.69
  -1   3  -3 1173.48   77.99
   1   3   3 1099.79   77.29
  -1   3  -3 1014.20   77.49
   1   3   3 1140.09   77.99
  -1   3  -3 1150.78   77.79
  -2  -3  -3  697.83   49.00
   2  -3   3  671.03   49.99
   2  -3   3  725.23   49.50
  -2   3  -3  720.33   49.00
  -2   3  -3  746.93   50.09
   2   3   3  659.23   49.00
  -2   3  -3  685.33   49.50
   2   3   3  722.83   49.70
   3  -3   3  743.93   50.59
  -3  -3  -3  785.12   50.19
   3  -3   3  727.73   51.29
   3   3   3  696.93   51.19
  -3   3  -3  716.03   51.09
  -3   3  -3  675.13   50.59
  -3   3  -3  724.43   49.99
   3   3   3  639.84   50.29
   3   3   3  734.53   50.89
   3   3   3  704.13   50.09
   4  -3   3  168.88   15.10
  -4  -3  -3  190.18   14.90
  -4   3  -3  201.48   15.80
   4   3   3  221.78   16.50
   4   3   3  207.28   14.90
   4   3   3  194.58   15.10
  -4   3  -3  202.98   14.60
   5  -3   3   34.30    4.70
  -5  -3  -3   36.40    4.80
  -5   3  -3   31.50    5.30
   5   3   3   30.50    4.20
   5   3   3   33.30    4.60
   5   3   3   39.00    5.80
  -5   3  -3   33.10    4.70
  -5   3  -3   31.40    3.60
   6  -3   3   41.20    5.10
  -6  -3  -3   40.10    5.30
   6   3   3   43.70    5.20
   6   3   3   44.50    5.70
  -6   3  -3   46.20    4.30
  -6   3  -3   44.70    5.80
   7  -3   3    4.60    2.00
  -7  -3  -3    3.20    2.30
   7   3   3   -1.70    3.50
   7   3   3    2.40    1.90
  -7   3  -3    8.10    2.60
   6  -4  -3   15.30    2.90
  -6   4   3   17.50    2.70
  -6   4   3   22.10    4.00
   6   4  -3   18.00    3.30
   6   4  -3   14.20    3.00
  -5  -4   3   15.60    3.40
   5  -4  -3   21.90    3.20
  -5   4   3   18.40    4.20
   5   4  -3   26.40    4.40
   5   4  -3   24.00    4.20
  -5   4   3   21.30    2.90
   5   4  -3   29.50    5.50
  -5   4   3   22.50    4.10
   4  -4  -3  577.34   39.20
  -4  -4   3  548.75   39.60
   4   4  -3  556.04   41.10
  -4   4   3  570.54   39.10
  -4   4   3  535.75   39.80
  -4   4   3  548.95   40.90
   4   4  -3  529.95   39.30
   4   4  -3  561.24   39.70
  -3  -4   3  238.78   18.50
   3  -4  -3  255.57   18.00
   3   4  -3  233.08   18.20
  -3   4   3  257.77   18.00
  -3   4   3  235.08   18.50
  -3   4   3  282.47   19.60
   3   4  -3  250.47   18.40
   3   4  -3  268.27   19.70
  -2  -4   3  203.78   12.90
   2   4  -3  157.58   12.70
   2   4  -3  158.58   13.60
  -2   4   3  186.08   13.60
   2   4  -3  176.58   12.90
   2   4  -3  195.98   14.00
  -2   4   3  170.68   13.30
  -2   4   3  160.18   12.50
  -1  -4   3 1936.41  124.49
  -1   4   3 1811.32  124.59
   1   4  -3 1633.34  124.29
   0  -4   3  499.85   34.10
   0   4  -3  518.85   35.10
   0   4  -3  478.95   35.00
   0   4  -3  449.26   33.90
   1  -4   3  341.37   27.80
  -1   4  -3  413.86   28.50
  -1   4  -3  426.76   27.60
  -1   4  -3  397.36   28.60
   2  -4   3 3759.92  261.47
  -2   4  -3 3951.40  262.07
  -2   4  -3 3578.34  261.67
  -2   4  -3 3817.62  262.37
   2   4   3 3427.76  260.97
  -2   4  -3 3900.91  261.07
   2   4   3 3949.80  261.57
  -3   4  -3    9.00    1.60
   3   4   3    7.10    2.10
  -3   4  -3    7.10    2.20
   4  -4   3  112.19    9.00
  -4   4  -3  105.49    9.80
  -4   4  -3  102.69    8.30
   4   4   3  108.09    9.80
   4   4   3  100.39    8.50
  -4   4  -3  102.49    9.30
  -5  -4  -3  115.39   10.00
  -5   4  -3  141.99   11.50
  -5   4  -3  136.49   12.30
  -5   4  -3  141.69   10.40
   5   4   3  119.89   15.50
  -5   4  -3  136.49   12.30
   5   4   3  119.39   12.50
   6  -4   3   -2.10    1.50
  -6   4  -3   -0.70    1.10
  -6   5   3   16.60    4.00
   6   5  -3   10.80    3.60
  -5   5   3   10.00    2.10
   5   5  -3    7.30    2.70
  -4  -5   3   22.00    3.00
   4   5  -3   31.30    4.10
   4   5  -3   24.40    6.10
  -4   5   3   36.40    3.40
  -4   5   3   37.50    6.90
  -3  -5   3  355.06   24.80
  -3   5   3  358.06   26.40
  -3   5   3  346.37   24.90
   3   5  -3  341.77   25.20
   3   5  -3  354.76   26.70
  -2   5   3  442.36   31.40
   2   5  -3  464.95   33.00
  -2   5   3  436.96   32.40
  -2   5   3  481.95   32.50
   2   5  -3  420.26   31.60
  -1   5   3  486.85   34.40
   1   5  -3  528.85   35.60
   1   5  -3  450.85   34.20
   0   5  -3  357.16   25.10
   0   5  -3  324.47   24.80
   0   5  -3  323.77   23.50
  -1   5  -3  646.84   47.90
  -1   5  -3  714.33   46.70
  -1   5  -3  648.84   48.00
   2  -5   3  150.48   11.50
  -2   5  -3  176.88   12.70
   2   5   3  144.29   11.80
  -2   5  -3  164.58   11.30
   2   5   3  162.28   11.80
   2   5   3  136.79   11.20
  -2   5  -3  156.98   12.20
   3  -5   3  115.69    8.40
  -3   5  -3  107.79    8.90
  -3   5  -3  102.29    8.00
   3   5   3   88.99    8.10
  -3   5  -3  107.39    9.50
   3   5   3   98.89    8.90
   4  -5   3   82.99    7.40
  -4   5  -3   85.79    7.10
   4   5   3   90.29    7.50
   4   5   3   75.49   10.80
  -4   5  -3   85.49    8.20
  -4   5  -3  100.59   10.60
   5  -5   3   16.10    2.60
   5   5   3   13.20    2.80
  -5   5  -3   12.10    2.40
  -5   5  -3   16.10    3.40
   6  -5   3   23.00    3.10
  -6   5  -3   19.50    2.80
  -6   5  -3   16.00    3.30
   5   6  -3   23.80    3.90
  -5   6   3   23.00    3.10
  -4   6   3  297.37   20.60
   4   6  -3  265.47   20.70
   3   6  -3   17.10    2.90
  -3   6   3   19.60    2.50
   2   6  -3   27.00    4.40
   2   6  -3   28.40    3.40
  -2   6   3   28.00    2.70
  -2   6   3   29.80    3.70
   1   6  -3  361.46   26.60
   1   6  -3  392.06   27.90
   0   6  -3  238.18   17.00
  -1   6  -3  102.99    7.30
  -1   6  -3   86.49    9.10
  -2   6  -3 1184.68   81.59
  -2   6  -3 1213.78   83.29
   2   6   3 1115.29   81.49
   3   6   3   70.89    6.70
  -3   6  -3   70.29    6.10
   3   6   3   77.19    6.20
  -4   6  -3   48.50    4.90
   4   6   3   56.39    5.40
  -5   6  -3   35.70    3.90
   5   7  -3    2.20    1.90
  -5   7   3    4.00    1.50
  -4   7   3    6.60    1.70
   4   7  -3    4.90    2.30
   3   7  -3   55.59    5.30
  -3   7   3   54.49    4.90
  -2   7   3   76.69    6.10
   2   7  -3   77.39    6.50
   1   7  -3  120.09    8.60
   1   7  -3   97.49    9.60
  -1   7   3  116.39    8.20
   0   7  -3  170.98   11.30
   0   7  -3  133.59   12.50
  -1   7  -3   51.39    4.30
  -1   7  -3   38.30    9.10
  -2   7  -3   30.20    3.40
  -2   7  -3   20.00    4.90
  -3   7  -3  142.39   10.90
  -4   7  -3   11.60    2.10
   4   7   3    9.80    2.20
  -3   8   3   27.90    3.30
   3   8  -3   26.30    3.40
   2   8  -3   20.30    2.90
  -2   8   3   17.10    2.30
   1   8  -3  118.29    8.80
  -1   8   3  113.99    8.50
   0   8  -3   44.50    4.00
  -1   8  -3   63.59    5.30
  -2   8  -3  373.06   25.40
   2   8   3  334.97   25.00
   3   8   3   38.20    4.60
  -3   8  -3   48.40    4.40
  -2   9   3   10.20    1.80
   2   9  -3    5.50    1.40
   1   9  -3    2.30    1.10
   0   9  -3   90.59    7.00
  -1   9  -3   14.70    2.30
  -2   9  -3   10.60    1.80
  -7   0   4    3.20    2.60
   7   0  -4    2.30    2.10
  -6   0   4  189.28   14.80
   6   0  -4  171.08   14.40
   5   0  -4   95.39    7.50
   5   0  -4   97.69    8.30
  -5   0   4   85.89    9.00
  -5   0   4   96.69    8.50
  -5   0   4   94.19    7.30
   5   0  -4   80.39    9.30
   4   0  -4   61.09    6.90
  -4   0   4   70.49    6.40
   4   0  -4   68.89    5.70
   4   0  -4   68.89    6.00
  -4   0   4   72.89    5.40
  -4   0   4   56.99    6.70
  -3   0   4  341.97   25.90
  -3   0   4  358.66   24.90
   3   0  -4  328.77   25.20
   3   0  -4  367.96   26.10
   3   0  -4  348.57   24.90
  -3   0   4  373.96   25.50
   2   0  -4  950.00   62.19
  -2   0   4  898.31   61.39
   2   0  -4  865.71   61.39
  -2   0   4  837.92   61.69
  -2   0   4  847.22   62.09
  -2   0   4  904.21   62.09
  -1   0   4  995.00   68.59
   1   0  -4  992.80   68.39
   1   0  -4 1107.19   68.69
   1   0  -4  951.60   68.09
  -1   0   4  992.80   68.09
  -1   0   4 1064.29   68.49
   1   0  -4  837.22   68.09
  -1   0   4  909.51   68.19
   0   0   4  542.25   36.50
   0   0  -4  584.44   37.10
   0   0   4  506.35   37.00
   0   0  -4  496.45   36.60
   0   0   4  501.95   36.90
   0   0  -4  519.15   36.90
   1   0   4 6308.27  436.76
  -2   0  -4  408.66   30.90
   2   0   4  448.66   31.50
  -2   0  -4  416.36   30.90
   2   0   4  438.56   31.00
   2   0   4  439.16   30.80
   2   0   4  482.25   31.40
   3   0   4  413.06   29.80
   3   0   4  408.26   29.50
   3   0   4  452.75   30.30
  -3   0  -4  411.46   29.30
  -3   0  -4  390.46   29.70
  -3   0  -4  424.06   30.10
  -4   0  -4  986.50   73.09
   4   0   4 1087.39   74.39
   4   0   4 1055.59   73.79
  -4   0  -4 1035.10   73.99
   4   0   4 1067.59   73.29
   5   0   4    0.30    1.80
   5   0   4    0.70    2.10
  -5   0  -4    2.00    1.90
   5   0   4    0.80    1.50
  -5   0  -4   -2.30    2.20
   6   0   4  110.79    9.80
  -6   0  -4  117.39    9.90
   6   0   4   84.29   12.00
   7   0   4   19.10    3.60
  -7   0  -4   19.60    3.90
  -7  -1   4    8.70    2.70
   7  -1  -4    7.10    2.20
   7   1  -4   12.20    2.80
   6  -1  -4  230.18   16.50
  -6  -1   4  222.88   16.60
  -6   1   4  200.28   15.40
  -6   1   4  172.08   21.30
   6   1  -4  206.48   16.50
  -6   1   4  228.78   16.80
   6   1  -4  195.98   15.60
   5  -1  -4   87.39    9.80
  -5  -1   4  104.09    8.30
   5  -1  -4   87.69    7.90
  -5  -1   4   81.09    9.20
  -5   1   4   77.59    6.90
   5   1  -4   88.09    7.50
  -5   1   4   88.69    8.20
   5   1  -4   93.59    8.10
   5   1  -4   81.79    9.10
  -4  -1   4  348.17   28.10
   4  -1  -4  369.36   28.30
  -4  -1   4  358.26   26.80
   4  -1  -4  371.96   26.70
   4   1  -4  401.46   27.50
   4   1  -4  372.26   27.00
  -4   1   4  408.86   26.90
  -4   1   4  377.46   28.30
   4   1  -4  386.86   28.50
  -4   1   4  394.16   27.50
   3  -1  -4  706.03   47.60
  -3  -1   4  693.23   47.00
  -3  -1   4  716.53   46.50
  -3  -1   4  650.53   47.50
   3  -1  -4  661.63   46.80
  -3   1   4  691.13   46.50
  -3   1   4  631.24   46.90
   3   1  -4  676.83   47.70
   3   1  -4  613.24   46.50
  -3   1   4  647.14   47.50
   3   1  -4  636.34   46.80
  -2  -1   4  230.78   15.90
  -2  -1   4  230.98   15.40
   2  -1  -4  231.78   15.80
   2  -1  -4  217.98   15.20
  -2  -1   4  233.58   15.10
  -2   1   4  210.88   15.00
  -2   1   4  184.28   15.20
   2   1  -4  205.48   15.70
  -2   1   4  196.78   15.60
   2   1  -4  194.58   15.00
  -2   1   4  216.38   15.70
   2   1  -4  222.18   15.90
   2   1  -4  182.28   15.10
   1  -1  -4 4838.22  326.27
  -1  -1   4 4960.30  325.97
  -1  -1   4 4944.21  326.37
   1  -1  -4 4134.49  325.87
   1  -1  -4 5101.69  326.17
   1   1  -4 4456.75  325.87
   1   1  -4 5166.98  326.37
   1   1  -4 4080.79  325.97
   0  -1  -4  930.41   57.89
   0  -1   4  875.61   57.69
   0  -1   4  858.61   58.09
   0  -1  -4  930.51   57.89
   0  -1   4  764.92   57.99
   0  -1  -4  714.43   57.59
   0  -1   4  782.12   57.79
   0   1  -4  766.82   58.09
   0   1   4  848.32   57.49
   0   1  -4  861.71   57.79
   0   1   4  728.13   57.89
   0   1   4  815.22   57.99
   0   1  -4  910.31   57.59
   0   1  -4  840.42   58.19
  -1  -1  -4  675.53   48.30
   1  -1   4  714.63   48.60
  -1   1  -4  796.62   48.60
  -1   1  -4  737.43   48.60
  -1   1  -4  654.43   47.90
   1   1   4  725.33   48.30
  -1   1  -4  649.64   48.20
   1   1   4  629.84   48.20
   1   1   4  632.84   47.90
   2  -1   4 1195.38   87.19
   2  -1   4 1152.38   87.39
   2  -1   4 1363.46   87.79
  -2  -1  -4 1101.29   87.19
  -2  -1  -4 1388.06   87.59
  -2   1  -4 1412.36   87.69
   2   1   4 1202.78   87.09
  -2   1  -4 1201.48   87.09
   2   1   4 1221.88   87.69
   2   1   4 1324.27   87.59
   2   1   4 1168.18   87.29
  -2   1  -4 1320.27   87.69
   3  -1   4  736.63   50.19
   3  -1   4  694.43   49.30
   3  -1   4  678.33   49.70
  -3  -1  -4  657.43   49.50
  -3   1  -4  735.83   49.20
   3   1   4  711.13   50.59
   3   1   4  725.33   50.59
  -3   1  -4  686.23   49.60
   3   1   4  698.73   49.30
   3   1   4  709.93   49.70
  -4  -1  -4    9.70    2.30
  -4  -1  -4   10.70    2.80
   4  -1   4   14.30    3.90
   4  -1   4    9.80    1.90
   4  -1   4   10.20    2.90
   4   1   4   13.10    2.70
  -4   1  -4   13.60    2.00
   4   1   4   13.30    2.60
  -4   1  -4   13.80    2.70
   4   1   4   11.70    2.80
  -4   1  -4   11.90    2.60
   5  -1   4  209.48   16.20
   5  -1   4  169.58   16.70
  -5  -1  -4  218.08   16.20
   5  -1   4  202.68   15.40
   5   1   4  222.68   15.70
   5   1   4  234.48   16.40
  -5   1  -4  172.48   15.40
   5   1   4  206.98   17.00
  -5   1  -4  195.28   16.70
  -5   1  -4  223.88   16.30
  -6  -1  -4   23.00    4.30
   6  -1   4   19.30    3.60
  -6   1  -4   18.70    3.60
   6   1   4   18.80    3.60
   6   1   4   15.90    3.00
  -7  -1  -4    1.40    2.40
   7  -1   4   -1.00    1.90
   7   1   4    2.60    2.50
  -7   1  -4    1.50    2.30
   7   1   4   -1.00    2.20
   7  -2  -4    6.30    3.20
  -7   2   4   11.60    3.20
   7   2  -4   16.50    3.00
   6  -2  -4  124.09   10.70
  -6  -2   4  134.59   11.10
  -6   2   4  144.89   11.40
   6   2  -4  126.39   10.90
   6   2  -4  118.49   10.20
  -6   2   4  124.59    9.90
  -5  -2   4  243.08   17.40
   5  -2  -4  230.08   17.10
   5   2  -4  236.48   17.30
  -5   2   4  227.18   17.40
  -5   2   4  224.48   16.40
   5   2  -4  204.78   18.40
   5   2  -4  223.98   16.70
  -5   2   4  198.78   18.20
   4  -2  -4   32.20    3.80
  -4  -2   4   26.30    4.60
  -4  -2   4   30.80    4.30
   4  -2  -4   28.60    6.60
  -4   2   4   30.70    4.70
  -4   2   4   31.30    4.00
   4   2  -4   30.00    4.00
   4   2  -4   29.50    5.10
   4   2  -4   28.40    3.60
  -4   2   4   34.80    3.10
  -3  -2   4  688.33   49.20
   3  -2  -4  663.93   48.30
  -3  -2   4  733.23   48.60
   3  -2  -4  684.53   49.00
  -3   2   4  651.43   48.50
  -3   2   4  691.23   48.10
   3   2  -4  650.53   48.20
  -3   2   4  694.43   49.20
   3   2  -4  757.82   49.60
   3   2  -4  720.13   48.50
  -3   2   4  644.74   49.10
   2  -2  -4  879.01   59.09
   2  -2  -4  752.72   58.59
  -2  -2   4  814.92   59.29
  -2  -2   4  850.51   58.89
   2   2  -4  804.72   58.59
  -2   2   4  945.51   59.39
  -2   2   4  794.42   58.79
   2   2  -4  914.41   59.39
   2   2  -4  786.22   58.69
  -2   2   4  852.31   59.19
  -2   2   4  865.61   58.49
  -1  -2   4  184.78   13.80
   1  -2  -4  201.98   13.40
  -1  -2   4  197.58   14.00
   1   2  -4  205.48   14.00
   1   2  -4  192.88   14.40
   1   2  -4  178.28   13.50
  -1   2   4  197.18   13.80
   1   2  -4  178.98   13.50
  -1   2   4  178.68   13.30
   0  -2   4 2241.98  153.08
   0   2   4 2338.87  153.18
   0   2  -4 2032.70  153.58
   0   2  -4 2194.78  153.58
   0   2   4 2118.19  153.08
   0   2  -4 2291.27  152.88
   0   2  -4 2241.48  153.18
   1  -2   4 3004.60  221.78
   1  -2   4 2883.81  222.18
  -1   2  -4 3533.65  222.18
  -1   2  -4 3332.97  222.28
  -1   2  -4 3069.99  221.78
   1   2   4 3375.06  221.78
   2  -2   4  175.08   13.30
  -2  -2  -4  171.78   13.40
  -2  -2  -4  172.28   13.40
   2  -2   4  201.08   14.30
   2  -2   4  187.38   13.70
   2   2   4  172.48   13.50
   2   2   4  182.58   13.30
   2   2   4  189.58   13.90
   2   2   4  198.88   13.80
  -2   2  -4  187.78   13.20
  -2   2  -4  184.48   14.20
  -2   2  -4  177.48   13.60
  -2   2  -4  214.18   14.10
   3  -2   4  232.38   18.90
  -3  -2  -4  234.78   18.10
   3  -2   4  217.98   17.90
   3  -2   4  215.08   18.30
  -3   2  -4  257.27   17.90
  -3   2  -4  251.27   18.50
   3   2   4  277.87   18.80
   3   2   4  269.27   19.20
   3   2   4  257.67   18.40
   3   2   4  261.57   18.00
  -3   2  -4  279.57   19.20
   4  -2   4  425.76   34.30
   4  -2   4  475.95   33.80
  -4  -2  -4  474.35   33.50
   4   2   4  456.75   33.20
   4   2   4  439.26   33.60
  -4   2  -4  522.35   34.70
  -4   2  -4  456.05   34.20
  -4   2  -4  468.65   33.10
   4   2   4  475.65   34.30
  -5  -2  -4   83.29    7.70
   5  -2   4   81.79    7.70
  -5   2  -4   79.29    6.60
  -5   2  -4   70.59    8.10
   5   2   4   77.09    7.10
   5   2   4   87.99    8.60
   5   2   4   80.59    7.60
  -5   2  -4   79.49    7.80
  -6  -2  -4    5.00    2.70
   6   2   4   12.50    3.00
  -6   2  -4   10.10    2.10
  -6   2  -4    9.00    2.80
   6   2   4    8.50    2.60
  -7  -2  -4   10.40    2.90
   7  -2   4   14.10    3.00
   7   2   4    8.10    2.40
  -7   2  -4   13.40    2.90
   7   2   4   11.80    3.10
   7  -3  -4    2.80    1.70
  -7  -3   4   -1.60    2.00
  -7   3   4    2.40    3.00
   7   3  -4    0.20    2.20
  -7   3   4    2.30    1.70
   7   3  -4   -0.90    2.00
   6  -3  -4  115.19    8.70
  -6  -3   4   92.89    9.10
   6   3  -4   89.89    8.80
  -6   3   4  107.19    8.10
  -6   3   4   97.59    9.30
   6   3  -4   94.69    8.40
   5  -3  -4   36.60    4.40
  -5  -3   4   29.30    5.00
   5   3  -4   38.80    4.90
   5   3  -4   45.30    6.50
  -5   3   4   40.50    3.90
   5   3  -4   38.30    4.70
  -5   3   4   38.50    5.00
  -5   3   4   38.90    5.80
  -4  -3   4  405.66   26.30
   4  -3  -4  376.26   25.90
   4   3  -4  363.76   27.50
   4   3  -4  334.47   25.70
   4   3  -4  357.86   26.10
  -4   3   4  328.77   28.40
  -4   3   4  336.67   26.10
  -4   3   4  361.96   25.50
  -3  -3   4  605.44   41.10
   3  -3  -4  562.14   40.70
  -3  -3   4  496.25   42.00
   3  -3  -4  518.75   41.20
  -3   3   4  580.94   41.30
  -3   3   4  631.44   41.90
   3   3  -4  595.84   41.00
  -3   3   4  555.54   41.70
   3   3  -4  578.74   40.70
   3   3  -4  625.44   42.20
  -3   3   4  615.84   40.60
   2  -3  -4  173.78   13.60
  -2  -3   4  171.18   14.10
  -2   3   4  194.88   13.50
  -2   3   4  194.58   14.30
   2   3  -4  223.28   15.10
   2   3  -4  216.08   14.70
   2   3  -4  178.98   13.70
   2   3  -4  194.08   13.90
  -2   3   4  180.68   13.90
  -1  -3   4 1467.35   98.49
  -1  -3   4 1399.16   98.69
  -1   3   4 1511.45   98.59
  -1   3   4 1400.96   98.49
   1   3  -4 1314.27   99.09
   1   3  -4 1559.04   98.89
   1   3  -4 1287.37   98.19
   1   3  -4 1386.06   98.39
   0  -3   4 1431.16  100.29
   0  -3   4 1575.94  100.59
   0   3  -4 1518.85  101.29
   0   3  -4 1345.97  100.99
   0   3  -4 1353.06  100.99
   1  -3   4  543.85   38.90
  -1   3  -4  549.65   39.50
  -1   3  -4  521.85   38.90
  -1   3  -4  622.34   39.40
   1   3   4  569.24   38.70
   1   3   4  511.35   38.70
  -2  -3  -4  792.12   63.69
   2  -3   4  814.42   64.29
  -2   3  -4 1011.90   64.89
  -2   3  -4  898.21   65.29
   2   3   4  925.11   63.79
   2   3   4  989.00   64.39
   2   3   4  971.00   64.59
  -2   3  -4  961.60   63.89
  -2   3  -4  900.21   64.39
   3  -3   4 1270.17   90.39
   3  -3   4 1245.48   91.99
  -3  -3  -4 1380.66   89.99
  -3   3  -4 1226.18   90.49
   3   3   4 1312.57   91.09
   3   3   4 1352.96   90.69
  -3   3  -4 1319.17   90.99
   3   3   4 1243.48   90.29
   3   3   4 1307.47   89.99
  -3   3  -4 1248.18   89.89
  -4  -3  -4   85.79    7.00
   4  -3   4   88.79    7.50
  -4   3  -4   74.79    6.40
   4   3   4   76.69    6.80
   4   3   4   72.29    6.90
   4   3   4   74.99    8.30
  -4   3  -4   75.99    7.40
  -4   3  -4   83.59    8.00
   5  -3   4  144.19   11.80
  -5  -3  -4  144.79   11.50
   5   3   4  139.09   11.80
   5   3   4  144.99   13.10
   5   3   4  150.08   11.40
  -5   3  -4  139.99   10.80
  -5   3  -4  133.29   11.90
  -5   3  -4  128.89   12.40
  -6  -3  -4   10.00    3.20
   6  -3   4   12.50    3.00
   6   3   4    8.80    3.30
  -6   3  -4   12.60    3.40
   6   3   4   12.50    2.80
  -6   3  -4   11.90    2.00
   7  -3   4   -1.50    1.40
  -7   3  -4    2.10    2.20
   7   3   4    1.00    1.70
   6  -4  -4   40.70    4.10
  -6   4   4   47.60    6.00
   6   4  -4   36.60    4.60
  -6   4   4   41.50    4.10
   6   4  -4   28.10    4.90
   5  -4  -4  111.49    9.20
   5   4  -4  104.39    9.80
  -5   4   4  122.49   10.60
  -5   4   4  134.59   10.20
  -4  -4   4   20.40    3.50
   4  -4  -4   22.50    2.80
  -4   4   4   18.30    2.60
   4   4  -4   18.70    3.30
   4   4  -4   22.90    4.90
  -4   4   4   18.30    3.40
   4   4  -4   14.70    2.70
  -4   4   4   18.50    4.20
   3  -4  -4   54.29    5.10
   3   4  -4   65.09    5.80
   3   4  -4   68.99    7.30
   3   4  -4   63.99    5.70
  -3   4   4   71.49    5.90
  -3   4   4   73.59    6.90
  -3   4   4   71.19    5.30
  -2  -4   4  379.36   25.20
   2   4  -4  321.77   25.00
   2   4  -4  353.46   25.20
  -2   4   4  378.36   25.90
  -2   4   4  328.07   25.50
  -2   4   4  323.57   24.70
   2   4  -4  364.76   26.00
   2   4  -4  381.36   26.40
  -1  -4   4  251.07   17.10
   1   4  -4  221.68   17.00
   1   4  -4  238.98   18.30
  -1   4   4  243.28   17.20
  -1   4   4  276.27   17.40
   1   4  -4  205.08   17.20
   0  -4   4 1272.87   80.39
   0   4  -4 1078.79   81.19
   0   4  -4 1067.39   80.49
   0   4  -4 1211.18   81.39
   0   4  -4 1135.99   79.99
   1  -4   4 1008.00   75.79
   1  -4   4 1204.88   76.09
  -1   4  -4  968.80   75.99
  -1   4  -4 1207.78   75.49
  -1   4  -4 1051.69   76.69
  -1   4  -4 1081.09   76.49
   2  -4   4  123.39   10.80
   2  -4   4  134.89   10.30
  -2   4  -4  148.29   11.10
   2   4   4  119.99    9.70
  -2   4  -4  121.69   10.90
   2   4   4  144.19   10.40
   2   4   4  142.99   11.60
  -2   4  -4  137.89    9.90
  -2   4  -4  142.59   11.60
   3  -4   4   63.29    6.10
  -3   4  -4   68.29    6.40
   3   4   4   66.79    6.40
  -3   4  -4   68.79    6.90
  -3   4  -4   66.89    5.40
   3   4   4   64.59    5.50
   4  -4   4  279.57   20.50
  -4   4  -4  258.17   21.20
  -4   4  -4  268.57   19.70
   4   4   4  273.17   21.10
  -4   4  -4  265.27   20.70
   4   4   4  282.47   20.00
   5  -4   4   48.60    6.20
   5   4   4   45.60    5.40
  -5   4  -4   47.40    5.70
   6  -4   4    6.80    2.20
  -6   4  -4    9.70    2.80
  -6   4  -4    5.60    1.70
   6   4   4    4.70    2.30
  -6   5   4   67.79    5.70
   6   5  -4   61.09    6.00
   5   5  -4   15.80    3.20
  -5   5   4   14.00    2.60
  -4  -5   4   84.89    7.10
   4   5  -4   86.89   10.90
  -4   5   4   89.09    9.80
  -4   5   4   99.09    7.30
   4   5  -4   84.69    7.70
  -3  -5   4  241.18   17.70
  -3   5   4  252.37   17.70
  -3   5   4  260.17   19.20
   3   5  -4  234.78   17.90
   3   5  -4  238.08   19.60
  -2   5   4   14.10    3.20
   2   5  -4   14.60    3.20
   2   5  -4   18.50    2.70
  -2   5   4   13.50    2.90
   1   5  -4  386.56   29.20
  -1   5   4  451.15   29.50
   1   5  -4  402.16   30.70
  -1   5   4  423.16   29.50
   0  -5   4  334.97   24.40
   0   5  -4  327.97   25.90
   0   5  -4  376.36   24.40
   1  -5   4   32.60    3.00
  -1   5  -4   33.00    3.80
  -1   5  -4   32.90    4.70
   2  -5   4  188.88   14.80
  -2   5  -4  194.08   15.40
  -2   5  -4  219.38   16.10
   2   5   4  210.08   15.00
   2   5   4  192.48   14.40
  -2   5  -4  210.68   14.60
   2   5   4  201.88   15.10
   3  -5   4 1470.45   99.89
  -3   5  -4 1398.66   99.49
   3   5   4 1446.36  100.19
  -3   5  -4 1477.15  101.09
  -3   5  -4 1378.86  100.39
   3   5   4 1392.26   99.49
   4  -5   4   41.00    4.60
   4   5   4   43.50    4.50
  -4   5  -4   55.79    7.80
  -4   5  -4   40.80    5.30
  -4   5  -4   41.60    4.20
   4   5   4   35.10    5.90
   5  -5   4  110.99    9.40
  -5   5  -4  111.29    9.10
  -5   5  -4  113.39   10.30
   5   5   4  118.09    9.60
   6  -5   4   18.30    2.90
  -6   5  -4   16.50    2.70
  -5   6   4   69.39    5.70
   5   6  -4   54.59    6.00
  -4   6   4   23.00    3.10
   4   6  -4   20.80    3.90
  -3   6   4  141.49   10.50
   3   6  -4  125.19   14.00
   3   6  -4  147.09   10.90
   2   6  -4  122.29   11.20
   2   6  -4  125.49    9.80
  -2   6   4  134.29    9.40
   1   6  -4   19.60    2.70
   1   6  -4   16.60    3.50
   0   6  -4  830.42   62.69
   0   6  -4  914.41   60.89
  -1   6  -4  236.58   15.50
  -1   6  -4  190.88   17.30
  -2   6  -4  336.87   25.30
  -2   6  -4  343.77   23.40
   2   6   4  301.37   23.10
   3   6   4   37.90    3.90
  -3   6  -4   38.80    6.00
  -3   6  -4   36.50    3.90
   4   6   4   40.10    4.40
  -4   6  -4   38.00    4.10
  -5   6  -4   14.80    2.70
   4   7  -4   62.39    6.00
  -4   7   4   66.79    5.70
   3   7  -4   89.69    7.60
  -3   7   4   91.89    7.30
  -2   7   4   10.50    1.70
  -1   7   4  140.89   10.60
   1   7  -4  162.78   15.30
   1   7  -4  145.29   11.00
   0   7  -4   32.70    6.00
   0   7  -4   47.40    3.90
  -1   7  -4   22.10    5.20
  -1   7  -4   29.00    3.00
   2   7   4  135.89   10.10
  -2   7  -4  134.49   10.80
  -3   7  -4  316.37   23.60
   3   7   4  336.87   23.60
  -4   7  -4   22.30    3.10
   3   8  -4   26.10    3.50
   2   8  -4   42.50    4.20
  -2   8   4   43.60    3.80
   1   8  -4   -0.80    1.10
   0   8  -4  105.09    8.10
  -1   8  -4   73.29    6.00
  -2   8  -4   20.80    2.90
  -3   8  -4   38.50    3.90
   3   8   4   30.20    3.40
   1   9  -4   30.20    3.00
   0   9  -4    5.10    1.40
  -1   9  -4   31.10    3.30
   7   0  -5   36.80    4.80
  -7   0   5   47.70    5.50
  -6   0   5    7.60    2.70
   6   0  -5    8.40    2.80
   5   0  -5    0.80    2.70
  -5   0   5    1.20    1.30
  -5   0   5    3.70    2.60
   5   0  -5    2.10    2.00
  -5   0   5    5.40    2.60
   5   0  -5    1.10    2.00
  -4   0   5  427.16   30.00
  -4   0   5  449.16   30.70
   4   0  -5  441.76   30.10
  -4   0   5  388.06   31.40
   4   0  -5  411.06   31.40
   4   0  -5  429.66   31.80
  -3   0   5  996.60   67.49
   3   0  -5 1014.10   67.49
   3   0  -5  980.70   68.69
  -3   0   5  959.50   67.89
  -3   0   5  893.81   68.49
   2   0  -5  146.59   10.70
  -2   0   5  147.79   10.70
  -2   0   5  158.28   11.70
   2   0  -5  166.28   11.80
  -2   0   5  142.19   11.00
   2   0  -5  138.59   11.30
  -2   0   5  151.28   11.60
  -1   0   5 1856.81  142.09
   1   0  -5 2090.79  142.39
   1   0  -5 2262.67  142.69
  -1   0   5 2274.17  142.49
  -1   0   5 2009.70  141.89
   1   0  -5 1856.61  141.99
   1   0  -5 1993.50  141.79
   0   0   5  304.47   22.80
   0   0  -5  316.37   22.40
   0   0  -5  334.87   23.90
   0   0  -5  357.66   22.90
   0   0   5  266.67   22.70
   0   0   5  296.87   22.40
   0   0   5  350.96   22.30
  -1   0  -5  640.04   47.40
   1   0   5  653.83   47.60
  -1   0  -5  698.33   47.80
   1   0   5  696.13   47.20
   1   0   5  713.93   47.80
  -1   0  -5  721.73   47.70
   1   0   5  622.04   47.30
   2   0   5 1327.17   99.09
  -2   0  -5 1409.66   98.99
  -2   0  -5 1598.14   98.99
  -2   0  -5 1320.47   98.49
   2   0   5 1325.77   98.69
   2   0   5 1546.95   99.09
   2   0   5 1388.96   99.19
  -3   0  -5  133.19   10.50
  -3   0  -5  147.69   10.90
   3   0   5  149.79   11.20
   3   0   5  132.39   10.60
  -3   0  -5  125.09    9.90
   3   0   5  133.99   10.20
   4   0   5    8.90    1.90
  -4   0  -5    8.40    2.40
  -4   0  -5    9.30    2.30
   4   0   5    6.60    2.10
  -4   0  -5    9.40    2.30
   4   0   5    6.60    2.40
   5   0   5   38.50    5.80
   5   0   5   44.20    4.70
  -5   0  -5   43.00    5.30
  -6   0  -5    9.10    2.90
   6   0   5    8.60    2.70
   6   0   5   10.10    2.90
  -7   0  -5   -0.70    2.10
   7   0   5    0.90    2.70
  -7  -1   5    0.00    2.00
   7  -1  -5    2.30    2.00
  -7   1   5    3.50    2.50
   7   1  -5    1.60    2.20
  -6  -1   5   45.00    5.80
   6  -1  -5   48.30    5.40
   6   1  -5   40.40    5.40
  -6   1   5   45.50    4.70
  -6   1   5   44.90    5.70
   6   1  -5   35.10    6.70
  -5  -1   5  462.85   38.30
   5  -1  -5  535.75   37.20
  -5  -1   5  577.54   37.50
   5   1  -5  441.36   39.70
   5   1  -5  554.94   36.70
  -5   1   5  467.45   38.30
  -5   1   5  525.65   36.50
  -5   1   5  551.04   37.50
  -4  -1   5  107.89    9.10
  -4  -1   5   99.89    8.20
   4  -1  -5   99.79    9.90
   4  -1  -5  103.29    8.70
   4   1  -5  114.29   10.30
   4   1  -5  115.69    8.60
  -4   1   5  118.49    8.40
   4   1  -5  128.39   10.70
  -4   1   5  114.49    9.10
  -4   1   5   96.19    9.70
  -3  -1   5 1254.67   85.19
   3  -1  -5 1117.99   84.89
  -3  -1   5 1130.79   85.69
   3  -1  -5 1287.77   84.69
   3  -1  -5 1210.58   85.79
   3   1  -5 1216.98   84.79
  -3   1   5 1192.68   85.09
  -3   1   5 1283.67   84.69
   3   1  -5 1275.17   86.09
  -3   1   5 1271.97   86.19
   3   1  -5 1158.28   84.99
  -2  -1   5 1249.77   83.29
  -2  -1   5 1239.08   83.59
  -2  -1   5 1265.87   84.09
   2  -1  -5 1187.78   83.39
   2  -1  -5 1295.77   83.99
  -2   1   5 1176.28   83.19
   2   1  -5 1199.18   83.29
   2   1  -5 1099.79   83.39
  -2   1   5 1113.39   83.89
  -2   1   5 1071.29   83.39
   2   1  -5 1280.97   84.29
  -2   1   5 1204.18   83.99
  -1  -1   5  887.51   59.59
  -1  -1   5  929.21   59.49
   1  -1  -5  868.81   59.49
   1  -1  -5  815.92   58.99
  -1  -1   5  907.61   59.09
  -1   1   5  796.52   59.49
  -1   1   5  804.22   58.99
   1   1  -5  844.12   59.49
  -1   1   5  752.72   59.19
   1   1  -5  788.52   59.69
   1   1  -5  902.81   59.19
   1   1  -5  782.82   58.99
  -1   1   5  969.40   59.59
   0  -1  -5  829.32   59.89
   0  -1   5  894.51   60.39
   0  -1  -5  971.80   60.19
   0  -1   5  879.51   59.99
   0  -1   5  960.50   59.99
   0  -1   5  919.41   60.99
   0   1   5  756.42   60.19
   0   1   5  774.72   59.69
   0   1   5  861.61   60.29
   0   1  -5  820.72   60.49
   0   1  -5  813.32   60.49
   1  -1   5 2778.32  194.18
  -1  -1  -5 2507.15  193.58
   1  -1   5 2709.73  193.58
  -1   1  -5 2666.23  193.68
  -1   1  -5 2888.01  194.38
  -1   1  -5 3156.98  194.18
   1   1   5 2456.95  193.38
   1   1   5 3078.59  194.28
  -1   1  -5 2935.41  193.38
   1   1   5 2763.92  193.88
  -2  -1  -5  608.24   43.50
   2  -1   5  619.84   43.40
   2  -1   5  595.74   43.60
   2  -1   5  685.43   44.20
  -2   1  -5  677.53   44.00
   2   1   5  614.94   43.60
   2   1   5  652.93   43.90
   2   1   5  633.04   43.30
  -2   1  -5  539.25   43.20
  -2   1  -5  562.84   44.30
   2   1   5  625.64   44.00
  -3  -1  -5  303.87   20.60
   3  -1   5  306.57   20.40
  -3  -1  -5  320.67   20.90
   3  -1   5  312.67   20.80
   3  -1   5  327.17   21.40
  -3   1  -5  256.97   20.10
  -3   1  -5  249.48   20.60
   3   1   5  265.97   20.90
   3   1   5  245.18   20.50
   3   1   5  242.28   20.20
   4  -1   5  262.57   19.60
  -4  -1  -5  269.97   20.30
   4  -1   5  261.07   20.80
   4  -1   5  234.38   20.00
  -4  -1  -5  274.47   20.10
  -4   1  -5  249.97   19.30
   4   1   5  284.37   19.70
  -4   1  -5  281.37   20.20
   4   1   5  286.27   20.80
   4   1   5  282.67   20.20
   5  -1   5   32.30    5.70
   5  -1   5   29.40    3.90
   5  -1   5   33.80    4.90
  -5  -1  -5   36.70    5.00
  -5   1  -5   30.60    4.70
   5   1   5   32.10    4.10
   5   1   5   28.00    5.40
   5   1   5   39.90    4.90
  -5   1  -5   22.10    5.20
  -6  -1  -5   17.30    3.40
   6  -1   5   14.90    3.00
  -6   1  -5   14.70    3.40
   6   1   5   11.30    2.60
   6   1   5   14.70    3.30
  -7  -1  -5    0.00    2.40
   7  -1   5    4.30    2.60
  -7   1  -5    1.50    3.20
   7   1   5    2.90    2.20
   7   1   5   -1.50    2.20
   7  -2  -5   21.50    3.40
  -7  -2   5   22.80    4.10
   7   2  -5   18.30    3.40
  -7   2   5   29.50    4.40
  -6  -2   5   23.00    4.30
   6  -2  -5   19.60    3.60
   6   2  -5   21.00    4.10
   6   2  -5   13.00    2.80
  -6   2   5   17.70    2.40
  -6   2   5   13.40    3.40
   5  -2  -5   23.40    3.80
  -5  -2   5   16.40    3.40
   5   2  -5   20.10    3.30
  -5   2   5   28.40    4.50
   5   2  -5   16.50    3.90
  -5   2   5   24.00    2.90
  -5   2   5   28.80    5.30
   5   2  -5   20.20    3.70
  -4  -2   5  256.57   22.10
  -4  -2   5  311.17   21.60
   4  -2  -5  284.67   21.10
  -4   2   5  279.07   22.40
   4   2  -5  308.77   22.90
   4   2  -5  287.07   21.00
  -4   2   5  294.47   21.50
  -4   2   5  299.37   20.80
   3  -2  -5 1410.06   98.99
   3  -2  -5 1427.16   98.29
  -3  -2   5 1451.65   98.39
  -3  -2   5 1353.76   99.09
  -3  -2   5 1577.54   98.69
   3   2  -5 1385.36   98.09
  -3   2   5 1430.66   97.99
  -3   2   5 1428.36   99.29
   3   2  -5 1481.65   99.59
  -3   2   5 1257.77   99.19
   3   2  -5 1414.76   98.39
  -3   2   5 1312.37   98.39
   2  -2  -5   70.59    5.60
  -2  -2   5   74.49    5.60
   2  -2  -5   71.09    5.10
   2   2  -5   58.19    5.10
   2   2  -5   66.09    6.30
  -2   2   5   55.19    5.20
  -2   2   5   61.39    5.60
   2   2  -5   63.29    5.80
  -2   2   5   63.79    4.80
   2   2  -5   62.59    5.10
  -2   2   5   68.59    5.90
   1  -2  -5 2076.89  138.99
  -1  -2   5 2149.19  139.59
  -1  -2   5 1943.81  139.19
   1  -2  -5 1919.81  138.89
  -1   2   5 2043.50  139.29
  -1   2   5 2317.57  139.39
   1   2  -5 1963.30  138.89
   1   2  -5 1941.71  139.79
  -1   2   5 1814.52  138.79
   1   2  -5 1905.21  138.99
   1   2  -5 1975.90  139.49
   0  -2   5 1144.99   71.99
   0  -2  -5  869.11   71.39
   0  -2   5 1011.40   71.59
   0   2  -5 1014.10   71.59
   0   2  -5  982.60   72.19
   0   2  -5  983.10   72.09
   0   2   5 1109.89   71.29
   0   2  -5 1070.89   71.29
   0   2   5 1155.68   71.69
   0   2   5  938.61   71.69
   1  -2   5  666.93   51.49
   1  -2   5  728.33   51.79
   1  -2   5  714.53   52.29
  -1   2  -5  797.72   52.19
   1   2   5  761.32   51.79
  -1   2  -5  712.43   51.79
  -1   2  -5  746.73   52.29
   1   2   5  820.02   51.79
   1   2   5  707.23   51.29
  -2  -2  -5 1869.21  152.08
   2  -2   5 2186.68  151.98
   2  -2   5 2360.96  152.98
  -2  -2  -5 2200.88  151.98
   2  -2   5 2288.77  152.28
   2   2   5 2399.06  152.48
  -2   2  -5 2130.39  152.28
   2   2   5 2145.99  151.78
   2   2   5 2157.08  152.58
   2   2   5 2078.59  152.18
  -2   2  -5 2003.60  151.78
  -2   2  -5 2463.05  152.78
   3  -2   5  355.06   25.90
   3  -2   5  375.36   26.60
  -3  -2  -5  383.36   25.70
  -3  -2  -5  386.36   26.10
   3  -2   5  357.86   25.40
   3   2   5  347.47   25.80
  -3   2  -5  318.17   25.30
  -3   2  -5  359.06   26.30
   3   2   5  364.76   26.20
   3   2   5  346.67   26.50
  -3   2  -5  344.97   25.90
   3   2   5  349.07   25.40
   4  -2   5   39.30    4.50
   4  -2   5   36.00    3.80
  -4  -2  -5   36.70    4.50
   4  -2   5   32.60    5.20
   4   2   5   32.00    5.10
   4   2   5   29.90    3.80
  -4   2  -5   40.10    5.10
  -4   2  -5   33.20    4.60
   5  -2   5    9.60    2.60
  -5  -2  -5    6.90    2.30
  -5   2  -5    9.10    3.90
   5   2   5    6.50    2.40
   5   2   5    3.50    1.90
   5   2   5    3.40    2.80
  -5   2  -5    6.70    1.60
  -5   2  -5    5.90    2.60
   6  -2   5    4.70    2.30
  -6  -2  -5    8.60    3.00
   6   2   5    9.70    2.90
   6   2   5    8.00    2.40
  -6   2  -5   10.10    3.00
   7  -2   5    8.90    2.70
  -7  -2  -5    6.80    2.40
   7   2   5    3.40    2.40
   7   2   5    7.10    2.20
  -7   2  -5   13.80    3.40
   7  -3  -5    3.30    1.60
  -7  -3   5   -0.30    2.10
   7   3  -5   -0.20    2.00
  -7   3   5    5.50    2.60
  -6  -3   5  110.69   10.60
   6  -3  -5  135.59   10.10
   6   3  -5  109.79    9.90
  -6   3   5  141.69   11.20
  -6   3   5  124.69    9.60
   6   3  -5  114.79   10.40
  -5  -3   5  157.78   12.90
   5  -3  -5  161.48   12.30
   5   3  -5  150.48   12.30
  -5   3   5  179.58   13.20
  -5   3   5  155.98   11.90
   5   3  -5  157.68   12.70
   5   3  -5  138.79   14.20
  -5   3   5  162.08   15.70
  -4  -3   5  133.29   10.90
   4  -3  -5  144.49   10.30
  -4   3   5  122.59   10.60
   4   3  -5  122.49   10.20
  -4   3   5  129.19   11.70
   4   3  -5  131.59   10.60
  -4   3   5  136.89    9.90
  -3  -3   5  926.61   71.19
   3  -3  -5 1018.80   70.39
  -3  -3   5 1078.19   70.89
  -3   3   5 1010.20   71.09
  -3   3   5 1005.30   71.59
  -3   3   5  954.90   70.19
   3   3  -5 1047.20   70.69
   3   3  -5  983.90   70.39
   3   3  -5 1052.19   71.99
   2  -3  -5  955.80   67.99
  -2  -3   5  933.21   68.49
  -2  -3   5  869.51   68.69
   2   3  -5 1101.39   69.59
  -2   3   5  949.21   68.29
  -2   3   5  966.20   67.99
   2   3  -5 1061.39   68.39
  -2   3   5  995.10   68.79
   2   3  -5  878.11   70.29
   2   3  -5  960.40   68.09
  -2   3   5 1089.09   68.99
  -1  -3   5  367.26   24.00
   1   3  -5  315.67   23.80
  -1   3   5  305.87   23.40
  -1   3   5  360.76   24.00
   1   3  -5  335.37   24.40
   1   3  -5  330.67   23.60
   1   3  -5  340.07   24.90
   0  -3   5  973.70   62.39
   0   3  -5  872.01   63.19
   0   3  -5  862.31   62.49
   0   3  -5  863.51   63.09
   0   3   5  812.22   62.49
   0   3   5  937.61   62.29
   0   3  -5  937.11   62.09
   1  -3   5 1686.03  130.99
   1  -3   5 1778.22  130.69
  -1   3  -5 1729.73  130.69
   1   3   5 2040.40  130.69
  -1   3  -5 2155.28  130.29
  -1   3  -5 1929.91  131.29
  -1   3  -5 1837.12  131.39
   2  -3   5  557.84   41.00
   2  -3   5  540.85   41.60
  -2  -3  -5  559.24   40.40
  -2   3  -5  618.24   41.60
   2   3   5  603.34   41.30
  -2   3  -5  567.44   40.50
   2   3   5  607.34   41.10
  -2   3  -5  561.44   41.10
   2   3   5  598.84   40.50
   3  -3   5  676.73   48.00
  -3  -3  -5  682.23   47.40
   3  -3   5  631.44   48.70
  -3   3  -5  745.23   48.70
   3   3   5  710.83   48.20
  -3   3  -5  659.83   47.30
   3   3   5  635.54   48.50
   3   3   5  652.63   47.70
   3   3   5  669.93   47.40
  -3   3  -5  681.73   48.10
  -4  -3  -5   76.59    7.50
   4  -3   5   77.89    7.80
  -4   3  -5   87.39    7.10
   4   3   5   97.09    7.50
  -4   3  -5   89.69    8.60
  -4   3  -5   88.69    8.20
   4   3   5   89.79    7.80
   4   3   5   93.59    8.60
   5  -3   5    7.00    2.50
  -5  -3  -5   10.70    2.80
  -5   3  -5    9.70    1.90
   5   3   5   10.40    4.30
   5   3   5   11.90    2.60
  -5   3  -5   16.60    3.30
   5   3   5    3.60    2.60
  -5   3  -5   12.40    3.10
  -6  -3  -5   13.00    2.80
   6  -3   5   21.40    3.90
   6   3   5   15.20    3.10
   6   3   5   23.00    3.90
  -6   3  -5   12.30    2.20
  -6   3  -5   17.80    3.70
   6  -4  -5   36.00    3.40
  -6  -4   5   20.90    4.30
   6   4  -5   28.40    4.00
  -6   4   5   14.40    6.20
   6   4  -5   22.40    4.30
  -6   4   5   34.10    3.50
  -5  -4   5   37.50    5.90
   5   4  -5   47.30    5.50
  -5   4   5   55.59    5.90
   5   4  -5   51.69    5.50
  -5   4   5   54.59    4.80
   4  -4  -5  182.88   12.40
  -4  -4   5  162.48   13.20
  -4   4   5  158.98   14.20
   4   4  -5  168.38   13.10
  -4   4   5  173.68   12.50
   4   4  -5  164.78   12.90
   4   4  -5  164.58   14.70
  -4   4   5  160.88   13.30
   3  -4  -5  668.73   42.50
  -3  -4   5  602.34   43.20
   3   4  -5  572.14   42.80
   3   4  -5  595.64   43.00
  -3   4   5  607.84   42.60
  -3   4   5  606.34   44.10
   3   4  -5  598.04   44.50
  -2  -4   5  108.49    7.60
  -2  -4   5   92.79    8.40
  -2   4   5   89.89    8.00
  -2   4   5   81.39    6.80
   2   4  -5  107.79    9.00
  -2   4   5   87.09    7.80
   2   4  -5   90.39    7.20
   2   4  -5   96.49    9.60
  -1  -4   5 1237.78   81.39
  -1  -4   5 1143.79   81.69
   1   4  -5 1100.19   81.09
  -1   4   5 1255.67   81.59
  -1   4   5 1272.77   81.59
   1   4  -5 1061.39   81.49
   1   4  -5 1099.59   82.49
   0  -4   5    2.20    1.20
   0   4  -5    1.60    1.10
   0   4  -5    0.50    0.80
   0   4  -5   -0.80    1.10
   0   4  -5    0.80    1.70
   1  -4   5  233.18   17.90
   1  -4   5  222.18   17.60
  -1   4  -5  227.28   17.80
   1   4   5  259.07   17.50
  -1   4  -5  240.98   18.60
  -1   4  -5  267.37   17.20
   1   4   5  263.97   17.50
  -1   4  -5  230.78   18.50
   2  -4   5  636.44   43.60
  -2   4  -5  641.14   44.30
   2   4   5  633.44   43.50
   2   4   5  623.54   43.80
   2   4   5  588.94   42.90
  -2   4  -5  570.84   43.70
  -2   4  -5  608.84   43.00
   3  -4   5  141.89   10.10
   3   4   5  119.09   10.20
  -3   4  -5  112.59    9.30
   3   4   5  121.39    9.40
  -3   4  -5  124.59   10.80
  -3   4  -5  119.79   10.20
   4  -4   5  128.89   10.30
   4   4   5  125.29    9.80
  -4   4  -5  115.49    9.40
  -4   4  -5  112.79   10.50
   4   4   5  113.69   10.70
  -4   4  -5  126.39   11.20
   5  -4   5    4.40    2.00
   5   4   5    1.50    1.80
  -5   4  -5    3.80    1.60
  -5   4  -5    6.20    2.70
   6  -4   5   66.19    6.50
  -6   4  -5   58.19    5.70
   6   4   5   73.79    6.70
  -6   4  -5   69.69    7.20
   6   5  -5   17.90    3.30
  -6   5   5   19.60    2.80
  -5  -5   5   35.30    4.30
   5   5  -5   32.80    6.50
   5   5  -5   49.80    5.10
  -5   5   5   53.99    4.60
  -4  -5   5   27.10    3.40
   4   5  -5   25.60    5.10
   4   5  -5   31.90    4.10
   4   5  -5   20.70    3.40
  -3  -5   5  368.56   27.60
   3   5  -5  399.46   29.70
   3   5  -5  333.07   27.90
  -3   5   5  408.96   29.10
   3   5  -5  412.26   27.80
  -3   5   5  401.66   27.50
  -2  -5   5  524.75   33.20
  -2   5   5  456.85   32.90
  -2   5   5  504.65   34.00
   2   5  -5  402.06   33.50
   2   5  -5  440.26   36.90
   2   5  -5  486.55   33.20
  -2   5   5  464.65   33.90
   1   5  -5  120.29    8.20
   1   5  -5   97.49    9.90
   1   5  -5  104.99    8.80
   0  -5   5  332.77   23.60
   0   5  -5  331.87   23.70
   0   5  -5  315.97   24.00
   0   5  -5  346.07   25.30
   1  -5   5  768.72   51.89
  -1   5  -5  727.93   52.39
  -1   5  -5  720.83   53.19
   2  -5   5  117.49    9.10
   2   5   5  118.49    9.10
   2   5   5  116.59    8.50
  -2   5  -5  110.49    8.70
  -2   5  -5  110.89    9.50
   2   5   5  117.49    9.30
   3  -5   5  879.81   60.39
   3   5   5  870.71   60.59
  -3   5  -5  803.72   60.89
  -3   5  -5  840.92   59.89
   3   5   5  825.02   59.89
  -3   5  -5  901.91   61.69
   4  -5   5   13.30    2.60
  -4   5  -5   15.20    3.50
   4   5   5   14.80    2.80
   4   5   5   17.30    3.90
  -4   5  -5   16.30    3.40
  -4   5  -5   13.80    2.60
   5  -5   5   15.40    2.90
   5   5   5   12.10    2.70
  -5   5  -5    6.80    2.60
  -5   5  -5   12.50    2.30
   6  -5   5   14.10    2.40
  -6   5  -5   12.90    3.10
  -6   5  -5    9.10    1.90
  -5   6   5   11.90    2.10
   5   6  -5   12.20    2.90
  -4   6   5   93.79    7.70
   4   6  -5   94.89    8.10
  -3   6   5  233.58   15.70
   3   6  -5  220.48   16.00
   3   6  -5  186.48   17.50
  -2   6   5    3.10    1.00
   2   6  -5    2.00    1.90
   2   6  -5    4.70    1.80
   1   6  -5  341.57   27.60
   1   6  -5  383.96   25.80
   0   6  -5   96.09    9.60
   0   6  -5   89.39    7.00
  -1   6  -5    5.30    1.30
  -1   6  -5    1.00    2.30
  -2   6  -5  227.48   16.20
   2   6   5  228.98   16.00
  -2   6  -5  207.68   18.00
   3  -6   5  103.69    8.00
   3   6   5  113.09    8.40
  -3   6  -5  107.29    8.40
   3   6   5   92.89    8.70
  -3   6  -5  106.49   10.40
   4  -6   5   32.40    3.30
   4   6   5   29.60    3.90
  -4   6  -5   28.70    3.60
   5   6   5   34.10    4.40
  -5   6  -5   28.80    3.50
   4   7  -5   27.20    4.10
  -4   7   5   37.80    3.70
  -3   7   5   95.19    7.60
   3   7  -5   97.19    8.00
   2   7  -5  188.08   14.00
   1   7  -5   47.20    4.20
   1   7  -5   37.00    5.60
   0   7  -5   69.09    5.70
  -1   7  -5  349.57   23.70
  -1   7  -5  311.97   26.00
  -2   7  -5   21.40    2.90
  -3   7  -5  334.87   24.50
   3   7   5  341.37   24.40
  -4   7  -5   45.80    4.60
  -3   8   5   12.10    2.10
   2   8  -5   -0.10    1.40
  -2   8   5    2.50    1.10
   1   8  -5   68.09    5.70
   0   8  -5   13.80    2.40
  -1   8  -5    6.50    1.60
  -2   8  -5   25.50    3.20
   3   8   5   34.60    3.40
   1   9  -5    6.50    1.40
   0   9  -5    9.60    1.80
  -1   9  -5   34.60    3.50
   7   0  -6    1.40    2.80
  -6   0   6    4.40    2.50
   6   0  -6    3.10    2.10
  -5   0   6 1244.58   79.49
   5   0  -6 1019.10   80.69
   5   0  -6 1114.19   78.59
  -5   0   6 1077.19   78.39
   5   0  -6 1156.18   79.09
   4   0  -6  262.67   18.00
  -4   0   6  267.77   18.80
  -4   0   6  251.27   18.00
  -4   0   6  223.98   19.50
   4   0  -6  257.97   18.50
   4   0  -6  232.68   19.90
   3   0  -6   11.30    1.70
  -3   0   6   13.70    2.30
  -3   0   6   11.00    1.60
  -3   0   6    8.80    2.30
   3   0  -6   10.00    2.50
   3   0  -6    7.90    1.60
   2   0  -6 9999.00  610.84
   2   0  -6 8247.88  610.24
  -2   0   6 8220.88  611.24
  -1   0   6 2139.19  169.48
   1   0  -6 2411.36  168.88
  -1   0   6 2767.22  169.58
   1   0  -6 2466.45  168.68
   1   0  -6 2642.74  170.48
  -1   0   6 2381.56  168.78
  -1   0   6 2254.27  168.98
   0   0   6 2213.48  163.28
   0   0   6 2226.18  163.78
   0   0   6 2467.25  163.68
   0   0  -6 2260.37  163.28
   0   0   6 2430.96  163.18
   0   0  -6 2534.15  164.88
   1   0   6 1155.08   82.09
  -1   0  -6 1210.68   82.19
   1   0   6 1166.48   82.59
   1   0   6 1215.58   82.49
   1   0   6 1257.27   81.99
  -1   0  -6 1220.18   82.59
  -1   0  -6 1032.00   81.79
  -2   0  -6  155.18   11.90
   2   0   6  148.39   12.40
   2   0   6  165.08   12.40
   2   0   6  160.58   11.70
   2   0   6  149.88   11.90
  -2   0  -6  182.28   12.40
  -3   0  -6  747.33   52.49
  -3   0  -6  814.92   52.89
  -3   0  -6  630.24   51.79
   3   0   6  793.62   53.09
   3   0   6  755.32   52.59
   3   0   6  722.13   52.09
   4   0   6 1057.79   72.09
  -4   0  -6 1048.00   72.19
  -4   0  -6  998.90   72.39
   4   0   6  979.10   72.69
   5   0   6    8.50    2.20
   5   0   6    6.30    2.80
   5   0   6    5.90    2.40
  -5   0  -6   11.80    3.10
   6   0   6    5.90    2.20
   6   0   6    8.90    2.90
  -6   0  -6   11.30    3.50
   7   0   6    6.40    2.60
  -7   0  -6    7.00    2.90
  -7  -1   6   34.50    5.10
   7  -1  -6   42.30    4.80
  -7   1   6   39.20    5.70
   7   1  -6   36.10    4.60
   6  -1  -6  118.69    9.90
  -6  -1   6  120.39   10.30
  -6   1   6  124.19   10.50
   6   1  -6  114.39   10.00
  -6   1   6  104.39    8.90
  -5  -1   6  283.27   25.80
   5  -1  -6  343.47   24.50
   5   1  -6  352.36   24.60
   5   1  -6  342.37   24.00
  -5   1   6  356.96   24.90
   5   1  -6  333.97   27.10
  -5   1   6  324.67   23.80
  -5   1   6  312.37   25.90
   4  -1  -6  532.85   36.90
  -4  -1   6  462.75   37.90
   4  -1  -6  496.95   38.20
  -4  -1   6  526.45   36.50
   4   1  -6  523.35   38.50
   4   1  -6  551.24   36.60
  -4   1   6  508.15   36.50
   4   1  -6  540.25   37.00
  -4   1   6  477.95   38.00
  -4   1   6  550.94   37.40
  -3  -1   6 1249.47   96.79
  -3  -1   6 1339.67   95.69
   3  -1  -6 1348.17   96.89
   3  -1  -6 1356.86   95.89
  -3  -1   6 1367.46   96.19
  -3   1   6 1382.36   96.89
  -3   1   6 1474.75   95.69
  -3   1   6 1373.96   96.09
   3   1  -6 1425.56   97.19
   3   1  -6 1448.16   95.79
  -2  -1   6  629.94   42.40
   2  -1  -6  591.84   42.40
  -2  -1   6  610.84   43.20
   2  -1  -6  615.74   43.20
  -2  -1   6  588.94   42.60
  -2   1   6  613.74   42.30
   2   1  -6  639.24   43.50
   2   1  -6  620.44   42.50
  -2   1   6  572.94   42.60
  -2   1   6  637.34   43.30
  -2   1   6  544.05   43.00
   1  -1  -6  671.63   46.10
  -1  -1   6  690.23   45.60
  -1  -1   6  707.83   46.30
  -1  -1   6  554.84   45.70
   1  -1  -6  608.64   45.50
   1   1  -6  693.93   45.40
   1   1  -6  656.03   45.60
   1   1  -6  652.53   46.40
  -1   1   6  634.94   45.40
  -1   1   6  659.43   46.10
   0  -1   6 1833.92  126.29
   0  -1   6 1736.43  126.39
   0  -1  -6 1775.42  125.79
   0  -1   6 1826.82  125.89
   0  -1   6 1668.53  125.79
   0   1  -6 1937.31  126.59
   0   1  -6 1545.75  126.29
   0   1   6 1821.62  125.89
   0   1  -6 2012.20  125.59
   0   1   6 1980.20  126.29
   0   1  -6 1885.01  125.89
   0   1   6 1708.63  125.59
   0   1   6 1847.92  127.29
   1  -1   6 1286.67   86.29
  -1  -1  -6 1195.38   86.29
   1  -1   6 1141.49   86.89
   1  -1   6 1183.98   86.29
  -1   1  -6 1392.76   86.99
  -1   1  -6 1264.57   86.49
   1   1   6 1128.09   86.09
  -1   1  -6 1429.76   86.09
   1   1   6 1179.38   86.29
   1   1   6 1206.38   86.69
  -2  -1  -6 1768.82  120.59
  -2  -1  -6 1609.24  120.19
   2  -1   6 1598.54  120.29
   2  -1   6 1765.32  120.89
  -2   1  -6 1489.05  119.79
  -2   1  -6 1747.23  120.39
  -2   1  -6 1922.81  120.79
   2   1   6 1820.02  120.69
   2   1   6 1767.52  119.99
   2   1   6 1760.22  120.29
   2   1   6 1758.82  120.79
   3  -1   6  432.46   30.30
   3  -1   6  450.75   29.90
   3  -1   6  441.36   30.90
  -3  -1  -6  422.06   30.10
  -3  -1  -6  428.66   30.40
   3   1   6  445.46   30.60
   3   1   6  391.46   30.10
  -3   1  -6  371.86   29.50
   3   1   6  382.46   29.70
  -3   1  -6  413.56   30.20
  -3   1  -6  435.76   30.60
  -4  -1  -6  114.79    9.40
   4  -1   6  108.39    8.70
   4  -1   6  108.69   10.10
  -4  -1  -6  105.19   11.00
   4  -1   6  109.39    9.40
   4   1   6  112.69   10.00
  -4   1  -6   96.29    8.30
  -4   1  -6  111.09    9.70
   4   1   6  108.09    8.80
   4   1   6  118.69    9.50
  -5  -1  -6  160.88   12.50
   5  -1   6  151.18   12.50
   5  -1   6  148.79   11.50
   5  -1   6  124.59   13.40
  -5   1  -6  141.39   13.00
  -5   1  -6  161.28   12.50
   5   1   6  137.89   11.60
   5   1   6  149.39   12.40
   5   1   6  138.69   13.10
  -6  -1  -6   19.70    3.80
   6  -1   6    9.80    2.90
  -6   1  -6   14.60    3.70
   6   1   6   11.10    3.10
   6   1   6   10.30    2.50
  -7  -1  -6   -1.40    1.90
   7  -1   6   -1.40    1.60
  -7   1  -6    0.50    1.80
   7   1   6   -0.80    2.50
   7   1   6    1.60    2.10
   7  -2  -6    3.70    1.80
  -7  -2   6    1.00    2.30
   7   2  -6    1.80    2.10
  -7   2   6    2.70    2.50
   6  -2  -6   35.40    4.30
  -6  -2   6   35.40    4.90
   6   2  -6   31.30    4.60
   6   2  -6   28.80    3.90
  -6   2   6   33.10    5.20
  -6   2   6   27.30    3.40
  -5  -2   6  384.66   28.30
   5  -2  -6  410.46   28.00
  -5   2   6  394.96   27.40
  -5   2   6  340.07   29.40
  -5   2   6  389.26   28.40
   5   2  -6  355.26   29.80
   5   2  -6  390.26   27.60
   5   2  -6  397.46   28.20
  -4  -2   6  192.18   18.00
   4  -2  -6  243.38   17.00
  -4  -2   6  232.58   17.40
  -4   2   6  222.58   17.30
   4   2  -6  229.38   18.80
  -4   2   6  220.88   18.30
  -4   2   6  242.98   16.60
   4   2  -6  234.28   16.80
   4   2  -6  237.58   17.20
  -3  -2   6  168.78   12.90
  -3  -2   6  179.68   13.60
  -3  -2   6  170.98   14.20
   3  -2  -6  186.88   13.20
  -3   2   6  181.78   12.90
   3   2  -6  192.78   14.80
  -3   2   6  181.18   14.30
   3   2  -6  183.08   13.40
  -3   2   6  170.68   13.40
   3   2  -6  172.58   13.10
   2  -2  -6 1858.01  133.49
  -2  -2   6 1868.71  134.39
  -2  -2   6 1884.21  133.89
  -2   2   6 2019.30  134.49
  -2   2   6 1865.71  133.79
   2   2  -6 1915.51  133.69
  -2   2   6 1902.31  133.39
   2   2  -6 1954.90  133.59
   2   2  -6 2109.89  134.89
  -2   2   6 1869.61  134.29
  -1  -2   6 1701.03  119.99
  -1  -2   6 1771.42  120.89
   1  -2  -6 1654.43  119.69
  -1  -2   6 1663.53  119.79
   1  -2  -6 1724.93  119.79
  -1   2   6 1763.02  120.29
  -1   2   6 1661.63  119.59
   1   2  -6 1891.81  120.89
   1   2  -6 1800.82  119.69
   1   2  -6 1631.44  119.89
   0  -2  -6  242.38   18.70
   0  -2   6  249.78   18.90
   0   2  -6  292.37   19.10
   0   2  -6  268.27   19.80
   0   2   6  259.17   18.60
   0   2  -6  305.47   21.50
   0   2   6  258.27   19.30
  -1  -2  -6  813.92   61.89
   1  -2   6  973.80   62.89
   1  -2   6  882.11   61.99
  -1   2  -6 1026.00   61.79
  -1   2  -6  824.62   62.19
   1   2   6  831.22   61.69
   1   2   6  878.51   62.29
  -1   2  -6  855.71   62.79
   1   2   6  924.01   62.39
  -1   2  -6  882.21   62.79
   2  -2   6  163.48   13.40
   2  -2   6  167.48   13.10
  -2  -2  -6  163.48   13.10
   2  -2   6  174.28   14.10
   2   2   6  171.18   13.30
   2   2   6  205.18   13.80
   2   2   6  187.68   13.00
   2   2   6  181.08   13.90
  -2   2  -6  204.58   14.10
  -2   2  -6  185.38   12.90
  -3  -2  -6   45.60    4.30
   3  -2   6   52.19    5.50
  -3  -2  -6   38.60    4.70
   3   2   6   36.40    5.40
   3   2   6   45.10    4.90
   3   2   6   37.60    4.50
   3   2   6   38.20    3.90
  -3   2  -6   52.29    5.20
  -3   2  -6   40.10    3.80
  -4  -2  -6 1241.98   79.79
   4  -2   6 1019.60   80.59
   4  -2   6 1129.49   79.79
   4  -2   6 1150.18   79.19
  -4   2  -6 1104.69   79.89
   4   2   6 1203.08   80.69
   4   2   6 1157.08   79.29
  -4   2  -6 1029.90   78.89
  -4   2  -6 1128.39   80.29
   4   2   6 1141.29   79.79
  -5  -2  -6   60.09    6.20
   5  -2   6   52.49    6.10
   5   2   6   56.89    6.10
   5   2   6   46.80    6.70
  -5   2  -6   49.90    6.10
  -5   2  -6   42.90    4.50
  -5   2  -6   48.60    6.70
   5   2   6   53.69    5.40
  -6  -2  -6   22.90    4.30
   6  -2   6   24.70    4.40
  -6   2  -6   30.00    5.00
   6   2   6   30.50    4.20
   6   2   6   23.40    4.60
   7  -2   6   12.80    3.00
  -7  -2  -6   12.80    2.70
   7   2   6   14.90    4.10
   7   2   6   13.00    2.50
  -7   2  -6   22.60    3.90
   6  -3  -6   35.80    4.40
  -6  -3   6   31.00    5.10
  -6   3   6   47.10    5.80
  -6   3   6   43.00    4.10
   6   3  -6   36.30    4.50
   6   3  -6   43.40    5.10
   5  -3  -6   68.79    6.20
  -5  -3   6   65.39    7.10
  -5   3   6   69.49    8.30
  -5   3   6   65.89    5.80
   5   3  -6   72.29   11.20
   5   3  -6   65.29    6.70
   5   3  -6   66.09    6.30
  -5   3   6   78.29    7.30
  -4  -3   6  316.47   24.00
   4  -3  -6  330.77   23.40
  -4   3   6  320.27   23.20
   4   3  -6  321.47   23.40
   4   3  -6  336.37   23.80
   4   3  -6  334.37   25.70
  -4   3   6  320.67   25.10
  -4   3   6  312.97   24.00
  -3  -3   6  592.24   48.10
   3  -3  -6  745.73   47.10
  -3   3   6  651.93   47.50
  -3   3   6  681.73   48.50
   3   3  -6  690.73   47.50
   3   3  -6  650.53   47.20
   3   3  -6  689.53   48.90
  -3   3   6  671.23   47.10
  -2  -3   6  137.79   11.10
   2  -3  -6  162.88   10.40
  -2  -3   6  120.49   11.30
  -2   3   6  154.68   11.00
  -2   3   6  138.99   11.30
  -2   3   6  146.09   10.30
   2   3  -6  138.59   12.10
  -2   3   6  159.28   11.60
   2   3  -6  136.89   10.70
   2   3  -6  138.39   10.60
  -1  -3   6  398.06   30.40
  -1  -3   6  428.66   30.00
  -1   3   6  445.86   30.20
   1   3  -6  485.85   32.80
  -1   3   6  426.46   31.30
   1   3  -6  420.76   29.60
   1   3  -6  362.46   29.90
   0  -3   6  786.02   56.19
   0  -3   6  891.71   56.79
   0   3  -6  842.92   55.89
   0   3  -6  828.52   56.39
   0   3  -6  704.33   56.99
   0   3   6  781.62   56.39
   0   3  -6  791.72   57.19
   1  -3   6  153.98   11.50
   1  -3   6  155.98   12.00
  -1   3  -6  144.99   12.10
   1   3   6  152.88   12.80
  -1   3  -6  151.58   11.50
   2  -3   6  791.22   59.99
  -2   3  -6  845.12   59.49
   2   3   6  859.51   59.49
  -2   3  -6  909.21   60.79
   2   3   6  843.62   60.29
  -2   3  -6  813.12   60.09
   2   3   6  913.41   60.19
   3  -3   6   96.59    8.10
  -3  -3  -6  101.39    7.60
   3  -3   6   76.39    8.60
  -3   3  -6   96.19    8.30
   3   3   6   95.79    8.00
  -3   3  -6   78.79    8.20
   3   3   6   98.79    8.40
   3   3   6  110.79    8.90
  -3   3  -6  102.69    8.90
   4  -3   6  286.77   21.60
  -4  -3  -6  303.47   21.10
  -4   3  -6  287.77   24.70
   4   3   6  286.17   22.10
   4   3   6  278.97   21.50
  -4   3  -6  265.77   20.70
   4   3   6  293.17   21.00
  -4   3  -6  284.97   21.80
  -5  -3  -6  133.59   11.10
   5  -3   6  158.18   11.90
  -5   3  -6  122.29   10.50
   5   3   6  142.29   11.20
  -5   3  -6  136.89   11.90
   5   3   6  129.19   11.70
   5   3   6  134.29   12.60
  -6  -3  -6    3.70    2.30
   6  -3   6    5.50    2.40
   6   3   6    2.70    2.90
  -6   3  -6    9.20    2.80
  -6   3  -6    3.70    1.90
   6   3   6    6.60    2.40
  -6  -4   6    3.20    2.20
   6  -4  -6    3.80    2.30
   6   4  -6    6.50    3.00
   6   4  -6    6.40    2.40
  -6   4   6    5.30    1.60
  -6   4   6   14.10    3.50
   5  -4  -6  293.27   19.50
   5   4  -6  238.08   19.70
  -5   4   6  276.87   19.60
   5   4  -6  259.57   20.30
  -4  -4   6   38.50    5.50
   4  -4  -6   55.59    4.40
  -4   4   6   47.00    5.60
   4   4  -6   46.90    7.00
  -4   4   6   54.19    4.50
   4   4  -6   46.90    5.20
   4   4  -6   47.40    5.30
  -4   4   6   47.00    6.50
  -3  -4   6   21.20    3.70
   3  -4  -6   18.60    2.20
  -3   4   6   17.40    3.90
  -3   4   6   18.60    2.40
   3   4  -6   20.00    5.60
   3   4  -6   21.40    3.30
   3   4  -6   23.60    3.30
  -2  -4   6 1181.28   76.19
   2   4  -6 1008.70   76.19
   2   4  -6 1088.99   77.49
   2   4  -6 1058.69   76.19
  -2   4   6 1016.40   75.59
  -2   4   6 1166.98   76.79
  -2   4   6 1095.99   76.69
  -1  -4   6  624.94   50.29
  -1  -4   6  673.93   49.99
  -1   4   6  768.12   50.39
   1   4  -6  753.12   50.59
  -1   4   6  800.72   50.39
  -1   4   6  625.74   49.50
   1   4  -6  752.32   51.49
   1   4  -6  710.73   49.80
   0  -4   6  356.56   24.50
   0   4   6  361.46   24.00
   0   4  -6  315.47   24.30
   0   4  -6  322.47   23.70
   0   4  -6  330.47   25.30
   1  -4   6  721.13   47.20
  -1   4  -6  615.34   48.10
  -1   4  -6  620.94   47.90
   1   4   6  630.44   46.90
   1   4   6  741.83   47.00
  -1   4  -6  670.73   47.30
   2  -4   6   18.80    4.00
   2   4   6   18.70    3.30
   2   4   6   16.70    2.20
  -2   4  -6   21.10    2.30
  -2   4  -6   23.30    4.00
   2   4   6   23.80    3.30
  -2   4  -6   17.40    3.20
   3  -4   6   61.69    5.50
  -3   4  -6   62.59    7.30
  -3   4  -6   49.10    4.70
   3   4   6   45.30    4.70
  -3   4  -6   56.79    6.50
   3   4   6   50.89    6.30
   4  -4   6  801.62   55.39
   4   4   6  795.32   55.89
  -4   4  -6  721.03   54.49
  -4   4  -6  760.92   56.39
  -4   4  -6  768.92   55.69
   4   4   6  801.02   54.89
   5  -4   6    9.70    2.70
  -5   4  -6   13.30    3.30
  -5   4  -6   15.20    2.50
   5   4   6   15.90    3.10
   6  -4   6   21.20    3.90
  -6   4  -6   17.90    2.90
  -6   4  -6   31.80    5.70
   6   4   6   25.30    4.20
  -6   5   6    7.70    1.70
   6   5  -6    1.60    1.90
  -5  -5   6    4.80    1.80
   5   5  -6    6.10    2.50
   5   5  -6    0.60    2.70
  -5   5   6    7.10    1.90
  -4  -5   6  122.19    9.30
   4   5  -6  100.79    9.70
  -4   5   6  108.19   13.30
  -4   5   6  138.39    9.90
   4   5  -6  100.29   12.10
  -3  -5   6  299.27   22.20
  -3   5   6  306.47   23.50
   3   5  -6  301.07   24.30
  -3   5   6  317.17   21.90
   3   5  -6  305.67   22.20
  -2  -5   6   41.90    4.10
   2   5  -6   40.00    4.60
  -2   5   6   43.70    3.50
   2   5  -6   40.20    6.00
   2   5  -6   42.00    4.30
   1   5  -6  131.99    9.20
  -1   5   6  131.69    9.50
   1   5  -6  115.59    9.80
  -1   5   6  110.59    8.70
   1   5  -6  124.89   11.30
   0  -5   6  403.36   28.50
   0   5  -6  407.46   28.10
   0   5  -6  369.26   29.00
   0   5  -6  418.16   30.30
   1  -5   6   10.70    2.10
  -1   5  -6   12.20    3.10
  -1   5  -6   12.60    2.30
  -1   5  -6   13.80    2.00
   2  -5   6  309.97   23.30
   2   5   6  301.57   23.30
   2   5   6  325.47   22.80
   2   5   6  324.87   23.30
  -2   5  -6  300.07   23.70
  -2   5  -6  348.87   22.80
  -2   5  -6  323.47   24.70
   3   5   6   59.39    5.10
   3   5   6   52.29    5.90
  -3   5  -6   53.39    5.00
  -3   5  -6   54.49    6.80
  -3   5  -6   56.69    6.00
   4  -5   6   59.69    6.00
  -4   5  -6   50.69    9.90
  -4   5  -6   51.59    6.30
   5  -5   6   46.20    5.00
   5   5   6   41.60    5.10
  -5   5  -6   38.20    4.30
  -5   5  -6   50.19    6.10
   6  -5   6    8.70    2.00
  -6   5  -6    8.20    2.80
  -5   6   6   47.00    4.40
   5   6  -6   40.90    5.00
   4   6  -6   20.80    3.70
  -4   6   6   20.20    2.90
  -3   6   6   29.10    3.10
   3   6  -6   28.00    6.80
   3   6  -6   24.30    4.40
  -3   6   6   27.20    5.10
  -2   6   6  126.89    9.90
   2   6  -6  127.49    9.50
   2   6  -6  111.19   11.30
  -2   6   6  119.09    9.00
   1   6  -6  144.49   10.80
   0   6  -6   84.89    7.00
   0   6  -6  100.89    9.80
  -1   6  -6   83.49    9.70
  -1   6  -6  108.69    7.60
   2  -6   6   11.20    2.10
  -2   6  -6    7.50    1.60
   2   6   6   11.30    1.90
  -2   6  -6    4.90    2.80
   3   6   6    3.80    2.00
   3   6   6    6.80    1.80
   4  -6   6  283.77   20.80
  -4   6  -6  272.47   21.00
   4   6   6  307.07   21.40
  -5   6  -6   13.60    2.90
   4   7  -6    7.70    2.50
  -4   7   6   13.80    2.20
   3   7  -6   72.09    6.70
  -3   7   6   80.99    6.30
  -2   7   6   22.70    2.50
   2   7  -6   22.70    3.40
   0   7  -6  106.29    7.70
   0   7  -6   87.29    9.70
  -2   7  -6   39.80    4.30
   2   7   6   49.10    4.00
  -3   7  -6    8.30    2.00
  -4   7  -6   16.70    2.90
   4   7   6   21.00    4.70
  -3   8   6    9.70    1.60
   3   8  -6    5.90    2.10
   2   8  -6   79.09    6.70
  -2   8   6   84.29    6.50
   1   8  -6   28.70    3.30
   0   8  -6   72.09    6.00
  -1   8  -6   35.90    3.70
  -2   8  -6    5.60    1.70
   3   8   6    4.90    1.40
  -3   8  -6    7.50    1.90
   1   9  -6   11.00    2.00
   0   9  -6   18.70    2.50
  -1   9  -6    3.60    1.30
   7   0  -7    7.10    2.50
  -7   0   7    8.10    3.00
  -6   0   7   13.30    3.40
   6   0  -7    6.20    2.40
   5   0  -7   58.89    5.90
  -5   0   7   64.99    6.60
  -5   0   7   55.69    5.10
  -5   0   7   57.19    7.70
   4   0  -7  647.94   46.90
  -4   0   7  670.43   47.70
  -4   0   7  614.24   48.60
   4   0  -7  745.83   47.80
   3   0  -7  307.87   22.00
  -3   0   7  288.07   23.00
  -3   0   7  307.07   21.70
   3   0  -7  328.67   21.70
  -3   0   7  298.17   22.20
   3   0  -7  299.27   23.20
  -2   0   7  140.09   10.80
   2   0  -7  152.88   12.10
  -2   0   7  161.78   12.10
   2   0  -7  148.69   11.00
   2   0  -7  152.98   10.70
  -2   0   7  142.89   11.20
  -1   0   7    3.00    1.70
   1   0  -7    3.80    2.10
  -1   0   7    2.80    1.30
   1   0  -7    4.40    1.80
  -1   0   7    3.40    1.30
  -1   0   7    3.00    1.80
   0   0   7 2409.06  154.08
   0   0   7 2075.09  153.58
   0   0   7 2252.27  153.38
   0   0  -7 2342.17  154.18
   0   0  -7 2340.07  153.18
   0   0   7 1988.40  153.98
   0   0  -7 2083.79  153.48
   1   0   7  517.55   40.10
  -1   0  -7  649.74   41.80
   1   0   7  557.44   40.60
   1   0   7  552.14   40.10
  -1   0  -7  532.85   39.70
   1   0   7  570.74   40.90
  -1   0  -7  617.54   40.30
   2   0   7 3785.72  260.57
  -2   0  -7 3507.35  260.47
   2   0   7 3950.70  261.07
   2   0   7 3608.74  260.17
  -2   0  -7 3922.21  261.07
   3   0   7  765.12   54.19
  -3   0  -7  774.32   54.59
  -3   0  -7  713.63   53.79
  -3   0  -7  798.02   54.99
   3   0   7  806.12   55.19
  -4   0  -7    5.20    2.30
   4   0   7    4.50    2.30
   4   0   7    4.90    1.70
  -4   0  -7    4.10    2.00
   4   0   7    6.30    2.30
   5   0   7   53.59    6.40
  -5   0  -7   49.50    6.10
   5   0   7   49.99    5.20
   5   0   7   45.30    6.70
  -6   0  -7   68.19    7.10
   6   0   7   54.79    5.70
   6   0   7   50.79    6.60
   7   0   7    5.10    2.40
  -7   0  -7    3.60    2.80
   7  -1  -7    2.30    2.00
  -7  -1   7    2.00    2.60
   7   1  -7    4.80    2.30
  -7   1   7    2.50    2.20
   6  -1  -7    1.80    1.80
  -6  -1   7    0.30    2.30
  -6   1   7   -0.80    1.40
   6   1  -7    0.30    2.10
  -6   1   7    1.80    2.40
  -5  -1   7   86.89   12.10
  -5   1   7   56.29    7.70
  -5   1   7   71.19    6.90
   5   1  -7   56.69    8.40
   5   1  -7   70.39    6.50
   5   1  -7   65.89    5.80
  -5   1   7   61.39    5.50
   4  -1  -7  335.47   24.90
   4  -1  -7  294.07   26.20
  -4  -1   7  302.27   26.10
  -4  -1   7  358.06   25.40
  -4  -1   7  359.46   24.60
   4   1  -7  350.06   26.90
   4   1  -7  369.06   25.20
   4   1  -7  377.16   24.70
  -4   1   7  355.96   25.40
  -4   1   7  365.96   24.60
  -4   1   7  322.07   26.30
   3  -1  -7   75.29    5.90
  -3  -1   7   80.09    6.40
  -3  -1   7   70.19    7.10
   3  -1  -7   76.69    7.20
   3   1  -7   74.59    5.80
   3   1  -7   65.69    7.30
  -3   1   7   64.59    6.20
  -3   1   7   64.09    7.00
   3   1  -7   66.79    5.90
  -3   1   7   63.49    5.50
   2  -1  -7 1259.37   87.99
  -2  -1   7 1223.48   87.39
  -2  -1   7 1274.07   88.09
   2  -1  -7 1353.66   87.09
  -2  -1   7 1234.78   87.09
  -2   1   7 1233.28   88.19
  -2   1   7 1173.48   87.29
  -2   1   7 1341.77   88.09
   2   1  -7 1189.88   88.19
  -2   1   7 1254.27   86.99
   2   1  -7 1204.48   87.09
   2   1  -7 1276.67   86.99
  -1  -1   7 1636.54  110.09
  -1  -1   7 1755.72  109.29
  -1  -1   7 1569.74  109.99
   1  -1  -7 1459.35  109.29
   1  -1  -7 1562.04  109.89
   1   1  -7 1639.84  109.09
   1   1  -7 1698.83  110.29
  -1   1   7 1467.75  109.39
  -1   1   7 1562.74  109.19
  -1   1   7 1457.45  109.99
   1   1  -7 1488.35  109.89
  -1   1   7 1590.64  109.89
   0  -1   7  762.22   48.60
   0  -1   7  715.43   48.40
   0  -1  -7  734.43   48.50
   0   1  -7  788.12   48.20
   0   1   7  610.14   48.60
   0   1  -7  712.53   49.30
   0   1   7  637.54   48.20
   0   1   7  625.34   49.00
   0   1   7  655.13   48.90
   1  -1   7  518.35   33.90
   1  -1   7  441.96   34.50
  -1  -1  -7  424.26   34.20
   1   1   7  507.85   33.70
   1   1   7  452.45   34.40
   1   1   7  481.45   33.90
  -1   1  -7  513.65   34.80
  -1   1  -7  504.35   34.10
   1   1   7  487.45   34.40
  -2  -1  -7 1598.84  121.69
   2  -1   7 1713.93  121.89
  -2  -1  -7 1573.74  122.09
   2  -1   7 1736.53  122.49
   2  -1   7 1687.23  121.59
   2   1   7 1794.12  121.89
   2   1   7 1742.83  121.49
  -2   1  -7 1938.81  122.59
   2   1   7 1726.93  122.49
  -2   1  -7 1982.20  122.29
   3  -1   7   94.39   12.20
  -3  -1  -7  120.69    9.10
   3  -1   7  108.69    9.00
   3  -1   7  109.09    8.60
  -3  -1  -7  111.89    9.40
  -3   1  -7  114.79    9.50
  -3   1  -7  109.79    9.10
   3   1   7  113.09    9.10
   3   1   7  108.89    8.60
   3   1   7  107.49    9.50
  -3   1  -7  108.39    8.30
   4  -1   7  327.67   25.70
   4  -1   7  341.17   25.00
   4  -1   7  354.16   24.40
  -4  -1  -7  353.96   25.00
  -4   1  -7  324.07   23.90
   4   1   7  319.77   25.40
  -4   1  -7  327.07   25.30
  -4   1  -7  328.57   25.00
   4   1   7  337.07   24.30
   5  -1   7  665.03   49.90
   5  -1   7  709.23   50.79
  -5  -1  -7  774.62   50.89
   5   1   7  718.73   50.89
  -5   1  -7  726.63   50.99
   5   1   7  640.94   51.39
   5   1   7  690.53   50.09
   6  -1   7    7.70    2.70
  -6  -1  -7    6.00    2.90
   6   1   7   12.30    3.20
  -6   1  -7    8.60    3.00
   6   1   7    7.00    2.20
   7  -1   7    8.10    2.50
  -7  -1  -7    8.70    2.60
  -7   1  -7   15.10    3.20
   7   1   7   11.90    2.80
  -7  -2   7    8.70    2.70
   7  -2  -7   11.30    2.30
  -7   2   7   11.50    3.20
   7   2  -7   12.20    2.70
  -6  -2   7   45.70    5.70
   6  -2  -7   46.30    5.10
   6   2  -7   40.00    4.80
  -6   2   7   53.49    6.00
   6   2  -7   46.30    5.40
  -6   2   7   43.20    4.30
  -5  -2   7    4.00    2.40
   5  -2  -7    4.80    2.00
   5   2  -7    3.40    2.20
   5   2  -7    5.50    2.30
  -5   2   7    5.00    2.50
  -5   2   7    1.10    3.00
   5   2  -7    4.50    3.30
  -5   2   7    6.10    1.60
  -4  -2   7  351.76   29.60
   4  -2  -7  409.96   28.40
  -4  -2   7  406.16   28.90
   4   2  -7  424.66   28.70
  -4   2   7  381.96   28.00
   4   2  -7  385.26   30.30
  -4   2   7  383.56   28.70
   4   2  -7  409.26   28.20
   3  -2  -7 1056.39   68.89
  -3  -2   7  895.61   69.99
  -3  -2   7 1050.19   69.39
  -3  -2   7  958.30   68.69
   3   2  -7 1015.20   68.79
  -3   2   7  985.90   68.69
  -3   2   7  998.20   70.19
   3   2  -7  964.50   70.49
  -3   2   7  943.61   69.19
  -2  -2   7  503.65   36.60
  -2  -2   7  496.25   36.10
   2  -2  -7  538.95   36.20
  -2  -2   7  517.45   37.30
   2  -2  -7  490.65   37.30
   2   2  -7  536.95   36.20
  -2   2   7  509.45   36.50
   2   2  -7  500.95   37.50
  -2   2   7  496.25   37.10
  -2   2   7  551.14   37.20
  -2   2   7  499.65   36.00
   2   2  -7  539.75   36.40
   1  -2  -7  442.76   28.90
  -1  -2   7  468.85   29.20
   1  -2  -7  434.66   29.00
  -1  -2   7  392.26   28.80
  -1   2   7  428.36   29.50
   1   2  -7  352.36   28.90
  -1   2   7  372.16   28.60
  -1   2   7  349.87   28.90
   1   2  -7  431.06   28.70
  -1   2   7  385.56   29.50
   1   2  -7  452.65   30.10
   0  -2   7 1361.46  103.29
   0  -2  -7 1395.56  102.59
   0  -2   7 1510.55  102.89
   0  -2   7 1535.55  102.69
   0   2  -7 1638.54  102.99
   0   2   7 1437.16  103.19
   0   2  -7 1431.26  102.39
   0   2   7 1420.66  102.39
   0   2  -7 1570.64  103.79
   1  -2   7  346.57   25.50
   1  -2   7  397.86   26.50
  -1  -2  -7  316.27   25.40
   1   2   7  368.36   26.10
  -1   2  -7  368.56   25.80
   1   2   7  366.66   25.30
   1   2   7  347.87   25.90
  -1   2  -7  375.26   26.60
   2  -2   7 1784.02  130.79
  -2  -2  -7 1633.34  130.59
   2  -2   7 1837.42  130.49
   2  -2   7 1639.04  131.29
  -2  -2  -7 1855.51  130.59
  -2   2  -7 2153.78  131.69
   2   2   7 1935.01  131.39
  -2   2  -7 1938.41  130.29
  -2   2  -7 1899.91  130.89
   2   2   7 1918.21  130.39
   2   2   7 1906.01  130.79
   2   2   7 2024.40  131.19
   3  -2   7  354.76   28.30
   3  -2   7  380.16   27.10
   3  -2   7  358.66   27.50
  -3  -2  -7  387.46   27.40
  -3   2  -7  392.26   28.20
  -3   2  -7  358.16   26.90
   3   2   7  397.46   28.00
  -3   2  -7  383.26   27.70
   3   2   7  389.26   27.10
   3   2   7  387.26   27.50
   4  -2   7   22.50    4.70
  -4  -2  -7   31.70    4.30
   4  -2   7   29.10    5.00
   4  -2   7   19.80    3.30
  -4   2  -7   26.90    3.10
   4   2   7   22.20    4.70
   4   2   7   21.90    3.80
  -4   2  -7   29.10    4.50
   4   2   7   26.60    3.70
  -4   2  -7   29.30    4.80
   5  -2   7   30.00    5.30
  -5  -2  -7   39.00    5.40
  -5   2  -7   35.90    6.90
  -5   2  -7   52.49    7.20
   5   2   7   48.40    5.90
  -5   2  -7   39.40    3.90
   5   2   7   45.20    4.90
   5   2   7   28.30    7.30
   6  -2   7   39.30    5.30
  -6  -2  -7   39.20    5.40
  -6   2  -7   45.70    5.80
   6   2   7   39.60    4.90
   6   2   7   33.10    5.80
  -6  -3   7   10.80    3.20
   6  -3  -7   13.30    2.50
   6   3  -7   15.00    2.70
  -6   3   7   13.50    2.30
  -6   3   7   10.50    3.30
   6   3  -7   11.30    3.00
   5  -3  -7   34.40    3.70
  -5  -3   7   24.10    4.90
  -5   3   7   25.90    4.20
  -5   3   7   29.20    4.60
   5   3  -7   26.10    4.20
   5   3  -7   25.90    5.30
   5   3  -7   26.10    3.90
  -5   3   7   21.30    5.30
  -4  -3   7  207.98   17.80
   4  -3  -7  231.78   17.10
  -4   3   7  231.28   17.70
  -4   3   7  225.98   18.90
  -4   3   7  245.68   17.00
   4   3  -7  257.57   17.70
   4   3  -7  237.88   17.20
   4   3  -7  218.78   19.40
   3  -3  -7   35.40    3.40
  -3  -3   7   29.60    5.80
  -3  -3   7   33.50    4.60
  -3   3   7   31.90    4.90
  -3   3   7   31.90    3.20
   3   3  -7   34.60    5.60
   3   3  -7   34.50    3.80
   3   3  -7   37.30    4.00
   2  -3  -7 1038.60   75.89
  -2  -3   7 1153.28   76.49
  -2  -3   7 1114.99   77.19
  -2   3   7 1159.08   77.09
  -2   3   7 1070.19   76.29
   2   3  -7 1148.39   76.29
  -2   3   7 1064.59   75.79
   2   3  -7  977.40   77.39
  -2   3   7 1045.40   76.99
   2   3  -7 1137.59   75.99
  -1  -3   7  461.25   33.20
  -1  -3   7  433.86   33.70
  -1   3   7  446.46   32.60
   1   3  -7  473.35   32.80
  -1   3   7  486.05   33.60
   1   3  -7  439.66   33.10
   1   3  -7  535.55   34.50
   0  -3   7  117.69    9.90
   0  -3   7  106.89    9.30
   0   3  -7  128.39    9.50
   0   3  -7  131.59   11.70
   0   3   7  115.89    9.60
   0   3  -7  127.49   10.60
   0   3   7  137.19    9.50
   0   3  -7  121.49    8.90
   1  -3   7  552.64   34.20
  -1   3  -7  445.66   34.70
   1   3   7  479.75   34.10
  -1   3  -7  468.75   34.10
   1   3   7  444.16   33.30
   2  -3   7  540.45   38.40
   2  -3   7  478.95   37.50
  -2   3  -7  543.55   38.40
   2   3   7  542.85   37.80
  -2   3  -7  508.45   37.70
   2   3   7  535.05   37.00
  -2   3  -7  529.95   36.90
   2   3   7  534.85   38.00
   3  -3   7  358.16   26.10
  -3  -3  -7  344.67   25.40
  -3   3  -7  401.26   27.20
   3   3   7  352.36   25.50
   3   3   7  339.67   25.90
  -3   3  -7  327.37   25.30
  -3   3  -7  375.86   27.00
   3   3   7  355.76   26.40
  -4  -3  -7  338.97   23.50
   4  -3   7  357.66   24.30
   4   3   7  325.37   23.50
  -4   3  -7  286.67   23.10
   4   3   7  313.27   24.50
  -4   3  -7  308.97   24.80
   4   3   7  319.57   24.00
  -4   3  -7  317.07   24.30
   5  -3   7  239.38   17.80
  -5  -3  -7  201.78   16.70
   5   3   7  246.38   17.20
  -5   3  -7  204.28   16.30
  -5   3  -7  215.28   18.50
   5   3   7  225.78   17.70
  -6  -3  -7   22.90    3.90
   6  -3   7   36.20    4.80
   6   3   7   32.30    4.50
  -6   3  -7   38.00    5.30
  -6  -4   7    0.20    2.90
   6  -4  -7    5.90    2.30
   6   4  -7    5.10    2.40
   6   4  -7    5.00    2.20
  -6   4   7    5.20    1.70
  -5  -4   7    3.20    2.20
   5  -4  -7    6.90    1.60
   5   4  -7    6.90    2.40
  -5   4   7   12.10    2.10
   5   4  -7    6.60    2.60
  -5   4   7   13.30    3.40
  -4  -4   7  149.09   12.60
   4  -4  -7  168.28   11.60
   4   4  -7  158.18   12.10
  -4   4   7  159.98   11.80
   4   4  -7  158.78   12.50
  -4   4   7  148.39   13.80
   4   4  -7  148.79   14.40
  -3  -4   7  158.78   12.10
   3   4  -7  143.79   13.70
  -3   4   7  152.58   11.30
   3   4  -7  149.79   11.60
  -3   4   7  159.08   13.10
  -2  -4   7   65.99    5.80
  -2   4   7   64.79    6.20
   2   4  -7   63.69    5.30
   2   4  -7   50.49    5.60
   2   4  -7   51.69    6.90
  -2   4   7   56.99    4.80
  -2   4   7   65.49    6.50
  -1  -4   7  252.77   17.60
  -1   4   7  201.28   16.80
   1   4  -7  260.27   19.20
   1   4  -7  244.68   17.70
   1   4  -7  242.68   17.20
  -1   4   7  232.68   17.90
  -1   4   7  253.27   17.90
   0  -4   7  786.52   50.19
   0   4   7  701.53   49.00
   0   4  -7  600.04   51.09
   0   4  -7  705.93   49.20
   0   4   7  746.03   49.10
   0   4  -7  655.53   48.50
   0   4  -7  673.03   50.29
   1  -4   7  223.18   17.20
  -1   4  -7  230.18   17.30
   1   4   7  211.38   16.30
  -1   4  -7  206.48   18.10
   1   4   7  255.67   17.20
  -1   4  -7  262.67   16.50
   2  -4   7  383.06   28.00
  -2   4  -7  373.96   28.20
   2   4   7  380.46   28.50
   2   4   7  379.36   27.30
  -2   4  -7  408.56   27.30
   2   4   7  391.56   28.10
  -2   4  -7  381.56   29.00
   3  -4   7  680.53   50.29
   3   4   7  701.53   50.59
  -3   4  -7  681.83   49.60
  -3   4  -7  737.13   51.59
   3   4   7  740.73   49.80
  -3   4  -7  693.73   50.69
   4  -4   7   29.50    4.70
   4   4   7   34.50    4.20
  -4   4  -7   30.20    4.90
   4   4   7   36.80    5.40
  -4   4  -7   29.30    3.60
  -4   4  -7   31.90    5.80
   5  -4   7   12.50    3.00
   5   4   7   21.30    3.60
  -5   4  -7   10.90    3.10
  -5   4  -7   13.10    2.40
  -6   4  -7   31.60    3.80
  -6   4  -7   38.00    5.20
   6   4   7   49.99    7.40
  -5  -5   7   46.90    4.70
   5   5  -7   37.50    5.50
   5   5  -7   53.79    5.20
   4   5  -7   42.10    5.00
  -4   5   7   48.20    4.50
  -3  -5   7  178.78   12.50
   3   5  -7  168.58   12.30
  -3   5   7  148.09   11.80
  -3   5   7  159.58   13.60
   3   5  -7  146.99   14.30
  -2  -5   7  387.36   27.60
   2   5  -7  402.26   27.40
  -2   5   7  378.26   27.00
   2   5  -7  370.96   27.90
  -2   5   7  419.26   28.40
   2   5  -7  341.67   29.30
  -1   5   7  131.79    9.50
  -1   5   7  114.89    8.60
   1   5  -7  113.59    9.70
   1   5  -7  121.69    9.00
   1   5  -7  110.89   13.20
   0  -5   7  224.98   15.00
   0   5  -7  209.48   16.70
   0   5  -7  180.38   14.10
   0   5  -7  178.18   15.00
   1  -5   7  302.27   22.60
  -1   5  -7  332.47   22.00
  -1   5  -7  292.07   23.00
   2  -5   7  195.58   14.80
  -2   5  -7  166.88   16.00
  -2   5  -7  205.98   14.10
  -2   5  -7  175.18   15.10
   2   5   7  214.18   14.10
   3  -5   7  302.77   21.40
   3   5   7  292.67   20.80
  -3   5  -7  271.47   22.80
   3   5   7  275.67   21.60
  -3   5  -7  278.07   20.60
  -3   5  -7  288.87   21.90
   4  -5   7   87.99    7.50
   4   5   7   74.69    7.00
  -4   5  -7   71.39    6.60
   5  -5   7   44.60    5.00
   5   5   7   49.80    5.30
  -5   5  -7   41.90    4.40
  -5   5  -7   43.80    5.90
   5   6  -7    0.40    2.00
  -5   6   7    1.70    1.50
   4   6  -7   32.50    4.40
  -4   6   7   36.50    3.80
   3   6  -7  156.38   12.50
  -3   6   7  170.48   12.20
  -2   6   7   30.10    3.70
  -2   6   7   21.70    2.60
   2   6  -7   29.50    3.70
   1   6  -7  157.98   11.00
   1   6  -7  148.89   13.50
  -1   6   7  135.39   10.50
   0   6  -7  212.28   17.80
   0   6  -7  204.98   15.00
   1  -6   7    7.80    1.60
  -1   6  -7    9.10    1.70
  -1   6  -7    8.20    3.10
   2  -6   7  176.58   13.00
  -2   6  -7  169.28   13.30
   2   6   7  173.48   12.80
  -3   6  -7  134.69   10.50
   3   6   7  144.99   10.70
  -3   6  -7  127.79   11.80
   4  -6   7    5.60    1.70
  -4   6  -7    3.90    2.70
   4   6   7    4.90    2.10
  -4   6  -7    3.60    1.60
  -5   6  -7   19.60    2.90
   5   6   7   29.90    4.00
   4   7  -7   30.00    5.60
  -4   7   7   45.50    4.30
   3   7  -7   70.49    6.10
  -3   7   7   61.99    5.50
   2   7  -7   81.39    6.80
  -2   7   7   81.09    6.30
   1   7  -7   38.70    3.90
   0   7  -7   65.99    5.50
  -1   7  -7  110.79    8.60
   2   7   7   28.00    3.00
  -2   7  -7   27.90    3.30
   3   7   7  103.29    8.20
  -3   7  -7   99.39    8.30
  -4   7  -7    8.70    2.10
   4   7   7    9.40    2.20
  -3   8   7   25.50    2.70
   3   8  -7   18.70    3.10
   2   8  -7    0.40    1.50
  -2   8   7    3.50    1.20
   1   8  -7   31.50    3.40
   0   8  -7   45.20    4.30
  -1   8  -7   18.50    2.70
  -2   8  -7   52.59    5.00
  -3   8  -7    9.50    1.90
  -7   0   8    3.10    1.90
   7   0  -8    3.10    1.90
   6   0  -8    4.80    2.40
  -6   0   8   12.30    3.80
   5   0  -8  138.79   10.30
  -5   0   8  113.49    9.40
  -5   0   8  111.69   12.20
  -5   0   8  131.09   10.80
  -4   0   8   48.00    5.60
   4   0  -8   44.70    4.30
   4   0  -8   50.79    5.00
  -4   0   8   47.50    4.30
  -4   0   8   51.69    6.60
   4   0  -8   47.60    7.10
  -3   0   8  420.46   32.40
  -3   0   8  403.86   30.80
   3   0  -8  458.55   31.20
   3   0  -8  428.86   32.50
  -3   0   8  432.66   31.40
   3   0  -8  479.65   30.80
   2   0  -8 1118.99   74.59
  -2   0   8 1135.09   76.09
  -2   0   8 1030.80   74.79
  -2   0   8 1038.70   75.19
   2   0  -8 1050.09   75.99
   1   0  -8 1437.36   89.09
   1   0  -8 1238.88   87.99
  -1   0   8 1211.78   88.69
  -1   0   8 1183.28   88.19
  -1   0   8 1124.39   89.29
  -1   0   8 1391.26   87.89
   0   0   8  182.38   12.40
   0   0   8  156.88   11.40
   0   0   8  146.49   12.30
   0   0   8  155.18   11.70
   0   0  -8  154.68   11.60
   0   0  -8  155.98   11.20
   1   0   8  118.99   10.70
   1   0   8  139.39    9.90
   1   0   8  128.09   10.10
  -1   0  -8  144.39   10.20
  -1   0  -8  139.79   11.00
  -1   0  -8  138.79    9.70
   1   0   8  131.99   10.70
   2   0   8   46.80    4.40
  -2   0  -8   51.09    4.80
  -2   0  -8   59.59    5.80
  -3   0  -8    7.80    2.10
   3   0   8    8.70    2.30
   3   0   8    8.30    2.50
  -3   0  -8    7.80    2.30
   3   0   8    8.40    1.80
   4   0   8   17.90    3.80
  -4   0  -8   24.80    4.00
  -4   0  -8   21.40    4.90
   4   0   8   22.10    3.40
   4   0   8   26.90    4.30
   5   0   8   11.10    3.20
  -5   0  -8    9.00    3.10
   5   0   8    5.80    3.40
   5   0   8    7.30    2.40
   6   0   8   49.70    6.30
   6   0   8   43.20    5.10
   7  -1  -8    1.70    1.70
  -7  -1   8    0.70    1.80
  -7   1   8    1.50    2.30
   7   1  -8    0.70    2.00
  -6  -1   8   44.50    6.10
   6  -1  -8   36.90    4.90
  -6   1   8   33.30    3.90
  -6   1   8   49.40    5.70
   6   1  -8   39.70    5.00
  -5  -1   8   12.80    3.20
   5  -1  -8   15.50    2.70
   5   1  -8   10.50    2.30
  -5   1   8    5.30    3.50
   5   1  -8   10.40    4.10
  -5   1   8   14.30    3.30
   5   1  -8   14.00    2.90
  -5   1   8    7.60    1.70
  -4  -1   8  658.23   46.10
  -4  -1   8  579.64   47.80
   4  -1  -8  674.93   46.40
   4   1  -8  721.73   46.60
   4   1  -8  675.63   46.00
  -4   1   8  649.83   46.10
   4   1  -8  639.54   48.30
  -4   1   8  634.84   48.10
  -4   1   8  657.23   46.80
   3  -1  -8  458.55   30.00
  -3  -1   8  434.96   30.30
   3  -1  -8  391.36   31.10
  -3  -1   8  445.46   29.70
  -3  -1   8  348.17   32.40
   3   1  -8  444.76   29.70
  -3   1   8  401.36   31.20
   3   1  -8  447.06   30.00
  -3   1   8  411.76   29.60
  -3   1   8  405.16   30.20
   2  -1  -8  106.29    9.40
  -2  -1   8  112.49    9.00
  -2  -1   8  111.19    9.80
  -2  -1   8  123.89    8.40
   2   1  -8  114.49    8.40
   2   1  -8  110.79    8.60
  -2   1   8  102.49    8.80
  -2   1   8  114.49    8.30
  -2   1   8  116.99    9.80
   1  -1  -8 3544.85  239.18
  -1  -1   8 3176.18  239.18
   1  -1  -8 3460.25  238.38
  -1  -1   8 3433.16  238.68
  -1   1   8 3189.58  238.58
  -1   1   8 3481.45  238.28
   1   1  -8 3783.82  238.18
   1   1  -8 4012.30  239.68
  -1   1   8 3422.56  239.08
   1   1  -8 3221.08  238.48
  -1   1   8 3116.59  239.18
   0  -1  -8 3183.18  216.68
   0  -1   8 3234.28  216.78
   0   1  -8 3085.39  216.78
   0   1   8 2692.73  217.18
   0   1   8 2927.91  216.68
   0   1   8 3518.05  217.28
   0   1   8 2941.61  216.48
   0   1  -8 3204.18  217.58
   0   1  -8 3341.57  216.38
   1  -1   8   63.39    4.90
   1  -1   8   50.69    5.00
   1  -1   8   56.99    5.80
  -1  -1  -8   58.79    6.00
  -1  -1  -8   56.49    4.90
  -1   1  -8   66.89    4.50
  -1   1  -8   50.29    5.90
  -1   1  -8   60.99    5.10
   1   1   8   55.09    5.50
   1   1   8   66.19    4.70
   1   1   8   55.39    4.90
   1   1   8   55.09    5.60
   2  -1   8   71.29    5.20
  -2  -1  -8   61.79    5.30
  -2  -1  -8   51.89    5.80
   2  -1   8   65.59    6.30
   2   1   8   53.39    6.10
   2   1   8   52.79    4.90
   2   1   8   59.29    6.00
  -2   1  -8   55.99    5.40
  -2   1  -8   66.89    6.40
   2   1   8   46.70    6.30
  -2   1  -8   62.59    4.70
  -3  -1  -8  447.56   37.10
   3  -1   8  507.75   36.90
   3  -1   8  523.95   36.50
  -3  -1  -8  533.65   36.90
   3  -1   8  497.45   37.60
  -3   1  -8  540.45   37.60
   3   1   8  534.35   37.00
   3   1   8  519.65   36.50
   3   1   8  512.15   37.40
  -3   1  -8  510.85   36.10
   4  -1   8   -1.20    1.90
   4  -1   8    0.20    1.50
   4  -1   8    1.10    2.00
  -4  -1  -8   -0.90    1.70
   4   1   8    0.10    1.70
   4   1   8    0.70    2.40
   4   1   8    0.50    1.40
  -4   1  -8   -1.50    2.10
  -4   1  -8    1.90    1.80
   5  -1   8  640.44   47.70
  -5  -1  -8  710.63   47.80
   5  -1   8  627.94   46.80
   5   1   8  658.63   47.00
   5   1   8  648.64   47.80
   5   1   8  634.04   49.60
  -5   1  -8  685.03   48.00
   6  -1   8    0.70    2.30
  -6  -1  -8    1.70    2.60
   6   1   8    1.40    1.90
   6   1   8    1.30    2.40
  -6   1  -8    2.10    2.40
   6  -2  -8    3.50    2.00
  -6  -2   8    2.80    2.20
  -6   2   8    2.50    1.40
  -6   2   8    5.90    2.70
   6   2  -8    1.70    2.30
  -5  -2   8   89.89    8.20
   5  -2  -8   83.89    7.30
  -5   2   8   86.29    6.90
   5   2  -8   62.59    9.70
   5   2  -8   92.89    7.80
   5   2  -8   82.49    7.00
  -5   2   8   75.39   10.00
  -5   2   8   89.59    8.00
  -4  -2   8   35.40    5.20
   4  -2  -8   41.90    4.30
  -4  -2   8   46.00    6.40
  -4   2   8   31.80    5.70
   4   2  -8   38.00    4.20
  -4   2   8   38.40    3.70
  -4   2   8   29.50    4.60
   4   2  -8   31.40    6.10
   4   2  -8   39.50    4.60
  -3  -2   8   24.20    4.70
   3  -2  -8   14.10    4.30
  -3  -2   8   26.80    2.80
  -3  -2   8   27.80    4.00
  -3   2   8   23.00    4.40
   3   2  -8   24.30    3.40
  -3   2   8   23.10    3.50
   3   2  -8   22.70    3.10
  -3   2   8   20.30    2.50
   3   2  -8   18.50    4.10
  -2  -2   8 1805.92  125.19
   2  -2  -8 1585.74  125.69
   2  -2  -8 1884.91  125.19
  -2  -2   8 1819.72  126.49
  -2  -2   8 1706.53  125.59
  -2   2   8 1834.92  125.59
  -2   2   8 1915.71  126.39
  -2   2   8 1759.12  126.29
   2   2  -8 1941.51  125.09
   2   2  -8 1653.83  126.49
   2   2  -8 1912.11  125.39
  -2   2   8 1803.32  125.09
  -1  -2   8  992.00   72.59
   1  -2  -8 1066.59   71.49
  -1  -2   8 1002.80   71.59
  -1  -2   8 1060.49   71.89
   1  -2  -8  893.41   71.79
  -1   2   8  983.10   72.49
  -1   2   8  951.90   71.79
  -1   2   8 1052.09   71.39
   1   2  -8  964.50   71.79
  -1   2   8 1046.30   72.39
   1   2  -8 1138.09   71.49
   1   2  -8 1182.68   73.09
   0  -2   8  108.29    8.10
   0  -2   8  103.99    9.10
   0  -2   8  110.39    8.40
   0  -2  -8  104.49    8.10
   0   2  -8  121.49    7.90
   0   2  -8  103.09    8.30
   0   2   8  102.39    8.80
   0   2   8  112.29    8.20
   0   2   8  102.59    7.80
   0   2  -8  108.49    9.50
  -1  -2  -8 1027.40   77.99
   1  -2   8 1136.29   77.99
   1  -2   8 1294.77   79.09
  -1   2  -8 1233.08   77.69
  -1   2  -8 1051.19   79.09
   1   2   8 1164.88   77.79
  -1   2  -8 1119.59   78.29
   1   2   8 1042.40   78.59
   1   2   8  998.20   78.49
   2  -2   8   79.49    7.10
   2   2   8   70.79    6.10
  -2   2  -8   64.59    5.30
   2   2   8   62.89    5.50
   2   2   8   74.39    6.70
  -2   2  -8   66.09    6.20
   2   2   8   65.19    6.70
   3  -2   8   96.59    7.30
   3  -2   8   94.59    7.90
  -3  -2  -8   91.49    7.70
   3  -2   8   94.09   10.20
   3   2   8   80.39    8.30
  -3   2  -8   95.19    8.70
   3   2   8   79.59    7.70
  -3   2  -8   81.39    6.90
  -3   2  -8  102.59    8.70
   3   2   8   85.09    7.30
  -4  -2  -8   71.99    6.90
   4  -2   8   68.99    7.00
   4  -2   8   59.19    7.90
   4  -2   8   66.39    6.30
   4   2   8   65.39    7.50
   4   2   8   83.09    6.60
  -4   2  -8   72.59    7.30
  -4   2  -8   73.99    7.70
  -4   2  -8   68.39    5.80
  -5  -2  -8   83.79    7.50
   5   2   8   54.09    7.70
   5   2   8   68.49    6.70
  -5   2  -8   73.79    7.70
   5   2   8   71.29    7.40
  -5   2  -8   61.39    5.70
   6  -2   8   19.30    3.80
  -6  -2  -8   15.80    3.40
   6   2   8   17.20    3.20
  -6   2  -8   14.40    3.50
   6   2   8   14.80    3.40
   6  -3  -8   33.70    3.70
  -6  -3   8   25.10    4.50
   6   3  -8   28.50    4.40
  -6   3   8   29.60    3.40
   6   3  -8   28.40    4.50
  -6   3   8   32.50    6.10
  -5  -3   8    2.90    2.50
   5  -3  -8    1.30    1.70
  -5   3   8    3.90    3.30
   5   3  -8    8.30    2.70
  -5   3   8    3.40    1.40
   5   3  -8    6.40    2.40
   4  -3  -8  333.87   23.40
  -4  -3   8  271.47   24.00
  -4   3   8  330.27   23.30
  -4   3   8  331.77   25.60
   4   3  -8  345.17   23.90
   4   3  -8  341.87   23.40
   4   3  -8  320.67   26.00
  -4   3   8  313.87   24.00
  -3  -3   8  427.36   34.20
   3  -3  -8  528.35   33.60
   3   3  -8  533.95   34.40
  -3   3   8  444.26   34.10
   3   3  -8  482.25   33.70
  -3   3   8  470.35   33.50
  -3   3   8  498.35   35.50
   3   3  -8  415.16   35.50
   2  -3  -8   81.89    5.90
  -2  -3   8   77.39    7.50
  -2  -3   8   77.69    6.80
   2   3  -8   70.39    6.50
  -2   3   8   75.09    5.80
  -2   3   8   71.99    6.50
  -2   3   8   81.59    7.40
   2   3  -8   63.69    7.70
   2   3  -8   78.39    6.20
  -2   3   8   73.79    7.30
  -1  -3   8  949.80   65.29
  -1  -3   8  931.11   63.59
  -1   3   8  913.81   63.99
   1   3  -8  862.61   63.49
   1   3  -8  965.30   64.89
  -1   3   8  811.42   62.99
   1   3  -8  915.31   63.09
   0  -3   8 1397.36  102.89
   0  -3   8 1407.16  103.99
   0   3  -8 1548.55  104.09
   0   3   8 1556.04  103.29
   0   3  -8 1401.06  102.39
   0   3  -8 1605.74  102.99
   0   3   8 1415.76  102.29
   1  -3   8  128.39    9.50
   1   3   8  117.79    8.60
   1   3   8  115.09    9.50
  -1   3  -8  120.09    9.40
  -1   3  -8  106.69   10.30
   2  -3   8   48.00    5.90
   2  -3   8   52.09    5.30
   2   3   8   57.79    5.80
  -2   3  -8   58.19    6.30
  -2   3  -8   53.39    4.30
   2   3   8   45.10    4.40
   2   3   8   48.70    5.80
  -2   3  -8   54.19    5.50
   3  -3   8  190.68   17.90
   3  -3   8  225.88   17.30
  -3  -3  -8  222.38   16.50
  -3   3  -8  226.08   17.50
   3   3   8  223.68   18.20
   3   3   8  244.98   16.70
  -3   3  -8  241.18   18.40
  -3   3  -8  224.28   16.40
   4  -3   8   39.10    5.20
  -4  -3  -8   41.00    4.60
  -4   3  -8   45.50    4.20
  -4   3  -8   44.30    6.30
   4   3   8   46.00    5.90
  -4   3  -8   41.80    5.50
   4   3   8   45.40    4.90
   5  -3   8  193.28   16.10
  -5  -3  -8  182.38   15.00
   5   3   8  222.48   15.70
  -5   3  -8  219.68   16.60
  -5   3  -8  181.48   15.30
   6  -3   8   21.10    4.00
  -6   3  -8   18.90    4.10
   6   3   8   16.00    3.30
  -6   4   8   15.60    2.60
   6   4  -8    7.70    2.70
   6   4  -8   11.10    2.30
  -5  -4   8   40.30    5.20
   5  -4  -8   44.60    4.10
   5   4  -8   41.90    4.80
  -5   4   8   51.89    4.50
   5   4  -8   37.00    5.30
  -4  -4   8   -0.10    1.90
  -4   4   8    2.20    1.30
  -4   4   8    0.60    2.60
   4   4  -8    0.20    2.00
   4   4  -8    0.30    1.90
   4   4  -8    1.30    4.70
  -3  -4   8   79.89    7.00
   3   4  -8   75.99    6.50
   3   4  -8   66.39    8.50
  -3   4   8   80.59    8.20
  -3   4   8   69.99    6.00
   3   4  -8   74.29    6.90
  -2  -4   8  724.73   46.10
  -2   4   8  705.73   46.90
   2   4  -8  586.24   47.40
   2   4  -8  695.83   45.50
  -2   4   8  608.34   45.20
   2   4  -8  565.74   45.90
  -1  -4   8  496.45   35.80
  -1   4   8  466.65   33.50
   1   4  -8  465.85   34.30
   1   4  -8  543.25   36.00
   1   4  -8  490.65   33.70
  -1   4   8  420.66   34.70
   0   4  -8    6.70    2.90
   0   4   8    8.40    2.20
   0   4   8   13.10    2.70
   0   4   8    8.10    1.20
   0   4  -8    9.40    2.20
   1  -4   8  149.99   12.20
   1   4   8  151.48   10.90
   1   4   8  115.99   10.50
   1   4   8  132.59    9.70
  -1   4  -8  117.39   11.70
  -1   4  -8  127.29   10.80
  -1   4  -8  148.49    9.90
   2  -4   8  226.98   16.80
  -2   4  -8  204.48   17.90
   2   4   8  218.68   16.00
  -2   4  -8  234.28   15.90
   2   4   8  207.08   16.90
  -2   4  -8  229.38   17.10
   3  -4   8   23.60    3.70
  -3   4  -8   18.00    4.00
  -3   4  -8   23.10    4.10
   3   4   8   18.00    3.10
   3   4   8   15.90    3.50
   4  -4   8   41.40    4.90
  -4   4  -8   23.60    7.30
   4   4   8   30.80    5.40
  -4   4  -8   32.60    3.70
   4   4   8   37.90    4.40
  -4   4  -8   34.50    5.10
   5  -4   8   37.90    4.80
  -5   4  -8   25.30    4.80
  -5   4  -8   26.30    3.30
   5   4   8   25.10    4.20
   6  -4   8   15.60    3.00
   6   4   8   11.20    3.00
  -6   4  -8   13.60    3.10
  -5  -5   8   12.90    2.30
   5   5  -8    6.00    3.40
   5   5  -8   17.10    2.80
  -5   5   8   14.70    2.70
  -4  -5   8   80.49    7.00
   4   5  -8   62.19    7.70
  -4   5   8   90.29    6.70
   4   5  -8   75.99    7.00
  -3  -5   8  239.58   18.20
   3   5  -8  228.58   20.50
  -3   5   8  257.17   20.60
   3   5  -8  249.28   18.00
  -3   5   8  247.78   17.70
  -2  -5   8  103.49    8.40
   2   5  -8  101.49    8.20
  -2   5   8  105.29    7.70
   2   5  -8   81.29    9.10
  -2   5   8  116.59    9.30
   1   5  -8  163.68   12.80
  -1   5   8  150.98   11.70
   1   5  -8  166.38   12.10
   1   5  -8  181.38   14.80
   0  -5   8  848.82   55.19
   0   5   8  704.53   54.09
   0   5  -8  693.23   55.19
   0   5  -8  876.91   57.49
   1  -5   8   94.99    7.80
  -1   5  -8   79.69    8.00
  -1   5  -8   79.49    9.10
  -1   5  -8   95.29    6.90
   2  -5   8   11.60    2.40
  -2   5  -8   11.90    2.00
  -2   5  -8   12.50    2.70
   2   5   8    6.60    1.60
  -2   5  -8    8.30    3.00
   3  -5   8   47.50    5.00
   3   5   8   40.60    4.20
  -3   5  -8   32.70    5.20
  -3   5  -8   28.40    6.80
  -3   5  -8   35.90    3.80
   4  -5   8   91.79    8.20
   4   5   8   91.69    7.90
  -4   5  -8   86.89    8.80
  -4   5  -8   78.99    7.20
   5  -5   8   38.00    4.40
   5   5   8   32.90    4.50
  -5   5  -8   27.70    3.50
  -5   5  -8   29.60    5.20
  -5   6   8   11.00    2.10
   5   6  -8    9.50    2.40
  -4   6   8   13.60    2.40
   4   6  -8    9.40    2.70
  -3   6   8   12.20    2.00
   3   6  -8    6.70    2.50
  -2  -6   8  358.66   25.70
  -2   6   8  357.86   27.10
  -2   6   8  348.87   25.50
   2   6  -8  375.86   25.80
  -1  -6   8  239.48   17.50
   1   6  -8  233.88   20.20
  -1   6   8  246.68   17.10
   0  -6   8   47.40    4.60
   0   6  -8   53.49    7.50
   0   6  -8   53.29    4.50
   1  -6   8  213.28   16.10
  -1   6  -8  229.88   15.80
  -1   6  -8  221.28   17.20
  -1   6  -8  201.38   18.40
   2  -6   8  187.78   13.90
   2   6   8  189.58   13.50
  -2   6  -8  176.48   13.50
  -2   6  -8  170.18   15.00
   3  -6   8   19.50    3.20
   3   6   8   19.30    3.10
  -3   6  -8   19.90    3.70
  -3   6  -8   19.60    2.90
   4  -6   8  105.79    8.20
  -4   6  -8   88.49    8.00
   4   6   8  101.99    8.50
  -4   6  -8   96.59    9.70
   5   6   8   11.40    2.40
  -5   6  -8    7.00    1.70
  -4   7   8   47.70    4.20
   4   7  -8   37.50    4.50
   3   7  -8  102.89    8.40
  -3   7   8  102.29    8.00
  -2   7   8   75.29    5.90
   2   7  -8   75.09    6.40
  -1   7   8   55.49    4.40
   1   7  -8   56.39    5.00
   0   7  -8  195.28   14.30
  -1   7  -8  103.39    8.10
  -2   7  -8    4.20    1.50
   2   7   8    7.10    1.60
  -3   7  -8   29.80    3.70
   3   7   8   37.00    3.80
   4   7   8   38.20    4.00
  -4   7  -8   27.10    3.50
  -2   8   8   39.80    3.50
   1   8  -8   77.19    6.30
   0   8  -8   28.00    3.30
  -1   8  -8   42.60    4.10
  -2   8  -8    7.10    2.80
  -6   0   9  118.09   10.30
   6   0  -9  111.09    9.70
  -5   0   9  132.19   14.00
  -5   0   9  156.38   12.40
  -5   0   9  146.09   11.20
   5   0  -9  152.68   11.80
   4   0  -9    6.00    3.30
  -4   0   9    0.40    1.10
  -4   0   9    4.50    2.50
   4   0  -9    3.00    1.80
  -4   0   9    3.50    2.10
   3   0  -9 1179.28   82.29
   3   0  -9 1083.39   84.19
  -3   0   9 1145.39   82.59
  -3   0   9 1190.08   84.39
  -3   0   9 1183.38   83.19
   3   0  -9 1324.77   82.89
   2   0  -9  256.17   21.80
  -2   0   9  290.57   20.50
  -2   0   9  278.47   21.00
   2   0  -9  316.37   20.80
   2   0  -9  290.97   20.30
  -2   0   9  296.07   22.00
  -1   0   9  155.78   10.90
  -1   0   9  140.19   12.00
  -1   0   9  134.49   11.20
   1   0  -9  168.88   12.30
   1   0  -9  149.59   11.10
   0   0   9 3600.24  222.88
   0   0  -9 3276.77  222.88
   0   0  -9 3173.88  222.08
   0   0  -9 2809.12  221.68
   0   0   9 3154.68  221.88
  -1   0  -9   29.30    4.40
   1   0   9   33.60    3.10
  -1   0  -9   32.80    3.40
  -1   0  -9   29.30    2.60
   1   0   9   27.10    3.30
   1   0   9   27.10    4.20
   2   0   9    1.70    1.70
   2   0   9   -0.90    1.10
  -2   0  -9   -0.30    1.10
   2   0   9    1.00    1.10
  -2   0  -9   -2.30    1.60
   3   0   9  755.62   50.79
  -3   0  -9  674.63   51.19
   3   0   9  687.63   51.29
  -3   0  -9  721.73   50.69
  -4   0  -9    0.20    1.80
   4   0   9    2.30    2.10
   4   0   9    1.00    1.50
   4   0   9    1.40    2.30
  -5   0  -9   22.30    4.40
   5   0   9   15.90    3.00
   5   0   9   20.60    4.10
   5   0   9   13.20    4.50
  -6   0  -9  294.67   21.30
   6   0   9  244.98   20.00
   6  -1  -9    5.30    2.30
  -6  -1   9    3.50    2.30
  -6   1   9    2.00    1.70
  -6   1   9    3.00    2.60
   6   1  -9    4.00    2.80
  -5  -1   9   66.89    8.10
   5  -1  -9   46.90    5.40
  -5   1   9   49.20    6.00
   5   1  -9   51.59    5.70
  -5   1   9   67.69   11.40
  -5   1   9   51.39    4.80
   4  -1  -9  543.55   35.50
  -4  -1   9  455.85   37.10
  -4  -1   9  521.05   36.00
  -4  -1   9  491.25   36.30
   4   1  -9  514.25   35.50
   4   1  -9  540.05   35.80
  -4   1   9  494.05   35.80
  -4   1   9  478.15   37.30
  -4   1   9  483.05   35.00
   4   1  -9  424.36   37.10
  -3  -1   9   56.29    7.00
   3  -1  -9   69.89    5.70
  -3  -1   9   61.39    5.20
  -3  -1   9   63.99    6.40
   3  -1  -9   58.29    7.10
  -3   1   9   61.79    5.20
  -3   1   9   64.09    7.30
   3   1  -9   65.39    5.30
   3   1  -9   70.89    5.80
  -3   1   9   65.19    6.20
   3   1  -9   47.40    7.00
   2  -1  -9  877.11   59.79
  -2  -1   9  883.61   59.69
   2  -1  -9  748.03   60.59
  -2  -1   9  831.72   60.99
  -2  -1   9  938.71   60.49
   2   1  -9  799.82   60.99
   2   1  -9  925.71   59.49
  -2   1   9  861.41   60.99
  -2   1   9  794.52   59.49
  -2   1   9  828.42   60.09
   2   1  -9  902.21   59.89
  -1  -1   9  308.27   24.10
  -1  -1   9  361.16   23.90
   1  -1  -9  288.97   24.60
   1  -1  -9  331.17   23.90
  -1   1   9  324.37   24.10
   1   1  -9  361.96   24.10
  -1   1   9  348.77   24.90
  -1   1   9  295.57   26.40
  -1   1   9  361.06   23.80
   1   1  -9  375.86   23.70
   0  -1   9  415.86   27.80
   0  -1  -9  372.46   26.90
   0  -1   9  388.06   26.80
   0  -1   9  370.26   27.00
   0   1   9  378.06   26.60
   0   1  -9  385.16   28.00
   0   1   9  334.57   27.50
   0   1  -9  356.46   26.90
   0   1   9  368.96   26.90
   0   1  -9  414.56   26.50
  -1  -1  -9  786.22   55.59
   1  -1   9  886.91   56.49
   1  -1   9  722.23   55.59
   1  -1   9  736.23   55.39
   1   1   9  703.63   56.09
  -1   1  -9  788.92   56.59
   1   1   9  700.73   55.49
  -1   1  -9  898.21   55.19
  -1   1  -9  872.71   55.79
   1   1   9  818.42   55.29
   2  -1   9  486.55   34.50
   2  -1   9  509.85   35.10
  -2  -1  -9  472.75   34.80
  -2  -1  -9  422.06   35.20
   2   1   9  564.24   35.20
   2   1   9  428.26   34.40
   2   1   9  470.95   35.50
  -2   1  -9  504.05   35.00
  -2   1  -9  493.15   35.80
  -2   1  -9  517.85   34.20
   3  -1   9  296.47   19.80
  -3  -1  -9  245.68   18.90
   3  -1   9  246.38   18.40
  -3  -1  -9  210.58   19.30
   3  -1   9  225.98   19.60
  -3   1  -9  251.97   19.00
   3   1   9  247.48   18.40
  -3   1  -9  257.77   18.00
  -3   1  -9  241.38   19.70
   3   1   9  280.67   19.20
   3   1   9  253.07   19.70
   4  -1   9   50.59    5.70
   4  -1   9   40.30    6.20
   4  -1   9   43.70    4.70
  -4  -1  -9   48.20    5.70
  -4   1  -9   45.00    5.70
   4   1   9   54.09    5.80
   4   1   9   43.60    4.80
   4   1   9   38.30    6.00
  -4   1  -9   40.30    6.60
   5  -1   9    2.40    2.60
  -5  -1  -9    0.10    2.30
   5  -1   9    4.00    2.10
  -5   1  -9   -0.90    3.50
   5   1   9    2.20    2.00
   5   1   9    3.20    2.40
   5   1   9    2.00    2.90
   6  -1   9    7.60    3.10
  -6  -1  -9   12.20    3.30
   6   1   9    6.70    2.50
  -6   1  -9   11.60    3.60
   6   1   9   10.60    3.00
  -6  -2   9   49.40    6.40
   6  -2  -9   62.89    5.90
   6   2  -9   56.59    6.20
  -6   2   9   55.99    5.20
  -6   2   9   71.29    7.10
   5  -2  -9   59.29    6.00
  -5  -2   9   47.00    6.10
   5   2  -9   50.79    5.10
  -5   2   9   48.40    5.90
   5   2  -9   60.09    6.80
   4  -2  -9   13.30    2.40
  -4  -2   9   11.80    3.00
  -4  -2   9   11.60    4.90
   4   2  -9    9.50    2.50
  -4   2   9   13.00    2.70
  -4   2   9    9.20    1.80
   4   2  -9    9.80    2.20
  -4   2   9   13.20    3.70
   4   2  -9   10.20    4.00
   3  -2  -9  760.12   47.00
  -3  -2   9  610.34   47.40
  -3  -2   9  650.53   46.80
  -3  -2   9  599.54   48.40
  -3   2   9  698.33   47.40
   3   2  -9  585.24   48.60
  -3   2   9  709.43   46.80
  -3   2   9  712.13   48.80
  -2  -2   9  273.87   21.00
   2  -2  -9  275.97   20.50
  -2  -2   9  258.47   20.70
  -2  -2   9  276.47   22.00
  -2   2   9  309.97   22.10
  -2   2   9  295.07   20.40
   2   2  -9  311.37   20.40
   2   2  -9  290.27   22.20
  -2   2   9  282.87   20.90
   2   2  -9  291.17   20.80
   1  -2  -9  241.58   17.10
  -1  -2   9  251.27   17.50
  -1  -2   9  226.28   17.20
  -1   2   9  243.28   16.90
   1   2  -9  258.97   16.90
  -1   2   9  211.18   18.10
  -1   2   9  223.88   17.30
   1   2  -9  248.38   17.40
  -1   2   9  235.48   18.10
   0  -2   9  801.72   57.19
   0  -2   9  715.13   56.29
   0  -2  -9  802.82   56.29
   0   2  -9  830.12   56.59
   0   2  -9  900.61   55.99
   0   2  -9  845.32   57.69
   0   2   9  755.42   57.09
   0   2   9  817.02   56.39
   0   2   9  777.82   56.09
   1  -2   9  634.34   41.80
   1  -2   9  568.84   40.80
  -1  -2  -9  529.85   40.80
  -1   2  -9  513.05   41.90
   1   2   9  531.45   41.40
   1   2   9  606.24   40.50
  -1   2  -9  612.14   41.20
  -1   2  -9  631.34   40.40
  -2  -2  -9   26.50    3.40
   2  -2   9   25.90    3.10
   2  -2   9   28.20    3.60
   2  -2   9   23.70    4.20
  -2   2  -9   39.10    5.20
   2   2   9   37.30    3.90
  -2   2  -9   33.00    4.00
   2   2   9   26.30    4.30
   2   2   9   24.40    3.10
  -2   2  -9   32.80    2.80
  -3  -2  -9  344.67   26.00
   3  -2   9  341.07   25.70
   3  -2   9  331.17   26.20
  -3   2  -9  345.37   27.10
  -3   2  -9  374.26   25.40
   3   2   9  391.96   26.50
   3   2   9  342.37   26.80
   3   2   9  375.66   25.80
  -4  -2  -9   27.10    4.30
   4  -2   9   26.80    4.50
   4   2   9   28.80    4.00
   4   2   9   31.70    4.80
   4   2   9   24.60    4.90
  -4   2  -9   33.30    3.10
  -4   2  -9   32.80    5.50
  -4   2  -9   28.40    4.70
   5  -2   9   19.60    3.90
  -5  -2  -9   22.40    4.20
   5   2   9   14.40    3.20
   5   2   9   22.00    4.10
   6  -2   9  204.08   17.10
  -6  -2  -9  208.08   16.50
  -6   2  -9  227.08   17.60
   6   2   9  229.18   19.30
   6   2   9  207.98   16.60
  -6  -3   9    4.50    2.50
   6  -3  -9    8.20    3.10
   6   3  -9    5.60    3.30
   6   3  -9    6.30    2.50
  -6   3   9   14.10    3.40
  -6   3   9    6.30    2.20
  -5  -3   9   38.00    5.50
   5  -3  -9   43.70    4.60
  -5   3   9   47.50    4.40
   5   3  -9   39.60    4.50
  -5   3   9   38.70    5.70
   5   3  -9   49.60    6.10
  -4  -3   9  290.87   23.50
   4  -3  -9  356.36   22.90
  -4   3   9  338.37   22.70
   4   3  -9  312.17   23.30
   4   3  -9  317.97   22.70
  -4   3   9  330.97   25.20
   4   3  -9  265.07   25.20
  -4   3   9  296.07   23.30
   3  -3  -9   70.49    6.60
  -3  -3   9   78.79    7.60
   3   3  -9   95.69    6.90
   3   3  -9   93.79    7.60
  -3   3   9   78.49    7.30
  -3   3   9   79.29    6.40
  -3   3   9   83.59    8.70
   3   3  -9   73.39    8.90
  -2  -3   9  351.76   24.40
  -2  -3   9  336.47   25.50
   2  -3  -9  366.66   23.70
   2   3  -9  340.67   25.80
  -2   3   9  342.97   25.30
   2   3  -9  282.47   24.10
  -2   3   9  317.97   24.20
  -2   3   9  320.77   23.60
   2   3  -9  347.77   23.80
  -1  -3   9  394.96   27.70
  -1  -3   9  353.56   28.50
   1  -3  -9  393.66   27.00
  -1   3   9  398.26   27.00
   1   3  -9  426.16   29.20
   1   3  -9  382.76   27.60
   1   3  -9  401.66   27.10
  -1   3   9  386.16   28.30
  -1   3   9  325.57   28.20
   0  -3   9  329.37   23.40
   0  -3   9  276.17   24.00
   0   3  -9  334.07   23.50
   0   3   9  322.87   23.80
   0   3  -9  360.46   22.80
   0   3   9  298.77   22.70
   0   3  -9  338.37   24.80
   1  -3   9  398.56   29.10
   1   3   9  350.06   29.10
  -1   3  -9  422.66   29.10
   1   3   9  384.36   29.20
  -1   3  -9  367.46   30.00
   1   3   9  432.36   28.30
  -1   3  -9  448.86   28.20
   2  -3   9  262.67   18.90
   2  -3   9  223.58   18.00
  -2   3  -9  224.28   19.10
  -2   3  -9  260.57   18.10
   2   3   9  218.98   17.40
  -2   3  -9  249.28   18.30
   2   3   9  234.28   18.50
   3  -3   9   60.39    7.80
   3  -3   9   70.29    6.80
   3   3   9   72.09    6.20
  -3   3  -9   67.79    7.00
   3   3   9   66.99    7.40
  -3   3  -9   72.89    5.80
  -3   3  -9   71.79    8.10
  -4  -3  -9  106.59    9.20
   4  -3   9  120.39   10.30
  -4   3  -9  124.59   10.60
  -4   3  -9  111.19   11.50
   4   3   9  127.19    9.90
   4   3   9  106.69   11.00
  -4   3  -9  120.29    9.10
   5  -3   9   39.80    5.50
  -5  -3  -9   30.60    4.20
   5   3   9   45.50    5.20
  -5   3  -9   38.20    3.90
  -5   3  -9   51.09    6.00
  -6   3  -9   11.50    3.60
   6   3   9   12.90    4.10
  -6  -4   9    2.20    1.70
  -6   4   9    4.40    1.50
   6   4  -9    3.40    2.10
   6   4  -9    4.90    2.00
  -5  -4   9   51.49    5.80
   5   4  -9   51.79    6.00
   5   4  -9   57.79    5.40
  -4  -4   9    6.60    2.40
   4   4  -9    7.60    2.40
   4   4  -9    5.80    2.20
  -4   4   9    9.90    2.00
   4   4  -9    9.90    4.40
  -4   4   9    6.30    3.60
  -3  -4   9  533.85   40.20
  -3   4   9  572.04   41.80
   3   4  -9  577.04   39.80
  -3   4   9  566.94   39.60
  -2  -4   9  207.58   16.10
  -2   4   9  206.28   15.30
   2   4  -9  209.28   15.60
  -2   4   9  243.98   17.40
   2   4  -9  203.98   16.80
  -1  -4   9  115.39    9.20
   1   4  -9  108.09    8.50
  -1   4   9  103.89    8.90
   1   4  -9  116.49    9.30
   1   4  -9  122.99   11.10
  -1   4   9  117.29    9.90
   0  -4   9 1222.48   88.69
   0   4   9 1288.47   87.29
   0   4  -9 1219.78   87.29
   0   4   9 1253.27   87.29
   0   4  -9 1350.66   86.49
   0   4   9 1126.09   86.29
   1  -4   9   51.69    5.20
   1   4   9   41.00    5.10
   1   4   9   48.10    5.40
  -1   4  -9   40.40    6.30
  -1   4  -9   48.70    4.10
  -1   4  -9   49.20    5.30
   1   4   9   50.99    4.00
   2  -4   9  100.89    8.10
   2   4   9   77.09    7.00
   2   4   9   73.99    8.10
  -2   4  -9   98.89    7.00
  -2   4  -9   92.09    8.20
   3  -4   9  183.68   15.30
   3   4   9  216.88   14.90
  -3   4  -9  199.58   15.80
  -3   4  -9  204.08   14.40
   3   4   9  170.88   15.70
  -3   4  -9  190.08   16.90
   4  -4   9   13.30    4.10
  -4   4  -9   14.20    4.20
  -4   4  -9   23.90    4.40
  -4   4  -9   22.90    2.90
   5  -4   9   16.90    3.50
   5   4   9   12.90    3.10
  -5   4  -9   15.40    2.50
  -5   4  -9   12.40    2.90
   6  -4   9   13.40    2.70
   6   4   9   11.70    2.90
  -6   4  -9   10.50    3.20
   5   5  -9   31.60    4.20
  -5   5   9   42.80    4.10
  -4  -5   9  120.29   10.40
  -4   5   9  146.19   10.30
   4   5  -9  127.49   10.40
  -3  -5   9  132.89   10.20
   3   5  -9  113.19   10.50
  -3   5   9  120.59    9.50
   3   5  -9  135.89    9.90
  -3   5   9  120.29   11.40
  -2  -5   9  143.29   11.00
   2   5  -9  139.49   10.50
  -2   5   9  140.19   11.70
  -2   5   9  133.49   10.10
   2   5  -9  133.09   11.10
   2   5  -9  137.39   13.30
   1   5  -9  293.57   21.80
   1   5  -9  293.67   23.40
  -1   5   9  285.27   20.60
  -1   5   9  291.67   21.70
   0  -5   9   26.00    3.80
   0   5   9   24.40    2.30
   0   5  -9   22.90    5.10
   0   5  -9   21.70    2.80
   0   5  -9   29.00    6.00
   1  -5   9  200.38   15.00
   1   5   9  185.38   14.70
   1   5   9  177.68   14.40
   1   5   9  191.88   13.90
  -1   5  -9  216.88   14.10
  -1   5  -9  182.58   16.50
  -1   5  -9  194.38   15.40
   2  -5   9  113.79    9.40
  -2   5  -9   83.59   10.50
  -2   5  -9  118.09    9.90
   2   5   9  103.39    8.40
  -2   5  -9  115.39    8.30
   3  -5   9   13.60    2.90
   3   5   9   13.30    2.50
  -3   5  -9   10.00    3.60
  -3   5  -9   17.60    3.80
  -3   5  -9   12.60    2.40
   4  -5   9   52.29    6.10
  -4   5  -9   60.69    6.60
  -4   5  -9   53.39    5.00
   4   5   9   52.99    5.70
   5  -5   9   34.90    4.70
  -5   5  -9   20.40    4.00
  -5   5  -9   28.60    3.20
   5   5   9   26.70    4.40
  -4   6   9    4.70    1.60
   4   6  -9    6.20    2.20
   3   6  -9  135.19   10.70
  -3   6   9  139.89   10.40
  -2  -6   9   84.39    7.40
   2   6  -9   96.49    7.60
  -2   6   9   88.49    7.40
  -1  -6   9   44.40    4.10
  -1   6   9   34.00    3.30
   1   6  -9   37.60    6.90
   1   6  -9   37.00    3.80
   0  -6   9  190.28   14.80
   0   6  -9  216.58   14.40
   0   6  -9  200.28   15.70
   0   6   9  184.18   14.10
   1  -6   9   71.99    6.20
  -1   6  -9   55.79    7.00
  -1   6  -9   55.39    8.30
   1   6   9   67.89    5.40
  -1   6  -9   73.09    5.60
   2  -6   9    9.00    2.20
   2   6   9    7.00    2.00
  -2   6  -9    6.80    1.70
  -2   6  -9    6.40    3.10
   3  -6   9   61.99    6.00
   3   6   9   58.69    5.80
  -3   6  -9   61.49    7.20
  -3   6  -9   61.69    5.50
   4  -6   9   70.59    6.30
   4   6   9   72.09    6.70
  -4   6  -9   62.79    6.00
  -4   6  -9   83.69    9.00
  -4   7   9   15.90    2.40
   4   7  -9    9.70    2.20
  -3   7   9   44.90    4.00
   3   7  -9   40.10    4.50
  -2   7   9   61.19    5.00
   2   7  -9   57.69    5.40
  -1   7   9   42.40    3.80
   1   7  -9   51.79    4.50
   0   7  -9    9.90    1.90
  -1   7  -9   46.70    4.40
  -2   7  -9   51.89    4.90
   2   7   9   55.09    4.80
  -3   7  -9    5.50    1.60
  -2   8   9   23.40    2.40
   2   8  -9   18.60    2.90
   1   8  -9   15.30    2.60
   0   8  -9  101.59    8.00
  -1   8  -9    4.90    1.70
  -2   8  -9    7.40    1.70
  -6   0  10    1.10    2.30
   6   0 -10   -2.50    1.80
  -5   0  10   11.20    2.00
   5   0 -10   18.50    3.50
  -5   0  10   13.30    6.20
  -4   0  10  159.98   13.00
  -4   0  10  154.18   14.40
   4   0 -10  165.28   12.50
  -4   0  10  160.18   12.00
  -3   0  10    4.10    1.90
  -3   0  10    3.90    2.30
   3   0 -10    6.10    1.90
  -3   0  10    6.20    1.50
   3   0 -10    1.50    2.30
  -2   0  10    2.00    2.00
   2   0 -10   -0.40    0.80
   2   0 -10   -0.30    1.30
  -2   0  10    1.40    0.90
   2   0 -10    1.50    2.00
  -2   0  10    2.80    2.50
  -1   0  10 1014.90   74.99
   1   0 -10 1174.28   75.99
  -1   0  10  978.00   75.69
  -1   0  10 1115.59   74.59
   1   0 -10 1072.99   74.79
   0   0  10  333.07   24.50
   0   0  10  341.17   24.20
   0   0  10  355.26   25.20
   0   0 -10  341.77   24.40
   0   0 -10  335.17   25.30
   1   0  10  977.00   72.79
   1   0  10 1034.60   73.49
  -1   0 -10 1076.89   72.89
   1   0  10 1085.39   72.59
  -1   0 -10 1017.70   73.59
   2   0  10  181.48   14.40
   2   0  10  217.68   15.20
  -2   0 -10  191.48   15.70
  -2   0 -10  211.68   15.00
   2   0  10  171.38   15.50
  -3   0 -10  161.58   13.00
   3   0  10  145.69   13.70
  -3   0 -10  150.38   13.80
   3   0  10  163.28   12.40
   3   0  10  186.08   14.00
  -4   0 -10  105.49    9.30
   4   0  10   98.69    9.20
   4   0  10   90.19    9.90
   4   0  10   97.99    8.40
   5   0  10  121.79   10.80
  -5   0 -10  101.39   10.20
  -6   0 -10  156.58   13.10
   6   0  10  160.98   13.30
   6   0  10  136.29   14.30
   6  -1 -10   50.39    5.60
  -6  -1  10   53.99    6.30
  -6   1  10   56.09    6.40
  -6   1  10   51.99    5.60
   6   1 -10   52.19    5.70
   5  -1 -10   74.09    7.00
  -5  -1  10   78.99    7.90
   5   1 -10   72.39    7.20
  -5   1  10   81.89    8.10
  -4  -1  10    4.90    1.40
   4  -1 -10    4.60    2.10
  -4  -1  10   15.10    4.90
  -4  -1  10    3.00    3.20
  -4   1  10    5.60    1.50
  -4   1  10    4.30    2.20
   4   1 -10    2.90    3.60
   4   1 -10    4.80    1.90
  -4   1  10    8.40    3.20
   4   1 -10    1.30    2.20
  -3  -1  10  247.38   18.20
  -3  -1  10  239.08   19.40
   3  -1 -10  264.87   17.80
  -3  -1  10  252.67   17.40
   3   1 -10  269.27   17.90
   3   1 -10  198.98   19.10
  -3   1  10  223.38   19.30
   3   1 -10  240.38   17.20
  -3   1  10  216.98   17.30
  -3   1  10  238.28   18.10
   2  -1 -10  379.56   32.60
  -2  -1  10  443.36   32.00
   2  -1 -10  445.66   31.70
  -2  -1  10  406.26   33.00
  -2  -1  10  509.15   31.60
  -2   1  10  413.76   32.90
   2   1 -10  467.75   31.30
  -2   1  10  454.45   32.00
   2   1 -10  455.35   31.80
  -2   1  10  454.95   31.40
   2   1 -10  465.15   33.20
   1  -1 -10  400.86   28.70
   1  -1 -10  437.06   29.80
  -1  -1  10  419.16   29.00
  -1  -1  10  435.06   28.70
  -1  -1  10  355.26   29.70
  -1   1  10  392.96   29.70
   1   1 -10  420.96   28.90
  -1   1  10  367.86   28.90
   1   1 -10  450.45   28.40
  -1   1  10  335.07   31.50
  -1   1  10  386.56   28.50
   1   1 -10  445.86   30.10
   0  -1 -10  787.52   58.99
   0  -1  10  798.62   58.89
   0  -1  10  858.71   59.79
   0   1  10  836.12   58.69
   0   1 -10  886.11   58.99
   0   1  10  757.02   59.79
   0   1  10  955.50   59.79
   0   1 -10  839.22   59.09
   0   1 -10  861.51   60.19
  -1  -1 -10  452.75   32.30
   1  -1  10  439.06   32.10
   1  -1  10  424.26   32.30
   1   1  10  444.36   33.00
   1   1  10  420.86   32.20
   1   1  10  504.95   32.00
   1   1  10  423.06   33.00
  -1   1 -10  496.65   32.50
  -1   1 -10  442.56   33.40
  -1   1 -10  471.85   31.80
  -2  -1 -10   10.90    2.40
   2  -1  10    5.30    2.40
  -2  -1 -10    3.30    3.00
   2  -1  10   11.50    2.50
   2  -1  10   12.00    2.10
  -2   1 -10   10.60    2.90
   2   1  10    9.00    1.80
   2   1  10    8.10    2.30
  -2   1 -10    8.80    2.10
  -2   1 -10   10.60    1.50
   2   1  10    6.40    2.50
   3  -1  10  115.49    9.00
   3  -1  10   95.59   10.10
  -3  -1 -10  116.89    9.60
   3   1  10  101.99   10.20
  -3   1 -10  107.99    8.30
   3   1  10  109.59    8.90
   3   1  10  124.89    9.80
  -3   1 -10  106.79   10.80
  -3   1 -10  106.59    9.50
   4  -1  10   94.89   10.80
   4  -1  10  116.79    9.50
   4  -1  10  110.69   10.30
  -4  -1 -10  117.89   10.30
   4   1  10  133.09   10.80
   4   1  10  129.19    9.80
  -4   1 -10  123.19   10.60
   4   1  10  102.19   10.90
   5  -1  10   25.60    4.40
   5  -1  10   22.20    4.50
  -5  -1 -10   27.70    4.70
  -5   1 -10   26.90    4.90
   5   1  10   17.30    3.90
   5   1  10   30.00    4.20
   6  -1  10    2.40    2.30
  -6  -1 -10    4.00    2.50
   6   1  10    2.90    2.00
  -6   1 -10    6.90    2.60
   6   1  10    3.90    3.10
  -6  -2  10    8.70    2.70
   6  -2 -10   10.00    2.30
  -6   2  10    7.90    3.70
   6   2 -10   15.40    3.30
  -5  -2  10  105.69   10.10
   5  -2 -10  126.09    9.40
   5   2 -10  103.99    9.30
  -5   2  10  112.69   10.00
  -5   2  10  107.29    8.80
   4  -2 -10  106.19    8.20
  -4  -2  10   96.69    8.90
  -4   2  10   88.39    8.70
   4   2 -10   95.69    7.70
  -4   2  10   97.49    7.70
   4   2 -10  101.19    8.50
  -4   2  10   88.69   10.10
  -3  -2  10   60.99    7.40
   3  -2 -10   62.19    5.40
  -3  -2  10   55.09    4.90
  -3  -2  10   55.69    6.10
   3   2 -10   44.70    7.00
  -3   2  10   54.69    5.80
   3   2 -10   53.19    5.60
  -3   2  10   57.79    4.80
   3   2 -10   54.39    5.00
  -3   2  10   49.99    9.90
  -2  -2  10  216.28   18.30
  -2  -2  10  227.58   16.60
   2  -2 -10  229.88   16.70
   2   2 -10  208.68   16.90
  -2   2  10  229.58   17.10
  -2   2  10  216.08   18.20
   2   2 -10  250.87   16.50
  -2   2  10  225.68   16.40
   2   2 -10  254.57   18.70
  -1  -2  10 1047.50   69.29
   1  -2 -10 1054.19   68.89
  -1  -2  10  978.60   68.99
   1   2 -10  942.51   68.69
  -1   2  10  971.70   69.99
  -1   2  10  924.11   69.09
  -1   2  10  944.51   68.69
   1   2 -10  971.90   69.19
   1   2 -10 1049.89   70.49
   0  -2  10  126.89   10.50
   0  -2  10  109.39    9.10
   0  -2 -10  118.99    9.10
   0   2 -10  128.79    9.50
   0   2 -10  134.39    8.80
   0   2  10  111.39    9.10
   0   2  10  132.49   10.10
   0   2  10  110.49    8.70
   0   2  10  103.29    9.90
  -1  -2 -10  193.58   13.90
   1  -2  10  181.18   13.80
  -1   2 -10  186.78   13.40
   1   2  10  191.98   14.80
  -1   2 -10  182.08   15.50
   1   2  10  174.58   14.60
   1   2  10  191.68   13.50
  -2  -2 -10  342.37   24.70
   2  -2  10  348.97   25.20
   2  -2  10  355.66   24.60
   2  -2  10  345.47   25.80
   2   2  10  356.86   24.50
  -2   2 -10  297.57   26.00
   2   2  10  303.47   25.60
  -2   2 -10  320.17   26.10
   2   2  10  379.56   25.20
  -2   2 -10  346.77   24.10
   3  -2  10   50.89    4.90
   3  -2  10   56.79    5.80
   3  -2  10   34.90    6.20
  -3  -2 -10   57.39    5.50
   3   2  10   40.20    6.10
  -3   2 -10   48.10    4.30
  -3   2 -10   44.60    5.60
  -3   2 -10   45.50    6.80
   3   2  10   49.50    4.90
   3   2  10   59.29    5.90
   4  -2  10   65.29    6.60
   4  -2  10   56.59    5.70
  -4  -2 -10   67.59    6.30
   4   2  10   57.89    5.80
  -4   2 -10   51.89    4.90
  -4   2 -10   50.29    8.00
   4   2  10   49.80    7.00
   4   2  10   63.49    6.80
  -4   2 -10   60.09    6.60
  -5  -2 -10   22.00    4.10
   5  -2  10   16.30    3.70
   5   2  10   20.70    3.60
  -5   2 -10   25.60    4.80
   5   2  10   17.10    3.80
  -6  -2 -10   26.20    3.90
   6  -2  10   35.20    5.00
  -6   2 -10   31.90    4.90
   6   2  10   21.50    4.70
   6   2  10   21.00    4.70
  -6  -3  10   23.40    4.30
   6  -3 -10   27.50    3.40
  -6   3  10   33.30    5.30
   6   3 -10   24.80    4.10
  -6   3  10   29.10    3.30
  -5  -3  10   33.20    5.00
   5  -3 -10   33.30    4.10
   5   3 -10   33.90    4.00
  -5   3  10   44.90    4.10
  -5   3  10   38.20    5.60
   5   3 -10   29.40    4.90
  -4  -3  10    7.80    2.60
   4  -3 -10    9.00    2.10
   4   3 -10    7.30    4.30
  -4   3  10    3.80    3.80
  -4   3  10   12.80    2.10
  -4   3  10   19.80    3.30
   4   3 -10   12.50    2.90
   4   3 -10   14.30    2.50
   3  -3 -10   41.70    4.30
  -3  -3  10   43.20    5.40
   3   3 -10   44.80    5.40
  -3   3  10   52.09    6.80
   3   3 -10   49.20    4.70
  -3   3  10   49.20    5.50
  -3   3  10   50.79    4.20
   3   3 -10   47.00    7.00
   2  -3 -10  481.45   31.20
  -2  -3  10  410.36   33.20
  -2  -3  10  461.85   31.90
   2   3 -10  438.16   33.40
   2   3 -10  469.85   31.30
  -2   3  10  419.66   31.80
  -2   3  10  450.25   31.20
  -2   3  10  442.66   33.10
   2   3 -10  396.66   31.70
  -1  -3  10   77.59    8.90
  -1  -3  10   96.89    7.90
   1  -3 -10   99.29    7.10
  -1   3  10   93.79    7.40
  -1   3  10   86.99    8.70
   1   3 -10  100.79    7.90
   1   3 -10  106.99    9.70
   0  -3  10  506.55   43.80
   0   3  10  680.33   43.70
   0   3 -10  631.94   43.30
   0   3  10  580.54   42.50
   0   3  10  576.64   43.60
   0   3 -10  608.84   44.60
   0   3 -10  671.73   42.50
   1  -3  10  375.96   30.90
   1  -3  10  469.95   31.70
  -1   3 -10  431.56   31.00
   1   3  10  442.56   30.20
  -1   3 -10  367.46   32.00
  -1   3 -10  468.15   30.10
   2  -3  10    6.50    1.70
  -2   3 -10   12.80    1.90
   2   3  10    8.40    1.90
   2   3  10    8.80    3.10
  -2   3 -10    6.30    3.10
  -2   3 -10   10.40    2.40
   3  -3  10   95.89    8.30
  -3  -3 -10   91.49    6.90
  -3   3 -10   86.09    6.90
   3   3  10   76.49    8.60
   3   3  10   82.59    7.40
  -3   3 -10   91.39    8.40
  -3   3 -10   73.69   10.10
   4  -3  10   68.89    7.20
  -4  -3 -10   67.49    5.90
   4   3  10   65.99    7.90
  -4   3 -10   60.59    9.10
  -4   3 -10   66.69    5.80
   4   3  10   78.89    6.80
  -4   3 -10   68.79    7.40
   5  -3  10    0.50    2.00
   5   3  10    3.30    2.10
  -5   3 -10    1.40    2.10
   6  -3  10    8.60    2.80
   6   3  10   10.80    2.80
  -6   3 -10   17.40    3.40
  -5  -4  10   29.60    4.20
  -5   4  10   30.00    3.50
   5   4 -10   21.50    4.40
   5   4 -10   26.30    3.60
  -4  -4  10   83.79    7.30
  -4   4  10   87.49    6.60
   4   4 -10   61.29    7.40
   4   4 -10   73.19    6.70
  -3  -4  10   89.09    7.70
   3   4 -10   76.69    9.70
  -3   4  10   88.79    9.20
  -3   4  10   86.29    6.80
   3   4 -10   80.39    7.00
  -2  -4  10  373.86   26.80
  -2   4  10  360.16   28.10
   2   4 -10  384.66   26.20
   2   4 -10  356.06   26.90
   2   4 -10  379.06   28.90
  -2   4  10  353.86   26.00
  -1  -4  10  321.37   22.40
   1   4 -10  306.97   24.00
   1   4 -10  277.17   21.60
   1   4 -10  306.17   22.50
  -1   4  10  308.97   21.50
   0   4 -10   71.49    5.40
   0   4  10   61.49    5.20
   0   4  10   77.39    6.80
   0   4 -10   55.59    7.70
   0   4 -10   64.29    8.20
   1  -4  10  278.37   20.70
  -1   4 -10  240.48   21.90
   1   4  10  271.57   19.50
  -1   4 -10  289.97   19.50
  -1   4 -10  281.37   20.70
   2  -4  10  193.18   14.30
   2   4  10  174.38   13.20
  -2   4 -10  158.38   15.50
  -2   4 -10  175.08   14.30
  -2   4 -10  180.48   13.00
   3  -4  10   71.79    7.00
  -3   4 -10   63.49    7.10
   3   4  10   52.79    7.20
  -3   4 -10   67.99    5.60
   3   4  10   68.39    6.20
  -3   4 -10   62.89    8.50
   4  -4  10   90.79    8.90
   4   4  10  102.99    8.50
  -4   4 -10   91.79    9.20
  -4   4 -10   91.39    7.60
   5  -4  10   28.10    4.50
   5   4  10   30.70    4.40
  -5   4 -10   17.90    3.20
  -5   4 -10   26.10    4.60
  -5  -5  10    5.40    1.80
  -5   5  10    0.60    2.50
   5   5 -10    1.60    1.80
   5   5 -10   -1.60    2.40
  -4  -5  10    2.70    1.90
   4   5 -10    0.10    2.30
   4   5 -10    3.40    2.10
  -4   5  10    1.90    1.40
  -3   5  10   17.70    2.60
   3   5 -10   12.90    2.80
  -2  -5  10  331.57   23.70
  -2   5  10  337.87   23.00
   2   5 -10  302.27   26.00
   2   5 -10  288.87   23.80
   2   5 -10  332.77   23.20
  -2   5  10  333.57   24.70
   1   5 -10   69.19    8.10
  -1   5  10   58.19    6.30
   1   5 -10   61.99    6.10
  -1   5  10   54.79    4.80
   0  -5  10  222.58   16.80
   0   5 -10  213.28   18.40
   0   5 -10  238.38   15.60
   0   5 -10  217.58   16.80
   0   5  10  182.98   16.30
   0   5  10  219.98   15.50
   1  -5  10  365.96   26.30
  -1   5 -10  344.97   26.60
   1   5  10  371.36   25.20
  -1   5 -10  358.26   25.20
  -1   5 -10  330.37   27.80
   1   5  10  350.76   25.80
   2  -5  10   40.50    4.80
  -2   5 -10   25.70    6.10
  -2   5 -10   35.40    3.50
   2   5  10   28.40    3.60
  -2   5 -10   34.20    5.10
   3  -5  10   95.79    8.90
  -3   5 -10   90.39    7.80
   3   5  10  103.49    8.40
  -3   5 -10  111.69   11.00
   4  -5  10   27.70    4.40
   4   5  10   28.80    4.20
  -4   5 -10   24.80    3.20
   5  -5  10    2.20    1.90
  -5   5 -10    3.50    1.40
  -5   5 -10    5.50    2.90
   5   5  10    0.30    2.00
   4   6 -10   49.90    5.50
  -4   6  10   72.79    5.60
   3   6 -10    1.70    1.90
  -3   6  10    2.90    1.30
  -2  -6  10  275.17   22.20
  -2   6  10  342.37   21.80
   2   6 -10  294.57   21.90
  -1  -6  10  155.88   12.30
   1   6 -10  153.78   13.10
  -1   6  10  164.58   11.60
   0  -6  10   49.40    4.80
   0   6  10   40.00    3.70
   0   6 -10   47.90    4.20
   0   6 -10   48.00    5.90
   0   6 -10   41.10    7.00
   1  -6  10  104.39    8.30
   1   6  10   88.89    7.30
  -1   6 -10  105.39    9.40
  -1   6 -10   84.29    8.40
   2  -6  10   68.09    6.70
   2   6  10   67.59    6.20
  -2   6 -10   79.89    8.30
  -2   6 -10   76.09    6.10
   3  -6  10    6.00    2.10
   3   6  10    8.40    2.10
  -3   6 -10    4.50    3.00
  -3   6 -10    7.30    1.80
   4  -6  10   14.40    2.50
  -4   6 -10   15.80    4.10
  -4   6 -10   12.30    3.30
   3   7 -10    4.00    3.00
  -3   7  10    4.50    1.50
  -2   7  10   44.70    3.70
   2   7 -10   33.30    4.10
  -1   7  10    6.20    1.40
   1   7 -10    9.60    1.90
   0   7 -10  132.29   10.00
  -1   7 -10  102.69    8.10
  -2   7 -10   14.50    2.40
   2   7  10    8.60    2.00
   3   7  10   12.30    2.20
  -3   7 -10    7.80    1.90
   1   8 -10   67.29    5.60
   0   8 -10    3.40    1.70
  -1   8 -10   16.80    2.60
   6   0 -11   41.70    5.10
  -6   0  11   47.20    5.70
  -5   0  11   34.10    6.10
  -5   0  11   27.70    3.40
   5   0 -11   27.10    4.10
  -4   0  11    7.20    1.70
   4   0 -11    7.70    2.40
  -4   0  11    8.30    2.90
  -4   0  11    8.30    3.80
  -3   0  11  551.94   46.90
  -3   0  11  664.43   45.80
   3   0 -11  678.63   45.50
  -3   0  11  674.03   45.00
   3   0 -11  622.54   47.10
  -2   0  11  245.98   19.00
  -2   0  11  265.27   18.40
   2   0 -11  254.07   18.80
   2   0 -11  253.27   20.10
   1   0 -11   53.59    5.00
  -1   0  11   56.49    4.70
  -1   0  11   52.39    5.20
   1   0 -11   56.59    6.30
  -1   0  11   56.89    6.50
   0   0  11   63.09    6.30
   0   0 -11   54.09    5.20
   0   0  11   57.99    5.20
   0   0  11   56.29    4.80
   0   0 -11   58.39    6.40
  -1   0 -11  934.81   70.99
  -1   0 -11  973.70   71.89
   1   0  11 1001.30   70.79
   1   0  11 1137.99   71.49
   2   0  11   33.50    4.60
   2   0  11   35.60    5.60
  -2   0 -11   31.60    5.80
   2   0  11   37.20    3.90
  -2   0 -11   35.90    4.40
   3   0  11   86.69    7.80
   3   0  11   71.99    6.80
   3   0  11   65.39    8.00
  -3   0 -11   85.09    7.60
   4   0  11   43.20    7.10
   4   0  11   62.69    6.80
   4   0  11   57.59    5.90
  -4   0 -11   71.19    6.90
   5   0  11    3.70    1.90
  -5   0 -11    9.40    2.90
   5   0  11    4.40    3.20
  -6   0 -11    3.40    2.60
   6   0  11    0.40    2.90
   6   0  11    4.00    2.50
  -6  -1  11    4.00    2.50
   6  -1 -11    2.50    1.90
  -6   1  11    1.90    2.00
  -6   1  11    3.20    3.20
   6   1 -11   -2.50    2.00
  -5  -1  11   51.59    6.30
   5  -1 -11   51.39    5.40
   5   1 -11   43.50    5.40
  -5   1  11   41.50    5.90
  -5   1  11   48.20    4.60
  -4  -1  11  287.27   20.40
  -4  -1  11  293.97   21.50
   4  -1 -11  298.67   20.90
  -4  -1  11  238.38   23.00
   4   1 -11  314.37   21.10
  -4   1  11  274.47   20.40
  -4   1  11  282.37   21.30
  -4   1  11  250.47   22.90
   3  -1 -11   26.80    3.90
  -3  -1  11   26.70    4.50
  -3  -1  11   18.00    4.40
  -3  -1  11   27.30    2.90
   3   1 -11   18.60    4.10
  -3   1  11   25.50    2.90
   3   1 -11   18.90    2.70
  -3   1  11   23.30    4.40
   3   1 -11   28.50    3.90
  -2  -1  11   92.39    8.10
   2  -1 -11   86.69    8.60
  -2  -1  11   67.59    8.30
  -2  -1  11   91.69    6.80
   2  -1 -11   91.79    7.20
  -2   1  11   80.19    7.60
  -2   1  11   83.59    6.70
   2   1 -11   84.59    6.50
  -2   1  11   71.79    8.50
   2   1 -11   95.29    9.00
   2   1 -11   88.89    7.40
   1  -1 -11  573.44   41.00
  -1  -1  11  582.54   41.20
  -1  -1  11  517.75   42.10
   1  -1 -11  606.24   42.10
  -1  -1  11  617.14   40.90
  -1   1  11  541.75   41.10
  -1   1  11  558.34   42.10
   1   1 -11  650.83   41.50
   1   1 -11  582.24   42.30
  -1   1  11  563.94   40.70
   1   1 -11  591.64   40.50
   0  -1  11  225.48   16.90
   0  -1 -11  232.48   16.80
   0  -1  11  229.58   17.70
   0  -1  11  230.28   16.70
   0   1  11  219.48   16.80
   0   1 -11  217.48   16.20
   0   1  11  232.38   16.50
   0   1 -11  217.28   18.00
   0   1  11  254.47   17.80
   1  -1  11  215.68   15.20
  -1  -1 -11  192.08   14.10
   1  -1  11  187.98   13.90
  -1   1 -11  183.08   15.40
  -1   1 -11  191.58   14.20
   1   1  11  165.98   14.00
  -1   1 -11  168.98   13.30
   1   1  11  184.28   14.90
   1   1  11  188.48   13.70
   2  -1  11  240.78   18.90
   2  -1  11  246.68   19.00
  -2  -1 -11  251.97   18.10
   2  -1  11  227.08   17.60
  -2   1 -11  209.78   19.20
   2   1  11  212.58   18.10
  -2   1 -11  267.67   18.30
   2   1  11  255.77   17.60
  -2   1 -11  236.28   17.10
   3  -1  11   59.19    8.00
  -3  -1 -11   86.49    7.40
   3  -1  11   72.89    6.70
   3  -1  11   83.19    7.70
   3   1  11   76.09    6.70
  -3   1 -11   75.29    7.40
   3   1  11   70.59    8.10
   3   1  11   80.09    7.60
  -3   1 -11   72.09    8.70
  -4  -1 -11   40.10    5.30
   4  -1  11   47.10    5.50
   4  -1  11   28.50    4.10
  -4   1 -11   41.00    5.50
   4   1  11   34.10    5.60
   4   1  11   36.00    6.00
   4   1  11   30.40    4.40
  -5  -1 -11    7.40    2.70
   5  -1  11    2.90    2.30
   5  -1  11   16.10    4.70
   5   1  11    5.70    2.30
  -5   1 -11   13.70    3.60
   5   1  11    6.90    3.20
  -6  -1 -11   58.29    6.70
   6  -1  11   43.30    6.70
   6   1  11   40.60    6.20
   6   1  11   42.40    5.20
   6  -2 -11    9.50    2.30
  -6  -2  11    8.90    3.50
   6   2 -11   12.90    3.10
  -5  -2  11   76.29    8.00
   5  -2 -11   73.99    7.20
   5   2 -11   78.99    7.80
  -5   2  11   88.09    6.90
  -5   2  11   92.39    8.30
   4  -2 -11    9.50    2.30
  -4  -2  11    6.80    3.40
  -4   2  11   14.20    3.30
   4   2 -11    7.30    2.50
  -4   2  11    7.50    6.50
  -4   2  11    9.00    2.00
   4   2 -11   10.20    4.20
   4   2 -11   10.00    2.10
  -3  -2  11  378.76   25.20
  -3  -2  11  316.37   27.50
   3  -2 -11  371.86   25.50
  -3   2  11  354.46   25.10
   3   2 -11  354.76   25.00
   3   2 -11  344.47   27.50
   3   2 -11  361.76   25.80
  -3   2  11  319.77   27.30
  -3   2  11  348.97   25.90
  -2  -2  11  270.57   18.70
   2  -2 -11  261.57   18.70
  -2  -2  11  264.57   19.30
   2   2 -11  251.17   20.60
  -2   2  11  253.17   18.50
  -2   2  11  224.68   20.30
   2   2 -11  277.77   18.50
   2   2 -11  255.07   19.20
  -2   2  11  257.47   19.30
  -1  -2  11   22.00    3.90
  -1  -2  11   23.10    2.90
   1  -2 -11   24.60    3.00
  -1  -2  11   16.50    3.90
   1   2 -11   26.60    2.70
   1   2 -11   26.70    4.90
  -1   2  11   29.50    2.80
   1   2 -11   24.30    3.40
  -1   2  11   24.40    3.40
  -1   2  11   24.40    4.90
   0  -2 -11  641.24   44.60
   0  -2  11  592.84   44.60
   0  -2  11  635.44   44.90
   0  -2  11  634.64   45.70
   0   2 -11  635.74   44.90
   0   2 -11  657.83   44.20
   0   2 -11  624.74   46.10
   0   2  11  634.94   44.30
   0   2  11  705.83   45.50
   0   2  11  560.44   45.10
   1  -2  11  345.47   24.10
  -1  -2 -11  322.67   22.90
   1  -2  11  286.57   22.70
  -1   2 -11  296.17   22.20
   1   2  11  325.57   22.70
   2  -2  11   51.69    5.00
   2  -2  11   54.39    5.80
  -2  -2 -11   51.59    5.30
   2  -2  11   58.39    6.60
   2   2  11   52.59    4.90
  -2   2 -11   53.49    7.30
  -2   2 -11   49.60    4.40
   2   2  11   45.00    5.50
  -2   2 -11   56.49    5.80
   3  -2  11  266.97   21.10
  -3  -2 -11  290.47   20.00
   3  -2  11  247.88   20.40
   3  -2  11  274.07   20.40
   3   2  11  238.28   19.40
  -3   2 -11  265.67   20.30
  -3   2 -11  276.47   19.00
   3   2  11  289.17   20.90
   3   2  11  235.98   20.80
  -3   2 -11  239.78   21.40
   4  -2  11   12.50    2.90
   4  -2  11   14.00    3.30
  -4  -2 -11   19.10    3.40
   4   2  11   20.30    3.50
   4   2  11   26.80    4.90
  -4   2 -11   22.10    4.20
   4   2  11   13.70    3.70
  -5  -2 -11    3.60    2.50
   5  -2  11    6.20    3.10
   5   2  11    3.90    3.00
   5   2  11    4.70    2.20
  -5   2 -11    3.90    2.50
   6  -2  11   -0.80    1.80
  -6  -2 -11   -1.60    1.60
  -6   2 -11    1.90    2.20
   6   2  11   -4.50    3.70
   6   2  11    1.80    2.10
  -6  -3  11   -0.10    1.70
   6   3 -11    2.30    2.20
  -6   3  11    1.20    4.60
  -5  -3  11    9.20    2.70
   5  -3 -11    9.90    2.10
   5   3 -11    5.80    2.00
   5   3 -11    6.50    2.40
  -5   3  11    9.60    3.20
  -5   3  11    7.40    1.90
   4  -3 -11  223.88   15.50
   4   3 -11  170.68   18.50
  -4   3  11  217.08   16.50
   4   3 -11  238.58   17.40
   4   3 -11  202.28   15.20
  -4   3  11  188.18   16.20
  -3  -3  11   84.39    8.10
   3  -3 -11   89.79    7.20
   3   3 -11  101.09    7.30
   3   3 -11   83.69    9.80
  -3   3  11   87.29    9.70
  -3   3  11   94.39    8.70
  -3   3  11   90.99    7.20
   3   3 -11   83.89    8.20
   2  -3 -11  261.87   17.60
  -2  -3  11  255.57   18.30
   2   3 -11  250.57   18.30
   2   3 -11  257.07   20.20
  -2   3  11  228.28   18.40
  -2   3  11  243.18   17.50
  -2   3  11  204.78   19.30
  -1  -3  11  381.06   28.10
   1  -3 -11  387.06   27.50
   1   3 -11  388.66   29.70
  -1   3  11  375.96   27.50
   1   3 -11  429.26   27.50
  -1   3  11  370.36   29.00
   0  -3  11  169.28   13.80
   0  -3  11  157.88   14.80
   0   3  11  180.48   13.00
   0   3 -11  179.88   13.90
   0   3 -11  172.68   15.40
   0   3 -11  189.58   13.00
   0   3  11  204.48   14.60
   1  -3  11  275.87   23.20
   1  -3  11  344.37   24.00
  -1   3 -11  312.67   22.10
   1   3  11  314.57   22.30
   2  -3  11  203.08   17.30
  -2   3 -11  247.18   17.60
  -2   3 -11  216.08   16.10
  -2   3 -11  202.48   18.70
   2   3  11  246.98   16.60
   3  -3  11   22.70    4.20
  -3   3 -11   28.30    2.90
  -3   3 -11   31.10    4.60
  -3   3 -11   21.10    4.70
   3   3  11   17.90    3.20
  -4   3 -11   19.90    6.30
  -4   3 -11   26.20    3.00
   4   3  11   29.50    4.20
  -4   3 -11   28.20    4.80
   5  -3  11   50.89    6.20
  -5   3 -11   47.30    6.40
   5   3  11   46.70    5.60
  -5  -4  11    4.40    2.20
  -5   4  11    6.50    1.80
   5   4 -11    3.30    2.20
   5   4 -11    3.60    2.40
  -4  -4  11    3.60    2.10
  -4   4  11    0.10    1.30
   4   4 -11    1.90    2.40
   4   4 -11   -0.40    1.90
  -3  -4  11  339.07   23.20
  -3   4  11  324.27   22.40
  -3   4  11  288.47   24.90
   3   4 -11  315.37   22.40
   3   4 -11  286.77   23.20
  -2   4  11   44.40    3.90
   2   4 -11   46.70    7.20
   2   4 -11   43.40    5.00
  -2   4  11   35.00    5.90
  -1  -4  11    2.00    1.80
   1   4 -11    1.50    1.40
  -1   4  11    2.00    1.10
   1   4 -11    1.20    1.70
   1   4 -11    0.80    2.70
  -1   4  11    1.20    2.40
   0   4 -11   68.89    5.30
   0   4  11   61.79    5.10
   0   4 -11   53.29    8.80
   0   4  11   64.99    6.70
   0   4 -11   63.29    6.30
   1  -4  11  251.17   20.00
  -1   4 -11  260.57   20.00
  -1   4 -11  256.87   21.50
   1   4  11  278.87   18.80
   1   4  11  242.98   19.70
  -1   4 -11  271.17   18.70
   2  -4  11   32.80    4.60
  -2   4 -11   24.60    4.50
   2   4  11   23.60    3.40
  -2   4 -11   29.30    3.00
  -3   4 -11   42.40    5.80
  -3   4 -11   43.80    4.10
   3   4  11   37.00    4.60
   4  -4  11    3.00    2.50
  -4   4 -11    3.40    1.30
  -4   4 -11    1.90    2.50
   4   4  11   -0.50    1.70
   5  -4  11    5.50    2.30
  -5   4 -11    6.30    2.30
   5   4  11    6.00    2.40
  -5  -5  11   -0.30    1.50
  -5   5  11    2.10    1.50
   5   5 -11    1.00    1.60
   5   5 -11    1.60    2.60
  -4  -5  11   81.99    7.20
  -4   5  11   93.39    6.90
   4   5 -11   64.79    7.60
   4   5 -11   81.29    6.90
  -3  -5  11   36.10    4.10
   3   5 -11   28.90    3.80
  -3   5  11   32.70    3.40
   3   5 -11   27.60    4.60
  -2  -5  11  112.19    9.00
  -2   5  11  105.79    8.10
   2   5 -11  111.99   11.40
   2   5 -11  107.89    9.30
  -2   5  11   94.59    9.90
   2   5 -11   95.69    8.20
  -1   5  11  294.17   25.90
   1   5 -11  365.16   27.90
  -1   5  11  370.66   24.70
   1   5 -11  361.96   26.00
   0  -5  11   11.20    2.70
   0   5  11    9.40    2.50
   0   5 -11    5.80    2.20
   0   5 -11    6.80    3.50
   0   5  11   13.50    2.00
   0   5 -11   13.00    2.30
   1  -5  11  243.38   19.80
   1   5  11  256.47   19.40
  -1   5 -11  250.77   21.50
  -1   5 -11  270.77   18.70
  -1   5 -11  269.07   20.30
   1   5  11  260.87   18.70
   2  -5  11   77.59    7.00
   2   5  11   61.79    5.80
  -2   5 -11   62.39    5.40
  -2   5 -11   61.79    7.10
  -2   5 -11   55.39    8.40
   3  -5  11   21.50    4.00
   3   5  11   21.80    3.50
  -3   5 -11   20.40    2.80
  -3   5 -11   20.80    4.20
   4  -5  11   40.00    5.20
  -4   5 -11   30.50    3.70
  -4   5 -11   42.00    5.50
   4   5  11   37.00    4.80
   5  -5  11   26.50    4.00
  -5   5 -11   33.70    5.20
   5   5  11   32.60    4.40
  -4   6  11    1.60    1.40
   4   6 -11    1.50    1.90
   3   6 -11   59.89    5.40
  -3   6  11   64.49    5.20
   3   6 -11   47.50    6.50
  -2  -6  11   31.30    3.80
   2   6 -11   18.30    3.50
  -2   6  11   26.60    2.90
   2   6 -11   24.80    3.40
  -1  -6  11    6.30    2.10
  -1   6  11    5.50    1.40
   1   6 -11    8.10    1.90
   1   6 -11    3.70    3.10
   0  -6  11   64.39    7.20
   0   6 -11   69.59    7.60
   0   6 -11   73.19    5.80
   1  -6  11  125.99   10.30
  -1   6 -11  124.99   11.70
  -1   6 -11  115.29    9.30
   1   6  11  122.49    9.30
   2  -6  11   68.99    6.20
  -2   6 -11   57.39    5.20
  -2   6 -11   54.69    7.20
   3  -6  11   51.49    5.40
  -3   6 -11   54.49    6.80
   3   6  11   45.60    5.00
  -3   6 -11   46.00    4.50
   4  -6  11    0.50    1.70
  -4   6 -11    2.90    2.90
  -4   6 -11    0.30    1.20
   4   6  11    3.40    1.90
   3   7 -11   10.70    2.10
  -3   7  11   12.90    2.20
  -2   7  11   47.50    5.30
   2   7 -11   50.89    4.60
  -1   7  11  113.59    8.40
   1   7 -11  112.39    8.70
   0   7 -11   19.70    2.80
   0   7  11   18.00    2.30
   1   7  11   76.69    7.10
  -1   7 -11  105.39    7.40
   2   7  11   28.40    3.70
  -2   7 -11   35.00    3.50
  -3   7 -11    1.80    1.20
   3   7  11    3.70    1.80
   1   8 -11   15.50    2.50
   0   8 -11   11.60    2.20
  -6   0  12   20.70    3.90
   6   0 -12   19.60    3.70
  -5   0  12   65.89    5.60
   5   0 -12   58.99    6.40
  -5   0  12   66.89    7.10
  -4   0  12   44.20    4.00
  -4   0  12   35.40    5.30
   4   0 -12   33.20    4.70
  -3   0  12  144.39   15.00
  -3   0  12  183.58   13.50
   3   0 -12  162.78   13.00
   2   0 -12  385.46   29.80
  -2   0  12  371.46   28.60
  -2   0  12  412.36   28.10
   2   0 -12  405.76   28.50
   1   0 -12 1333.07   94.79
  -1   0  12 1393.76   94.99
  -1   0  12 1272.27   95.89
   1   0 -12 1429.26   96.19
   0   0 -12    3.10    2.40
   0   0  12    1.80    1.20
   0   0  12    1.80    1.70
   0   0  12    1.90    2.40
   1   0  12   29.60    3.50
   1   0  12   35.40    5.30
   1   0  12   30.60    4.10
  -1   0 -12   22.20    4.50
  -1   0 -12   32.80    3.90
  -2   0 -12  617.24   43.50
   2   0  12  595.34   43.00
   2   0  12  602.94   43.90
   3   0  12    6.00    2.30
  -3   0 -12    4.40    2.10
   3   0  12    5.50    3.10
   3   0  12    2.50    1.70
   4   0  12   26.90    5.20
  -4   0 -12   32.80    4.90
   5   0  12    1.70    1.90
  -5   0 -12    1.80    2.40
   5   0  12    1.10    2.50
   6   0  12   -1.10    1.70
  -6   0 -12   -0.90    2.10
   6  -1 -12   16.50    2.90
  -6  -1  12   13.30    3.30
  -6   1  12   19.60    3.60
   6   1 -12   16.80    3.00
   5  -1 -12   51.89    5.90
  -5  -1  12   63.29    7.20
   5   1 -12   47.20    6.00
  -5   1  12   64.49    5.30
  -5   1  12   64.59    6.80
  -4  -1  12    9.00    1.90
   4  -1 -12    9.10    2.40
  -4  -1  12    9.20    3.50
  -4  -1  12   -0.90    5.20
  -4   1  12    8.40    1.80
   4   1 -12    9.70    2.70
  -4   1  12    8.60    3.00
  -3  -1  12  276.37   19.10
   3  -1 -12  252.07   19.50
  -3  -1  12  262.17   19.90
   3   1 -12  260.37   18.80
   3   1 -12  258.87   19.70
   3   1 -12  275.87   21.70
  -3   1  12  212.38   21.10
  -3   1  12  272.67   20.00
  -3   1  12  286.27   19.10
  -2  -1  12  259.87   22.90
   2  -1 -12  321.97   22.80
  -2  -1  12  314.17   23.10
  -2   1  12  319.07   23.20
  -2   1  12  334.47   22.50
   2   1 -12  334.17   24.60
   2   1 -12  345.77   23.10
  -2   1  12  265.37   24.20
   2   1 -12  321.27   22.10
   1  -1 -12  100.79    7.70
   1  -1 -12   72.49   11.10
  -1  -1  12   96.89    7.50
  -1  -1  12   88.39    9.30
   1   1 -12   87.89    7.00
   1   1 -12   95.09    7.90
   1   1 -12   96.29    9.30
  -1   1  12  101.69    9.30
  -1   1  12   97.69    8.00
  -1   1  12   93.29    7.30
   0  -1 -12  939.51   63.49
   0  -1  12  891.71   62.69
   0  -1  12  866.81   62.89
   0  -1  12  915.21   63.79
   0   1 -12  802.32   62.09
   0   1  12  879.41   62.79
   0   1  12  871.61   62.49
   0   1 -12  912.51   62.89
   0   1  12  984.50   63.79
   0   1 -12  874.01   64.09
   1  -1  12  557.24   38.50
   1  -1  12  517.75   37.50
  -1  -1 -12  526.15   37.60
  -1   1 -12  523.85   37.80
   1   1  12  508.65   37.30
  -2  -1 -12    2.60    1.70
   2  -1  12    2.20    1.60
   2  -1  12   -0.10    1.40
   2  -1  12    0.60    2.40
   2   1  12   -0.90    2.30
   2   1  12    1.60    1.50
  -2   1 -12    0.20    1.40
   2   1  12    1.80    1.80
   3  -1  12   56.19    5.50
   3  -1  12   50.59    7.00
  -3  -1 -12   54.99    6.10
   3  -1  12   55.99    6.50
   3   1  12   58.09    5.60
   3   1  12   57.19    6.40
  -3   1 -12   70.99    6.60
   3   1  12   41.70    6.90
   4  -1  12   72.69   12.60
   4  -1  12   82.09    7.80
   4  -1  12   88.99    9.00
  -4   1 -12  109.89    9.20
   4   1  12   87.19    8.00
   4   1  12   89.99    9.00
  -5  -1 -12    0.60    2.00
   5  -1  12   -1.30    2.10
  -5   1 -12    2.40    2.50
   5   1  12   -0.60    1.70
   5   1  12    3.10    2.50
   6  -1  12   14.00    3.00
  -6  -1 -12   24.40    3.90
   6   1  12   19.70    3.90
   6   1  12   15.80    3.10
  -6   1 -12   25.50    4.00
   6  -2 -12    3.60    1.70
  -6  -2  12    6.20    2.60
  -6   2  12   -0.60    2.30
  -6   2  12    4.90    1.70
   6   2 -12    4.40    2.10
  -5  -2  12   10.00    2.80
   5  -2 -12   13.30    2.60
   5   2 -12    9.20    3.00
  -5   2  12   13.90    2.50
  -5   2  12   12.20    3.40
   4  -2 -12   84.39    7.60
   4   2 -12   77.09    6.80
   4   2 -12   86.99    9.10
  -4   2  12   96.29    8.40
  -4   2  12   70.19   10.50
  -4   2  12   99.79    8.20
  -3  -2  12   13.10    5.00
  -3  -2  12   13.20    3.10
  -3   2  12    8.70    3.50
   3   2 -12   17.10    3.70
  -3   2  12   18.30    3.30
   3   2 -12   12.10    2.10
   2  -2 -12   22.20    3.00
  -2  -2  12   18.40    4.10
  -2  -2  12   20.30    2.90
  -2   2  12   21.60    3.80
   2   2 -12   23.50    4.50
  -2   2  12   18.80    2.60
   2   2 -12   20.80    3.60
  -2   2  12   17.00    4.00
   2   2 -12   16.40    2.90
  -1  -2  12  871.41   70.49
   1  -2 -12 1049.99   69.09
  -1  -2  12 1053.29   69.49
  -1  -2  12 1014.70   69.09
   1   2 -12 1001.10   68.69
  -1   2  12  955.70   70.39
   1   2 -12  946.01   70.69
  -1   2  12 1004.20   69.29
   1   2 -12  999.30   69.39
  -1   2  12  963.00   68.89
   0  -2  12  192.18   15.10
   0  -2 -12  200.88   14.80
   0  -2  12  192.38   16.00
   0  -2  12  195.38   14.80
   0   2  12  187.88   14.90
   0   2 -12  188.18   16.60
   0   2  12  218.08   16.00
   0   2 -12  201.38   15.10
   0   2 -12  192.98   14.30
   0   2  12  217.98   14.50
   1  -2  12   76.89    7.60
  -1  -2 -12   73.19    6.80
   1  -2  12   64.49    6.30
   1   2  12   85.19    6.30
  -1   2 -12   85.09    7.20
  -1   2 -12   67.19    8.70
  -1   2 -12   72.89    5.90
   2  -2  12  213.28   16.70
  -2  -2 -12  237.58   16.20
   2  -2  12  188.78   15.80
   2  -2  12  229.58   17.20
  -2   2 -12  197.98   15.20
  -2   2 -12  217.18   16.50
   2   2  12  205.78   16.40
  -2   2 -12  182.88   17.80
   2   2  12  226.68   15.90
   3  -2  12  126.59   11.10
   3  -2  12  106.89   10.00
  -3   2 -12  112.89   12.50
  -3   2 -12  142.29   11.20
   3   2  12  132.99   11.10
   3   2  12  130.09   10.30
  -3   2 -12  121.09    9.40
   4  -2  12   13.40    3.30
  -4  -2 -12   18.10    3.70
  -4   2 -12   17.00    4.80
   4   2  12    3.40    3.20
   4   2  12    8.90    2.60
   5  -2  12   28.30    4.90
  -5  -2 -12   27.00    3.90
  -5   2 -12   26.00    4.80
   5   2  12   16.30    4.30
   5   2  12   22.70    4.10
  -5  -3  12   34.80    4.90
   5  -3 -12   39.80    4.00
  -5   3  12   44.10    4.30
  -5   3  12   35.80    6.30
   4  -3 -12   18.60    3.00
  -4  -3  12   24.70    4.30
  -4   3  12   29.10    5.90
  -4   3  12   25.20    3.10
   4   3 -12   24.90    4.40
   4   3 -12   19.70    3.00
  -3  -3  12   82.39    7.40
   3  -3 -12   84.49    6.40
   3   3 -12   83.49    9.40
  -3   3  12   67.99    9.70
   3   3 -12   77.39    6.40
   3   3 -12   76.29    7.50
  -3   3  12   70.19    6.30
  -3   3  12   81.49    7.50
  -2  -3  12  329.57   23.40
   2  -3 -12  331.27   22.60
   2   3 -12  335.67   25.50
  -2   3  12  271.07   24.60
   2   3 -12  296.57   22.50
   2   3 -12  330.27   23.50
  -2   3  12  317.57   22.60
   1  -3 -12  115.49    8.60
  -1  -3  12  114.99    9.50
   1   3 -12  111.99    9.50
  -1   3  12  111.59    8.70
   1   3 -12  124.79    8.70
   1   3 -12  113.79   11.30
  -1   3  12  104.19   10.60
   0  -3  12  366.36   27.30
   0  -3  12  341.27   28.40
   0   3 -12  382.16   26.40
   0   3 -12  355.26   28.90
   0   3  12  383.76   26.50
   0   3  12  407.66   28.10
   1  -3  12  204.58   16.20
   1  -3  12  201.88   15.60
   1   3  12  208.08   14.50
  -1   3 -12  186.88   14.20
   1   3  12  195.78   15.80
  -1   3 -12  177.78   16.90
   2  -3  12   25.70    4.20
   2  -3  12   25.20    5.50
  -2   3 -12   32.80    4.60
   2   3  12   26.40    3.50
  -2   3 -12   22.70    2.80
   3  -3  12   78.19    7.60
  -3   3 -12   60.99    9.70
  -3   3 -12   79.89    7.70
  -3   3 -12   70.49    5.90
   3   3  12   66.29    6.70
   4  -3  12   50.39    5.90
   4   3  12   35.70    5.00
  -4   3 -12   42.80    4.10
  -4   3 -12   42.90    5.90
   5  -3  12    2.30    2.10
   5   3  12    3.60    2.10
  -5   3 -12    3.10    2.30
  -5  -4  12   10.50    3.40
   5   4 -12    6.80    2.40
  -5   4  12   11.70    3.00
   5   4 -12    8.70    2.20
  -4  -4  12   51.29    5.40
   4   4 -12   39.10    4.40
  -4   4  12   49.70    4.50
   4   4 -12   47.50    5.70
  -3  -4  12   45.00    5.30
   3   4 -12   43.90    9.10
   3   4 -12   39.70    5.80
  -3   4  12   40.70    4.00
   3   4 -12   31.20    4.90
  -2   4  12    7.70    1.60
   2   4 -12    7.30    2.50
   2   4 -12   10.80    4.00
  -2   4  12    9.90    3.60
   2   4 -12   10.30    1.90
  -1  -4  12  935.81   61.69
   1   4 -12  850.61   63.39
  -1   4  12  737.23   62.39
   1   4 -12  832.02   61.59
  -1   4  12  884.21   60.89
   1   4 -12  972.90   60.79
   0   4 -12   23.00    3.90
   0   4  12   27.70    2.90
   0   4  12   22.80    4.70
   0   4 -12   23.20    5.00
   0   4 -12   23.90    2.90
   1  -4  12   25.40    4.30
  -1   4 -12   18.80    4.50
   1   4  12   21.80    2.90
  -1   4 -12   22.10    4.10
  -1   4 -12   21.10    2.70
   2  -4  12  355.46   27.50
  -2   4 -12  351.16   26.10
   2   4  12  398.36   26.60
  -2   4 -12  324.87   28.90
  -2   4 -12  399.16   27.80
   3  -4  12   17.00    3.70
  -3   4 -12   22.20    4.50
   3   4  12   22.80    3.60
   4  -4  12    5.70    2.50
  -4   4 -12    5.20    2.60
  -4   4 -12    7.00    1.60
   4   4  12    4.60    2.20
   5  -4  12   10.20    2.90
   5   4  12   12.30    2.80
  -5   4 -12   11.00    3.00
  -4  -5  12    4.80    1.90
  -4   5  12    3.40    1.50
   4   5 -12    3.40    1.80
   4   5 -12    4.80    3.30
  -3  -5  12   41.40    4.60
   3   5 -12   34.60    4.90
   3   5 -12   30.40    3.90
  -3   5  12   42.80    3.80
  -2  -5  12   77.19    6.90
  -2   5  12   70.89    5.90
   2   5 -12   85.09   10.60
   2   5 -12   64.09    6.00
   1   5 -12   37.00    5.20
   1   5 -12   49.99    7.80
  -1   5  12   47.20    4.20
   1   5 -12   44.60    4.30
   0  -5  12  192.58   16.00
   0   5 -12  191.18   15.90
   0   5 -12  213.28   19.70
   0   5 -12  196.58   14.60
   0   5  12  208.58   14.60
   1  -5  12   51.69    5.70
  -1   5 -12   53.99    6.10
  -1   5 -12   48.90    4.40
   1   5  12   54.19    4.60
  -1   5 -12   38.50    7.70
   1   5  12   40.60    5.40
   2  -5  12    7.40    2.80
   2   5  12    4.90    2.00
  -2   5 -12    6.40    2.60
  -2   5 -12    5.20    1.50
   3  -5  12    9.00    2.70
  -3   5 -12    9.80    2.00
   3   5  12    8.60    2.40
  -3   5 -12    7.20    2.70
   4  -5  12   46.70    5.50
   4   5  12   39.90    5.00
  -4   5 -12   42.30    4.20
   4   6 -12    5.10    1.80
  -4   6  12    8.20    1.80
   3   6 -12    8.40    3.10
   3   6 -12    5.50    1.90
  -3   6  12    8.20    1.80
  -2  -6  12   38.10    4.50
  -2   6  12   38.10    3.70
   2   6 -12   37.10    4.00
   2   6 -12   41.40    5.30
  -1  -6  12  136.79   12.10
   1   6 -12  157.08   11.40
   1   6 -12  147.89   12.80
  -1   6  12  164.48   11.40
   0  -6  12   33.00    4.40
   0   6 -12   36.20    3.70
   0   6  12   35.40    3.50
   0   6 -12   43.50    5.70
   1  -6  12    5.50    2.30
  -1   6 -12    7.60    1.70
   1   6  12    7.40    1.70
  -1   6 -12    3.30    2.70
   2  -6  12  134.59   11.30
  -2   6 -12  155.98   12.50
  -2   6 -12  135.79   10.40
   2   6  12  122.69   10.60
   3  -6  12   44.80    5.80
  -3   6 -12   45.40    4.10
  -3   6 -12   43.50    6.30
   3   6  12   35.10    4.50
   2   7 -12   27.90    3.40
  -2   7  12   25.40    2.80
  -1   7  12   14.00    2.90
   1   7 -12   23.90    2.90
   0   7 -12   31.80    3.50
  -1   7 -12   17.40    2.60
   1   7  12   16.40    2.70
   2   7  12   15.50    3.00
  -2   7 -12   24.10    2.70
  -6   0  13   15.60    3.30
   6   0 -13   13.50    2.80
  -5   0  13   67.89    7.10
  -5   0  13   60.39    5.60
   5   0 -13   56.89    6.30
  -4   0  13   13.80    4.40
  -4   0  13    5.90    5.60
   4   0 -13   15.00    3.30
  -4   0  13   20.40    2.70
  -3   0  13  147.59   12.60
  -3   0  13  153.68   11.60
   3   0 -13  157.08   12.30
   2   0 -13  455.85   32.50
  -2   0  13  466.85   32.10
  -2   0  13  449.76   32.70
  -2   0  13  428.46   35.00
  -1   0  13  277.97   20.50
   1   0 -13  274.67   21.80
  -1   0  13  280.57   20.00
  -1   0  13  268.97   21.80
   1   0 -13  283.27   20.40
   0   0 -13  968.60   69.29
   0   0  13 1029.70   70.39
   0   0  13  979.50   69.09
   0   0 -13  966.00   70.49
   1   0  13  506.45   36.60
   1   0  13  555.24   38.00
  -1   0 -13  482.35   36.90
   2   0  13  109.99   10.00
  -2   0 -13  120.59    9.70
   2   0  13   95.09   10.50
   2   0  13  118.49    9.20
  -3   0 -13   69.99    6.80
   3   0  13   52.29    7.70
   3   0  13   60.39    6.00
   3   0  13   58.69    6.90
  -4   0 -13   83.19    7.90
   4   0  13   69.29    8.70
   4   0  13   69.39    7.40
  -5   0 -13    0.60    1.90
   5   0  13   -2.30    2.40
   5   0  13    1.70    2.10
  -6  -1  13    6.40    2.40
  -6   1  13    4.10    2.70
  -5  -1  13   10.90    3.10
   5  -1 -13    4.80    2.30
  -5   1  13    7.40    3.00
  -5   1  13    8.30    1.80
   5   1 -13    7.00    2.70
  -4  -1  13  132.69   10.10
   4  -1 -13  131.99   10.80
  -4   1  13  135.99   10.60
   4   1 -13  117.89   10.80
  -3  -1  13   93.29    7.60
   3  -1 -13   95.59    8.20
   3   1 -13   89.29    8.40
  -3   1  13   91.89    8.60
  -3   1  13   98.19    7.60
  -2  -1  13  122.19    9.10
  -2  -1  13  120.09    9.90
   2  -1 -13  127.29    9.60
   2   1 -13  122.89    9.80
  -2   1  13  111.29    9.00
   2   1 -13  118.99   11.40
  -2   1  13  117.69    9.90
  -2   1  13   93.59   11.10
  -1  -1  13  157.28   12.40
   1  -1 -13  160.38   12.20
  -1  -1  13  140.59   13.50
  -1  -1  13  158.78   12.00
  -1   1  13  165.28   12.40
  -1   1  13  167.08   11.90
   1   1 -13  176.18   12.50
  -1   1  13  157.78   13.70
   1   1 -13  145.59   11.40
   0  -1  13  645.64   46.90
   0  -1  13  665.23   45.60
   0  -1 -13  685.23   45.80
   0   1  13  660.73   45.40
   0   1 -13  569.04   45.20
   0   1 -13  637.94   45.90
   0   1  13  686.63   46.90
   0   1 -13  588.54   47.00
   0   1  13  662.63   45.80
   1  -1  13    9.60    3.20
  -1  -1 -13   12.20    2.40
   1  -1  13   11.40    2.20
   1   1  13    9.50    2.00
  -1   1 -13    6.70    3.60
   1   1  13   10.80    4.10
  -1   1 -13    7.30    2.10
   2  -1  13  325.87   24.20
   2  -1  13  302.27   23.30
   2  -1  13  372.66   25.60
  -2  -1 -13  328.67   23.60
   2   1  13  305.57   23.20
  -2   1 -13  266.67   25.20
   2   1  13  311.07   24.00
  -2   1 -13  328.67   23.80
  -3  -1 -13  146.59   11.10
   3  -1  13  122.29   10.30
   3  -1  13  120.89   11.30
   3  -1  13  109.69   11.70
  -3   1 -13  137.89   11.20
   3   1  13  137.49   10.50
   3   1  13  110.69   11.00
   4  -1  13    1.90    2.40
  -4  -1 -13    4.20    2.30
   4   1  13    5.90    4.30
  -4   1 -13    4.00    2.60
   4   1  13    2.50    2.00
  -5  -1 -13   28.90    4.20
   5  -1  13   23.40    4.60
   5   1  13   24.20    4.00
  -5   1 -13   25.30    4.80
   5  -2 -13   39.20    4.50
  -5  -2  13   42.10    5.20
   5   2 -13   37.90    5.20
  -5   2  13   44.50    4.20
  -5   2  13   33.90    5.70
  -4  -2  13   32.10    5.10
   4  -2 -13   39.40    4.60
  -4   2  13   45.50    5.50
   4   2 -13   32.00    5.00
  -4   2  13   37.40    4.00
  -3  -2  13  357.66   25.00
   3  -2 -13  351.56   24.40
  -3   2  13  328.47   24.90
   3   2 -13  309.87   26.70
   3   2 -13  314.67   23.70
   3   2 -13  335.97   24.80
  -3   2  13  339.27   24.10
  -2  -2  13  250.17   18.50
  -2  -2  13  259.97   19.30
   2  -2 -13  252.77   18.00
  -2   2  13  249.48   17.80
  -2   2  13  247.48   18.50
   2   2 -13  249.48   17.50
  -2   2  13  204.38   19.90
   2   2 -13  258.27   18.60
   2   2 -13  228.28   20.00
  -1  -2  13  136.79   13.30
   1  -2 -13  149.19   11.40
  -1  -2  13  157.18   11.90
  -1  -2  13  139.59   11.40
  -1   2  13  158.48   11.80
  -1   2  13  150.38   13.30
  -1   2  13  167.18   11.30
   1   2 -13  138.29   13.40
   1   2 -13  147.69   11.90
   1   2 -13  150.28   11.00
   0  -2 -13  348.47   24.60
   0  -2  13  329.17   24.90
   0  -2  13  307.97   24.50
   0  -2  13  344.97   26.10
   0   2  13  383.16   26.10
   0   2  13  354.86   24.40
   0   2 -13  336.47   26.60
   0   2 -13  354.26   25.00
   0   2 -13  311.37   24.00
   0   2  13  335.67   24.70
   1  -2  13  572.54   41.70
   1  -2  13  527.55   40.90
  -1  -2 -13  585.04   40.70
  -1   2 -13  505.15   39.90
   1   2  13  602.64   40.40
  -1   2 -13  555.84   42.60
   1   2  13  614.54   41.30
  -1   2 -13  598.74   41.10
  -2  -2 -13    1.30    1.70
   2  -2  13    6.50    2.50
   2  -2  13    2.90    3.00
   2  -2  13    2.30    1.70
  -2   2 -13    2.80    3.80
   2   2  13   -2.40    2.40
   2   2  13    3.50    1.80
  -2   2 -13    4.00    2.10
   3  -2  13    3.10    2.30
   3  -2  13   12.30    4.30
   3  -2  13    1.30    2.00
  -3  -2 -13    3.60    2.10
  -3   2 -13    4.20    2.80
   3   2  13    2.10    3.20
   3   2  13    4.20    2.00
   3   2  13   -0.60    2.60
  -4  -2 -13   30.70    4.20
  -4   2 -13   31.20    4.90
   4   2  13   20.10    4.60
   4   2  13   30.80    4.30
   5  -2  13    4.40    2.50
   5   2  13    5.70    2.30
  -5   2 -13    4.30    2.40
   5   2  13    2.70    3.80
  -5  -3  13    7.90    2.70
  -5   3  13    7.70    1.90
   5   3 -13    8.40    3.20
  -4  -3  13   99.79    8.50
   4  -3 -13   94.99    7.30
  -4   3  13   82.89    9.20
   4   3 -13   88.59    8.50
   4   3 -13   75.69    7.20
  -4   3  13  103.39    7.60
  -3  -3  13   66.99    6.30
   3  -3 -13   57.89    4.90
  -3   3  13   48.40    8.30
   3   3 -13   61.19    6.20
  -3   3  13   56.19    5.30
  -3   3  13   43.80    7.40
   3   3 -13   54.39    4.90
   2  -3 -13   39.30    3.80
  -2  -3  13   38.60    4.80
   2   3 -13   41.00    3.90
   2   3 -13   51.79    5.90
  -2   3  13   40.20    4.00
   2   3 -13   41.40    7.00
  -1  -3  13  146.89   11.20
  -1   3  13  138.49   10.40
   1   3 -13  142.59   10.30
  -1   3  13  129.29   12.30
   1   3 -13  132.09   11.20
   1   3 -13  136.09   13.20
   0  -3  13  266.97   23.30
   0  -3  13  300.07   22.00
   0   3  13  312.97   23.00
   0   3  13  310.17   21.30
   0   3 -13  283.97   21.00
   0   3 -13  292.07   24.70
   1  -3  13   61.19    6.20
   1  -3  13   67.69    9.70
  -1   3 -13   49.99    5.80
  -1   3 -13   47.80    4.50
   1   3  13   47.20    6.40
  -1   3 -13   45.30    8.80
   1   3  13   58.49    5.00
   2  -3  13  133.79   11.30
   2   3  13  135.59   10.30
  -2   3 -13  128.29   11.10
  -2   3 -13  114.99    9.60
   3  -3  13   65.59    9.00
  -3   3 -13   72.49   10.30
   3   3  13   92.69    9.00
  -3   3 -13   70.49    6.00
   4  -3  13   20.30    4.30
  -4   3 -13   23.50    4.40
   4   3  13   15.70    3.30
  -5   3 -13    1.00    2.40
   5   3  13   -4.90    2.70
  -5  -4  13   15.50    2.80
  -5   4  13   22.20    2.90
   5   4 -13   15.30    3.00
  -4  -4  13    2.80    1.90
   4   4 -13    0.00    1.60
   4   4 -13    1.30    2.30
  -4   4  13    2.40    1.40
   3   4 -13   70.89    7.00
   3   4 -13   58.09    5.70
  -3   4  13   72.99    5.80
  -2  -4  13  190.78   14.90
   2   4 -13  187.08   17.30
   2   4 -13  199.58   14.10
  -2   4  13  190.58   14.20
   2   4 -13  185.48   15.00
  -1  -4  13  111.19   10.00
   1   4 -13  126.49    9.00
  -1   4  13  122.89    9.10
   1   4 -13   98.19   11.70
  -1   4  13  134.89   13.10
   1   4 -13  113.59   10.10
   0   4 -13   93.99   11.10
   0   4 -13  111.99    8.30
   0   4  13  114.29    8.40
   0   4  13  105.69   10.00
   0   4 -13  102.29    9.40
   1  -4  13  320.87   22.90
   1   4  13  324.87   21.60
  -1   4 -13  298.37   22.60
  -1   4 -13  261.67   24.20
  -1   4 -13  272.97   21.10
   2  -4  13   10.00    3.20
  -2   4 -13   11.40    1.90
  -2   4 -13    3.00    4.40
   2   4  13    9.70    3.50
  -2   4 -13    6.60    2.60
   2   4  13   10.40    2.40
   3  -4  13   10.80    3.20
  -3   4 -13   10.10    1.80
   3   4  13   11.90    2.60
  -3   4 -13   11.10    3.10
   4  -4  13   15.50    3.50
  -4   4 -13   18.80    3.70
   4   4  13   21.90    3.90
  -5   4 -13    6.00    2.10
  -4  -5  13   26.00    3.50
   4   5 -13   23.20    3.10
   4   5 -13   34.80    4.40
  -3  -5  13   79.69    7.20
   3   5 -13   69.69    6.60
  -3   5  13   91.19    6.80
   3   5 -13   79.09    7.80
  -2  -5  13   94.39    8.00
  -2   5  13   87.89    7.10
   2   5 -13   88.29    7.10
   2   5 -13   80.39    8.20
   1   5 -13   26.30    5.40
  -1   5  13   24.90    3.00
   1   5 -13   22.60    3.00
   0  -5  13  144.09   12.80
   0   5 -13  158.88   11.60
   0   5 -13  152.48   13.10
   0   5  13  143.39   12.40
   1  -5  13   44.50    5.10
  -1   5 -13   32.20    3.40
  -1   5 -13   34.60    5.20
   1   5  13   29.70    3.70
   2  -5  13   82.59    8.10
   2   5  13   82.39    7.00
  -2   5 -13   81.09    8.20
  -2   5 -13   71.79    6.40
   3  -5  13   40.10    5.70
  -3   5 -13   41.60    4.20
   3   5  13   47.20    5.10
  -3   5 -13   58.59    6.50
   4  -5  13    2.30    2.00
   4   5  13    1.00    1.90
  -4   5 -13   -1.40    1.40
  -4   5 -13   -1.70    2.00
  -3  -6  13   40.50    4.80
   3   6 -13   45.60    4.20
  -3   6  13   46.80    4.20
   3   6 -13   38.70    5.80
  -2  -6  13   28.50    4.50
   2   6 -13   41.00    3.90
   2   6 -13   41.40    5.40
  -2   6  13   42.10    3.90
  -1  -6  13    1.50    1.80
   1   6 -13    2.00    2.40
   1   6 -13    2.00    1.50
  -1   6  13    1.30    1.30
   0  -6  13   61.99    6.00
   0   6 -13   45.10    6.70
   0   6 -13   54.89    4.90
   0   6  13   56.99    4.80
   1  -6  13   52.29    5.60
  -1   6 -13   50.09    4.50
   1   6  13   48.20    4.70
  -1   6 -13   52.09    6.50
   2  -6  13    6.10    2.30
   2   6  13    6.40    2.10
  -2   6 -13    8.20    1.70
  -2   6 -13   12.60    3.70
   3  -6  13    3.20    2.00
   3   6  13    3.10    1.80
  -3   6 -13    3.10    1.30
  -3   6 -13    2.10    2.70
  -2   7  13   10.20    1.80
   2   7 -13   10.10    1.90
   1   7 -13   10.80    2.00
  -1   7  13   13.50    2.10
   0   7 -13   16.10    2.90
   0   7  13   13.80    2.30
  -1   7 -13    3.70    1.40
   1   7  13    3.40    1.60
   2   7  13    8.80    1.80
  -2   7 -13    6.00    1.50
  -5   0  14    4.10    2.50
   5   0 -14    4.70    2.20
  -4   0  14  101.69    9.50
   4   0 -14  102.79    9.10
  -4   0  14  108.69    8.40
   3   0 -14   21.50    4.00
  -3   0  14   25.30    4.30
  -3   0  14   28.80    3.30
  -2   0  14   23.90    4.10
   2   0 -14   23.50    3.80
  -2   0  14   20.60    3.00
  -2   0  14   14.50    4.50
   1   0 -14   42.20    4.60
  -1   0  14   39.30    3.90
  -1   0  14   27.90    6.20
  -1   0  14   40.50    4.60
   0   0  14   90.99    7.50
   0   0  14   90.09    8.00
   0   0 -14   90.69    7.90
  -1   0 -14    3.50    1.70
   1   0  14    1.70    1.70
   1   0  14    1.90    2.70
   2   0  14   33.90    5.10
   2   0  14   31.50    6.00
   2   0  14   31.10    4.10
  -2   0 -14   34.00    4.60
   3   0  14   70.99    6.70
   3   0  14   49.80   11.20
   3   0  14   68.69    7.70
  -3   0 -14   78.99    7.30
  -4   0 -14   11.60    2.90
   4   0  14    5.20    2.60
   4   0  14    8.00    2.40
   5   0  14    4.00    3.20
   5   0  14    6.10    2.80
  -5   0 -14    1.90    2.00
   5  -1 -14   62.69    6.30
  -5  -1  14   64.89    6.80
   5   1 -14   62.99    6.60
  -5   1  14   62.49    6.90
  -5   1  14   74.19    6.60
  -4  -1  14    2.30    2.40
   4  -1 -14    3.60    2.10
  -4  -1  14    5.00    2.40
   4   1 -14    2.80    2.30
  -4   1  14    5.00    1.70
  -4   1  14    7.60    2.70
  -3  -1  14    0.00    4.70
  -3  -1  14    4.30    2.50
  -3  -1  14    8.40    1.70
   3  -1 -14    7.30    2.20
  -3   1  14    3.80    5.70
  -3   1  14    6.70    2.40
  -3   1  14   13.60    2.30
   3   1 -14   10.20    2.50
   2  -1 -14  330.77   22.40
  -2  -1  14  305.07   21.90
  -2  -1  14  335.97   22.70
  -2   1  14  250.17   24.00
  -2   1  14  299.67   21.90
   2   1 -14  292.07   22.40
  -2   1  14  300.47   22.50
  -1  -1  14   51.19    5.70
  -1  -1  14   36.90    4.10
   1  -1 -14   38.40    4.40
  -1  -1  14   32.00    6.00
  -1   1  14   45.30    4.80
  -1   1  14   34.30    6.10
   1   1 -14   30.80    6.50
   1   1 -14   39.50    4.80
  -1   1  14   41.50    4.00
   0  -1  14  308.07   22.30
   0  -1  14  302.67   22.00
   0  -1  14  308.07   23.60
   0  -1 -14  323.57   22.20
   0   1  14  278.57   22.10
   0   1  14  311.47   23.50
   0   1  14  285.77   21.70
   0   1 -14  283.27   23.80
   0   1 -14  306.17   22.30
  -1  -1 -14  224.98   17.50
   1  -1  14  219.28   17.30
   1   1  14  236.28   17.30
  -1   1 -14  232.38   17.80
   1   1  14  248.28   18.90
   2  -1  14   23.40    5.30
   2  -1  14   22.40    3.50
  -2  -1 -14   27.30    3.90
   2  -1  14   18.50    3.70
  -2   1 -14   23.00    4.00
   2   1  14   15.20    4.00
   2   1  14   23.70    3.60
   2   1  14   24.90    4.60
  -3  -1 -14  150.08   11.40
   3  -1  14  131.99   11.90
   3  -1  14  121.19   10.70
   3  -1  14  126.59   13.60
   3   1  14  131.69   11.80
  -3   1 -14  129.59   11.40
   3   1  14  128.69   10.80
   4  -1  14   23.90    4.10
  -4  -1 -14   32.90    4.90
   4  -1  14   36.20    5.40
   4   1  14   27.00    4.20
  -4   1 -14   38.50    5.40
   4   1  14   31.20    5.70
   5  -1  14    3.60    3.40
  -5  -1 -14    1.60    3.10
  -5   1 -14    0.40    2.00
  -5  -2  14   -1.80    1.90
   5  -2 -14    3.80    1.90
   5   2 -14    0.10    2.30
  -5   2  14    0.10    1.60
  -5   2  14    5.20    2.60
   4  -2 -14   73.19    6.20
  -4  -2  14   66.39    6.80
   4   2 -14   59.79    6.60
  -4   2  14   58.79    6.90
  -4   2  14   71.29    5.90
  -3  -2  14  124.89   10.50
   3  -2 -14  122.19    9.50
  -3   2  14   91.49   13.80
  -3   2  14  130.79    9.50
   3   2 -14  109.69   10.30
  -3   2  14  114.49   10.30
  -2  -2  14    9.10    4.80
  -2  -2  14    3.80    2.00
   2  -2 -14    3.40    1.60
  -2  -2  14    1.80    1.70
  -2   2  14    0.00    2.00
  -2   2  14    2.30    1.30
   2   2 -14    1.80    1.20
   2   2 -14    3.30    2.10
  -2   2  14    1.40    3.00
   2   2 -14    5.40    4.10
  -1  -2  14  157.48   14.90
  -1  -2  14  153.48   12.70
  -1  -2  14  173.48   13.30
   1  -2 -14  173.98   12.80
  -1   2  14  165.58   14.80
  -1   2  14  195.18   12.80
   1   2 -14  152.28   12.30
   1   2 -14  178.48   13.40
  -1   2  14  180.48   13.30
   1   2 -14  159.28   15.00
   0  -2  14   69.89    6.30
   0  -2  14   60.69    5.50
   0  -2  14   65.79    7.60
   0  -2 -14   69.39    5.70
   0   2 -14   58.29    6.10
   0   2  14   58.79    7.30
   0   2  14   54.09    5.20
   0   2  14   47.40    5.60
  -1  -2 -14   21.00    3.30
   1  -2  14   28.60    5.40
   1  -2  14   19.10    3.20
   1  -2  14   29.80    5.10
  -1   2 -14   21.00    3.90
  -1   2 -14   14.90    2.90
  -1   2 -14   18.20    4.80
   1   2  14   14.30    3.70
   1   2  14   21.60    3.10
  -2  -2 -14  192.98   13.80
   2  -2  14  177.48   15.10
   2  -2  14  164.18   13.50
   2   2  14  177.48   13.60
   2   2  14  164.08   14.30
  -2   2 -14  178.28   14.30
   3  -2  14   56.49    6.10
  -3  -2 -14   68.39    6.10
   3  -2  14   69.99    9.00
   3   2  14   57.59    6.30
  -3   2 -14   57.09    7.00
   3   2  14   45.00    7.10
   4  -2  14    1.40    1.80
  -4  -2 -14    4.80    2.00
   4   2  14   -5.30    3.20
  -4   2 -14    4.00    2.30
   4   2  14   -1.10    1.90
   5  -2  14    5.20    3.10
   5   2  14    5.70    2.30
  -5   2 -14   10.50    4.20
  -5  -3  14   52.19    5.60
   5   3 -14   45.20    5.70
  -5   3  14   61.89    5.10
  -4  -3  14   14.10    2.90
   4  -3 -14   21.10    3.00
   4   3 -14   15.60    3.30
  -4   3  14   20.60    2.90
   3  -3 -14   22.90    3.30
  -3  -3  14   24.80    3.80
   3   3 -14   15.20    3.10
   3   3 -14   15.20    2.90
  -3   3  14   15.30    2.60
  -2  -3  14   99.49    8.70
  -2   3  14  109.79    8.10
   2   3 -14  103.39    8.90
   2   3 -14   89.59   11.20
  -2   3  14   88.69   10.60
   2   3 -14  103.69    7.80
  -1  -3  14   82.39    7.80
   1   3 -14   88.69    6.90
  -1   3  14   84.59    9.30
   1   3 -14   84.29   10.10
  -1   3  14  101.19    7.20
   1   3 -14   79.59    7.90
   0  -3  14  284.07   20.50
   0   3 -14  262.57   19.40
   0   3  14  289.57   19.70
   0   3  14  267.47   21.30
   0   3 -14  244.98   22.00
   1  -3  14  118.09   10.60
   1   3  14  113.49   10.80
   1   3  14  129.79    9.50
  -1   3 -14  109.49    8.90
  -1   3 -14  122.69   12.80
   2  -3  14   32.60    4.70
  -2   3 -14   24.80    3.00
  -2   3 -14   30.30    4.60
   2   3  14   30.90    3.90
  -2   3 -14   21.90    5.80
   2   3  14   23.70    5.10
   3  -3  14   54.19    6.90
   3   3  14   61.29    6.20
  -3   3 -14   70.19    7.80
   4  -3  14   37.60    5.60
   4   3  14   39.60    5.00
  -4   3 -14   40.60    5.60
   5  -3  14    3.60    2.10
   5   3  14    2.50    2.00
  -5   3 -14    2.10    2.10
  -4  -4  14   46.80    4.90
   4   4 -14   49.90    5.70
   4   4 -14   34.00    4.00
  -4   4  14   46.20    4.30
  -3  -4  14   49.40    5.30
   3   4 -14   53.39    5.60
   3   4 -14   38.70    4.10
  -3   4  14   44.20    4.40
  -2  -4  14    2.30    1.90
   2   4 -14    4.40    1.60
   2   4 -14    2.30    1.90
  -2   4  14    5.80    1.70
  -1  -4  14   91.49    8.00
   1   4 -14   78.99    7.40
  -1   4  14   69.29   11.40
  -1   4  14   83.89    6.80
   1   4 -14   58.39    9.70
   1   4 -14   76.59    6.30
   0  -4  14   27.00    4.30
   0   4  14   23.30    5.00
   0   4 -14   20.10    2.80
   0   4 -14   14.30    3.20
   0   4 -14   17.70    7.50
   0   4  14   22.30    2.90
   1  -4  14   23.60    7.50
   1   4  14   23.00    4.20
  -1   4 -14   25.90    5.80
  -1   4 -14   28.30    4.70
  -1   4 -14   22.00    2.90
   2  -4  14   70.99    7.20
   2   4  14   55.39    5.80
  -2   4 -14   65.69    7.50
  -2   4 -14   55.19    5.00
   3  -4  14   71.99    7.50
   3   4  14   67.79    6.50
  -3   4 -14   62.69    7.30
  -3   4 -14   60.79    5.50
   4  -4  14    6.50    2.90
  -4   4 -14    5.40    2.60
   4   4  14    6.20    2.40
  -4  -5  14    2.10    1.70
  -4   5  14    4.40    1.60
   4   5 -14   -2.00    2.20
   4   5 -14    1.10    1.60
  -3  -5  14    4.50    2.10
   3   5 -14    7.60    1.80
   3   5 -14    5.60    2.40
  -3   5  14    9.50    1.90
  -2  -5  14   84.59    7.30
  -2   5  14   85.29    6.60
   2   5 -14   82.89    7.70
   2   5 -14   66.09    6.30
  -1  -5  14   32.90    4.70
   1   5 -14   27.30    3.40
   1   5 -14   29.20    4.60
  -1   5  14   40.30    3.70
   0  -5  14   79.79    7.40
   0   5 -14   62.69    5.60
   0   5  14   64.99    5.80
   0   5 -14   64.69    7.00
   1  -5  14   20.80    4.00
  -1   5 -14   20.50    3.90
  -1   5 -14   18.90    2.70
   1   5  14   26.50    3.20
   2  -5  14   47.70    5.90
   2   5  14   50.39    4.90
  -2   5 -14   39.20    4.10
   3  -5  14   38.40    5.20
  -3   5 -14   53.39    6.60
  -3   5 -14   30.60    4.50
   3   5  14   44.00    4.80
  -3  -6  14   49.00    6.50
   3   6 -14   41.30    4.20
  -3   6  14   49.99    4.40
  -2  -6  14   10.40    2.40
   2   6 -14    7.80    2.60
   2   6 -14    8.40    2.80
  -1  -6  14   83.89    7.40
   1   6 -14   79.59    8.60
   1   6 -14   70.69    6.50
  -1   6  14   87.09    6.60
   0  -6  14   48.20    5.10
   0   6  14   44.50    4.10
   0   6 -14   34.40    3.90
   0   6 -14   42.00    5.70
   1  -6  14   19.50    3.70
  -1   6 -14   20.50    4.10
   1   6  14   20.10    3.00
  -1   6 -14   19.90    2.60
   2  -6  14   52.89    5.90
   2   6  14   56.29    5.20
  -2   6 -14   49.90    4.80
  -2   6 -14   60.79    6.80
  -3   6 -14   16.00    4.40
   0   7 -14    3.50    1.30
   0   7  14    6.40    1.60
   5   0 -15   39.50    6.70
  -5   0  15   49.50    5.40
  -4   0  15   40.30    4.20
   4   0 -15   40.30    5.10
  -4   0  15   38.30    5.20
  -3   0  15   51.79    5.90
   3   0 -15   58.59    6.20
  -2   0  15  160.38   12.10
   2   0 -15  163.38   12.70
  -2   0  15  173.18   12.90
  -2   0  15  135.79   14.50
   1   0 -15   24.40    3.80
  -1   0  15   15.00    4.60
  -1   0  15   23.80    3.10
  -1   0  15   25.20    3.80
   0   0 -15    2.90    1.80
   0   0  15    3.20    3.10
   0   0  15    4.70    1.60
   0   0  15    5.20    2.10
   1   0  15  673.63   49.40
  -1   0 -15  667.13   48.30
   1   0  15  687.13   48.00
   2   0  15   33.40    5.70
   2   0  15   28.20    5.00
   2   0  15   33.20    4.20
  -2   0 -15   28.20    4.40
   3   0  15   42.30    4.90
  -3   0 -15   39.90    5.50
   3   0  15   48.50    6.80
   4   0  15   72.39    8.30
  -4   0 -15   88.49    7.90
   4   0  15   72.09    7.20
   5   0  15    6.80    2.70
  -5   0 -15   10.70    2.60
   5   0  15    5.80    3.00
   5  -1 -15    1.70    1.70
  -5  -1  15   -1.90    1.90
  -5   1  15   -2.00    2.20
   5   1 -15    0.20    1.90
  -5   1  15   -0.80    1.60
  -4  -1  15   77.09    7.60
   4  -1 -15   81.69    7.20
   4   1 -15   80.59    7.60
  -4   1  15   78.29    7.60
  -4   1  15   73.99    6.60
  -3  -1  15  141.79   12.30
   3  -1 -15  167.48   13.00
  -3  -1  15  165.48   13.30
   3   1 -15  163.28   13.20
  -3   1  15  180.68   12.60
  -2  -1  15   22.10    3.30
  -2  -1  15   30.80    4.20
   2  -1 -15   32.00    4.00
  -2  -1  15   20.30    5.30
   2   1 -15   19.30    4.00
  -2   1  15   33.30    6.80
  -2   1  15   31.10    4.30
  -2   1  15   33.30    3.50
  -1  -1  15  136.29   11.10
  -1  -1  15  141.29   13.20
  -1  -1  15  155.78   11.70
   1  -1 -15  151.48   11.50
  -1   1  15  139.09   11.10
  -1   1  15  148.39   11.60
  -1   1  15  131.09   13.20
   1   1 -15  150.68   11.80
   0  -1  15  175.68   16.00
   0  -1  15  194.38   15.00
   0  -1  15  183.78   14.50
   0  -1 -15  197.08   14.80
   0   1  15  190.88   16.20
   0   1  15  205.78   14.50
   0   1  15  192.08   14.90
   0   1 -15  199.08   15.00
   1  -1  15  240.48   18.10
  -1  -1 -15  245.48   18.30
   1  -1  15  255.97   19.10
   1  -1  15  222.08   19.30
   1   1  15  238.58   18.00
   1   1  15  247.58   18.90
  -1   1 -15  242.58   18.60
   1   1  15  246.38   19.70
   2  -1  15   71.99    8.90
  -2  -1 -15   87.59    7.80
   2  -1  15   82.79    7.50
   2  -1  15   86.59    8.50
   2   1  15   89.09    7.60
   2   1  15   83.99    8.60
  -2   1 -15   89.19    8.10
   3  -1  15   27.40    4.30
  -3  -1 -15   36.40    4.70
   3  -1  15   24.70    5.10
   3   1  15   26.50    4.20
   3   1  15   32.20    5.80
  -3   1 -15   24.90    4.70
  -4  -1 -15    8.60    2.60
   4  -1  15    5.80    3.00
   4  -1  15    6.20    2.50
   4   1  15    9.10    2.50
  -4   1 -15    6.80    3.00
   5  -1  15    3.20    2.70
  -5  -1 -15    0.40    1.70
   5   1  15   -3.80    2.70
  -5   1 -15    0.70    2.00
   5   1  15    1.70    1.90
   5  -2 -15   29.50    3.70
  -5  -2  15   28.60    4.30
   5   2 -15   38.30    4.50
  -5   2  15   34.60    3.70
  -5   2  15   28.00    5.10
  -4  -2  15   10.30    2.70
   4  -2 -15   10.80    2.30
   4   2 -15   17.60    3.30
  -3  -2  15   23.20    4.10
   3  -2 -15   20.30    3.40
   3   2 -15   22.80    4.20
  -3   2  15   32.80    4.90
  -3   2  15   19.40    3.10
   2  -2 -15   65.19    6.10
  -2  -2  15   65.49    6.50
  -2   2  15   75.09    6.00
  -2   2  15   72.19    6.90
   2   2 -15   74.89    7.00
  -2   2  15   52.69    8.80
  -1  -2  15   78.49    7.40
   1  -2 -15   81.59    7.00
  -1  -2  15   69.99    6.80
  -1  -2  15   69.19    9.50
   1   2 -15   85.99    7.60
  -1   2  15   98.09    7.00
  -1   2  15   92.39    7.50
  -1   2  15   70.19    8.90
   0  -2  15   -3.90    3.10
   0  -2  15   -1.10    1.40
   0  -2  15    0.50    1.80
   0  -2 -15    0.10    1.20
   0   2 -15    0.80    1.60
   0   2  15    4.00    2.90
   0   2  15    2.90    2.00
   0   2 -15    8.60    4.90
   0   2  15   -0.10    1.20
  -1  -2 -15  289.57   20.30
   1  -2  15  247.48   20.20
   1  -2  15  272.87   21.20
   1  -2  15  234.88   21.60
   1   2  15  299.47   20.30
   1   2  15  279.07   21.00
  -1   2 -15  279.17   20.90
   1   2  15  291.07   22.70
   2  -2  15   89.89    8.20
  -2  -2 -15  105.19    8.20
   2  -2  15  101.69    9.30
   2   2  15   99.59    8.40
   2   2  15   74.19    8.90
  -2   2 -15  100.49    9.00
   3  -2  15   28.70    5.00
  -3  -2 -15   25.90    3.80
   3   2  15   32.40    4.20
  -3   2 -15   28.10    4.80
  -4  -2 -15   79.69    7.00
   4  -2  15   82.09    8.60
  -4   2 -15   88.19    8.50
   4   2  15   84.39    7.80
   5  -2  15    6.00    2.60
   5   2  15    3.10    2.00
  -5   2 -15    3.40    2.30
  -4  -3  15   28.40    4.20
  -4   3  15   34.40    3.70
   4   3 -15   33.30    4.60
  -3  -3  15   84.59    7.80
  -3   3  15   90.69    7.20
   3   3 -15   79.79    8.00
  -2  -3  15    3.90    1.90
  -2   3  15    3.90    1.50
   2   3 -15    2.90    1.40
   2   3 -15    4.30    2.30
  -1  -3  15   57.89    5.90
   1   3 -15   55.09    6.00
   1   3 -15   50.19    4.70
  -1   3  15   48.30    7.50
  -1   3  15   63.29    5.20
   1   3 -15   47.30    9.10
   0   3 -15   85.19   11.70
   0   3 -15  122.59    9.70
   0   3  15  120.79    8.80
   0   3 -15  104.09    8.30
   0   3  15  108.69   10.40
   1  -3  15   25.20    4.60
  -1   3 -15   27.40    7.80
   1   3  15   20.30    3.20
  -1   3 -15   18.30    2.60
  -1   3 -15   14.10    3.10
   2  -3  15  161.58   12.70
  -2   3 -15  123.79   11.40
   2   3  15  147.69   11.50
   3  -3  15   18.60    4.30
   3   3  15   21.70    3.70
  -3   3 -15   24.30    4.50
   4  -3  15    9.40    3.50
  -4   3 -15    7.00    2.70
   4   3  15    5.40    2.30
  -4  -4  15   10.40    2.40
   4   4 -15   10.40    2.80
  -4   4  15   12.10    2.10
  -3  -4  15   19.50    3.60
   3   4 -15   17.00    2.70
   3   4 -15   14.70    3.50
  -3   4  15   23.60    3.00
  -2  -4  15   99.29    9.00
   2   4 -15  102.49    9.40
  -2   4  15  123.49    8.50
   2   4 -15   93.59    8.00
  -1  -4  15   21.20    3.80
  -1   4  15   20.30    2.90
   1   4 -15   16.10    3.50
   1   4 -15   16.40    2.60
   0  -4  15   39.80    5.30
   0   4  15   39.00    4.10
   0   4 -15   43.40    5.70
   0   4 -15   37.60    3.80
   1  -4  15  116.69   10.70
  -1   4 -15  120.69   10.60
  -1   4 -15  109.09    9.10
   1   4  15  131.99    9.70
   2  -4  15   15.60    3.60
  -2   4 -15   15.60    2.50
  -2   4 -15   22.50    4.30
   2   4  15   19.90    3.40
   3  -4  15   15.10    3.80
   3   4  15   13.20    2.80
  -3   4 -15   11.40    3.30
   4  -4  15   14.10    3.40
   4   4  15   21.00    3.60
  -4   4 -15   20.40    3.90
  -3  -5  15    8.20    2.10
   3   5 -15    9.70    1.80
   3   5 -15   10.90    3.00
  -3   5  15   16.40    2.80
   2   5 -15   -2.70    1.70
   2   5 -15    2.20    1.40
  -2   5  15    1.20    1.50
  -1  -5  15   35.20    4.90
  -1   5  15   44.70    4.10
   1   5 -15   33.90    3.70
   1   5 -15   36.30    5.20
   0  -5  15   59.39    6.50
   0   5 -15   49.00    6.30
   0   5 -15   50.79    4.90
   0   5  15   66.09    5.30
   1  -5  15    3.10    2.10
  -1   5 -15    1.70    1.30
   1   5  15    4.30    1.80
  -1   5 -15    4.20    2.50
   2  -5  15   61.69    6.70
   2   5  15   59.59    5.80
  -2   5 -15   69.29    7.20
  -2   5 -15   56.59    5.30
   3  -5  15   13.30    2.80
   3   5  15   14.90    2.80
  -3   5 -15   10.90    3.40
  -2  -6  15   22.80    3.80
   2   6 -15   23.10    3.00
   2   6 -15   25.50    4.70
  -2   6  15   32.40    3.20
  -1  -6  15    4.50    2.00
   1   6 -15    7.50    2.80
   1   6 -15    7.40    1.70
  -1   6  15    9.00    1.80
   0  -6  15    5.50    3.10
   0   6  15    0.70    2.60
   0   6 -15    5.40    2.80
   0   6 -15    2.90    1.70
   1  -6  15   26.70    3.70
  -1   6 -15   33.50    5.20
  -1   6 -15   21.10    2.70
   1   6  15   20.90    3.10
   2  -6  15   20.50    3.80
  -2   6 -15   20.20    3.70
  -2   6 -15   20.90    2.60
   2   6  15   24.40    3.20
   5   0 -16   -0.80    1.50
  -5   0  16    1.80    2.00
  -4   0  16   36.80    4.60
  -4   0  16   23.60    3.60
   4   0 -16   32.90    4.30
  -3   0  16   75.79    7.40
  -3   0  16   78.19    6.60
   3   0 -16   73.89    7.30
  -2   0  16  142.89   10.90
  -2   0  16  128.89   10.00
  -2   0  16  115.89   13.20
   2   0 -16  114.39   12.50
  -1   0  16  120.49    9.80
  -1   0  16  111.39   12.30
   1   0 -16  131.19   10.40
  -1   0  16  127.79   10.40
   0   0  16  152.08   12.10
   0   0  16  145.09   11.50
   0   0 -16  159.98   12.10
   0   0  16  132.89   13.30
  -1   0 -16    7.50    2.20
   1   0  16    5.40    1.90
   1   0  16    8.90    2.60
   1   0  16    0.40    4.50
  -2   0 -16   77.49    8.00
   2   0  16   83.59    8.50
   3   0  16   33.10    4.30
   3   0  16   31.10    5.20
   4   0  16   16.30    3.10
  -4   0 -16   21.30    3.90
   4   0  16   15.90    3.80
   4  -1 -16   24.50    3.50
  -4  -1  16   23.30    4.00
  -4   1  16   16.00    3.10
  -4   1  16   18.60    2.90
   4   1 -16   14.60    3.00
  -3  -1  16   17.60    3.30
   3  -1 -16   19.30    3.50
  -3  -1  16   14.70    2.60
  -3   1  16   15.60    2.80
  -3   1  16   10.80    3.10
   3   1 -16   14.80    3.00
  -2  -1  16   95.79   10.80
  -2  -1  16  118.09    8.90
  -2  -1  16  108.59   13.10
  -2   1  16  110.19    9.50
  -1  -1  16  118.69   12.30
  -1  -1  16  121.59    9.90
  -1  -1  16  123.69   10.40
   1  -1 -16  127.29   10.20
   1   1 -16  127.79   10.50
  -1   1  16  138.59   10.60
  -1   1  16  128.59    9.90
  -1   1  16  105.29   12.30
   0  -1  16    3.80    1.70
   0  -1 -16    4.30    1.80
   0  -1  16    2.60    3.10
   0  -1  16    6.90    2.50
   0   1 -16    1.70    1.70
   0   1  16    2.30    5.90
   0   1  16    3.00    2.10
   0   1  16    2.30    1.60
  -1  -1 -16    6.10    2.10
   1  -1  16    0.80    3.40
   1  -1  16    5.10    2.00
   1  -1  16    2.50    2.00
   1   1  16    8.70    3.40
   1   1  16    5.60    2.00
   1   1  16    8.80    2.70
  -1   1 -16    4.40    2.20
  -2  -1 -16  147.29   11.50
   2  -1  16  126.89   11.60
   2  -1  16  133.39   12.10
   2   1  16  123.49   10.80
   2   1  16  135.89   11.80
  -2   1 -16  135.59   11.50
   3  -1  16    0.40    1.80
  -3  -1 -16    3.70    2.00
   3  -1  16    4.10    2.70
  -3   1 -16    6.30    2.80
   3   1  16    9.50    3.70
   3   1  16    3.40    1.90
   4  -1  16   24.50    4.70
  -4  -1 -16   31.10    4.00
  -4   1 -16   24.20    4.30
   4   1  16   20.90    4.90
   4   1  16   24.20    3.90
   4  -2 -16   36.30    5.70
  -4  -2  16   54.89    5.40
  -4   2  16   54.29    4.70
  -4   2  16   42.90    5.70
   4   2 -16   41.70    5.30
  -3  -2  16   85.09    7.80
   3  -2 -16   80.19    7.20
   3   2 -16   79.19    7.90
  -3   2  16   90.19    7.20
  -3   2  16   90.29    8.30
  -2  -2  16   26.40    4.10
   2  -2 -16   23.00    3.40
  -2   2  16   25.00    3.40
   2   2 -16   20.70    4.10
  -1  -2  16   60.59    6.50
   1  -2 -16   60.89    5.70
  -1  -2  16   54.89    5.90
   1   2 -16   61.69    7.40
  -1   2  16   72.29    7.10
  -1   2  16   74.69    6.60
   0  -2  16  110.39    9.60
   0  -2 -16  117.09    9.50
   0  -2  16  122.59   10.30
   0   2 -16  124.79   10.40
   0   2  16  113.19   11.40
   0   2  16  130.39    9.70
  -1  -2 -16    6.10    1.80
   1  -2  16    4.40    2.00
   1  -2  16    2.90    3.00
   1   2  16    1.60    2.60
   1   2  16    2.00    2.30
   2  -2  16   26.30    4.80
   2   2  16   24.50    5.10
   2   2  16   25.90    3.90
  -2   2 -16   30.70    4.60
   3  -2  16   26.70    4.80
  -3  -2 -16   27.10    3.50
   3   2  16   25.60    4.00
  -3   2 -16   25.30    4.50
   4  -2  16    3.00    2.30
   4   2  16    7.50    2.60
  -4   2 -16    3.50    2.30
  -4  -3  16    7.90    2.30
   4   3 -16    7.10    2.50
  -4   3  16    8.70    1.80
  -3  -3  16    0.90    1.80
  -3   3  16    2.90    1.70
   3   3 -16    2.60    2.30
  -2  -3  16  170.18   14.40
  -2   3  16  175.68   13.80
   2   3 -16  209.18   15.70
  -1  -3  16   69.19    6.70
   1   3 -16   56.79    6.50
  -1   3  16   77.09    6.10
   1   3 -16   59.99    6.80
   0   3 -16    0.10    1.90
   0   3  16    3.60    1.70
   1  -3  16    4.20    2.10
   1   3  16    6.70    2.10
  -1   3 -16    6.90    2.50
   2  -3  16   50.59    6.40
   2   3  16   59.19    5.80
  -2   3 -16   59.89    6.50
   3  -3  16    3.70    2.40
  -3   3 -16    8.50    2.80
   3   3  16    5.00    2.30
   4  -3  16   14.20    3.40
   4   3  16    8.50    2.50
  -3  -4  16   44.00    4.90
   3   4 -16   36.20    6.10
  -3   4  16   49.40    4.50
  -2  -4  16   29.70    4.30
  -2   4  16   31.80    3.50
   2   4 -16   19.80    3.10
   2   4 -16   21.80    4.20
   1   4 -16   38.40    4.10
  -1   4  16   52.59    4.70
   1   4 -16   47.20    5.50
   0  -4  16   82.89    8.10
   0   4  16   90.39    7.10
   0   4 -16   66.19    6.40
   0   4 -16   84.39    8.10
   1  -4  16    9.90    3.20
  -1   4 -16   13.60    3.10
   1   4  16    6.80    2.10
  -1   4 -16    5.70    1.70
   2  -4  16   28.80    4.80
   2   4  16   29.90    4.00
  -2   4 -16   31.80    4.90
   3  -4  16   47.30    6.40
  -3   4 -16   49.30    6.60
   3   4  16   49.90    6.80
   3   5 -16   10.20    2.60
   2   5 -16   56.09    6.00
  -2   5  16   52.19    6.50
   2   5 -16   44.70    4.40
  -1  -5  16   30.10    4.40
   1   5 -16   22.00    4.40
  -1   5  16   33.50    3.60
   1   5 -16   26.00    3.80
   0  -5  16   25.10    3.90
   0   5  16   16.90    3.00
   0   5 -16   20.20    3.90
   0   5 -16   18.00    2.70
   1  -5  16   31.70    5.00
  -1   5 -16   39.00    5.20
   1   5  16   37.60    4.20
   2  -5  16   19.90    4.10
  -2   5 -16   20.40    3.80
   2   5  16   22.80    3.40
  -2   5 -16   22.00    3.90
  -1  -6  16   33.00    4.10
   1   6 -16   27.80    3.20
   1   6 -16   36.90    5.10
  -1   6  16   33.00    3.50
   0  -6  16   18.10    3.40
   0   6 -16   16.10    2.60
   0   6  16   23.00    2.80
   0   6 -16   29.70    4.70
   1  -6  16    4.40    2.00
   1   6  16    5.00    1.60
  -1   6 -16    0.90    2.40
  -1   6 -16    3.60    1.40
   4   0 -17   18.10    3.40
  -4   0  17   21.90    3.80
  -4   0  17   22.10    3.40
  -3   0  17    8.30    2.00
  -3   0  17   10.00    2.70
   3   0 -17   15.70    3.00
   2   0 -17   55.49    5.80
  -2   0  17   51.59    5.70
  -2   0  17   48.10    5.10
  -1   0  17   62.19    8.30
   1   0 -17   76.49    7.20
  -1   0  17   76.89    6.70
   0   0  17   22.50    4.40
   0   0  17   16.30    7.20
   0   0 -17   26.50    5.00
  -1   0 -17   79.59    7.40
   1   0  17   77.79    8.80
   1   0  17   77.89    7.00
   2   0  17    1.60    2.40
  -2   0 -17   -1.10    1.50
   2   0  17    4.00    1.70
  -3   0 -17    4.00    2.10
   3   0  17    0.90    1.60
   3   0  17   -0.90    2.20
   4   0  17    2.00    2.10
   4   0  17    2.10    2.00
  -4   0 -17   -0.20    1.70
  -4  -1  17   31.30    5.00
   4  -1 -17   31.40    3.70
  -4   1  17   20.90    3.10
   4   1 -17   16.10    3.60
  -4   1  17   26.90    4.30
   3  -1 -17   92.69    8.00
  -3  -1  17   86.19    8.20
  -3   1  17   93.99    8.50
  -3   1  17   90.69    7.60
   3   1 -17   93.09    8.40
  -2  -1  17    6.40    2.10
   2  -1 -17    9.90    2.60
  -2  -1  17   12.90    2.90
   2   1 -17   12.80    3.00
  -2   1  17   12.60    2.70
  -2   1  17   11.80    2.30
  -1  -1  17   16.20    4.30
   1  -1 -17   29.30    4.00
  -1  -1  17   23.80    4.10
  -1   1  17   25.50    3.50
  -1   1  17   19.00    5.10
   1   1 -17   25.70    4.30
   0  -1 -17   71.89    7.00
   0  -1  17   75.49    7.50
   0  -1  17   61.09   12.70
   0  -1  17   71.59    7.10
   0   1 -17   75.29    7.20
   0   1  17   74.09    6.60
  -1  -1 -17   63.29    6.30
   1  -1  17   65.59    6.10
   1  -1  17   63.19    7.00
  -1   1 -17   62.79    6.70
   1   1  17   69.09    6.20
   1   1  17   61.79    8.70
   2  -1  17   31.50    5.00
  -2  -1 -17   33.20    4.20
   2  -1  17   24.20    3.80
   2   1  17   37.30    5.30
  -2   1 -17   32.80    4.70
   2   1  17   32.30    4.10
  -3  -1 -17   14.00    2.70
   3  -1  17   11.80    3.10
   3  -1  17   13.90    2.80
   3   1  17    9.80    2.60
  -3   1 -17   14.90    3.20
   3   1  17    8.50    3.40
   4  -1  17    9.90    2.80
  -4  -1 -17    6.30    2.00
   4   1  17    1.90    3.10
  -4   1 -17    9.70    2.50
   4   1  17    6.80    2.10
  -4  -2  17   16.50    3.00
   4  -2 -17   15.60    2.60
  -4   2  17   19.60    3.50
  -4   2  17   19.60    2.70
   4   2 -17   18.80    3.60
   3  -2 -17    2.80    1.60
  -3  -2  17    3.80    2.40
  -3   2  17    3.20    2.90
  -3   2  17    2.60    1.50
   3   2 -17    1.80    2.00
  -2  -2  17  102.39    9.00
   2  -2 -17  101.49    8.20
  -2   2  17   97.39    9.00
  -2   2  17  106.19    8.40
   2   2 -17   97.89    9.10
   1  -2 -17   69.19    6.00
  -1  -2  17   66.69    6.80
  -1   2  17   73.79    6.20
  -1   2  17   62.49    7.00
   1   2 -17   69.39    7.10
   0  -2 -17   19.50    2.90
   0   2  17   18.50    3.20
   0   2 -17   23.80    4.20
  -1  -2 -17  107.79    9.10
   1  -2  17  129.59   11.90
   1  -2  17  141.89   11.80
  -1   2 -17  116.09   10.20
   1   2  17  100.49   11.30
   1   2  17  110.49    9.50
  -2  -2 -17    6.20    1.90
   2  -2  17    6.60    2.40
  -2   2 -17    7.70    2.30
   2   2  17    6.80    2.20
   3  -2  17    7.50    2.90
   3   2  17    2.50    2.00
  -3   2 -17    7.10    2.60
   4  -2  17    3.90    2.40
   4   2  17    1.80    1.80
  -4   2 -17    2.50    1.90
  -3  -3  17   49.60    5.40
  -3   3  17   52.79    5.00
  -2  -3  17   10.60    2.80
  -2   3  17    9.80    2.20
   2   3 -17    9.50    2.90
  -1  -3  17    4.50    2.00
   1   3 -17    4.40    2.00
  -1   3  17    4.40    1.80
   0  -3  17   97.99    9.30
   0   3  17  101.39    8.40
   0   3 -17  100.99    9.20
   1  -3  17    8.40    2.60
  -1   3 -17    9.40    2.60
   1   3  17    9.10    2.20
   2  -3  17   30.70    5.40
   2   3  17   43.80    4.70
   3  -3  17   21.60    4.40
  -3   3 -17   31.60    5.00
   3   3  17   29.80    4.30
  -3  -4  17    0.40    1.80
   3   4 -17    4.40    2.20
  -3   4  17    3.10    1.50
  -2  -4  17   27.20    4.10
   2   4 -17   28.60    4.50
  -2   4  17   29.40    3.60
   1   4 -17   26.40    4.40
  -1   4  17   26.90    3.60
   0  -4  17    0.60    1.90
   0   4 -17    1.40    1.80
   0   4  17    0.80    1.70
   1  -4  17   27.70    4.50
   1   4  17   25.40    3.80
  -1   4 -17   28.00    4.70
   2  -4  17    9.10    2.80
  -2   4 -17    5.70    2.30
   2   4  17    3.40    2.10
   3  -4  17    7.90    2.60
   3   4  17    5.60    2.10
  -3   4 -17    9.30    2.40
  -2  -5  17    1.50    1.70
  -2   5  17    5.70    1.80
   2   5 -17    1.10    1.90
  -1  -5  17    4.90    2.00
   1   5 -17    0.80    2.00
   1   5 -17    0.60    1.90
  -1   5  17    3.90    1.60
   0  -5  17   57.89    7.00
   0   5 -17   33.60    4.30
   0   5  17   44.00    4.50
   0   5 -17   46.80    5.30
   1  -5  17    5.20    2.20
   1   5  17    7.80    2.00
  -1   5 -17    5.40    2.30
   2  -5  17    3.40    1.80
  -2   5 -17    6.30    2.50
  -4   0  18   11.50    2.50
   4   0 -18   10.90    2.50
  -3   0  18   73.39    7.20
   3   0 -18   88.39    7.20
  -3   0  18   62.59    7.90
   2   0 -18   17.00    3.20
  -2   0  18   17.70    3.00
  -2   0  18   19.30    3.30
  -1   0  18   22.20    3.30
  -1   0  18   20.20    3.50
   1   0 -18   25.40    4.20
   0   0  18  116.79    9.90
   0   0 -18  127.29   10.40
   1   0  18   -1.20    1.50
  -1   0 -18    0.10    1.80
   1   0  18    1.30    2.10
  -2   0 -18    3.30    2.00
   2   0  18    0.70    1.90
   2   0  18    1.60    1.80
  -3   0 -18    6.60    2.20
   3   0  18   10.30    3.80
   3  -1 -18    2.30    1.80
  -3  -1  18    2.10    1.80
  -3   1  18   -2.50    1.50
   3   1 -18    1.00    1.90
  -3   1  18    0.30    2.00
  -2  -1  18   36.10    4.90
  -2  -1  18   50.39    5.40
   2  -1 -18   52.39    5.20
   2   1 -18   53.19    5.80
  -2   1  18   43.00    4.80
  -2   1  18   54.99    5.50
   1  -1 -18   77.59    6.90
  -1  -1  18   84.19    7.70
  -1  -1  18   58.79    6.40
  -1   1  18   74.59    7.40
   1   1 -18   74.99    7.40
  -1   1  18   75.49    6.60
   0  -1  18    1.60    1.70
   0  -1 -18   -0.20    1.70
   0   1 -18    2.40    2.10
   0   1  18    1.80    1.70
   1  -1  18   10.70    2.80
   1  -1  18    8.80    2.20
  -1  -1 -18   10.00    2.40
   1   1  18   19.30    4.10
  -1   1 -18   10.30    2.80
   1   1  18    8.40    2.50
  -2  -1 -18   51.79    5.00
   2  -1  18   32.70    4.70
   2  -1  18   49.20    5.90
   2   1  18   43.30    4.90
  -2   1 -18   45.50    5.50
   2   1  18   41.10    6.30
  -3  -1 -18    6.50    1.90
   3  -1  18    3.60    2.30
   3   1  18   -0.20    2.80
   3   1  18    1.30    2.80
  -3   1 -18    3.10    1.90
   3   2 -18   37.60    6.70
  -3   2  18   52.09    5.10
   2  -2 -18   28.30    3.70
  -2  -2  18   32.10    4.40
  -2   2  18   37.70    4.00
  -2   2  18   28.70    7.30
   2   2 -18   38.60    4.90
   1  -2 -18   22.10    3.10
  -1  -2  18   23.20    4.40
   1   2 -18   20.30    3.80
  -1   2  18   24.10    3.40
   0  -2 -18   40.00    4.30
   0  -2  18   48.80    5.90
   0   2 -18   49.90    5.60
   0   2  18   44.30    4.90
   1  -2  18   24.20    4.30
  -1   2 -18   14.20    3.20
   1   2  18   19.20    3.40
   2  -2  18   -1.40    1.80
   2   2  18    2.30    1.80
  -2   2 -18    0.30    1.90
   3  -2  18   13.00    3.30
  -3   2 -18   16.00    3.10
   3   2  18   19.30    3.30
  -3  -3  18    1.80    1.80
  -3   3  18    2.20    1.50
   3   3 -18    0.20    1.90
  -2  -3  18   35.20    4.70
   2   3 -18   37.90    5.00
  -2   3  18   36.00    4.10
  -1   3  18   72.09    6.60
   1   3 -18   73.29    7.40
   0  -3  18    4.40    2.30
   0   3  18    4.20    2.00
   0   3 -18    6.30    2.60
   1  -3  18   21.30    3.90
  -1   3 -18   14.30    3.20
   1   3  18   14.10    2.70
   2  -3  18   32.60    5.00
   2   3  18   31.00    4.10
  -2   3 -18   30.40    4.60
   3  -3  18    0.60    1.90
  -3   3 -18    4.00    1.80
   3   3  18    4.40    2.00
   2   4 -18   11.60    2.90
  -2   4  18   15.40    2.80
  -1  -4  18   21.20    4.30
  -1   4  18   21.60    4.30
   1   4 -18   22.20    4.30
   0  -4  18    8.60    2.60
   0   4  18   12.10    2.40
   0   4 -18   10.10    3.10
   1   4  18   13.70    3.80
  -1   4 -18   11.20    2.80
   2  -4  18    2.40    2.20
   2   4  18    4.30    1.80
  -2   4 -18    2.00    2.10
  -3   0  19    2.20    2.30
  -3   0  19    3.80    1.90
   3   0 -19    3.60    1.80
   2   0 -19   35.10    4.40
  -2   0  19   24.70    4.00
  -2   0  19   22.20    4.30
  -1   0  19   60.99    6.00
  -1   0  19   67.69    6.90
   1   0 -19   75.09    6.80
   0   0  19    1.60    1.70
   0   0  19   -2.20    2.10
   0   0 -19    0.90    1.80
   1   0  19   28.40    4.60
   1   0  19   18.20    3.30
  -1   0 -19   22.70    3.90
   2   0  19   21.30    4.80
   2   0  19   33.10    7.00
  -2   0 -19   34.20    4.30
   3   0  19   -0.60    1.90
  -3   0 -19   -1.30    1.50
   3   0  19    1.40    2.00
   3  -1 -19   30.10    3.80
  -3  -1  19   41.80    5.00
  -3   1  19   28.60    4.40
   3   1 -19   27.00    4.10
  -3   1  19   31.20    3.70
   2  -1 -19   15.80    3.20
  -2  -1  19   21.70    3.70
  -2   1  19   23.60    3.30
  -2   1  19   22.60    4.30
   2   1 -19   29.70    4.30
   1  -1 -19    2.80    1.80
  -1  -1  19    2.60    2.10
  -1  -1  19   -0.10    1.90
   1   1 -19    2.00    2.10
  -1   1  19    1.70    2.30
  -1   1  19    0.10    1.50
   0  -1  19   48.80    5.30
   0  -1  19   59.29    6.50
   0  -1 -19   57.09    5.60
   0   1 -19   63.79    6.20
   0   1  19   56.79    6.90
   0   1  19   49.50    5.40
  -1  -1 -19   35.60    4.00
   1  -1  19   27.50    4.40
   1  -1  19   34.90    5.20
  -1   1 -19   37.00    4.90
   1   1  19   31.40    4.10
   1   1  19   29.80    4.70
  -2  -1 -19   19.20    3.00
   2  -1  19   19.60    4.80
   2  -1  19   13.50    3.60
  -2   1 -19   25.60    4.00
   2   1  19   28.60    4.50
   2   1  19   12.80    3.70
   3  -1  19   17.20    3.60
  -3   1 -19   19.80    3.50
   3   1  19   11.80    2.50
   3   1  19   17.90    5.40
   3   2 -19    2.30    2.10
  -2  -2  19   17.40    4.70
   2   2 -19   18.20    3.70
  -2   2  19   24.80    4.30
  -1   2  19   39.30    4.30
   1   2 -19   37.20    5.10
   0  -2  19    3.50    2.10
   0   2 -19    2.50    2.20
   0   2  19    4.00    2.00
   1  -2  19   22.80    4.20
  -1   2 -19   20.90    4.00
   1   2  19   17.50    3.30
   2  -2  19   23.40    4.40
  -2   2 -19   20.40    4.00
   2   2  19   28.40    3.60
  -2  -3  19   17.00    3.10
   2   3 -19    9.80    2.70
  -2   3  19   10.50    2.20
  -1  -3  19   -1.90    2.40
   1   3 -19   -0.80    2.50
  -1   3  19   -2.40    2.40
   0  -3  19   23.00    4.40
   0   3  19   21.90    3.60
   0   3 -19   22.80    4.20
   1  -3  19    7.50    2.50
  -1   3 -19   11.80    2.90
   1   3  19    9.00    2.70
   2  -3  19    6.30    2.40
   2   3  19    6.50    2.20
  -2   3 -19    6.30    2.40
   1   4 -19   15.40    3.10
   0  -4  19   25.30    3.90
   0   4  19   27.30    3.60
   0   4 -19   23.90    4.00
  -2   0  20   -4.30    2.10
   2   0 -20    2.60    1.80
  -2   0  20    3.20    2.20
  -1   0  20   -2.20    1.50
   0   0  20    7.80    2.20
   0   0  20    7.20    2.80
   0   0 -20    9.10    2.50
  -1   0 -20   24.00    3.80
   1   0  20   12.50    3.20
   1   0  20   17.30    3.10
  -2   0 -20   -2.80    1.60
   2   0  20    0.80    1.80
   2   0  20    2.70    2.60
  -2  -1  20   19.60    3.80
   2  -1 -20   25.80    3.40
   2   1 -20   24.70    3.90
  -2   1  20   22.50    3.20
  -2   1  20   23.70    4.60
   1  -1 -20   34.90    4.00
  -1   1  20   34.40    4.00
   1   1 -20   21.60    5.00
   0  -1  20    4.50    2.60
   0  -1 -20    8.00    2.00
   0   1 -20    5.20    2.40
   0   1  20    5.70    3.60
   0   1  20    7.60    2.50
   1  -1  20    6.50    2.30
  -1  -1 -20    6.70    1.90
   1   1  20    0.00    3.00
   1   1  20    0.70    1.50
  -1   1 -20    0.50    2.00
   2  -1  20    9.00    2.40
   2   1  20    8.80    5.00
  -2   1 -20   12.70    2.70
   2   1  20    7.20    2.10
   1   2 -20    2.50    1.90
  -1   2  20   -0.60    1.70
   0  -2  20   34.50    4.80
   0   2 -20   34.60    4.70
   0   2  20   32.30    4.00
   1  -2  20   12.00    3.30
  -1   2 -20   14.20    2.90
   1   2  20   16.90    3.00
   0  -3  20    2.50    1.90
   0   3 -20    2.20    1.70
   0   0  21    8.50    2.80
   0   0 -21    6.50    2.20
   0  -1  21   18.80    3.50
   0   1  21   19.80    6.40
   0   1 -21   20.40    3.50
   0   0   0    0.00    0.00


_computing_structure_solution     'SHELXT 2014/5 (Sheldrick, 2014)'
_computing_structure_solution     'SHELXT 2014/5 (Sheldrick, 2014)'
;
_shelx_hkl_checksum              1939
_olex2_submission_special_instructions 'No special instructions were received'
loop_
_space_group_symop_operation_xyz
'x, y, z'
'-x, y+1/2, -z'
loop_
_atom_site_label
_atom_site_type_symbol
_atom_site_fract_x
_atom_site_fract_y
_atom_site_fract_z
_atom_site_U_iso_or_equiv
_atom_site_adp_type
_atom_site_occupancy
_atom_site_site_symmetry_order
_atom_site_calc_flag
_atom_site_refinement_flags_posn
Br1 Br 1.16701(8) 0.30688(8) 0.22179(3) 0.0709(2) Uani 1 1 d .
F1 F 0.5730(5) 0.5521(7) 0.8969(3) 0.1197(17) Uani 1 1 d .
F2 F 0.3984(6) 0.7814(7) 0.9175(2) 0.1056(13) Uani 1 1 d .
F3 F 0.4224(6) 0.5920(7) 1.0045(3) 0.1098(15) Uani 1 1 d .
O1 O 0.3687(4) 0.2950(6) 0.74206(15) 0.0514(6) Uani 1 1 d .
O2 O 0.2181(5) 0.5497(5) 0.90130(19) 0.0606(8) Uani 1 1 d .
C1 C 0.3977(9) 0.6137(9) 0.9278(3) 0.0718(14) Uani 1 1 d .
C2 C 0.0842(8) 0.3004(13) 0.9699(3) 0.0796(14) Uani 1 1 d .
H2A H 0.164535 0.338679 1.015766 0.119 Uiso 1 1 calc GR
H2B H 0.077319 0.174648 0.969360 0.119 Uiso 1 1 calc GR
H2C H -0.061547 0.347400 0.971088 0.119 Uiso 1 1 calc GR
C3 C 0.1957(7) 0.3628(7) 0.8979(3) 0.0600(13) Uani 1 1 d .
H3 H 0.340675 0.308598 0.894683 0.072 Uiso 1 1 calc R
C4 C 0.0705(6) 0.3274(9) 0.8250(3) 0.0611(12) Uani 1 1 d .
H4A H 0.046539 0.201972 0.821048 0.073 Uiso 1 1 calc R
H4B H -0.071853 0.382703 0.829154 0.073 Uiso 1 1 calc R
C5 C 0.1718(7) 0.3872(7) 0.7523(3) 0.0564(11) Uani 1 1 d .
H5A H 0.073821 0.366335 0.707840 0.068 Uiso 1 1 calc R
H5B H 0.200954 0.512033 0.755426 0.068 Uiso 1 1 calc R
C6 C 0.4726(5) 0.3135(8) 0.6739(2) 0.0440(8) Uani 1 1 d .
C7 C 0.4041(6) 0.4203(6) 0.6136(3) 0.0485(10) Uani 1 1 d .
H7 H 0.279760 0.489488 0.619094 0.058 Uiso 1 1 calc R
C8 C 0.5185(7) 0.4242(6) 0.5463(2) 0.0482(10) Uani 1 1 d .
H8 H 0.469358 0.496749 0.505696 0.058 Uiso 1 1 calc R
C9 C 0.7033(5) 0.3268(6) 0.5347(2) 0.0405(8) Uani 1 1 d .
C10 C 0.7708(6) 0.2242(6) 0.5966(2) 0.0461(9) Uani 1 1 d .
H10 H 0.896720 0.156642 0.591663 0.055 Uiso 1 1 calc R
C11 C 0.6585(6) 0.2189(6) 0.6649(3) 0.0490(10) Uani 1 1 d .
H11 H 0.709617 0.149293 0.706314 0.059 Uiso 1 1 calc R
C12 C 0.8165(5) 0.3257(7) 0.4604(2) 0.0429(8) Uani 1 1 d .
C13 C 0.7221(6) 0.3928(6) 0.3928(3) 0.0505(10) Uani 1 1 d .
H13 H 0.583344 0.442731 0.395380 0.061 Uiso 1 1 calc R
C14 C 0.8241(7) 0.3886(7) 0.3228(3) 0.0560(11) Uani 1 1 d .
H14 H 0.755568 0.435027 0.278142 0.067 Uiso 1 1 calc R
C15 C 1.0256(6) 0.3171(8) 0.3174(2) 0.0521(9) Uani 1 1 d .
C16 C 1.1255(7) 0.2502(6) 0.3827(3) 0.0549(11) Uani 1 1 d .
H16 H 1.264093 0.200372 0.379293 0.066 Uiso 1 1 calc R
C17 C 1.0230(6) 0.2564(6) 0.4528(3) 0.0500(11) Uani 1 1 d .
H17 H 1.094446 0.212208 0.497313 0.060 Uiso 1 1 calc R
loop_
_atom_site_aniso_label
_atom_site_aniso_U_11
_atom_site_aniso_U_22
_atom_site_aniso_U_33
_atom_site_aniso_U_23
_atom_site_aniso_U_13
_atom_site_aniso_U_12
Br1 0.0815(3) 0.0613(4) 0.0704(3) -0.0151(3) 0.0123(2) -0.0134(3)
F1 0.068(2) 0.114(4) 0.177(4) -0.039(3) 0.047(2) -0.019(2)
F2 0.122(3) 0.074(3) 0.122(3) -0.012(3) 0.006(2) -0.028(3)
F3 0.110(3) 0.129(4) 0.090(2) -0.003(2) -0.019(2) -0.022(3)
O1 0.0489(13) 0.0408(18) 0.0645(14) 0.0029(19) 0.0007(11) 0.0051(17)
O2 0.0614(18) 0.053(2) 0.068(2) -0.0017(16) -0.0008(15) 0.0002(15)
C1 0.070(3) 0.066(4) 0.079(3) -0.007(3) 0.016(3) -0.009(3)
C2 0.076(3) 0.074(4) 0.089(3) 0.013(5) 0.019(2) 0.002(4)
C3 0.056(2) 0.050(3) 0.075(3) 0.007(2) 0.005(2) 0.0013(19)
C4 0.0457(19) 0.052(3) 0.086(3) -0.001(3) 0.0054(18) -0.001(2)
C5 0.046(2) 0.051(3) 0.072(3) -0.008(2) -0.0059(19) 0.0081(19)
C6 0.0421(16) 0.0289(19) 0.0607(19) -0.002(3) -0.0086(14) 0.000(2)
C7 0.044(2) 0.036(2) 0.065(3) 0.002(2) -0.0044(18) 0.0073(17)
C8 0.048(2) 0.033(2) 0.063(2) 0.0028(19) -0.0116(18) 0.0095(18)
C9 0.0345(15) 0.024(2) 0.0628(19) -0.002(2) -0.0103(13) -0.0022(17)
C10 0.0386(19) 0.034(2) 0.065(2) -0.0010(19) -0.0112(17) 0.0093(16)
C11 0.044(2) 0.039(3) 0.063(2) 0.0053(19) -0.0117(18) 0.0065(17)
C12 0.0433(16) 0.024(2) 0.0608(19) -0.002(2) -0.0112(14) -0.0028(18)
C13 0.043(2) 0.045(3) 0.063(3) 0.005(2) -0.0069(18) 0.0016(17)
C14 0.057(2) 0.047(3) 0.063(3) 0.001(2) -0.011(2) -0.004(2)
C15 0.059(2) 0.035(2) 0.062(2) -0.007(3) -0.0026(17) -0.009(3)
C16 0.047(2) 0.039(3) 0.079(3) -0.008(2) -0.0028(19) 0.0020(17)
C17 0.044(2) 0.039(3) 0.067(2) -0.0006(18) -0.0072(17) 0.0023(16)
loop_
_atom_type_symbol
_atom_type_description
_atom_type_scat_dispersion_real
_atom_type_scat_dispersion_imag
_atom_type_scat_source
C C 0.0148 0.0070 'International Tables Vol C Tables 4.2.6.8 and 6.1.1.4'
H H 0.0000 0.0000 'International Tables Vol C Tables 4.2.6.8 and 6.1.1.4'
Br Br -0.9502 1.0410 'International Tables Vol C Tables 4.2.6.8 and 6.1.1.4'
F F 0.0599 0.0411 'International Tables Vol C Tables 4.2.6.8 and 6.1.1.4'
O O 0.0412 0.0250 'International Tables Vol C Tables 4.2.6.8 and 6.1.1.4'
loop_
_geom_angle_atom_site_label_1
_geom_angle_atom_site_label_2
_geom_angle_atom_site_label_3
_geom_angle
C6 O1 C5 118.1(4)
C1 O2 C3 118.4(4)
F1 C1 F2 107.6(5)
F1 C1 F3 105.7(5)
F2 C1 F3 104.9(5)
O2 C1 F1 115.7(5)
O2 C1 F2 109.6(5)
O2 C1 F3 112.7(5)
H2A C2 H2B 109.5
H2A C2 H2C 109.5
H2B C2 H2C 109.5
C3 C2 H2A 109.5
C3 C2 H2B 109.5
C3 C2 H2C 109.5
O2 C3 C2 109.3(5)
O2 C3 H3 109.6
O2 C3 C4 105.4(4)
C2 C3 H3 109.6
C4 C3 C2 113.2(4)
C4 C3 H3 109.6
C3 C4 H4A 108.4
C3 C4 H4B 108.4
H4A C4 H4B 107.5
C5 C4 C3 115.5(4)
C5 C4 H4A 108.4
C5 C4 H4B 108.4
O1 C5 C4 108.7(4)
O1 C5 H5A 109.9
O1 C5 H5B 109.9
C4 C5 H5A 109.9
C4 C5 H5B 109.9
H5A C5 H5B 108.3
O1 C6 C7 124.5(4)
O1 C6 C11 116.7(4)
C11 C6 C7 118.8(4)
C6 C7 H7 120.4
C8 C7 C6 119.3(4)
C8 C7 H7 120.4
C7 C8 H8 118.4
C7 C8 C9 123.3(4)
C9 C8 H8 118.4
C8 C9 C10 116.2(4)
C8 C9 C12 122.3(4)
C10 C9 C12 121.5(4)
C9 C10 H10 119.3
C11 C10 C9 121.5(4)
C11 C10 H10 119.3
C6 C11 H11 119.5
C10 C11 C6 120.9(4)
C10 C11 H11 119.5
C13 C12 C9 121.6(3)
C17 C12 C9 122.3(3)
C17 C12 C13 116.0(4)
C12 C13 H13 118.9
C14 C13 C12 122.1(4)
C14 C13 H13 118.9
C13 C14 H14 119.9
C13 C14 C15 120.2(4)
C15 C14 H14 119.9
C14 C15 Br1 120.9(3)
C14 C15 C16 119.7(4)
C16 C15 Br1 119.3(3)
C15 C16 H16 120.1
C17 C16 C15 119.8(4)
C17 C16 H16 120.1
C12 C17 H17 118.9
C16 C17 C12 122.2(4)
C16 C17 H17 118.9
loop_
_geom_bond_atom_site_label_1
_geom_bond_atom_site_label_2
_geom_bond_distance
Br1 C15 1.886(4)
F1 C1 1.313(7)
F2 C1 1.319(8)
F3 C1 1.345(7)
O1 C5 1.436(5)
O1 C6 1.361(4)
O2 C1 1.303(6)
O2 C3 1.463(6)
C2 H2A 0.9800
C2 H2B 0.9800
C2 H2C 0.9800
C2 C3 1.515(7)
C3 H3 1.0000
C3 C4 1.501(7)
C4 H4A 0.9900
C4 H4B 0.9900
C4 C5 1.490(7)
C5 H5A 0.9900
C5 H5B 0.9900
C6 C7 1.396(6)
C6 C11 1.384(6)
C7 H7 0.9500
C7 C8 1.374(6)
C8 H8 0.9500
C8 C9 1.396(6)
C9 C10 1.397(6)
C9 C12 1.475(5)
C10 H10 0.9500
C10 C11 1.383(6)
C11 H11 0.9500
C12 C13 1.405(6)
C12 C17 1.404(6)
C13 H13 0.9500
C13 C14 1.376(7)
C14 H14 0.9500
C14 C15 1.379(6)
C15 C16 1.386(7)
C16 H16 0.9500
C16 C17 1.379(7)
C17 H17 0.9500
