#------------------------------------------------------------------------------
#$Date: 2019-11-24 08:32:17 +0200 (Sun, 24 Nov 2019) $
#$Revision: 237313 $
#$URL: file:///home/coder/svn-repositories/cod/cif/1/55/45/1554529.cif $
#------------------------------------------------------------------------------
#
# This file is available in the Crystallography Open Database (COD),
# http://www.crystallography.net/
#
# All data on this site have been placed in the public domain by the
# contributors.
#
data_1554529
loop_
_publ_author_name
'Palysaeva, Nadezhda V.'
'Gladyshkin, Aleksei G.'
'Vatsadze, Irina A.'
'Suponitsky, Kyrill Yu.'
'Dmitriev, Dmitry E.'
'Sheremetev, Aleksei B.'
_publ_section_title
;
 N-(2-Fluoro-2,2-dinitroethyl)azoles: a novel assembly of diverse
 explosophoric building blocks for energetic compound design
;
_journal_issue                   2
_journal_name_full               'Organic Chemistry Frontiers'
_journal_page_first              249
_journal_paper_doi               10.1039/C8QO01173G
_journal_volume                  6
_journal_year                    2019
_chemical_absolute_configuration unk
_chemical_formula_moiety         'C5 H4 F N5 O6'
_chemical_formula_sum            'C5 H4 F N5 O6'
_chemical_formula_weight         249.13
_space_group_crystal_system      monoclinic
_space_group_IT_number           4
_space_group_name_Hall           'P 2yb'
_space_group_name_H-M_alt        'P 1 21 1'
_atom_sites_solution_hydrogens   geom
_atom_sites_solution_primary     direct
_atom_sites_solution_secondary   difmap
_audit_creation_method           SHELXL-2014/6
_audit_update_record
;
2018-10-20 deposited with the CCDC.
2018-12-03 downloaded from the CCDC.
;
_cell_angle_alpha                90
_cell_angle_beta                 94.857(4)
_cell_angle_gamma                90
_cell_formula_units_Z            2
_cell_length_a                   5.4659(12)
_cell_length_b                   10.477(2)
_cell_length_c                   8.1322(17)
_cell_measurement_reflns_used    817
_cell_measurement_temperature    100(2)
_cell_measurement_theta_max      24.02
_cell_measurement_theta_min      2.51
_cell_volume                     464.03(17)
_computing_cell_refinement       'SAINT (Bruker, 2013)'
_computing_data_collection       'APEX (Bruker, 2013)'
_computing_data_reduction        'SAINT (Bruker, 2013)'
_computing_molecular_graphics    'SHELXL-2014/6 (Sheldrick, 2014)'
_computing_publication_material
'SHELXL-2014/6 (Sheldrick, 2014) and PLATON (Spek, 2009)'
_computing_structure_refinement  'SHELXL-2014/6 (Sheldrick, 2014)'
_computing_structure_solution    'SHELXL-2014/6 (Sheldrick, 2014)'
_diffrn_ambient_temperature      100(2)
_diffrn_measured_fraction_theta_full 1.000
_diffrn_measured_fraction_theta_max 1.000
_diffrn_measurement_device_type  'Bruker APEX-II CCD'
_diffrn_measurement_method       '\f and \w scans'
_diffrn_radiation_type           MoK\a
_diffrn_radiation_wavelength     0.71073
_diffrn_reflns_av_R_equivalents  0.0603
_diffrn_reflns_av_unetI/netI     0.0818
_diffrn_reflns_Laue_measured_fraction_full 1.000
_diffrn_reflns_Laue_measured_fraction_max 1.000
_diffrn_reflns_limit_h_max       7
_diffrn_reflns_limit_h_min       -7
_diffrn_reflns_limit_k_max       13
_diffrn_reflns_limit_k_min       -13
_diffrn_reflns_limit_l_max       10
_diffrn_reflns_limit_l_min       -10
_diffrn_reflns_number            4928
_diffrn_reflns_point_group_measured_fraction_full 1.000
_diffrn_reflns_point_group_measured_fraction_max 0.998
_diffrn_reflns_theta_full        25.242
_diffrn_reflns_theta_max         27.148
_diffrn_reflns_theta_min         2.514
_diffrn_source                   'sealed tube'
_exptl_absorpt_coefficient_mu    0.174
_exptl_absorpt_correction_type   none
_exptl_crystal_colour            colorless
_exptl_crystal_density_diffrn    1.783
_exptl_crystal_description       needle
_exptl_crystal_F_000             252
_exptl_crystal_size_max          0.14
_exptl_crystal_size_mid          0.03
_exptl_crystal_size_min          0.01
_refine_diff_density_max         0.218
_refine_diff_density_min         -0.223
_refine_diff_density_rms         0.054
_refine_ls_abs_structure_details
;
 Flack x determined using 556 quotients [(I+)-(I-)]/[(I+)+(I-)]
 (Parsons, Flack and Wagner, Acta Cryst. B69 (2013) 249-259).
;
_refine_ls_abs_structure_Flack   0.5(10)
_refine_ls_extinction_method     none
_refine_ls_goodness_of_fit_ref   0.987
_refine_ls_hydrogen_treatment    constr
_refine_ls_matrix_type           full
_refine_ls_number_parameters     154
_refine_ls_number_reflns         2039
_refine_ls_number_restraints     1
_refine_ls_restrained_S_all      0.987
_refine_ls_R_factor_all          0.0763
_refine_ls_R_factor_gt           0.0431
_refine_ls_shift/su_max          0.000
_refine_ls_shift/su_mean         0.000
_refine_ls_structure_factor_coef Fsqd
_refine_ls_weighting_details
'w=1/[\s^2^(Fo^2^)+(0.0235P)^2^] where P=(Fo^2^+2Fc^2^)/3'
_refine_ls_weighting_scheme      calc
_refine_ls_wR_factor_gt          0.0688
_refine_ls_wR_factor_ref         0.0781
_reflns_Friedel_coverage         0.890
_reflns_Friedel_fraction_full    1.000
_reflns_Friedel_fraction_max     0.995
_reflns_number_gt                1475
_reflns_number_total             2039
_reflns_threshold_expression     'I > 2\s(I)'
_cod_data_source_file            c8qo01173g2.cif
_cod_data_source_block           comp13
_cod_depositor_comments
;
The following automatic conversions were performed:

data item '_chemical_absolute_configuration' value 'Unk' was changed
to 'unk' in accordance with the
/home/saulius/struct/COD-crude-data/automatic-downloads/DataCite-retrospective/RSC/depositions/lib/dictionaries/cif_core.dic
dictionary named 'cif_core.dic' version 2.4.2 last updated on
2011-04-26.

Automatic conversion script
Id: cif_fix_values 6909 2019-04-08 15:41:33Z antanas 
;
_cod_original_cell_volume        464.02(17)
_cod_original_sg_symbol_H-M      'P 21'
_cod_database_code               1554529
_shelx_space_group_comment
;
The symmetry employed for this shelxl refinement is uniquely defined
by the following loop, which should always be used as a source of
symmetry information in preference to the above space-group names.
They are only intended as comments.
;
_shelxl_version_number           2014/6
_shelx_res_file
;
TITL sh365 in P2(1)
CELL 0.71073 5.4659 10.4769 8.1322 90 94.857 90
ZERR 2 0.0012 0.0022 0.0017 0 0.004 0
LATT -1
SYMM -X,0.5+Y,-Z
SFAC C H F N O
UNIT 10 8 2 10 12
TEMP -173.00

ACTA
CONF
HTAB

L.S. 8
BOND $H
fmap 2
PLAN 10

WGHT    0.023500
FVAR       0.53395
F1    3   -0.105819   -0.838668   -0.934973    11.00000    0.02367    0.01737 =
         0.02555   -0.00148   -0.00036    0.00388
O1    5   -0.639601   -0.670578   -0.939406    11.00000    0.01999    0.02797 =
         0.03809   -0.00363    0.00346    0.00354
O2    5   -0.539072   -0.863919   -0.861422    11.00000    0.03556    0.02709 =
         0.03267    0.00882    0.00385   -0.01085
O3    5   -0.117027   -0.526149   -0.881547    11.00000    0.03072    0.01418 =
         0.02819    0.00047   -0.00241   -0.00204
O4    5   -0.107643   -0.673711   -0.693204    11.00000    0.03884    0.02775 =
         0.01758   -0.00110   -0.00358   -0.00312
O5    5    0.049818   -0.976354   -1.618188    11.00000    0.02418    0.03478 =
         0.02322   -0.00403    0.00376    0.00389
O6    5   -0.291926   -1.084547   -1.631527    11.00000    0.03152    0.02306 =
         0.03320   -0.00987   -0.01013    0.00203
N1    4   -0.270075   -0.781597   -1.255343    11.00000    0.01812    0.01574 =
         0.01777   -0.00120    0.00099   -0.00156
N2    4   -0.487678   -0.847085   -1.260587    11.00000    0.01681    0.02085 =
         0.02521   -0.00053    0.00192   -0.00556
N3    4   -0.497136   -0.761293   -0.918128    11.00000    0.02051    0.02243 =
         0.01806   -0.00314    0.00147   -0.00350
N4    4   -0.142445   -0.634788   -0.833297    11.00000    0.01596    0.01951 =
         0.01659   -0.00330    0.00028   -0.00015
N5    4   -0.157104   -0.997283   -1.573867    11.00000    0.03158    0.02059 =
         0.01689   -0.00104   -0.00782    0.00328
C1    1   -0.469033   -0.931831   -1.379211    11.00000    0.01763    0.01933 =
         0.02601   -0.00259    0.00023   -0.00159
AFIX  43
H1    2   -0.592315   -0.992340   -1.413667    11.00000   -1.20000
AFIX   0
C2    1   -0.244293   -0.920535   -1.446980    11.00000    0.02122    0.01610 =
         0.01868   -0.00202   -0.00356    0.00194
C3    1   -0.119051   -0.823131   -1.363624    11.00000    0.01635    0.01901 =
         0.01598    0.00255    0.00127    0.00268
AFIX  43
H3    2    0.040537   -0.792240   -1.379838    11.00000   -1.20000
AFIX   0
C4    1   -0.225696   -0.679764   -1.135895    11.00000    0.02025    0.01427 =
         0.02023   -0.00437    0.00145    0.00037
AFIX  23
H4A   2   -0.351963   -0.612527   -1.155954    11.00000   -1.20000
H4B   2   -0.062802   -0.641072   -1.147462    11.00000   -1.20000
AFIX   0
C5    1   -0.234512   -0.732861   -0.964106    11.00000    0.01633    0.01162 =
         0.02295   -0.00237    0.00000    0.00331

HKLF 4

REM  sh365 in P2(1)
REM R1 =  0.0431 for    1475 Fo > 4sig(Fo)  and  0.0763 for all    2039 data
REM    154 parameters refined using      1 restraints

END

WGHT      0.0235      0.0000

REM Instructions for potential hydrogen bonds
EQIV $1 x-1, y, z
HTAB C1 O5_$1
EQIV $2 -x, y+1/2, -z-3
HTAB C3 O6_$2
EQIV $3 -x-1, y+1/2, -z-3
HTAB C4 O6_$3
HTAB C4 O5_$2

REM Highest difference peak  0.218,  deepest hole -0.223,  1-sigma level  0.054
Q1    1  -0.5544 -0.6860 -0.8356  11.00000  0.05    0.22
Q2    1   0.3261 -0.9301 -1.6838  11.00000  0.05    0.20
Q3    1   0.0935 -0.8180 -0.9346  11.00000  0.05    0.20
Q4    1  -0.1890 -0.9528 -1.4937  11.00000  0.05    0.20
Q5    1  -0.1358 -0.8699 -1.4417  11.00000  0.05    0.19
Q6    1   0.0615 -1.0187 -1.7379  11.00000  0.05    0.18
Q7    1  -0.6700 -0.5203 -1.0674  11.00000  0.05    0.17
Q8    1  -0.5495 -1.1269 -1.3022  11.00000  0.05    0.17
Q9    1   0.0343 -0.5234 -0.7908  11.00000  0.05    0.17
Q10   1   0.0892 -0.9577 -1.8223  11.00000  0.05    0.17
;
_shelx_res_checksum              28484
_shelx_hkl_file
;
   1   0   0   34.87    1.96
   1   0   0   34.63    1.91
  -1   0   0   27.95    2.11
   2   0   0    9.55    1.99
   2   0   0    7.45    1.72
  -2   0   0    5.61    1.94
  -3   0   0  284.15    9.46
   3   0   0  297.25    8.91
   3   0   0  294.21    8.97
   4   0   0    1.44    2.26
   4   0   0    0.71    2.15
  -4   0   0   -0.40    2.42
   5   0   0  108.17    6.11
  -5   0   0  112.84    6.24
   5   0   0  119.39    6.23
   6   0   0   -1.89    3.05
  -6   0   0   -7.09    2.89
  -6   0   0   -2.73    3.63
   0  -1   0   -0.15    0.38
   0  -1   0   -0.13    0.58
   0   1   0    0.20    0.41
   0   1   0   -0.38    0.65
   0   1   0   -0.27    0.49
  -1  -1   0  726.86   20.49
   1  -1   0  744.34   18.75
   1  -1   0  714.93   19.92
   1   1   0  745.29   18.88
  -1   1   0  733.80   19.90
   1   1   0  754.11   18.49
  -1   1   0  767.47   19.16
   2  -1   0  787.74   20.33
   2  -1   0  803.63   20.52
  -2  -1   0  788.61   22.19
   2   1   0  783.63   20.41
   2   1   0  771.74   20.01
  -2   1   0  767.70   21.49
   3  -1   0   68.45    4.13
  -3  -1   0   78.47    4.83
   3  -1   0   71.55    4.02
   3   1   0   67.61    3.76
  -3   1   0   74.38    3.79
   3   1   0   70.78    3.95
  -4  -1   0    1.73    2.74
   4  -1   0    2.80    2.48
   4   1   0   -1.02    2.12
  -4   1   0   -1.98    1.98
   4   1   0    3.03    2.11
  -5  -1   0    2.85    3.39
   5  -1   0    9.02    3.11
   5   1   0    9.13    2.92
  -5   1   0    6.93    3.64
   5   1   0    2.47    2.63
  -5   1   0    1.55    2.53
  -6  -1   0    5.86    3.68
   6  -1   0   17.58    3.93
   6   1   0   22.64    3.76
  -6   1   0   18.40    4.63
   6   1   0   14.35    3.70
   0  -2   0  126.50    4.57
   0  -2   0  127.35    3.86
   0   2   0  145.97    4.31
   1  -2   0  237.81    6.82
  -1  -2   0  223.99    7.83
   1   2   0  245.91    6.32
   1   2   0  249.92    6.78
  -1   2   0  227.56    7.20
  -2  -2   0  323.81   10.94
   2  -2   0  343.09    9.86
  -2   2   0  341.81   10.26
   2   2   0  348.20    9.26
   2   2   0  349.17    9.67
  -2   2   0  337.49    9.45
   3  -2   0   99.54    4.90
  -3  -2   0  105.79    5.77
   3   2   0  105.07    4.18
   3   2   0   92.86    4.36
  -3   2   0   93.92    3.78
  -3   2   0  106.04    5.53
  -4  -2   0   53.98    4.75
   4  -2   0   52.49    4.48
  -4   2   0   57.94    3.43
   4   2   0   51.92    3.90
   4   2   0   55.71    3.99
  -4   2   0   42.55    4.40
  -5  -2   0   11.14    4.03
   5  -2   0   17.39    3.60
  -5   2   0   14.82    4.09
   5   2   0   22.50    3.38
   5   2   0   23.07    3.26
  -5   2   0   17.44    2.61
   6  -2   0   -2.42    3.00
  -6  -2   0    1.21    3.91
   6   2   0    0.86    3.08
  -6   2   0    2.36    3.94
   6   2   0    0.69    2.91
   0  -3   0    1.75    1.82
   0  -3   0   -0.08    1.24
   0   3   0    2.81    1.68
   1  -3   0   45.85    2.93
  -1  -3   0   50.77    3.71
   1  -3   0   44.59    2.24
   1   3   0   48.59    2.77
  -1   3   0   54.02    3.65
   1   3   0   50.74    2.29
  -2  -3   0   29.78    3.45
   2  -3   0   21.35    2.46
   2   3   0   27.36    2.31
  -2   3   0   27.33    3.07
   2   3   0   25.78    1.92
   3  -3   0  102.37    5.02
  -3  -3   0  107.68    6.26
  -3   3   0  101.37    5.70
   3   3   0   98.92    4.06
   3   3   0   97.13    4.54
  -4  -3   0   94.54    6.67
   4  -3   0   96.22    5.49
  -4   3   0   94.43    6.40
   4   3   0   92.19    4.73
   4   3   0   94.58    4.99
   5  -3   0    9.74    3.25
  -5  -3   0   13.18    4.30
  -5   3   0   13.20    4.16
   5   3   0   10.71    2.87
   5   3   0   12.31    2.88
  -6  -3   0   -1.58    4.21
   6  -3   0   -4.05    3.09
   6   3   0   -5.08    2.65
   6   3   0    5.39    3.27
  -6   3   0    2.67    3.99
   0  -4   0   16.89    2.38
   0  -4   0   18.08    1.79
   0   4   0   17.43    2.22
   1  -4   0   60.56    3.21
  -1  -4   0   72.22    2.74
  -1  -4   0   73.14    4.81
   1  -4   0   72.18    3.58
   1   4   0   71.49    3.71
  -1   4   0   75.72    4.16
  -2  -4   0   11.07    3.26
   2  -4   0   12.89    2.25
   2   4   0   13.05    2.08
   2   4   0   12.41    1.52
  -2   4   0   12.49    2.71
  -3  -4   0   12.46    3.55
   3  -4   0   13.43    2.61
  -3   4   0   14.73    3.05
   3   4   0    9.54    2.16
   3   4   0   10.95    1.80
   4  -4   0   16.49    3.17
  -4  -4   0    6.49    3.85
   4   4   0   18.10    2.53
   4   4   0   13.32    2.67
  -4   4   0   16.63    3.71
  -5  -4   0   30.62    5.37
   5  -4   0   45.46    4.57
  -5   4   0   44.35    5.44
   5   4   0   36.29    3.94
   5   4   0   43.27    3.63
  -6  -4   0   -4.80    4.61
   6  -4   0   -2.07    3.27
   6   4   0    0.51    3.10
  -6   4   0    2.28    4.16
   0  -5   0   -0.29    1.35
   0  -5   0   -2.44    1.93
   0   5   0   -0.78    1.91
  -1  -5   0   10.05    1.38
  -1  -5   0    9.88    2.98
   1  -5   0   11.03    1.93
   1  -5   0    9.80    1.81
   1   5   0    9.89    2.18
  -1   5   0   11.94    2.60
   2  -5   0  202.46    6.88
  -2  -5   0  202.21    8.45
   2   5   0  189.74    5.73
   2   5   0  194.61    6.69
  -2   5   0  197.45    7.54
   3  -5   0   34.65    3.48
  -3  -5   0   36.47    4.61
   3   5   0   34.22    2.60
  -3   5   0   34.12    3.89
   3   5   0   37.61    3.21
  -4  -5   0   12.44    4.40
   4  -5   0   15.71    3.34
   4   5   0   16.38    2.37
  -4   5   0   19.73    3.86
   4   5   0   20.39    3.14
  -5  -5   0   25.24    5.22
   5  -5   0   31.04    4.41
  -5   5   0   32.48    4.92
   5   5   0   36.83    4.17
  -6  -5   0   -0.51    4.91
   6  -5   0    4.51    3.75
  -6   5   0    8.34    4.37
   6   5   0    3.10    3.22
   0  -6   0  258.46    7.53
   0  -6   0  253.34    8.81
   0   6   0  246.73    8.29
   1  -6   0  202.02    6.72
  -1  -6   0  204.13    5.93
   1  -6   0  197.46    6.87
  -1  -6   0  204.96    8.19
   1   6   0  197.20    7.06
  -1   6   0  203.01    7.62
   2  -6   0   48.83    3.77
  -2  -6   0   50.86    4.76
   2   6   0   42.48    3.64
  -2   6   0   43.65    3.98
   2   6   0   45.50    2.57
  -3  -6   0   31.83    4.69
   3  -6   0   34.72    3.59
  -3   6   0   27.07    3.79
   3   6   0   31.93    2.56
   3   6   0   34.16    3.31
  -4  -6   0  151.93    9.15
   4  -6   0  138.97    7.14
   4   6   0  149.03    6.67
   4   6   0  147.34    5.33
  -4   6   0  139.32    7.99
  -5  -6   0    3.30    4.68
   5  -6   0   -1.50    3.20
   5   6   0    2.24    2.78
  -5   6   0    5.16    4.08
  -6  -6   0   -7.59    5.00
   6  -6   0    0.39    3.59
  -6   6   0    1.71    4.40
   6   6   0    2.74    3.37
   0  -7   0   -0.18    2.40
   0  -7   0   -2.12    1.46
   0   7   0    0.54    2.29
  -1  -7   0   47.46    2.65
   1  -7   0   45.43    3.75
   1  -7   0   46.74    3.55
  -1  -7   0   57.97    4.79
   1   7   0   51.21    4.08
  -1   7   0   45.75    3.94
   2  -7   0  103.39    5.06
  -2  -7   0   90.91    6.59
   2   7   0   91.41    3.79
  -2   7   0   99.97    5.84
   2   7   0   94.55    4.92
  -3  -7   0   11.25    4.30
   3  -7   0   20.21    3.22
   3   7   0   18.50    1.91
   3   7   0   16.35    2.91
  -3   7   0   17.01    3.63
   4  -7   0   -2.74    2.73
  -4  -7   0    1.34    4.21
   4   7   0    2.12    2.64
  -4   7   0    1.86    3.43
   5  -7   0    8.93    3.57
  -5  -7   0    7.83    5.17
  -5   7   0   15.38    4.44
   5   7   0   23.08    3.95
   0  -8   0   -1.94    2.64
   0  -8   0    2.24    1.71
   0   8   0    4.08    2.63
   1  -8   0   -0.76    2.31
   1  -8   0    1.18    1.95
  -1  -8   0   -6.02    3.19
  -1  -8   0   -1.63    1.38
  -1   8   0    0.69    2.61
   1   8   0    1.58    2.39
   2  -8   0   25.84    2.44
   2  -8   0   29.17    3.20
  -2  -8   0   30.96    4.84
   2   8   0   28.04    2.28
   2   8   0   26.45    3.38
  -2   8   0   19.02    3.83
  -3  -8   0   20.26    4.80
   3  -8   0   20.14    3.24
  -3   8   0   10.93    3.73
   3   8   0   16.50    3.13
   4  -8   0   -0.87    2.76
  -4  -8   0   -0.15    4.46
  -4   8   0    3.17    3.67
   4   8   0    7.71    2.89
   5  -8   0   -0.07    3.12
  -5  -8   0    2.97    5.30
  -5   8   0    1.88    3.96
   5   8   0   -1.45    3.15
   0  -9   0    0.33    3.19
   0  -9   0   -1.15    1.75
   0   9   0    2.62    2.86
   1  -9   0    4.32    2.78
   1  -9   0    1.91    2.13
  -1  -9   0    6.15    1.76
  -1  -9   0    6.80    3.73
   1   9   0    4.96    2.72
  -1   9   0   -1.49    2.94
  -2  -9   0    1.36    3.97
   2  -9   0    3.31    2.42
   2   9   0    2.40    2.73
  -2   9   0    3.69    3.23
   3  -9   0   13.93    3.16
  -3  -9   0   11.48    4.88
   3   9   0   14.01    3.23
  -3   9   0   16.53    4.05
  -4  -9   0   -3.99    4.47
   4  -9   0    2.44    3.10
  -4   9   0   -0.56    3.86
   4   9   0   -2.21    2.80
   5  -9   0   16.74    4.20
  -5  -9   0   13.44    5.98
  -5   9   0    8.85    4.55
   5   9   0   16.01    3.82
   0 -10   0   14.80    3.82
   0 -10   0   20.53    2.65
   0  10   0   15.19    3.61
  -1 -10   0   25.16    4.64
  -1 -10   0   25.69    2.58
   1 -10   0   20.10    3.01
   1 -10   0   24.52    3.66
  -1  10   0   21.20    3.94
   1  10   0   12.13    3.32
   2 -10   0   27.77    3.59
  -2 -10   0   20.93    5.04
   2  10   0   26.92    3.80
  -2  10   0   15.87    4.06
   3 -10   0   33.15    4.04
  -3 -10   0   21.94    5.44
  -3  10   0   32.25    4.86
   3  10   0   22.04    3.70
   4 -10   0    4.60    3.33
  -4 -10   0    2.78    5.21
  -4  10   0    3.57    4.14
   4  10   0    6.89    3.35
   0 -11   0   -2.50    3.49
   0 -11   0   -0.56    2.14
   0  11   0    3.98    3.43
   1 -11   0   16.87    3.66
   1 -11   0   15.95    3.04
  -1 -11   0   14.42    4.59
   1  11   0   16.06    3.72
  -1  11   0   17.37    4.10
  -2 -11   0   10.34    4.74
   2 -11   0    6.31    2.83
   2  11   0    3.17    3.15
  -2  11   0    7.69    3.81
   3 -11   0    6.82    3.08
  -3 -11   0    8.11    5.22
  -3  11   0    8.40    3.97
   3  11   0    2.68    3.02
   4 -11   0   -2.11    3.07
  -4 -11   0  -10.69    4.92
  -4  11   0   -2.79    4.08
   4  11   0    2.22    3.24
   0 -12   0   74.50    4.82
   0 -12   0   70.70    6.46
   0  12   0   69.53    6.37
   1 -12   0   15.38    3.14
  -1 -12   0   10.87    4.72
  -1  12   0   14.62    4.18
  -2 -12   0    6.25    4.88
   2 -12   0    3.31    2.89
  -2  12   0    0.69    3.72
   2  12   0    6.73    3.57
   3 -12   0    1.28    2.98
  -3 -12   0    4.20    5.26
   3  12   0    4.92    3.42
  -3  12   0    6.67    4.22
   0 -13   0   -5.53    4.06
   0  13   0   -1.43    3.71
  -1 -13   0   19.92    5.51
   1 -13   0   13.35    3.29
  -1  13   0   11.49    4.57
   1  13   0   15.57    4.29
   7   0  -1    2.70    3.73
  -7   0   1    1.30    3.96
   6   0  -1    5.43    3.41
  -6   0   1    0.11    3.13
  -6   0   1    5.54    3.69
  -5   0   1   53.94    4.94
   5   0  -1   34.46    4.14
  -5   0   1   49.30    4.75
  -4   0   1   27.75    3.22
   4   0  -1   37.77    3.28
   4   0  -1   39.68    3.75
   3   0  -1   81.67    4.43
  -3   0   1   73.51    4.18
   3   0  -1   75.51    3.73
  -2   0   1  181.12    6.15
   2   0  -1  167.45    5.95
   2   0  -1  182.56    5.54
  -1   0   1  110.19    3.85
   1   0  -1  100.64    3.74
   0   0  -1  111.98    3.03
   0   0   1  111.21    3.03
   0   0   1  113.94    3.46
   1   0   1   46.77    2.16
   1   0   1   45.42    2.47
  -1   0  -1   43.28    2.74
   2   0   1  366.59   10.05
   2   0   1  370.43   10.39
  -2   0  -1  365.88   11.03
   3   0   1   -0.10    1.80
  -3   0  -1    5.16    2.26
   3   0   1    3.96    1.82
   4   0   1    3.46    2.26
  -4   0  -1    4.76    2.68
   4   0   1    2.33    2.36
   5   0   1   69.25    4.93
   5   0   1   61.24    5.33
  -5   0  -1   56.81    4.81
   6   0   1    2.50    3.22
   6   0   1    5.94    3.27
   6  -1  -1    6.86    3.58
  -6  -1   1    7.75    3.65
  -6   1   1   11.95    4.07
   6   1  -1   13.58    3.70
  -5  -1   1    1.79    3.02
   5  -1  -1    5.45    3.10
  -5   1   1    7.45    3.48
   5   1  -1    2.59    2.57
   5   1  -1    6.75    3.18
  -5   1   1    5.54    2.68
   4  -1  -1  113.90    5.83
  -4  -1   1  113.04    5.88
   4   1  -1  111.66    5.15
  -4   1   1  113.26    6.10
   4   1  -1  123.11    5.58
  -4   1   1  116.45    5.30
  -3  -1   1  187.71    7.25
   3  -1  -1  193.06    7.07
   3   1  -1  190.58    6.53
  -3   1   1  193.07    6.57
   3   1  -1  185.45    6.20
  -3   1   1  197.04    7.03
  -2  -1   1  424.50   12.85
   2  -1  -1  420.10   11.90
   2   1  -1  433.62   11.52
  -2   1   1  432.44   12.28
   2   1  -1  424.84   11.70
  -2   1   1  436.38   11.99
   1  -1  -1  318.10    8.82
  -1  -1   1  327.53    9.52
  -1   1   1  343.21    8.78
  -1   1   1  324.74    9.08
   1   1  -1  290.16    8.34
   1   1  -1  323.54    8.72
   0  -1   1   21.32    1.53
   0  -1  -1   21.42    1.32
   0  -1   1   23.91    1.62
   0   1   1   23.17    1.52
   0   1   1   22.51    1.69
   0   1  -1   22.33    1.53
   1  -1   1  249.19    6.90
  -1  -1  -1  243.93    7.79
   1  -1   1  237.36    6.79
   1  -1   1  233.26    6.88
   1   1   1  247.68    6.88
   1   1   1  248.13    6.31
   2  -1   1    6.65    1.80
  -2  -1  -1    5.55    2.24
   2  -1   1    7.06    1.83
   2   1   1    4.02    1.46
  -2   1  -1    0.72    1.64
   2   1   1    4.11    1.75
  -3  -1  -1    5.21    2.54
   3  -1   1    3.01    1.90
   3  -1   1    5.98    2.04
  -3   1  -1    0.10    1.87
   3   1   1    1.96    1.88
   3   1   1    5.65    1.75
   4  -1   1   76.89    4.93
   4  -1   1   70.18    4.49
  -4  -1  -1   79.19    5.60
   4   1   1   71.26    4.35
   4   1   1   72.11    4.55
  -4   1  -1   76.75    4.56
  -5  -1  -1    6.63    3.56
   5  -1   1    7.06    2.92
  -5   1  -1    0.23    2.73
   5   1   1    8.26    2.77
   5   1   1    8.98    3.11
  -6  -1  -1    4.38    3.98
   6  -1   1   15.04    3.75
   6   1   1   22.33    3.65
  -6   1  -1   14.14    4.61
   6   1   1    9.48    3.59
  -6  -2   1   25.35    4.62
   6  -2  -1   37.20    4.60
   6   2  -1   27.52    4.03
   6   2  -1   42.27    4.52
  -6   2   1   36.48    5.22
   5  -2  -1    0.69    2.88
  -5  -2   1    3.68    3.45
  -5   2   1    2.14    2.13
   5   2  -1    3.13    2.97
  -5   2   1    5.35    3.51
   5   2  -1    2.69    2.56
  -4  -2   1   22.57    3.71
   4  -2  -1   20.69    3.29
   4   2  -1   17.01    2.71
   4   2  -1   24.14    2.76
  -4   2   1   21.39    2.38
  -4   2   1   24.10    3.66
   3  -2  -1   65.65    4.38
  -3  -2   1   61.69    4.82
  -3   2   1   62.35    3.14
  -3   2   1   55.62    4.39
   3   2  -1   58.59    3.69
   3   2  -1   62.24    3.39
  -2  -2   1  128.94    5.73
   2  -2  -1  117.65    4.96
   2   2  -1  118.02    4.18
  -2   2   1  119.74    4.11
  -2   2   1  122.36    5.11
   2   2  -1  117.69    4.49
  -1  -2   1  209.02    6.92
   1  -2  -1  208.21    6.21
  -1   2   1  205.11    6.24
   1   2  -1  196.80    6.02
  -1   2   1  197.11    6.01
   1   2  -1  188.25    5.68
   0  -2   1  909.97   24.59
   0  -2  -1  780.39   22.36
   0  -2   1  935.41   22.67
   0   2  -1  930.48   23.01
   0   2   1  964.43   23.11
   1  -2   1  437.93   12.14
  -1  -2  -1  440.54   13.23
   1  -2   1  438.78   11.91
  -1   2  -1  474.37   12.36
  -1   2  -1  442.56   12.32
   1   2   1  449.22   12.01
  -2  -2  -1    0.75    2.37
   2  -2   1    0.67    1.86
  -2   2  -1   -1.93    2.19
   2   2   1    1.81    1.21
   2   2   1    1.63    1.65
  -3  -2  -1   30.23    3.53
   3  -2   1   39.06    3.48
  -3   2  -1   32.25    3.66
  -3   2  -1   32.09    2.49
   3   2   1   30.05    2.56
   3   2   1   37.14    3.33
  -4  -2  -1   34.02    4.32
   4  -2   1   42.43    3.69
  -4   2  -1   29.39    2.67
   4   2   1   35.29    3.47
   4   2   1   44.25    3.22
  -4   2  -1   32.13    4.31
  -5  -2  -1   22.68    4.43
   5  -2   1   24.44    3.73
   5   2   1   25.31    3.21
  -5   2  -1   24.30    4.57
   5   2   1   31.02    3.79
  -6  -2  -1   29.29    5.16
   6  -2   1   23.90    4.16
   6   2   1   30.05    4.37
  -6   2  -1   21.51    5.07
   6   2   1   31.97    3.92
  -6  -3   1    9.97    4.25
   6  -3  -1   21.18    4.24
  -6   3   1   11.93    4.34
   6   3  -1    8.96    3.38
   6   3  -1   13.75    3.62
  -5  -3   1   25.76    4.70
   5  -3  -1   18.47    3.67
   5   3  -1   20.51    3.43
   5   3  -1   22.53    3.20
  -5   3   1   12.80    3.93
   4  -3  -1   15.71    3.27
  -4  -3   1   14.71    3.82
   4   3  -1   12.31    2.40
  -4   3   1   16.47    3.55
   4   3  -1   18.92    2.67
  -4   3   1   16.62    1.82
  -3  -3   1   53.90    5.15
   3  -3  -1   48.27    3.89
   3   3  -1   53.21    3.38
   3   3  -1   58.08    3.30
  -3   3   1   47.76    3.96
  -3   3   1   51.86    2.58
   2  -3  -1   16.58    2.45
  -2  -3   1   10.39    2.87
  -2   3   1   10.71    1.28
   2   3  -1    9.69    1.66
   2   3  -1   10.89    1.82
  -2   3   1    9.96    2.41
  -1  -3   1   84.60    4.62
   1  -3  -1   81.48    3.65
   1   3  -1   83.24    3.42
   1   3  -1   79.86    3.54
  -1   3   1   82.78    3.94
  -1   3   1   83.02    3.29
   0  -3   1  183.74    6.24
   0  -3   1  189.10    5.80
   0  -3  -1  201.85    6.71
   0  -3  -1  196.49    5.37
   0   3   1  199.45    6.13
   0   3  -1  181.41    5.97
  -1  -3  -1  263.45    8.90
   1  -3   1  269.83    7.84
   1  -3   1  269.24    7.50
   1   3   1  268.58    7.91
  -1   3  -1  261.91    8.15
  -2  -3  -1   41.58    3.70
   2  -3   1   39.00    3.37
   2   3   1   37.90    3.06
   2   3   1   44.90    2.01
  -2   3  -1   45.66    3.71
  -3  -3  -1   42.39    4.16
   3  -3   1   41.20    3.43
   3   3   1   42.18    2.61
   3   3   1   42.40    3.39
  -3   3  -1   43.90    4.10
  -4  -3  -1   56.37    5.28
   4  -3   1   59.83    4.73
  -4   3  -1   67.16    5.63
   4   3   1   53.03    4.35
   4   3   1   58.54    3.62
   5  -3   1   70.86    5.61
  -5  -3  -1   61.00    6.12
   5   3   1   75.30    4.46
  -5   3  -1   71.33    6.45
   5   3   1   80.71    5.49
  -6  -3  -1  -14.76    4.05
   6  -3   1   -2.55    3.09
   6   3   1   -1.90    3.23
  -6   3  -1   -1.09    4.35
   6  -4  -1   12.77    3.91
  -6  -4   1    4.79    4.62
   6   4  -1   10.26    3.28
  -6   4   1    8.01    4.23
   6   4  -1    5.67    3.21
   5  -4  -1   19.11    3.89
  -5  -4   1   16.97    4.76
   5   4  -1   20.23    3.23
   5   4  -1   20.50    3.28
  -5   4   1   17.89    4.13
  -4  -4   1   89.89    7.03
   4  -4  -1   91.89    5.67
  -4   4   1   97.17    6.20
  -4   4   1   92.22    3.53
   4   4  -1   96.90    4.85
   4   4  -1   93.79    4.71
  -3  -4   1   22.61    3.94
   3  -4  -1   23.18    3.03
  -3   4   1   18.82    3.15
   3   4  -1   27.05    2.65
  -3   4   1   23.61    1.76
   3   4  -1   31.17    2.61
  -2  -4   1  146.85    6.94
   2  -4  -1  141.74    5.58
  -2   4   1  135.47    5.95
   2   4  -1  138.24    4.86
   2   4  -1  140.94    4.96
  -2   4   1  133.09    4.50
   1  -4  -1   21.32    2.17
   1  -4  -1   20.63    2.15
  -1  -4   1   23.05    1.95
  -1  -4   1   19.55    2.98
   1   4  -1   18.62    2.10
  -1   4   1   15.41    2.53
   0  -4   1   45.15    2.99
   0  -4  -1   44.62    2.46
   0  -4  -1   38.30    3.83
   0  -4   1   53.53    3.65
   0   4  -1   46.23    3.18
   0   4   1   44.09    3.29
  -1  -4  -1  133.05    6.10
   1  -4   1  135.44    4.38
   1  -4   1  136.46    5.07
  -1   4  -1  134.01    5.64
   1   4   1  136.41    5.04
   2  -4   1   75.57    4.15
  -2  -4  -1   85.02    5.58
   2   4   1   87.44    4.20
  -2   4  -1   84.32    4.80
  -3  -4  -1   54.69    5.32
   3  -4   1   51.44    4.10
  -3   4  -1   55.89    4.58
   3   4   1   49.54    3.90
   3   4   1   47.23    2.54
  -4  -4  -1    2.74    3.86
   4  -4   1    3.08    2.60
   4   4   1    0.72    1.72
  -4   4  -1    3.32    3.35
   4   4   1    6.31    2.51
   5  -4   1    1.95    3.06
  -5  -4  -1    0.73    4.21
  -5   4  -1    3.29    3.95
   5   4   1    5.29    2.81
   5   4   1    4.97    2.48
  -6  -4  -1    2.97    4.90
   6  -4   1   -0.74    3.30
   6   4   1    3.96    3.38
  -6   4  -1    1.38    4.39
   6  -5  -1    2.46    3.64
  -6  -5   1   -0.35    4.72
  -6   5   1    6.17    4.07
   6   5  -1    5.25    3.20
   5  -5  -1   30.34    4.28
  -5  -5   1   23.60    5.22
  -5   5   1   19.26    4.32
   5   5  -1   27.67    3.66
   5   5  -1   31.01    3.51
  -4  -5   1   33.38    5.05
   4  -5  -1   33.39    4.01
   4   5  -1   40.63    3.25
   4   5  -1   43.97    3.72
  -4   5   1   37.40    4.45
  -3  -5   1    0.75    3.25
   3  -5  -1    1.73    2.37
   3   5  -1   -0.49    1.84
   3   5  -1   -0.85    1.70
  -3   5   1    2.04    2.56
  -2  -5   1   10.58    3.27
   2  -5  -1   11.07    2.30
   2  -5  -1    8.68    1.58
  -2   5   1   10.16    2.61
   2   5  -1    9.39    2.00
   2   5  -1   10.42    1.91
   1  -5  -1   27.63    2.62
  -1  -5   1   37.48    3.62
   1  -5  -1   29.28    2.49
  -1  -5   1   26.05    2.17
  -1   5   1   26.83    2.91
   1   5  -1   28.75    2.60
   0  -5  -1   63.92    4.39
   0  -5  -1   67.68    2.98
   0  -5   1   68.47    4.19
   0  -5   1   71.12    3.40
   0   5  -1   70.00    4.03
   0   5   1   72.24    4.14
  -1  -5  -1    5.28    2.61
  -1  -5  -1    8.53    0.97
   1  -5   1    9.90    2.03
   1  -5   1   10.12    1.61
  -1   5  -1    6.85    2.48
   1   5   1    9.50    2.08
   2  -5   1  138.18    5.60
  -2  -5  -1  139.85    6.93
   2   5   1  132.54    5.35
  -2   5  -1  131.69    6.16
  -3  -5  -1   17.26    3.84
   3  -5   1   22.90    2.93
  -3   5  -1   20.34    3.46
   3   5   1   23.19    2.86
  -4  -5  -1   -0.42    4.08
   4  -5   1    2.16    2.65
   4   5   1    7.58    2.75
   4   5   1    4.03    1.66
  -4   5  -1   11.45    3.70
  -5  -5  -1    7.45    4.74
   5  -5   1    2.45    3.08
  -5   5  -1   -0.21    3.81
   5   5   1    2.40    2.88
   6  -5   1    1.88    3.36
  -6  -5  -1   -6.16    4.69
  -6   5  -1    0.83    4.44
   6   5   1    2.54    3.23
  -6  -6   1   -5.86    4.70
   6  -6  -1    5.06    3.80
   6   6  -1    3.13    3.29
  -6   6   1    3.82    4.26
   5  -6  -1   -0.97    3.24
  -5  -6   1   -0.61    4.58
  -5   6   1   -0.17    3.67
   5   6  -1    3.96    3.03
   4  -6  -1   12.43    3.30
  -4  -6   1   12.03    4.60
   4   6  -1   10.75    2.27
   4   6  -1    9.21    2.70
  -4   6   1   10.91    3.55
  -3  -6   1   -4.32    3.47
   3  -6  -1    0.71    2.37
  -3   6   1    1.36    2.87
   3   6  -1    0.88    2.07
   3   6  -1    0.70    1.74
  -2  -6   1  108.05    6.66
   2  -6  -1  106.46    5.00
   2  -6  -1  108.55    4.36
   2   6  -1  111.07    4.90
   2   6  -1  106.34    4.43
  -2   6   1  105.74    5.67
   1  -6  -1    9.70    2.14
  -1  -6   1    9.48    3.02
   1  -6  -1   10.07    2.00
  -1  -6   1    6.02    1.62
   1   6  -1    8.04    2.16
  -1   6   1   10.56    2.55
   0  -6  -1  154.46    6.51
   0  -6   1  154.34    5.42
   0  -6   1  146.84    6.21
   0  -6  -1  158.73    4.99
   0   6   1  152.11    6.05
   0   6  -1  141.23    5.87
   1  -6   1   27.95    2.77
  -1  -6  -1   28.06    3.69
  -1  -6  -1   25.38    1.71
   1  -6   1   28.62    2.41
  -1   6  -1   26.68    3.26
   1   6   1   28.73    2.94
  -2  -6  -1   13.54    3.27
   2  -6   1   15.94    2.66
  -2   6  -1   17.29    3.19
   2   6   1   12.32    2.41
   3  -6   1   31.20    3.48
  -3  -6  -1   28.68    4.56
   3   6   1   42.02    3.79
  -3   6  -1   31.06    4.08
  -4  -6  -1   26.12    5.19
   4  -6   1   22.72    3.50
   4   6   1   24.90    3.44
  -4   6  -1   19.28    4.11
   5  -6   1    6.57    3.44
  -5  -6  -1   11.00    5.13
  -5   6  -1    6.59    4.26
   5   6   1    8.85    3.14
   6  -6   1   12.95    4.11
  -6  -6  -1   16.90    6.02
  -6   6  -1   14.60    5.22
   6   6   1   11.07    3.82
   5  -7  -1   13.05    4.07
  -5  -7   1   16.13    5.39
  -5   7   1   15.93    4.34
   5   7  -1   21.37    3.67
  -4  -7   1   35.52    5.52
   4  -7  -1   34.81    4.26
   4   7  -1   41.27    4.03
   4   7  -1   37.22    3.08
  -4   7   1   28.01    4.48
   3  -7  -1   31.56    3.74
  -3  -7   1   21.43    4.77
  -3   7   1   29.00    4.04
   3   7  -1   36.05    3.18
   3   7  -1   35.86    3.40
  -2  -7   1   30.34    4.40
   2  -7  -1   26.27    2.49
   2  -7  -1   27.19    3.07
   2   7  -1   31.95    2.69
  -2   7   1   24.41    3.64
   2   7  -1   30.84    3.16
   1  -7  -1   39.80    3.17
  -1  -7   1   38.96    4.19
   1  -7  -1   46.55    3.74
  -1  -7   1   47.44    3.04
   1   7  -1   39.95    3.46
  -1   7   1   31.01    3.52
   0  -7  -1   20.79    1.97
   0  -7   1   18.94    3.00
   0  -7  -1   17.71    3.03
   0  -7   1   11.49    2.11
   0   7   1   14.50    2.79
   0   7  -1    9.63    2.59
  -1  -7  -1   61.69    2.56
  -1  -7  -1   59.40    5.23
   1  -7   1   61.28    3.84
   1  -7   1   60.19    3.83
   1   7   1   61.19    4.37
  -1   7  -1   63.07    5.05
  -2  -7  -1   38.60    4.63
   2  -7   1   32.18    3.37
  -2   7  -1   32.08    3.86
   2   7   1   32.10    3.33
   3  -7   1   19.66    3.16
  -3  -7  -1   15.16    4.28
   3   7   1   19.77    3.10
  -3   7  -1   14.30    3.72
  -4  -7  -1   16.28    5.11
   4  -7   1   11.20    3.47
  -4   7  -1   12.37    3.84
   4   7   1   13.89    3.19
   5  -7   1   15.23    3.89
  -5  -7  -1   14.08    5.35
  -5   7  -1   11.81    4.59
   5   7   1   19.50    3.87
   5  -8  -1   -1.01    3.29
  -5  -8   1   -6.57    4.96
  -5   8   1   -0.68    3.91
   5   8  -1    0.04    3.03
  -4  -8   1   19.56    5.25
   4  -8  -1   19.96    3.82
   4   8  -1   23.50    3.52
  -4   8   1   20.60    4.41
   3  -8  -1   26.30    3.55
  -3  -8   1   18.60    4.80
   3   8  -1   29.57    3.45
  -3   8   1   22.03    4.14
   3   8  -1   28.45    2.68
   2  -8  -1   14.10    2.34
  -2  -8   1    9.35    3.98
   2  -8  -1    5.35    2.35
   2   8  -1    6.59    2.09
   2   8  -1    9.85    2.72
  -2   8   1    7.26    3.15
  -1  -8   1   40.82    4.64
   1  -8  -1   46.33    4.47
  -1  -8   1   40.25    3.19
   1  -8  -1   42.19    3.58
  -1   8   1   41.73    4.12
   1   8  -1   42.45    3.78
   0  -8   1   27.62    2.77
   0  -8   1   32.19    3.76
   0  -8  -1   27.16    2.39
   0  -8  -1   25.81    3.66
   0   8  -1   18.85    3.26
   0   8   1   23.62    3.34
  -1  -8  -1    9.72    1.42
  -1  -8  -1    6.99    3.13
   1  -8   1    6.33    2.25
   1  -8   1    3.86    2.36
  -1   8  -1    3.00    2.78
   1   8   1    7.29    2.65
   2  -8   1   42.28    3.84
  -2  -8  -1   48.06    5.26
  -2   8  -1   39.50    4.68
   2   8   1   41.74    3.94
  -3  -8  -1   76.60    6.99
   3  -8   1   82.21    5.49
  -3   8  -1   76.90    6.26
   3   8   1   77.59    5.33
  -4  -8  -1   10.45    4.95
   4  -8   1    6.41    3.32
   4   8   1   10.81    3.16
  -4   8  -1    4.20    3.71
   5  -8   1   22.63    4.40
  -5  -8  -1   18.31    5.85
   5   8   1   15.32    3.78
  -5   8  -1   15.74    4.77
  -5  -9   1   -5.75    5.18
   5  -9  -1   -1.45    3.30
  -5   9   1   -4.64    4.02
   5   9  -1   -0.69    3.18
   4  -9  -1    3.54    2.96
  -4  -9   1    0.89    4.83
  -4   9   1    1.39    3.89
   4   9  -1    6.57    3.05
   3  -9  -1   14.76    3.07
  -3  -9   1   11.33    4.72
  -3   9   1   19.24    4.29
   3   9  -1   14.84    3.20
   2  -9  -1   25.44    2.93
   2  -9  -1   13.45    2.76
  -2  -9   1   18.55    4.53
   2   9  -1   19.82    3.28
  -2   9   1   14.77    3.58
   2   9  -1   18.38    2.57
  -1  -9   1   65.88    5.70
   1  -9  -1   60.91    5.09
  -1  -9   1   71.85    3.97
   1  -9  -1   63.38    4.23
   1   9  -1   59.50    5.07
  -1   9   1   70.17    5.41
   0  -9   1  100.90    6.43
   0  -9  -1   99.39    6.32
   0  -9  -1  100.17    4.48
   0  -9   1   99.71    4.82
   0   9  -1   98.82    6.14
   0   9   1   92.60    5.81
  -1  -9  -1    5.69    3.53
  -1  -9  -1   12.54    1.69
   1  -9   1    9.76    2.78
   1  -9   1    9.52    2.62
  -1   9  -1    6.29    3.17
   1   9   1    7.40    2.88
   2  -9   1   76.63    5.02
  -2  -9  -1   78.31    7.20
   2   9   1   76.45    5.46
  -2   9  -1   80.91    6.63
  -3  -9  -1   18.54    5.16
   3  -9   1   17.34    3.36
   3   9   1   14.39    3.33
  -3   9  -1   16.29    4.29
   4  -9   1   -1.14    3.01
  -4  -9  -1   -0.14    4.81
   4   9   1   -2.07    2.90
  -4   9  -1   -1.77    3.71
   5  -9   1   22.40    4.33
  -5  -9  -1   20.42    6.23
   5   9   1   14.09    3.95
  -5   9  -1    8.37    4.52
   4 -10  -1    3.20    3.14
  -4 -10   1    1.39    5.21
  -4  10   1    3.18    4.13
   4  10  -1    8.64    3.41
  -3 -10   1   -0.07    4.54
   3 -10  -1   -1.62    2.55
   3  10  -1    1.00    2.75
  -3  10   1    0.54    3.49
   2 -10  -1    6.24    2.58
  -2 -10   1    9.69    4.53
   2  10  -1    8.17    3.05
   2  10  -1   10.87    2.41
  -2  10   1    5.91    3.45
  -1 -10   1   12.18    4.22
  -1 -10   1   14.73    2.54
   1 -10  -1   13.60    2.65
   1 -10  -1   17.73    3.58
   1  10  -1   14.43    3.46
  -1  10   1   22.14    3.97
   0 -10   1   40.97    4.74
   0 -10  -1   52.55    3.60
   0 -10  -1   51.14    5.05
   0 -10   1   45.07    3.73
   0  10  -1   46.68    4.80
   0  10   1   46.81    4.89
   1 -10   1   81.92    5.04
  -1 -10  -1   76.00    7.00
   1 -10   1   69.28    5.31
   1  10   1   74.20    5.74
  -1  10  -1   76.29    6.13
   2 -10   1    4.30    2.69
  -2 -10  -1    7.46    4.40
  -2  10  -1   -1.42    3.48
   2  10   1    3.22    2.81
  -3 -10  -1    6.73    5.08
   3 -10   1    9.88    3.20
  -3  10  -1    8.00    3.95
   3  10   1    2.16    2.84
   4 -10   1    6.29    3.43
  -4 -10  -1    4.81    5.32
  -4  10  -1    7.79    4.26
   4  10   1    5.27    3.32
   4 -11  -1   -1.13    3.11
  -4 -11   1   -6.96    5.16
   4  11  -1    5.50    3.41
  -4  11   1    1.34    4.14
  -3 -11   1   -0.51    4.98
   3 -11  -1    6.37    2.96
  -3  11   1   13.25    4.08
   3  11  -1    0.90    3.00
   2 -11  -1   20.73    3.38
  -2 -11   1   29.46    5.48
   2  11  -1   24.89    3.94
  -2  11   1   22.28    4.36
  -1 -11   1   -3.52    3.82
   1 -11  -1   -0.28    2.19
  -1 -11   1    3.35    2.28
   1 -11  -1    6.11    3.31
  -1  11   1    1.99    3.50
   1  11  -1   -1.21    3.01
   0 -11  -1    9.02    2.27
   0 -11   1   -1.41    3.50
   0 -11  -1    4.63    3.71
   0 -11   1   11.10    2.74
   0  11   1    7.14    3.63
   0  11  -1    0.82    3.23
   1 -11   1    6.97    2.79
  -1 -11  -1    4.13    4.07
   1  11   1    3.87    3.11
  -1  11  -1    4.17    3.61
  -2 -11  -1   11.51    4.99
   2 -11   1   19.19    3.49
  -2  11  -1   11.53    4.09
   2  11   1   11.80    3.55
   3 -11   1   11.88    3.40
  -3 -11  -1    6.32    5.07
   3  11   1    8.83    3.37
  -3  11  -1    1.47    3.83
  -3 -12   1    4.80    5.35
   3 -12  -1    7.00    3.21
  -3  12   1    7.21    4.26
   3  12  -1    8.71    3.48
  -2 -12   1   -4.54    4.41
   2 -12  -1    4.90    2.74
  -2  12   1   -0.32    3.73
   2  12  -1   -0.52    3.15
  -1 -12   1    8.19    4.56
   1 -12  -1    6.91    2.73
   1  12  -1   10.47    3.82
  -1  12   1   14.08    4.23
   0 -12   1    5.15    2.65
   0 -12   1    1.73    3.87
   0 -12  -1    8.74    4.18
   0  12  -1    3.02    3.59
   0  12   1    1.54    3.56
  -1 -12  -1    5.04    4.55
   1 -12   1   -1.53    2.53
   1  12   1    2.70    3.37
  -1  12  -1   -5.62    3.43
   2 -12   1   21.29    3.73
  -2 -12  -1   18.19    5.40
  -2  12  -1   12.61    4.48
   2  12   1   16.35    4.02
   3 -12   1    4.47    3.18
  -3 -12  -1   -2.79    5.13
   3  12   1    4.75    3.45
  -3  12  -1    2.08    4.04
  -1 -13   1   -2.15    4.59
   1  13  -1    1.48    3.71
  -1  13   1   -2.21    3.72
   0 -13   1  -10.82    4.65
   0 -13  -1    3.31    4.40
   0  13   1   -1.41    3.65
   0  13  -1    6.11    4.00
  -1 -13  -1   12.53    5.14
   1 -13   1    8.77    3.10
  -1  13  -1    6.28    4.34
   1  13   1   14.82    4.08
   6   0  -2    0.12    3.39
  -6   0   2   -0.52    3.31
  -6   0   2   -3.71    2.78
  -5   0   2    5.00    2.85
   5   0  -2    9.09    3.41
  -5   0   2    7.55    3.07
  -4   0   2   24.74    3.15
   4   0  -2   24.07    3.31
  -4   0   2   22.88    3.13
  -3   0   2   48.12    3.46
   3   0  -2   50.70    3.93
  -3   0   2   46.94    3.84
  -2   0   2  595.32   15.51
  -2   0   2  589.09   16.93
   2   0  -2  581.36   15.88
   1   0  -2    9.27    1.83
  -1   0   2   10.54    1.68
  -1   0   2    8.19    0.94
   0   0   2    8.38    1.49
   0   0  -2   10.42    1.65
   0   0   2   10.79    1.06
   1   0   2    0.51    1.37
   1   0   2    2.57    1.25
   1   0   2    1.92    1.43
  -2   0  -2  226.57    7.84
   2   0   2  224.70    7.15
   2   0   2  225.04    6.73
  -3   0  -2   95.41    5.03
   3   0   2   99.14    4.19
   3   0   2   96.02    4.70
   4   0   2   -1.81    2.03
  -4   0  -2    1.34    2.61
   4   0   2    3.07    2.49
   5   0   2   14.35    3.05
  -5   0  -2   18.03    3.75
   5   0   2    6.96    3.16
   6   0   2    7.47    3.62
   6   0   2    7.63    3.15
  -6  -1   2   13.49    3.86
  -6  -1   2    7.03    3.64
   6  -1  -2   10.60    3.86
  -6   1   2    4.70    3.01
   6   1  -2   10.34    3.88
  -6   1   2   17.30    4.10
  -5  -1   2   15.55    3.51
   5  -1  -2   14.22    3.59
   5   1  -2   10.34    3.16
  -5   1   2   15.58    2.96
  -5   1   2   18.99    3.74
  -4  -1   2   26.71    3.43
   4  -1  -2   24.43    3.41
  -4   1   2   21.76    3.21
   4   1  -2   28.42    3.33
   4   1  -2   23.15    2.65
  -4   1   2   23.24    2.80
   3  -1  -2   63.29    4.15
  -3  -1   2   71.28    4.49
  -3   1   2   73.12    3.95
   3   1  -2   67.95    4.17
  -3   1   2   69.26    4.00
   3   1  -2   68.66    3.28
  -2  -1   2  195.39    6.95
   2  -1  -2  193.99    6.60
   2   1  -2  190.71    6.48
  -2   1   2  189.60    6.40
   2   1  -2  191.01    5.53
  -2   1   2  190.47    6.07
  -1  -1   2  254.27    7.81
   1  -1  -2  237.68    7.28
  -1   1   2  249.33    7.55
   1   1  -2  242.91    7.34
  -1   1   2  243.25    6.79
   0  -1   2  871.20   23.77
   0  -1  -2  894.25   21.84
   0  -1   2  845.01   21.90
   0   1   2  856.68   23.86
   0   1   2  867.73   22.03
   1  -1   2  606.99   17.29
   1  -1   2  634.30   16.38
   1  -1   2  624.50   16.17
   1   1   2  636.08   15.72
   1   1   2  632.19   16.43
   1   1   2  609.94   17.60
   2  -1   2    1.99    1.88
   2  -1   2    6.06    1.77
  -2  -1  -2    4.05    2.42
   2   1   2    2.18    1.82
  -2   1  -2    4.63    1.82
   2   1   2    6.39    1.43
   3  -1   2   63.19    4.14
   3  -1   2   68.30    3.72
  -3  -1  -2   67.47    4.68
   3   1   2   68.10    3.35
  -3   1  -2   68.19    4.01
   3   1   2   66.31    4.02
  -4  -1  -2   26.45    3.70
   4  -1   2   22.96    2.97
   4  -1   2   21.10    3.19
  -4   1  -2   23.67    3.13
   4   1   2   22.70    2.66
   4   1   2   25.14    3.32
   5  -1   2   42.61    4.63
  -5  -1  -2   44.69    4.96
   5  -1   2   43.77    4.09
   5   1   2   46.47    3.86
   5   1   2   43.62    4.54
  -5   1  -2   40.09    4.02
   6  -1   2    2.51    2.99
  -6  -1  -2   -8.26    3.66
   6   1   2    2.85    2.83
  -6   1  -2   -1.24    4.27
   6   1   2    6.63    3.51
   6  -2  -2    9.56    3.75
  -6  -2   2    6.47    3.77
   6   2  -2    5.18    3.67
   6   2  -2    8.74    3.31
  -6   2   2   15.11    4.18
  -5  -2   2   21.89    4.09
   5  -2  -2   14.88    3.63
   5   2  -2   22.79    3.09
  -5   2   2   14.59    2.72
  -5   2   2   22.29    3.92
   5   2  -2   16.63    3.27
   4  -2  -2   92.86    5.60
  -4  -2   2   72.94    5.58
   4   2  -2   78.13    4.79
   4   2  -2   80.46    4.21
  -4   2   2   83.01    5.53
  -4   2   2   82.18    4.29
   3  -2  -2   57.44    4.20
  -3  -2   2   49.87    4.48
   3   2  -2   56.30    2.92
   3   2  -2   47.76    3.90
  -3   2   2   53.06    4.06
  -3   2   2   50.13    3.14
  -2  -2   2   38.40    3.67
   2  -2  -2   33.10    2.80
  -2   2   2   39.24    3.19
  -2   2   2   34.09    2.64
   2   2  -2   34.25    2.08
   2   2  -2   41.11    3.24
   1  -2  -2    3.57    1.72
  -1  -2   2    6.88    1.98
   1   2  -2    6.74    1.96
  -1   2   2    4.62    1.52
   1   2  -2    6.52    1.01
  -1   2   2    6.34    1.59
   0  -2   2   39.72    2.84
   0  -2  -2   45.08    2.39
   0  -2   2   44.21    2.74
   0   2   2   43.16    2.59
   0   2   2   48.01    3.01
   0   2  -2   38.74    2.62
   1  -2   2  926.85   24.17
   1  -2   2  961.90   25.75
  -1  -2  -2 1000.00   26.79
  -1   2  -2  911.37   24.68
   1   2   2  928.90   24.42
  -2  -2  -2    0.38    2.34
   2  -2   2    2.42    1.85
   2   2   2    5.47    1.76
  -2   2  -2    6.27    2.47
  -2   2  -2    2.12    1.52
   2   2   2    2.91    1.06
  -3  -2  -2   17.95    3.15
   3  -2   2   13.86    2.40
   3   2   2   21.49    1.89
  -3   2  -2   17.83    2.06
   3   2   2   18.10    2.61
   4  -2   2    4.75    2.41
  -4  -2  -2    8.40    3.34
  -4   2  -2    1.51    2.10
   4   2   2    7.07    2.51
  -4   2  -2    5.54    3.47
   4   2   2    8.33    2.03
  -5  -2  -2    1.88    3.88
   5  -2   2    6.37    2.88
   5   2   2    7.70    3.08
   5   2   2    0.24    2.15
  -5   2  -2    1.31    3.90
   6  -2   2    8.00    3.34
  -6  -2  -2    5.69    4.50
  -6   2  -2    5.00    4.58
   6   2   2   11.59    3.73
  -6  -3   2    0.33    3.84
   6  -3  -2   10.56    3.87
   6   3  -2   10.13    3.62
   6   3  -2    4.14    3.06
  -6   3   2    4.95    3.83
  -5  -3   2   42.76    5.13
   5  -3  -2   48.96    4.81
   5   3  -2   50.74    4.37
  -5   3   2   44.00    4.78
   5   3  -2   42.57    4.08
  -5   3   2   49.71    3.81
   4  -3  -2    4.05    2.83
  -4  -3   2    1.94    3.23
   4   3  -2    6.22    2.52
  -4   3   2    4.49    1.79
  -4   3   2    6.49    2.86
   4   3  -2    6.38    2.04
   3  -3  -2   24.81    3.25
  -3  -3   2   24.15    3.42
   3   3  -2   24.63    2.79
  -3   3   2   25.11    2.97
  -3   3   2   18.88    2.00
   3   3  -2   22.73    2.06
   2  -3  -2  140.13    5.48
  -2  -3   2  145.32    6.19
   2   3  -2  136.16    4.55
   2   3  -2  128.72    5.22
  -2   3   2  147.95    5.00
  -2   3   2  146.05    5.54
   1  -3  -2  459.97   12.12
  -1  -3   2  462.48   13.41
   1   3  -2  455.69   12.42
   1   3  -2  441.58   11.80
  -1   3   2  429.57   12.24
  -1   3   2  426.24   12.86
   0  -3  -2  951.75   23.43
   0  -3   2  908.92   25.83
   0  -3   2  899.39   23.91
   0   3   2  973.41   24.33
   0   3   2  950.58   26.01
   0   3  -2  934.31   24.14
   1  -3   2  165.28    5.85
   1  -3   2  182.13    5.48
  -1  -3  -2  178.22    7.07
  -1   3  -2  170.67    6.21
   1   3   2  177.29    5.82
   2  -3   2   20.90    2.49
  -2  -3  -2   22.78    3.25
  -2   3  -2   21.17    3.05
   2   3   2   24.96    2.50
  -3  -3  -2  241.05    9.39
   3  -3   2  228.39    8.00
   3   3   2  231.36    8.02
   3   3   2  243.61    6.66
  -3   3  -2  224.58    8.86
   4  -3   2   23.66    3.25
  -4  -3  -2   23.33    4.20
   4   3   2   18.49    3.01
   4   3   2   23.83    2.32
  -4   3  -2   12.63    3.77
  -5  -3  -2    9.02    4.45
   5  -3   2    9.33    3.07
   5   3   2   11.00    2.34
  -5   3  -2    8.42    4.05
   5   3   2    7.29    3.00
   6  -3   2    4.39    3.42
  -6  -3  -2    0.99    4.57
   6   3   2    5.60    3.51
  -6   3  -2    9.31    4.80
  -6  -4   2   -1.05    4.03
   6  -4  -2    9.91    3.89
  -6   4   2    8.66    4.07
   6   4  -2   -0.71    3.33
   6   4  -2   -2.16    2.80
   5  -4  -2   33.50    4.55
  -5  -4   2   35.96    5.07
  -5   4   2   31.59    4.56
   5   4  -2   26.11    3.54
   5   4  -2   32.28    3.46
   4  -4  -2   27.91    3.74
  -4  -4   2   27.53    4.41
  -4   4   2   27.76    2.65
   4   4  -2   32.09    3.28
   4   4  -2   28.59    2.87
  -4   4   2   32.04    3.98
  -3  -4   2  135.06    7.06
   3  -4  -2  137.02    6.11
  -3   4   2  132.26    4.84
   3   4  -2  136.67    4.99
   3   4  -2  131.68    5.41
  -3   4   2  136.78    6.07
   2  -4  -2  113.99    5.16
  -2  -4   2  121.72    6.14
   2   4  -2  118.91    4.90
  -2   4   2  116.99    4.37
  -2   4   2  111.85    5.25
   2   4  -2  110.72    4.21
   1  -4  -2   46.42    3.16
  -1  -4   2   49.24    3.12
  -1  -4   2   53.06    3.90
  -1   4   2   48.37    3.36
  -1   4   2   47.31    3.08
   1   4  -2   44.83    2.84
   0  -4   2   80.50    4.08
   0  -4   2   89.86    4.01
   0  -4  -2   88.93    3.23
   0  -4  -2   77.07    4.67
   0   4  -2   93.10    4.21
   0   4   2   85.66    4.10
   1  -4   2  201.62    6.74
  -1  -4  -2  199.33    7.95
   1  -4   2  204.65    6.18
  -1   4  -2  184.09    7.06
   1   4   2  203.69    6.71
  -2  -4  -2  188.55    7.74
   2  -4   2  176.59    6.47
  -2   4  -2  171.47    7.18
   2   4   2  175.97    6.32
  -3  -4  -2   42.83    4.53
   3  -4   2   47.61    4.01
   3   4   2   35.58    3.37
  -3   4  -2   43.38    4.40
  -4  -4  -2   38.35    4.94
   4  -4   2   33.51    3.76
  -4   4  -2   34.02    4.71
   4   4   2   32.28    3.65
   4   4   2   29.84    2.48
  -5  -4  -2   44.10    5.73
   5  -4   2   37.43    4.32
   5   4   2   31.57    4.04
  -5   4  -2   44.47    5.82
  -6  -4  -2    7.80    4.92
   6  -4   2   13.95    4.03
  -6   4  -2    8.93    4.96
   6   4   2    3.35    3.43
  -6  -5   2   -2.92    4.13
   6  -5  -2   -3.77    3.59
   6   5  -2   -2.24    3.17
  -6   5   2    1.24    4.02
   6   5  -2    4.39    3.06
  -5  -5   2   18.15    4.75
   5  -5  -2   23.88    4.04
   5   5  -2   21.49    3.31
  -5   5   2   21.90    4.13
   5   5  -2   28.01    3.50
   4  -5  -2   15.80    3.41
  -4  -5   2   12.53    4.18
   4   5  -2   21.04    2.74
  -4   5   2   22.54    3.76
  -4   5   2   16.22    2.19
   4   5  -2   21.73    2.94
  -3  -5   2   36.27    4.54
   3  -5  -2   34.10    3.59
   3   5  -2   35.77    2.87
  -3   5   2   30.11    3.62
  -3   5   2   33.53    2.55
   3   5  -2   36.67    3.17
   2  -5  -2   41.01    3.26
  -2  -5   2   26.27    3.78
   2   5  -2   30.19    2.79
  -2   5   2   29.98    3.29
  -2   5   2   31.75    2.60
   2   5  -2   25.90    2.82
  -1  -5   2    0.82    1.67
  -1  -5   2    1.27    2.39
   1  -5  -2    2.96    1.95
   1  -5  -2    0.84    1.60
  -1   5   2    0.04    2.01
   1   5  -2    1.29    1.72
   0  -5   2    3.77    1.78
   0  -5   2    3.26    1.92
   0  -5  -2    2.66    1.30
   0  -5  -2    1.63    2.30
   0   5  -2    6.96    2.16
   0   5   2    2.38    1.98
  -1  -5  -2   75.69    5.10
   1  -5   2   73.59    4.09
   1  -5   2   72.84    3.28
  -1   5  -2   73.88    4.68
   1   5   2   69.42    3.98
   2  -5   2   38.53    3.32
  -2  -5  -2   49.66    4.68
   2   5   2   45.12    3.56
  -2   5  -2   47.32    4.34
   3  -5   2   14.96    2.83
  -3  -5  -2   23.36    4.03
  -3   5  -2   18.87    3.62
   3   5   2   22.16    2.93
  -4  -5  -2   47.39    5.48
   4  -5   2   46.72    4.40
   4   5   2   47.38    4.24
  -4   5  -2   41.08    5.06
  -5  -5  -2    3.07    4.53
   5  -5   2    0.52    3.00
   5   5   2    0.84    2.77
  -5   5  -2   -0.01    4.08
  -6  -5  -2    0.60    5.17
   6  -5   2    2.42    3.58
  -6   5  -2   -1.66    4.72
   6   5   2    1.04    3.33
   6  -6  -2    6.47    3.93
  -6  -6   2    9.92    5.15
  -6   6   2   15.20    4.58
   6   6  -2   10.48    3.39
   5  -6  -2   10.38    3.65
  -5  -6   2   11.80    4.89
   5   6  -2   17.81    3.26
   5   6  -2   14.59    3.05
  -5   6   2   16.02    4.15
   4  -6  -2  122.93    6.63
  -4  -6   2  119.48    8.25
   4   6  -2  116.50    5.61
   4   6  -2  121.59    5.69
  -4   6   2  107.98    6.63
  -3  -6   2   14.72    4.05
   3  -6  -2   11.94    2.92
   3   6  -2   14.05    2.48
   3   6  -2   15.70    2.45
  -3   6   2    9.34    3.22
   2  -6  -2   86.63    4.39
   2  -6  -2   81.22    4.53
  -2  -6   2   92.79    6.18
   2   6  -2   87.43    4.51
  -2   6   2   86.35    5.28
   2   6  -2   83.74    4.26
  -1  -6   2   45.45    3.29
   1  -6  -2   40.54    3.13
   1  -6  -2   40.99    3.85
  -1  -6   2   46.12    4.03
  -1   6   2   40.76    3.58
   1   6  -2   43.42    3.48
   0  -6   2   17.70    2.36
   0  -6  -2   10.78    2.82
   0  -6  -2   16.43    1.69
   0  -6   2   14.09    2.43
   0   6  -2   13.74    2.44
   0   6   2   16.55    2.60
   1  -6   2    3.39    1.56
  -1  -6  -2    5.88    2.77
   1  -6   2    2.80    2.07
   1   6   2    5.69    2.15
  -1   6  -2    6.08    2.62
  -2  -6  -2   27.78    3.84
   2  -6   2   29.33    3.22
  -2   6  -2   26.64    3.61
   2   6   2   32.75    3.17
  -3  -6  -2   44.27    5.00
   3  -6   2   45.46    4.04
  -3   6  -2   37.52    4.39
   3   6   2   46.87    4.15
   4  -6   2    1.83    2.78
  -4  -6  -2   -1.72    3.78
   4   6   2    1.92    2.53
  -4   6  -2    1.21    3.54
   5  -6   2    5.30    3.36
  -5  -6  -2   -2.44    4.64
  -5   6  -2   -0.16    4.14
   5   6   2    1.92    2.92
  -6   6  -2    8.21    4.86
  -5  -7   2    5.72    4.83
   5  -7  -2    1.99    3.32
  -5   7   2    2.43    3.66
   5   7  -2    5.06    2.96
  -4  -7   2   48.53    6.10
   4  -7  -2   46.30    4.58
  -4   7   2   35.83    4.74
   4   7  -2   50.34    4.42
   4   7  -2   48.70    4.13
   3  -7  -2    8.22    1.95
   3  -7  -2    7.31    2.88
  -3  -7   2    5.99    4.04
   3   7  -2    8.76    2.46
  -3   7   2    7.93    3.32
   3   7  -2    6.39    2.35
   2  -7  -2    7.78    2.34
   2  -7  -2   10.22    2.44
  -2  -7   2    8.99    3.65
  -2   7   2    9.68    3.00
   2   7  -2    7.29    2.29
   2   7  -2   10.24    2.37
   1  -7  -2   13.67    2.17
  -1  -7   2   16.00    3.35
   1  -7  -2   12.05    2.60
  -1  -7   2   10.06    2.14
  -1   7   2   15.82    2.93
   1   7  -2    9.89    2.42
   0  -7  -2   13.07    1.76
   0  -7   2   15.30    2.44
   0  -7  -2   17.41    3.05
   0  -7   2   14.76    2.71
   0   7   2   19.04    2.98
   0   7  -2   18.19    2.87
   1  -7   2   84.34    4.70
   1  -7   2   97.80    4.27
  -1  -7  -2   96.39    6.06
   1   7   2   94.89    5.07
  -1   7  -2   83.76    5.36
  -2  -7  -2   12.37    3.70
   2  -7   2   15.62    2.73
   2   7   2   14.61    2.73
  -2   7  -2   15.50    3.45
   3  -7   2    8.29    2.88
  -3  -7  -2    3.49    3.66
  -3   7  -2    4.32    3.40
   3   7   2    9.75    2.74
   4  -7   2   42.16    4.62
  -4  -7  -2   40.81    5.68
   4   7   2   39.49    4.39
  -4   7  -2   43.32    5.40
  -5  -7  -2    0.12    4.97
   5  -7   2    0.05    3.31
  -5   7  -2    6.32    4.43
   5   7   2   -1.59    3.07
  -5  -8   2   -0.72    4.81
   5  -8  -2    0.32    3.28
  -5   8   2   -4.15    3.51
   5   8  -2    2.23    2.94
   4  -8  -2    7.99    3.33
  -4  -8   2   14.01    5.11
   4   8  -2   11.67    2.72
   4   8  -2   18.29    3.28
  -4   8   2    8.83    4.00
  -3  -8   2    3.12    4.13
   3  -8  -2    1.24    2.58
   3   8  -2    5.00    2.32
   3   8  -2    5.08    2.59
  -3   8   2    4.59    3.14
   2  -8  -2   39.18    3.62
   2  -8  -2   45.39    4.03
  -2  -8   2   41.11    5.04
   2   8  -2   40.21    3.56
   2   8  -2   40.56    3.57
  -2   8   2   37.41    4.10
   1  -8  -2   42.65    3.49
  -1  -8   2   54.14    4.91
  -1  -8   2   47.79    3.69
   1  -8  -2   42.46    4.00
   1   8  -2   49.89    4.25
  -1   8   2   45.18    4.38
   0  -8  -2    4.42    2.84
   0  -8   2    6.11    2.29
   0  -8  -2    7.15    1.67
   0  -8   2    6.02    2.60
   0   8   2    6.00    2.72
   0   8  -2    5.49    2.72
   1  -8   2   41.54    3.20
   1  -8   2   38.04    3.52
  -1  -8  -2   39.35    4.70
   1   8   2   35.57    3.68
  -1   8  -2   39.94    4.29
  -2  -8  -2   -1.83    3.14
   2  -8   2    0.72    2.38
   2   8   2    1.60    2.46
  -2   8  -2   -0.29    3.09
   3  -8   2   18.76    3.35
  -3  -8  -2   17.99    4.47
   3   8   2   17.00    3.19
  -3   8  -2   20.95    4.18
  -4  -8  -2    6.11    4.57
   4  -8   2    3.93    3.13
  -4   8  -2    6.10    3.98
   4   8   2    3.40    2.88
  -5  -8  -2   -1.40    5.06
   5  -8   2   -1.95    3.23
  -5   8  -2    8.77    4.45
   5   8   2   -0.83    3.20
  -5  -9   2   -5.54    4.93
   5  -9  -2   -8.28    3.12
  -5   9   2   -7.84    3.80
   5   9  -2    3.70    3.25
  -4  -9   2   -7.05    4.30
   4  -9  -2   -2.44    2.97
  -4   9   2   -1.73    3.62
   4   9  -2    4.21    2.93
  -3  -9   2   39.82    5.85
   3  -9  -2   44.30    4.31
  -3   9   2   33.44    4.59
   3   9  -2   55.15    4.13
   3   9  -2   41.82    4.08
   2  -9  -2    6.51    2.42
   2  -9  -2    8.74    2.52
  -2  -9   2   -1.63    3.76
   2   9  -2    9.44    2.78
  -2   9   2   -0.62    3.01
   2   9  -2    4.79    2.51
   1  -9  -2  108.66    6.27
  -1  -9   2  101.86    7.24
   1  -9  -2  103.19    4.95
  -1  -9   2  108.86    5.28
   1   9  -2  113.09    5.95
  -1   9   2  106.36    6.59
   0  -9  -2   60.30    5.37
   0  -9  -2   58.28    3.37
   0  -9   2   60.70    4.40
   0  -9   2   54.33    4.67
   0   9  -2   70.09    5.43
   0   9   2   52.16    4.70
   1  -9   2    3.03    2.52
   1  -9   2   -1.57    2.07
  -1  -9  -2    7.13    3.58
  -1   9  -2   -2.49    2.91
   1   9   2    5.22    2.68
   2  -9   2    0.75    2.57
  -2  -9  -2    4.91    3.65
  -2   9  -2   -1.10    3.32
   2   9   2    0.92    2.65
   3  -9   2   41.22    4.36
  -3  -9  -2   47.55    5.83
  -3   9  -2   28.64    4.78
   3   9   2   39.52    4.21
  -4  -9  -2   15.57    5.33
   4  -9   2   17.93    4.00
  -4   9  -2   16.04    4.49
   4   9   2   10.57    3.49
   4 -10  -2    5.25    3.19
  -4 -10   2   10.64    5.34
   4  10  -2    2.92    3.17
  -4  10   2    6.87    3.95
  -3 -10   2   -0.52    4.63
   3 -10  -2    3.09    2.79
  -3  10   2   -0.29    3.31
   3  10  -2    8.70    3.04
  -2 -10   2   63.20    6.51
   2 -10  -2   88.52    7.07
   2 -10  -2   54.02    4.53
   2  10  -2   56.57    4.72
   2  10  -2   64.10    5.09
  -2  10   2   47.41    5.24
   1 -10  -2   45.55    3.88
  -1 -10   2   45.38    4.08
   1 -10  -2   54.89    4.98
  -1 -10   2   57.85    5.57
  -1  10   2   46.73    4.97
   1  10  -2   53.62    4.82
   0 -10   2   12.98    3.43
   0 -10  -2   13.16    3.91
   0 -10  -2   14.89    2.22
   0 -10   2   14.93    2.89
   0  10   2   10.38    3.44
   0  10  -2   13.38    3.58
   1 -10   2  128.28    6.39
  -1 -10  -2  123.51    8.01
   1 -10   2  120.71    5.90
  -1  10  -2  127.60    7.38
   1  10   2  119.34    6.51
   2 -10   2    7.09    2.97
  -2 -10  -2   -3.92    3.66
   2  10   2    1.75    2.77
  -2  10  -2    4.59    3.48
  -3 -10  -2    6.55    4.77
   3 -10   2   -0.43    3.01
  -3  10  -2    0.35    3.77
   3  10   2    5.65    3.08
  -4 -10  -2   -2.62    4.97
   4 -10   2    2.87    3.18
  -4  10  -2    4.11    4.23
   4  10   2   -1.17    3.02
   3 -11  -2    9.96    3.22
  -3 -11   2    4.19    5.04
  -3  11   2    7.17    4.13
   3  11  -2   14.08    3.36
  -2 -11   2    5.39    4.66
   2 -11  -2    6.91    2.67
   2  11  -2   10.09    3.35
  -2  11   2   10.17    4.04
   1 -11  -2   84.23    6.29
  -1 -11   2   72.59    4.96
  -1 -11   2   71.99    7.00
   1 -11  -2   63.28    4.55
  -1  11   2   81.88    6.44
   1  11  -2   80.44    6.17
   0 -11   2   16.57    3.90
   0 -11   2   23.69    3.29
   0 -11  -2   28.89    4.41
   0  11  -2   21.98    4.18
   0  11   2   10.22    3.75
  -1 -11  -2   12.22    4.36
   1 -11   2   12.22    3.12
  -1  11  -2    5.79    3.81
   1  11   2   14.47    3.53
  -2 -11  -2    6.48    4.33
   2 -11   2   -0.84    2.67
   2  11   2    4.24    3.19
  -2  11  -2    1.64    3.71
   3 -11   2    1.76    3.06
  -3 -11  -2   -1.76    4.85
  -3  11  -2    1.21    4.20
   3  11   2    5.23    3.23
  -2 -12   2   -1.22    4.35
   2 -12  -2    1.20    2.52
   2  12  -2    5.42    3.52
  -2  12   2    5.33    4.06
  -1 -12   2    7.83    4.31
  -1 -12   2   11.89    3.14
   1 -12  -2   12.68    3.86
  -1  12   2   11.59    4.17
   1  12  -2   11.89    3.89
   0 -12   2   17.60    3.32
   0 -12   2   13.41    3.98
   0 -12  -2   21.64    4.65
   0  12   2   15.72    4.08
   0  12  -2   11.89    4.12
   1 -12   2   -1.85    2.77
  -1 -12  -2    8.30    4.27
   1  12   2    2.89    3.26
  -1  12  -2    0.12    3.71
  -2 -12  -2    4.98    4.66
   2 -12   2   -1.22    2.88
  -2  12  -2    8.16    4.11
   2  12   2    4.08    3.47
  -1 -13   2   -3.65    4.10
   1  13  -2    1.94    3.74
  -1  13   2    1.40    3.84
   0 -13   2   -1.94    2.64
   0 -13  -2   -1.63    3.99
   0  13  -2    0.97    3.91
   0  13   2   -1.19    3.67
  -1 -13  -2    3.60    4.51
   1 -13   2    0.61    2.97
  -1  13  -2    6.18    4.20
   1  13   2   -1.37    3.35
  -6   0   3    6.92    3.31
  -6   0   3   14.19    3.84
   6   0  -3    7.13    3.93
   5   0  -3    2.45    3.04
  -5   0   3    0.05    2.71
  -5   0   3    2.52    2.71
  -4   0   3    2.05    2.40
  -4   0   3    4.02    2.33
   4   0  -3    1.48    2.68
  -3   0   3   83.88    3.77
  -3   0   3   81.63    4.57
   3   0  -3   73.56    4.68
   2   0  -3   31.53    2.96
  -2   0   3   35.15    2.17
  -2   0   3   33.73    3.28
   1   0  -3    4.29    2.02
  -1   0   3    8.85    2.00
   0   0   3   71.41    3.62
   0   0  -3   66.53    3.65
   0   0   3   63.19    2.59
   1   0   3   97.55    3.84
   1   0   3  105.16    4.42
   1   0   3   99.27    3.94
  -2   0  -3   87.89    4.88
   2   0   3   91.78    3.78
   2   0   3   87.76    4.14
   3   0   3    4.65    1.85
  -3   0  -3    8.04    2.50
   3   0   3    8.70    2.34
  -4   0  -3    2.32    2.84
   4   0   3    0.69    2.09
   4   0   3    1.05    2.61
   5   0   3   19.75    3.86
  -5   0  -3   32.57    4.15
   5   0   3   25.67    3.42
   6   0   3   21.60    3.74
   6   0   3   18.61    4.27
  -6  -1   3    6.11    3.46
  -6  -1   3   12.29    3.58
   6  -1  -3    7.14    3.80
  -6   1   3    9.89    3.57
  -6   1   3    8.43    3.14
   6   1  -3    8.04    3.95
   5  -1  -3    9.24    3.55
  -5  -1   3   11.87    3.43
  -5  -1   3   14.08    3.07
  -5   1   3    7.10    3.01
  -5   1   3   11.53    2.88
   5   1  -3   16.60    3.47
  -4  -1   3   -2.31    2.54
   4  -1  -3    4.55    2.69
  -4  -1   3    2.36    2.06
  -4   1   3    0.87    2.15
   4   1  -3    0.63    2.64
  -4   1   3    2.04    2.32
   3  -1  -3    2.82    2.41
  -3  -1   3    4.62    2.46
  -3  -1   3    4.17    1.63
  -3   1   3   11.33    2.05
  -3   1   3    8.13    2.06
   3   1  -3    7.79    2.44
  -2  -1   3   88.10    3.04
  -2  -1   3   90.97    4.66
   2  -1  -3   90.30    4.64
  -2   1   3   87.63    3.50
   2   1  -3   80.70    4.53
  -2   1   3   90.68    4.21
   1  -1  -3  282.25    8.50
  -1  -1   3  289.91    9.09
  -1   1   3  286.28    8.96
   1   1  -3  287.45    8.81
  -1   1   3  276.52    7.72
   0  -1   3  386.86   10.81
   0  -1   3  399.47   11.68
   0  -1  -3  404.05   10.84
   0  -1   3  390.94   10.30
   0   1   3  388.21   11.71
   0   1   3  389.09   10.49
   1  -1   3   83.33    3.79
   1  -1   3   86.66    3.75
   1  -1   3   83.48    3.59
   1   1   3   86.19    3.68
   1   1   3   88.36    4.24
   1   1   3   84.68    3.26
   2  -1   3   13.78    1.94
   2  -1   3   11.24    2.04
   2  -1   3   14.07    2.30
  -2  -1  -3   16.78    2.86
   2   1   3   12.27    2.18
   2   1   3   15.10    1.67
  -3  -1  -3   58.32    4.72
   3  -1   3   60.48    3.86
   3  -1   3   66.48    4.29
   3   1   3   53.89    3.97
  -3   1  -3   56.24    3.98
   3   1   3   63.32    3.35
   4  -1   3   11.40    2.73
  -4  -1  -3   15.50    3.48
   4  -1   3   13.15    3.08
   4   1   3   14.58    3.07
   4   1   3   11.77    2.31
  -4   1  -3   12.31    2.86
   5  -1   3   17.80    3.28
   5  -1   3   23.77    3.94
  -5  -1  -3   20.33    4.27
   5   1   3   23.70    3.87
   5   1   3   28.28    3.28
   6  -1   3   28.02    4.18
   6   1   3   33.96    4.28
   6   1   3   22.47    4.33
  -6   1  -3   27.39    5.46
  -6  -2   3    2.70    3.64
   6  -2  -3    2.40    3.64
  -6  -2   3    2.02    3.06
  -6   2   3    3.82    3.44
   6   2  -3   -1.38    3.35
   5  -2  -3   70.01    5.81
  -5  -2   3   51.12    5.13
   5   2  -3   59.04    5.00
  -5   2   3   61.22    4.66
  -5   2   3   67.36    5.55
  -4  -2   3   43.83    4.46
   4  -2  -3   47.89    4.34
  -4   2   3   48.24    3.96
   4   2  -3   54.77    3.40
  -4   2   3   52.92    4.30
   4   2  -3   50.99    4.19
   3  -2  -3   59.45    4.44
  -3  -2   3   57.14    4.76
   3   2  -3   62.05    2.83
  -3   2   3   67.14    3.94
   3   2  -3   63.91    4.32
  -3   2   3   57.85    3.76
  -2  -2   3    0.34    2.18
   2  -2  -3   -2.91    2.08
   2   2  -3   -0.86    2.03
  -2   2   3    1.43    1.61
  -2   2   3    0.04    1.62
   2   2  -3    0.34    0.80
   1  -2  -3   81.57    4.02
  -1  -2   3   86.35    4.43
   1   2  -3   84.27    4.49
  -1   2   3   85.49    4.08
  -1   2   3   82.32    3.41
   0  -2   3   33.52    2.98
   0  -2  -3   32.67    2.62
   0  -2   3   26.46    2.42
   0   2   3   30.81    2.54
   0   2  -3   30.58    2.53
   0   2   3   32.24    3.12
   1  -2   3  120.06    4.73
  -1  -2  -3  120.08    4.02
   1  -2   3  118.95    4.49
   1   2   3  123.01    5.18
   1   2   3  120.90    4.59
  -1   2  -3  113.68    5.16
   2  -2   3   35.23    2.88
  -2  -2  -3   32.62    3.58
   2  -2   3   37.70    2.63
   2  -2   3   37.50    3.28
   2   2   3   37.44    3.10
   2   2   3   35.05    2.03
  -3  -2  -3   35.69    3.95
   3  -2   3   36.12    3.36
   3  -2   3   40.22    3.57
  -3   2  -3   43.97    3.41
   3   2   3   39.15    2.61
   3   2   3   42.75    3.86
  -4  -2  -3    8.36    3.43
   4  -2   3    7.25    2.68
  -4   2  -3   11.11    2.33
   4   2   3    8.52    2.76
   4   2   3    4.78    1.94
   5  -2   3   30.11    3.89
  -5  -2  -3   29.39    4.74
  -5   2  -3   30.58    5.23
   5   2   3   39.20    4.48
   5   2   3   35.14    3.30
  -6  -2  -3   -0.70    4.29
   6  -2   3    2.38    3.23
  -6   2  -3   -1.33    4.31
   6   2   3    3.11    3.66
  -6  -3   3   -3.28    3.66
   6  -3  -3    8.05    3.82
   6   3  -3   -0.82    3.12
  -6   3   3    0.59    3.64
   5  -3  -3   30.86    4.50
  -5  -3   3   30.65    4.86
  -5   3   3   33.88    4.23
   5   3  -3   33.62    3.36
  -5   3   3   35.94    3.47
   5   3  -3   36.12    4.09
   4  -3  -3   85.09    5.95
  -4  -3   3   82.80    6.22
  -4   3   3   77.98    5.31
   4   3  -3   75.87    5.10
   4   3  -3   88.67    4.02
  -4   3   3   83.74    4.49
  -3  -3   3   31.87    3.83
   3  -3  -3   29.52    3.36
  -3   3   3   30.85    3.09
   3   3  -3   36.81    2.43
   3   3  -3   32.24    3.21
  -3   3   3   30.47    2.90
   2  -3  -3   16.27    2.59
  -2  -3   3   18.59    2.90
   2   3  -3   20.22    2.76
  -2   3   3   19.01    2.19
   2   3  -3   22.20    1.70
  -2   3   3   24.35    2.46
   1  -3  -3   16.56    2.25
  -1  -3   3   16.49    2.56
  -1   3   3   15.70    2.17
  -1   3   3   17.16    2.02
   1   3  -3   12.78    2.46
   1   3  -3   18.85    1.50
   0  -3   3  172.54    6.03
   0  -3   3  174.96    6.17
   0  -3  -3  175.58    5.44
   0   3   3  180.21    5.83
   0   3   3  176.79    6.48
   0   3  -3  175.22    5.76
  -1  -3  -3  409.53   10.47
  -1  -3  -3  401.94   13.10
   1  -3   3  403.64   11.79
   1  -3   3  397.51   11.52
   1   3   3  411.37   11.57
  -1   3  -3  407.94   11.85
   2  -3   3   98.04    3.88
   2  -3   3  110.22    4.87
  -2  -3  -3   96.21    5.74
   2   3   3  106.92    3.16
   2   3   3  103.64    4.69
  -2   3  -3   97.06    5.32
  -3  -3  -3   74.00    5.86
   3  -3   3   80.36    4.69
   3   3   3   77.29    2.98
  -3   3  -3   89.69    6.10
   3   3   3   77.83    4.60
  -3   3  -3   85.72    3.79
  -4  -3  -3   26.04    4.40
   4  -3   3   24.43    3.43
  -4   3  -3   23.54    4.49
   4   3   3   31.52    2.66
   4   3   3   24.31    3.33
   5  -3   3   27.52    4.00
  -5  -3  -3   28.10    4.93
   5   3   3   19.03    3.60
  -5   3  -3   27.07    5.07
  -6  -3  -3    0.33    4.55
  -6   3  -3    8.72    4.81
   6   3   3    1.50    3.38
  -6  -4   3   -4.34    3.92
   6  -4  -3    1.16    3.76
   6   4  -3    2.70    3.27
  -6   4   3    2.77    3.66
   5  -4  -3   13.96    3.77
  -5  -4   3    5.78    3.94
   5   4  -3   12.39    2.60
  -5   4   3    0.17    3.04
   5   4  -3   16.85    3.34
   4  -4  -3   38.68    4.50
  -4  -4   3   38.64    4.75
   4   4  -3   44.21    4.01
  -4   4   3   42.26    4.08
  -4   4   3   33.39    3.33
   4   4  -3   43.51    3.31
   3  -4  -3    9.81    2.90
  -3  -4   3    3.53    2.96
  -3   4   3    3.73    1.82
   3   4  -3    6.23    1.56
  -3   4   3    9.09    2.56
   3   4  -3    0.83    2.18
  -2  -4   3   74.55    5.03
   2  -4  -3   65.53    4.12
   2   4  -3   64.59    2.88
  -2   4   3   64.24    3.72
   2   4  -3   65.57    4.36
  -2   4   3   70.70    4.07
   1  -4  -3  269.00    7.99
  -1  -4   3  253.78    8.98
   1   4  -3  269.16    8.68
  -1   4   3  265.14    8.24
   1   4  -3  253.20    7.52
  -1   4   3  266.10    8.58
   0  -4   3   20.21    2.41
   0  -4  -3   23.30    1.84
   0  -4   3   20.31    2.33
   0   4   3   21.06    2.38
   0   4  -3   17.92    2.33
   0   4   3   23.04    2.68
  -1  -4  -3  264.63    9.66
   1  -4   3  255.52    8.32
   1  -4   3  265.94    8.12
  -1   4  -3  258.59    8.57
   1   4   3  258.90    8.22
  -2  -4  -3   26.05    3.65
   2  -4   3   29.51    2.97
   2  -4   3   24.38    2.08
  -2   4  -3   27.75    3.41
   2   4   3   27.35    2.88
   3  -4   3   18.76    2.87
  -3  -4  -3   14.05    3.53
   3   4   3   17.33    2.75
  -3   4  -3   15.21    3.71
  -4  -4  -3   19.66    4.35
   4  -4   3   18.70    3.37
   4   4   3   15.09    3.12
  -4   4  -3   10.29    4.25
  -5  -4  -3    6.35    4.16
   5  -4   3    6.48    3.22
   5   4   3    2.73    2.89
  -5   4  -3   13.25    4.78
  -6  -4  -3    2.89    4.89
   6  -4   3    3.95    3.54
   6   4   3    3.99    3.58
  -6   4  -3    0.14    4.61
   6  -5  -3    4.53    3.98
  -6  -5   3   -5.84    4.00
  -6   5   3    5.00    3.90
   6   5  -3    0.10    3.07
   5  -5  -3    1.84    3.41
  -5  -5   3    3.89    4.04
  -5   5   3    4.02    3.34
   5   5  -3    6.17    2.39
   5   5  -3    4.03    2.83
   4  -5  -3    3.81    3.06
  -4  -5   3   20.52    4.31
  -4   5   3    9.57    3.22
   4   5  -3    8.57    2.18
   4   5  -3    5.98    2.79
  -4   5   3    7.13    1.99
  -3  -5   3   47.64    4.74
   3  -5  -3   46.15    4.10
  -3   5   3   37.47    3.86
   3   5  -3   41.68    3.62
  -3   5   3   41.82    3.19
   3   5  -3   38.91    2.94
   2  -5  -3   30.80    3.20
  -2  -5   3   28.55    3.64
   2   5  -3   29.34    2.66
   2   5  -3   37.60    3.42
  -2   5   3   32.85    3.04
  -2   5   3   39.01    3.43
  -1  -5   3   27.68    2.86
  -1  -5   3   33.39    3.32
   1  -5  -3   37.38    3.16
  -1   5   3   38.30    3.37
   1   5  -3   30.11    2.76
  -1   5   3   44.73    3.68
   0  -5  -3   39.14    3.71
   0  -5  -3   36.91    2.50
   0  -5   3   37.35    3.40
   0  -5   3   37.60    3.08
   0   5  -3   39.80    3.32
   0   5   3   36.82    3.31
   1  -5   3   79.80    4.49
  -1  -5  -3   76.11    5.48
   1  -5   3   86.79    3.78
  -1   5  -3   80.52    4.81
   1   5   3   89.63    4.54
   2  -5   3    0.81    1.09
  -2  -5  -3   -0.22    2.62
   2  -5   3    0.49    2.20
  -2   5  -3   -1.99    2.50
   2   5   3    3.43    2.05
  -3  -5  -3   16.36    3.84
   3  -5   3   19.07    3.03
   3   5   3   19.32    3.00
  -3   5  -3   19.60    3.91
  -4  -5  -3   21.79    4.61
   4  -5   3   24.61    3.68
   4   5   3   29.96    3.77
  -4   5  -3   15.73    4.45
  -5  -5  -3    9.14    4.44
   5  -5   3    7.16    3.34
   5   5   3    1.43    2.87
  -5   5  -3   -0.80    4.11
  -6   5  -3   13.21    5.54
   6  -6  -3    2.94    3.83
  -6  -6   3    3.96    4.77
   6   6  -3    1.40    3.25
  -6   6   3    3.01    4.01
   5  -6  -3    3.21    3.57
  -5  -6   3    2.61    4.29
   5   6  -3    1.58    2.51
  -5   6   3    1.03    3.37
   5   6  -3    3.94    2.86
  -4  -6   3    7.01    4.01
   4  -6  -3    5.27    3.12
   4   6  -3    5.35    2.22
   4   6  -3    6.56    2.80
  -4   6   3    3.38    3.33
  -3  -6   3   11.51    3.80
   3  -6  -3   11.95    3.02
  -3   6   3    7.80    3.08
   3   6  -3   10.11    2.60
   3   6  -3   17.73    2.37
  -3   6   3   13.82    2.18
   2  -6  -3   64.41    4.42
  -2  -6   3   71.81    5.54
  -2   6   3   66.25    3.89
  -2   6   3   67.88    4.77
   2   6  -3   65.30    3.75
   2   6  -3   66.13    4.62
   1  -6  -3   37.81    3.07
  -1  -6   3   41.55    3.64
  -1  -6   3   43.70    3.87
   1  -6  -3   39.78    3.75
   1   6  -3   43.29    3.33
  -1   6   3   40.05    3.59
   0  -6  -3    9.35    2.77
   0  -6   3    7.09    2.23
   0  -6  -3    7.30    1.46
   0  -6   3    6.99    2.27
   0   6   3    7.52    2.40
   0   6  -3    7.13    2.29
   1  -6   3   11.80    1.94
   1  -6   3    7.66    2.36
  -1  -6  -3    7.94    3.09
  -1   6  -3    9.73    2.89
   1   6   3    8.82    2.43
   2  -6   3   79.58    4.75
   2  -6   3   75.08    3.07
  -2  -6  -3   77.41    6.06
   2   6   3   79.83    4.63
  -2   6  -3   77.61    5.73
  -3  -6  -3   22.65    4.40
   3  -6   3   17.34    3.26
   3   6   3   17.03    3.06
  -3   6  -3   26.69    4.17
  -4  -6  -3   36.39    5.39
   4  -6   3   42.96    4.54
  -4   6  -3   42.05    5.44
   4   6   3   42.81    4.47
  -5  -6  -3    3.61    4.56
   5  -6   3    5.85    3.37
   5   6   3    8.41    3.41
  -5   6  -3   14.26    4.81
  -5  -7   3   -1.70    4.39
   5  -7  -3    3.75    3.48
   5   7  -3    5.81    3.01
  -5   7   3    3.79    3.81
  -4  -7   3    6.04    4.47
   4  -7  -3   13.91    3.55
  -4   7   3    4.56    3.42
   4   7  -3   10.57    2.96
   4   7  -3   13.42    2.71
   3  -7  -3   44.24    4.29
  -3  -7   3   41.38    5.05
  -3   7   3   44.16    4.46
   3   7  -3   48.24    3.89
   3   7  -3   37.51    3.82
   2  -7  -3   48.65    4.30
  -2  -7   3   51.67    4.88
   2  -7  -3   47.36    4.15
   2   7  -3   48.74    3.83
   2   7  -3   51.62    4.44
  -2   7   3   49.28    4.47
   1  -7  -3   23.67    2.55
   1  -7  -3   31.91    3.56
  -1  -7   3   28.67    3.68
  -1  -7   3   25.87    3.02
   1   7  -3   23.24    2.79
  -1   7   3   25.77    3.48
   0  -7  -3   43.52    2.76
   0  -7   3   47.86    3.92
   0  -7  -3   53.07    4.76
   0  -7   3   47.36    4.03
   0   7   3   44.69    3.91
   0   7  -3   47.58    3.84
   1  -7   3    8.74    2.12
   1  -7   3    7.12    2.53
  -1  -7  -3    8.81    3.09
  -1   7  -3    8.25    3.02
   1   7   3    7.39    2.55
   2  -7   3    4.26    1.66
  -2  -7  -3    3.73    3.23
   2  -7   3    2.06    2.56
  -2   7  -3    3.13    3.07
   2   7   3    1.54    2.33
  -3  -7  -3   33.13    4.89
   3  -7   3   32.47    3.78
   3   7   3   35.73    3.98
  -3   7  -3   26.25    4.51
  -4  -7  -3   19.83    4.79
   4  -7   3   24.69    3.95
  -4   7  -3   20.71    4.73
   4   7   3   25.17    3.89
  -5  -7  -3    1.87    4.66
   5  -7   3    2.45    3.42
   5   7   3   -1.04    2.96
  -5   7  -3    4.56    4.45
   5  -8  -3   14.50    4.13
  -5  -8   3   17.10    5.54
  -5   8   3    7.57    4.21
   4  -8  -3   20.03    3.84
  -4  -8   3   31.68    5.54
  -4   8   3   32.20    4.67
   4   8  -3   32.51    3.70
   4   8  -3   38.30    3.90
   3  -8  -3   15.86    2.64
  -3  -8   3    7.69    4.10
   3  -8  -3    8.32    2.85
  -3   8   3    5.32    3.36
   3   8  -3    9.65    2.59
   3   8  -3    9.23    2.76
   2  -8  -3   27.30    3.22
  -2  -8   3   23.99    4.31
   2  -8  -3   27.40    3.56
   2   8  -3   24.20    3.43
   2   8  -3   26.51    3.05
  -2   8   3   23.19    3.76
   1  -8  -3   28.57    3.84
   1  -8  -3   33.58    2.94
  -1  -8   3   36.88    3.48
  -1  -8   3   33.85    4.07
   1   8  -3   36.81    3.54
  -1   8   3   30.98    3.84
   0  -8   3   62.59    4.44
   0  -8  -3   67.15    5.69
   0  -8   3   60.33    4.87
   0  -8  -3   65.60    3.22
   0   8  -3   63.00    4.95
   0   8   3   67.69    5.15
   1  -8   3   54.65    4.54
  -1  -8  -3   61.38    5.77
   1  -8   3   55.18    3.98
  -1   8  -3   63.11    5.62
   1   8   3   55.40    4.75
   2  -8   3   14.64    3.12
  -2  -8  -3   10.97    3.74
   2   8   3   12.57    2.91
  -2   8  -3   10.86    3.56
  -3  -8  -3    6.94    3.89
   3  -8   3    6.05    3.01
  -3   8  -3    9.25    3.80
   3   8   3    5.44    2.83
  -4  -8  -3    2.81    4.36
   4  -8   3    1.58    2.95
   4   8   3    6.13    3.11
  -4   8  -3    4.11    4.02
  -5  -8  -3   12.47    5.62
   5  -8   3    6.41    3.58
  -5   8  -3   11.43    4.98
   5   8   3    7.46    3.42
   4  -9  -3    3.76    3.06
  -4  -9   3    2.04    4.55
   4   9  -3   11.11    3.49
   4   9  -3    2.05    2.76
  -4   9   3    2.50    3.51
   3  -9  -3   67.07    5.04
  -3  -9   3   64.87    6.48
  -3   9   3   63.99    5.67
   3   9  -3   63.21    5.02
   3   9  -3   73.03    4.94
   2  -9  -3    7.69    2.54
   2  -9  -3   11.62    2.92
  -2  -9   3    7.93    3.83
  -2   9   3    5.35    3.25
   2   9  -3   11.13    2.77
   2   9  -3    4.76    2.84
  -1  -9   3   26.65    4.08
   1  -9  -3   30.03    2.87
  -1  -9   3   28.22    3.38
   1  -9  -3   35.80    4.15
   1   9  -3   31.93    3.77
  -1   9   3   27.22    4.00
   0  -9  -3  114.18    6.97
   0  -9  -3  119.16    4.52
   0  -9   3  110.24    6.26
   0  -9   3  118.24    5.91
   0   9  -3  118.84    6.45
   0   9   3  110.60    6.49
  -1  -9  -3    0.45    3.24
   1  -9   3    1.17    2.05
   1  -9   3    3.16    2.59
  -1   9  -3   -1.46    3.09
   1   9   3    2.53    2.75
  -2  -9  -3   44.05    5.55
   2  -9   3   37.60    4.13
  -2   9  -3   30.10    4.67
   2   9   3   38.68    4.09
  -3  -9  -3    4.09    4.00
   3  -9   3   -0.48    2.87
   3   9   3    1.91    2.80
  -3   9  -3   -1.11    3.54
  -4  -9  -3    5.69    4.67
   4  -9   3   12.18    3.61
  -4   9  -3   11.36    4.45
   4   9   3    4.79    3.19
  -4 -10   3    4.38    4.98
   4 -10  -3    4.13    3.37
  -4  10   3   -1.03    3.65
  -3 -10   3   33.93    5.74
   3 -10  -3   30.19    3.89
   3  10  -3   37.18    3.89
   3  10  -3   29.21    3.76
  -3  10   3   36.91    4.99
   2 -10  -3    6.69    2.52
  -2 -10   3    3.85    3.85
   2 -10  -3   11.89    2.97
   2  10  -3    3.99    2.78
   2  10  -3    4.06    2.93
  -2  10   3    8.51    3.70
  -1 -10   3   10.61    3.70
   1 -10  -3   18.79    2.63
   1 -10  -3   19.34    3.73
  -1 -10   3   14.30    3.13
   1  10  -3   17.16    3.46
  -1  10   3   16.26    3.95
   0 -10  -3    3.68    3.26
   0 -10   3   -1.33    2.44
   0 -10   3    2.03    2.89
   0  10  -3    1.23    3.18
   0  10   3    2.37    3.04
  -1 -10  -3    7.85    3.83
   1 -10   3    4.33    2.76
  -1  10  -3   -2.24    3.31
   1  10   3    2.16    2.95
  -2 -10  -3   12.45    4.38
   2 -10   3   15.63    3.47
   2  10   3   10.23    3.28
  -2  10  -3   16.20    4.34
  -3 -10  -3    5.07    4.20
   3 -10   3   -0.47    2.89
   3  10   3    2.77    2.92
   4 -10   3    7.27    3.67
  -4 -10  -3   12.04    5.39
   4  10   3    8.24    3.44
  -4  10  -3    5.17    4.45
  -3 -11   3    8.88    4.80
   3 -11  -3    8.47    2.95
   3  11  -3   12.26    3.34
  -3  11   3   11.21    4.23
   2 -11  -3   29.20    3.40
  -2 -11   3   22.75    5.02
  -2  11   3   26.61    4.80
   2  11  -3   35.46    4.30
   2  11  -3   24.24    3.87
  -1 -11   3   16.43    3.40
  -1 -11   3   16.42    4.20
   1 -11  -3   30.20    4.35
   1  11  -3   20.21    3.83
  -1  11   3   20.24    4.39
   0 -11   3   -6.31    2.78
   0 -11  -3    4.82    3.67
   0 -11   3    0.43    2.66
   0  11   3    3.36    3.37
   0  11  -3    2.34    3.42
  -1 -11  -3   13.55    4.53
   1 -11   3   18.46    3.61
  -1  11  -3   17.12    4.35
   1  11   3   15.10    3.76
   2 -11   3    4.75    3.21
  -2 -11  -3    0.97    3.85
   2  11   3   -1.09    2.99
  -2  11  -3    3.23    3.77
  -3 -11  -3   23.82    5.64
   3 -11   3   18.00    3.93
  -3  11  -3   10.71    4.57
   3  11   3    9.80    3.63
   2 -12  -3   -4.59    2.24
  -2 -12   3   -6.41    3.96
  -2  12   3    5.73    3.99
   2  12  -3    1.30    3.08
  -1 -12   3    1.51    2.87
  -1 -12   3    0.16    3.85
   1 -12  -3   14.16    4.01
  -1  12   3    4.94    3.86
   1  12  -3    1.31    3.46
   0 -12  -3   28.87    4.80
   0 -12   3   20.97    4.26
   0 -12   3   21.17    3.63
   0  12  -3   10.41    4.22
   0  12   3   14.77    4.16
  -1 -12  -3    9.59    4.07
   1 -12   3   -3.35    2.88
   1  12   3   -2.91    3.26
  -1  12  -3   -4.59    3.66
   2 -12   3   12.65    3.59
  -2 -12  -3   12.20    4.89
  -2  12  -3   11.00    4.50
   2  12   3    7.79    3.51
  -6   0   4   -2.12    3.01
   6   0  -4   -6.30    3.37
  -5   0   4    9.99    3.01
   5   0  -4   13.74    3.55
  -5   0   4   16.13    3.05
   4   0  -4   -0.60    2.71
  -4   0   4    3.14    1.98
  -4   0   4    0.65    2.35
  -3   0   4   15.15    2.69
   3   0  -4   14.49    2.90
  -3   0   4   19.56    1.87
  -2   0   4  180.36    6.87
   2   0  -4  184.74    6.87
  -1   0   4  102.85    2.99
  -1   0   4  104.52    4.85
   1   0  -4  105.81    4.92
   0   0  -4  492.94   13.66
   0   0   4  483.34   12.87
   0   0   4  490.56   14.61
   1   0   4    1.56    1.46
   1   0   4    2.12    1.82
   1   0   4    1.60    1.58
   2   0   4    0.09    1.75
   2   0   4   -1.65    1.45
   2   0   4    0.50    1.80
   3   0   4   19.78    2.43
  -3   0  -4   15.25    3.09
   3   0   4   16.49    2.79
  -4   0  -4   31.49    4.02
   4   0   4   26.60    3.29
   4   0   4   33.20    4.10
   5   0   4   78.34    6.52
  -5   0  -4   93.25    6.37
   5   0   4   80.50    5.18
   6   0   4   -1.49    2.94
   6   0   4    4.88    3.79
   6  -1  -4    1.46    3.84
  -6  -1   4    6.30    3.55
  -6   1   4    8.27    3.22
   6   1  -4   -3.61    3.19
  -5  -1   4    8.29    2.64
  -5  -1   4    3.24    3.16
   5  -1  -4    4.87    3.20
  -5   1   4    0.84    2.66
  -5   1   4    5.80    2.74
   5   1  -4    3.96    3.16
   4  -1  -4    1.91    2.75
  -4  -1   4    7.56    2.07
  -4  -1   4   11.30    3.04
  -4   1   4    5.41    2.36
   4   1  -4    4.88    2.93
  -4   1   4    3.81    2.33
   3  -1  -4   36.05    3.64
  -3  -1   4   34.08    3.53
  -3  -1   4   34.90    2.28
   3   1  -4   34.16    3.66
  -3   1   4   33.76    2.83
  -3   1   4   34.97    3.21
  -2  -1   4   45.17    3.69
   2  -1  -4   47.81    4.00
  -2   1   4   44.22    2.35
  -2   1   4   45.59    3.59
   2   1  -4   41.37    3.74
   1  -1  -4   21.46    2.60
  -1  -1   4   21.44    2.55
  -1   1   4   21.30    1.79
   1   1  -4   21.75    2.87
  -1   1   4   28.30    2.64
   0  -1   4  231.90    6.35
   0  -1   4  226.69    7.65
   0  -1  -4  215.75    7.12
   0   1   4  215.81    6.50
   0   1  -4  221.47    7.59
   0   1   4  229.52    7.72
   1  -1   4    6.09    1.84
   1  -1   4    7.73    1.66
   1  -1   4    8.06    1.82
   1   1   4    6.62    2.06
   1   1   4    5.63    1.59
   1   1   4    6.91    1.70
   2  -1   4   74.68    4.12
  -2  -1  -4   67.34    5.08
   2  -1   4   76.45    4.21
   2  -1   4   71.70    3.90
   2   1   4   75.05    3.38
   2   1   4   82.46    4.26
   3  -1   4   19.28    3.02
  -3  -1  -4   20.39    3.50
   3  -1   4   23.55    2.78
   3   1   4   20.01    2.93
  -3   1  -4   20.56    3.00
   3   1   4   23.53    2.36
  -4  -1  -4    5.14    3.21
   4  -1   4    7.96    3.05
   4  -1   4    7.58    2.67
   4   1   4    4.96    2.73
   4   1   4    9.89    2.38
  -4   1  -4    6.51    2.89
   5  -1   4   28.89    4.56
   5  -1   4   33.09    3.96
  -5  -1  -4   35.59    4.65
   5   1   4   29.32    4.33
   5   1   4   32.86    3.50
   6  -1   4    3.73    3.23
  -6   1  -4   14.66    5.11
   6   1   4    8.38    3.84
   6  -2  -4   -6.38    3.61
  -6  -2   4   -8.22    3.19
   6   2  -4    0.77    3.27
  -6   2   4   -3.93    2.85
  -6   2   4    2.53    3.31
   5  -2  -4    8.26    3.55
  -5  -2   4   17.36    4.65
  -5  -2   4    3.07    3.34
  -5   2   4    4.34    2.73
  -5   2   4    3.71    2.89
   5   2  -4    6.14    3.24
  -4  -2   4   15.75    3.43
   4  -2  -4   15.98    3.44
  -4  -2   4   14.37    2.21
  -4   2   4   11.77    2.76
  -4   2   4   17.39    2.87
   4   2  -4   12.48    3.27
  -3  -2   4    2.82    1.20
  -3  -2   4    0.90    2.42
   3  -2  -4    3.82    2.54
  -3   2   4    2.92    2.01
   3   2  -4    4.38    2.52
  -3   2   4    0.41    1.82
  -2  -2   4  105.52    5.44
   2  -2  -4  115.87    5.37
   2   2  -4  109.81    5.41
  -2   2   4  117.01    5.10
  -2   2   4  112.42    4.24
  -1  -2   4   21.34    2.68
   1  -2  -4   24.73    2.57
   1   2  -4   19.63    2.83
  -1   2   4   20.01    2.55
  -1   2   4   20.78    1.86
   0  -2   4  166.80    6.11
   0  -2   4  180.58    6.43
   0  -2  -4  173.67    5.83
   0   2   4  180.27    6.63
   0   2  -4  164.01    5.55
   0   2   4  177.65    5.59
   1  -2   4   71.14    4.00
   1  -2   4   72.73    3.88
  -1  -2  -4   73.79    3.43
   1   2   4   79.53    4.50
   1   2   4   74.14    3.66
   2  -2   4   97.13    4.64
   2  -2   4   93.16    4.32
  -2  -2  -4   86.65    5.69
   2  -2   4   95.22    4.58
   2   2   4   93.65    4.52
   2   2   4   94.97    3.58
   3  -2   4   19.37    3.07
   3  -2   4   16.32    2.76
  -3  -2  -4   19.91    3.71
  -3   2  -4   18.90    2.77
   3   2   4   24.81    3.06
   3   2   4   22.75    2.09
   4  -2   4    0.70    2.55
   4  -2   4    4.65    2.78
  -4  -2  -4    1.41    3.21
   4   2   4    1.17    1.77
   4   2   4    2.84    2.61
  -4   2  -4    8.77    2.54
  -5  -2  -4   13.32    4.20
   5  -2   4    8.68    3.16
  -5   2  -4   15.61    4.79
   5   2   4    8.44    3.46
  -6  -2  -4    2.99    4.58
   6  -2   4   -0.06    3.23
  -6   2  -4    3.51    4.54
   6   2   4    3.78    3.68
  -6  -3   4   -0.61    3.77
   6  -3  -4    0.21    3.76
  -6   3   4    1.30    3.37
   6   3  -4    7.33    3.49
  -5  -3   4   -2.03    3.38
   5  -3  -4   -3.09    3.36
   5   3  -4   -0.31    3.02
  -5   3   4   -0.66    2.40
  -5   3   4    4.70    2.99
   4  -3  -4   45.64    4.35
  -4  -3   4   41.90    4.71
  -4   3   4   42.58    3.82
   4   3  -4   36.71    4.07
  -4   3   4   44.23    4.11
   4   3  -4   38.75    2.98
  -3  -3   4   99.59    6.05
   3  -3  -4   97.52    5.57
   3   3  -4   86.99    3.27
   3   3  -4   92.46    5.39
  -3   3   4   99.28    4.69
  -3   3   4  101.14    4.83
  -2  -3   4   64.02    4.60
   2  -3  -4   66.63    4.30
  -2   3   4   63.18    3.61
   2   3  -4   58.66    4.35
  -2   3   4   66.15    4.05
  -1  -3   4   86.96    4.68
   1  -3  -4   83.60    4.14
  -1   3   4   82.54    4.38
   1   3  -4   80.46    4.67
  -1   3   4   80.87    3.69
   1   3  -4   79.22    2.80
   0  -3  -4   21.35    2.15
   0  -3   4   20.30    2.64
   0  -3   4   20.54    2.43
   0   3   4   17.65    2.54
   0   3   4   17.04    2.06
   0   3  -4   17.76    2.09
   1  -3   4   45.37    3.70
   1  -3   4   37.84    2.99
  -1  -3  -4   51.06    2.60
  -1   3  -4   37.85    3.34
   1   3   4   46.33    3.86
   1   3   4   48.49    3.29
  -2  -3  -4   39.98    2.36
   2  -3   4   42.93    3.73
  -2  -3  -4   39.59    4.17
   2  -3   4   39.36    2.95
  -2   3  -4   30.20    3.71
   2   3   4   39.90    3.36
   3  -3   4   14.16    2.83
  -3  -3  -4    8.54    3.29
  -3   3  -4    3.24    3.26
   3   3   4    7.04    1.32
  -3   3  -4    5.87    2.16
   3   3   4   11.66    2.64
  -4  -3  -4    3.25    3.56
   4  -3   4    4.97    2.89
   4   3   4    9.33    2.78
  -4   3  -4    1.00    3.89
   5  -3   4   11.48    3.32
  -5  -3  -4   16.41    4.46
  -5   3  -4    5.21    4.37
   5   3   4    5.05    2.98
  -6  -3  -4    4.89    4.72
   6  -3   4   10.68    3.62
  -6   3  -4   -5.82    4.51
   6   3   4    2.21    3.68
   6  -4  -4    9.41    4.27
  -6  -4   4    7.49    4.34
  -6   4   4    6.94    3.90
   6   4  -4   12.04    3.81
   5  -4  -4   22.31    4.30
  -5  -4   4   16.73    4.42
   5   4  -4   14.46    3.55
  -5   4   4   21.93    3.12
  -5   4   4   16.67    3.65
  -4  -4   4   14.04    3.85
   4  -4  -4   10.83    3.59
  -4   4   4   17.22    2.72
  -4   4   4   17.32    3.38
   4   4  -4   14.51    2.02
   4   4  -4   12.74    3.38
   3  -4  -4   19.00    3.27
  -3  -4   4   17.85    3.71
   3   4  -4   24.52    2.05
  -3   4   4   20.72    2.93
   3   4  -4   20.18    3.21
  -3   4   4   26.65    2.87
   2  -4  -4   42.11    3.50
  -2  -4   4   31.37    3.73
  -2   4   4   41.30    3.53
  -2   4   4   38.44    3.49
   2   4  -4   35.18    3.71
   2   4  -4   37.33    1.93
  -1  -4   4   18.75    2.85
   1  -4  -4   19.53    2.41
   1   4  -4   17.06    1.68
   1   4  -4   17.95    3.05
  -1   4   4   17.23    2.35
  -1   4   4   20.36    2.62
   0  -4  -4    0.96    1.39
   0  -4   4    0.99    2.08
   0  -4   4    3.49    1.87
   0   4  -4   -0.93    1.74
   0   4   4   -0.73    1.67
   0   4   4    1.23    2.07
   1  -4   4   38.86    3.13
  -1  -4  -4   36.07    3.97
   1  -4   4   41.57    3.55
  -1  -4  -4   42.14    2.23
  -1   4  -4   43.11    3.58
   1   4   4   38.98    3.39
   2  -4   4   82.13    4.82
   2  -4   4   82.31    3.83
  -2  -4  -4   80.90    6.01
  -2   4  -4   78.11    5.13
   2   4   4   85.26    4.65
   3  -4   4    0.09    2.40
  -3  -4  -4   -0.98    3.10
  -3   4  -4    8.93    2.03
   3   4   4    5.31    2.51
  -3   4  -4    0.53    3.42
   4  -4   4   33.04    3.98
  -4  -4  -4   37.37    5.01
  -4   4  -4   36.71    5.31
   4   4   4   30.74    3.91
   5  -4   4    5.23    3.20
  -5  -4  -4    7.67    4.19
   5   4   4    8.34    3.20
  -5   4  -4    5.02    4.51
  -6  -5   4    9.17    4.78
   6  -5  -4    6.50    4.07
  -6   5   4    7.87    4.04
   6   5  -4    8.20    3.71
  -5  -5   4    3.47    4.08
   5  -5  -4   -1.26    3.36
   5   5  -4    3.64    3.17
  -5   5   4    4.12    3.44
  -4  -5   4  100.91    7.34
   4  -5  -4   86.92    6.18
   4   5  -4   89.64    5.74
  -4   5   4   97.87    5.06
  -4   5   4   96.42    6.19
  -3  -5   4   77.74    6.23
   3  -5  -4   69.13    5.46
   3   5  -4   78.28    3.39
  -3   5   4   80.14    5.13
  -3   5   4   86.90    4.65
   3   5  -4   74.44    5.11
  -2  -5   4   24.56    3.69
   2  -5  -4   18.66    2.83
   2   5  -4   22.70    1.89
  -2   5   4   24.74    2.91
  -2   5   4   17.62    2.59
   2   5  -4   23.23    3.33
  -1  -5   4    2.63    2.35
   1  -5  -4    2.85    1.82
   1   5  -4    1.98    1.57
   1   5  -4    6.15    2.69
  -1   5   4    5.02    2.10
  -1   5   4    0.73    1.96
   0  -5  -4   84.49    3.59
   0  -5   4   84.61    4.63
   0  -5   4   84.55    4.73
   0   5   4   85.08    4.38
   0   5   4   86.37    4.96
   0   5  -4   86.29    4.50
   1  -5   4  155.23    5.87
  -1  -5  -4  155.63    7.50
   1  -5   4  147.02    6.32
  -1   5  -4  158.39    6.62
   1   5   4  158.42    6.13
  -2  -5  -4   31.60    4.33
   2  -5   4   28.34    2.62
   2  -5   4   30.17    3.49
   2   5   4   32.08    3.23
  -2   5  -4   30.53    3.84
   3  -5   4    7.46    2.89
  -3  -5  -4    7.51    3.57
   3   5   4   14.85    3.11
  -3   5  -4    7.82    3.59
   4  -5   4    4.64    3.04
  -4  -5  -4    4.26    4.04
  -4   5  -4    5.21    4.21
   4   5   4    9.11    3.03
  -5  -5  -4   11.25    4.52
   5  -5   4    8.30    3.59
   5   5   4    8.48    3.40
  -5   5  -4    7.73    4.85
  -5  -6   4    9.78    4.73
   5  -6  -4   14.45    4.03
   5   6  -4    3.15    3.19
  -5   6   4    7.53    3.86
  -4  -6   4   -0.64    3.65
   4  -6  -4    3.45    3.21
  -4   6   4    1.45    2.06
   4   6  -4    1.72    2.84
  -4   6   4    2.63    3.07
  -3  -6   4    9.11    3.68
   3  -6  -4   18.37    3.39
  -3   6   4   14.60    2.59
   3   6  -4   17.65    3.29
  -3   6   4   13.74    3.19
   3   6  -4   19.05    2.15
  -2  -6   4   -2.29    2.86
   2  -6  -4    0.11    2.32
   2   6  -4   -0.83    1.59
  -2   6   4   -2.18    2.27
  -2   6   4    1.06    2.07
   2   6  -4   -2.75    2.46
  -1  -6   4   32.39    3.68
   1  -6  -4   29.70    2.83
  -1   6   4   23.89    3.05
  -1   6   4   27.70    3.24
   1   6  -4   31.22    2.74
   0  -6  -4   10.44    3.13
   0  -6   4   11.45    2.54
   0  -6  -4   10.80    1.72
   0  -6   4   11.00    2.54
   0   6  -4    7.90    2.49
   0   6   4   10.48    2.50
   1  -6   4  143.94    6.46
  -1  -6  -4  155.11    7.69
   1  -6   4  145.45    5.72
  -1   6  -4  134.87    6.45
   1   6   4  145.43    6.20
  -2  -6  -4   89.36    6.61
   2  -6   4   85.99    5.34
   2  -6   4   89.10    3.92
   2   6   4   87.15    5.17
  -2   6  -4   99.32    6.18
   3  -6   4   16.67    3.33
  -3  -6  -4   19.31    4.30
   3   6   4   21.90    3.28
  -3   6  -4   21.30    4.14
  -4  -6  -4   24.22    4.96
   4  -6   4   21.23    3.87
  -4   6  -4   23.90    4.86
   4   6   4   23.57    3.84
  -5  -6  -4   -5.76    4.05
   5  -6   4    6.05    3.60
  -5   6  -4   -4.40    4.27
   5   6   4    7.06    3.42
   5  -7  -4    4.42    3.61
  -5  -7   4    5.05    4.58
  -5   7   4    3.27    3.77
   5   7  -4    2.31    3.19
  -4  -7   4   27.67    5.06
   4  -7  -4   20.21    3.83
  -4   7   4   26.05    4.13
   4   7  -4   31.00    3.98
  -3  -7   4   30.02    4.64
   3  -7  -4   25.08    3.57
   3   7  -4   25.02    3.68
   3   7  -4   27.29    2.75
  -3   7   4   18.33    3.57
  -3   7   4   22.24    2.95
  -2  -7   4    6.22    3.46
   2  -7  -4    3.90    2.41
   2   7  -4    5.29    2.96
  -2   7   4    5.14    2.41
  -2   7   4    7.96    2.96
   2   7  -4    2.90    2.07
   1  -7  -4   31.67    3.93
  -1  -7   4   27.38    3.47
   1  -7  -4   34.06    2.94
  -1  -7   4   28.65    3.84
   1   7  -4   34.15    3.17
  -1   7   4   35.09    3.74
   0  -7  -4   18.02    1.99
   0  -7  -4   17.71    3.59
   0  -7   4   20.68    3.07
   0  -7   4   22.69    3.10
   0   7  -4   18.68    2.99
   0   7   4   20.12    3.11
   1  -7   4   77.97    5.26
   1  -7   4   72.66    4.27
  -1  -7  -4   74.65    6.36
  -1   7  -4   80.95    5.79
   1   7   4   77.52    4.83
  -2  -7  -4    1.28    3.32
   2  -7   4    1.88    2.59
   2   7   4   -1.24    2.34
  -2   7  -4    0.57    3.08
  -3  -7  -4    4.95    3.71
   3  -7   4    5.50    2.96
   3   7   4    5.55    2.91
  -3   7  -4   15.38    3.94
  -4  -7  -4   29.36    5.18
   4  -7   4   26.75    4.15
   4   7   4   19.83    3.63
  -4   7  -4   35.35    5.35
  -5  -7  -4    5.97    4.76
   5  -7   4    6.65    3.83
   5   7   4    1.80    3.12
  -5   7  -4    1.99    4.32
   5  -8  -4   -2.39    3.40
  -5  -8   4   -2.28    4.50
  -5   8   4   -0.74    3.67
   5   8  -4    8.57    3.40
  -4  -8   4    1.76    4.18
   4  -8  -4    1.32    3.06
   4   8  -4   11.19    3.17
  -4   8   4    1.47    3.43
   3  -8  -4   36.66    3.99
  -3  -8   4   31.16    4.99
   3  -8  -4   37.99    4.03
  -3   8   4   28.96    4.26
   3   8  -4   44.36    3.56
   3   8  -4   35.94    4.19
   2  -8  -4    8.13    2.98
  -2  -8   4    9.71    3.78
   2  -8  -4    9.81    2.68
   2   8  -4    7.89    2.47
  -2   8   4   11.89    3.37
   2   8  -4   15.86    3.43
   1  -8  -4   16.66    2.47
  -1  -8   4   17.85    3.56
  -1  -8   4   17.12    3.21
   1  -8  -4   17.26    3.53
   1   8  -4   15.26    2.84
  -1   8   4   16.82    3.32
   0  -8   4    0.93    2.53
   0  -8  -4    2.67    3.19
   0  -8   4    4.07    2.49
   0  -8  -4   -1.34    1.45
   0   8   4    2.06    2.58
   0   8  -4    1.56    2.64
   1  -8   4   12.30    2.39
   1  -8   4   10.59    3.02
  -1  -8  -4    8.35    3.46
   1   8   4   13.20    3.12
  -1   8  -4    6.10    3.32
   2  -8   4   51.29    4.66
  -2  -8  -4   50.93    5.62
  -2   8  -4   53.10    5.18
   2   8   4   45.99    4.37
   3  -8   4    3.44    3.03
  -3  -8  -4    3.59    4.09
  -3   8  -4    9.98    3.94
   3   8   4    9.86    3.17
  -4  -8  -4    5.72    4.41
   4  -8   4   -4.26    2.98
   4   8   4    2.98    3.18
  -4   8  -4    2.77    3.96
  -4  -9   4   -2.19    4.31
   4  -9  -4    5.20    3.29
  -4   9   4   -0.86    3.38
   4   9  -4    5.40    3.10
  -3  -9   4    6.65    4.20
   3  -9  -4    6.24    2.86
  -3   9   4   10.39    3.54
   3   9  -4    8.89    3.20
   2  -9  -4    9.83    3.27
   2  -9  -4    7.46    2.57
  -2  -9   4    1.53    3.53
   2   9  -4    7.97    2.62
  -2   9   4    4.72    3.21
   2   9  -4    4.87    3.17
  -1  -9   4    9.93    3.47
  -1  -9   4   13.90    3.20
   1  -9  -4    9.82    3.46
   1  -9  -4    8.15    2.19
  -1   9   4   16.29    3.59
   1   9  -4   10.37    2.99
   0  -9  -4    4.24    3.30
   0  -9   4    7.55    2.88
   0  -9   4    5.37    2.86
   0   9   4    0.22    2.76
   0   9  -4    3.18    3.00
   1  -9   4    9.46    3.29
   1  -9   4   10.01    2.49
  -1  -9  -4   12.27    3.91
  -1   9  -4   11.69    3.57
   1   9   4   14.84    3.42
  -2  -9  -4    8.52    3.89
   2  -9   4    4.11    2.99
  -2   9  -4    8.33    3.87
   2   9   4    6.22    2.92
  -3  -9  -4    8.87    4.26
   3  -9   4   -0.46    2.90
   3   9   4    3.04    2.90
  -3   9  -4    3.62    3.89
  -4  -9  -4    4.28    4.52
   4  -9   4    6.96    3.52
   4   9   4    7.32    3.54
  -4   9  -4   14.82    4.59
   4 -10  -4    8.64    3.41
  -4 -10   4   17.89    5.51
  -4  10   4    8.91    4.21
  -3 -10   4    1.95    4.37
   3 -10  -4    3.94    2.83
  -3  10   4   12.37    3.94
   3  10  -4   15.69    3.62
   2 -10  -4   14.57    3.44
   2 -10  -4    3.50    2.56
  -2 -10   4    7.50    4.13
   2  10  -4   16.00    3.70
  -2  10   4   11.63    3.75
   2  10  -4    9.90    3.03
  -1 -10   4   15.07    3.93
   1 -10  -4   14.33    3.65
  -1 -10   4   10.87    3.19
   1 -10  -4   15.80    2.70
  -1  10   4   12.32    3.67
   1  10  -4    9.17    3.23
   0 -10  -4    3.84    3.39
   0 -10   4    1.12    2.91
   0 -10   4   -3.22    2.67
   0  10   4   -0.50    2.74
   0  10  -4   -4.04    3.04
  -1 -10  -4    9.28    3.92
   1 -10   4    3.63    3.15
  -1  10  -4    2.07    3.51
   1  10   4    2.91    2.96
   2 -10   4    7.42    3.21
  -2 -10  -4    2.48    3.92
  -2  10  -4    0.85    3.92
   2  10   4    6.66    3.22
   3 -10   4    2.28    3.18
  -3 -10  -4    4.90    4.48
   3  10   4   -3.35    2.65
  -3  10  -4   -3.04    3.88
   3 -11  -4    0.75    2.82
  -3 -11   4    3.38    4.69
  -3  11   4    5.03    3.92
   3  11  -4    5.19    3.25
  -2 -11   4    2.59    4.17
   2 -11  -4    3.18    2.48
   2 -11  -4   19.17    5.56
  -2  11   4    4.70    3.67
   2  11  -4    4.30    3.01
   2  11  -4    5.36    3.32
   1 -11  -4   15.75    3.86
  -1 -11   4    4.42    3.74
  -1  11   4    7.85    3.74
   1  11  -4   13.90    3.57
   0 -11  -4   23.11    4.53
   0 -11   4   20.82    3.90
   0 -11   4   25.11    3.95
   0  11   4   23.16    4.16
   0  11  -4   31.02    4.58
  -1 -11  -4    6.60    4.04
   1 -11   4    0.79    3.12
  -1  11  -4   -7.46    3.39
   1  11   4   -3.12    3.07
  -2 -11  -4    5.05    4.33
   2 -11   4    1.32    3.17
   2  11   4    0.24    3.04
  -2  11  -4   -0.80    3.79
  -1 -12   4    0.47    3.79
  -1  12   4    7.03    3.86
   1  12  -4    7.01    3.67
   0 -12  -4    8.70    4.21
   0 -12   4    1.90    3.12
   0  12  -4    1.26    3.76
   0  12   4    8.28    3.71
  -1 -12  -4   13.79    4.66
   1 -12   4   11.71    3.77
   1  12   4   11.30    3.88
  -1  12  -4   11.36    4.43
  -6   0   5    0.77    3.22
   6   0  -5   -4.59    3.46
   5   0  -5   -5.75    3.00
  -5   0   5    0.05    2.85
   4   0  -5   18.23    3.71
  -4   0   5   22.08    3.46
  -3   0   5    2.12    2.31
   3   0  -5    4.32    2.79
   2   0  -5   89.45    5.14
  -2   0   5   84.53    4.88
  -1   0   5   18.79    2.78
  -1   0   5   22.33    1.36
   1   0  -5   18.84    2.80
   0   0   5    9.43    1.40
   0   0  -5   11.04    2.38
   0   0   5    7.72    2.24
   1   0   5    1.75    1.54
   1   0   5    0.92    1.97
   1   0   5   -0.07    1.72
   2   0   5   13.46    2.15
   2   0   5   15.81    2.71
   2   0   5   11.97    2.30
   3   0   5   61.99    4.74
   3   0   5   57.74    4.03
  -3   0  -5   57.00    5.47
  -4   0  -5    1.16    2.98
   4   0   5    3.65    2.50
   4   0   5    2.43    2.97
   5   0   5   10.62    3.82
  -5   0  -5   31.74    4.36
   5   0   5   12.88    3.07
   6  -1  -5   -1.89    3.60
  -6  -1   5    2.58    3.61
   6   1  -5    6.06    3.81
  -6   1   5    0.56    3.15
  -5  -1   5    5.36    3.16
   5  -1  -5    8.73    3.65
  -5   1   5    2.81    2.97
   5   1  -5    0.88    3.10
   4  -1  -5  105.30    6.37
  -4  -1   5   97.31    6.17
   4   1  -5   98.55    6.30
  -4   1   5   92.17    5.77
  -4   1   5   97.24    4.52
   3  -1  -5   28.61    3.65
  -3  -1   5   29.15    3.53
  -3   1   5   28.12    2.41
  -3   1   5   24.66    3.31
   3   1  -5   29.53    3.65
   2  -1  -5   41.48    3.79
  -2  -1   5   42.07    3.70
  -2   1   5   39.31    3.65
  -2   1   5   36.50    2.05
   2   1  -5   41.20    3.92
   1  -1  -5  139.75    5.75
  -1  -1   5  133.21    5.99
   1   1  -5  131.68    6.09
  -1   1   5  133.25    4.18
  -1   1   5  134.36    5.93
   0  -1   5   21.18    1.95
   0  -1   5   26.12    2.89
   0  -1  -5   23.19    2.71
   0   1   5   23.56    2.77
   0   1   5   28.35    2.18
   0   1  -5   23.68    3.01
   1  -1   5   37.96    3.34
  -1  -1  -5   32.33    2.88
   1  -1   5   32.93    2.86
   1  -1   5   38.91    3.46
   1   1   5   39.85    3.57
   1   1   5   36.59    2.92
   2  -1   5    1.76    1.98
   2  -1   5    2.29    2.03
   2  -1   5    1.59    2.05
   2   1   5   -0.91    1.89
   2   1   5    1.18    2.25
   2   1   5    4.39    1.74
   3  -1   5   33.50    3.69
  -3  -1  -5   24.61    3.94
   3  -1   5   37.81    3.45
  -3   1  -5   39.14    4.04
   3   1   5   38.83    3.38
   3   1   5   28.59    3.33
   4  -1   5   25.69    3.43
   4  -1   5   23.59    3.88
  -4  -1  -5   19.69    3.95
   4   1   5   34.18    3.17
   4   1   5   19.40    3.61
  -4   1  -5   33.36    3.95
  -5  -1  -5    4.98    3.66
   5  -1   5    1.69    3.40
   5  -1   5    2.74    2.98
   5   1   5    3.94    3.51
  -6  -2   5    6.62    3.99
   6  -2  -5    5.75    4.22
  -6   2   5    3.86    3.26
   6   2  -5    6.43    3.92
   5  -2  -5   18.83    4.05
  -5  -2   5   14.16    3.96
   5   2  -5   16.44    3.98
  -5   2   5   17.19    3.41
  -4  -2   5   10.27    3.28
   4  -2  -5   11.32    3.46
  -4   2   5    9.08    2.82
   4   2  -5    6.72    3.23
  -4   2   5    7.59    2.34
   3  -2  -5   71.35    5.10
  -3  -2   5   74.18    5.34
  -3   2   5   74.12    3.72
  -3   2   5   72.73    4.75
   3   2  -5   71.80    5.26
   2  -2  -5   48.99    4.34
  -2  -2   5   47.67    4.37
   2   2  -5   54.49    4.38
  -2   2   5   51.64    4.03
  -2   2   5   52.69    2.88
  -1  -2   5    6.54    2.30
   1  -2  -5    4.72    2.15
  -1   2   5    6.16    1.38
  -1   2   5    6.25    2.21
   1   2  -5    3.54    2.48
   0  -2  -5   93.98    4.34
   0  -2   5   88.15    4.72
   0   2  -5   84.98    4.98
   0   2   5   84.30    3.72
   0   2  -5   89.30    3.83
   0   2   5   93.51    4.94
   1  -2   5   77.90    4.28
  -1  -2  -5   73.57    3.74
   1  -2   5   68.98    4.28
   1   2   5   70.54    3.89
   1   2   5   70.65    4.69
   2  -2   5   15.03    2.61
   2  -2   5   14.27    2.71
   2  -2   5   13.62    2.55
  -2  -2  -5   12.35    3.41
   2   2   5   11.68    2.39
   3  -2   5   56.60    4.90
   3  -2   5   65.55    4.78
  -3  -2  -5   56.29    5.41
  -3   2  -5   72.37    5.15
   3   2   5   57.12    4.67
   3   2   5   65.00    3.49
   4  -2   5    6.12    2.85
  -4  -2  -5   10.05    3.79
   4   2   5    4.67    2.81
   4   2   5    5.86    2.18
  -4   2  -5   11.92    2.87
   5  -2   5   14.04    3.49
  -5  -2  -5   21.56    4.49
   5   2   5   10.89    3.77
  -5   2  -5   10.22    4.75
  -6  -3   5    3.71    4.02
   6  -3  -5   -3.76    3.91
   6   3  -5   -5.52    3.29
  -5  -3   5   -2.25    3.35
   5  -3  -5    4.17    3.53
  -5   3   5   -0.23    2.61
   5   3  -5   -2.93    3.12
  -5   3   5   -1.19    2.78
   4  -3  -5   18.60    3.70
  -4  -3   5   21.52    4.01
   4   3  -5   23.50    3.95
  -4   3   5   18.25    3.13
  -4   3   5   17.57    2.92
  -3  -3   5   24.89    3.88
   3  -3  -5   24.71    3.61
  -3   3   5   23.22    3.16
  -3   3   5   24.74    2.70
   3   3  -5   26.21    3.83
  -2  -3   5    9.63    2.73
   2  -3  -5   12.03    2.81
  -2   3   5   10.28    1.95
   2   3  -5    4.32    2.85
  -2   3   5   12.44    2.56
  -1  -3   5   91.81    5.02
   1  -3  -5   89.98    4.72
   1   3  -5   77.55    5.20
  -1   3   5   88.91    3.88
  -1   3   5   84.16    4.87
   0  -3   5   47.34    4.09
   0  -3  -5   50.54    3.44
   0  -3   5   47.09    3.99
   0   3  -5   51.38    3.23
   0   3   5   49.22    3.92
   0   3   5   45.82    3.02
  -1  -3  -5  136.59    4.92
   1  -3   5  136.00    5.78
   1  -3   5  130.29    5.78
   1   3   5  138.19    6.35
   1   3   5  137.50    5.42
  -1   3  -5  129.17    5.80
  -2  -3  -5    9.88    3.34
   2  -3   5    5.07    2.52
   2  -3   5    4.99    2.14
  -2  -3  -5    9.14    1.62
  -2   3  -5    6.90    2.99
   2   3   5    4.57    2.25
  -3  -3  -5   11.98    3.78
   3  -3   5   13.78    3.18
  -3   3  -5    7.11    3.69
   3   3   5    2.05    2.44
  -3   3  -5   12.02    2.87
   3   3   5   10.79    1.76
   4  -3   5   38.57    4.25
  -4  -3  -5   39.59    5.01
  -4   3  -5   38.39    5.35
   4   3   5   29.98    4.07
  -5  -3  -5   23.96    4.93
   5  -3   5   14.66    3.63
   5   3   5   13.27    3.88
  -5   3  -5   19.18    5.05
   6  -4  -5    8.42    4.37
  -6  -4   5    5.50    4.18
   6   4  -5    7.01    3.88
  -5  -4   5   20.63    4.55
   5  -4  -5   30.60    5.07
   5   4  -5   29.22    4.44
  -5   4   5   29.93    3.95
  -5   4   5   28.62    3.78
  -4  -4   5    3.52    3.42
   4  -4  -5    4.38    3.25
  -4   4   5    4.70    2.57
  -4   4   5    4.42    2.68
   4   4  -5    5.33    3.22
  -3  -4   5   11.73    3.28
   3  -4  -5   21.00    3.53
   3   4  -5   16.02    3.44
  -3   4   5   18.01    2.76
  -3   4   5   14.00    2.75
  -2  -4   5   25.50    3.65
   2  -4  -5   29.49    3.35
  -2   4   5   32.86    3.33
  -2   4   5   28.51    2.80
   2   4  -5   29.03    3.82
   1  -4  -5    2.71    2.01
  -1  -4   5    2.91    2.29
  -1   4   5   -0.22    2.11
   1   4  -5    0.21    2.50
   1   4  -5    1.09    1.18
  -1   4   5    0.56    1.74
   0  -4   5    6.49    2.28
   0  -4  -5    6.79    1.83
   0  -4   5    8.11    2.48
   0   4   5    4.00    2.35
   0   4   5    6.47    1.90
   0   4  -5    6.36    2.02
   1  -4   5   26.89    3.29
  -1  -4  -5   28.30    2.46
   1  -4   5   27.81    2.84
   1   4   5   29.08    2.95
  -1   4  -5   27.38    3.22
   1   4   5   27.60    3.53
  -2  -4  -5    5.26    1.23
   2  -4   5    3.89    2.52
  -2  -4  -5    7.36    3.30
   2  -4   5    2.58    1.99
   2   4   5    9.25    2.46
  -2   4  -5    7.45    3.14
  -3  -4  -5   43.35    5.23
   3  -4   5   40.74    4.19
   3   4   5   39.48    3.95
  -3   4  -5   50.26    5.38
  -4  -4  -5    5.72    3.72
   4  -4   5    3.49    2.88
   4   4   5    1.08    2.79
  -4   4  -5   -0.02    3.78
  -5  -4  -5    4.98    4.37
   5  -4   5    7.82    3.54
   5   4   5    5.89    3.46
  -5   4  -5    4.89    4.77
  -5  -5   5   23.05    4.97
   5  -5  -5   24.24    4.73
   5   5  -5   19.76    4.10
  -5   5   5   23.46    4.07
   4  -5  -5   21.06    4.14
  -4  -5   5   21.24    4.48
   4   5  -5   25.83    4.06
  -4   5   5   24.86    3.60
  -4   5   5   29.56    3.44
   3  -5  -5   31.34    3.94
  -3  -5   5   27.36    4.29
  -3   5   5   38.05    3.62
   3   5  -5   36.70    4.15
  -3   5   5   31.27    3.50
  -2  -5   5   49.58    4.67
   2  -5  -5   55.63    4.60
  -2   5   5   55.31    4.13
  -2   5   5   54.05    4.39
   2   5  -5   56.20    4.85
   1  -5  -5   73.06    4.20
  -1  -5   5   72.20    5.06
  -1   5   5   75.20    4.84
   1   5  -5   71.94    5.47
   1   5  -5   70.79    3.33
  -1   5   5   73.42    4.42
   0  -5   5    5.15    2.56
   0  -5  -5    6.49    1.72
   0  -5   5    5.42    2.32
   0   5   5    4.92    2.49
   0   5  -5    5.28    2.20
   0   5   5    4.40    2.12
  -1  -5  -5   48.91    2.59
   1  -5   5   55.88    4.51
   1  -5   5   54.45    3.96
  -1  -5  -5   49.95    5.13
  -1   5  -5   54.83    4.71
   1   5   5   47.50    4.05
  -2  -5  -5   26.19    4.50
   2  -5   5   30.94    3.73
   2  -5   5   30.36    2.78
   2   5   5   28.16    3.40
  -2   5  -5   25.19    3.91
   3  -5   5   16.97    3.36
  -3  -5  -5   17.43    4.22
   3   5   5   22.20    3.45
  -3   5  -5   30.23    4.59
   4  -5   5   21.77    3.79
  -4  -5  -5   27.76    4.96
  -4   5  -5   25.85    5.01
   4   5   5   25.49    3.98
   5  -5   5   -1.08    3.25
  -5  -5  -5    9.89    4.59
   5   5   5   -0.53    3.07
  -5   5  -5   -5.12    4.15
   5  -6  -5   -6.89    3.32
  -5  -6   5    4.36    4.46
  -5   6   5   -2.68    3.18
   5   6  -5    0.54    3.33
   4  -6  -5   11.38    3.85
  -4  -6   5    6.92    4.00
  -4   6   5   10.91    3.21
  -4   6   5   14.53    2.91
   4   6  -5   14.15    3.58
   3  -6  -5   21.81    3.73
  -3  -6   5   22.46    4.20
   3   6  -5   18.13    3.65
  -3   6   5   25.32    3.56
  -3   6   5   24.57    3.31
  -2  -6   5    4.50    3.11
   2  -6  -5   11.65    2.83
   2   6  -5    5.87    3.21
  -2   6   5    8.85    2.70
  -2   6   5   10.29    2.70
   1  -6  -5   62.26    4.07
  -1  -6   5   62.02    5.16
  -1   6   5   62.46    4.48
  -1   6   5   65.09    4.74
   1   6  -5   60.67    3.68
   1   6  -5   63.25    5.46
   0  -6   5   50.17    4.39
   0  -6   5   53.06    4.52
   0  -6  -5   61.20    5.74
   0  -6  -5   53.50    3.24
   0   6   5   50.78    4.34
   0   6  -5   54.38    4.35
   1  -6   5   21.69    2.88
  -1  -6  -5   22.47    3.92
   1  -6   5   22.82    3.38
  -1   6  -5   19.91    3.45
   1   6   5   24.69    3.08
  -2  -6  -5   29.86    4.75
   2  -6   5   40.58    3.29
   2  -6   5   31.95    3.96
  -2   6  -5   38.82    4.37
   2   6   5   37.76    3.87
  -3  -6  -5    9.66    4.05
   3  -6   5    6.95    3.09
   3   6   5   -0.86    2.63
  -3   6  -5    7.37    3.71
   4  -6   5    1.32    3.12
  -4   6  -5    7.49    4.36
   4   6   5    1.51    3.07
  -5   6  -5   11.18    5.08
  -5  -7   5   -3.83    4.16
   5  -7  -5   -5.99    3.47
   5   7  -5    7.24    3.61
  -5   7   5    1.92    3.55
   4  -7  -5   21.49    4.07
  -4  -7   5   15.45    4.78
  -4   7   5   16.56    3.79
   4   7  -5   10.40    3.56
  -3  -7   5    7.69    3.82
   3  -7  -5    4.12    3.03
  -3   7   5   12.85    2.85
   3   7  -5    6.67    3.45
  -3   7   5    6.12    3.09
  -2  -7   5   98.86    6.72
   2  -7  -5  105.27    5.81
   2   7  -5   98.24    6.46
  -2   7   5  109.19    5.88
  -2   7   5  101.29    5.79
   1  -7  -5   40.66    3.31
  -1  -7   5   41.82    4.36
  -1   7   5   43.60    4.02
   1   7  -5   49.13    4.91
   1   7  -5   39.15    3.61
   0  -7   5   20.26    3.50
   0  -7  -5   26.26    4.20
   0  -7  -5   26.24    2.36
   0  -7   5   24.62    3.33
   0   7   5   25.71    3.47
   0   7  -5   28.96    3.47
   1  -7   5   49.76    4.30
  -1  -7  -5   53.18    5.71
   1  -7   5   56.50    5.01
   1   7   5   51.49    4.44
  -1   7  -5   59.66    4.81
   2  -7   5   85.63    5.88
  -2  -7  -5   93.05    7.28
  -2   7  -5   93.97    6.47
   2   7   5   92.65    5.65
   3  -7   5    2.94    3.16
  -3  -7  -5    8.89    3.97
   3   7   5    1.57    2.81
  -3   7  -5    4.37    3.94
   4  -7   5    2.19    3.19
  -4  -7  -5    9.27    4.62
  -4   7  -5    7.29    4.04
   4   7   5    2.82    3.13
  -4  -8   5    0.94    4.24
   4  -8  -5   10.41    3.63
  -4   8   5    3.17    3.46
   4   8  -5   10.61    3.51
  -3  -8   5    7.32    4.03
   3  -8  -5    6.88    3.01
   3   8  -5   13.46    3.75
  -3   8   5    8.87    3.40
  -2  -8   5   12.68    3.73
   2  -8  -5   19.83    3.80
   2  -8  -5   13.43    2.94
   2   8  -5   16.41    3.79
  -2   8   5   10.88    3.28
  -1  -8   5   20.11    3.85
   1  -8  -5   27.53    2.87
   1  -8  -5   30.93    4.31
   1   8  -5   26.32    3.16
  -1   8   5   28.47    3.84
   1   8  -5   20.57    4.03
   0  -8   5   25.43    3.54
   0  -8  -5   14.14    3.85
   0  -8   5   22.68    3.74
   0   8   5   17.46    3.29
   0   8  -5   20.66    3.38
   1  -8   5   87.37    5.83
   1  -8   5   76.38    4.84
  -1  -8  -5   87.55    7.16
  -1   8  -5   85.76    6.06
   1   8   5   77.73    5.38
  -2  -8  -5   28.55    4.92
   2  -8   5   37.00    4.42
   2   8   5   31.73    3.86
  -2   8  -5   38.82    4.87
  -3  -8  -5   12.80    4.46
   3  -8   5   12.47    3.54
  -3   8  -5   12.47    4.15
   3   8   5    7.99    3.15
   4  -8   5    2.09    3.37
  -4  -8  -5    4.95    4.46
  -4   8  -5    7.66    4.52
   4   8   5    1.68    3.28
  -4  -9   5    1.49    4.43
   4  -9  -5   -1.03    3.16
   4   9  -5    3.64    3.37
  -4   9   5   -3.96    3.29
   3  -9  -5    4.21    3.07
  -3  -9   5    3.97    4.13
   3  -9  -5    2.30    2.86
   3   9  -5    1.85    3.37
  -3   9   5   -1.39    3.17
   2  -9  -5    5.96    3.35
  -2  -9   5   12.74    3.93
   2  -9  -5    6.27    2.56
  -2   9   5   12.25    3.48
   2   9  -5    4.43    3.53
   1  -9  -5    6.51    2.22
   1  -9  -5   14.00    3.88
  -1  -9   5    7.47    3.40
  -1   9   5    6.96    3.02
   1   9  -5    9.79    3.73
   1   9  -5   10.13    3.03
   0  -9   5   19.94    3.75
   0  -9   5   13.50    3.31
   0  -9  -5   18.16    4.37
   0   9  -5   16.96    3.55
   0   9   5   17.04    3.42
   1  -9   5    4.75    2.74
  -1  -9  -5    3.48    3.59
   1  -9   5    6.50    3.12
   1   9   5    2.56    2.83
  -1   9  -5    2.70    3.42
  -2  -9  -5    2.62    3.79
   2  -9   5   -1.47    2.96
  -2   9  -5    0.87    3.73
   2   9   5    1.70    2.89
  -3  -9  -5   15.26    4.73
   3  -9   5    7.13    3.57
   3   9   5    6.39    3.25
  -3   9  -5   17.89    4.69
   3 -10  -5    2.94    2.96
  -3 -10   5    1.46    4.44
  -3  10   5    3.51    3.74
   3  10  -5    4.10    3.47
   2 -10  -5    4.81    3.32
  -2 -10   5    2.26    3.77
   2 -10  -5    3.32    2.42
  -2  10   5    4.34    3.32
   2  10  -5    5.39    3.65
   1 -10  -5   14.81    4.06
  -1 -10   5    8.77    3.66
   1  10  -5   14.70    3.38
  -1  10   5   14.09    3.69
   1  10  -5   18.97    4.24
   0 -10   5    9.58    3.29
   0 -10  -5   14.47    3.92
   0 -10   5    9.95    3.57
   0  10  -5    7.09    3.43
   0  10   5    6.27    3.20
   1 -10   5    1.54    3.11
  -1 -10  -5    3.17    3.70
   1  10   5    1.67    3.01
  -1  10  -5    0.37    3.53
  -2 -10  -5    6.92    4.16
   2 -10   5    1.65    3.29
   2  10   5    1.12    3.13
  -2  10  -5    6.22    4.13
  -2 -11   5    8.78    4.29
   2 -11  -5   22.21    4.01
   2  11  -5   14.02    4.11
  -2  11   5    7.69    3.97
   1 -11  -5   17.41    4.15
  -1 -11   5    9.94    3.93
   1  11  -5   18.32    6.56
  -1  11   5   19.17    4.21
   0 -11   5   16.03    3.74
   0 -11   5   24.16    4.36
   0  11  -5   19.06    4.12
   0  11   5   19.97    4.14
   1 -11   5    5.84    3.44
  -1 -11  -5    9.47    4.27
  -1  11  -5    8.77    4.04
   1  11   5    2.39    3.22
  -6   0   6    0.13    3.40
   6   0  -6   -0.37    3.76
   5   0  -6   -4.16    3.34
  -5   0   6    0.39    3.14
  -4   0   6    1.33    2.81
   4   0  -6   -0.81    3.16
  -3   0   6   88.43    5.86
   3   0  -6  101.14    6.13
  -2   0   6    9.65    2.68
   2   0  -6    9.21    2.97
  -1   0   6    1.74    0.79
   1   0  -6   -0.67    2.35
  -1   0   6    4.62    2.29
   0   0   6   51.11    2.80
   0   0  -6   51.20    4.37
   0   0   6   49.69    4.32
   1   0   6   29.25    2.66
   1   0   6   31.74    3.64
  -1   0  -6   31.11    3.27
   2   0   6   39.92    4.02
   2   0   6   48.76    3.91
   2   0   6   50.47    3.97
  -3   0  -6   64.00    5.91
   3   0   6   60.57    5.07
   3   0   6   74.88    4.50
  -4   0  -6   16.67    3.84
   4   0   6    8.11    3.36
   4   0   6   18.26    3.15
   5   0   6   31.78    4.79
   6  -1  -6   -1.35    3.84
  -6  -1   6    7.74    3.74
  -6   1   6   -2.17    3.19
   6   1  -6    0.10    3.82
   5  -1  -6   -0.47    3.41
  -5  -1   6    0.26    3.16
  -5   1   6   -0.46    3.00
   5   1  -6    0.57    3.54
   4  -1  -6    6.45    3.55
  -4  -1   6    6.05    3.10
  -4   1   6    3.82    2.90
   4   1  -6    2.05    3.28
   3  -1  -6   10.98    3.23
  -3  -1   6   11.75    3.02
  -3   1   6    4.85    2.81
   3   1  -6    7.00    3.03
  -2  -1   6   19.15    3.33
   2  -1  -6   22.21    3.45
   2   1  -6   18.48    3.31
  -2   1   6   20.57    3.12
   1  -1  -6    3.58    2.32
  -1  -1   6    8.03    2.54
  -1   1   6    4.82    2.33
  -1   1   6    3.92    1.16
   1   1  -6    1.36    2.53
   0  -1   6   27.28    2.24
   0  -1   6   24.59    3.12
   0  -1  -6   23.64    2.98
   0   1   6   27.07    2.23
   0   1   6   26.91    3.33
   0   1  -6   22.66    3.25
   1  -1   6  139.31    5.37
   1  -1   6  139.36    6.54
  -1  -1  -6  136.54    5.82
   1  -1   6  143.11    6.01
   1   1   6  130.18    6.51
   1   1   6  133.19    5.47
   2  -1   6   32.58    3.64
   2  -1   6   35.60    3.34
   2  -1   6   30.00    3.31
   2   1   6   30.09    3.29
   2   1   6   31.10    3.70
   2   1   6   33.21    3.07
   3  -1   6   13.51    3.07
   3  -1   6   12.38    2.83
  -3  -1  -6    8.77    3.47
   3   1   6    9.01    2.90
  -3   1  -6   12.08    3.46
   3   1   6   10.29    2.48
   4  -1   6   17.57    3.28
  -4  -1  -6   12.35    3.80
   4  -1   6   18.52    3.69
   4   1   6   17.73    3.64
  -4   1  -6   16.19    3.60
   4   1   6   13.94    2.65
   5  -1   6   37.37    4.23
   5  -1   6   37.42    5.19
  -5  -1  -6   49.22    5.43
   5   1   6   32.62    4.93
   5  -2  -6    3.59    3.80
  -5  -2   6   12.45    4.02
  -5   2   6   12.87    3.41
   5   2  -6   10.40    3.94
  -4  -2   6   -1.40    2.84
   4  -2  -6    6.63    3.41
  -4   2   6    3.63    2.75
   4   2  -6    4.17    3.43
   3  -2  -6    4.39    3.14
  -3  -2   6    8.42    3.04
  -3   2   6    5.79    2.38
   3   2  -6    4.54    3.12
  -3   2   6    5.21    2.63
   2  -2  -6   21.62    3.33
  -2  -2   6   15.95    3.13
  -2   2   6   23.23    3.34
  -2   2   6   26.84    2.02
   2   2  -6   17.40    3.48
  -1  -2   6   25.70    3.53
   1  -2  -6   23.38    2.99
   1   2  -6   23.41    3.38
  -1   2   6   33.51    2.42
  -1   2   6   29.41    3.48
   0  -2   6   62.44    4.49
   0  -2  -6   58.52    4.09
   0   2   6   58.42    4.65
   0   2   6   59.46    3.41
   0   2  -6   65.19    4.98
   0   2  -6   66.19    3.52
   1  -2   6   61.65    4.62
  -1  -2  -6   69.76    4.21
   1  -2   6   68.56    4.74
  -1   2  -6   75.91    4.64
   1   2   6   66.36    5.07
   1   2   6   64.82    4.02
   2  -2   6    6.68    2.40
   2  -2   6    7.43    2.55
   2  -2   6    5.90    2.72
  -2  -2  -6    5.93    2.05
   2   2   6    9.82    3.08
   2   2   6    4.53    2.35
   3  -2   6   46.87    4.25
   3  -2   6   42.35    4.14
  -3  -2  -6   44.31    5.24
   3   2   6   45.64    4.20
   3   2   6   47.38    3.55
  -4  -2  -6   19.05    4.20
   4  -2   6   16.80    3.48
   4   2   6   14.53    3.60
  -4   2  -6   20.31    4.75
  -5  -2  -6   19.98    4.60
   5  -2   6   22.14    3.98
  -5   2  -6    9.52    4.94
   5   2   6   23.14    4.51
   5  -3  -6    8.08    3.94
  -5  -3   6    0.30    3.29
  -5   3   6    7.98    3.07
   5   3  -6    6.37    3.82
  -4  -3   6   -1.38    3.07
   4  -3  -6    2.66    3.41
   4   3  -6    2.29    3.27
  -4   3   6    3.86    2.73
   3  -3  -6   21.83    3.93
  -3  -3   6   16.78    3.60
  -3   3   6   29.04    2.63
  -3   3   6   21.08    3.26
   3   3  -6   11.66    3.47
  -2  -3   6    1.83    2.58
   2  -3  -6    3.71    2.73
  -2   3   6   -0.58    1.62
   2   3  -6    4.95    2.85
  -2   3   6    2.48    2.39
   1  -3  -6   50.31    4.14
  -1  -3   6   46.57    4.50
   1   3  -6   54.47    4.81
  -1   3   6   50.17    3.09
  -1   3   6   45.50    4.51
   0  -3   6   40.39    3.85
   0  -3  -6   40.93    3.36
   0   3  -6   45.81    3.33
   0   3  -6   40.69    4.31
   0   3   6   42.02    3.24
   0   3   6   40.24    4.01
   1  -3   6   34.68    3.66
  -1  -3  -6   38.85    3.37
   1  -3   6   39.47    3.88
   1   3   6   34.52    4.12
  -1   3  -6   39.75    3.67
   1   3   6   40.03    3.65
  -2  -3  -6    4.00    3.38
   2  -3   6   -0.81    2.63
   2  -3   6    3.22    2.56
  -2  -3  -6    5.11    1.83
   2   3   6    3.37    2.37
  -2   3  -6    4.92    3.08
   3  -3   6    5.12    2.87
  -3  -3  -6    5.03    3.78
   3   3   6    1.43    2.57
  -3   3  -6    3.35    3.58
  -4  -3  -6   12.71    4.18
   4  -3   6    3.39    3.07
   4   3   6    3.34    3.00
  -4   3  -6    6.35    4.33
   5  -3   6    4.10    3.31
  -5  -3  -6   14.30    4.41
  -5   3  -6   10.76    4.83
   5   3   6    0.89    3.45
   5  -4  -6   17.14    4.33
  -5  -4   6    8.91    4.13
   5   4  -6    9.73    4.05
  -5   4   6    7.76    3.17
  -4  -4   6   10.63    3.83
   4  -4  -6   16.00    3.84
  -4   4   6    5.53    2.86
  -4   4   6    4.86    3.50
   4   4  -6    7.99    3.57
   3  -4  -6   39.00    4.30
  -3  -4   6   25.77    4.07
  -3   4   6   35.63    3.86
  -3   4   6   40.19    3.28
   3   4  -6   33.64    4.34
   2  -4  -6    6.60    2.84
  -2  -4   6    5.24    2.85
  -2   4   6   13.52    2.33
  -2   4   6   10.92    2.89
   2   4  -6    9.95    3.54
  -1  -4   6   10.15    2.83
   1  -4  -6   11.16    2.52
  -1   4   6    9.77    2.15
  -1   4   6    6.46    2.75
   1   4  -6    6.25    3.13
   0  -4   6   50.64    4.63
   0  -4  -6   52.99    3.84
   0  -4   6   52.77    4.56
   0   4  -6   46.43    3.62
   0   4   6   44.73    3.54
   0   4   6   54.30    4.83
   1  -4   6   10.36    2.90
  -1  -4  -6   12.87    2.05
   1  -4   6   10.25    3.04
   1   4   6   10.01    3.04
  -1   4  -6   16.84    3.03
   1   4   6   13.20    2.52
  -2  -4  -6   14.54    3.98
   2  -4   6    9.46    2.68
   2  -4   6   11.34    3.03
   2   4   6   10.24    2.78
  -2   4  -6    9.84    3.35
   3  -4   6   42.24    4.53
  -3  -4  -6   31.44    5.16
   3  -4   6   39.71    3.64
   3   4   6   34.60    3.98
  -3   4  -6   35.32    5.01
  -4  -4  -6    4.72    3.91
   4  -4   6    1.89    2.99
  -4   4  -6   -0.16    4.30
   4   4   6    3.39    2.97
  -5  -5   6   14.64    4.74
   5  -5  -6   12.59    4.41
   5   5  -6   11.92    4.04
  -5   5   6   10.21    3.33
   4  -5  -6   -3.64    3.11
  -4  -5   6   -2.80    3.42
  -4   5   6    4.95    2.79
   4   5  -6    6.68    3.50
   3  -5  -6    5.60    3.06
  -3  -5   6    2.29    3.39
   3   5  -6    0.02    3.14
  -3   5   6   -0.33    2.27
  -3   5   6    2.48    2.65
   2  -5  -6   43.84    4.07
  -2  -5   6   39.68    4.43
  -2   5   6   39.43    3.51
   2   5  -6   47.18    4.94
  -2   5   6   39.48    4.02
   1  -5  -6    7.32    2.43
  -1  -5   6    0.74    2.71
  -1   5   6    4.05    2.74
  -1   5   6    3.83    2.19
   1   5  -6    7.49    3.44
   0  -5   6   -2.75    2.61
   0  -5  -6   -0.01    1.83
   0  -5   6    1.10    2.55
   0   5   6   -0.88    1.96
   0   5   6    5.63    2.82
   0   5  -6    3.42    2.15
  -1  -5  -6   45.25    5.27
  -1  -5  -6   47.50    3.01
   1  -5   6   41.29    3.80
   1  -5   6   35.48    4.09
   1   5   6   40.02    3.69
  -1   5  -6   39.85    3.96
   2  -5   6   45.06    4.09
   2  -5   6   43.83    4.38
  -2  -5  -6   42.20    5.31
   2   5   6   40.28    3.99
  -2   5  -6   35.96    4.52
  -3  -5  -6    5.54    3.99
   3  -5   6   10.45    3.29
   3   5   6    6.80    3.00
  -3   5  -6   11.30    3.94
  -4  -5  -6    3.70    4.02
   4  -5   6    5.07    3.51
  -4   5  -6    8.19    4.27
   4   5   6    4.41    3.18
  -5  -6   6    7.10    4.57
   5  -6  -6    2.80    4.08
   5   6  -6    8.88    3.92
   4  -6  -6   47.77    5.35
  -4  -6   6   43.19    5.72
  -4   6   6   48.32    4.49
   4   6  -6   48.36    5.31
  -4   6   6   43.56    4.47
   3  -6  -6    4.41    2.99
  -3  -6   6    0.89    3.47
  -3   6   6    2.03    2.55
  -3   6   6    5.00    2.74
   3   6  -6    6.82    3.53
   2  -6  -6    5.07    2.69
  -2  -6   6    2.77    3.18
  -2   6   6    5.63    2.70
  -2   6   6    4.68    2.49
   2   6  -6    1.28    3.31
  -1  -6   6   24.14    3.70
   1  -6  -6   22.78    2.96
  -1   6   6   21.70    3.11
  -1   6   6   21.79    3.57
   1   6  -6   22.57    4.04
   0  -6   6    3.64    3.01
   0  -6   6    4.13    2.70
   0  -6  -6    1.00    1.81
   0   6   6    2.10    2.72
   0   6  -6    0.90    2.39
   0   6   6    1.74    2.25
  -1  -6  -6   46.64    5.38
   1  -6   6   43.42    4.50
   1  -6   6   50.79    4.18
   1   6   6   47.06    4.13
  -1   6  -6   53.87    4.46
  -2  -6  -6    9.34    3.99
   2  -6   6    5.52    2.40
   2  -6   6    6.47    3.12
   2   6   6    7.61    2.78
  -2   6  -6    0.64    3.08
   3  -6   6    4.74    3.37
  -3  -6  -6    8.43    3.91
  -3   6  -6    2.23    3.74
   3   6   6    3.00    2.85
   4  -6   6    3.35    3.37
  -4  -6  -6   12.41    4.53
  -4   6  -6    6.45    4.52
   4   6   6   -0.85    2.99
  -4  -7   6    4.41    4.13
   4  -7  -6   -0.04    3.48
  -4   7   6   11.14    3.08
   4   7  -6   14.46    3.94
  -4   7   6    3.05    3.34
   3  -7  -6   23.57    3.98
  -3  -7   6   36.12    5.15
  -3   7   6   29.71    3.84
   3   7  -6   30.54    4.60
  -3   7   6   25.83    3.76
  -2  -7   6    0.09    3.16
   2  -7  -6    2.41    2.68
  -2   7   6   -0.25    2.59
  -2   7   6    1.81    2.58
   2   7  -6    3.12    3.40
  -1  -7   6    0.27    2.81
   1  -7  -6    4.46    2.38
  -1   7   6    1.16    2.74
  -1   7   6   -0.27    2.38
   1   7  -6    2.84    3.43
   0  -7   6   -2.19    2.56
   0  -7   6   -2.54    2.82
   0  -7  -6    3.62    3.31
   0   7  -6   -4.47    2.58
   0   7   6   -1.76    2.31
   1  -7   6   16.25    3.04
   1  -7   6   17.39    3.58
  -1  -7  -6   14.25    4.06
   1   7   6   19.29    3.32
  -1   7  -6   18.49    3.69
  -2  -7  -6   34.60    5.37
   2  -7   6   30.61    4.27
   2   7   6   27.15    3.77
  -2   7  -6   35.12    4.54
   3  -7   6   13.60    3.91
  -3  -7  -6   10.05    4.28
  -3   7  -6   14.97    4.42
   3   7   6    9.92    3.38
   4  -7   6    6.02    3.61
  -4  -7  -6   14.14    4.88
  -4   7  -6   10.16    4.59
   4   7   6    2.65    3.42
  -4  -8   6    7.27    4.38
   4  -8  -6   -0.57    3.22
  -4   8   6    4.45    3.47
   4   8  -6    2.29    3.35
  -3  -8   6   -0.35    3.73
   3  -8  -6   -4.79    2.73
   3   8  -6    6.59    3.72
  -3   8   6    1.07    3.00
  -3   8   6    3.82    2.93
  -2  -8   6    9.36    3.85
   2  -8  -6    4.90    2.69
  -2   8   6    3.74    2.91
   2   8  -6   -0.78    3.45
   1  -8  -6   19.69    2.84
  -1  -8   6   23.67    3.99
   1  -8  -6   27.64    4.62
   1   8  -6   20.23    4.32
  -1   8   6   22.09    3.49
   0  -8   6    1.84    3.16
   0  -8   6    4.60    2.96
   0  -8  -6    1.06    3.22
   0   8   6   -2.18    2.46
   0   8  -6   -0.80    2.66
  -1  -8  -6    3.26    3.74
   1  -8   6    1.16    3.01
   1  -8   6    0.75    2.54
   1   8   6    3.78    2.70
  -1   8  -6   -4.16    3.15
  -2  -8  -6    3.82    3.91
   2  -8   6    3.45    3.31
   2   8   6    0.88    2.73
  -2   8  -6    7.80    3.78
   3  -8   6   20.97    4.23
  -3  -8  -6   28.23    5.27
   3   8   6   25.70    4.07
  -3   8  -6   25.71    5.00
   3  -9  -6   15.30    3.88
   3  -9  -6   12.33    3.35
  -3  -9   6    3.05    4.19
   3   9  -6   15.15    4.33
  -3   9   6   10.63    3.77
   2  -9  -6   -0.53    2.42
  -2  -9   6   -3.21    3.35
   2  -9  -6    2.49    3.39
   2   9  -6    3.03    3.71
  -2   9   6   -1.28    2.95
   1  -9  -6   10.15    3.81
  -1  -9   6    7.81    3.54
  -1   9   6   11.46    3.25
   1   9  -6    6.18    3.79
   0  -9  -6    0.59    3.64
   0  -9   6   -4.52    2.81
   0  -9   6    2.22    3.22
   0   9  -6    0.56    3.13
   0   9   6    1.80    2.88
   1  -9   6    2.46    3.13
  -1  -9  -6    5.39    3.88
   1   9   6   -2.05    2.74
  -1   9  -6   -0.87    3.44
   2  -9   6    3.15    3.36
  -2  -9  -6    4.32    4.00
   2   9   6    4.48    3.04
  -2   9  -6   -1.60    3.77
  -2 -10   6   11.21    4.41
   2 -10  -6   19.69    4.26
   2  10  -6   13.35    4.25
  -2  10   6   15.67    3.89
   1 -10  -6   15.63    4.28
  -1 -10   6    7.60    3.67
   1  10  -6    5.44    3.99
  -1  10   6    2.67    3.07
   0 -10   6   -3.85    2.78
   0 -10  -6    5.52    3.92
   0 -10   6    2.47    3.30
   0  10   6   -4.92    2.78
  -1 -10  -6    5.16    3.87
   1 -10   6    1.70    3.28
   1  10   6   -0.92    2.98
  -1  10  -6    0.99    3.74
  -2 -10  -6    8.03    4.19
   2 -10   6   -1.30    3.24
   2  10   6    1.03    3.09
  -2  10  -6    0.12    4.03
  -5   0   7    1.67    3.22
   5   0  -7    3.29    3.88
   4   0  -7    6.97    3.74
  -4   0   7    1.54    3.08
  -3   0   7   27.72    3.90
   3   0  -7   18.63    3.79
  -2   0   7   39.53    4.24
   2   0  -7   45.03    4.64
  -1   0   7    7.45    2.85
   1   0  -7    9.33    3.00
   0   0  -7    2.77    2.56
   0   0   7    0.08    2.48
   0   0   7    1.50    1.38
   1   0   7   23.46    3.67
  -1   0  -7   20.85    3.28
   1   0   7   20.46    2.61
   2   0   7    0.39    2.06
   2   0   7    0.62    2.94
   3   0   7    3.37    2.73
  -3   0  -7    6.57    3.59
   3   0   7    4.56    2.71
   4   0   7    2.14    3.18
  -4   0  -7    1.77    3.47
   4   0   7    0.86    2.64
   5  -1  -7    7.31    4.01
  -5  -1   7    7.71    3.78
  -5   1   7    3.92    3.41
   5   1  -7    1.82    3.95
  -4  -1   7   -1.18    3.05
   4  -1  -7    4.19    3.56
  -4   1   7    0.40    2.81
   4   1  -7   -3.07    3.25
   3  -1  -7   39.89    4.59
  -3  -1   7   45.45    4.75
   3   1  -7   43.23    4.82
  -3   1   7   34.85    4.11
   2  -1  -7   18.35    3.52
  -2  -1   7   22.25    3.64
  -2   1   7   14.93    3.22
   2   1  -7   22.11    3.75
   1  -1  -7   48.43    4.28
  -1  -1   7   42.92    4.23
  -1   1   7   47.71    4.66
   1   1  -7   45.66    4.73
  -1   1   7   40.34    2.40
   0  -1  -7   68.15    4.82
   0  -1   7   67.00    3.32
   0  -1   7   62.67    5.11
   0   1   7   70.82    5.28
   0   1  -7   67.38    5.26
   0   1   7   72.27    3.63
   1  -1   7    3.64    2.03
  -1  -1  -7    1.73    2.36
   1  -1   7    4.36    2.96
  -1   1  -7    2.83    2.79
   1   1   7    1.12    2.84
   1   1   7    2.34    2.00
   2  -1   7    2.99    2.61
  -2  -1  -7    2.72    2.32
   2  -1   7    2.13    2.35
   2  -1   7    7.37    3.09
   2   1   7    5.18    3.06
   2   1   7    3.17    2.29
   3  -1   7    1.97    2.79
   3  -1   7    7.25    2.90
  -3  -1  -7   -2.25    3.12
  -3   1  -7    2.50    3.33
   3   1   7    2.49    2.71
   3   1   7    3.59    2.56
   4  -1   7    1.51    2.77
   4  -1   7   -2.65    3.03
  -4  -1  -7    2.82    3.66
  -4   1  -7    4.38    3.35
   4   1   7    1.03    3.23
   5  -2  -7   -1.83    3.58
  -5  -2   7    0.24    3.44
   5   2  -7   -1.25    3.75
  -5   2   7    4.09    3.31
  -4  -2   7   13.15    3.73
   4  -2  -7   22.76    4.29
  -4   2   7    9.44    3.31
   4   2  -7   11.87    3.96
  -3  -2   7   27.10    4.11
   3  -2  -7   25.93    4.18
  -3   2   7   27.18    3.96
   3   2  -7   25.47    4.09
  -2  -2   7   15.73    3.47
   2  -2  -7   12.21    3.35
   2   2  -7   11.70    3.55
  -2   2   7   15.78    3.30
  -1  -2   7   82.55    5.67
   1  -2  -7   84.39    5.34
  -1   2   7   81.76    5.37
  -1   2   7   87.54    3.68
   1   2  -7   82.25    6.06
   0  -2   7    9.88    3.14
   0  -2  -7   11.38    2.77
   0   2  -7   17.10    2.33
   0   2   7   16.76    2.31
   0   2  -7   13.08    3.35
   0   2   7   13.42    3.13
  -1  -2  -7   66.52    4.69
   1  -2   7   69.29    5.53
   1   2   7   68.00    5.58
  -1   2  -7   71.67    5.11
   1   2   7   79.52    4.50
   2  -2   7   15.72    3.37
   2  -2   7   23.35    3.66
  -2  -2  -7   19.50    2.78
   2   2   7   21.34    3.88
   2   2   7   19.44    3.02
  -3  -2  -7   11.93    4.04
   3  -2   7   15.22    3.32
   3   2   7    8.80    2.98
  -4  -2  -7   26.47    4.91
   4  -2   7   29.16    4.14
   4   2   7   18.95    3.87
  -4   2  -7   19.13    5.05
   5  -3  -7    1.76    3.82
  -5  -3   7    1.50    3.75
   5   3  -7   -0.61    3.85
  -5   3   7   -0.83    3.13
   4  -3  -7   12.23    3.88
  -4  -3   7    7.82    3.59
  -4   3   7    7.57    3.25
   4   3  -7    9.71    3.97
  -3  -3   7   17.63    3.84
   3  -3  -7    9.28    3.55
  -3   3   7   11.04    3.28
   3   3  -7   12.71    3.74
  -2  -3   7   29.08    4.15
   2  -3  -7   27.80    3.87
   2   3  -7   24.07    4.03
  -2   3   7   29.12    2.48
  -2   3   7   36.63    4.13
  -1  -3   7   49.12    4.64
   1  -3  -7   65.55    5.03
  -1   3   7   54.11    5.07
   1   3  -7   67.38    5.61
  -1   3   7   54.42    3.43
   0  -3   7    6.30    2.91
   0  -3  -7   10.30    2.57
   0   3  -7    0.03    2.93
   0   3   7   10.84    2.21
   0   3  -7    2.48    2.03
   0   3   7    8.85    3.05
  -1  -3  -7   64.60    4.31
   1  -3   7   66.18    5.23
   1  -3   7   59.16    5.10
   1   3   7   62.47    5.61
   1   3   7   64.16    4.47
  -1   3  -7   72.69    5.01
   2  -3   7   46.86    4.49
   2  -3   7   48.77    4.51
  -2  -3  -7   46.60    5.79
  -2  -3  -7   50.13    4.14
  -2   3  -7   52.12    5.00
   2   3   7   54.37    4.72
  -3  -3  -7   17.99    4.56
   3  -3   7   19.86    3.70
   3  -3   7   23.34    3.82
   3   3   7   24.63    3.67
  -3   3  -7   24.77    4.60
  -4  -3  -7   17.46    4.64
   4  -3   7   10.88    3.75
  -4   3  -7   17.60    4.84
   4   3   7    9.01    3.35
  -5  -4   7    5.26    4.17
   5  -4  -7    8.36    4.22
   5   4  -7   15.66    4.57
  -5   4   7   12.16    3.78
   4  -4  -7   27.49    4.59
  -4  -4   7   20.84    4.42
  -4   4   7   29.85    4.19
   4   4  -7   32.10    4.74
  -3  -4   7   33.63    4.73
   3  -4  -7   50.34    4.99
  -3   4   7   43.72    4.52
   3   4  -7   38.35    4.98
  -2  -4   7   18.00    3.70
   2  -4  -7   26.15    3.87
  -2   4   7   32.48    2.94
   2   4  -7   32.40    4.76
  -2   4   7   31.72    4.05
   1  -4  -7   29.11    3.45
  -1  -4   7   20.56    3.59
  -1   4   7   24.24    2.68
  -1   4   7   22.12    3.69
   1   4  -7   19.58    3.97
   0  -4  -7   15.86    2.86
   0  -4   7   16.02    3.36
   0   4   7   17.61    3.58
   0   4  -7   17.47    3.79
   0   4   7   16.20    2.56
   1  -4   7   43.89    4.60
  -1  -4  -7   40.05    3.63
   1  -4   7   49.72    4.53
   1   4   7   46.24    4.84
  -1   4  -7   41.70    3.96
   1   4   7   42.04    3.88
   2  -4   7   47.42    4.29
  -2  -4  -7   36.21    5.32
   2  -4   7   44.27    4.68
  -2   4  -7   33.75    4.38
   2   4   7   39.55    4.00
   3  -4   7    6.35    3.35
  -3  -4  -7   10.85    4.29
   3   4   7    5.87    2.95
  -3   4  -7   17.22    4.28
  -4  -4  -7    2.96    3.90
   4  -4   7    2.87    3.48
   4   4   7   -2.30    2.93
  -4   4  -7    0.91    4.28
  -4  -5   7   19.85    4.48
   4  -5  -7   13.11    4.04
  -4   5   7   12.97    3.62
   4   5  -7   18.37    4.48
  -3  -5   7   15.33    4.02
   3  -5  -7   14.06    3.63
  -3   5   7   13.01    3.28
   3   5  -7   22.99    4.33
   2  -5  -7   12.47    3.32
  -2  -5   7   15.04    3.60
   2   5  -7    9.53    3.90
  -2   5   7    8.58    3.01
  -2   5   7   16.13    2.61
  -1  -5   7    3.30    3.04
   1  -5  -7    0.32    2.43
  -1   5   7    2.08    2.04
   1   5  -7    2.45    3.37
  -1   5   7   -1.56    2.78
   0  -5  -7   25.71    3.04
   0  -5   7   23.89    3.79
   0   5   7   33.26    3.30
   0   5  -7   14.49    4.11
   0   5   7   22.88    4.03
   1  -5   7   19.06    3.50
  -1  -5  -7   11.40    4.11
   1  -5   7   10.92    3.46
   1   5   7   19.62    3.06
  -1   5  -7   14.77    3.26
   2  -5   7   19.89    3.92
  -2  -5  -7   17.47    4.55
   2  -5   7   23.42    3.49
   2   5   7   24.56    3.53
  -2   5  -7   24.10    4.02
   3  -5   7    2.85    3.26
  -3  -5  -7    3.38    4.12
   3   5   7    5.51    3.15
  -3   5  -7    6.96    4.05
   4  -5   7   -1.09    3.49
  -4  -5  -7    6.21    4.18
   4   5   7    2.40    3.21
  -4   5  -7    3.29    4.34
  -4  -6   7   14.49    4.30
   4  -6  -7   10.10    4.01
  -4   6   7   14.09    3.59
   4   6  -7    9.34    3.86
   3  -6  -7   20.82    3.99
  -3  -6   7   16.95    4.15
  -3   6   7   17.74    3.15
  -3   6   7   22.12    3.83
   3   6  -7   21.78    4.46
  -2  -6   7   12.12    3.70
   2  -6  -7   24.50    3.59
   2   6  -7   21.11    4.52
  -2   6   7   25.95    3.29
  -2   6   7   21.41    3.89
  -1  -6   7    7.41    3.27
   1  -6  -7   16.63    2.96
   1   6  -7   14.41    4.08
  -1   6   7   17.65    3.65
  -1   6   7   19.10    3.03
   0  -6   7   14.89    3.54
   0  -6  -7   13.09    3.07
   0   6   7   13.82    3.53
   0   6   7   16.84    2.97
   1  -6   7    4.54    3.03
  -1  -6  -7   11.09    4.00
   1  -6   7   10.66    3.54
  -1   6  -7   11.34    3.27
   1   6   7   10.20    2.89
  -2  -6  -7    6.46    3.95
   2  -6   7    7.75    3.45
   2   6   7    4.45    2.95
  -2   6  -7    0.61    3.41
  -3  -6  -7   10.60    4.47
   3  -6   7    9.92    3.63
  -3   6  -7    7.21    3.95
   3   6   7   13.69    3.44
  -4  -7   7   -0.78    4.08
   4  -7  -7   -3.89    3.58
  -4   7   7    3.02    3.03
   4   7  -7    8.15    4.14
   3  -7  -7    5.23    3.41
  -3  -7   7   10.10    3.99
   3   7  -7    9.68    4.12
  -3   7   7    4.34    2.92
  -3   7   7    9.01    3.38
  -2  -7   7    2.62    3.40
   2  -7  -7    2.21    2.87
   2   7  -7    2.82    3.80
  -2   7   7    5.76    2.76
  -2   7   7    0.08    2.91
  -1  -7   7    6.81    3.46
   1  -7  -7    2.93    2.45
  -1   7   7    6.87    2.70
  -1   7   7    3.68    3.09
   1   7  -7    2.53    3.91
   0  -7   7    3.83    3.09
   0  -7   7    1.73    3.24
   0  -7  -7    5.92    3.70
   0   7   7   -0.70    2.36
  -1  -7  -7    5.07    3.86
   1  -7   7    4.48    3.38
   1  -7   7   10.16    3.23
  -1   7  -7    3.57    3.20
   1   7   7    6.13    2.83
   2  -7   7    2.77    3.29
  -2  -7  -7    3.86    4.23
  -2   7  -7    9.12    3.69
   2   7   7   -0.15    2.73
  -3  -7  -7   -2.83    3.81
   3  -7   7   -1.09    3.46
   3   7   7    3.54    3.10
  -3   7  -7    5.83    4.31
   3  -8  -7   -2.55    2.91
  -3  -8   7    4.14    3.94
  -3   8   7    0.19    3.18
  -3   8   7   -1.61    2.96
   3   8  -7    0.83    3.75
   2  -8  -7    0.93    2.71
  -2  -8   7    5.23    3.66
  -2   8   7    3.84    2.95
   2   8  -7   -1.84    3.72
  -2   8   7    2.41    3.23
  -1  -8   7   23.49    4.34
   1  -8  -7   21.91    4.62
  -1   8   7   27.97    3.94
   1   8  -7   30.96    5.15
   0  -8   7   17.31    4.32
   0  -8   7   21.10    4.01
   0  -8  -7   19.44    4.46
   0   8   7   22.48    3.61
   1  -8   7   13.81    3.96
  -1  -8  -7   19.37    4.81
   1  -8   7   18.70    3.63
   1   8   7   15.86    3.44
   2  -8   7   16.88    4.07
  -2  -8  -7   19.09    5.00
   2   8   7   13.03    3.49
  -2   8  -7   10.11    4.08
  -2  -9   7   -0.44    3.69
   2  -9  -7    4.15    3.71
  -2   9   7   -2.57    2.83
   2   9  -7    3.50    4.05
   1  -9  -7   27.88    4.86
  -1  -9   7   26.81    4.44
   1   9  -7   24.82    5.10
  -1   9   7   26.67    4.11
   0  -9  -7    9.45    4.24
   0  -9   7    1.95    3.75
   0  -9   7    1.53    3.42
   0   9   7   -0.85    2.67
   1  -9   7    5.53    3.80
  -1  -9  -7    8.48    4.42
   1   9   7   10.04    3.31
   4   0  -8   33.05    5.02
  -3   0   8    6.04    3.14
   3   0  -8   -2.81    3.15
   2   0  -8    0.71    2.96
  -2   0   8    1.06    2.78
  -1   0   8   14.83    3.47
   1   0  -8   12.51    3.36
   0   0  -8    1.59    2.84
   0   0   8    0.66    2.92
   1   0   8   -0.50    1.85
  -1   0  -8    5.65    2.79
   1   0   8    3.00    3.19
   2   0   8   19.78    4.05
  -2   0  -8   16.22    3.38
   2   0   8   17.78    3.04
  -3   0  -8   -2.42    3.51
   3   0   8    3.05    2.95
   4   0   8   10.58    3.78
  -4   0  -8   17.21    4.34
   4  -1  -8    7.86    4.01
  -4  -1   8    1.21    3.25
  -4   1   8    6.24    3.31
   4   1  -8    6.83    3.76
   3  -1  -8    9.84    3.75
  -3  -1   8    4.96    3.20
   3   1  -8    7.54    3.67
  -3   1   8    3.15    3.07
  -2  -1   8   27.30    3.98
   2  -1  -8   33.61    4.33
  -2   1   8   27.64    3.93
   2   1  -8   28.51    4.28
   1  -1  -8    7.93    3.10
  -1  -1   8    8.19    3.27
  -1   1   8    0.92    2.74
   1   1  -8    7.20    3.28
   0  -1  -8    1.74    2.61
   0  -1   8    1.02    2.71
   0   1  -8    5.45    3.05
   0   1   8    4.64    1.69
   0   1   8    1.25    2.75
   1  -1   8   18.03    2.53
   1  -1   8   20.97    3.87
  -1  -1  -8   17.39    3.23
  -1   1  -8   13.62    3.35
   1   1   8   17.07    3.80
   1   1   8   17.18    2.67
   2  -1   8    3.72    2.43
   2  -1   8    8.76    3.57
  -2  -1  -8    5.85    2.70
   2   1   8    8.67    2.70
   2   1   8   11.96    3.72
  -2   1  -8    4.09    3.05
  -3  -1  -8    8.11    4.06
   3  -1   8    0.84    2.96
   3  -1   8   -0.10    3.07
   3   1   8    0.36    2.78
  -3   1  -8    8.36    3.87
  -4  -1  -8    4.14    3.91
   4  -1   8    6.38    3.43
   4  -2  -8    7.66    3.88
  -4  -2   8    5.87    3.67
  -4   2   8    3.15    3.15
   4   2  -8   -0.77    3.78
   3  -2  -8    0.53    3.42
  -3  -2   8   -0.23    3.11
  -3   2   8    1.16    2.95
   3   2  -8    2.50    3.47
  -2  -2   8   45.57    4.89
   2  -2  -8   37.42    4.60
   2   2  -8   48.50    5.38
  -2   2   8   48.68    4.97
  -1  -2   8    9.57    3.27
   1  -2  -8    7.47    3.10
  -1   2   8    9.45    3.27
   1   2  -8   13.68    3.61
   0  -2   8   14.42    3.53
   0  -2  -8   16.93    3.22
   0   2   8   17.38    2.40
   0   2   8   16.43    3.71
   0   2  -8   10.31    3.58
   1  -2   8    6.01    3.23
  -1  -2  -8    5.45    2.63
   1   2   8    3.59    3.04
  -1   2  -8    7.78    2.78
   1   2   8    5.55    2.35
  -1   2  -8    5.20    3.23
   2  -2   8   26.45    4.22
   2  -2   8   19.55    3.96
  -2  -2  -8   26.54    3.32
  -2   2  -8   19.91    3.90
   2   2   8   19.76    4.13
   2   2   8   21.85    3.32
   3  -2   8    9.82    3.53
  -3  -2  -8   18.99    4.79
   3   2   8    8.53    3.11
  -3   2  -8   11.37    4.14
   4  -3  -8    4.62    3.91
  -4  -3   8    1.77    3.52
   4   3  -8    3.76    3.96
  -4   3   8    7.82    3.50
   3  -3  -8    5.87    3.62
  -3  -3   8    6.06    3.60
   3   3  -8    8.13    3.88
  -3   3   8    8.31    3.29
   2  -3  -8   23.17    3.92
  -2  -3   8   14.15    3.73
  -2   3   8   21.86    3.96
   2   3  -8   15.56    4.23
  -1  -3   8   17.79    3.60
   1  -3  -8   22.46    3.59
   1   3  -8   18.68    4.04
  -1   3   8   18.63    3.63
   0  -3  -8   11.02    2.85
   0  -3   8    8.05    3.21
   0   3   8   14.83    2.43
   0   3   8    6.14    3.36
   0   3  -8   16.46    3.94
   1  -3   8   16.72    3.90
  -1  -3  -8   20.56    2.96
  -1   3  -8   10.71    3.68
   1   3   8   19.22    2.99
  -1   3  -8   21.06    3.84
   1   3   8   14.43    3.79
   2  -3   8   25.49    4.12
  -2  -3  -8   25.37    5.16
   2  -3   8   19.29    4.01
   2   3   8   26.37    3.57
  -2   3  -8   21.15    4.02
  -3  -3  -8    4.14    4.33
   3  -3   8   14.54    3.88
   3  -3   8    7.21    3.69
   3   3   8    8.59    3.20
  -3   3  -8   15.07    4.29
  -4  -4   8    2.14    3.69
   4  -4  -8    2.32    3.64
  -4   4   8    7.75    3.49
   4   4  -8   10.42    4.18
  -3  -4   8   13.78    4.11
   3  -4  -8    3.60    3.69
  -3   4   8    6.54    3.32
   3   4  -8   15.49    4.22
   2  -4  -8    8.91    3.36
  -2  -4   8    6.77    3.44
  -2   4   8    7.63    3.28
   2   4  -8    8.48    3.86
  -1  -4   8   20.41    3.87
   1  -4  -8   18.10    3.37
  -1   4   8   22.78    2.70
  -1   4   8   19.15    3.92
   1   4  -8   17.98    4.25
   0  -4   8   11.84    3.49
   0  -4  -8   18.59    3.10
   0   4   8   22.46    4.14
   0   4   8   20.15    2.92
   0   4  -8   23.35    4.40
   1  -4   8   30.69    4.23
   1   4   8   23.84    3.37
   1   4   8   21.08    4.27
  -2  -4  -8   13.54    4.36
   2  -4   8   14.07    3.57
   2  -4   8    7.79    3.62
   2   4   8    8.63    2.90
  -2   4  -8   16.29    3.80
   3  -4   8    5.64    3.42
  -3  -4  -8    4.63    4.37
   3   4   8    0.26    2.83
  -3   4  -8    2.88    3.79
   4  -5  -8    1.78    3.73
  -4  -5   8    4.57    3.90
  -4   5   8   10.08    3.59
   4   5  -8   11.02    4.35
   3  -5  -8   18.52    4.24
  -3  -5   8   24.37    4.67
   3   5  -8   19.93    4.56
  -3   5   8   24.70    4.13
   2  -5  -8    4.25    3.07
  -2  -5   8   -4.19    3.00
   2   5  -8    4.43    3.74
  -2   5   8    0.99    2.98
  -1  -5   8    0.14    3.16
   1  -5  -8    3.43    2.81
  -1   5   8    1.56    3.22
   1   5  -8   -1.76    3.40
   0  -5   8    1.63    3.24
   0  -5  -8    0.39    2.33
   0   5  -8    3.44    3.77
   0   5   8    2.99    3.28
   0   5   8    2.15    2.32
   1  -5   8   12.05    3.66
   1  -5   8    8.35    3.76
   1   5   8   11.87    3.01
   2  -5   8   18.13    4.18
   2  -5   8   27.67    4.07
  -2  -5  -8   17.86    4.87
  -2   5  -8   27.14    4.22
   2   5   8   23.61    3.76
  -3  -5  -8   10.44    4.69
   3  -5   8    1.99    3.57
  -3   5  -8    6.38    4.14
   3   5   8    3.23    3.01
  -3  -6   8    4.74    3.74
   3  -6  -8    8.81    3.69
   3   6  -8   10.51    4.22
  -3   6   8    3.57    3.26
  -2  -6   8   -0.78    3.37
   2  -6  -8    4.27    3.15
   2   6  -8    4.48    4.10
  -2   6   8    3.38    3.14
  -1  -6   8    1.72    3.35
   1  -6  -8    2.04    2.69
  -1   6   8   -3.86    2.82
  -1   6   8   -0.69    2.27
   1   6  -8    2.19    3.82
   0  -6   8   -1.35    3.14
   0   6   8    8.79    3.53
   0   6  -8   -0.21    3.46
   0   6   8   -0.13    2.47
   1  -6   8    1.23    3.27
   1  -6   8   11.45    4.13
  -1  -6  -8    4.16    3.86
   1   6   8    7.44    2.79
   2  -6   8    6.69    3.85
  -2  -6  -8    6.57    3.98
  -2   6  -8    2.47    3.60
   2   6   8    5.80    3.56
   3  -7  -8   -4.84    3.17
  -3  -7   8    1.85    3.87
   3   7  -8    5.04    4.19
  -3   7   8    1.78    3.47
   2  -7  -8   -1.57    2.87
  -2  -7   8    1.70    3.50
  -2   7   8   -0.01    2.52
   2   7  -8   -2.39    3.83
  -2   7   8    1.97    3.33
  -1  -7   8   17.08    4.11
  -1   7   8   13.56    3.81
  -1   7   8   18.14    3.23
   1   7  -8   12.47    4.40
   0  -7  -8    8.03    4.19
   0  -7   8    5.02    3.58
   0   7   8    3.89    2.70
   0   7  -8   -2.30    3.68
   1  -7   8   17.14    3.94
  -1  -7  -8   12.09    4.49
   1  -7   8   16.72    4.43
   1   7   8   14.15    3.35
  -2  -7  -8    8.69    4.52
   2  -7   8   11.74    4.02
   2   7   8   10.91    3.48
  -2  -8   8    2.69    3.89
   2  -8  -8    2.30    4.04
  -2   8   8    1.54    3.00
  -2   8   8    5.05    3.68
   2   8  -8    3.44    4.41
  -1  -8   8    3.72    3.80
   1  -8  -8    7.85    4.31
  -1   8   8    3.91    2.83
   1   8  -8   13.95    4.66
   0  -8  -8   -2.25    3.70
   0  -8   8    2.50    3.51
   0   8  -8    6.08    4.47
   0   8   8    4.92    2.99
  -1  -8  -8   12.68    4.60
   1  -8   8   -0.91    3.82
   1   8   8    6.23    3.13
   4   0  -9   -2.50    3.84
  -4   0   9   -1.56    3.32
  -3   0   9    8.04    3.48
   3   0  -9   12.10    4.09
   2   0  -9    5.22    3.46
  -2   0   9   -0.34    2.94
   1   0  -9   12.20    3.65
  -1   0   9   13.97    3.65
   0   0   9   25.21    4.39
   0   0  -9   22.91    3.89
   1   0   9   17.87    4.13
  -1   0  -9   13.97    3.59
   2   0   9   29.98    3.77
  -2   0  -9   30.43    4.16
   2   0   9   30.88    5.17
  -3   0  -9    6.97    4.23
   3   0   9    5.63    3.25
  -4  -1   9   -3.68    3.41
  -4   1   9    0.73    3.41
   3  -1  -9    6.69    3.86
  -3  -1   9    0.48    3.20
   3   1  -9    2.80    3.66
  -3   1   9    5.66    3.42
  -2  -1   9    7.89    3.50
   2  -1  -9    6.30    3.48
  -2   1   9    7.46    3.46
   2   1  -9    6.76    3.54
  -1  -1   9   -3.06    2.91
   1  -1  -9    2.01    2.99
   1   1  -9   -5.23    3.07
  -1   1   9   -1.48    3.00
   0  -1  -9   36.23    4.34
   0  -1   9   41.91    4.98
   0   1   9   35.55    4.79
   0   1  -9   33.76    4.57
  -1  -1  -9    4.48    2.87
   1  -1   9    4.54    3.59
   1   1   9    3.20    3.44
  -1   1  -9    0.25    2.98
   2  -1   9   10.26    4.12
  -2  -1  -9    8.33    3.06
  -2   1  -9    2.51    3.19
   2   1   9    4.77    3.82
   2   1   9    7.38    2.83
  -3  -2   9    5.46    3.60
   3  -2  -9    7.53    3.87
  -3   2   9    6.63    3.43
   3   2  -9    5.47    3.96
  -2  -2   9   17.55    3.97
   2  -2  -9   28.90    4.32
   2   2  -9   14.58    4.08
  -2   2   9   22.59    4.29
   1  -2  -9    1.98    3.01
  -1  -2   9    3.38    3.32
   1   2  -9    4.84    3.76
  -1   2   9    1.31    3.14
   0  -2  -9    4.47    2.89
   0  -2   9    9.65    3.46
   0   2  -9    4.62    3.50
   0   2   9    8.08    3.67
   1  -2   9   14.95    4.09
  -1  -2  -9    9.31    2.95
   1   2   9   10.70    3.81
   1   2   9    4.94    2.33
  -1   2  -9    3.10    3.42
   2  -2   9    7.77    3.93
  -2   2  -9    8.79    3.72
   2   2   9    4.45    2.71
   2   2   9    1.39    3.67
  -3  -3   9    6.19    3.87
   3  -3  -9    7.75    3.97
   3   3  -9   10.75    4.13
  -3   3   9    4.16    3.44
  -2  -3   9   -0.14    3.28
   2  -3  -9    5.75    3.39
  -2   3   9    4.19    3.35
   2   3  -9    4.97    3.89
   1  -3  -9    5.49    3.11
  -1  -3   9    6.92    3.47
   1   3  -9    3.37    3.74
  -1   3   9    5.69    3.37
   0  -3  -9    3.62    2.76
   0  -3   9    2.62    3.40
   0   3   9   -1.51    3.10
   1  -3   9    7.97    3.79
  -1   3  -9    3.38    3.65
   1   3   9   -2.41    3.40
   1   3   9    5.35    2.57
  -2  -3  -9    6.48    4.50
   2  -3   9    1.83    3.68
   2   3   9    5.48    2.95
  -2   3  -9    1.81    3.66
  -3  -4   9   10.27    4.16
   3  -4  -9   14.28    4.07
   3   4  -9    8.22    4.18
  -3   4   9    8.25    3.81
  -2  -4   9    3.85    3.67
   2  -4  -9   -5.16    2.99
   2   4  -9    1.99    3.81
  -2   4   9    5.78    3.39
  -1  -4   9    0.94    3.31
   1  -4  -9   -2.63    2.82
  -1   4   9    2.57    3.34
   1   4  -9   -0.42    3.71
   0  -4  -9    7.88    3.02
   0  -4   9    3.76    3.56
   0   4  -9    2.90    3.80
   0   4   9    2.63    3.39
   1  -4   9    3.08    3.60
   1   4   9    3.91    2.56
   1   4   9   -1.47    3.36
  -1   4  -9   -0.36    3.69
  -2  -4  -9    2.76    4.24
   2  -4   9    2.05    3.55
   2  -4   9    1.32    3.79
   2   4   9    4.86    3.04
  -2  -5   9    4.28    3.67
   2  -5  -9    6.91    3.52
   2   5  -9    5.21    4.37
  -2   5   9   10.43    3.88
  -1  -5   9   34.28    4.98
   1  -5  -9   23.46    3.79
  -1   5   9   22.33    4.47
   1   5  -9   23.45    4.81
   0   5   9    8.36    3.83
   0   5   9   15.29    3.10
   0   5  -9    5.74    4.10
   1  -5   9    8.96    3.91
  -1   5  -9    6.12    4.08
   1   5   9    7.43    3.08
   2  -6  -9    5.64    3.35
  -2  -6   9    4.67    3.93
  -2   6   9   -0.55    3.50
   2   6  -9   11.67    4.64
  -1  -6   9    9.93    4.05
  -1   6   9   11.89    4.08
   1   6  -9    7.79    4.27
   0  -6   9   10.99    4.08
   0   6   9   15.69    3.14
   0   6   9    3.54    3.69
   0   6  -9   19.50    4.88
  -1  -6  -9   23.51    5.34
   1  -6   9   27.66    4.68
  -1   6  -9   29.42    5.37
   1   6   9   33.35    4.19
  -2   0  10    0.91    3.42
   2   0 -10   10.99    3.92
  -1   0  10   -0.60    3.34
   1   0 -10    2.73    3.38
   0   0 -10   19.72    4.00
   0   0  10   29.92    4.86
  -1   0 -10    5.30    3.28
   1   0  10   12.82    4.28
   2  -1 -10    5.83    3.73
  -2  -1  10    3.82    3.44
   2   1 -10    5.76    3.80
  -2   1  10    7.11    3.71
   1  -1 -10   25.61    4.31
  -1  -1  10   31.02    4.84
  -1   1  10   22.20    4.48
   1   1 -10   20.18    4.34
   0  -1  10    0.76    3.60
   0  -1 -10   -1.01    2.86
   0   1 -10    1.01    3.32
   0   1  10   -1.42    3.37
   1  -1  10    4.41    4.12
  -1  -1 -10    5.69    3.12
  -1   1 -10    4.78    3.47
   1   1  10    4.65    4.08
  -2  -2  10   15.39    4.33
   2  -2 -10   18.79    4.25
   2   2 -10   12.49    4.20
  -2   2  10    9.90    3.94
  -1  -2  10    3.95    3.69
   1  -2 -10    3.55    3.23
  -1   2  10    3.08    3.42
   1   2 -10    0.91    3.47
   0  -2 -10    9.94    3.41
   0  -2  10   14.84    4.27
   0   2 -10    7.14    3.84
   0   2  10    9.84    3.99
   1  -2  10   -8.20    3.59
  -1   2 -10    8.30    3.78
   1   2  10    1.98    3.96
   1  -3 -10    5.34    3.46
  -1  -3  10    5.12    3.61
   1   3 -10    3.96    4.03
  -1   3  10    8.13    3.79
   0  -3 -10   11.96    3.41
   0  -3  10    3.52    4.11
   0   3 -10    5.46    4.01
   0   3  10    3.11    3.84
   0   0   0    0.00    0.00
;
_shelx_hkl_checksum              87861
loop_
_space_group_symop_operation_xyz
'x, y, z'
'-x, y+1/2, -z'
loop_
_atom_site_label
_atom_site_type_symbol
_atom_site_fract_x
_atom_site_fract_y
_atom_site_fract_z
_atom_site_U_iso_or_equiv
_atom_site_adp_type
_atom_site_occupancy
_atom_site_site_symmetry_order
_atom_site_calc_flag
_atom_site_refinement_flags_posn
_atom_site_refinement_flags_adp
F1 F -0.1058(4) -0.8387(2) -0.9350(3) 0.0223(6) Uani 1 1 d . .
O1 O -0.6396(5) -0.6706(3) -0.9394(4) 0.0286(8) Uani 1 1 d . .
O2 O -0.5391(6) -0.8639(3) -0.8614(4) 0.0317(8) Uani 1 1 d . .
O3 O -0.1170(6) -0.5261(3) -0.8815(3) 0.0246(7) Uani 1 1 d . .
O4 O -0.1076(6) -0.6737(3) -0.6932(3) 0.0284(8) Uani 1 1 d . .
O5 O 0.0498(6) -0.9764(3) -1.6182(3) 0.0273(8) Uani 1 1 d . .
O6 O -0.2919(6) -1.0845(3) -1.6315(4) 0.0300(8) Uani 1 1 d . .
N1 N -0.2701(6) -0.7816(3) -1.2553(4) 0.0172(8) Uani 1 1 d . .
N2 N -0.4877(6) -0.8471(3) -1.2606(4) 0.0209(8) Uani 1 1 d . .
N3 N -0.4971(7) -0.7613(4) -0.9181(4) 0.0203(8) Uani 1 1 d . .
N4 N -0.1424(6) -0.6348(3) -0.8333(4) 0.0174(8) Uani 1 1 d . .
N5 N -0.1571(7) -0.9973(3) -1.5739(4) 0.0236(9) Uani 1 1 d . .
C1 C -0.4690(8) -0.9318(4) -1.3792(5) 0.0211(10) Uani 1 1 d . .
H1 H -0.5923 -0.9923 -1.4137 0.025 Uiso 1 1 calc R U
C2 C -0.2443(8) -0.9205(4) -1.4470(5) 0.0190(9) Uani 1 1 d . .
C3 C -0.1191(7) -0.8231(4) -1.3636(5) 0.0171(9) Uani 1 1 d . .
H3 H 0.0405 -0.7922 -1.3798 0.021 Uiso 1 1 calc R U
C4 C -0.2257(8) -0.6798(4) -1.1359(5) 0.0183(9) Uani 1 1 d . .
H4A H -0.3520 -0.6125 -1.1560 0.022 Uiso 1 1 calc R U
H4B H -0.0628 -0.6411 -1.1475 0.022 Uiso 1 1 calc R U
C5 C -0.2345(7) -0.7329(4) -0.9641(5) 0.0171(9) Uani 1 1 d . .
loop_
_atom_site_aniso_label
_atom_site_aniso_U_11
_atom_site_aniso_U_22
_atom_site_aniso_U_33
_atom_site_aniso_U_23
_atom_site_aniso_U_13
_atom_site_aniso_U_12
F1 0.0237(13) 0.0174(14) 0.0255(13) -0.0015(12) -0.0004(10) 0.0039(12)
O1 0.0200(18) 0.0280(19) 0.0381(19) -0.0036(16) 0.0035(14) 0.0035(16)
O2 0.036(2) 0.027(2) 0.0327(18) 0.0088(16) 0.0039(15) -0.0109(16)
O3 0.0307(18) 0.0142(17) 0.0282(17) 0.0005(14) -0.0024(14) -0.0020(14)
O4 0.039(2) 0.0278(17) 0.0176(16) -0.0011(15) -0.0036(14) -0.0031(16)
O5 0.0242(19) 0.035(2) 0.0232(17) -0.0040(14) 0.0038(14) 0.0039(16)
O6 0.032(2) 0.0231(17) 0.0332(19) -0.0099(16) -0.0101(15) 0.0020(16)
N1 0.018(2) 0.0157(18) 0.0178(18) -0.0012(15) 0.0010(15) -0.0016(15)
N2 0.0168(19) 0.021(2) 0.0252(19) -0.0005(18) 0.0019(15) -0.0056(17)
N3 0.021(2) 0.022(2) 0.0181(19) -0.0031(17) 0.0015(16) -0.0035(18)
N4 0.016(2) 0.020(2) 0.0166(18) -0.0033(15) 0.0003(15) -0.0002(15)
N5 0.032(2) 0.021(2) 0.0169(19) -0.0010(16) -0.0078(17) 0.0033(18)
C1 0.018(2) 0.019(2) 0.026(3) -0.003(2) 0.0002(19) -0.002(2)
C2 0.021(2) 0.016(2) 0.019(2) -0.0020(18) -0.0036(18) 0.0019(19)
C3 0.016(2) 0.019(2) 0.016(2) 0.0026(18) 0.0013(17) 0.0027(19)
C4 0.020(2) 0.014(2) 0.020(2) -0.0044(19) 0.0015(17) 0.000(2)
C5 0.016(2) 0.012(2) 0.023(2) -0.0024(17) 0.0000(19) 0.0033(18)
loop_
_atom_type_symbol
_atom_type_description
_atom_type_scat_dispersion_real
_atom_type_scat_dispersion_imag
_atom_type_scat_source
C C 0.0033 0.0016 'International Tables Vol C Tables 4.2.6.8 and 6.1.1.4'
H H 0.0000 0.0000 'International Tables Vol C Tables 4.2.6.8 and 6.1.1.4'
F F 0.0171 0.0103 'International Tables Vol C Tables 4.2.6.8 and 6.1.1.4'
N N 0.0061 0.0033 'International Tables Vol C Tables 4.2.6.8 and 6.1.1.4'
O O 0.0106 0.0060 'International Tables Vol C Tables 4.2.6.8 and 6.1.1.4'
loop_
_geom_angle_atom_site_label_1
_geom_angle_atom_site_label_2
_geom_angle_atom_site_label_3
_geom_angle
C3 N1 N2 113.7(3)
C3 N1 C4 127.3(4)
N2 N1 C4 119.0(3)
C1 N2 N1 103.8(3)
O2 N3 O1 127.3(4)
O2 N3 C5 118.6(4)
O1 N3 C5 114.0(3)
O4 N4 O3 127.3(4)
O4 N4 C5 116.3(3)
O3 N4 C5 116.3(3)
O5 N5 O6 123.3(4)
O5 N5 C2 118.9(3)
O6 N5 C2 117.8(4)
N2 C1 C2 110.9(4)
N2 C1 H1 124.5
C2 C1 H1 124.5
C3 C2 C1 106.7(4)
C3 C2 N5 126.4(4)
C1 C2 N5 126.9(4)
N1 C3 C2 105.0(4)
N1 C3 H3 127.5
C2 C3 H3 127.5
N1 C4 C5 109.4(3)
N1 C4 H4A 109.8
C5 C4 H4A 109.8
N1 C4 H4B 109.8
C5 C4 H4B 109.8
H4A C4 H4B 108.2
F1 C5 C4 114.6(3)
F1 C5 N4 107.4(3)
C4 C5 N4 111.2(3)
F1 C5 N3 106.6(3)
C4 C5 N3 113.5(3)
N4 C5 N3 102.6(3)
loop_
_geom_bond_atom_site_label_1
_geom_bond_atom_site_label_2
_geom_bond_distance
F1 C5 1.323(5)
O1 N3 1.232(4)
O2 N3 1.200(5)
O3 N4 1.216(4)
O4 N4 1.210(4)
O5 N5 1.235(4)
O6 N5 1.241(5)
N1 C3 1.330(5)
N1 N2 1.371(4)
N1 C4 1.449(5)
N2 C1 1.321(5)
N3 C5 1.543(5)
N4 C5 1.533(5)
N5 C2 1.422(5)
C1 C2 1.393(6)
C1 H1 0.9500
C2 C3 1.375(6)
C3 H3 0.9500
C4 C5 1.508(5)
C4 H4A 0.9900
C4 H4B 0.9900
loop_
_geom_torsion_atom_site_label_1
_geom_torsion_atom_site_label_2
_geom_torsion_atom_site_label_3
_geom_torsion_atom_site_label_4
_geom_torsion
C3 N1 N2 C1 -0.7(4)
C4 N1 N2 C1 -179.6(3)
N1 N2 C1 C2 0.2(4)
N2 C1 C2 C3 0.2(5)
N2 C1 C2 N5 178.3(4)
O5 N5 C2 C3 -0.8(6)
O6 N5 C2 C3 177.3(4)
O5 N5 C2 C1 -178.6(4)
O6 N5 C2 C1 -0.4(6)
N2 N1 C3 C2 0.8(4)
C4 N1 C3 C2 179.6(3)
C1 C2 C3 N1 -0.6(4)
N5 C2 C3 N1 -178.7(4)
C3 N1 C4 C5 -118.8(4)
N2 N1 C4 C5 60.0(4)
N1 C4 C5 F1 47.5(4)
N1 C4 C5 N4 169.5(3)
N1 C4 C5 N3 -75.3(4)
O4 N4 C5 F1 -43.3(5)
O3 N4 C5 F1 138.0(3)
O4 N4 C5 C4 -169.4(3)
O3 N4 C5 C4 11.9(5)
O4 N4 C5 N3 68.9(4)
O3 N4 C5 N3 -109.8(4)
O2 N3 C5 F1 2.9(5)
O1 N3 C5 F1 -179.8(3)
O2 N3 C5 C4 130.0(4)
O1 N3 C5 C4 -52.7(5)
O2 N3 C5 N4 -109.9(4)
O1 N3 C5 N4 67.4(4)
