#------------------------------------------------------------------------------
#$Date: 2019-11-24 13:56:51 +0200 (Sun, 24 Nov 2019) $
#$Revision: 238072 $
#$URL: file:///home/coder/svn-repositories/cod/cif/1/55/47/1554716.cif $
#------------------------------------------------------------------------------
#
# This file is available in the Crystallography Open Database (COD),
# http://www.crystallography.net/
#
# All data on this site have been placed in the public domain by the
# contributors.
#
data_1554716
loop_
_publ_author_name
'Bar\/l\'og, Maciej'
'Kulai, Ihor'
'Ji, Xiaozhou'
'Bhuvanesh, Nattamai'
'Dey, Somnath'
'Sliwinski, Eric Pierre'
'Bazzi, Hassan S.'
'Fang, Lei'
'Al-Hashimi, Mohammed'
_publ_section_title
;
 Synthesis, characterization and crystal structures of novel fluorinated
 di(thiazolyl)benzene derivatives
;
_journal_issue                   6
_journal_name_full               'Organic Chemistry Frontiers'
_journal_page_first              780
_journal_paper_doi               10.1039/C9QO00044E
_journal_volume                  6
_journal_year                    2019
_chemical_formula_moiety         '2(C6 H2 F2 N S)'
_chemical_formula_sum            'C12 H4 F4 N2 S2'
_chemical_formula_weight         316.29
_space_group_crystal_system      triclinic
_space_group_IT_number           2
_space_group_name_Hall           '-P 1'
_space_group_name_H-M_alt        'P -1'
_atom_sites_solution_hydrogens   geom
_audit_creation_date             2017-05-31
_audit_creation_method
;
Olex2 1.2-beta
(compiled 2017.03.28 svn.r3405 for OlexSys, GUI svn.r5335)
;
_audit_update_record
;
2018-07-19 deposited with the CCDC.
2019-01-30 downloaded from the CCDC.
;
_cell_angle_alpha                84.549(3)
_cell_angle_beta                 83.096(2)
_cell_angle_gamma                70.873(2)
_cell_formula_units_Z            2
_cell_length_a                   5.0225(8)
_cell_length_b                   7.1949(14)
_cell_length_c                   17.290(3)
_cell_measurement_reflns_used    4388
_cell_measurement_temperature    110.0
_cell_measurement_theta_max      27.475
_cell_measurement_theta_min      2.377
_cell_volume                     584.99(18)
_computing_cell_refinement       'SAINT v8.37A (Bruker, 2015)'
_computing_data_reduction        'SAINT v8.37A (Bruker, 2015)'
_computing_molecular_graphics    'Olex2 (Dolomanov et al., 2009)'
_computing_publication_material  'Olex2 (Dolomanov et al., 2009)'
_computing_structure_refinement  'XL (Sheldrick, 2008)'
_diffrn_ambient_temperature      110.0
_diffrn_measured_fraction_theta_full 0.993
_diffrn_measured_fraction_theta_max 0.984
_diffrn_measurement_device_type  'Bruker APEX-II CCD'
_diffrn_measurement_method       '\f and \w scans'
_diffrn_radiation_type           MoK\a
_diffrn_radiation_wavelength     0.71073
_diffrn_reflns_av_R_equivalents  0.0140
_diffrn_reflns_av_unetI/netI     0.0167
_diffrn_reflns_Laue_measured_fraction_full 0.993
_diffrn_reflns_Laue_measured_fraction_max 0.984
_diffrn_reflns_limit_h_max       6
_diffrn_reflns_limit_h_min       -6
_diffrn_reflns_limit_k_max       9
_diffrn_reflns_limit_k_min       -9
_diffrn_reflns_limit_l_max       22
_diffrn_reflns_limit_l_min       -22
_diffrn_reflns_number            6854
_diffrn_reflns_point_group_measured_fraction_full 0.993
_diffrn_reflns_point_group_measured_fraction_max 0.984
_diffrn_reflns_theta_full        25.242
_diffrn_reflns_theta_max         27.480
_diffrn_reflns_theta_min         1.188
_diffrn_standards_number         0
_exptl_absorpt_coefficient_mu    0.496
_exptl_absorpt_correction_T_max  0.7456
_exptl_absorpt_correction_T_min  0.6765
_exptl_absorpt_correction_type   multi-scan
_exptl_absorpt_process_details
'SADABS-2014/5 (Bruker,2014/5) was used for absorption correction. wR2(int) was 0.0472 before and 0.0254 after correction. The Ratio of minimum to maximum transmission is 0.9073. The \l/2 correction factor is Not present.'
_exptl_crystal_colour            colourless
_exptl_crystal_colour_primary    colourless
_exptl_crystal_density_diffrn    1.796
_exptl_crystal_description       block
_exptl_crystal_F_000             316
_exptl_crystal_size_max          0.512
_exptl_crystal_size_mid          0.437
_exptl_crystal_size_min          0.15
_refine_diff_density_max         0.393
_refine_diff_density_min         -0.211
_refine_diff_density_rms         0.052
_refine_ls_extinction_method     none
_refine_ls_goodness_of_fit_ref   1.040
_refine_ls_hydrogen_treatment    constr
_refine_ls_matrix_type           full
_refine_ls_number_parameters     181
_refine_ls_number_reflns         2659
_refine_ls_number_restraints     0
_refine_ls_restrained_S_all      1.040
_refine_ls_R_factor_all          0.0294
_refine_ls_R_factor_gt           0.0266
_refine_ls_shift/su_max          0.001
_refine_ls_shift/su_mean         0.000
_refine_ls_structure_factor_coef Fsqd
_refine_ls_weighting_details
'w=1/[\s^2^(Fo^2^)+(0.0329P)^2^+0.3166P] where P=(Fo^2^+2Fc^2^)/3'
_refine_ls_weighting_scheme      calc
_refine_ls_wR_factor_gt          0.0660
_refine_ls_wR_factor_ref         0.0681
_reflns_Friedel_coverage         0.000
_reflns_number_gt                2458
_reflns_number_total             2659
_reflns_threshold_expression     'I > 2\s(I)'
_cod_data_source_file            c9qo00044e2.cif
_cod_data_source_block           f4r
_cod_original_cell_volume        584.98(18)
_cod_database_code               1554716
_shelx_shelxl_version_number     2014/7
_shelx_space_group_comment
;
The symmetry employed for this shelxl refinement is uniquely defined
by the following loop, which should always be used as a source of
symmetry information in preference to the above space-group names.
They are only intended as comments.
;
_shelx_estimated_absorpt_t_max   0.929
_shelx_estimated_absorpt_t_min   0.785
_olex2_refinement_description
;
1. Fixed Uiso
 At 1.2 times of:
  All C(H) groups
2.a Aromatic/amide H refined with riding coordinates:
 C3B(H3B), C2B(H2B), C3(H3), C2(H2)
;
_shelx_res_file
;
    f4r.res created by SHELXL-2014/7

TITL f4r_a.res in P-1
REM Old TITL F4R in P-1
REM SHELXT solution in P-1
REM R1 0.101, Rweak 0.006, Alpha 0.029, Orientation as input
REM Formula found by SHELXT: C13 N F4 P2
CELL 0.71073 5.0225 7.1949 17.2895 84.549 83.096 70.873
ZERR 2 0.0008 0.0014 0.0029 0.003 0.002 0.002
LATT 1
SFAC C H F N S
UNIT 24 8 8 4 4

L.S. 10
PLAN  20
SIZE 0.15 0.437 0.512
TEMP -163.15
BOND $H
conf
wpdb -1
more -1
htab
fmap 2
acta
OMIT -1 2 6
OMIT 2 -1 6
OMIT 1 -3 5
OMIT 3 -1 1
OMIT -1 -3 1
OMIT 4 0 3
REM <olex2.extras>
REM <HklSrc "%.\\F4R.hkl">
REM </olex2.extras>

WGHT    0.032900    0.316600
FVAR       0.24387
S1    5    1.731237   -0.361962    0.590853    11.00000    0.02478    0.01891 =
         0.02057   -0.00180   -0.00755   -0.00411
S1B   5    0.597558    0.303871    0.814438    11.00000    0.01448    0.03237 =
         0.01171   -0.00046    0.00019    0.00214
F1B   3    0.088350    0.588168    0.845780    11.00000    0.01771    0.02813 =
         0.01061    0.00257    0.00026    0.00215
F2B   3   -0.391490    0.774340    0.918856    11.00000    0.01500    0.02756 =
         0.01439    0.00351   -0.00149    0.00529
F2    3    1.094491   -0.155498    0.358969    11.00000    0.02593    0.02463 =
         0.01336   -0.00572   -0.00418   -0.00442
F1    3    1.482307   -0.285133    0.454966    11.00000    0.02064    0.02299 =
         0.01783   -0.00522   -0.00223   -0.00234
N1B   4    0.749134    0.167401    0.950322    11.00000    0.01438    0.02318 =
         0.01530   -0.00207   -0.00033    0.00097
N1    4    1.422046   -0.083052    0.676023    11.00000    0.02230    0.02979 =
         0.01438   -0.00208   -0.00319   -0.00817
C5B   1    0.050814    0.540353    0.922751    11.00000    0.01556    0.02109 =
         0.00987   -0.00046   -0.00108   -0.00390
C4B   1    0.266683    0.395236    0.958378    11.00000    0.01238    0.01742 =
         0.01397   -0.00255   -0.00102   -0.00301
C1B   1    0.535819    0.287078    0.915590    11.00000    0.01349    0.01726 =
         0.01252   -0.00139   -0.00085   -0.00395
C4    1    1.216630   -0.075796    0.553709    11.00000    0.01932    0.01848 =
         0.01353    0.00138   -0.00254   -0.00961
C6B   1   -0.204910    0.640666    0.961776    11.00000    0.01293    0.01672 =
         0.01484    0.00017   -0.00405   -0.00009
C6    1    1.037634   -0.073921    0.427874    11.00000    0.02229    0.01957 =
         0.01109   -0.00203   -0.00080   -0.00958
C1    1    1.434864   -0.156598    0.608637    11.00000    0.01867    0.01829 =
         0.01370    0.00079   -0.00131   -0.00833
C5    1    1.243331   -0.144065    0.479480    11.00000    0.01764    0.01738 =
         0.01573   -0.00126   -0.00036   -0.00663
C3B   1    0.928761    0.139597    0.820905    11.00000    0.01319    0.02383 =
         0.01721   -0.00467    0.00145   -0.00125
AFIX  43
H3B   2    1.063514    0.093798    0.777750    11.00000   -1.20000
AFIX   0
C2B   1    0.971235    0.084017    0.896846    11.00000    0.01314    0.02310 =
         0.01874   -0.00303    0.00000    0.00080
AFIX  43
H2B   2    1.144273   -0.007086    0.912010    11.00000   -1.20000
AFIX   0

C3    1    1.837577   -0.344008    0.679131    11.00000    0.02485    0.02549 =
         0.01988    0.00417   -0.00870   -0.00930
AFIX  43
H3    2    2.004483   -0.430167    0.699684    11.00000   -1.20000
AFIX   0
C2    1    1.649604   -0.189183    0.715628    11.00000    0.02444    0.03234 =
         0.01538    0.00040   -0.00543   -0.00977
AFIX  43
H2    2    1.674014   -0.156171    0.765633    11.00000   -1.20000
AFIX   0
HKLF 4

REM  f4r_a.res in P-1
REM R1 =  0.0266 for    2458 Fo > 4sig(Fo)  and  0.0294 for all    2659 data
REM    181 parameters refined using      0 restraints

END

WGHT      0.0329      0.3166

REM Instructions for potential hydrogen bonds
EQIV $1 -x+2, -y, -z+1
HTAB C3B F2_$1
HTAB C3B N1
EQIV $2 x+2, y-1, z
HTAB C2B F2B_$2
EQIV $3 -x+2, -y, -z+2
HTAB C2B N1B_$3
HTAB C3 F1B_$2

REM Highest difference peak  0.393,  deepest hole -0.211,  1-sigma level  0.052
Q1    1   0.5563  0.3030  0.8694  11.00000  0.05    0.39
Q2    1  -0.0545  0.6218  0.9476  11.00000  0.05    0.37
Q3    1   0.4020  0.3500  0.9368  11.00000  0.05    0.35
Q4    1   0.2527  0.3915  0.9998  11.00000  0.05    0.33
Q5    1   1.0828 -0.0239  0.5678  11.00000  0.05    0.32
Q6    1   0.8631  0.1321  0.9245  11.00000  0.05    0.30
Q7    1   1.3242 -0.1150  0.5786  11.00000  0.05    0.30
Q8    1   0.1629  0.4586  0.9409  11.00000  0.05    0.30
Q9    1   1.5525 -0.2561  0.6004  11.00000  0.05    0.29
Q10   1   0.7815  0.2104  0.8161  11.00000  0.05    0.29
Q11   1   1.1194 -0.1321  0.4609  11.00000  0.05    0.29
Q12   1   1.1580 -0.0873  0.4498  11.00000  0.05    0.28
Q13   1   0.9215  0.0842  0.8569  11.00000  0.05    0.27
Q14   1   1.2013 -0.1312  0.5242  11.00000  0.05    0.26
Q15   1   1.2513 -0.0792  0.5110  11.00000  0.05    0.26
Q16   1   1.7755 -0.2378  0.6881  11.00000  0.05    0.24
Q17   1   1.7892 -0.3647  0.6403  11.00000  0.05    0.24
Q18   1   1.4131 -0.1506  0.6508  11.00000  0.05    0.24
Q19   1   1.6751 -0.2968  0.7050  11.00000  0.05    0.23
Q20   1   1.5541 -0.1228  0.6889  11.00000  0.05    0.23
;
_shelx_res_checksum              54679
_shelx_hkl_file
;
  -1  -1  -1    0.85    0.04
  -1  -1  -1    0.80    0.04
  -1  -1  -1    0.77    0.04
  -1  -1  -1    0.97    0.04
  -2  -2  -2    0.51    0.05
  -2  -2  -2    0.73    0.06
  -2  -2  -2    0.57    0.06
  -2  -2  -2    0.58    0.05
  -3  -3  -3   52.03    0.86
  -3  -3  -3   51.29    0.84
  -3  -3  -3   51.68    0.82
  -4  -4  -4    1.91    0.13
  -4  -4  -4    1.83    0.14
   4   4   4    1.75    0.13
   4   4   4    2.26    0.14
  -5  -5  -5    3.23    0.21
   5   5   5    3.25    0.20
  -6  -6  -6    0.17    0.10
   5   6   5    1.21    0.14
  -5  -6  -5    1.04    0.15
  -4  -5  -4    3.37    0.18
  -4  -5  -4    3.43    0.18
  -4  -5  -4    3.11    0.18
  -3  -4  -3   17.35    0.39
  -3  -4  -3   16.96    0.37
  -3  -4  -3   16.66    0.38
  -3  -4  -3   17.36    0.40
  -2  -3  -2   13.11    0.28
  -2  -3  -2   13.29    0.28
  -2  -3  -2   12.63    0.27
  -2  -3  -2   13.26    0.30
  -1  -2  -1  526.21    6.89
  -1  -2  -1  532.20    6.80
  -1  -2  -1  520.11    6.87
  -1  -2  -1  523.75    6.98
   0   1   0    0.98    0.04
   0   1   0    0.96    0.03
   0  -1   0    0.92    0.03
  -1   0  -1   95.28    1.23
  -1   0  -1   91.38    1.24
   1   0   1   92.82    1.21
   1   0   1   93.05    1.24
  -2  -1  -2    7.81    0.18
  -2  -1  -2    7.81    0.20
   2   1   2    7.88    0.17
   2   1   2    7.63    0.19
  -3  -2  -3   76.20    1.17
  -3  -2  -3   77.68    1.12
   3   2   3   76.19    1.15
   3   2   3   75.44    1.10
  -4  -3  -4   12.58    0.37
  -4  -3  -4   13.04    0.32
   4   3   4   13.05    0.35
  -5  -4  -5    0.22    0.08
   5   4   5    0.42    0.09
  -6  -5  -6    2.62    0.26
   6   5   6    2.81    0.22
   4   6   4    8.09    0.29
  -4  -6  -4    7.83    0.28
  -4  -6  -4    7.77    0.31
  -3  -5  -3    0.59    0.09
  -3  -5  -3    0.54    0.07
   2   4   2  157.14    2.16
   2   4   2  153.32    2.09
  -2  -4  -2  157.80    2.11
  -2  -4  -2  157.52    2.19
   1   3   1   -0.02    0.02
  -1  -3  -1    0.05    0.02
  -1  -3  -1    0.02    0.02
   0   2   0  142.20    1.88
   0   2   0  141.72    1.82
   0  -2   0  139.04    1.88
   0  -2   0  140.96    1.83
  -1   1  -1    4.01    0.11
   1  -1   1    4.40    0.11
   1  -1   1    4.01    0.10
  -2   0  -2   44.03    0.67
   2   0   2   44.10    0.63
  -3  -1  -3   81.55    1.18
  -3  -1  -3   80.79    1.24
   3   1   3   81.85    1.14
   3   1   3   80.25    1.22
  -4  -2  -4    8.14    0.24
  -4  -2  -4    7.57    0.28
   4   2   4    7.70    0.26
  -5  -3  -5    0.17    0.08
   5   3   5    0.11    0.06
  -6  -4  -6    1.70    0.21
   6   4   6    1.70    0.19
   4   7   4    0.64    0.13
  -4  -7  -4    0.75    0.14
   3   6   3   45.86    0.85
  -3  -6  -3   45.93    0.78
  -3  -6  -3   44.48    0.87
   2   5   2    0.06    0.03
   2   5   2    0.05    0.04
  -2  -5  -2    0.14    0.05
  -2  -5  -2    0.02    0.03
   1   4   1    3.30    0.10
   1   4   1    3.09    0.14
  -1  -4  -1    3.40    0.11
   0   3   0    5.04    0.11
   0   3   0    5.05    0.16
   0  -3   0    4.70    0.16
   0  -3   0    5.02    0.13
  -1   2  -1   13.22    0.25
  -1   2  -1   13.18    0.28
   1  -2   1   12.93    0.26
   1  -2   1   12.92    0.25
  -2   1  -2    0.44    0.06
  -2   1  -2    0.53    0.07
   2  -1   2    0.28    0.05
   2  -1   2    0.48    0.05
  -3   0  -3    2.82    0.13
  -3   0  -3    2.61    0.14
   3   0   3    2.79    0.10
   3   0   3    2.68    0.14
  -4  -1  -4   23.15    0.54
  -4  -1  -4   23.62    0.48
   4   1   4   22.98    0.51
  -5  -2  -5   24.31    0.62
   5   2   5   25.03    0.59
  -6  -3  -6   13.16    0.49
   6   3   6   13.49    0.45
   4   8   4    0.06    0.09
  -4  -8  -4    0.74    0.15
   3   7   3    0.55    0.11
  -3  -7  -3    0.58    0.11
   2   6   2   23.89    0.54
  -2  -6  -2   23.30    0.45
  -2  -6  -2   23.31    0.56
   1   5   1   15.98    0.39
  -1  -5  -1   15.80    0.32
  -1  -5  -1   15.96    0.40
   0   4   0   92.31    1.38
   0   4   0   94.04    1.25
   0  -4   0   91.14    1.37
   0  -4   0   93.08    1.29
  -1   3  -1   18.97    0.40
  -1   3  -1   19.28    0.35
   1  -3   1   18.72    0.35
   1  -3   1   18.81    0.38
  -2   2  -2   52.11    0.84
  -2   2  -2   52.08    0.82
   2  -2   2   52.87    0.79
   2  -2   2   52.34    0.82
  -3   1  -3    0.06    0.04
  -3   1  -3    0.07    0.04
   3  -1   3    0.09    0.03
   3  -1   3    0.08    0.04
  -4   0  -4    7.66    0.34
  -4   0  -4    7.38    0.28
   4   0   4    7.10    0.26
  -5  -1  -5   33.67    0.77
   5   1   5   34.19    0.73
  -6  -2  -6    2.84    0.27
   6   2   6    2.84    0.22
   3   8   3    0.14    0.08
  -3  -8  -3   -0.04    0.06
   2   7   2   10.86    0.37
  -2  -7  -2   11.21    0.39
   1   6   1    1.93    0.15
  -1  -6  -1    1.99    0.11
  -1  -6  -1    2.18    0.16
   0   5   0    4.61    0.20
   0  -5   0    5.50    0.22
   0  -5   0    4.70    0.16
  -1   4  -1    5.38    0.16
  -1   4  -1    4.94    0.20
   1  -4   1    4.99    0.16
   1  -4   1    5.26    0.20
  -2   3  -2    7.08    0.22
  -2   3  -2    7.51    0.25
   2  -3   2    6.97    0.21
   2  -3   2    7.02    0.21
  -3   2  -3   45.24    0.80
  -3   2  -3   45.94    0.81
   3  -2   3   44.29    0.79
  -4   1  -4   17.49    0.47
   4  -1   4   16.61    0.43
  -5   0  -5    3.34    0.23
   5   0   5    2.73    0.19
  -6  -1  -6    2.45    0.25
   6   1   6    2.52    0.24
   3   9   3   -0.08    0.08
  -3  -9  -3   -0.04    0.08
   2   8   2    7.29    0.34
  -2  -8  -2    7.36    0.34
   1   7   1    2.95    0.20
  -1  -7  -1    3.18    0.21
   0   6   0    2.94    0.19
   0  -6   0    2.69    0.13
   0  -6   0    2.58    0.17
  -1   5  -1   15.11    0.42
   1  -5   1   16.04    0.41
   1  -5   1   15.13    0.34
  -2   4  -2    0.84    0.09
  -2   4  -2    0.78    0.11
   2  -4   2    0.78    0.10
   2  -4   2    0.58    0.08
  -3   3  -3   16.59    0.43
  -3   3  -3   16.56    0.41
   3  -3   3   16.02    0.40
  -4   2  -4    9.20    0.33
   4  -2   4    9.34    0.32
  -5   1  -5   11.33    0.42
   5  -1   5   12.22    0.40
  -6   0  -6    5.65    0.34
   6   0   6    5.11    0.33
   2   9   2    2.47    0.25
  -2  -9  -2    2.47    0.26
   1   8   1    1.94    0.22
  -1  -8  -1    1.82    0.21
   0   7   0    0.01    0.06
   0  -7   0    0.02    0.05
  -1   6  -1   32.90    0.73
   1  -6   1   33.00    0.71
   1  -6   1   31.30    0.61
  -2   5  -2   19.07    0.51
   2  -5   2   19.37    0.44
   2  -5   2   19.43    0.48
  -3   4  -3    0.08    0.07
  -3   4  -3    0.11    0.05
   3  -4   3    0.04    0.04
  -4   3  -4    0.56    0.11
   4  -3   4    0.55    0.10
  -5   2  -5   22.82    0.63
   5  -2   5   22.29    0.58
   1   9   1    2.53    0.26
  -1  -9  -1    2.27    0.25
   0   8   0    0.44    0.12
   0  -8   0    0.44    0.12
  -1   7  -1    1.27    0.18
   1  -7   1    0.91    0.14
  -2   6  -2    3.62    0.24
   2  -6   2    3.42    0.24
   2  -6   2    4.10    0.25
  -3   5  -3    5.16    0.28
   3  -5   3    5.01    0.23
   4  -4   4   12.72    0.40
  -5   3  -5    1.21    0.17
   5  -3   5    1.20    0.15
  -1   8  -1    2.09    0.24
   1  -8   1    2.73    0.23
  -2   7  -2    1.80    0.22
  -3   6  -3    0.14    0.11
  -3   6  -4    0.01    0.11
  -2   7  -3    2.15    0.24
   1  -8   2    1.77    0.21
  -1   8  -2    1.59    0.21
   4  -4   5    0.12    0.07
   3  -5   4   21.02    0.51
  -3   5  -4   20.87    0.58
   2  -6   3    2.04    0.17
  -2   6  -3    2.07    0.21
   1  -7   2    4.75    0.27
  -1   7  -2    4.40    0.27
   0  -8   1   13.54    0.48
   0   8  -1   13.75    0.49
  -1  -9   0    3.27    0.27
   1   9   0    2.95    0.25
   5  -2   6    4.12    0.24
  -5   2  -6    3.61    0.25
   4  -3   5    0.66    0.11
  -4   3  -5    0.71    0.13
   3  -4   4    0.01    0.04
  -3   4  -4    0.13    0.07
  -3   4  -4    0.07    0.05
   2  -5   3    3.37    0.19
   2  -5   3    3.55    0.17
  -2   5  -3    3.63    0.21
   1  -6   2    0.60    0.11
  -1   6  -2    0.72    0.12
   0  -7   1    0.04    0.06
   0   7  -1    0.03    0.06
  -1  -8   0   16.24    0.53
   1   8   0   16.14    0.52
  -2  -9  -1    3.54    0.27
   2   9   1    3.57    0.28
   5  -1   6    9.93    0.36
  -5   1  -6   10.04    0.40
   4  -2   5   18.01    0.47
  -4   2  -5   18.33    0.49
   3  -3   4    4.56    0.19
  -3   3  -4    4.18    0.21
  -3   3  -4    4.37    0.20
   2  -4   3   21.61    0.45
   2  -4   3   22.27    0.49
  -2   4  -3   22.38    0.47
  -2   4  -3   21.34    0.51
   1  -5   2    0.03    0.03
   1  -5   2    0.03    0.04
  -1   5  -2    0.02    0.05
   0  -6   1   13.08    0.39
   0   6  -1   12.43    0.39
  -1  -7   0    0.27    0.09
   1   7   0    0.38    0.10
  -2  -8  -1    1.70    0.20
   2   8   1    2.32    0.23
  -3  -9  -2    3.35    0.26
   3   9   2    3.46    0.27
   6   1   7    0.76    0.14
  -6  -1  -7    0.51    0.13
   5   0   6    0.16    0.07
  -5   0  -6    0.22    0.09
   4  -1   5    2.61    0.16
  -4   1  -5    2.71    0.18
   3  -2   4   12.38    0.33
   3  -2   4   12.98    0.39
  -3   2  -4   12.08    0.34
  -3   2  -4   12.18    0.33
   2  -3   3    0.18    0.05
   2  -3   3    0.29    0.06
  -2   3  -3    0.14    0.04
  -2   3  -3    0.13    0.05
   1  -4   2   12.20    0.32
   1  -4   2   12.08    0.27
  -1   4  -2   11.30    0.32
  -1   4  -2   12.03    0.27
   0  -5   1    6.19    0.18
   0  -5   1    6.09    0.23
   0   5  -1    6.04    0.23
  -1  -6   0   65.09    1.14
   1   6   0   67.19    1.14
  -2  -7  -1    3.64    0.22
   2   7   1    3.48    0.21
  -3  -8  -2    2.45    0.21
   3   8   2    1.87    0.21
   6   2   7    0.87    0.15
  -6  -2  -7    0.97    0.16
   5   1   6    0.02    0.05
  -5  -1  -6   -0.04    0.05
   4   0   5    2.07    0.15
  -4   0  -5    1.95    0.15
   3  -1   4   66.28    1.05
   3  -1   4   67.08    0.98
  -3   1  -4   66.73    1.02
  -3   1  -4   63.89    1.06
   2  -2   3   39.13    0.64
   2  -2   3   39.94    0.66
  -2   2  -3   39.92    0.67
  -2   2  -3   40.09    0.67
   1  -3   2   55.58    0.88
   1  -3   2   55.95    0.83
  -1   3  -2   57.35    0.84
  -1   3  -2   56.26    0.89
   0  -4   1    0.02    0.02
   0  -4   1   -0.03    0.03
   0   4  -1   -0.01    0.03
   0   4  -1   -0.01    0.02
  -1  -5   0   34.48    0.55
  -1  -5   0   33.96    0.66
   1   5   0   33.11    0.64
   1   5   0   33.49    0.53
  -2  -6  -1    0.06    0.05
   2   6   1    0.04    0.05
  -3  -7  -2    2.03    0.21
   3   7   2    2.11    0.18
  -4  -8  -3    2.56    0.22
   4   8   3    2.90    0.23
   6   3   7   12.25    0.43
  -6  -3  -7   12.44    0.47
   5   2   6   16.34    0.46
  -5  -2  -6   15.89    0.48
   4   1   5    2.72    0.16
  -4  -1  -5    2.53    0.16
   3   0   4    0.02    0.03
   3   0   4    0.06    0.03
  -3   0  -4    0.03    0.03
  -3   0  -4    0.04    0.03
   2  -1   3   14.15    0.30
   2  -1   3   14.02    0.27
  -2   1  -3   13.96    0.29
  -2   1  -3   13.57    0.31
   1  -2   2   25.53    0.42
   1  -2   2   25.46    0.44
  -1   2  -2   25.39    0.44
  -1   2  -2   25.99    0.43
   0  -3   1   15.69    0.27
   0  -3   1   15.25    0.32
   0   3  -1   15.08    0.32
   0   3  -1   15.85    0.27
  -1  -4   0   41.28    0.73
  -1  -4   0   44.07    0.64
   1   4   0   43.09    0.64
   1   4   0   44.30    0.73
  -2  -5  -1    0.07    0.03
  -2  -5  -1    0.34    0.07
   2   5   1    0.06    0.03
   2   5   1    0.16    0.05
  -3  -6  -2    1.47    0.16
   3   6   2    1.60    0.16
  -4  -7  -3    8.32    0.34
   4   7   3    8.13    0.33
   6   4   7    6.93    0.32
  -6  -4  -7    7.16    0.35
   5   3   6   10.03    0.35
  -5  -3  -6   10.77    0.38
   4   2   5   22.86    0.51
  -4  -2  -5   21.76    0.52
   3   1   4    4.21    0.17
   3   1   4    3.97    0.13
  -3  -1  -4    4.00    0.14
  -3  -1  -4    4.30    0.18
   2   0   3   31.18    0.53
   2   0   3   31.30    0.48
  -2   0  -3   31.16    0.49
  -2   0  -3   31.29    0.53
   1  -1   2    6.33    0.15
   1  -1   2    6.36    0.15
  -1   1  -2    6.43    0.15
   0  -2   1   33.59    0.53
   0  -2   1   34.26    0.48
   0   2  -1   33.65    0.52
   0   2  -1   33.78    0.48
  -1  -3   0   22.09    0.35
   1   3   0   22.47    0.40
   1   3   0   21.69    0.35
  -2  -4  -1   14.13    0.28
  -2  -4  -1   14.25    0.34
  -2  -4  -1   13.91    0.33
   2   4   1   13.01    0.28
  -3  -5  -2    2.01    0.14
  -3  -5  -2    2.12    0.12
  -3  -5  -2    2.20    0.14
   3   5   2    2.15    0.12
  -4  -6  -3   16.25    0.46
   4   6   3   16.29    0.42
   6   5   7    3.71    0.24
  -6  -5  -7    3.51    0.26
   5   4   6   13.39    0.41
  -5  -4  -6   12.96    0.43
   4   3   5   14.60    0.39
   4   3   5   15.46    0.37
  -4  -3  -5   14.92    0.41
   3   2   4   38.42    0.63
   3   2   4   37.42    0.66
  -3  -2  -4   38.66    0.68
  -3  -2  -4   37.89    0.61
   2   1   3   82.04    1.13
  -2  -1  -3   81.58    1.11
  -2  -1  -3   80.95    1.17
   1   0   2    6.86    0.14
  -1   0  -2    7.12    0.13
  -1   0  -2    6.87    0.15
   0  -1   1   87.87    1.18
   0  -1   1   90.29    1.14
   0   1  -1   88.65    1.16
   0   1  -1   88.81    1.17
  -1  -2   0  987.58   12.62
  -1  -2   0  960.45   12.78
  -1  -2   0 1000.00   12.76
   1   2   0  976.50   12.68
  -2  -3  -1   29.54    0.51
  -2  -3  -1   29.49    0.48
  -2  -3  -1   28.45    0.51
  -2  -3  -1   29.11    0.50
  -3  -4  -2    0.16    0.05
  -3  -4  -2    0.13    0.05
  -3  -4  -2    0.13    0.04
  -3  -4  -2    0.14    0.05
  -4  -5  -3   10.39    0.33
  -4  -5  -3   10.56    0.33
  -4  -5  -3   10.98    0.33
   5   5   6   18.41    0.50
  -5  -5  -6   19.24    0.53
   4   4   5   10.55    0.32
  -4  -4  -5   10.56    0.33
  -4  -4  -5   11.03    0.31
   3   3   4   27.76    0.53
  -3  -3  -4   29.03    0.55
  -3  -3  -4   28.11    0.50
  -3  -3  -4   28.79    0.54
   2   2   3    1.33    0.08
  -2  -2  -3    1.27    0.07
  -2  -2  -3    1.22    0.07
  -2  -2  -3    1.25    0.06
   1   1   2  220.26    2.89
  -1  -1  -2  225.09    2.88
  -1  -1  -2  229.54    2.91
  -1  -1  -2  219.80    2.88
   0   0   1    0.00    0.00
   0   0   1    0.00    0.00
   0   0  -1    0.00    0.00
   0   0  -1    0.00    0.00
  -1  -1   0    7.10    0.15
  -1  -1   0    7.17    0.15
  -1  -1   0    7.21    0.13
  -1  -1   0    7.12    0.14
  -2  -2  -1    8.51    0.19
  -2  -2  -1    8.56    0.20
  -2  -2  -1    8.71    0.22
  -2  -2  -1    8.60    0.21
  -3  -3  -2   14.88    0.32
  -3  -3  -2   14.96    0.36
  -3  -3  -2   14.97    0.34
  -4  -4  -3   27.33    0.60
  -4  -4  -3   28.45    0.57
   4   4   3   28.09    0.56
   4   4   3   27.91    0.57
  -5  -5  -4    0.70    0.13
   5   5   4    0.72    0.11
  -6  -6  -5    4.80    0.29
   5   6   6    0.41    0.10
   4   5   5   14.04    0.40
  -4  -5  -5   14.57    0.39
  -4  -5  -5   14.17    0.39
  -4  -5  -5   13.82    0.37
  -3  -4  -4   28.91    0.57
  -3  -4  -4   29.27    0.55
  -3  -4  -4   30.82    0.57
  -3  -4  -4   29.73    0.56
  -2  -3  -3   63.76    0.94
  -2  -3  -3   62.77    0.97
  -2  -3  -3   64.24    0.94
  -2  -3  -3   63.54    0.94
   1   2   2  418.69    5.37
  -1  -2  -2  427.24    5.51
  -1  -2  -2  420.88    5.43
  -1  -2  -2  417.01    5.61
   0   1   1   69.11    0.92
   0  -1  -1   69.03    0.91
  -1   0   0   10.12    0.19
  -1   0   0    9.78    0.18
   1   0   0    9.71    0.14
   1   0   0    9.60    0.18
  -2  -1  -1    5.46    0.16
  -2  -1  -1    5.45    0.15
   2   1   1    5.52    0.12
   2   1   1    5.01    0.15
  -3  -2  -2    1.64    0.11
  -3  -2  -2    1.79    0.10
   3   2   2    1.69    0.10
   3   2   2    1.69    0.09
  -4  -3  -3   14.18    0.39
  -4  -3  -3   14.23    0.36
   4   3   3   14.17    0.37
  -5  -4  -4   20.19    0.55
   5   4   4   21.32    0.52
  -6  -5  -5    2.26    0.24
   6   5   5    2.57    0.20
   4   6   5    1.17    0.14
  -4  -6  -5    1.18    0.13
  -4  -6  -5    1.24    0.15
   3   5   4   15.72    0.38
  -3  -5  -4   16.13    0.37
  -3  -5  -4   15.35    0.37
  -3  -5  -4   15.44    0.41
   2   4   3  156.15    2.17
  -2  -4  -3  157.03    2.14
  -2  -4  -3  159.04    2.22
  -2  -4  -3  159.52    2.13
   1   3   2    1.73    0.09
   1   3   2    1.93    0.06
  -1  -3  -2    2.07    0.08
  -1  -3  -2    1.99    0.10
   0   2   1   24.92    0.34
   0   2   1   25.00    0.41
   0  -2  -1   24.01    0.41
   0  -2  -1   24.86    0.38
  -1   1   0    0.17    0.03
  -1   1   0    0.10    0.03
   1  -1   0    0.07    0.02
   1  -1   0    0.08    0.02
  -2   0  -1   43.17    0.67
  -2   0  -1   42.17    0.68
   2   0   1   43.53    0.67
   2   0   1   44.16    0.60
  -3  -1  -2    3.26    0.15
  -3  -1  -2    3.30    0.14
   3   1   2    3.32    0.14
   3   1   2    3.32    0.10
  -4  -2  -3    1.04    0.11
  -4  -2  -3    0.88    0.11
   4   2   3    0.77    0.10
  -5  -3  -4    1.10    0.15
   5   3   4    0.67    0.11
  -6  -4  -5   28.39    0.75
   6   4   5   29.48    0.70
   4   7   5    8.34    0.33
  -4  -7  -5    8.01    0.34
   3   6   4    5.22    0.23
  -3  -6  -4    4.83    0.25
  -3  -6  -4    5.31    0.21
   2   5   3    0.40    0.05
   2   5   3    0.24    0.06
  -2  -5  -3    0.46    0.06
  -2  -5  -3    0.35    0.08
   1   4   2   48.70    0.66
   1   4   2   46.97    0.78
  -1  -4  -2   48.16    0.72
  -1  -4  -2   45.75    0.79
   0   3   1   49.68    0.66
   0   3   1   47.97    0.76
   0  -3  -1   48.68    0.76
   0  -3  -1   48.94    0.72
  -1   2   0    0.28    0.03
  -1   2   0    0.29    0.05
   1  -2   0    0.46    0.05
   1  -2   0    0.22    0.03
  -2   1  -1  173.27    2.33
  -2   1  -1  172.72    2.33
   2  -1   1  172.85    2.25
   2  -1   1  172.03    2.32
  -3   0  -2   50.96    0.86
  -3   0  -2   52.06    0.83
   3   0   2   52.69    0.74
   3   0   2   51.16    0.84
  -4  -1  -3    3.66    0.19
  -4  -1  -3    3.64    0.17
   4   1   3    3.46    0.18
  -5  -2  -4    8.83    0.35
   5   2   4    8.68    0.32
  -6  -3  -5   17.12    0.56
   6   3   5   17.41    0.52
   4   8   5   30.22    0.73
  -4  -8  -5   30.89    0.78
   3   7   4    0.46    0.11
  -3  -7  -4    0.65    0.12
   2   6   3    3.78    0.20
  -2  -6  -3    4.17    0.21
  -2  -6  -3    3.69    0.16
   1   5   2   14.38    0.37
  -1  -5  -2   14.83    0.32
  -1  -5  -2   14.73    0.38
   0   4   1   77.33    1.19
   0   4   1   78.90    1.04
   0  -4  -1   76.76    1.18
   0  -4  -1   76.30    1.10
  -1   3   0   41.39    0.71
  -1   3   0   41.24    0.62
   1  -3   0   41.63    0.65
   1  -3   0   40.93    0.67
  -2   2  -1    0.65    0.08
  -2   2  -1    0.58    0.07
   2  -2   1    0.75    0.06
   2  -2   1    0.62    0.07
  -3   1  -2    3.83    0.16
  -3   1  -2    3.59    0.17
   3  -1   2    3.80    0.16
   4   0   3    1.24    0.14
  -5  -1  -4   40.43    0.87
   5   1   4   42.52    0.83
  -6  -2  -5    0.17    0.09
   6   2   5    0.12    0.07
   3   8   4   20.01    0.57
  -3  -8  -4   21.02    0.60
   2   7   3    0.60    0.11
  -2  -7  -3    0.60    0.12
   1   6   2    2.76    0.18
  -1  -6  -2    2.78    0.18
  -1  -6  -2    2.83    0.13
   0   5   1    3.10    0.17
   0  -5  -1    3.21    0.17
   0  -5  -1    3.20    0.13
  -1   4   0   32.61    0.64
  -1   4   0   32.99    0.53
   1  -4   0   32.71    0.57
   1  -4   0   32.83    0.60
  -2   3  -1   27.56    0.56
  -2   3  -1   27.54    0.50
   2  -3   1   26.99    0.50
   2  -3   1   27.29    0.51
  -3   2  -2  115.40    1.72
  -3   2  -2  116.53    1.72
   3  -2   2  117.16    1.70
  -4   1  -3   63.88    1.07
  -4   1  -3   64.54    1.12
   4  -1   3   63.76    1.08
  -5   0  -4   19.04    0.54
   5   0   4   19.02    0.51
  -6  -1  -5   17.48    0.58
   6   1   5   17.36    0.52
   3   9   4    0.04    0.10
  -3  -9  -4   -0.03    0.07
   2   8   3    0.07    0.08
  -2  -8  -3   -0.01    0.06
   1   7   2   11.57    0.39
  -1  -7  -2   10.76    0.39
   0   6   1   50.28    0.94
   0  -6  -1   49.75    0.93
   0  -6  -1   50.03    0.82
  -1   5   0    0.43    0.09
   1  -5   0    0.46    0.08
   1  -5   0    0.47    0.07
   2  -4   1    0.20    0.06
  -3   3  -2   37.74    0.70
  -3   3  -2   36.80    0.73
   3  -3   2   36.11    0.69
  -4   2  -3    1.06    0.14
  -4   2  -3    0.94    0.12
   4  -2   3    1.06    0.13
  -5   1  -4    2.28    0.22
   5  -1   4    2.55    0.18
  -6   0  -5    7.74    0.38
   6   0   5    6.50    0.33
   2   9   3    0.59    0.15
  -2  -9  -3    0.51    0.13
   1   8   2    0.22    0.10
  -1  -8  -2    0.05    0.07
   0   7   1    8.36    0.34
   0  -7  -1    8.38    0.34
  -1   6   0   29.57    0.68
   1  -6   0   29.64    0.65
   1  -6   0   28.13    0.57
  -2   5  -1    0.97    0.14
   2  -5   1    0.89    0.10
   2  -5   1    0.86    0.11
  -3   4  -2    0.08    0.07
   3  -4   2    0.03    0.04
  -4   3  -3   31.31    0.70
  -4   3  -3   34.07    0.96
   4  -3   3   31.79    0.68
  -5   2  -4    5.03    0.28
   5  -2   4    5.22    0.26
   1   9   2    0.29    0.13
  -1  -9  -2    0.08    0.10
   0   8   1    3.12    0.24
   0  -8  -1    3.00    0.24
  -1   7   0    9.36    0.38
   1  -7   0    9.80    0.37
  -2   6  -1    0.85    0.14
   2  -6   1    1.03    0.12
  -3   5  -2   14.25    0.47
   3  -5   2   14.24    0.40
   4  -4   3    0.21    0.08
  -5   3  -4    1.73    0.21
   5  -3   4    1.69    0.18
  -1   8   0    5.56    0.33
   1  -8   0    5.05    0.30
  -2   7  -1    0.10    0.10
  -3   6  -2   12.99    0.48
   3  -6   2   12.16    0.39
   4  -5   3    0.04    0.07
  -2   7  -4    4.23    0.28
   1  -8   3    3.17    0.25
  -1   8  -3    2.83    0.27
   4  -4   6   30.89    0.68
  -4   4  -6   29.48    0.75
   3  -5   5    3.08    0.18
   2  -6   4    0.45    0.11
  -2   6  -4    0.55    0.12
   1  -7   3   12.54    0.43
  -1   7  -3   12.22    0.44
   0  -8   2    4.40    0.27
   0   8  -2    4.39    0.29
  -1  -9   1    0.06    0.09
   1   9  -1    0.12    0.10
   5  -2   7    2.16    0.20
  -5   2  -7    1.95    0.22
   4  -3   6   11.92    0.37
  -4   3  -6   11.24    0.39
   3  -4   5    6.80    0.25
  -3   4  -5    6.66    0.27
  -3   4  -5    6.94    0.30
   2  -5   4    7.27    0.28
   2  -5   4    7.27    0.24
  -2   5  -4    7.72    0.31
   1  -6   3    0.49    0.10
  -1   6  -3    0.71    0.12
   0  -7   2    4.51    0.26
   0   7  -2    4.57    0.26
  -1  -8   1    0.71    0.15
   1   8  -1    0.63    0.13
  -2  -9   0    0.40    0.12
   2   9   0    0.21    0.12
   5  -1   7    1.42    0.17
  -5   1  -7    1.27    0.17
   4  -2   6    0.35    0.08
  -4   2  -6    0.11    0.07
   3  -3   5    0.41    0.08
  -3   3  -5    0.37    0.08
  -3   3  -5    0.33    0.08
   2  -4   4   16.63    0.41
   2  -4   4   16.08    0.37
  -2   4  -4   16.97    0.39
  -2   4  -4   16.03    0.42
   1  -5   3   18.90    0.39
   1  -5   3   19.07    0.47
  -1   5  -3   18.70    0.47
   0  -6   2    2.33    0.17
   0   6  -2    1.88    0.16
  -1  -7   1    3.65    0.22
   1   7  -1    3.68    0.22
  -2  -8   0   11.23    0.43
   2   8   0   11.57    0.43
  -3  -9  -1    2.23    0.24
   3   9   1    2.34    0.26
   6   1   8    0.36    0.10
  -6  -1  -8    0.33    0.12
   5   0   7    0.95    0.13
  -5   0  -7    0.96    0.15
   4  -1   6   20.85    0.51
  -4   1  -6   21.68    0.54
   3  -2   5    2.14    0.13
   3  -2   5    2.23    0.13
  -3   2  -5    2.35    0.14
  -3   2  -5    2.23    0.14
   2  -3   4    1.13    0.08
   2  -3   4    0.98    0.10
  -2   3  -4    0.97    0.10
  -2   3  -4    1.07    0.10
   1  -4   3   55.29    0.92
   1  -4   3   54.67    0.83
  -1   4  -3   53.31    0.91
  -1   4  -3   54.86    0.85
   0  -5   2   36.52    0.72
   0  -5   2   37.82    0.60
   0   5  -2   38.88    0.73
   0   5  -2   38.50    0.61
  -1  -6   1    3.34    0.20
   1   6  -1    3.35    0.19
  -2  -7   0    8.25    0.33
   2   7   0    7.89    0.32
  -3  -8  -1    1.30    0.18
   3   8   1    1.33    0.18
   6   2   8    2.35    0.23
  -6  -2  -8    2.40    0.25
   5   1   7    0.60    0.11
  -5  -1  -7    0.62    0.12
   4   0   6   26.12    0.57
  -4   0  -6   25.11    0.59
   3  -1   5   34.62    0.64
   3  -1   5   35.00    0.60
  -3   1  -5   34.67    0.66
  -3   1  -5   33.80    0.60
   2  -2   4    6.21    0.19
   2  -2   4    6.13    0.19
  -2   2  -4    6.25    0.20
  -2   2  -4    6.23    0.19
   1  -3   3   11.40    0.29
   1  -3   3   11.01    0.24
  -1   3  -3   11.26    0.26
  -1   3  -3   11.61    0.28
   0  -4   2   79.37    1.09
   0  -4   2   77.00    1.20
   0   4  -2   78.67    1.11
   0   4  -2   79.85    1.20
  -1  -5   1    1.17    0.07
  -1  -5   1    1.06    0.11
   1   5  -1    0.94    0.07
   1   5  -1    0.90    0.11
  -2  -6   0    0.14    0.06
   2   6   0    0.05    0.05
  -3  -7  -1    1.83    0.19
   3   7   1    1.65    0.18
  -4  -8  -2    7.43    0.35
   4   8   2    7.01    0.34
   6   3   8    1.87    0.21
  -6  -3  -8    1.20    0.19
   5   2   7   10.07    0.36
  -5  -2  -7    9.86    0.37
   4   1   6    0.36    0.08
  -4  -1  -6    0.42    0.09
   3   0   5    3.77    0.16
   3   0   5    3.87    0.14
  -3   0  -5    4.21    0.14
  -3   0  -5    4.04    0.18
   2  -1   4   87.83    1.26
   2  -1   4   88.89    1.24
  -2   1  -4   87.02    1.28
  -2   1  -4   87.43    1.23
   1  -2   3  248.94    3.22
   1  -2   3  245.31    3.26
  -1   2  -3  247.00    3.24
  -1   2  -3  247.53    3.24
   0  -3   2    4.38    0.11
   0  -3   2    4.28    0.15
   0   3  -2    4.53    0.15
   0   3  -2    4.53    0.12
  -1  -4   1    0.02    0.02
  -1  -4   1   -0.01    0.02
   1   4  -1    0.01    0.02
   1   4  -1    0.02    0.03
  -2  -5   0   27.34    0.46
  -2  -5   0   26.91    0.56
   2   5   0   26.11    0.47
   2   5   0   25.67    0.54
  -3  -6  -1   21.05    0.53
   3   6   1   23.86    0.55
   3   6   1   21.62    0.52
  -4  -7  -2    0.08    0.07
   4   7   2    0.01    0.07
   6   4   8    1.30    0.17
  -6  -4  -8    1.61    0.21
   5   3   7    0.96    0.14
  -5  -3  -7    0.86    0.14
   4   2   6    0.37    0.07
  -4  -2  -6    0.36    0.08
   3   1   5   20.52    0.40
   3   1   5   20.49    0.43
  -3  -1  -5   21.01    0.37
   2   0   4  146.19    1.99
   2   0   4  149.43    2.02
  -2   0  -4  149.88    1.96
   1  -1   3   12.39    0.24
   1  -1   3   12.55    0.23
  -1   1  -3   12.48    0.24
  -1   1  -3   12.01    0.22
   0  -2   2    2.98    0.07
   0   2  -2    2.83    0.10
   0   2  -2    2.97    0.09
  -1  -3   1    8.06    0.21
  -1  -3   1    7.95    0.15
  -1  -3   1    8.16    0.22
   1   3  -1    8.12    0.18
  -2  -4   0    4.64    0.18
  -2  -4   0    5.24    0.19
   2   4   0    5.14    0.16
  -3  -5  -1   14.71    0.39
  -3  -5  -1   14.46    0.38
  -3  -5  -1   14.83    0.33
   3   5   1   14.88    0.35
  -4  -6  -2   15.14    0.44
  -4  -6  -2   15.12    0.43
   4   6   2   15.41    0.40
   5   7   3    2.62    0.33
   6   5   8    4.47    0.27
  -6  -5  -8    4.93    0.30
   5   4   7    2.90    0.20
  -5  -4  -7    3.13    0.21
   4   3   6    0.49    0.08
   4   3   6    0.38    0.07
  -4  -3  -6    0.45    0.09
   3   2   5   24.95    0.48
  -3  -2  -5   25.23    0.43
  -3  -2  -5   25.45    0.51
   2   1   4  123.88    1.68
  -2  -1  -4  122.87    1.70
  -2  -1  -4  124.08    1.63
   1   0   3   35.36    0.53
  -1   0  -3   36.03    0.53
  -1   0  -3   35.84    0.48
  -1   0  -3   35.48    0.53
   0  -1   2  111.56    1.46
   0  -1   2  111.46    1.47
   0  -1   2  113.66    1.42
   0   1  -2  109.21    1.46
  -1  -2   1  810.43   10.37
  -1  -2   1  834.79   10.32
  -1  -2   1  797.67   10.57
   1   2  -1  772.84   10.53
  -2  -3   0    3.22    0.11
  -2  -3   0    3.08    0.13
  -2  -3   0    3.12    0.13
  -3  -4  -1    5.51    0.20
  -3  -4  -1    5.60    0.18
  -3  -4  -1    5.40    0.20
  -3  -4  -1    5.61    0.20
  -4  -5  -2    2.80    0.17
  -4  -5  -2    2.93    0.17
   4   5   2    3.12    0.16
   5   6   3    0.16    0.07
   5   5   7    2.53    0.18
  -5  -5  -7    2.06    0.20
   4   4   6    0.04    0.05
  -4  -4  -6    0.00    0.03
  -4  -4  -6    0.10    0.06
   3   3   5   23.27    0.48
  -3  -3  -5   24.39    0.49
  -3  -3  -5   24.39    0.49
  -3  -3  -5   24.02    0.44
   2   2   4    3.26    0.13
  -2  -2  -4    3.19    0.12
  -2  -2  -4    3.31    0.12
  -2  -2  -4    3.18    0.10
   1   1   3  106.27    1.46
  -1  -1  -3  110.13    1.41
  -1  -1  -3  110.80    1.45
   0   0   2  121.50    1.54
   0   0   2  120.66    1.52
   0   0  -2  115.46    1.54
   0   0  -2  117.80    1.55
  -1  -1   1   21.53    0.32
  -1  -1   1   21.46    0.35
  -1  -1   1   21.65    0.35
   1   1  -1   21.02    0.31
  -2  -2   0   26.17    0.45
  -2  -2   0   25.52    0.46
  -2  -2   0   25.94    0.42
   2   2   0   26.16    0.43
  -3  -3  -1    8.29    0.22
  -3  -3  -1    8.65    0.26
  -3  -3  -1    8.32    0.24
   3   3   1    8.38    0.23
  -4  -4  -2   34.84    0.70
  -4  -4  -2   34.87    0.67
   4   4   2   35.11    0.65
  -5  -5  -3    0.71    0.12
   5   5   3    0.71    0.11
   4   5   6    2.24    0.17
  -4  -5  -6    2.26    0.15
  -4  -5  -6    2.21    0.16
  -3  -4  -5    9.73    0.27
  -3  -4  -5    9.99    0.28
   2   3   4   54.64    0.81
  -2  -3  -4   54.66    0.86
  -2  -3  -4   54.58    0.82
  -2  -3  -4   53.78    0.83
   1   2   3  128.65    1.72
  -1  -2  -3  131.47    1.71
  -1  -2  -3  131.42    1.73
  -1  -2  -3  130.42    1.76
   0   1   2   88.07    1.19
   0  -1  -2   88.19    1.19
   0  -1  -2   93.06    1.18
   0  -1  -2   90.65    1.18
  -1   0   1  224.81    2.92
  -1   0   1  230.45    2.93
   1   0  -1  223.26    2.91
  -2  -1   0   31.18    0.51
   2   1   0   31.54    0.45
   2   1   0   30.76    0.50
  -3  -2  -1    0.53    0.08
  -3  -2  -1    0.62    0.07
   3   2   1    0.46    0.07
   3   2   1    0.55    0.06
  -4  -3  -2   16.91    0.41
  -4  -3  -2   17.01    0.44
   4   3   2   17.32    0.41
  -5  -4  -3    0.39    0.10
   5   4   3    0.36    0.08
  -6  -5  -4    0.41    0.12
   6   5   4    0.47    0.11
  -4  -6  -6    0.15    0.06
   3   5   5   60.72    0.99
  -3  -5  -5   61.78    0.98
  -3  -5  -5   62.64    1.00
  -3  -5  -5   61.80    1.06
   2   4   4   15.29    0.34
  -2  -4  -4   15.97    0.34
  -2  -4  -4   15.77    0.38
  -2  -4  -4   15.94    0.31
   1   3   3    4.83    0.15
  -1  -3  -3    4.94    0.16
  -1  -3  -3    4.84    0.14
   0   2   2    5.41    0.15
   0  -2  -2    5.46    0.13
   0  -2  -2    5.44    0.15
  -1   1   1   13.37    0.26
  -1   1   1   13.48    0.24
   1  -1  -1   13.45    0.24
   1  -1  -1   13.55    0.22
  -2   0   0    7.56    0.20
  -2   0   0    7.58    0.20
   2   0   0    7.50    0.19
  -3  -1  -1   15.26    0.37
  -3  -1  -1   15.47    0.34
   3   1   1   15.77    0.26
   3   1   1   15.59    0.34
  -4  -2  -2    9.36    0.31
  -4  -2  -2    9.44    0.28
   4   2   2    8.88    0.28
  -5  -3  -3    1.56    0.18
   5   3   3    1.52    0.15
  -6  -4  -4    0.86    0.16
   6   4   4    0.96    0.15
  -4  -7  -6    3.51    0.23
   3   6   5   78.13    1.26
  -3  -6  -5   76.72    1.32
  -3  -6  -5   78.58    1.23
   2   5   4    9.73    0.28
  -2  -5  -4    8.95    0.30
  -2  -5  -4    9.83    0.26
   1   4   3   16.01    0.36
   1   4   3   16.08    0.25
  -1  -4  -3   16.23    0.32
   0   3   2   10.27    0.25
   0  -3  -2    9.84    0.24
   0  -3  -2   10.41    0.22
  -1   2   1  264.68    3.44
  -1   2   1  260.21    3.36
   1  -2  -1  263.30    3.39
   1  -2  -1  255.31    3.38
  -2   1   0    2.01    0.10
  -2   1   0    1.94    0.10
   2  -1   0    1.98    0.10
   2  -1   0    2.04    0.07
  -3   0  -1    0.52    0.08
  -3   0  -1    0.34    0.06
   3   0   1    0.28    0.05
  -4  -1  -2    0.21    0.06
  -4  -1  -2    0.14    0.06
   4   1   2    0.10    0.05
  -5  -2  -3   11.21    0.40
   5   2   3   11.81    0.37
  -6  -3  -4    6.67    0.34
   6   3   4    6.74    0.31
  -4  -8  -6    0.03    0.08
   3   7   5    1.71    0.17
  -3  -7  -5    2.12    0.18
   2   6   4    0.92    0.12
  -2  -6  -4    0.69    0.11
  -2  -6  -4    0.83    0.09
   1   5   3   23.00    0.51
  -1  -5  -3   24.35    0.53
  -1  -5  -3   25.07    0.46
   0   4   2   43.23    0.60
   0   4   2   43.94    0.76
   0  -4  -2   44.41    0.75
   0  -4  -2   45.22    0.70
  -1   3   1   23.10    0.38
  -1   3   1   23.25    0.46
   1  -3  -1   23.12    0.41
   1  -3  -1   22.08    0.42
  -2   2   0   33.79    0.61
  -2   2   0   33.62    0.57
   2  -2   0   33.42    0.53
   2  -2   0   33.88    0.58
  -3   1  -1    1.37    0.11
  -3   1  -1    1.47    0.11
  -4   0  -2  209.27    2.92
  -4   0  -2  209.00    2.97
   4   0   2  213.12    2.93
  -5  -1  -3   12.79    0.43
   5   1   3   13.24    0.40
  -6  -2  -4    2.30    0.24
   6   2   4    2.24    0.21
   3   8   5    1.80    0.20
  -3  -8  -5    1.46    0.19
   2   7   4    1.68    0.18
  -2  -7  -4    1.75    0.19
   1   6   3    7.85    0.29
  -1  -6  -3    8.10    0.30
  -1  -6  -3    8.06    0.24
   0   5   2   15.33    0.40
   0  -5  -2   15.82    0.34
   0  -5  -2   15.32    0.40
  -1   4   1   41.75    0.63
  -1   4   1   42.33    0.76
   1  -4  -1   42.06    0.69
   1  -4  -1   41.47    0.72
  -2   3   0   25.09    0.54
  -2   3   0   25.90    0.48
   2  -3   0   26.18    0.47
   2  -3   0   26.52    0.50
  -3   2  -1   29.40    0.60
  -3   2  -1   30.71    0.59
   3  -2   1   29.51    0.58
  -4   1  -2   20.34    0.48
  -4   1  -2   19.96    0.50
   4  -1   2   19.08    0.47
  -5   0  -3   14.10    0.46
   5   0   3   14.82    0.43
  -6  -1  -4    0.97    0.17
   6   1   4    0.71    0.13
   3   9   5    2.71    0.27
  -3  -9  -5    2.14    0.25
   2   8   4    7.31    0.33
  -2  -8  -4    7.13    0.34
   1   7   3   15.45    0.46
  -1  -7  -3   15.30    0.46
   0   6   2    0.28    0.08
   0  -6  -2    0.35    0.06
   0  -6  -2    0.29    0.08
  -1   5   1    0.01    0.05
   1  -5  -1    0.00    0.04
   1  -5  -1    0.04    0.03
  -2   4   0  144.54    2.13
   2  -4   0  143.78    2.03
   2  -4   0  142.28    2.03
  -3   3  -1   17.58    0.42
  -3   3  -1   18.51    0.47
   3  -3   1   17.89    0.43
  -4   2  -2    6.15    0.26
  -4   2  -2    6.37    0.27
   4  -2   2    6.14    0.25
  -5   1  -3    4.30    0.25
   5  -1   3    4.19    0.23
  -6   0  -4    2.18    0.25
   6   0   4    1.95    0.21
   2   9   4    0.19    0.12
  -2  -9  -4    0.23    0.10
   1   8   3   14.20    0.48
  -1  -8  -3   14.17    0.48
   0   7   2    0.97    0.14
   0  -7  -2    0.78    0.13
  -1   6   1   17.17    0.49
   1  -6  -1   16.66    0.40
   1  -6  -1   16.73    0.46
  -2   5   0   30.08    0.69
   2  -5   0   31.18    0.61
   2  -5   0   30.45    0.62
  -3   4  -1   11.91    0.40
   3  -4   1   12.27    0.35
  -4   3  -2    1.62    0.17
  -4   3  -2    1.34    0.16
   4  -3   2    1.51    0.16
  -5   2  -3    6.11    0.31
   5  -2   3    6.22    0.28
   1   9   3    0.01    0.10
  -1  -9  -3    0.07    0.09
   0   8   2    0.41    0.12
   0  -8  -2    0.53    0.12
  -1   7   1    4.77    0.28
   1  -7  -1    4.44    0.25
  -2   6   0   25.44    0.67
   2  -6   0   25.84    0.57
  -3   5  -1    0.23    0.09
   3  -5   1    0.22    0.07
  -4   4  -2    3.25    0.24
   4  -4   2    3.05    0.20
   5  -3   3   12.61    0.42
  -1   8   1    0.19    0.12
   1  -8  -1    0.14    0.09
  -2   7   0   21.89    0.65
  -3   6  -1    1.21    0.19
   3  -6   1    1.43    0.16
   4  -5   2    0.86    0.14
  -2   7  -5   16.08    0.54
   1  -8   4    2.83    0.27
  -1   8  -4    3.34    0.27
   4  -4   7    0.39    0.09
  -4   4  -7    0.53    0.12
   2  -6   5    0.03    0.07
  -2   6  -5    0.13    0.08
   1  -7   4    0.03    0.07
  -1   7  -4    0.07    0.09
   0  -8   3    2.45    0.26
   0   8  -3    2.21    0.23
  -1  -9   2    0.30    0.15
   1   9  -2    0.21    0.15
   5  -2   8    4.38    0.25
  -5   2  -8    4.14    0.27
   4  -3   7    5.68    0.26
  -4   3  -7    6.62    0.30
   3  -4   6    2.44    0.15
  -3   4  -6    2.35    0.17
   2  -5   5    1.40    0.15
  -2   5  -5    1.49    0.16
   1  -6   4    0.62    0.11
  -1   6  -4    0.79    0.13
   0  -7   3   12.15    0.42
   0   7  -3   11.20    0.41
  -1  -8   2    1.90    0.21
   1   8  -2    1.98    0.21
  -2  -9   1    0.56    0.14
   2   9  -1    0.38    0.13
   5  -1   8    0.00    0.06
  -5   1  -8    0.00    0.07
   4  -2   7    1.67    0.16
  -4   2  -7    1.69    0.17
   3  -3   6   13.37    0.45
   3  -3   6   12.22    0.34
  -3   3  -6   11.76    0.36
   2  -4   5    4.91    0.21
   2  -4   5    4.67    0.18
  -2   4  -5    4.62    0.21
  -2   4  -5    4.67    0.20
   1  -5   4    4.82    0.22
  -1   5  -4    4.81    0.18
  -1   5  -4    4.86    0.23
   0  -6   3   24.68    0.59
   0   6  -3   24.43    0.58
  -1  -7   2   10.04    0.38
   1   7  -2    9.90    0.36
  -2  -8   1    6.98    0.34
   2   8  -1    6.90    0.33
  -3  -9   0    0.95    0.17
   3   9   0    0.88    0.17
   6   1   9    0.17    0.10
  -6  -1  -9    0.22    0.12
   5   0   8   12.89    0.42
  -5   0  -8   12.25    0.44
   4  -1   7    5.94    0.25
  -4   1  -7    6.32    0.27
   3  -2   6    0.11    0.05
   3  -2   6    0.22    0.06
  -3   2  -6    0.15    0.06
   2  -3   5  129.06    1.87
   2  -3   5  130.87    1.83
  -2   3  -5  130.38    1.87
  -2   3  -5  130.57    1.87
   1  -4   4   15.56    0.32
   1  -4   4   16.03    0.39
  -1   4  -4   16.18    0.39
  -1   4  -4   15.74    0.35
   0  -5   3    7.07    0.26
   0   5  -3    6.82    0.25
   0   5  -3    7.12    0.20
  -1  -6   2   19.71    0.50
   1   6  -2   19.68    0.50
  -2  -7   1   13.00    0.42
   2   7  -1   12.39    0.41
  -3  -8   0    0.24    0.10
   3   8   0    0.14    0.10
   6   2   9    1.47    0.19
  -6  -2  -9    1.24    0.19
   5   1   8    4.95    0.25
  -5  -1  -8    5.27    0.28
   4   0   7   39.14    0.77
  -4   0  -7   40.16    0.80
   3  -1   6   12.50    0.34
   3  -1   6   12.87    0.31
  -3   1  -6   13.90    0.39
   2  -2   5    0.06    0.03
   2  -2   5    0.06    0.03
  -2   2  -5    0.14    0.04
  -2   2  -5    0.16    0.04
   1  -3   4  117.45    1.61
   1  -3   4  117.71    1.69
  -1   3  -4  118.29    1.65
  -1   3  -4  119.17    1.68
   0  -4   3   15.48    0.28
   0  -4   3   15.98    0.38
   0   4  -3   15.86    0.37
   0   4  -3   15.37    0.31
  -1  -5   2   33.30    0.66
   1   5  -2   32.33    0.55
   1   5  -2   33.03    0.64
  -2  -6   1    0.77    0.11
   2   6  -1    1.09    0.13
  -3  -7   0    3.09    0.21
   3   7   0    3.16    0.21
  -4  -8  -1    4.92    0.29
   4   8   1    4.76    0.29
   6   3   9    1.12    0.17
  -6  -3  -9    1.06    0.18
   5   2   8    1.04    0.14
  -5  -2  -8    1.05    0.16
   4   1   7    7.34    0.27
  -4  -1  -7    7.16    0.28
   3   0   6   19.36    0.43
   3   0   6   19.09    0.39
  -3   0  -6   19.72    0.37
  -3   0  -6   19.32    0.44
   2  -1   5  137.88    1.90
   2  -1   5  136.84    1.90
  -2   1  -5  137.09    1.85
  -2   1  -5  140.35    1.93
   1  -2   4    2.64    0.10
   1  -2   4    2.91    0.12
  -1   2  -4    2.77    0.11
  -1   2  -4    2.79    0.11
   0  -3   3    6.89    0.14
   0  -3   3    6.79    0.20
   0   3  -3    6.73    0.19
   0   3  -3    6.76    0.17
  -1  -4   2    4.00    0.10
  -1  -4   2    3.98    0.17
   1   4  -2    3.82    0.13
   1   4  -2    3.81    0.16
  -2  -5   1   11.66    0.33
   2   5  -1   11.72    0.27
  -3  -6   0    3.29    0.20
   3   6   0    3.69    0.16
  -4  -7  -1    1.39    0.17
   4   7   1    1.11    0.16
   5   8   2   10.40    0.42
   6   4   9    0.93    0.15
  -6  -4  -9    0.94    0.16
   5   3   8   10.32    0.37
  -5  -3  -8   10.91    0.39
   4   2   7   35.99    0.71
   4   2   7   37.20    0.67
  -4  -2  -7   36.07    0.73
   3   1   6   54.67    0.90
   3   1   6   54.21    0.86
  -3  -1  -6   54.22    0.90
  -3  -1  -6   53.55    0.78
   2   0   5   -0.02    0.02
   2   0   5    0.00    0.02
  -2   0  -5    0.00    0.02
  -2   0  -5    0.06    0.02
   1  -1   4  137.36    1.83
   1  -1   4  137.65    1.86
  -1   1  -4  139.98    1.81
  -1   1  -4  136.49    1.85
   0  -2   3   57.26    0.75
   0  -2   3   57.08    0.84
   0   2  -3   56.76    0.81
   0   2  -3   56.64    0.82
  -1  -3   2    2.07    0.10
  -1  -3   2    1.97    0.06
  -1  -3   2    1.83    0.10
   1   3  -2    1.91    0.08
  -2  -4   1  173.68    2.40
  -2  -4   1  175.96    2.28
  -2  -4   1  170.18    2.39
   2   4  -1  171.01    2.33
  -3  -5   0    2.70    0.15
  -3  -5   0    2.09    0.14
  -3  -5   0    2.18    0.14
   3   5   0    2.08    0.12
  -4  -6  -1    2.91    0.19
  -4  -6  -1    2.91    0.19
   4   6   1    2.96    0.17
   6   5   9    0.11    0.09
  -6  -5  -9    0.31    0.11
   5   4   8    0.19    0.08
  -5  -4  -8    0.11    0.07
   4   3   7   57.14    0.96
  -4  -3  -7   57.17    1.00
   3   2   6    0.53    0.07
  -3  -2  -6    0.52    0.05
  -3  -2  -6    0.50    0.07
  -3  -2  -6    0.37    0.06
   2   1   5   69.17    1.04
  -2  -1  -5   71.10    1.05
  -2  -1  -5   72.11    0.95
  -2  -1  -5   72.27    1.05
   1   0   4   19.75    0.34
  -1   0  -4   19.86    0.34
  -1   0  -4   19.61    0.33
   0  -1   3   11.10    0.20
   0  -1   3   11.10    0.17
   0  -1   3   11.31    0.22
   0   1  -3   11.21    0.20
  -1  -2   2  103.54    1.43
  -1  -2   2  105.06    1.42
   1   2  -2  103.87    1.40
  -2  -3   1    1.10    0.06
  -2  -3   1    1.21    0.09
  -2  -3   1    0.99    0.07
   2   3  -1    1.16    0.07
  -3  -4   0   10.74    0.29
  -3  -4   0   11.03    0.31
   3   4   0   11.14    0.29
   3   4   0   11.21    0.26
  -4  -5  -1    3.65    0.20
  -4  -5  -1    3.79    0.19
   4   5   1    3.89    0.19
   4   5   1    3.66    0.17
  -5  -6  -2   26.22    0.63
   5   6   2   25.63    0.61
   5   5   8    0.34    0.09
  -5  -5  -8    0.24    0.08
   4   4   7    6.51    0.26
  -4  -4  -7    6.89    0.26
  -4  -4  -7    7.01    0.27
   3   3   6   20.62    0.45
  -3  -3  -6   20.63    0.44
  -3  -3  -6   21.38    0.44
  -3  -3  -6   20.41    0.38
   2   2   5   41.93    0.69
  -2  -2  -5   42.14    0.67
  -2  -2  -5   41.92    0.68
  -2  -2  -5   42.04    0.61
   1   1   4   10.06    0.22
   1   1   4   10.25    0.16
  -1  -1  -4   10.16    0.20
  -1  -1  -4   10.39    0.21
   0   0   3    4.47    0.09
   0   0   3    4.57    0.11
   0   0  -3    4.47    0.09
   0   0  -3    4.52    0.10
  -1  -1   2  261.43    3.41
  -1  -1   2  259.03    3.35
   1   1  -2  254.01    3.38
   1   1  -2  259.96    3.35
  -2  -2   1   62.39    0.94
  -2  -2   1   62.98    0.89
  -2  -2   1   62.15    0.94
   2   2  -1   62.24    0.88
  -3  -3   0   12.83    0.33
  -3  -3   0   13.05    0.32
  -3  -3   0   13.22    0.29
   3   3   0   12.31    0.29
  -4  -4  -1    0.27    0.07
  -4  -4  -1    0.53    0.10
  -5  -5  -2   22.66    0.55
  -5  -5  -2   22.46    0.59
   5   5   2   21.60    0.57
   6   6   3    4.80    0.27
  -5  -6  -8    0.14    0.07
   4   5   7    2.79    0.18
  -4  -5  -7    2.60    0.17
  -4  -5  -7    2.96    0.17
   3   4   6    1.33    0.13
   3   4   6    1.38    0.09
  -3  -4  -6    1.44    0.11
  -3  -4  -6    1.37    0.11
   2   3   5   20.13    0.36
  -2  -3  -5   20.36    0.37
  -2  -3  -5   19.93    0.39
   1   2   4    8.37    0.18
  -1  -2  -4    8.66    0.19
  -1  -2  -4    8.42    0.16
  -1  -2  -4    8.41    0.20
   0   1   3    0.84    0.05
   0  -1  -3    0.88    0.03
   0  -1  -3    0.98    0.05
  -1   0   2    9.72    0.14
  -1   0   2    9.98    0.20
  -1   0   2    9.56    0.19
   1   0  -2    9.76    0.18
  -2  -1   1    0.59    0.06
  -2  -1   1    0.74    0.06
  -2  -1   1    0.68    0.03
   2   1  -1    0.68    0.05
  -3  -2   0   39.20    0.69
  -3  -2   0   37.76    0.66
   3   2   0   36.98    0.63
  -4  -3  -1   11.48    0.33
  -4  -3  -1   10.96    0.34
   4   3   1   11.30    0.31
  -5  -4  -2    0.07    0.06
  -5  -4  -2    0.07    0.06
   5   4   2    0.06    0.05
  -6  -5  -3    1.08    0.17
  -5  -7  -8    7.83    0.36
   4   6   7    8.47    0.34
  -4  -6  -7    8.64    0.31
   3   5   6    0.64    0.09
  -3  -5  -6    0.62    0.10
  -3  -5  -6    0.54    0.08
  -3  -5  -6    0.61    0.09
   2   4   5   57.97    0.91
  -2  -4  -5   59.41    0.92
  -2  -4  -5   58.91    0.97
  -2  -4  -5   59.45    0.87
   1   3   4    3.03    0.12
  -1  -3  -4    2.87    0.11
  -1  -3  -4    3.19    0.08
  -1  -3  -4    3.11    0.13
   0   2   3  137.09    1.82
   0  -2  -3  134.24    1.82
   0  -2  -3  135.19    1.80
  -1   1   2   22.78    0.36
  -1   1   2   22.87    0.40
   1  -1  -2   22.39    0.37
   1  -1  -2   22.75    0.34
  -2   0   1    3.17    0.12
  -2   0   1    3.32    0.13
   2   0  -1    3.22    0.12
  -3  -1   0  115.56    1.67
  -3  -1   0  115.84    1.65
   3   1   0  115.41    1.63
   3   1   0  114.06    1.50
  -4  -2  -1    6.45    0.23
  -4  -2  -1    5.97    0.25
   4   2   1    6.29    0.23
  -5  -3  -2    1.21    0.16
  -5  -3  -2    0.88    0.12
   5   3   2    0.92    0.12
  -6  -4  -3    0.31    0.10
   6   4   3    0.28    0.09
  -4  -7  -7   10.42    0.35
   3   6   6    6.78    0.26
  -3  -6  -6    6.37    0.24
  -3  -6  -6    6.60    0.29
   2   5   5    0.02    0.04
  -2  -5  -5    0.12    0.05
  -2  -5  -5    0.05    0.03
   1   4   4   17.99    0.27
   1   4   4   19.02    0.39
  -1  -4  -4   18.30    0.36
  -1  -4  -4   18.45    0.41
   0   3   3   34.43    0.58
   0  -3  -3   33.59    0.58
   0  -3  -3   34.38    0.55
  -1   2   2   41.85    0.68
  -1   2   2   40.82    0.60
   1  -2  -2   41.23    0.62
   1  -2  -2   41.77    0.64
  -2   1   1   71.16    1.04
  -2   1   1   70.49    1.07
   2  -1  -1   71.32    0.95
   2  -1  -1   71.38    1.04
  -3   0   0    0.78    0.10
  -3   0   0    0.72    0.09
   3   0   0    0.84    0.09
  -4  -1  -1    3.40    0.19
  -4  -1  -1    3.37    0.17
   4   1   1    3.49    0.17
  -5  -2  -2   30.09    0.70
  -5  -2  -2   29.56    0.70
   5   2   2   29.75    0.64
  -6  -3  -3    3.52    0.26
   6   3   3    3.93    0.23
  -4  -8  -7    4.73    0.29
   3   7   6    0.42    0.10
  -3  -7  -6    0.26    0.07
  -3  -7  -6    0.74    0.13
   2   6   5   18.86    0.47
  -2  -6  -5   19.04    0.50
  -2  -6  -5   19.21    0.43
   1   5   4    3.15    0.16
  -1  -5  -4    2.94    0.13
  -1  -5  -4    3.00    0.16
   0   4   3    6.18    0.22
   0  -4  -3    6.52    0.19
   0  -4  -3    6.59    0.22
  -1   3   2   23.07    0.48
  -1   3   2   24.82    0.39
   1  -3  -2   24.26    0.44
   1  -3  -2   25.11    0.44
  -2   2   1    7.83    0.21
  -2   2   1    7.28    0.24
   2  -2  -1    8.14    0.22
   2  -2  -1    8.04    0.18
  -3   1   0   67.12    1.08
  -3   1   0   66.05    1.06
   3  -1   0   66.96    1.05
  -4   0  -1    9.06    0.31
  -4   0  -1    9.53    0.30
   4   0   1    8.96    0.29
  -5  -1  -2    0.05    0.06
   5   1   2    0.05    0.05
  -6  -2  -3   14.05    0.50
   6   2   3   14.73    0.46
   3   8   6    4.65    0.27
  -3  -8  -6    4.93    0.29
   2   7   5    0.01    0.07
  -2  -7  -5    0.02    0.05
  -2  -7  -5    0.08    0.05
   1   6   4    1.73    0.14
  -1  -6  -4    1.61    0.11
  -1  -6  -4    1.76    0.17
   0   5   3   39.29    0.74
   0  -5  -3   37.91    0.72
   0  -5  -3   39.07    0.67
  -1   4   2   35.87    0.69
   1  -4  -2   36.36    0.63
   1  -4  -2   36.58    0.65
  -2   3   1    5.03    0.17
  -2   3   1    5.02    0.21
   2  -3  -1    5.10    0.18
   2  -3  -1    5.13    0.16
  -3   2   0   60.71    1.04
  -3   2   0   62.41    1.01
   3  -2   0   63.32    1.01
  -4   1  -1   14.57    0.40
  -4   1  -1   14.15    0.40
   4  -1   1   14.45    0.39
  -5   0  -2    0.76    0.13
   5   0   2    0.84    0.12
  -6  -1  -3    2.64    0.26
   6   1   3    2.96    0.22
   3   9   6   10.40    0.43
  -3  -9  -6   10.25    0.46
   2   8   5    6.46    0.32
  -2  -8  -5    6.52    0.32
   1   7   4    0.43    0.11
  -1  -7  -4    0.66    0.09
  -1  -7  -4    0.65    0.13
   0   6   3    1.11    0.14
   0  -6  -3    1.30    0.12
   0  -6  -3    1.17    0.14
  -1   5   2   15.35    0.43
   1  -5  -2   16.23    0.37
   1  -5  -2   15.90    0.40
  -2   4   1    3.91    0.21
   2  -4  -1    3.98    0.17
   2  -4  -1    3.75    0.17
  -3   3   0   32.43    0.63
  -3   3   0   33.53    0.70
   3  -3   0   32.78    0.64
  -4   2  -1    2.02    0.16
  -4   2  -1    1.87    0.15
   4  -2   1    2.15    0.15
  -5   1  -2    6.19    0.30
   5  -1   2    6.45    0.28
  -6   0  -3    5.25    0.31
   6   0   3    5.43    0.29
   2   9   5    0.05    0.10
  -2  -9  -5   -0.01    0.08
   1   8   4    1.98    0.21
  -1  -8  -4    1.84    0.20
   0   7   3    9.51    0.37
   0  -7  -3    9.71    0.36
   0  -7  -3   10.09    0.31
  -1   6   2    5.01    0.26
   1  -6  -2    4.95    0.20
   1  -6  -2    4.82    0.23
  -2   5   1   16.22    0.48
   2  -5  -1   16.77    0.41
   2  -5  -1   17.58    0.58
  -3   4   0   14.32    0.44
   3  -4   0   13.46    0.38
  -4   3  -1    3.31    0.22
  -4   3  -1    3.40    0.20
   4  -3   1    3.27    0.19
  -5   2  -2   -0.08    0.06
   5  -2   2    0.05    0.06
   1   9   4    0.45    0.14
  -1  -9  -4    0.56    0.14
   0   8   3   17.65    0.56
   0  -8  -3   18.06    0.55
  -1   7   2    5.62    0.30
   1  -7  -2    5.43    0.23
   1  -7  -2    6.08    0.29
  -2   6   1   -0.04    0.07
   2  -6  -1    0.07    0.05
  -3   5   0    9.47    0.39
   3  -5   0    9.52    0.33
  -4   4  -1   17.03    0.53
   4  -4   1   16.13    0.46
   5  -3   2    0.51    0.11
  -1   8   2   24.98    0.72
   1  -8  -2   25.33    0.68
  -2   7   1    1.46    0.20
  -3   6   0    0.36    0.13
   3  -6   0    0.71    0.12
  -4   5  -1    0.81    0.17
   4  -5   1    0.99    0.15
   2  -7   6    0.71    0.15
  -2   7  -6    0.58    0.17
   4  -4   8    0.05    0.06
  -4   4  -8    0.03    0.07
   2  -6   6    1.66    0.19
  -2   6  -6    1.39    0.18
   1  -7   5    0.88    0.15
  -1   7  -5    1.14    0.17
   0  -8   4    2.16    0.24
   0   8  -4    1.78    0.22
   5  -2   9    2.80    0.21
  -5   2  -9    3.01    0.24
   4  -3   8    1.73    0.17
  -4   3  -8    2.00    0.20
   3  -4   7    0.12    0.05
  -3   4  -7    0.10    0.06
   2  -5   6    3.54    0.21
  -2   5  -6    3.64    0.19
  -2   5  -6    3.76    0.21
   1  -6   5    4.61    0.24
  -1   6  -5    4.40    0.24
   0  -7   4    8.47    0.36
   0   7  -4    8.93    0.36
  -1  -8   3    5.94    0.32
   1   8  -3    5.97    0.32
  -2  -9   2    1.08    0.18
   2   9  -2    1.18    0.19
   5  -1   9    4.99    0.27
  -5   1  -9    4.53    0.28
   4  -2   8    1.20    0.14
  -4   2  -8    1.37    0.17
   3  -3   7   27.91    0.59
   3  -3   7   27.77    0.58
  -3   3  -7   27.25    0.61
   2  -4   6    4.56    0.21
   2  -4   6    4.52    0.18
  -2   4  -6    4.66    0.21
  -2   4  -6    4.74    0.21
   1  -5   5   10.71    0.35
  -1   5  -5   10.61    0.34
  -1   5  -5   11.14    0.30
   0  -6   4   14.91    0.44
   0   6  -4   14.48    0.42
  -1  -7   3    0.10    0.07
   1   7  -3    0.34    0.10
  -2  -8   2    4.72    0.28
   2   8  -2    5.18    0.30
  -3  -9   1    1.56    0.22
   3   9  -1    1.63    0.22
   5   0   9    2.25    0.21
  -5   0  -9    2.46    0.24
   4  -1   8    1.42    0.15
  -4   1  -8    1.59    0.17
   3  -2   7   43.89    0.77
   3  -2   7   42.96    0.77
  -3   2  -7   42.57    0.81
   2  -3   6   13.22    0.31
   2  -3   6   12.89    0.34
  -2   3  -6   12.42    0.32
  -2   3  -6   12.65    0.34
   1  -4   5    7.09    0.19
   1  -4   5    7.32    0.26
  -1   4  -5    7.31    0.22
  -1   4  -5    7.04    0.24
   0  -5   4    4.71    0.22
   0   5  -4    4.76    0.17
   0   5  -4    4.62    0.21
  -1  -6   3    5.97    0.26
   1   6  -3    6.15    0.26
  -2  -7   2    0.82    0.13
   2   7  -2    0.89    0.13
  -3  -8   1    0.18    0.09
   3   8  -1    0.30    0.11
   6   2  10    0.63    0.14
  -6  -2 -10    0.62    0.15
   5   1   9    6.67    0.30
  -5  -1  -9    6.60    0.31
   4   0   8    0.59    0.10
  -4   0  -8    0.31    0.08
   3  -1   7    0.04    0.04
   3  -1   7    0.07    0.04
  -3   1  -7    0.06    0.04
   2  -2   6    0.06    0.03
   2  -2   6    0.01    0.02
  -2   2  -6    0.03    0.03
  -2   2  -6    0.02    0.03
   1  -3   5    8.00    0.24
   1  -3   5    7.96    0.19
  -1   3  -5    8.03    0.23
  -1   3  -5    8.18    0.22
   0  -4   4   57.96    0.96
   0  -4   4   58.33    0.82
   0   4  -4   58.59    0.94
   0   4  -4   57.88    0.88
  -1  -5   3    1.73    0.13
   1   5  -3    1.68    0.13
   1   5  -3    2.00    0.10
  -2  -6   2    1.42    0.15
   2   6  -2    1.31    0.14
   2   6  -2    1.50    0.10
  -3  -7   1    8.71    0.35
   3   7  -1    8.81    0.34
  -4  -8   0    0.22    0.10
   4   8   0    0.34    0.12
   6   3  10    1.05    0.17
  -6  -3 -10    0.83    0.15
   5   2   9    6.33    0.29
  -5  -2  -9    6.75    0.31
   4   1   8    1.89    0.14
  -4  -1  -8    1.91    0.15
   3   0   7   10.25    0.29
   3   0   7    9.78    0.27
  -3   0  -7    9.84    0.30
   2  -1   6    9.27    0.24
   2  -1   6    9.01    0.24
  -2   1  -6    9.17    0.20
  -2   1  -6    8.85    0.25
   1  -2   5    0.89    0.07
   1  -2   5    0.70    0.05
  -1   2  -5    0.69    0.06
  -1   2  -5    0.77    0.08
   0  -3   4   44.41    0.73
   0  -3   4   43.69    0.61
   0   3  -4   44.68    0.68
   0   3  -4   44.25    0.71
  -1  -4   3    6.80    0.23
  -1  -4   3    6.67    0.13
   1   4  -3    6.60    0.21
   1   4  -3    6.60    0.18
  -2  -5   2    0.85    0.11
  -2  -5   2    1.16    0.12
   2   5  -2    0.98    0.09
  -3  -6   1    5.28    0.24
  -3  -6   1    5.14    0.24
   3   6  -1    5.30    0.20
  -4  -7   0    2.99    0.21
   6   4  10    1.35    0.19
  -6  -4 -10    1.15    0.18
   5   3   9   11.02    0.38
  -5  -3  -9   10.60    0.39
   4   2   8    5.06    0.21
   4   2   8    4.95    0.23
  -4  -2  -8    4.80    0.23
   3   1   7   64.52    1.03
   3   1   7   64.09    1.00
  -3  -1  -7   63.32    1.04
   2   0   6    0.01    0.02
   2   0   6    0.03    0.03
  -2   0  -6    0.03    0.02
  -2   0  -6    0.09    0.02
   1  -1   5   31.24    0.49
   1  -1   5   31.28    0.52
  -1   1  -5   31.41    0.46
  -1   1  -5   31.09    0.51
   0  -2   4    0.64    0.07
   0  -2   4    0.58    0.03
   0   2  -4    0.64    0.05
  -1  -3   3    8.78    0.23
   1   3  -3    8.36    0.20
  -2  -4   2   72.35    1.14
  -2  -4   2   74.61    1.13
  -2  -4   2   73.74    1.01
   2   4  -2   72.79    1.08
  -3  -5   1    2.86    0.17
  -3  -5   1    3.30    0.17
   3   5  -1    3.82    0.16
  -4  -6   0    0.07    0.06
  -4  -6   0    0.12    0.06
   4   6   0    0.01    0.04
  -5  -7  -1    0.10    0.08
   5   4   9    4.86    0.25
  -5  -4  -9    4.78    0.26
   4   3   8    2.45    0.16
  -4  -3  -8    2.75    0.17
   3   2   7   11.80    0.31
  -3  -2  -7   11.74    0.32
  -3  -2  -7   11.82    0.31
   2   1   6  127.52    1.78
  -2  -1  -6  128.60    1.78
  -2  -1  -6  128.98    1.78
   1   0   5   13.72    0.28
  -1   0  -5   13.37    0.26
  -1   0  -5   13.78    0.27
   0  -1   4   92.96    1.27
   0  -1   4   92.51    1.24
   0   1  -4   94.15    1.20
   0   1  -4   90.60    1.25
  -1  -2   3  106.46    1.46
  -1  -2   3  105.80    1.47
   1   2  -3  107.37    1.45
   1   2  -3  107.21    1.36
  -2  -3   2   14.68    0.32
  -2  -3   2   15.08    0.34
   2   3  -2   15.13    0.26
   2   3  -2   15.06    0.32
  -3  -4   1    5.81    0.21
  -3  -4   1    5.69    0.22
   3   4  -1    5.83    0.17
   3   4  -1    6.10    0.21
  -4  -5   0    0.16    0.07
  -4  -5   0    0.07    0.05
   4   5   0    0.10    0.05
  -5  -6  -1    1.83    0.19
   5   6   1    2.29    0.21
  -5  -5  -9   14.55    0.45
   4   4   8    0.75    0.12
  -4  -4  -8    0.72    0.11
  -4  -4  -8    0.64    0.10
   3   3   7    4.52    0.19
   3   3   7    5.35    0.21
  -3  -3  -7    4.30    0.18
  -3  -3  -7    4.54    0.18
   2   2   6    0.79    0.08
   2   2   6    0.97    0.05
  -2  -2  -6    0.89    0.07
  -2  -2  -6    0.90    0.08
   1   1   5   16.86    0.24
   1   1   5   16.98    0.33
  -1  -1  -5   17.23    0.30
  -1  -1  -5   16.73    0.30
   0   0   4  142.86    1.85
   0   0   4  142.03    1.88
   0   0  -4  143.68    1.86
   0   0  -4  141.75    1.84
  -1  -1   3  269.53    3.48
  -1  -1   3  270.12    3.49
   1   1  -3  268.58    3.49
   1   1  -3  266.09    3.52
  -2  -2   2   25.59    0.47
  -2  -2   2   25.16    0.41
   2   2  -2   25.30    0.41
  -3  -3   1    1.58    0.11
  -3  -3   1    1.63    0.11
  -3  -3   1    1.70    0.09
   3   3  -1    1.47    0.09
  -4  -4   0   41.81    0.80
  -4  -4   0   42.35    0.82
   4   4   0   43.18    0.74
  -5  -5  -1    0.31    0.09
   6   6   2    0.08    0.08
  -5  -6  -9    0.88    0.14
   4   5   8    1.66    0.18
  -4  -5  -8    1.66    0.16
  -4  -5  -8    1.50    0.15
   3   4   7    0.09    0.04
   3   4   7    0.10    0.05
  -3  -4  -7    0.03    0.04
  -3  -4  -7    0.10    0.04
   2   3   6  105.45    1.54
   2   3   6  104.56    1.43
  -2  -3  -6  106.28    1.46
  -2  -3  -6  101.15    1.48
   1   2   5    0.75    0.07
   1   2   5    0.66    0.05
  -1  -2  -5    0.83    0.06
  -1  -2  -5    0.71    0.04
   0   1   4   68.02    0.94
   0   1   4   67.65    0.96
   0  -1  -4   69.10    0.91
   0  -1  -4   69.61    0.94
  -1   0   3   58.71    0.83
  -1   0   3   57.87    0.77
   1   0  -3   56.46    0.79
   1   0  -3   56.40    0.80
  -2  -1   2   52.35    0.81
  -2  -1   2   52.49    0.70
  -2  -1   2   51.96    0.80
   2   1  -2   50.85    0.76
  -3  -2   1   82.70    1.26
  -3  -2   1   85.31    1.14
  -3  -2   1   82.99    1.27
   3   2  -1   82.28    1.21
  -4  -3   0   17.80    0.46
  -4  -3   0   18.84    0.45
   4   3   0   18.00    0.41
  -5  -4  -1    4.69    0.23
  -5  -4  -1    4.26    0.24
   5   4   1    4.22    0.21
  -6  -5  -2    0.42    0.12
   5   7   9   25.00    0.71
  -5  -7  -9   25.63    0.66
   4   6   8    3.71    0.24
  -4  -6  -8    4.00    0.21
   3   5   7    0.55    0.08
   3   5   7    0.56    0.10
  -3  -5  -7    0.65    0.09
   2   4   6   53.73    0.85
  -2  -4  -6   55.58    0.82
  -2  -4  -6   55.23    0.88
  -2  -4  -6   55.08    0.92
   1   3   5   40.42    0.64
  -1  -3  -5   39.94    0.64
  -1  -3  -5   40.65    0.57
  -1  -3  -5   39.52    0.67
   0   2   4    3.41    0.12
   0  -2  -4    3.38    0.12
   0  -2  -4    3.36    0.11
  -1   1   3   16.22    0.32
  -1   1   3   16.75    0.28
   1  -1  -3   16.28    0.29
  -2   0   2  308.16    4.08
  -2   0   2  319.30    4.10
   2   0  -2  308.71    4.05
  -3  -1   1    3.18    0.15
  -3  -1   1    3.13    0.15
   3   1  -1    3.02    0.13
  -4  -2   0    8.05    0.29
  -4  -2   0    8.44    0.28
   4   2   0    8.31    0.26
  -5  -3  -1   -0.01    0.05
  -5  -3  -1    0.06    0.06
   5   3   1   -0.05    0.04
  -6  -4  -2    0.13    0.09
   6   4   2   -0.03    0.06
   4   7   8    0.27    0.10
  -4  -7  -8    0.22    0.08
   3   6   7   12.08    0.35
  -3  -6  -7   12.41    0.35
  -3  -6  -7   12.12    0.40
   2   5   6   27.30    0.54
  -2  -5  -6   26.72    0.58
  -2  -5  -6   27.45    0.53
   1   4   5    0.03    0.03
  -1  -4  -5    0.06    0.04
  -1  -4  -5    0.05    0.02
   0   3   4   48.30    0.75
   0  -3  -4   44.23    0.74
   0  -3  -4   46.27    0.71
  -1   2   3  160.80    2.10
  -1   2   3  161.62    2.20
   1  -2  -3  159.20    2.15
   1  -2  -3  161.61    2.13
  -2   1   2   28.17    0.50
  -2   1   2   28.67    0.53
   2  -1  -2   28.92    0.41
   2  -1  -2   28.43    0.49
  -3   0   1   25.28    0.51
  -3   0   1   26.10    0.52
   3   0  -1   26.10    0.50
  -4  -1   0    5.69    0.23
  -4  -1   0    5.51    0.24
   4   1   0    5.50    0.21
  -5  -2  -1   57.24    1.09
  -5  -2  -1   60.07    1.05
   5   2   1   56.54    1.01
  -6  -3  -2    3.01    0.28
   6   3   2    3.00    0.20
   4   8   8    2.20    0.25
   3   7   7    4.60    0.24
  -3  -7  -7    4.88    0.27
  -3  -7  -7    4.51    0.22
   2   6   6    0.13    0.06
  -2  -6  -6    0.07    0.05
  -2  -6  -6    0.02    0.04
   1   5   5    9.02    0.28
  -1  -5  -5    9.06    0.29
  -1  -5  -5    9.14    0.26
   0   4   4    3.31    0.16
   0  -4  -4    3.21    0.15
   0  -4  -4    3.39    0.14
  -1   3   3   71.24    0.98
  -1   3   3   72.07    1.11
   1  -3  -3   71.84    1.05
   1  -3  -3   69.41    1.05
  -2   2   2   64.84    1.04
  -2   2   2   65.15    0.97
   2  -2  -2   65.27    0.92
   2  -2  -2   64.95    0.99
  -3   1   1   18.96    0.44
  -3   1   1   19.10    0.42
   3  -1  -1   19.03    0.41
  -4   0   0    2.36    0.16
  -4   0   0    2.34    0.16
   4   0   0    2.37    0.15
  -5  -1  -1    0.06    0.06
  -5  -1  -1    0.10    0.07
   5   1   1    0.11    0.06
  -6  -2  -2    5.24    0.31
   6   2   2    5.22    0.27
   3   8   7    6.11    0.30
  -3  -8  -7    5.59    0.31
   2   7   6   10.59    0.37
  -2  -7  -6    9.93    0.37
  -2  -7  -6   10.27    0.32
   1   6   5    5.84    0.25
  -1  -6  -5    5.75    0.21
  -1  -6  -5    5.86    0.26
   0   5   4   13.06    0.37
   0  -5  -4   12.99    0.36
   0  -5  -4   12.86    0.32
  -1   4   3    4.94    0.21
   1  -4  -3    4.57    0.18
   1  -4  -3    4.57    0.17
  -2   3   2    1.61    0.13
  -2   3   2    1.54    0.09
   2  -3  -2    1.67    0.09
   2  -3  -2    1.47    0.10
  -3   2   1   11.00    0.30
  -3   2   1   10.73    0.33
   3  -2  -1   10.44    0.30
  -4   1   0    1.69    0.17
  -4   1   0    1.62    0.15
   4  -1   0    1.49    0.14
  -5   0  -1    3.93    0.22
  -5   0  -1    3.49    0.23
   5   0   1    3.50    0.20
  -6  -1  -2    4.65    0.29
   6   1   2    4.30    0.25
   3   9   7    2.53    0.25
   2   8   6    8.28    0.36
  -2  -8  -6    8.28    0.37
   1   7   5    1.69    0.18
  -1  -7  -5    1.91    0.14
  -1  -7  -5    2.08    0.21
   0   6   4   15.93    0.45
   0  -6  -4   15.94    0.39
   0  -6  -4   16.55    0.45
  -1   5   3   11.87    0.37
   1  -5  -3   12.36    0.35
   1  -5  -3   12.09    0.32
  -2   4   2    5.54    0.25
   2  -4  -2    5.58    0.20
   2  -4  -2    5.62    0.21
  -3   3   1    0.84    0.12
  -3   3   1    0.75    0.10
   3  -3  -1    0.84    0.11
  -4   2   0    0.65    0.10
  -4   2   0    0.62    0.11
   4  -2   0    0.41    0.08
  -5   1  -1    7.47    0.33
  -5   1  -1    8.47    0.42
   5  -1   1    8.53    0.32
  -6   0  -2    4.98    0.31
   6   0   2    5.32    0.29
   2   9   6   11.07    0.45
  -2  -9  -6   11.04    0.47
   1   8   5    0.10    0.09
  -1  -8  -5    0.11    0.08
   0   7   4    1.35    0.17
   0  -7  -4    1.36    0.17
   0  -7  -4    1.47    0.14
  -1   6   3   35.55    0.78
   1  -6  -3   35.81    0.74
   1  -6  -3   35.65    0.68
  -2   5   2    0.34    0.10
   2  -5  -2    0.53    0.08
  -3   4   1   13.59    0.44
   3  -4  -1   14.20    0.39
  -4   3   0    1.37    0.17
  -4   3   0    1.43    0.17
   4  -3   0    1.24    0.14
  -5   2  -1    5.01    0.28
   5  -2   1    5.40    0.26
   1   9   5   12.48    0.50
  -1  -9  -5   12.45    0.49
   0   8   4    0.31    0.12
   0  -8  -4    0.30    0.11
  -1   7   3    2.06    0.22
   1  -7  -3    2.02    0.15
   1  -7  -3    2.05    0.18
  -2   6   2   11.06    0.43
   2  -6  -2   11.68    0.36
  -3   5   1   31.79    0.78
   3  -5  -1   32.31    0.69
  -4   4   0   -0.05    0.07
   4  -4   0    0.00    0.05
   5  -3   1    1.04    0.15
  -1   8   3    0.21    0.11
   1  -8  -3    0.18    0.09
  -2   7   2    0.82    0.16
   2  -7  -2    1.03    0.14
  -3   6   1    3.15    0.27
   3  -6  -1    3.28    0.21
  -4   5   0    0.03    0.10
   4  -5   0    0.03    0.07
  -4   4  -9    4.84    0.28
   2  -6   7    2.26    0.19
   1  -7   6    7.11    0.34
  -1   7  -6    7.04    0.34
   0  -8   5    1.44    0.20
   0   8  -5    1.76    0.22
   5  -2  10   21.35    0.58
  -5   2 -10   19.79    0.62
   4  -3   9    0.29    0.09
  -4   3  -9    0.27    0.10
   3  -4   8    1.87    0.14
  -3   4  -8    1.95    0.19
   2  -5   7    8.10    0.32
  -2   5  -7    7.61    0.29
  -2   5  -7    7.84    0.31
   1  -6   6    0.67    0.13
  -1   6  -6    0.54    0.11
   0  -7   5    1.77    0.20
   0   7  -5    1.77    0.20
  -1  -8   4    6.54    0.34
   1   8  -4    6.53    0.34
  -2  -9   3    2.08    0.26
   2   9  -3    2.41    0.28
   5  -1  10    1.25    0.16
  -5   1 -10    1.27    0.18
   4  -2   9   28.60    0.63
  -4   2  -9   26.42    0.66
   3  -3   8   17.08    0.44
   3  -3   8   16.90    0.42
  -3   3  -8   17.42    0.47
   2  -4   7    2.08    0.12
   2  -4   7    2.30    0.16
  -2   4  -7    2.20    0.15
  -2   4  -7    2.12    0.15
   1  -5   6   65.53    1.15
  -1   5  -6   66.72    1.07
  -1   5  -6   65.52    1.12
   0  -6   5   13.85    0.42
   0   6  -5   13.37    0.41
  -1  -7   4    1.27    0.16
   1   7  -4    1.26    0.16
  -2  -8   3    3.96    0.26
   2   8  -3    4.00    0.27
  -3  -9   2    2.16    0.25
   3   9  -2    1.87    0.30
   5   0  10    4.21    0.25
  -5   0 -10    4.00    0.26
   4  -1   9    3.62    0.21
  -4   1  -9    4.06    0.23
   3  -2   8   28.22    0.58
   3  -2   8   28.00    0.58
  -3   2  -8   28.38    0.62
   2  -3   7    2.45    0.13
   2  -3   7    2.93    0.16
  -2   3  -7    2.65    0.15
  -2   3  -7    2.91    0.15
   1  -4   6    7.61    0.19
   1  -4   6    7.35    0.26
  -1   4  -6    7.37    0.23
  -1   4  -6    7.21    0.25
   0  -5   5    4.35    0.21
   0   5  -5    4.18    0.17
   0   5  -5    4.31    0.20
  -1  -6   4    4.14    0.22
   1   6  -4    4.29    0.17
   1   6  -4    4.45    0.22
  -2  -7   3   19.28    0.54
   2   7  -3   19.58    0.53
  -3  -8   2    0.31    0.11
   3   8  -2    0.24    0.10
   5   1  10    0.00    0.06
  -5  -1 -10    0.01    0.06
   4   0   9    0.69    0.11
  -4   0  -9    0.84    0.12
   3  -1   8    1.24    0.10
   3  -1   8    1.08    0.11
  -3   1  -8    1.42    0.14
   2  -2   7    5.81    0.19
   2  -2   7    5.77    0.21
  -2   2  -7    5.57    0.21
  -2   2  -7    5.78    0.18
   1  -3   6   20.91    0.46
   1  -3   6   21.32    0.38
  -1   3  -6   20.34    0.42
  -1   3  -6   20.67    0.42
   0  -4   5   32.91    0.50
   0  -4   5   30.83    0.61
   0   4  -5   31.27    0.59
   0   4  -5   31.21    0.55
  -1  -5   4    1.08    0.12
   1   5  -4    1.34    0.09
   1   5  -4    1.20    0.13
  -2  -6   3    4.94    0.23
   2   6  -3    5.35    0.24
   2   6  -3    4.88    0.19
  -3  -7   2    9.24    0.36
   3   7  -2   10.04    0.37
  -4  -8   1    1.28    0.18
   4   8  -1    1.06    0.18
  -6  -3 -11    0.60    0.15
   5   2  10    0.39    0.10
  -5  -2 -10    0.56    0.11
   4   1   9   16.24    0.41
   4   1   9   16.06    0.44
  -4  -1  -9   16.22    0.45
   3   0   8   39.89    0.73
   3   0   8   39.07    0.70
  -3   0  -8   39.93    0.75
   2  -1   7    0.87    0.09
   2  -1   7    1.00    0.08
  -2   1  -7    0.95    0.06
  -2   1  -7    1.00    0.10
   1  -2   6    2.64    0.10
   1  -2   6    2.77    0.13
  -1   2  -6    2.80    0.11
  -1   2  -6    2.88    0.12
   0  -3   5   13.11    0.21
   0  -3   5   13.21    0.32
   0   3  -5   13.17    0.29
   0   3  -5   13.07    0.28
  -1  -4   4    6.61    0.23
   1   4  -4    6.32    0.19
  -2  -5   3    2.42    0.15
  -2  -5   3    2.28    0.15
   2   5  -3    2.29    0.12
  -3  -6   2    7.69    0.30
  -3  -6   2    7.71    0.30
   3   6  -2    7.73    0.25
  -4  -7   1    0.19    0.08
   5   3  10    0.77    0.13
  -5  -3 -10    1.12    0.16
   4   2   9   14.14    0.40
   4   2   9   14.31    0.38
  -4  -2  -9   15.21    0.42
   3   1   8   10.55    0.29
  -3  -1  -8   10.65    0.31
   2   0   7    6.30    0.20
  -2   0  -7    6.37    0.20
   1  -1   6  180.74    2.39
   1  -1   6  180.27    2.44
  -1   1  -6  184.10    2.36
  -1   1  -6  181.11    2.43
   0  -2   5    1.57    0.09
   0  -2   5    1.66    0.08
   0  -2   5    1.73    0.05
   0   2  -5    1.76    0.08
  -1  -3   4    0.94    0.08
  -1  -3   4    0.67    0.07
   1   3  -4    0.93    0.07
  -2  -4   3   73.56    1.13
  -2  -4   3   72.29    1.14
   2   4  -3   71.22    1.08
   2   4  -3   73.73    1.06
  -3  -5   2    1.33    0.13
  -3  -5   2    1.02    0.12
   3   5  -2    1.17    0.11
  -4  -6   1    0.40    0.09
  -4  -6   1    0.43    0.09
   4   6  -1    0.21    0.07
  -5  -7   0    0.07    0.07
   5   4  10    3.29    0.22
  -5  -4 -10    3.35    0.22
   4   3   9    1.87    0.14
  -4  -3  -9    1.97    0.15
  -4  -3  -9    1.95    0.15
   3   2   8    0.09    0.04
  -3  -2  -8   -0.01    0.03
  -3  -2  -8    0.00    0.03
   2   1   7    0.11    0.04
  -2  -1  -7    0.23    0.05
  -2  -1  -7    0.24    0.05
   1   0   6    6.77    0.19
  -1   0  -6    7.01    0.17
  -1   0  -6    7.00    0.18
   0  -1   5   26.03    0.41
   0  -1   5   26.54    0.45
   0   1  -5   26.86    0.38
   0   1  -5   26.21    0.43
  -1  -2   4   15.76    0.32
  -1  -2   4   16.40    0.31
   1   2  -4   15.25    0.30
  -2  -3   3  196.85    2.61
  -2  -3   3  191.93    2.65
   2   3  -3  195.55    2.52
   2   3  -3  192.45    2.61
  -3  -4   2    6.10    0.21
  -3  -4   2    6.21    0.23
   3   4  -2    6.42    0.18
   3   4  -2    6.05    0.21
  -4  -5   1    0.58    0.10
   4   5  -1    0.37    0.08
  -5  -6   0   11.02    0.40
   5   6   0   11.82    0.39
  -5  -5 -10    2.06    0.21
   4   4   9    0.44    0.09
  -4  -4  -9    0.48    0.09
  -4  -4  -9    0.43    0.09
   3   3   8    3.00    0.16
  -3  -3  -8    3.07    0.15
  -3  -3  -8    2.97    0.15
   2   2   7   22.17    0.34
   2   2   7   21.05    0.44
  -2  -2  -7   22.75    0.42
  -2  -2  -7   22.01    0.43
   1   1   6   71.97    1.06
   1   1   6   71.71    0.94
  -1  -1  -6   74.37    1.02
  -1  -1  -6   70.56    1.02
   0   0   5    8.77    0.19
   0   0   5    9.09    0.17
   0   0  -5    9.17    0.17
   0   0  -5    9.06    0.18
  -1  -1   4    7.96    0.17
  -1  -1   4    7.91    0.19
   1   1  -4    8.07    0.18
   1   1  -4    7.80    0.14
  -2  -2   3   46.34    0.68
  -2  -2   3   45.40    0.74
   2   2  -3   45.47    0.72
   2   2  -3   45.16    0.66
  -3  -3   2   22.76    0.42
  -3  -3   2   21.43    0.47
   3   3  -2   21.72    0.40
   3   3  -2   21.20    0.45
  -4  -4   1    2.26    0.16
   4   4  -1    2.24    0.13
   4   4  -1    2.00    0.14
  -5  -5   0    2.08    0.17
   5   5   0    2.33    0.17
   6   6   1    0.02    0.07
  -5  -6 -10    0.15    0.08
   4   5   9   18.47    0.51
  -4  -5  -9   18.37    0.48
   3   4   8   49.69    0.90
  -3  -4  -8   51.07    0.84
  -3  -4  -8   48.30    0.86
   2   3   7   10.60    0.23
   2   3   7   10.55    0.30
  -2  -3  -7   12.76    0.29
  -2  -3  -7   10.60    0.25
   1   2   6   48.27    0.77
   1   2   6   49.02    0.70
  -1  -2  -6   48.80    0.70
  -1  -2  -6   48.45    0.74
   0   1   5   21.14    0.35
   0   1   5   21.08    0.37
   0  -1  -5   20.91    0.35
   0  -1  -5   21.04    0.32
  -1   0   4   28.23    0.42
   1   0  -4   28.03    0.43
   1   0  -4   28.26    0.44
  -2  -1   3   34.32    0.49
   2   1  -3   35.64    0.54
  -3  -2   2   28.73    0.44
  -3  -2   2   28.12    0.56
  -3  -2   2   28.25    0.55
   3   2  -2   27.38    0.49
  -4  -3   1   17.06    0.44
  -4  -3   1   17.49    0.45
   4   3  -1   16.73    0.39
  -5  -4   0    0.91    0.13
  -5  -4   0    1.24    0.16
   5   4   0    1.01    0.12
   5   7  10   15.18    0.53
  -5  -7 -10   15.19    0.49
   4   6   9    5.66    0.29
  -4  -6  -9    5.42    0.26
   3   5   8    3.90    0.22
  -3  -5  -8    3.22    0.17
   2   4   7   46.51    0.75
   2   4   7   47.15    0.84
  -2  -4  -7   46.36    0.78
  -2  -4  -7   48.31    0.73
   1   3   6   20.07    0.38
  -1  -3  -6   20.41    0.32
  -1  -3  -6   19.97    0.39
   0   2   5   22.75    0.40
   0  -2  -5   22.63    0.39
   0  -2  -5   22.89    0.32
  -1   1   4  127.45    1.76
  -1   1   4  130.95    1.70
   1  -1  -4  128.15    1.69
   1  -1  -4  125.60    1.72
  -2   0   3   51.69    0.82
  -2   0   3   50.97    0.79
   2   0  -3   50.86    0.77
  -3  -1   2   26.89    0.53
  -3  -1   2   26.76    0.53
   3   1  -2   26.74    0.49
  -4  -2   1    0.82    0.12
  -4  -2   1    0.72    0.10
   4   2  -1    0.56    0.08
  -5  -3   0    2.22    0.17
  -5  -3   0    2.33    0.18
   5   3   0    2.29    0.15
  -6  -4  -1    9.20    0.40
   6   4   1    9.64    0.35
   4   7   9    0.13    0.09
  -4  -7  -9    0.09    0.06
   3   6   8    1.49    0.16
  -3  -6  -8    1.32    0.14
   2   5   7    0.19    0.05
  -2  -5  -7    0.30    0.06
  -2  -5  -7    0.31    0.08
   1   4   6    6.97    0.22
  -1  -4  -6    7.12    0.24
  -1  -4  -6    7.06    0.21
   0   3   5   66.66    1.02
   0  -3  -5   66.95    1.01
   0  -3  -5   66.45    0.99
  -1   2   4    7.51    0.16
  -1   2   4    7.48    0.22
   1  -2  -4    7.50    0.18
  -2   1   3   70.48    1.05
  -2   1   3   71.04    1.10
  -2   1   3   73.58    0.96
   2  -1  -3   71.96    1.05
  -3   0   2    6.49    0.22
  -3   0   2    6.21    0.22
   3   0  -2    5.89    0.20
  -4  -1   1   60.65    1.04
  -4  -1   1   58.96    1.05
   4   1  -1   62.08    1.00
  -5  -2   0   12.66    0.42
  -5  -2   0   13.39    0.41
   5   2   0   13.29    0.38
  -6  -3  -1    1.43    0.19
   6   3   1    1.40    0.17
   4   8   9    0.06    0.10
   3   7   8    3.86    0.22
  -3  -7  -8    3.87    0.21
  -3  -7  -8    3.86    0.24
   2   6   7   10.44    0.33
  -2  -6  -7    9.89    0.35
  -2  -6  -7   10.50    0.31
   1   5   6    1.71    0.13
  -1  -5  -6    1.62    0.11
  -1  -5  -6    1.19    0.13
   0   4   5   31.23    0.60
   0  -4  -5   31.11    0.59
   0  -4  -5   30.91    0.55
  -1   3   4   43.90    0.63
  -1   3   4   44.16    0.77
   1  -3  -4   43.40    0.71
   1  -3  -4   44.48    0.72
  -2   2   3    0.13    0.05
  -2   2   3    0.07    0.03
   2  -2  -3    0.13    0.03
   2  -2  -3    0.05    0.03
  -3   1   2   10.68    0.29
  -3   1   2   10.34    0.31
   3  -1  -2   10.11    0.28
  -4   0   1   12.83    0.38
  -4   0   1   12.91    0.38
   4   0  -1   13.49    0.36
  -5  -1   0   26.85    0.63
  -5  -1   0   27.11    0.66
   5   1   0   27.07    0.61
  -6  -2  -1    3.42    0.25
   6   2   1    3.03    0.21
   3   8   8    8.54    0.36
  -3  -8  -8    7.91    0.37
   2   7   7   28.59    0.65
  -2  -7  -7   28.34    0.61
  -2  -7  -7   28.59    0.69
   1   6   6    0.46    0.09
  -1  -6  -6    0.69    0.11
  -1  -6  -6    0.48    0.08
   0   5   5    3.59    0.19
   0  -5  -5    3.25    0.15
   0  -5  -5    3.16    0.17
  -1   4   4   13.33    0.37
   1  -4  -4   13.71    0.33
   1  -4  -4   12.92    0.33
  -2   3   3    5.37    0.23
  -2   3   3    5.72    0.18
   2  -3  -3    5.75    0.18
   2  -3  -3    5.83    0.20
  -3   2   2    0.38    0.07
  -3   2   2    0.47    0.10
   3  -2  -2    0.30    0.06
  -4   1   1    4.85    0.23
  -4   1   1    5.23    0.23
   4  -1  -1    5.03    0.21
  -5   0   0    2.13    0.20
  -5   0   0    2.58    0.19
   5   0   0    2.83    0.18
  -6  -1  -1    3.39    0.31
   6   1   1    3.39    0.22
   2   8   7    3.20    0.23
  -2  -8  -7    2.80    0.23
   1   7   6    1.99    0.20
  -1  -7  -6    1.93    0.20
  -1  -7  -6    1.97    0.15
   0   6   5    6.20    0.28
   0  -6  -5    6.22    0.23
   0  -6  -5    6.35    0.27
  -1   5   4   19.79    0.51
   1  -5  -4   20.01    0.44
   1  -5  -4   19.37    0.46
  -2   4   3    8.03    0.31
   2  -4  -3    8.43    0.27
   2  -4  -3    9.02    0.32
  -3   3   2    6.21    0.28
  -3   3   2    6.53    0.23
   3  -3  -2    6.84    0.24
  -4   2   1   25.24    0.62
  -4   2   1   26.39    0.59
   4  -2  -1   25.32    0.57
  -5   1   0    3.09    0.22
  -5   1   0    3.14    0.22
   5  -1   0    3.10    0.20
  -6   0  -1    3.95    0.28
   6   0   1    4.11    0.25
   2   9   7    9.02    0.41
  -2  -9  -7    9.91    0.47
   1   8   6   14.64    0.49
  -1  -8  -6   14.21    0.49
   0   7   5    2.04    0.21
   0  -7  -5    2.32    0.15
   0  -7  -5    2.56    0.20
  -1   6   4    3.31    0.22
   1  -6  -4    2.91    0.19
   1  -6  -4    3.28    0.17
  -2   5   3    1.20    0.16
   2  -5  -3    1.22    0.13
  -3   4   2    0.39    0.10
   3  -4  -2    0.21    0.06
  -4   3   1   36.94    0.83
   4  -3  -1   36.08    0.75
  -5   2   0   28.75    0.73
  -5   2   0   28.59    0.70
   5  -2   0   29.25    0.68
   1   9   6    4.05    0.31
  -1  -9  -6    3.47    0.29
   0   8   5   10.80    0.44
   0  -8  -5   10.92    0.42
  -1   7   4    0.46    0.12
   1  -7  -4    0.32    0.09
   1  -7  -4    0.37    0.08
  -2   6   3   19.58    0.58
   2  -6  -3   19.34    0.49
  -3   5   2    3.58    0.25
   3  -5  -2    3.76    0.21
  -4   4   1    8.15    0.37
   4  -4  -1    8.52    0.33
   5  -3   0    0.94    0.15
  -1   8   4    1.55    0.21
  -2   7   3    5.07    0.32
   2  -7  -3    4.62    0.24
  -3   6   2    2.42    0.26
   3  -6  -2    2.17    0.21
  -4   5   1    7.42    0.38
   4  -5  -1    7.74    0.33
  -4   4 -10   21.37    0.62
  -3   5  -9    5.86    0.31
   2  -6   8    0.14    0.09
   1  -7   7    0.57    0.13
  -1   7  -7    0.66    0.14
   0  -8   6    4.85    0.31
   0   8  -6    4.88    0.30
   4  -3  10    3.25    0.21
  -4   3 -10    2.93    0.22
   3  -4   9   12.34    0.44
  -3   4  -9   11.99    0.40
   2  -5   8   42.06    0.86
  -2   5  -8   42.30    0.83
   1  -6   7   32.88    0.75
  -1   6  -7   32.08    0.72
   0  -7   6    9.89    0.40
   0   7  -6    9.37    0.37
  -1  -8   5    9.63    0.41
   1   8  -5    9.88    0.41
   5  -1  11   13.71    0.46
  -5   1 -11   15.11    0.52
   4  -2  10   -0.09    0.04
  -4   2 -10   -0.02    0.05
   3  -3   9    0.03    0.05
   3  -3   9    0.20    0.06
  -3   3  -9    0.15    0.06
   2  -4   8   69.41    1.19
  -2   4  -8   70.02    1.17
   1  -5   7    4.73    0.24
  -1   5  -7    4.45    0.20
  -1   5  -7    5.04    0.23
   0  -6   6    1.48    0.17
   0   6  -6    1.53    0.18
   0   6  -6    1.87    0.18
  -1  -7   5    0.35    0.09
   1   7  -5    0.45    0.11
  -2  -8   4    0.23    0.09
   2   8  -4    0.29    0.11
   5   0  11    2.73    0.24
  -5   0 -11    1.97    0.23
   4  -1  10    9.15    0.33
  -4   1 -10    8.62    0.34
   3  -2   9   14.03    0.39
   3  -2   9   14.16    0.37
  -3   2  -9   14.10    0.41
   2  -3   8    1.50    0.10
   2  -3   8    1.61    0.13
  -2   3  -8    1.50    0.14
  -2   3  -8    1.50    0.15
   1  -4   7    3.12    0.18
  -1   4  -7    3.59    0.17
  -1   4  -7    3.16    0.16
   0  -5   6    1.78    0.14
   0   5  -6    1.80    0.14
   0   5  -6    1.84    0.12
  -1  -6   5   29.45    0.67
   1   6  -5   29.79    0.65
   1   6  -5   30.44    0.58
  -2  -7   4    0.96    0.14
   2   7  -4    1.03    0.14
  -3  -8   3    2.05    0.22
   3   8  -3    2.79    0.23
   5   1  11    5.17    0.27
  -5  -1 -11    4.86    0.28
   4   0  10   10.39    0.34
  -4   0 -10    9.85    0.36
   3  -1   9   13.64    0.37
   3  -1   9   13.61    0.36
  -3   1  -9   13.76    0.39
   2  -2   8   56.27    0.88
   2  -2   8   54.47    0.92
  -2   2  -8   53.35    0.92
  -2   2  -8   55.67    0.86
   1  -3   7    6.27    0.17
   1  -3   7    5.86    0.22
  -1   3  -7    6.08    0.21
  -1   3  -7    6.08    0.20
   0  -4   6    0.12    0.05
   0   4  -6    0.26    0.06
   0   4  -6    0.29    0.06
  -1  -5   5   25.76    0.57
   1   5  -5   26.25    0.55
   1   5  -5   25.95    0.50
  -2  -6   4    1.27    0.15
   2   6  -4    1.24    0.11
   2   6  -4    1.52    0.16
  -3  -7   3   -0.05    0.04
   3   7  -3   -0.02    0.06
  -4  -8   2    0.16    0.09
   4   8  -2    0.07    0.09
   5   2  11    6.97    0.31
  -5  -2 -11    6.56    0.32
   4   1  10   11.37    0.34
   4   1  10   11.24    0.36
  -4  -1 -10   11.22    0.37
   3   0   9    0.78    0.10
   3   0   9    0.71    0.09
  -3   0  -9    0.54    0.09
   2  -1   8   12.74    0.33
   2  -1   8   13.14    0.31
  -2   1  -8   13.50    0.27
  -2   1  -8   12.80    0.33
   1  -2   7    1.45    0.10
   1  -2   7    1.65    0.08
  -1   2  -7    1.62    0.08
  -1   2  -7    1.47    0.09
   0  -3   6    3.30    0.15
   0  -3   6    3.37    0.08
   0   3  -6    3.18    0.13
   0   3  -6    3.59    0.14
  -1  -4   5   -0.02    0.03
  -1  -4   5    0.07    0.03
   1   4  -5    0.04    0.03
  -2  -5   4    5.50    0.23
  -2  -5   4    5.76    0.23
   2   5  -4    5.28    0.19
  -3  -6   3   24.42    0.57
  -3  -6   3   23.79    0.58
   3   6  -3   23.62    0.51
  -4  -7   2    6.90    0.32
  -4  -7   2    7.53    0.32
   5   3  11    3.55    0.24
  -5  -3 -11    3.30    0.22
   4   2  10   14.67    0.40
   4   2  10   14.12    0.41
  -4  -2 -10   15.35    0.43
   3   1   9    0.15    0.05
  -3  -1  -9    0.13    0.05
   2   0   8    0.43    0.07
  -2   0  -8    0.25    0.05
  -2   0  -8    0.47    0.07
   1  -1   7   95.65    1.40
  -1   1  -7   97.83    1.30
  -1   1  -7   97.95    1.39
   0  -2   6    3.32    0.14
   0  -2   6    3.29    0.08
   0  -2   6    3.43    0.12
   0   2  -6    3.19    0.12
  -1  -3   5  100.92    1.48
  -1  -3   5  104.75    1.48
   1   3  -5  102.87    1.45
  -2  -4   4    3.51    0.16
  -2  -4   4    3.55    0.17
   2   4  -4    3.57    0.15
  -3  -5   3    4.07    0.20
  -3  -5   3    4.06    0.21
   3   5  -3    4.23    0.19
  -4  -6   2    3.02    0.31
  -4  -6   2    3.11    0.20
   4   6  -2    3.13    0.18
  -5  -7   1    0.10    0.08
   5   7  -1    0.17    0.08
   5   4  11    2.63    0.20
  -5  -4 -11    2.87    0.21
   4   3  10    1.55    0.16
  -4  -3 -10    1.81    0.17
  -4  -3 -10    1.94    0.15
   3   2   9    3.29    0.17
  -3  -2  -9    3.72    0.17
  -3  -2  -9    3.57    0.17
   2   1   8    9.58    0.26
  -2  -1  -8    9.33    0.25
  -2  -1  -8    9.73    0.26
   1   0   7    2.19    0.11
  -1   0  -7    2.11    0.10
  -1   0  -7    2.29    0.09
   0  -1   6   18.49    0.32
   0   1  -6   18.91    0.29
   0   1  -6   18.94    0.34
  -1  -2   5   19.95    0.39
  -1  -2   5   20.59    0.38
   1   2  -5   20.54    0.38
  -2  -3   4  163.69    2.23
  -2  -3   4  164.04    2.28
   2   3  -4  163.13    2.23
   2   3  -4  163.79    2.12
  -3  -4   3   19.90    0.42
  -3  -4   3   18.56    0.45
   3   4  -3   18.45    0.42
  -4  -5   2    1.06    0.14
   4   5  -2    1.17    0.14
  -5  -6   1    4.65    0.26
   5   6  -1    4.89    0.25
  -5  -5 -11    0.12    0.07
   4   4  10    2.72    0.18
  -4  -4 -10    2.11    0.16
  -4  -4 -10    2.55    0.17
   3   3   9    7.38    0.26
  -3  -3  -9    6.81    0.24
  -3  -3  -9    7.00    0.24
   2   2   8   11.91    0.20
   2   2   8   12.05    0.31
  -2  -2  -8   11.77    0.28
  -2  -2  -8   11.84    0.29
   1   1   7  251.94    3.17
   1   1   7  249.13    3.31
  -1  -1  -7  249.49    3.25
  -1  -1  -7  244.90    3.26
   0   0   6    9.79    0.22
   0   0   6   10.10    0.20
   0   0  -6   10.55    0.19
   0   0  -6   10.20    0.21
  -1  -1   5   57.21    0.85
  -1  -1   5   56.77    0.82
   1   1  -5   55.69    0.83
   1   1  -5   57.11    0.77
  -2  -2   4    1.03    0.06
  -2  -2   4    0.91    0.09
   2   2  -4    0.89    0.07
   2   2  -4    0.96    0.05
  -3  -3   3    7.04    0.25
  -3  -3   3    7.29    0.20
   3   3  -3    7.38    0.19
   3   3  -3    7.23    0.23
  -4  -4   2    2.77    0.18
   4   4  -2    2.95    0.17
  -5  -5   1    2.16    0.18
   5   5  -1    1.89    0.19
   6   6   0    0.59    0.13
   5   6  11    0.02    0.09
  -5  -6 -11   -0.02    0.06
   4   5  10   44.47    0.92
  -4  -5 -10   45.44    0.89
   3   4   9    0.07    0.05
  -3  -4  -9    0.19    0.06
  -3  -4  -9    0.08    0.04
   2   3   8    0.05    0.03
   2   3   8    0.06    0.04
  -2  -3  -8    0.08    0.03
  -2  -3  -8    0.01    0.03
   1   2   7   74.52    1.02
   1   2   7   71.96    1.10
  -1  -2  -7   73.55    1.07
  -1  -2  -7   73.95    1.02
   0   1   6   16.92    0.33
   0   1   6   17.11    0.30
   0  -1  -6   17.08    0.31
   0  -1  -6   17.19    0.29
  -1   0   5    9.95    0.20
  -1   0   5   10.03    0.23
   1   0  -5   10.02    0.20
   1   0  -5    9.80    0.21
  -2  -1   4    9.94    0.26
  -2  -1   4   10.25    0.19
   2   1  -4   10.19    0.21
  -3  -2   3    0.31    0.07
  -3  -2   3    0.37    0.04
   3   2  -3    0.29    0.05
  -4  -3   2    2.70    0.17
   4   3  -2    2.69    0.14
  -5  -4   1    4.83    0.25
   6   5   0    0.03    0.07
   4   6  10    0.78    0.15
  -4  -6 -10    0.37    0.09
   3   5   9    0.37    0.09
  -3  -5  -9    0.60    0.10
   2   4   8    2.62    0.12
   2   4   8    2.62    0.16
  -2  -4  -8    2.71    0.11
  -2  -4  -8    3.05    0.15
   1   3   7   62.56    0.94
   1   3   7   64.47    1.02
  -1  -3  -7   63.46    0.97
  -1  -3  -7   64.79    0.88
   0   2   6    7.75    0.21
   0   2   6    8.13    0.21
   0  -2  -6    8.02    0.20
   0  -2  -6    8.02    0.15
  -1   1   5    0.05    0.03
  -1   1   5    0.05    0.02
   1  -1  -5    0.05    0.02
   1  -1  -5    0.05    0.02
  -2   0   4    0.04    0.03
  -2   0   4    0.03    0.03
   2   0  -4    0.03    0.02
  -3  -1   3   19.32    0.44
  -3  -1   3   20.06    0.44
   3   1  -3   18.58    0.38
  -4  -2   2    0.69    0.10
  -4  -2   2    0.67    0.10
   4   2  -2    0.74    0.09
  -5  -3   1    6.86    0.31
  -5  -3   1    6.87    0.29
   5   3  -1    6.64    0.25
  -6  -4   0   18.63    0.59
   4   7  10    0.32    0.11
  -4  -7 -10    0.41    0.10
   3   6   9    0.22    0.09
  -3  -6  -9    0.19    0.06
   2   5   8    0.26    0.06
  -2  -5  -8    0.31    0.07
   1   4   7    4.99    0.18
  -1  -4  -7    4.57    0.19
   0   3   6    1.20    0.09
   0  -3  -6    1.26    0.09
   0  -3  -6    1.34    0.08
  -1   2   5  108.24    1.56
   1  -2  -5  109.60    1.44
   1  -2  -5  107.18    1.51
  -2   1   4  106.81    1.61
  -2   1   4  115.19    1.46
  -2   1   4  111.19    1.56
   2  -1  -4  110.62    1.55
  -3   0   3    9.40    0.29
  -3   0   3    9.42    0.28
   3   0  -3    9.59    0.25
  -4  -1   2    1.05    0.13
  -4  -1   2    1.18    0.14
   4   1  -2    0.76    0.09
  -5  -2   1    2.52    0.19
  -5  -2   1    2.86    0.19
   5   2  -1    2.66    0.16
  -6  -3   0    8.43    0.39
   6   3   0    8.51    0.32
   4   8  10    3.55    0.28
  -4  -8 -10    4.27    0.25
   3   7   9    3.63    0.24
  -3  -7  -9    3.17    0.19
   2   6   8    6.16    0.25
  -2  -6  -8    6.45    0.25
  -2  -6  -8    6.08    0.27
   1   5   7   54.53    0.93
  -1  -5  -7   53.32    0.90
  -1  -5  -7   55.81    0.97
   0   4   6   22.88    0.48
   0  -4  -6   22.02    0.45
   0  -4  -6   22.34    0.47
  -1   3   5    2.39    0.14
   1  -3  -5    2.36    0.07
   1  -3  -5    2.42    0.12
  -2   2   4    0.91    0.10
  -2   2   4    1.02    0.07
   2  -2  -4    1.02    0.08
   2  -2  -4    1.07    0.06
  -3   1   3   13.53    0.34
  -3   1   3   13.97    0.38
   3  -1  -3   13.77    0.33
  -4   0   2    0.94    0.12
  -4   0   2    1.04    0.13
   4   0  -2    0.99    0.11
  -5  -1   1    1.14    0.15
  -5  -1   1    0.78    0.12
   5   1  -1    1.07    0.13
  -6  -2   0    0.08    0.08
   6   2   0    0.09    0.08
  -3  -8  -9    5.58    0.27
   2   7   8    0.15    0.08
  -2  -7  -8    0.16    0.06
  -2  -7  -8    0.16    0.08
   1   6   7   23.82    0.56
  -1  -6  -7   23.32    0.57
  -1  -6  -7   23.53    0.52
   0   5   6    7.33    0.27
   0  -5  -6    7.81    0.27
   0  -5  -6    7.22    0.24
  -1   4   5    0.00    0.04
   1  -4  -5    0.02    0.03
   1  -4  -5    0.02    0.03
  -2   3   4   92.67    1.32
  -2   3   4   91.06    1.45
   2  -3  -4   91.55    1.37
   2  -3  -4   92.82    1.32
  -3   2   3    0.14    0.06
  -3   2   3    0.20    0.05
   3  -2  -3    0.16    0.05
  -4   1   2    3.78    0.21
  -4   1   2    3.81    0.20
   4  -1  -2    3.98    0.19
  -5   0   1    7.44    0.32
  -5   0   1    7.56    0.32
   5   0  -1    7.03    0.28
  -6  -1   0    0.86    0.16
   6   1   0    0.54    0.12
   2   8   8    4.86    0.28
  -2  -8  -8    4.82    0.25
  -2  -8  -8    4.68    0.29
   1   7   7   39.10    0.82
  -1  -7  -7   36.30    0.74
  -1  -7  -7   38.24    0.83
   0   6   6    0.51    0.11
   0  -6  -6    0.65    0.09
   0  -6  -6    0.49    0.10
  -1   5   5    5.11    0.25
   1  -5  -5    5.54    0.22
   1  -5  -5    5.27    0.21
  -2   4   4   19.31    0.51
   2  -4  -4   18.52    0.43
  -3   3   3    4.35    0.23
   3  -3  -3    3.82    0.18
  -4   2   2    0.82    0.12
  -4   2   2    0.89    0.13
   4  -2  -2    0.77    0.11
  -5   1   1    0.09    0.07
  -5   1   1    0.09    0.08
   5  -1  -1    0.16    0.07
  -6   0   0   28.99    0.77
   6   0   0   29.69    0.71
   2   9   8    1.63    0.21
   1   8   7    0.11    0.10
  -1  -8  -7    0.22    0.10
  -1  -8  -7    0.13    0.07
   0   7   6   28.55    0.70
   0  -7  -6   29.43    0.62
   0  -7  -6   27.72    0.67
  -1   6   5   11.01    0.40
   1  -6  -5   10.29    0.32
   1  -6  -5   11.14    0.36
  -2   5   4    4.18    0.25
   2  -5  -4    4.80    0.21
  -3   4   3   25.28    0.65
   3  -4  -3   26.25    0.58
  -4   3   2    9.95    0.39
   4  -3  -2    9.76    0.34
  -5   2   1   21.09    0.58
  -5   2   1   20.90    0.61
   5  -2  -1   20.30    0.55
   0   8   6   -0.08    0.08
   0  -8  -6    0.06    0.05
   0  -8  -6   -0.03    0.07
  -1   7   5    8.67    0.39
   1  -7  -5    8.41    0.31
   1  -7  -5    9.33    0.36
  -2   6   4    1.50    0.19
   2  -6  -4    1.31    0.15
  -3   5   3    0.50    0.13
   3  -5  -3    0.45    0.10
  -4   4   2   15.01    0.52
   4  -4  -2   15.61    0.46
  -5   3   1    4.33    0.29
   5  -3  -1    4.88    0.26
  -1   8   5    0.15    0.12
   1  -8  -5    0.24    0.09
  -2   7   4    1.75    0.23
   2  -7  -4    2.41    0.19
  -3   6   3   21.69    0.66
   3  -6  -3   22.04    0.58
  -4   5   2    5.65    0.34
   4  -5  -2    5.32    0.29
  -3   5 -10    0.71    0.13
   2  -6   9    0.20    0.09
   1  -7   8   13.01    0.48
  -1   7  -8   13.96    0.48
   0  -8   7    4.99    0.32
   0   8  -7    4.60    0.30
   4  -3  11    5.36    0.26
  -4   3 -11    5.25    0.29
   3  -4  10   12.15    0.41
  -3   4 -10   11.73    0.40
   2  -5   9    1.73    0.19
  -2   5  -9    1.90    0.18
   1  -6   8    5.75    0.29
  -1   6  -8    5.95    0.28
   0  -7   7   16.72    0.53
   0   7  -7   17.17    0.52
  -1  -8   6    0.11    0.09
   1   8  -6    0.13    0.09
   5  -1  12    0.18    0.08
  -5   1 -12    0.09    0.08
   4  -2  11    1.31    0.15
  -4   2 -11    1.70    0.19
   3  -3  10   14.01    0.42
   3  -3  10   14.30    0.38
  -3   3 -10   13.59    0.42
   2  -4   9    7.93    0.31
  -2   4  -9    8.10    0.29
   1  -5   8    0.09    0.07
  -1   5  -8    0.08    0.06
  -1   5  -8    0.03    0.05
   0  -6   7    0.07    0.07
   0   6  -7    0.02    0.04
   0   6  -7    0.12    0.07
  -1  -7   6    0.03    0.06
   1   7  -6    0.07    0.07
  -2  -8   5    0.83    0.15
   2   8  -5    0.71    0.15
   5   0  12    0.58    0.11
  -5   0 -12    0.43    0.12
   4  -1  11   14.54    0.43
  -4   1 -11   14.73    0.46
   3  -2  10   24.88    0.54
   3  -2  10   24.64    0.56
  -3   2 -10   24.89    0.59
   2  -3   9   13.70    0.33
   2  -3   9   13.37    0.38
  -2   3  -9   13.88    0.38
   1  -4   8   23.31    0.55
  -1   4  -8   24.25    0.51
  -1   4  -8   24.71    0.52
   0  -5   7   25.07    0.58
   0   5  -7   25.38    0.52
   0   5  -7   25.09    0.55
  -1  -6   6   14.53    0.44
   1   6  -6   14.37    0.42
   1   6  -6   13.85    0.36
  -2  -7   5    8.84    0.35
   2   7  -5    8.68    0.35
  -3  -8   4    2.96    0.23
   3   8  -4    3.36    0.24
   5   1  12    0.69    0.13
  -5  -1 -12    0.71    0.13
   4   0  11   31.33    0.74
   4   0  11   30.14    0.67
  -4   0 -11   31.40    0.71
   3  -1  10   21.97    0.51
   3  -1  10   21.87    0.49
   2  -2   9    0.13    0.05
   2  -2   9    0.11    0.04
  -2   2  -9    0.12    0.05
   1  -3   8    2.60    0.15
   1  -3   8    2.70    0.11
  -1   3  -8    2.52    0.14
  -1   3  -8    2.70    0.13
   0  -4   7    3.32    0.17
   0   4  -7    3.40    0.16
   0   4  -7    3.19    0.15
  -1  -5   6    3.02    0.18
   1   5  -6    2.79    0.15
   1   5  -6    2.87    0.17
  -2  -6   5    0.02    0.05
   2   6  -5    0.10    0.05
   2   6  -5    0.12    0.06
  -3  -7   4    0.05    0.06
   3   7  -4   -0.03    0.06
  -4  -8   3    6.01    0.32
   4   8  -3    5.48    0.32
   5   2  12    4.49    0.26
  -5  -2 -12    4.52    0.27
   4   1  11    1.77    0.15
   4   1  11    2.11    0.16
  -4  -1 -11    2.12    0.20
   3   0  10   94.11    1.45
   3   0  10   92.85    1.44
  -3   0 -10   93.13    1.47
   2  -1   9   37.21    0.69
   2  -1   9   37.72    0.65
  -2   1  -9   37.91    0.69
   1  -2   8   10.78    0.30
   1  -2   8   10.79    0.24
  -1   2  -8   10.60    0.24
  -1   2  -8   10.39    0.28
   0  -3   7  109.19    1.44
   0  -3   7  111.79    1.62
   0   3  -7  110.13    1.57
   0   3  -7  110.05    1.56
  -1  -4   6    0.16    0.05
  -1  -4   6    0.12    0.05
   1   4  -6    0.12    0.04
  -2  -5   5   12.14    0.35
  -2  -5   5   11.79    0.35
   2   5  -5   11.98    0.31
  -3  -6   4    0.07    0.06
  -3  -6   4    0.08    0.06
   3   6  -4    0.19    0.06
  -4  -7   3    0.33    0.10
  -4  -7   3    0.41    0.11
   4   7  -3    0.31    0.09
   5   3  12    2.77    0.22
  -5  -3 -12    2.95    0.22
   4   2  11   44.41    0.86
   4   2  11   44.00    0.84
  -4  -2 -11   43.93    0.86
   3   1  10   18.70    0.45
  -3  -1 -10   18.27    0.45
  -3  -1 -10   18.42    0.44
   2   0   9    3.86    0.17
  -2   0  -9    3.93    0.16
  -2   0  -9    3.82    0.16
   1  -1   8    2.11    0.12
  -1   1  -8    1.93    0.09
  -1   1  -8    2.02    0.07
  -1   1  -8    2.11    0.11
   0  -2   7   49.90    0.75
   0  -2   7   49.76    0.68
   0  -2   7   48.36    0.80
   0   2  -7   48.31    0.77
  -1  -3   6    0.03    0.03
  -1  -3   6   -0.02    0.03
   1   3  -6    0.05    0.03
  -2  -4   5   11.40    0.31
  -2  -4   5   11.62    0.32
   2   4  -5   11.49    0.30
  -3  -5   4  137.75    2.06
  -3  -5   4  138.44    2.02
   3   5  -4  136.57    1.98
  -4  -6   3    3.35    0.22
   4   6  -3    3.07    0.18
  -5  -7   2    0.05    0.08
   5   7  -2    0.05    0.07
  -5  -4 -12   15.84    0.49
   4   3  11   15.38    0.44
  -4  -3 -11   15.39    0.43
  -4  -3 -11   14.62    0.43
   3   2  10   36.49    0.70
  -3  -2 -10   35.93    0.69
  -3  -2 -10   35.54    0.68
   2   1   9   15.19    0.37
  -2  -1  -9   14.81    0.34
  -2  -1  -9   15.60    0.35
   1   0   8   13.27    0.31
   1   0   8   13.66    0.20
  -1   0  -8   13.66    0.30
  -1   0  -8   13.32    0.28
   0  -1   7  180.44    2.44
   0  -1   7  182.26    2.38
   0   1  -7  180.73    2.34
   0   1  -7  179.71    2.42
  -1  -2   6   98.42    1.40
  -1  -2   6   98.81    1.41
   1   2  -6   98.88    1.39
  -2  -3   5   14.22    0.32
   2   3  -5   14.41    0.23
   2   3  -5   14.60    0.33
  -3  -4   4    3.36    0.16
  -3  -4   4    3.35    0.18
   3   4  -4    3.11    0.16
  -4  -5   3   12.50    0.40
   4   5  -3   11.88    0.36
  -5  -6   2    0.05    0.07
   5   6  -2    0.24    0.09
  -5  -5 -12   12.13    0.44
   4   4  11    1.10    0.14
  -4  -4 -11    1.02    0.14
  -4  -4 -11    1.15    0.14
   3   3  10   17.38    0.44
  -3  -3 -10   16.49    0.42
  -3  -3 -10   17.77    0.41
   2   2   9   58.93    0.98
  -2  -2  -9   59.88    0.95
  -2  -2  -9   60.81    0.93
   1   1   8    0.56    0.03
   1   1   8    0.48    0.07
  -1  -1  -8    0.57    0.06
  -1  -1  -8    0.64    0.06
   0   0   7    7.13    0.19
   0   0   7    6.96    0.16
   0   0  -7    6.85    0.16
   0   0  -7    7.15    0.18
  -1  -1   6   14.45    0.30
  -1  -1   6   14.42    0.29
   1   1  -6   14.24    0.29
   1   1  -6   14.77    0.24
  -2  -2   5   17.31    0.33
  -2  -2   5   16.66    0.37
   2   2  -5   16.46    0.28
   2   2  -5   16.62    0.35
  -3  -3   4   45.01    0.71
  -3  -3   4   43.90    0.80
   3   3  -4   43.29    0.67
   3   3  -4   42.48    0.76
  -4  -4   3    0.18    0.07
   4   4  -3    0.21    0.07
  -5  -5   2    1.18    0.16
   5   5  -2    1.19    0.16
   5   6  12    5.61    0.32
  -5  -6 -12    5.03    0.29
   4   5  11   31.54    0.73
  -4  -5 -11   30.81    0.70
   3   4  10    7.73    0.30
  -3  -4 -10    8.54    0.29
  -3  -4 -10    8.33    0.26
   2   3   9    9.32    0.30
   2   3   9    9.26    0.21
  -2  -3  -9    9.53    0.27
  -2  -3  -9    9.47    0.24
   1   2   8  100.14    1.50
   1   2   8  104.89    1.40
  -1  -2  -8  105.84    1.42
  -1  -2  -8  102.75    1.46
   0   1   7   60.99    0.92
   0   1   7   60.71    0.88
   0  -1  -7   62.09    0.89
   0  -1  -7   60.46    0.86
  -1   0   6   64.35    0.92
  -1   0   6   65.62    0.97
   1   0  -6   64.94    0.91
   1   0  -6   64.52    0.93
  -2  -1   5   40.50    0.60
  -2  -1   5   40.36    0.70
   2   1  -5   40.38    0.61
   2   1  -5   40.35    0.66
  -3  -2   4    1.18    0.12
   3   2  -4    1.25    0.10
   3   2  -4    1.05    0.07
  -4  -3   3    7.93    0.29
   4   3  -3    8.33    0.24
   4   3  -3    8.91    0.29
  -5  -4   2    2.08    0.17
   5   4  -2    1.98    0.19
  -6  -5   1    1.68    0.21
   6   5  -1    1.66    0.19
   4   6  11    5.35    0.30
  -4  -6 -11    6.37    0.29
   3   5  10    9.21    0.35
  -3  -5 -10    9.15    0.31
   2   4   9    8.26    0.23
   2   4   9    7.81    0.28
  -2  -4  -9    7.87    0.25
   1   3   8   16.39    0.34
   1   3   8   16.79    0.40
  -1  -3  -8   16.87    0.36
  -1  -3  -8   17.16    0.29
   0   2   7    3.81    0.15
   0   2   7    3.93    0.14
   0  -2  -7    4.04    0.14
   0  -2  -7    3.91    0.10
  -1   1   6   48.83    0.78
  -1   1   6   49.46    0.73
   1  -1  -6   48.36    0.74
   1  -1  -6   49.57    0.72
  -2   0   5   47.15    0.80
  -2   0   5   47.72    0.66
   2   0  -5   46.84    0.74
   2   0  -5   48.09    0.73
  -3  -1   4   58.35    0.96
  -3  -1   4   57.96    0.97
   3   1  -4   56.80    0.88
  -4  -2   3   12.97    0.38
   4   2  -3   13.07    0.33
  -5  -3   2   22.94    0.58
  -5  -3   2   22.56    0.60
   5   3  -2   22.11    0.50
  -6  -4   1    5.65    0.30
   4   7  11    0.40    0.13
  -4  -7 -11    0.36    0.10
   3   6  10    1.98    0.21
  -3  -6 -10    2.18    0.16
   2   5   9   11.73    0.32
   2   5   9   11.73    0.38
  -2  -5  -9   11.66    0.33
   1   4   8    9.59    0.27
   1   4   8    9.83    0.31
  -1  -4  -8   10.00    0.27
   0   3   7    0.76    0.09
   0   3   7    0.64    0.08
   0  -3  -7    0.52    0.07
  -1   2   6    4.93    0.18
  -1   2   6    5.04    0.16
   1  -2  -6    5.01    0.16
   1  -2  -6    5.03    0.13
  -2   1   5   15.45    0.38
  -2   1   5   16.43    0.27
   2  -1  -5   15.46    0.33
  -3   0   4    8.29    0.26
  -3   0   4    8.41    0.28
   3   0  -4    8.65    0.24
  -4  -1   3    3.19    0.19
  -4  -1   3    2.70    0.17
   4   1  -3    2.88    0.15
  -5  -2   2    4.35    0.25
  -5  -2   2    4.53    0.24
   5   2  -2    4.68    0.21
  -6  -3   1    5.09    0.29
  -6  -3   1    4.82    0.30
   6   3  -1    5.25    0.26
   3   7  10    0.05    0.08
  -3  -7 -10    0.03    0.05
   2   6   9   24.07    0.54
  -2  -6  -9   23.33    0.54
   1   5   8   20.42    0.47
  -1  -5  -8   21.12    0.50
  -1  -5  -8   20.57    0.46
   0   4   7   13.03    0.34
   0  -4  -7   13.26    0.34
   0  -4  -7   12.84    0.32
  -1   3   6    7.15    0.25
   1  -3  -6    7.31    0.15
   1  -3  -6    7.33    0.22
   1  -3  -6    7.28    0.21
  -2   2   5    4.98    0.21
  -2   2   5    5.47    0.17
  -2   2   5    5.45    0.15
   2  -2  -5    5.40    0.18
  -3   1   4    4.81    0.22
  -3   1   4    5.14    0.20
   3  -1  -4    4.48    0.18
  -4   0   3    2.67    0.17
  -4   0   3    2.71    0.18
   4   0  -3    2.97    0.16
  -5  -1   2    6.10    0.29
  -5  -1   2    5.44    0.27
   5   1  -2    5.90    0.25
  -6  -2   1    0.51    0.14
  -6  -2   1    0.92    0.17
   6   2  -1    0.89    0.13
   3   8  10    3.33    0.27
  -3  -8 -10    3.22    0.22
   2   7   9    0.26    0.09
  -2  -7  -9    0.08    0.07
  -2  -7  -9    0.02    0.05
   1   6   8    3.30    0.20
  -1  -6  -8    3.07    0.17
  -1  -6  -8    3.45    0.21
   0   5   7    8.01    0.29
   0  -5  -7    6.85    0.24
   0  -5  -7    7.53    0.27
  -1   4   6   24.76    0.56
   1  -4  -6   25.88    0.51
   1  -4  -6   24.38    0.50
  -2   3   5    8.92    0.31
   2  -3  -5    8.77    0.26
  -3   2   4    1.59    0.11
  -3   2   4    1.29    0.14
   3  -2  -4    1.22    0.12
  -4   1   3    0.51    0.09
  -4   1   3    0.55    0.10
   4  -1  -3    0.34    0.07
  -5   0   2    1.54    0.18
  -5   0   2    1.74    0.19
   5   0  -2    1.87    0.17
  -6  -1   1    4.38    0.29
   6   1  -1    5.06    0.26
   2   8   9    1.37    0.18
  -2  -8  -9    1.08    0.17
  -2  -8  -9    1.13    0.15
   1   7   8   30.09    0.70
  -1  -7  -8   30.03    0.72
  -1  -7  -8   29.46    0.64
   0   6   7   15.54    0.46
   0  -6  -7   15.55    0.41
   0  -6  -7   16.17    0.45
  -1   5   6   20.18    0.53
   1  -5  -6   19.45    0.46
   1  -5  -6   20.58    0.48
  -2   4   5   23.73    0.59
   2  -4  -5   23.56    0.52
  -3   3   4    3.30    0.21
   3  -3  -4    3.06    0.17
  -4   2   3   10.46    0.34
  -4   2   3   10.41    0.38
   4  -2  -3   10.32    0.33
  -5   1   2   24.83    0.66
  -5   1   2   26.45    0.66
   5  -1  -2   26.60    0.61
  -6   0   1    0.15    0.10
   6   0  -1    0.09    0.07
   1   8   8    1.34    0.19
  -1  -8  -8    0.99    0.13
  -1  -8  -8    1.23    0.18
   0   7   7    2.50    0.21
   0  -7  -7    2.52    0.17
   0  -7  -7    2.27    0.19
  -1   6   6    0.03    0.07
   1  -6  -6   -0.03    0.04
   1  -6  -6   -0.04    0.05
  -2   5   5    3.31    0.23
   2  -5  -5    3.56    0.19
  -3   4   4    0.71    0.13
   3  -4  -4    0.88    0.12
  -4   3   3    9.69    0.39
   4  -3  -3    9.71    0.34
  -5   2   2    0.71    0.14
  -5   2   2    0.67    0.13
   5  -2  -2    0.69    0.13
   0   8   7    8.00    0.39
   0  -8  -7    8.02    0.32
   0  -8  -7    7.91    0.36
  -1   7   6    0.46    0.13
   1  -7  -6    0.55    0.12
   1  -7  -6    0.65    0.11
  -2   6   5    0.13    0.09
   2  -6  -5    0.05    0.06
  -3   5   4    2.82    0.27
   3  -5  -4    2.58    0.18
  -4   4   3   13.37    0.50
   4  -4  -3   13.27    0.42
  -5   3   2    4.22    0.30
   5  -3  -2    4.19    0.26
   1  -8  -6    9.08    0.35
  -2   7   5   12.08    0.49
   2  -7  -5   11.83    0.40
  -3   6   4   -0.02    0.09
   3  -6  -4    0.04    0.06
  -3   5 -11   -0.01    0.07
   2  -6  10    9.98    0.41
   1  -7   9   12.95    0.48
   0  -8   8    7.63    0.55
   0   8  -8    7.72    0.38
  -4   3 -12    1.54    0.19
   3  -4  11    0.92    0.15
  -3   4 -11    1.13    0.16
   2  -5  10    0.97    0.15
  -2   5 -10    1.11    0.15
   1  -6   9    1.82    0.20
  -1   6  -9    1.71    0.19
  -1   6  -9    1.82    0.18
   0  -7   8    0.27    0.11
   0   7  -8    0.25    0.11
  -1  -8   7    1.87    0.23
   1   8  -7    1.43    0.19
   5  -1  13    1.31    0.17
   4  -2  12    2.38    0.18
  -4   2 -12    2.65    0.21
   3  -3  11    2.12    0.17
  -3   3 -11    2.02    0.19
   2  -4  10    0.03    0.06
  -2   4 -10    0.00    0.05
   1  -5   9    0.33    0.10
  -1   5  -9    0.18    0.07
  -1   5  -9    0.41    0.09
   0  -6   8    1.01    0.16
   0   6  -8    1.31    0.15
   0   6  -8    1.39    0.14
  -1  -7   7    2.65    0.21
   1   7  -7    2.81    0.21
  -2  -8   6   23.43    0.67
   2   8  -6   24.58    0.67
   5   0  13   10.28    0.39
  -5   0 -13    9.38    0.41
   4  -1  12    0.23    0.08
  -4   1 -12    0.25    0.09
   3  -2  11   10.39    0.35
   3  -2  11   10.46    0.33
  -3   2 -11   11.00    0.37
   2  -3  10   42.02    0.81
   2  -3  10   41.40    0.74
  -2   3 -10   40.45    0.79
   1  -4   9   14.12    0.41
  -1   4  -9   15.00    0.39
  -1   4  -9   15.00    0.38
   0  -5   8    0.66    0.11
   0   5  -8    0.78    0.11
   0   5  -8    0.89    0.11
  -1  -6   7    0.02    0.06
   1   6  -7    0.13    0.07
   1   6  -7    0.08    0.05
  -2  -7   6    3.21    0.22
   2   7  -6    3.10    0.22
  -3  -8   5    0.51    0.12
   3   8  -5    0.32    0.12
   5   1  13   27.08    0.68
  -5  -1 -13   24.95    0.69
   4   0  12    1.79    0.18
   4   0  12    2.08    0.17
  -4   0 -12    1.96    0.19
   3  -1  11    1.30    0.14
   3  -1  11    1.22    0.13
  -3   1 -11    1.07    0.13
   2  -2  10   13.99    0.34
   2  -2  10   13.89    0.38
  -2   2 -10   13.69    0.38
   1  -3   9   31.87    0.64
   1  -3   9   29.27    0.61
  -1   3  -9   28.72    0.54
  -1   3  -9   28.91    0.58
   0  -4   8    0.45    0.09
   0   4  -8    0.48    0.08
   0   4  -8    0.34    0.07
  -1  -5   7    1.60    0.14
   1   5  -7    1.65    0.13
   1   5  -7    1.83    0.13
  -2  -6   6    0.27    0.08
   2   6  -6    0.20    0.06
  -3  -7   5    0.04    0.06
   3   7  -5   -0.01    0.05
  -4  -8   4    0.24    0.10
   4   8  -4    0.31    0.11
   5   2  13    6.54    0.31
  -5  -2 -13    7.01    0.34
   4   1  12   14.11    0.41
   4   1  12   13.83    0.42
  -4  -1 -12   13.97    0.44
   3   0  11   -0.02    0.04
   3   0  11    0.05    0.05
  -3   0 -11   -0.04    0.03
   2  -1  10   40.28    0.75
   2  -1  10   41.14    0.71
  -2   1 -10   41.18    0.75
   1  -2   9    1.24    0.10
   1  -2   9    1.28    0.08
  -1   2  -9    1.26    0.10
  -1   2  -9    1.28    0.08
   0   3  -8   10.48    0.28
  -1  -4   7   22.80    0.49
  -1  -4   7   23.00    0.51
   1   4  -7   23.25    0.47
  -2  -5   6   31.32    0.65
  -2  -5   6   32.54    0.66
   2   5  -6   31.29    0.61
  -3  -6   5   21.70    0.56
  -3  -6   5   21.51    0.54
   3   6  -5   22.57    0.51
  -4  -7   4   11.12    0.42
   4   7  -4   10.73    0.36
   5   3  13    5.32    0.28
  -5  -3 -13    5.69    0.29
   4   2  12    0.41    0.09
  -4  -2 -12    0.29    0.08
   3   1  11   23.54    0.53
  -3  -1 -11   22.52    0.52
  -3  -1 -11   22.85    0.52
   2   0  10   46.83    0.82
  -2   0 -10   46.07    0.78
  -2   0 -10   46.37    0.80
   1  -1   9    5.62    0.20
  -1   1  -9    5.26    0.16
  -1   1  -9    5.47    0.13
  -1   1  -9    5.56    0.19
   0  -2   8    0.39    0.06
   0  -2   8    0.49    0.06
   0   2  -8    0.40    0.06
  -1  -3   7    0.22    0.05
  -1  -3   7    0.23    0.05
   1   3  -7    0.27    0.05
  -2  -4   6   89.28    1.39
  -2  -4   6   92.24    1.38
   2   4  -6   88.46    1.34
  -3  -5   5   23.56    0.57
  -3  -5   5   25.03    0.55
   3   5  -5   25.69    0.54
  -4  -6   4    2.23    0.19
   4   6  -4    2.28    0.16
  -5  -7   3    0.15    0.08
   5   7  -3    0.10    0.08
  -5  -4 -13    2.37    0.23
   4   3  12   13.89    0.43
  -4  -3 -12   14.33    0.42
  -4  -3 -12   13.19    0.41
   3   2  11    0.90    0.12
  -3  -2 -11    1.04    0.12
  -3  -2 -11    0.93    0.12
   2   1  10   11.25    0.32
  -2  -1 -10   11.25    0.29
  -2  -1 -10   11.05    0.29
   1   0   9   45.79    0.77
   1   0   9   45.09    0.62
  -1   0  -9   46.44    0.74
  -1   0  -9   44.69    0.71
   0  -1   8   97.56    1.34
   0  -1   8   96.93    1.41
   0   1  -8   96.78    1.38
   0   1  -8   97.62    1.31
  -1  -2   7   89.20    1.29
  -1  -2   7   87.78    1.29
   1   2  -7   89.07    1.28
   1   2  -7   87.01    1.14
  -2  -3   6    0.07    0.04
  -2  -3   6    0.10    0.04
   2   3  -6    0.10    0.04
  -3  -4   5    1.28    0.10
  -3  -4   5    1.34    0.14
   3   4  -5    1.28    0.13
  -4  -5   4   -0.01    0.05
   4   5  -4   -0.04    0.05
  -5  -6   3    0.72    0.14
   5   6  -3    0.80    0.14
   5   5  13    0.04    0.08
  -5  -5 -13    0.02    0.06
   4   4  12    4.07    0.24
  -4  -4 -12    3.96    0.21
  -4  -4 -12    4.02    0.22
   3   3  11   54.86    0.99
  -3  -3 -11   53.89    0.92
   2   2  10   10.09    0.31
  -2  -2 -10   10.19    0.28
  -2  -2 -10   10.00    0.27
   1   1   9    5.98    0.21
   1   1   9    6.13    0.13
  -1  -1  -9    6.06    0.18
  -1  -1  -9    6.10    0.18
   0   0   8  266.03    3.46
   0   0   8  270.08    3.52
   0   0  -8  265.54    3.48
   0   0  -8  262.31    3.45
  -1  -1   7   25.20    0.46
  -1  -1   7   25.16    0.45
   1   1  -7   25.24    0.45
   1   1  -7   25.34    0.39
  -2  -2   6   13.59    0.34
  -2  -2   6   13.31    0.29
   2   2  -6   13.82    0.24
   2   2  -6   13.09    0.31
  -3  -3   5    4.56    0.16
  -3  -3   5    4.32    0.20
   3   3  -5    4.78    0.14
   3   3  -5    4.60    0.19
  -4  -4   4    0.86    0.13
   4   4  -4    0.76    0.11
  -5  -5   3    2.25    0.22
   5   5  -3    1.83    0.18
   5   6  13   -0.02    0.09
  -5  -6 -13    0.07    0.07
   4   5  12    3.76    0.25
  -4  -5 -12    4.15    0.23
   3   4  11    0.70    0.12
  -3  -4 -11    0.70    0.10
  -3  -4 -11    0.93    0.12
   2   3  10   16.43    0.43
  -2  -3 -10   17.12    0.36
  -2  -3 -10   17.01    0.40
   1   2   9   46.10    0.80
   1   2   9   48.43    0.70
  -1  -2  -9   46.77    0.76
  -1  -2  -9   47.46    0.72
   0   1   8   36.73    0.58
   0   1   8   36.83    0.63
   0  -1  -8   36.13    0.57
   0  -1  -8   37.36    0.59
  -1   0   7    7.76    0.20
  -1   0   7    8.66    0.23
   1   0  -7    8.24    0.19
   1   0  -7    8.40    0.20
  -2  -1   6   11.43    0.30
  -2  -1   6   12.09    0.24
   2   1  -6   11.60    0.24
   2   1  -6   11.61    0.28
  -3  -2   5    6.07    0.23
   3   2  -5    6.04    0.17
   3   2  -5    5.92    0.21
  -4  -3   4    4.23    0.22
   4   3  -4    3.97    0.16
   4   3  -4    4.16    0.20
  -5  -4   3    3.90    0.24
   5   4  -3    3.94    0.23
  -6  -5   2    6.24    0.32
   6   5  -2    5.80    0.31
   4   6  12   13.18    0.48
  -4  -6 -12   13.61    0.44
   3   5  11    0.10    0.07
  -3  -5 -11    0.07    0.05
   2   4  10    6.35    0.26
  -2  -4 -10    5.98    0.22
   1   3   9   35.99    0.61
   1   3   9   36.15    0.68
  -1  -3  -9   37.09    0.65
  -1  -3  -9   36.83    0.56
   0   2   8   78.95    1.18
   0   2   8   78.94    1.14
   0  -2  -8   77.28    1.07
   0  -2  -8   77.79    1.15
  -1   1   7   11.71    0.29
  -1   1   7   11.92    0.26
   1  -1  -7   11.93    0.24
   1  -1  -7   11.25    0.25
  -2   0   6   15.48    0.37
  -2   0   6   15.09    0.27
   2   0  -6   15.26    0.31
   2   0  -6   15.22    0.33
  -3  -1   5   71.52    1.18
   3   1  -5   72.95    1.13
   3   1  -5   73.12    1.07
  -4  -2   4    2.13    0.16
   4   2  -4    2.04    0.14
   4   2  -4    2.02    0.12
  -5  -3   3    3.44    0.22
   5   3  -3    3.69    0.19
   5   3  -3    3.82    0.22
  -6  -4   2    0.93    0.16
   6   4  -2    1.21    0.17
   4   7  12    2.83    0.24
  -4  -7 -12    2.73    0.21
   3   6  11   22.07    0.61
  -3  -6 -11   21.58    0.54
   2   5  10   -0.02    0.04
   2   5  10    0.01    0.05
  -2  -5 -10    0.06    0.04
   1   4   9    0.90    0.10
   1   4   9    0.77    0.10
  -1  -4  -9    0.88    0.10
   0   3   8   67.56    1.05
   0   3   8   64.13    1.03
   0  -3  -8   66.18    0.89
   0  -3  -8   65.60    1.02
  -1   2   7    0.03    0.03
  -1   2   7    0.02    0.03
   1  -2  -7    0.06    0.02
   1  -2  -7    0.08    0.03
  -2   1   6    1.67    0.12
  -2   1   6    1.69    0.07
   2  -1  -6    1.75    0.10
   2  -1  -6    1.87    0.10
  -3   0   5    0.01    0.04
   3   0  -5    0.08    0.03
  -4  -1   4   20.45    0.51
  -4  -1   4   20.04    0.51
   4   1  -4   20.45    0.44
  -5  -2   3    1.07    0.15
  -5  -2   3    1.21    0.17
   5   2  -3    1.05    0.13
  -6  -3   2   23.82    0.65
   3   7  11    4.14    0.27
  -3  -7 -11    4.24    0.23
   2   6  10   16.14    0.43
   2   6  10   16.50    0.50
  -2  -6 -10   16.54    0.44
   1   5   9    0.17    0.06
  -1  -5  -9    0.07    0.04
   0   4   8    3.34    0.17
   0  -4  -8    3.23    0.15
  -1   3   7   11.58    0.30
  -1   3   7   11.94    0.33
   1  -3  -7   10.90    0.29
  -2   2   6   14.33    0.29
  -2   2   6   13.42    0.37
   2  -2  -6   13.91    0.33
   2  -2  -6   14.87    0.30
  -3   1   5  140.35    2.01
  -3   1   5  137.22    2.07
   3  -1  -5  141.54    1.98
  -4   0   4    0.30    0.08
  -4   0   4    0.53    0.10
   4   0  -4    0.36    0.07
  -5  -1   3    3.34    0.22
  -5  -1   3    3.01    0.21
   5   1  -3    3.00    0.18
  -6  -2   2    1.64    0.21
  -6  -2   2    1.24    0.19
   6   2  -2    1.38    0.16
   3   8  11    9.94    0.45
  -3  -8 -11   10.50    0.39
   2   7  10    0.75    0.13
  -2  -7 -10    1.01    0.14
   1   6   9    0.32    0.08
  -1  -6  -9    0.18    0.07
  -1  -6  -9    0.30    0.08
   0   5   8   76.92    1.27
   0  -5  -8   75.33    1.22
   0  -5  -8   78.12    1.26
  -1   4   7    0.87    0.12
   1  -4  -7    1.11    0.11
   1  -4  -7    1.08    0.11
  -2   3   6    6.81    0.27
   2  -3  -6    6.81    0.23
  -3   2   5   23.22    0.49
  -3   2   5   22.64    0.56
   3  -2  -5   23.60    0.50
  -4   1   4   33.05    0.75
  -4   1   4   34.98    0.71
   4  -1  -4   35.00    0.68
  -5   0   3    2.58    0.23
  -5   0   3    2.56    0.20
   5   0  -3    2.60    0.17
  -6  -1   2    0.19    0.10
  -6  -1   2    0.14    0.10
   6   1  -2    0.17    0.08
   2   8  10   12.41    0.44
  -2  -8 -10   13.34    0.43
   1   7   9    5.80    0.29
  -1  -7  -9    5.80    0.26
  -1  -7  -9    6.37    0.30
   0   6   8   -0.03    0.06
   0  -6  -8    0.03    0.04
   0  -6  -8    0.02    0.05
  -1   5   7   36.76    0.78
   1  -5  -7   36.83    0.71
   1  -5  -7   36.71    0.72
  -2   4   6    1.99    0.17
   2  -4  -6    1.74    0.13
  -3   3   5   39.79    0.84
   3  -3  -5   40.36    0.76
  -4   2   4    4.10    0.25
  -4   2   4    4.32    0.22
   4  -2  -4    4.34    0.21
  -5   1   3    1.32    0.18
  -5   1   3    1.29    0.17
   5  -1  -3    1.47    0.17
  -6   0   2    4.51    0.29
  -6   0   2    4.22    0.29
   6   0  -2    4.13    0.25
   1   8   9    0.64    0.14
  -1  -8  -9    0.57    0.14
  -1  -8  -9    0.47    0.10
   0   7   8    0.70    0.13
   0  -7  -8    0.55    0.12
   0  -7  -8    0.44    0.09
  -1   6   7    1.38    0.18
   1  -6  -7    1.37    0.14
   1  -6  -7    1.35    0.15
  -2   5   6    9.51    0.38
   2  -5  -6   10.17    0.33
  -3   4   5    0.28    0.10
   3  -4  -5    0.32    0.08
  -4   3   4    0.49    0.12
   4  -3  -4    0.40    0.09
  -5   2   3    0.07    0.09
   5  -2  -3    0.29    0.09
   0   8   8    0.33    0.13
   0  -8  -8    0.44    0.10
   0  -8  -8    0.15    0.10
  -1   7   7    7.74    0.38
   1  -7  -7    8.81    0.33
  -2   6   6    5.38    0.31
   2  -6  -6    4.92    0.24
  -3   5   5   10.43    0.44
   3  -5  -5   10.15    0.36
  -4   4   4    3.24    0.26
   4  -4  -4    3.16    0.21
  -5   3   3    9.85    0.44
  -2   7   6    0.03    0.10
   2  -7  -6    0.01    0.06
  -3   6   5    5.85    0.36
   3  -6  -5    6.21    0.30
   2  -6  11    1.42    0.20
   1  -7  10    0.47    0.13
  -4   3 -13    0.33    0.11
   3  -4  12    0.16    0.08
  -3   4 -12    0.06    0.07
   2  -5  11    3.02    0.23
  -2   5 -11    3.17    0.21
   1  -6  10    6.85    0.33
  -1   6 -10    6.62    0.29
   0  -7   9    1.70    0.21
   0   7  -9    1.82    0.21
  -1  -8   8    1.21    0.19
   1   8  -8    1.16    0.19
   4  -2  13    5.50    0.27
  -4   2 -13    5.77    0.31
   3  -3  12   12.26    0.41
  -3   3 -12   11.40    0.40
   2  -4  11    0.97    0.14
  -2   4 -11    0.75    0.13
   1  -5  10   30.98    0.72
  -1   5 -10   31.13    0.66
   0  -6   9   37.61    0.84
   0   6  -9   39.57    0.81
   0   6  -9   37.42    0.75
  -1  -7   8   18.28    0.55
   1   7  -8   18.11    0.53
  -2  -8   7    1.79    0.21
   2   8  -7    1.97    0.22
   5   0  14    0.01    0.07
  -5   0 -14    0.02    0.08
   4  -1  13    1.34    0.15
  -4   1 -13    1.10    0.16
   3  -2  12    5.47    0.26
   3  -2  12    5.68    0.24
  -3   2 -12    5.51    0.26
   2  -3  11    5.65    0.26
  -2   3 -11    5.04    0.24
   1  -4  10    5.35    0.25
  -1   4 -10    5.10    0.21
  -1   4 -10    5.07    0.22
   0  -5   9    1.51    0.16
   0   5  -9    2.03    0.14
   0   5  -9    1.85    0.15
  -1  -6   8   24.95    0.63
   1   6  -8   25.60    0.56
   1   6  -8   25.17    0.60
  -2  -7   7    6.08    0.30
   2   7  -7    5.80    0.29
   2   7  -7    5.70    0.32
  -3  -8   6    0.23    0.10
   3   8  -6    0.14    0.10
   5   1  14    9.90    0.40
  -5  -1 -14    9.55    0.41
   4   0  13    0.14    0.07
   4   0  13    0.21    0.08
  -4   0 -13    0.11    0.06
   3  -1  12    8.82    0.32
   3  -1  12    9.34    0.31
  -3   1 -12    9.08    0.33
   2  -2  11   65.67    1.03
   2  -2  11   63.58    1.11
  -2   2 -11   64.78    1.10
   1  -3  10    3.31    0.18
  -1   3 -10    3.50    0.15
  -1   3 -10    3.17    0.17
   0  -4   9   54.90    0.99
   0   4  -9   56.51    0.93
   0   4  -9   55.90    0.94
  -1  -5   8   12.36    0.38
   1   5  -8   12.30    0.36
   1   5  -8   13.03    0.35
  -2  -6   7    2.75    0.19
   2   6  -7    3.02    0.17
  -3  -7   6   17.17    0.51
   3   7  -6   16.78    0.45
   4   8  -5    1.08    0.18
   5   2  14    0.06    0.07
  -5  -2 -14    0.16    0.08
   4   1  13    1.05    0.14
   4   1  13    0.90    0.14
  -4  -1 -13    1.13    0.15
   3   0  12   58.98    1.01
   3   0  12   59.75    1.05
  -3   0 -12   57.34    1.04
   2  -1  11    6.31    0.25
   2  -1  11    6.73    0.22
  -2   1 -11    6.87    0.25
   1  -2  10    5.45    0.17
   1  -2  10    5.35    0.22
  -1   2 -10    5.00    0.20
  -1   2 -10    5.38    0.16
   0  -3   9    1.11    0.11
   0   3  -9    1.26    0.10
  -1  -4   8   21.13    0.49
  -1  -4   8   21.94    0.48
   1   4  -8   21.92    0.47
  -2  -5   7    0.67    0.10
  -2  -5   7    0.66    0.10
   2   5  -7    0.63    0.09
  -3  -6   6    0.70    0.12
  -3  -6   6    0.61    0.11
   3   6  -6    0.67    0.11
  -4  -7   5   34.62    0.82
   4   7  -5   34.77    0.74
   5   3  14    0.02    0.06
  -5  -3 -14    0.01    0.07
   4   2  13    6.89    0.30
  -4  -2 -13    7.19    0.30
   3   1  12    2.30    0.16
  -3  -1 -12    2.04    0.15
  -3  -1 -12    2.63    0.16
   2   0  11   68.74    1.12
  -2   0 -11   68.08    1.10
  -2   0 -11   68.07    1.07
   1  -1  10   47.93    0.82
  -1   1 -10   47.21    0.68
  -1   1 -10   47.10    0.74
  -1   1 -10   46.97    0.79
   0  -2   9    0.99    0.07
   0  -2   9    0.89    0.10
   0   2  -9    0.97    0.10
   0   2  -9    0.89    0.05
  -1  -3   8   94.32    1.41
  -1  -3   8   93.76    1.39
   1   3  -8   90.83    1.37
  -2  -4   7    0.56    0.09
  -2  -4   7    0.60    0.10
   2   4  -7    0.50    0.08
  -3  -5   6    0.86    0.13
  -3  -5   6    0.77    0.11
   3   5  -6    0.93    0.11
  -4  -6   5    0.41    0.10
   4   6  -5    0.44    0.10
  -5  -7   4    2.75    0.23
   5   7  -4    2.73    0.21
  -5  -4 -14   14.77    0.49
   4   3  13    0.34    0.09
  -4  -3 -13    0.42    0.10
  -4  -3 -13    0.39    0.09
   3   2  12    0.44    0.09
  -3  -2 -12    0.45    0.08
  -3  -2 -12    0.39    0.08
   2   1  11    3.30    0.17
  -2  -1 -11    3.52    0.16
  -2  -1 -11    3.88    0.16
   1   0  10    6.38    0.22
   1   0  10    6.29    0.13
  -1   0 -10    6.17    0.20
  -1   0 -10    6.37    0.19
   0  -1   9    1.23    0.07
   0  -1   9    1.22    0.09
   0   1  -9    1.27    0.06
   0   1  -9    1.21    0.08
  -1  -2   8   39.64    0.68
  -1  -2   8   40.49    0.68
   1   2  -8   40.19    0.55
   1   2  -8   40.15    0.68
  -2  -3   7   13.41    0.33
  -2  -3   7   13.53    0.36
   2   3  -7   13.56    0.33
  -3  -4   6    2.08    0.13
  -3  -4   6    1.81    0.15
   3   4  -6    1.96    0.13
  -4  -5   5   21.20    0.56
   4   5  -5   21.05    0.51
  -5  -6   4    3.10    0.23
   5   6  -4    2.58    0.19
   5   5  14   13.50    0.49
  -5  -5 -14   11.56    0.45
   4   4  13    5.11    0.27
  -4  -4 -13    5.63    0.26
  -4  -4 -13    5.05    0.26
   3   3  12   32.15    0.70
  -3  -3 -12   31.01    0.66
  -3  -3 -12   33.06    0.64
   2   2  11    2.34    0.15
  -2  -2 -11    2.35    0.13
  -2  -2 -11    2.21    0.12
   1   1  10    6.75    0.14
   1   1  10    6.82    0.23
  -1  -1 -10    6.65    0.20
  -1  -1 -10    6.26    0.19
   0   0   9   32.06    0.58
   0   0   9   32.10    0.52
   0   0  -9   31.80    0.51
   0   0  -9   32.26    0.54
  -1  -1   8    3.47    0.14
  -1  -1   8    3.69    0.15
   1   1  -8    3.86    0.11
   1   1  -8    3.68    0.14
  -2  -2   7    0.63    0.07
  -2  -2   7    0.61    0.08
   2   2  -7    0.61    0.08
   2   2  -7    0.68    0.05
  -3  -3   6    1.69    0.13
  -3  -3   6    1.87    0.11
   3   3  -6    1.68    0.12
  -4  -4   5    1.65    0.17
   4   4  -5    2.09    0.15
  -5  -5   4    2.12    0.21
   5   5  -4    2.60    0.19
   4   5  13    1.81    0.20
  -4  -5 -13    2.00    0.20
   3   4  12   48.38    0.94
  -3  -4 -12   45.91    0.88
   2   3  11   39.58    0.78
  -2  -3 -11   41.29    0.69
  -2  -3 -11   40.31    0.73
   1   2  10   29.51    0.59
   1   2  10   30.86    0.49
  -1  -2 -10   29.48    0.51
  -1  -2 -10   30.64    0.55
   0   1   9  114.93    1.58
   0   1   9  115.33    1.64
   0  -1  -9  114.85    1.57
   0  -1  -9  112.85    1.58
  -1   0   8   52.58    0.81
  -1   0   8   54.19    0.85
   1   0  -8   52.51    0.78
   1   0  -8   53.58    0.81
  -2  -1   7   10.96    0.30
  -2  -1   7   11.58    0.24
   2   1  -7   11.25    0.24
   2   1  -7   11.55    0.28
  -3  -2   6    3.22    0.18
   3   2  -6    3.42    0.16
   3   2  -6    3.47    0.13
  -4  -3   5   25.81    0.61
   4   3  -5   26.97    0.59
  -5  -4   4    0.79    0.14
   5   4  -4    0.67    0.12
  -6  -5   3    0.41    0.12
   6   5  -3    0.50    0.12
   4   6  13    0.17    0.10
  -4  -6 -13    0.02    0.06
   3   5  12    0.89    0.14
  -3  -5 -12    1.10    0.13
   2   4  11   55.60    1.00
  -2  -4 -11   52.96    0.93
   1   3  10    8.97    0.24
   1   3  10    8.90    0.29
  -1  -3 -10    8.95    0.26
  -1  -3 -10    8.91    0.20
   0   2   9   28.22    0.51
   0   2   9   27.83    0.54
   0  -2  -9   28.43    0.51
   0  -2  -9   28.65    0.45
  -1   1   8    0.35    0.05
  -1   1   8    0.23    0.05
   1  -1  -8    0.29    0.04
   1  -1  -8    0.49    0.06
  -2   0   7    9.04    0.20
  -2   0   7    8.71    0.27
   2   0  -7    8.42    0.22
   2   0  -7    9.02    0.24
  -3  -1   6    0.32    0.07
   3   1  -6    0.30    0.05
   3   1  -6    0.19    0.05
  -4  -2   5    4.10    0.22
   4   2  -5    4.48    0.21
   4   2  -5    4.06    0.17
  -5  -3   4    2.20    0.18
   5   3  -4    2.14    0.20
  -6  -4   3    5.64    0.32
   6   4  -3    5.11    0.29
   4   7  13    9.22    0.43
  -4  -7 -13    9.19    0.38
   3   6  12    2.61    0.22
  -3  -6 -12    2.65    0.18
   2   5  11    1.82    0.18
  -2  -5 -11    1.64    0.16
   1   4  10  101.32    1.50
   1   4  10  100.52    1.59
  -1  -4 -10  103.50    1.53
   0   3   9   11.74    0.32
   0   3   9   11.50    0.30
   0  -3  -9   11.35    0.30
  -1   2   8   26.78    0.53
  -1   2   8   27.41    0.50
   1  -2  -8   26.11    0.49
   1  -2  -8   27.21    0.44
  -2   1   7    3.81    0.12
  -2   1   7    3.69    0.18
   2  -1  -7    3.96    0.15
   2  -1  -7    4.14    0.15
  -3   0   6    2.04    0.15
   3   0  -6    2.19    0.12
   3   0  -6    1.95    0.12
  -4  -1   5   47.90    0.93
   4   1  -5   49.08    0.83
  -5  -2   4   11.51    0.40
   5   2  -4   11.17    0.33
  -6  -3   3    0.02    0.07
   6   3  -3   -0.02    0.06
   3   7  12    3.85    0.28
  -3  -7 -12    3.39    0.22
   2   6  11   28.49    0.70
  -2  -6 -11   28.06    0.63
   1   5  10    4.18    0.22
   1   5  10    4.43    0.20
  -1  -5 -10    4.56    0.20
   0   4   9    3.92    0.19
   0   4   9    3.69    0.19
   0  -4  -9    3.57    0.17
  -1   3   8   11.37    0.33
  -1   3   8   10.93    0.30
  -2   2   7   26.30    0.58
   2  -2  -7   27.54    0.48
   2  -2  -7   26.33    0.52
  -3   1   6    2.51    0.17
   3  -1  -6    2.78    0.14
  -4   0   5    0.24    0.07
  -4   0   5    0.22    0.08
   4   0  -5    0.33    0.07
  -5  -1   4   17.44    0.52
  -5  -1   4   18.02    0.53
   5   1  -4   18.72    0.46
  -6  -2   3   -0.05    0.08
   6   2  -3    0.01    0.06
   3   8  12    0.48    0.13
  -3  -8 -12    0.48    0.12
   2   7  11   -0.12    0.06
  -2  -7 -11    0.03    0.05
   1   6  10   43.34    0.83
   1   6  10   40.89    0.87
  -1  -6 -10   40.93    0.80
   0   5   9   52.78    0.96
   0  -5  -9   52.55    0.92
  -1   4   8   13.22    0.36
  -1   4   8   13.39    0.40
   1  -4  -8   13.36    0.35
  -2   3   7   66.55    1.16
   2  -3  -7   67.52    1.08
  -3   2   6   20.29    0.53
   3  -2  -6   20.60    0.47
  -4   1   5   12.13    0.37
  -4   1   5   12.60    0.42
   4  -1  -5   12.31    0.36
  -5   0   4    4.04    0.24
  -5   0   4    3.78    0.24
   5   0  -4    3.87    0.21
  -6  -1   3   10.77    0.43
  -6  -1   3   10.06    0.43
   6   1  -3   10.66    0.37
   2   8  11    0.52    0.14
  -2  -8 -11    0.74    0.13
   1   7  10    3.37    0.23
  -1  -7 -10    3.90    0.21
   0   6   9    0.31    0.10
   0  -6  -9    0.32    0.09
   0  -6  -9    0.37    0.09
  -1   5   8    1.31    0.17
   1  -5  -8    1.08    0.13
   1  -5  -8    0.91    0.11
  -2   4   7    2.09    0.17
   2  -4  -7    1.93    0.14
  -3   3   6    0.25    0.09
   3  -3  -6    0.51    0.09
  -4   2   5    0.14    0.07
  -4   2   5    0.09    0.08
   4  -2  -5    0.06    0.05
  -5   1   4   13.19    0.44
  -5   1   4   12.70    0.46
   5  -1  -4   13.49    0.42
   1   8  10   -0.08    0.08
  -1  -8 -10    0.03    0.06
   0   7   9    4.60    0.28
   0  -7  -9    4.17    0.22
   0  -7  -9    4.37    0.26
  -1   6   8    3.24    0.23
   1  -6  -8    3.01    0.18
   1  -6  -8    3.01    0.20
  -2   5   7   12.33    0.44
   2  -5  -7   12.45    0.38
  -3   4   6    1.88    0.20
   3  -4  -6    1.88    0.15
  -4   3   5    0.73    0.15
   4  -3  -5    0.62    0.11
  -5   2   4   11.91    0.47
   5  -2  -4   12.02    0.41
   0   8   9    4.16    0.30
   0  -8  -9    4.14    0.24
   0  -8  -9    4.21    0.27
  -1   7   8    0.10    0.10
   1  -7  -8    0.04    0.06
  -2   6   7   11.53    0.46
   2  -6  -7   11.06    0.38
  -3   5   6   10.51    0.44
   3  -5  -6    9.14    0.35
  -4   4   5    0.35    0.12
   4  -4  -5    0.62    0.12
   2  -7  -7    0.12    0.08
  -3   6   6    0.51    0.19
   3  -6  -6    0.38    0.11
   3  -4  13    0.19    0.09
  -3   4 -13    0.16    0.09
   2  -5  12   12.87    0.45
  -2   5 -12   12.20    0.42
   1  -6  11    0.07    0.08
  -1   6 -11    0.00    0.07
   0  -7  10    0.52    0.13
   0   7 -10    0.57    0.14
  -1  -8   9   11.61    0.52
   1   8  -9   11.63    0.46
  -4   2 -14   13.87    0.49
   3  -3  13    2.26    0.19
  -3   3 -13    2.44    0.20
   2  -4  12    8.58    0.35
  -2   4 -12    8.06    0.33
   1  -5  11   23.87    0.63
  -1   5 -11   25.37    0.59
   0  -6  10    0.01    0.06
   0   6 -10    0.10    0.07
   0   6 -10   -0.05    0.05
  -1  -7   9    6.71    0.34
   1   7  -9    7.23    0.34
  -2  -8   8   14.12    0.52
   2   8  -8   14.92    0.51
   4  -1  14   35.38    0.89
   4  -1  14   35.30    0.76
  -4   1 -14   34.51    0.82
   3  -2  13    0.25    0.08
   3  -2  13    0.29    0.08
  -3   2 -13    0.19    0.07
   2  -3  12    0.80    0.12
  -2   3 -12    1.06    0.14
   1  -4  11   19.39    0.52
  -1   4 -11   19.45    0.49
   0  -5  10   38.40    0.81
   0   5 -10   38.41    0.76
   0   5 -10   40.32    0.76
  -1  -6   9   47.87    0.97
   1   6  -9   48.21    0.93
   1   6  -9   48.41    0.89
  -2  -7   8    0.30    0.11
   2   7  -8    0.30    0.09
   2   7  -8    0.28    0.10
  -3  -8   7    0.45    0.13
   3   8  -7    0.16    0.10
   5   1  15    0.13    0.08
  -5  -1 -15    0.01    0.07
   4   0  14   -0.04    0.06
   4   0  14   -0.04    0.05
  -4   0 -14    0.02    0.06
   3  -1  13    4.64    0.24
   3  -1  13    4.49    0.21
  -3   1 -13    4.45    0.23
   2  -2  12   14.34    0.42
   2  -2  12   14.39    0.35
  -2   2 -12   13.64    0.40
   1  -3  11   91.16    1.47
  -1   3 -11   90.88    1.43
   0  -4  10   33.68    0.72
   0   4 -10   34.07    0.65
   0   4 -10   34.98    0.67
  -1  -5   9    0.98    0.13
   1   5  -9    0.96    0.11
  -2  -6   8   13.36    0.42
  -2  -6   8   13.42    0.43
   2   6  -8   12.70    0.37
  -3  -7   7    2.78    0.21
   3   7  -7    2.89    0.19
   5   2  15    0.18    0.09
  -5  -2 -15    0.41    0.12
   4   1  14    7.09    0.30
   4   1  14    7.08    0.31
  -4  -1 -14    6.69    0.31
   3   0  13   -0.04    0.05
   3   0  13    0.02    0.05
  -3   0 -13    0.01    0.05
   2  -1  12   12.49    0.32
   2  -1  12   12.28    0.37
  -2   1 -12   11.69    0.35
   1  -2  11  157.77    2.28
   1  -2  11  160.28    2.14
  -1   2 -11  153.72    2.24
   0  -3  10   10.54    0.28
   0  -3  10   10.44    0.32
   0   3 -10   10.33    0.30
  -1  -4   9    0.77    0.11
  -1  -4   9    0.83    0.11
   1   4  -9    0.76    0.10
  -2  -5   8    9.41    0.32
  -2  -5   8    8.86    0.32
   2   5  -8    9.56    0.30
  -3  -6   7   14.86    0.45
  -3  -6   7   14.54    0.46
   3   6  -7   14.53    0.41
  -4  -7   6    6.54    0.33
   4   7  -6    7.17    0.30
   5   3  15    1.71    0.20
  -5  -3 -15    1.60    0.20
   4   2  14   14.02    0.44
  -4  -2 -14   13.76    0.44
   3   1  13    5.71    0.26
  -3  -1 -13    6.02    0.25
  -3  -1 -13    5.63    0.24
   2   0  12    6.47    0.25
  -2   0 -12    6.42    0.24
  -2   0 -12    6.37    0.22
   1  -1  11    0.32    0.07
  -1   1 -11    0.33    0.05
  -1   1 -11    0.39    0.07
   0  -2  10   29.86    0.52
   0  -2  10   29.62    0.59
   0   2 -10   28.76    0.56
   0   2 -10   29.71    0.46
  -1  -3   9    2.66    0.14
  -1  -3   9    2.31    0.14
   1   3  -9    2.43    0.13
  -2  -4   8   12.70    0.36
  -2  -4   8   13.35    0.36
   2   4  -8   12.68    0.34
  -3  -5   7   -0.02    0.05
  -3  -5   7    0.05    0.06
   3   5  -7    0.09    0.06
  -4  -6   6    0.05    0.07
   4   6  -6   -0.04    0.04
  -5  -7   5    1.83    0.22
   5   7  -5    1.64    0.19
   5   4  15    1.28    0.28
   4   3  14    3.33    0.22
  -4  -3 -14    3.85    0.23
  -4  -3 -14    3.46    0.21
   3   2  13   20.89    0.53
  -3  -2 -13   20.93    0.51
  -3  -2 -13   21.30    0.50
   2   1  12   40.46    0.77
  -2  -1 -12   41.16    0.73
  -2  -1 -12   40.50    0.73
   1   0  11   28.18    0.57
  -1   0 -11   28.13    0.51
  -1   0 -11   28.11    0.54
   0  -1  10   32.16    0.54
   0  -1  10   32.76    0.61
   0   1 -10   32.62    0.51
   0   1 -10   32.73    0.59
  -1  -2   9    7.06    0.22
  -1  -2   9    7.30    0.23
   1   2  -9    7.38    0.15
   1   2  -9    7.07    0.22
  -2  -3   8   13.49    0.33
  -2  -3   8   13.01    0.36
   2   3  -8   13.45    0.34
  -3  -4   7   13.36    0.40
  -3  -4   7   13.31    0.35
   3   4  -7   12.97    0.36
  -4  -5   6    1.06    0.15
   4   5  -6    1.22    0.15
  -5  -6   5    0.20    0.10
   5   6  -5    0.18    0.09
   5   5  15    0.14    0.11
   4   4  14    9.09    0.37
  -4  -4 -14    8.98    0.35
   3   3  13    4.09    0.23
  -3  -3 -13    4.96    0.23
  -3  -3 -13    4.63    0.21
   2   2  12    5.52    0.24
  -2  -2 -12    5.68    0.21
  -2  -2 -12    5.60    0.21
   1   1  11  127.08    1.68
   1   1  11  117.81    1.77
  -1  -1 -11  117.83    1.70
  -1  -1 -11  119.94    1.70
  -1  -1   9   50.70    0.83
  -1  -1   9   51.65    0.83
   1   1  -9   53.60    0.76
   1   1  -9   52.76    0.83
  -2  -2   8    1.64    0.12
  -2  -2   8    1.32    0.09
   2   2  -8    1.34    0.10
   2   2  -8    1.22    0.06
  -3  -3   7   17.39    0.46
   3   3  -7   17.53    0.42
  -4  -4   6    5.77    0.27
   4   4  -6    5.69    0.25
  -5  -5   5    0.50    0.11
   5   5  -5    0.34    0.10
   4   5  14    0.82    0.15
  -4  -5 -14    0.75    0.13
   3   4  13   42.33    0.88
  -3  -4 -13   42.16    0.83
   2   3  12    6.83    0.28
  -2  -3 -12    7.15    0.22
  -2  -3 -12    7.01    0.25
   1   2  11   13.14    0.36
   1   2  11   13.67    0.27
  -1  -2 -11   13.20    0.32
  -1  -2 -11   13.43    0.29
   0   1  10   47.23    0.80
   0   1  10   47.63    0.74
   0  -1 -10   46.91    0.75
   0  -1 -10   46.91    0.73
  -1   0   9   26.49    0.49
  -1   0   9   26.92    0.51
   1   0  -9   26.75    0.46
   1   0  -9   26.89    0.48
  -2  -1   8   27.06    0.47
  -2  -1   8   27.34    0.56
   2   1  -8   27.56    0.46
   2   1  -8   26.97    0.51
  -3  -2   7    2.64    0.17
   3   2  -7    2.85    0.15
   3   2  -7    2.73    0.11
  -4  -3   6   30.35    0.69
   4   3  -6   30.33    0.65
  -5  -4   5    1.75    0.20
   5   4  -5    1.41    0.17
   4   6  14    0.28    0.11
  -4  -6 -14    0.07    0.07
   3   5  13   18.65    0.54
  -3  -5 -13   16.70    0.48
   2   4  12    0.57    0.11
  -2  -4 -12    0.79    0.11
   1   3  11    2.69    0.16
   1   3  11    2.75    0.13
  -1  -3 -11    2.75    0.14
  -1  -3 -11    2.70    0.11
   0   2  10    0.10    0.05
   0   2  10    0.17    0.05
   0  -2 -10    0.09    0.03
   0  -2 -10    0.22    0.04
  -1   1   9   54.43    0.86
  -1   1   9   54.57    0.90
   1  -1  -9   55.30    0.85
   1  -1  -9   55.96    0.83
  -2   0   8    7.77    0.19
   2   0  -8    7.85    0.22
   2   0  -8    7.41    0.21
  -3  -1   7    7.46    0.28
   3   1  -7    7.07    0.24
   3   1  -7    7.06    0.21
  -4  -2   6    5.76    0.27
   4   2  -6    5.95    0.25
   4   2  -6    5.68    0.20
  -5  -3   5    0.73    0.13
   5   3  -5    1.09    0.15
  -6  -4   4   13.80    0.50
   6   4  -4   12.12    0.45
   4   7  14    0.13    0.10
  -4  -7 -14    0.05    0.07
   3   6  13    1.67    0.20
  -3  -6 -13    1.30    0.16
   2   5  12    2.07    0.17
  -2  -5 -12    1.90    0.15
   1   4  11    1.30    0.14
   1   4  11    1.29    0.11
  -1  -4 -11    1.24    0.12
   0   3  10    9.84    0.30
   0   3  10    9.22    0.27
   0  -3 -10    9.24    0.27
  -1   2   9    0.37    0.06
  -1   2   9    0.29    0.06
   1  -2  -9    0.40    0.05
   1  -2  -9    0.41    0.06
  -2   1   8    5.63    0.22
  -2   1   8    5.54    0.16
   2  -1  -8    5.73    0.18
   2  -1  -8    5.58    0.19
  -3   0   7   14.36    0.41
   3   0  -7   14.72    0.34
   3   0  -7   14.84    0.36
  -4  -1   6   36.73    0.79
   4   1  -6   37.73    0.74
   4   1  -6   38.47    0.69
  -5  -2   5    8.62    0.36
   5   2  -5    8.72    0.29
   5   2  -5    8.21    0.32
  -6  -3   4    1.28    0.19
   6   3  -4    1.29    0.18
   3   7  13    1.46    0.21
  -3  -7 -13    1.27    0.17
   2   6  12    8.00    0.35
  -2  -6 -12    7.51    0.30
   1   5  11    1.89    0.16
   1   5  11    1.71    0.14
  -1  -5 -11    1.75    0.13
   0   4  10   31.77    0.63
   0   4  10   31.22    0.64
   0  -4 -10   28.52    0.60
  -1   3   9   79.96    1.23
  -1   3   9   79.95    1.28
   1  -3  -9   78.77    1.22
  -2   2   8    0.75    0.11
   2  -2  -8    0.65    0.07
   2  -2  -8    0.59    0.08
  -3   1   7    2.69    0.18
   3  -1  -7    2.72    0.14
   3  -1  -7    2.62    0.14
  -4   0   6   35.79    0.78
   4   0  -6   36.49    0.69
   4   0  -6   35.25    0.70
  -5  -1   5    0.44    0.12
   5   1  -5    0.39    0.08
   5   1  -5    0.35    0.09
  -6  -2   4    0.36    0.12
   6   2  -4    0.50    0.12
   6   2  -4    0.56    0.11
   2   7  12    0.55    0.14
  -2  -7 -12    0.62    0.12
   1   6  11    0.60    0.12
   1   6  11    1.05    0.14
  -1  -6 -11    0.86    0.12
   0   5  10   10.80    0.36
   0   5  10   10.40    0.36
   0  -5 -10    9.99    0.32
  -1   4   9   -0.01    0.05
  -1   4   9    0.09    0.06
   1  -4  -9    0.02    0.04
  -2   3   8    1.83    0.18
   2  -3  -8    1.58    0.12
  -3   2   7    8.88    0.34
   3  -2  -7    8.92    0.26
   3  -2  -7    9.08    0.29
  -4   1   6    3.76    0.24
   4  -1  -6    4.30    0.20
  -5   0   5    1.85    0.21
   5   0  -5    1.53    0.16
  -6  -1   4    0.42    0.13
   6   1  -4    0.46    0.11
   2   8  12    4.40    0.30
  -2  -8 -12    4.09    0.25
   1   7  11    1.92    0.20
   1   7  11    1.36    0.18
  -1  -7 -11    2.16    0.17
   0   6  10   16.16    0.48
   0   6  10   16.31    0.49
   0  -6 -10   16.41    0.45
  -1   5   9    7.96    0.30
  -1   5   9    7.67    0.32
   1  -5  -9    7.49    0.28
  -2   4   8    8.99    0.35
   2  -4  -8    9.27    0.31
  -3   3   7   10.84    0.40
   3  -3  -7   11.08    0.34
  -4   2   6    4.01    0.25
   4  -2  -6    4.07    0.21
  -5   1   5    0.24    0.10
  -5   1   5    0.23    0.10
   5  -1  -5    0.27    0.08
   1   8  11    1.28    0.18
   1   8  11    1.19    0.19
  -1  -8 -11    1.35    0.17
   0   7  10    6.26    0.32
   0  -7 -10    6.47    0.28
  -1   6   9   13.83    0.47
   1  -6  -9   13.73    0.41
  -2   5   8    0.20    0.09
   2  -5  -8    0.04    0.05
  -3   4   7    0.27    0.10
   3  -4  -7    0.31    0.08
  -4   3   6   22.31    0.65
   4  -3  -6   21.71    0.56
  -5   2   5    1.76    0.22
   5  -2  -5    1.46    0.17
   0   8  10    0.13    0.12
   0  -8 -10    0.07    0.07
  -1   7   9   17.02    0.58
   1  -7  -9   17.75    0.51
  -2   6   8   14.38    0.52
   2  -6  -8   14.32    0.44
  -3   5   7    3.55    0.27
   3  -5  -7    3.55    0.22
  -4   4   6    0.90    0.17
   4  -4  -6    1.04    0.14
   3  -4  14   15.70    0.52
  -3   4 -14   14.31    0.50
   2  -5  13    3.97    0.27
  -2   5 -13    4.11    0.25
   1  -6  12    0.13    0.09
  -1   6 -12    0.12    0.08
   0  -7  11   21.68    0.65
   0   7 -11   22.73    0.66
  -4   2 -15    1.33    0.19
   3  -3  14    5.51    0.30
  -3   3 -14    6.32    0.31
   2  -4  13    1.84    0.21
  -2   4 -13    1.82    0.19
   1  -5  12    0.30    0.11
  -1   5 -12    0.40    0.10
   0  -6  11    0.03    0.07
   0   6 -11    0.12    0.07
   0   6 -11    0.11    0.07
  -1  -7  10   11.25    0.44
   1   7 -10   11.22    0.42
   1   7 -10   10.97    0.39
  -2  -8   9    0.76    0.16
   2   8  -9    0.40    0.13
   4  -1  15    1.86    0.19
   4  -1  15    1.82    0.20
  -4   1 -15    1.78    0.20
   3  -2  14    0.62    0.12
  -3   2 -14    0.81    0.13
   2  -3  13    5.87    0.28
  -2   3 -13    5.72    0.27
   1  -4  12    2.23    0.18
  -1   4 -12    1.97    0.18
   0  -5  11   44.11    0.91
   0   5 -11   45.47    0.85
   0   5 -11   45.02    0.85
  -1  -6  10    0.10    0.08
   1   6 -10    0.82    0.13
   1   6 -10    0.20    0.08
  -2  -7   9    0.10    0.08
   2   7  -9    0.09    0.06
   2   7  -9    0.21    0.09
  -3  -8   8    3.18    0.25
   3   8  -8    2.51    0.26
   4   0  15    0.01    0.07
   4   0  15    0.03    0.06
  -4   0 -15    0.02    0.06
   3  -1  14    5.76    0.25
   3  -1  14    6.00    0.28
  -3   1 -14    6.31    0.29
   2  -2  13   21.16    0.54
  -2   2 -13   20.77    0.52
   1  -3  12   17.64    0.48
  -1   3 -12   18.39    0.46
   0  -4  11   41.64    0.84
   0   4 -11   42.31    0.79
   0   4 -11   41.83    0.76
  -1  -5  10    1.87    0.18
   1   5 -10    1.93    0.15
  -2  -6   9    3.29    0.21
  -2  -6   9    3.20    0.21
   2   6  -9    3.18    0.19
  -3  -7   8    0.36    0.11
  -3  -7   8    0.34    0.11
   3   7  -8    0.38    0.10
   5   2  16    4.67    0.29
  -5  -2 -16    4.62    0.29
   4   1  15    1.01    0.14
   4   1  15    1.17    0.16
  -4  -1 -15    0.95    0.15
   3   0  14    1.06    0.13
   3   0  14    0.92    0.13
  -3   0 -14    1.01    0.14
   2  -1  13   78.91    1.23
   2  -1  13   79.47    1.33
  -2   1 -13   80.23    1.31
   1  -2  12    0.17    0.07
  -1   2 -12    0.22    0.06
   0  -3  11   15.46    0.36
   0  -3  11   15.65    0.42
   0   3 -11   16.03    0.40
  -1  -4  10   11.74    0.34
  -1  -4  10   12.02    0.36
   1   4 -10   12.48    0.35
  -2  -5   9    9.92    0.34
  -2  -5   9    9.68    0.34
   2   5  -9    9.93    0.32
  -3  -6   8    6.30    0.30
  -3  -6   8    6.81    0.30
   3   6  -8    6.90    0.28
  -4  -7   7    2.65    0.23
   4   7  -7    2.45    0.20
   5   3  16    8.70    0.42
  -5  -3 -16    7.90    0.37
   4   2  15    3.56    0.23
  -4  -2 -15    3.67    0.23
  -4  -2 -15    3.60    0.22
   3   1  14   37.14    0.78
  -3  -1 -14   36.73    0.76
  -3  -1 -14   37.29    0.75
   2   0  13   26.06    0.59
  -2   0 -13   26.21    0.53
  -2   0 -13   25.77    0.56
   1  -1  12    3.37    0.18
  -1   1 -12    3.57    0.14
  -1   1 -12    3.69    0.17
   0  -2  11    9.45    0.25
   0  -2  11    9.30    0.30
   0   2 -11    8.95    0.27
  -1  -3  10    0.33    0.07
  -1  -3  10    0.14    0.05
   1   3 -10    0.97    0.10
  -2  -4   9   15.38    0.40
  -2  -4   9   15.49    0.42
   2   4  -9   15.59    0.40
  -3  -5   8   12.98    0.42
  -3  -5   8   13.40    0.39
   3   5  -8   12.72    0.38
  -4  -6   7   13.24    0.46
   4   6  -7   12.84    0.41
   4   3  15   34.92    0.80
  -4  -3 -15   33.06    0.76
  -4  -3 -15   34.70    0.76
   3   2  14    5.23    0.25
  -3  -2 -14    5.06    0.23
  -3  -2 -14    4.94    0.23
   2   1  13    3.48    0.20
  -2  -1 -13    3.62    0.18
  -2  -1 -13    3.53    0.17
   1   0  12    0.03    0.04
  -1   0 -12    0.05    0.03
  -1   0 -12    0.03    0.03
   0  -1  11    4.05    0.18
   0  -1  11    4.06    0.15
   0   1 -11    4.34    0.17
   0   1 -11    4.14    0.13
  -1  -2  10   45.20    0.78
  -1  -2  10   45.48    0.79
   1   2 -10   47.28    0.79
  -2  -3   9    5.69    0.23
  -2  -3   9    5.88    0.21
   2   3  -9    5.89    0.22
  -3  -4   8    3.68    0.18
  -3  -4   8    3.38    0.20
   3   4  -8    3.50    0.18
  -4  -5   7    2.05    0.21
   4   5  -7    2.79    0.19
  -5  -6   6   18.52    0.58
   5   6  -6   18.79    0.54
   4   4  15    0.45    0.12
  -4  -4 -15    0.33    0.10
   3   3  14    8.34    0.34
  -3  -3 -14    8.85    0.30
  -3  -3 -14    8.40    0.31
   2   2  13  127.63    1.95
  -2  -2 -13  129.17    1.89
  -2  -2 -13  129.71    1.86
   1   1  12   20.22    0.47
  -1  -1 -12   19.83    0.42
  -1  -1 -12   19.99    0.42
   0   0  11   12.66    0.33
   0   0  11   12.01    0.27
   0   0 -11   11.78    0.27
   0   0 -11   11.93    0.29
  -1  -1  10   45.79    0.78
  -1  -1  10   47.20    0.79
   1   1 -10   47.49    0.70
   1   1 -10   48.53    0.79
  -2  -2   9   60.63    1.02
  -2  -2   9   62.70    0.96
   2   2  -9   60.40    0.99
  -3  -3   8    0.99    0.12
   3   3  -8    1.24    0.13
  -4  -4   7   19.52    0.54
   4   4  -7   19.73    0.50
  -5  -5   6   25.11    0.68
   5   5  -6   24.44    0.62
   4   5  15   14.60    0.51
  -4  -5 -15   14.30    0.47
   3   4  14    0.08    0.07
  -3  -4 -14    0.15    0.07
   2   3  13    2.80    0.19
  -2  -3 -13    2.60    0.14
  -2  -3 -13    2.43    0.15
   1   2  12   20.76    0.49
  -1  -2 -12   19.96    0.40
  -1  -2 -12   19.49    0.43
   0   1  11   29.09    0.52
   0   1  11   29.46    0.57
   0  -1 -11   29.64    0.52
   0  -1 -11   28.40    0.52
  -1   0  10   62.93    0.98
  -1   0  10   61.60    0.99
   1   0 -10   63.01    0.96
   1   0 -10   62.42    0.93
  -2  -1   9    6.17    0.19
  -2  -1   9    6.13    0.23
   2   1  -9    6.07    0.17
   2   1  -9    6.16    0.21
  -3  -2   8   43.39    0.83
   3   2  -8   42.58    0.77
  -4  -3   7    7.68    0.32
   4   3  -7    7.36    0.28
  -5  -4   6    7.04    0.34
   5   4  -6    6.05    0.29
   4   6  15    3.22    0.26
  -4  -6 -15    3.09    0.23
   3   5  14    0.32    0.10
  -3  -5 -14    0.35    0.09
   2   4  13    0.70    0.12
  -2  -4 -13    0.81    0.11
   1   3  12   25.37    0.52
   1   3  12   24.44    0.56
  -1  -3 -12   24.65    0.52
   0   2  11   72.97    1.12
   0   2  11   73.17    1.17
   0  -2 -11   73.11    1.12
   0  -2 -11   73.91    1.06
  -1   1  10    3.87    0.16
  -1   1  10    3.81    0.17
   1  -1 -10    4.15    0.15
   1  -1 -10    4.02    0.15
  -2   0   9   88.30    1.38
  -2   0   9   86.58    1.25
   2   0  -9   87.86    1.30
   2   0  -9   87.84    1.27
  -3  -1   8    3.74    0.20
   3   1  -8    3.84    0.15
   3   1  -8    4.01    0.18
  -4  -2   7    0.84    0.13
   4   2  -7    0.85    0.12
   4   2  -7    0.95    0.11
  -5  -3   6   32.89    0.78
   5   3  -6   32.67    0.74
  -6  -4   5    0.02    0.09
   6   4  -5    0.12    0.13
   3   6  14    0.94    0.16
  -3  -6 -14    1.00    0.14
   2   5  13    0.96    0.15
  -2  -5 -13    0.96    0.13
   1   4  12   29.63    0.58
   1   4  12   30.45    0.67
  -1  -4 -12   29.83    0.62
   0   3  11    0.40    0.07
   0   3  11    0.38    0.08
   0  -3 -11    0.41    0.07
  -1   2  10    2.25    0.13
  -1   2  10    2.43    0.15
   1  -2 -10    2.32    0.13
   1  -2 -10    2.22    0.10
  -2   1   9   15.07    0.38
  -2   1   9   12.28    0.36
   2  -1  -9   13.25    0.31
   2  -1  -9   13.18    0.32
  -3   0   8   33.84    0.71
   3   0  -8   33.84    0.61
   3   0  -8   33.97    0.64
  -4  -1   7    2.76    0.20
   4   1  -7    3.02    0.18
   4   1  -7    2.85    0.15
  -5  -2   6    5.19    0.28
   5   2  -6    4.85    0.25
  -6  -3   5    2.80    0.24
   6   3  -5    2.85    0.23
   3   7  14    1.59    0.22
  -3  -7 -14    1.57    0.18
   2   6  13    6.78    0.33
  -2  -6 -13    7.36    0.30
   1   5  12    9.21    0.35
   1   5  12    9.74    0.32
  -1  -5 -12    9.78    0.32
   0   4  11   42.33    0.82
   0   4  11   43.52    0.81
   0  -4 -11   43.42    0.79
  -1   3  10   38.56    0.71
  -1   3  10   36.89    0.73
   1  -3 -10   37.44    0.69
  -2   2   9   16.39    0.44
   2  -2  -9   16.58    0.39
   2  -2  -9   16.45    0.35
  -3   1   8   30.91    0.69
   3  -1  -8   31.30    0.61
   3  -1  -8   31.58    0.60
  -4   0   7    2.26    0.19
   4   0  -7    2.15    0.14
   4   0  -7    2.22    0.15
  -5  -1   6    2.52    0.21
   5   1  -6    2.44    0.18
   5   1  -6    2.68    0.17
  -6  -2   5    0.95    0.17
   6   2  -5    1.15    0.17
   2   7  13    1.81    0.22
  -2  -7 -13    1.95    0.20
   1   6  12    0.07    0.07
   1   6  12   -0.03    0.06
  -1  -6 -12   -0.03    0.03
   0   5  11   10.73    0.37
   0   5  11   10.91    0.36
   0  -5 -11   10.45    0.34
  -1   4  10   10.00    0.35
  -1   4  10   10.63    0.33
   1  -4 -10   10.66    0.32
  -2   3   9    1.09    0.14
   2  -3  -9    1.33    0.13
  -3   2   8    3.92    0.23
   3  -2  -8    4.36    0.20
   3  -2  -8    3.98    0.19
  -4   1   7    9.55    0.37
   4  -1  -7    9.97    0.32
   4  -1  -7    9.61    0.31
  -5   0   6    0.93    0.15
   5   0  -6    0.90    0.14
   5   0  -6    0.98    0.12
  -6  -1   5    5.46    0.33
   6   1  -5    5.32    0.27
   6   1  -5    5.10    0.29
   2   8  13    0.14    0.11
  -2  -8 -13    0.01    0.07
   1   7  12    3.97    0.25
   1   7  12    4.34    0.28
  -1  -7 -12    4.21    0.24
   0   6  11    0.99    0.15
   0   6  11    1.27    0.16
   0  -6 -11    1.02    0.13
  -1   5  10    1.54    0.16
  -1   5  10    1.38    0.17
   1  -5 -10    1.23    0.13
  -2   4   9   11.11    0.40
   2  -4  -9   10.89    0.34
  -3   3   8    2.76    0.21
   3  -3  -8    2.68    0.17
  -4   2   7    0.17    0.09
   4  -2  -7    0.14    0.07
  -5   1   6    1.19    0.18
   5  -1  -6    1.08    0.14
   5  -1  -6    1.23    0.15
   1   8  12    2.73    0.26
   1   8  12    2.03    0.24
  -1  -8 -12    2.36    0.23
   0   7  11   14.15    0.49
   0   7  11   13.54    0.48
   0  -7 -11   14.50    0.45
  -1   6  10    0.55    0.13
   1  -6 -10    0.34    0.09
  -2   5   9    2.90    0.24
   2  -5  -9    3.03    0.19
  -3   4   8   24.60    0.68
   3  -4  -8   24.99    0.60
  -4   3   7    0.26    0.11
   4  -3  -7    0.13    0.07
  -5   2   6    2.04    0.24
   5  -2  -6    1.73    0.18
  -1   7  10    5.28    0.33
   1  -7 -10    5.40    0.28
  -2   6   9    2.19    0.24
   2  -6  -9    2.31    0.21
  -3   5   8    1.11    0.18
   3  -5  -8    0.96    0.14
  -4   4   7    3.75    0.29
   4  -4  -7    3.79    0.24
   2  -5  14    4.53    0.29
  -2   5 -14    3.65    0.25
   1  -6  13    3.26    0.26
  -1   6 -13    3.68    0.24
   0  -7  12    4.14    0.31
   3  -3  15   21.71    0.62
  -3   3 -15   20.97    0.61
   2  -4  14    1.10    0.16
  -2   4 -14    1.31    0.17
   1  -5  13    1.23    0.18
  -1   5 -13    1.14    0.15
   0  -6  12    0.30    0.10
   0   6 -12    0.24    0.09
  -1  -7  11    1.34    0.19
   1   7 -11    1.46    0.17
   1   7 -11    2.15    0.22
   4  -1  16   -0.01    0.07
   4  -1  16    0.05    0.08
  -4   1 -16    0.12    0.09
   3  -2  15    0.26    0.09
  -3   2 -15    0.44    0.11
   2  -3  14    0.10    0.07
  -2   3 -14    0.12    0.07
   1  -4  13    8.56    0.35
  -1   4 -13    8.33    0.32
   0  -5  12    0.56    0.12
   0   5 -12    0.54    0.10
   0   5 -12    0.51    0.10
  -1  -6  11    1.46    0.19
   1   6 -11    1.44    0.17
   1   6 -11    1.19    0.14
  -2  -7  10    1.26    0.17
   2   7 -10    1.16    0.15
   2   7 -10    1.34    0.18
   4   0  16    3.00    0.21
   4   0  16    2.96    0.23
  -4   0 -16    3.12    0.23
   3  -1  15    5.59    0.25
   3  -1  15    5.57    0.28
  -3   1 -15    5.19    0.27
   2  -2  14    1.75    0.18
  -2   2 -14    2.11    0.17
   1  -3  13   52.01    0.99
  -1   3 -13   50.84    0.94
   0  -4  12    8.77    0.34
   0   4 -12    9.76    0.30
   0   4 -12    9.12    0.31
  -1  -5  11    3.93    0.22
   1   5 -11    3.74    0.20
  -2  -6  10    2.25    0.18
  -2  -6  10    2.12    0.18
   2   6 -10    1.90    0.18
  -3  -7   9    2.55    0.22
  -3  -7   9    2.42    0.21
   3   7  -9    2.46    0.19
   4   1  16    7.71    0.34
   4   1  16    7.16    0.32
  -4  -1 -16    7.32    0.33
   3   0  15   12.21    0.37
   3   0  15   12.60    0.42
  -3   0 -15   12.43    0.41
   2  -1  14   57.96    0.96
   2  -1  14   58.73    1.07
  -2   1 -14   56.00    1.03
   1  -2  13   14.32    0.42
  -1   2 -13   15.50    0.41
   0  -3  12    0.20    0.05
   0  -3  12    0.13    0.06
   0   3 -12    0.19    0.06
  -1  -4  11    2.87    0.18
  -1  -4  11    2.86    0.17
   1   4 -11    2.91    0.17
  -2  -5  10    0.57    0.11
  -2  -5  10    0.53    0.10
   2   5 -10    0.72    0.11
  -3  -6   9    1.56    0.19
  -3  -6   9    1.31    0.16
   3   6  -9    1.43    0.16
  -4  -7   8   -0.02    0.07
   4   7  -8    0.04    0.07
   4   2  16    0.07    0.07
  -4  -2 -16    0.14    0.08
  -4  -2 -16    0.08    0.07
   3   1  15   63.87    1.17
  -3  -1 -15   64.81    1.12
  -3  -1 -15   63.46    1.14
   2   0  14    2.97    0.19
  -2   0 -14    2.98    0.18
  -2   0 -14    3.02    0.16
   1  -1  13    0.89    0.12
  -1   1 -13    0.89    0.10
  -1   1 -13    1.10    0.10
   0  -2  12   15.97    0.42
   0  -2  12   16.86    0.36
   0   2 -12   16.68    0.41
  -1  -3  11   12.80    0.34
  -1  -3  11   12.86    0.37
   1   3 -11   13.76    0.37
  -2  -4  10    6.60    0.27
  -2  -4  10    6.45    0.25
   2   4 -10    6.69    0.25
  -3  -5   9   10.85    0.38
  -3  -5   9   10.99    0.36
   3   5  -9   11.75    0.37
  -4  -6   8    2.24    0.23
   4   6  -8    2.25    0.21
   4   3  16   33.77    0.81
  -4  -3 -16   34.91    0.77
  -4  -3 -16   33.65    0.78
   3   2  15    0.70    0.12
  -3  -2 -15    0.63    0.11
  -3  -2 -15    0.73    0.11
   2   1  14   19.46    0.51
  -2  -1 -14   19.24    0.45
  -2  -1 -14   19.67    0.47
   1   0  13   25.54    0.57
  -1   0 -13   26.35    0.50
  -1   0 -13   26.55    0.54
   0  -1  12  114.24    1.59
   0  -1  12  113.25    1.70
   0   1 -12  111.56    1.56
   0   1 -12  113.25    1.66
  -1  -2  11    2.73    0.15
  -1  -2  11    2.79    0.15
   1   2 -11    2.67    0.15
  -2  -3  10   10.28    0.32
  -2  -3  10   10.00    0.30
   2   3 -10   10.34    0.31
  -3  -4   9    1.62    0.17
  -3  -4   9    1.46    0.15
   3   4  -9    1.78    0.17
  -4  -5   8    3.02    0.22
   4   5  -8    2.88    0.19
  -5  -6   7   13.76    0.50
   5   6  -7   13.53    0.46
   4   4  16    5.93    0.32
  -4  -4 -16    5.39    0.29
   3   3  15   13.58    0.45
  -3  -3 -15   12.98    0.38
  -3  -3 -15   13.79    0.42
   2   2  14   45.93    0.89
  -2  -2 -14   47.06    0.84
  -2  -2 -14   46.07    0.82
   1   1  13    7.59    0.27
  -1  -1 -13    7.82    0.24
  -1  -1 -13    7.22    0.23
   0   0  12   16.22    0.40
   0   0  12   16.24    0.34
   0   0 -12   16.23    0.37
   0   0 -12   15.70    0.33
  -1  -1  11   71.93    1.13
  -1  -1  11   71.79    1.12
   1   1 -11   72.12    1.12
   1   1 -11   73.69    1.03
  -2  -2  10    0.10    0.05
  -2  -2  10    0.17    0.05
   2   2 -10    0.10    0.04
  -3  -3   9    7.90    0.30
   3   3  -9    7.91    0.28
  -4  -4   8   43.76    0.92
   4   4  -8   44.28    0.86
  -5  -5   7   -0.04    0.06
   5   5  -7    0.00    0.07
   4   5  16    0.51    0.13
  -4  -5 -16    0.43    0.11
   3   4  15    0.56    0.12
  -3  -4 -15    0.43    0.10
   2   3  14    7.75    0.31
  -2  -3 -14    7.07    0.27
  -2  -3 -14    8.07    0.25
   1   2  13    0.56    0.10
  -1  -2 -13    0.67    0.08
  -1  -2 -13    0.68    0.09
   0   1  12   43.16    0.78
   0   1  12   43.24    0.71
   0  -1 -12   43.12    0.71
   0  -1 -12   43.43    0.72
  -1   0  11    1.51    0.11
  -1   0  11    1.67    0.11
   1   0 -11    1.58    0.09
   1   0 -11    1.26    0.09
  -2  -1  10    3.73    0.19
  -2  -1  10    3.57    0.15
   2   1 -10    3.77    0.17
   2   1 -10    3.84    0.13
  -3  -2   9  112.31    1.75
   3   2  -9  111.19    1.68
  -4  -3   8    0.65    0.11
   4   3  -8    1.13    0.14
  -5  -4   7    2.06    0.22
   5   4  -7    1.65    0.19
   4   6  16    0.35    0.12
  -4  -6 -16    0.31    0.11
   3   5  15    0.67    0.14
  -3  -5 -15    0.55    0.11
   2   4  14    0.01    0.06
  -2  -4 -14    0.04    0.04
   1   3  13    5.95    0.26
  -1  -3 -13    5.79    0.23
   0   2  12    4.11    0.17
   0   2  12    4.14    0.20
   0  -2 -12    4.43    0.15
   0  -2 -12    3.85    0.17
  -1   1  11    3.41    0.16
  -1   1  11    2.98    0.16
   1  -1 -11    3.13    0.14
   1  -1 -11    3.28    0.14
  -2   0  10   39.73    0.75
  -2   0  10   38.84    0.65
   2   0 -10   39.15    0.66
   2   0 -10   38.61    0.68
  -3  -1   9    3.88    0.21
   3   1  -9    4.37    0.16
   3   1  -9    4.37    0.19
  -4  -2   8   31.99    0.73
   4   2  -8   31.60    0.67
  -5  -3   7    2.01    0.21
   5   3  -7    2.51    0.23
   3   6  15    0.23    0.12
  -3  -6 -15    0.33    0.09
   2   5  14   17.39    0.53
  -2  -5 -14   17.11    0.47
   1   4  13    3.53    0.21
  -1  -4 -13    3.83    0.20
   0   3  12   18.06    0.42
   0   3  12   18.47    0.46
   0  -3 -12   18.36    0.43
  -1   2  11  131.93    1.89
  -1   2  11  130.53    1.92
   1  -2 -11  131.52    1.80
   1  -2 -11  127.24    1.86
  -2   1  10   14.36    0.40
   2  -1 -10   14.23    0.34
   2  -1 -10   14.41    0.33
  -3   0   9   22.10    0.55
   3   0  -9   21.24    0.48
   3   0  -9   21.17    0.45
  -4  -1   8    9.53    0.37
   4   1  -8    9.72    0.28
   4   1  -8    9.90    0.33
  -5  -2   7    1.97    0.21
   5   2  -7    2.04    0.20
  -6  -3   6    0.93    0.17
   3   7  15    0.11    0.10
  -3  -7 -15    0.00    0.06
   2   6  14   21.56    0.62
  -2  -6 -14   20.77    0.56
   1   5  13    2.44    0.19
  -1  -5 -13    2.35    0.17
   0   4  12    6.10    0.25
   0   4  12    6.04    0.27
   0  -4 -12    5.88    0.24
  -1   3  11   29.54    0.63
  -1   3  11   29.27    0.60
   1  -3 -11   29.74    0.59
  -2   2  10    7.35    0.29
   2  -2 -10    8.08    0.23
   2  -2 -10    7.67    0.25
  -3   1   9    5.90    0.28
   3  -1  -9    6.06    0.22
   3  -1  -9    6.01    0.22
  -4   0   8    2.06    0.22
   4   0  -8    2.11    0.14
   4   0  -8    1.75    0.16
  -5  -1   7    2.03    0.23
   5   1  -7    1.87    0.15
   5   1  -7    1.94    0.19
  -6  -2   6    0.51    0.14
   2   7  14    0.27    0.11
  -2  -7 -14    0.57    0.12
   1   6  13    6.28    0.32
  -1  -6 -13    6.46    0.28
   0   5  12    3.43    0.22
   0   5  12    3.96    0.22
   0  -5 -12    3.66    0.20
  -1   4  11   99.04    1.53
  -1   4  11   97.58    1.58
   1  -4 -11   95.06    1.51
  -2   3  10   17.18    0.49
   2  -3 -10   17.20    0.43
  -3   2   9    0.07    0.07
   3  -2  -9    0.06    0.05
  -4   1   8   16.14    0.51
   4  -1  -8   16.59    0.43
   4  -1  -8   16.07    0.43
  -5   0   7    4.59    0.28
   5   0  -7    4.72    0.23
   5   0  -7    4.56    0.24
   1   7  13    0.32    0.12
  -1  -7 -13    0.42    0.11
   0   6  12    5.46    0.29
   0   6  12    5.45    0.29
   0  -6 -12    4.95    0.25
  -1   5  11   17.77    0.52
  -1   5  11   18.59    0.50
   1  -5 -11   19.08    0.49
  -2   4  10    2.89    0.22
   2  -4 -10    2.98    0.18
  -3   3   9    0.07    0.07
   3  -3  -9   -0.01    0.05
  -4   2   8    0.01    0.07
   4  -2  -8    0.04    0.05
  -5   1   7   18.06    0.59
   5  -1  -7   17.52    0.49
   5  -1  -7   17.80    0.50
   0   7  12    1.93    0.22
   0   7  12    1.69    0.21
   0  -7 -12    1.68    0.18
  -1   6  11    1.46    0.19
   1  -6 -11    1.26    0.15
  -2   5  10   10.83    0.43
   2  -5 -10   11.16    0.37
  -3   4   9   10.62    0.44
   3  -4  -9   10.35    0.37
  -4   3   8    6.44    0.35
   4  -3  -8    6.83    0.30
  -5   2   7    2.16    0.25
   5  -2  -7    1.81    0.19
  -1   7  11    0.22    0.12
   1  -7 -11    0.16    0.08
  -2   6  10    1.33    0.20
   2  -6 -10    1.44    0.17
  -3   5   9    1.14    0.19
   3  -5  -9    1.09    0.15
  -4   4   8    8.19    0.43
   4  -4  -8    7.92    0.36
   1  -6  14   -0.04    0.10
  -1   6 -14    0.00    0.08
   3  -3  16    4.07    0.27
  -3   3 -16    3.60    0.27
   2  -4  15    1.96    0.22
  -2   4 -15    1.82    0.20
   1  -5  14   -0.04    0.07
  -1   5 -14    0.20    0.08
   0  -6  13    0.54    0.13
   0   6 -13    0.58    0.12
  -1  -7  12    9.38    0.42
   1   7 -12    9.68    0.37
   1   7 -12   10.13    0.40
   4  -1  17    2.76    0.23
  -4   1 -17    2.66    0.33
   3  -2  16    2.02    0.22
  -3   2 -16    1.81    0.21
   2  -3  15    4.74    0.27
  -2   3 -15    4.69    0.26
   1  -4  14   10.85    0.41
  -1   4 -14   12.21    0.40
   0  -5  13    1.51    0.18
   0   5 -13    1.51    0.17
  -1  -6  12    7.19    0.34
   1   6 -12    6.77    0.31
   1   6 -12    6.83    0.30
  -2  -7  11    0.08    0.08
   2   7 -11   -0.06    0.07
   2   7 -11    0.00    0.06
   4   0  17    5.17    0.30
   4   0  17    4.81    0.27
  -4   0 -17    4.59    0.29
   3  -1  16    1.79    0.20
  -3   1 -16    1.76    0.19
   2  -2  15    5.13    0.27
  -2   2 -15    5.65    0.27
   1  -3  14    2.35    0.19
  -1   3 -14    2.45    0.18
   0  -4  13    5.39    0.27
   0   4 -13    5.20    0.25
  -1  -5  12    0.13    0.07
   1   5 -12    0.09    0.06
  -2  -6  11    6.08    0.29
  -2  -6  11    5.73    0.29
   2   6 -11    5.81    0.27
  -3  -7  10    0.56    0.13
  -3  -7  10    0.43    0.12
   3   7 -10    0.68    0.12
   4   1  17   12.55    0.46
   4   1  17   11.82    0.42
  -4  -1 -17   12.16    0.45
   3   0  16    0.05    0.06
   3   0  16    0.08    0.06
  -3   0 -16    0.11    0.06
   2  -1  15    0.31    0.09
  -2   1 -15    0.17    0.07
   1  -2  14    0.92    0.12
  -1   2 -14    1.44    0.15
   0  -3  13    1.47    0.16
   0   3 -13    1.60    0.16
  -1  -4  12   10.43    0.36
  -1  -4  12   10.40    0.33
   1   4 -12   10.36    0.34
  -2  -5  11    0.09    0.06
  -2  -5  11    0.07    0.06
   2   5 -11    0.01    0.05
  -3  -6  10    3.68    0.23
  -3  -6  10    3.35    0.24
   3   6 -10    3.46    0.22
  -4  -7   9    6.46    0.39
   4   7  -9    6.11    0.30
   4   2  17   12.99    0.47
  -4  -2 -17   14.20    0.47
  -4  -2 -17   13.67    0.46
   3   1  16    0.95    0.15
  -3  -1 -16    0.77    0.12
  -3  -1 -16    0.61    0.11
   2   0  15    1.14    0.14
  -2   0 -15    1.01    0.12
  -2   0 -15    0.98    0.12
   1  -1  14    0.62    0.11
  -1   1 -14    0.85    0.09
  -1   1 -14    0.89    0.12
   0  -2  13    1.86    0.15
   0  -2  13    1.84    0.11
   0   2 -13    1.89    0.14
  -1  -3  12   12.89    0.38
  -1  -3  12   13.83    0.37
   1   3 -12   14.05    0.38
  -2  -4  11   24.49    0.56
  -2  -4  11   23.46    0.56
   2   4 -11   23.23    0.55
  -3  -5  10    2.90    0.19
  -3  -5  10    2.58    0.20
   3   5 -10    3.04    0.19
  -4  -6   9    0.08    0.08
   4   6  -9    0.08    0.07
   4   3  17    2.13    0.23
  -4  -3 -17    2.13    0.21
  -4  -3 -17    1.87    0.21
   3   2  16   24.07    0.62
  -3  -2 -16   22.73    0.56
  -3  -2 -16   23.75    0.58
   2   1  15    8.00    0.32
  -2  -1 -15    8.29    0.29
  -2  -1 -15    7.40    0.27
   1   0  14  106.94    1.67
  -1   0 -14  108.21    1.57
  -1   0 -14  107.04    1.62
   0  -1  13    2.18    0.15
   0  -1  13    2.32    0.12
   0   1 -13    2.87    0.12
  -1  -2  12    1.75    0.12
  -1  -2  12    1.67    0.13
   1   2 -12    1.60    0.12
  -2  -3  11   18.98    0.48
  -2  -3  11   18.83    0.45
   2   3 -11   18.46    0.45
  -3  -4  10    6.69    0.29
   3   4 -10    6.36    0.26
  -4  -5   9    6.36    0.32
   4   5  -9    7.01    0.30
  -5  -6   8    0.65    0.21
   5   6  -8    1.01    0.16
   4   4  17    0.89    0.16
  -4  -4 -17    0.99    0.16
   3   3  16   12.68    0.44
  -3  -3 -16   12.31    0.38
  -3  -3 -16   12.22    0.40
   2   2  15    2.64    0.19
  -2  -2 -15    2.48    0.16
  -2  -2 -15    2.64    0.16
   1   1  14    8.70    0.31
  -1  -1 -14    8.58    0.27
  -1  -1 -14    8.34    0.26
   0   0  13    1.22    0.09
   0   0  13    1.17    0.12
   0   0 -13    1.26    0.10
   0   0 -13    1.03    0.08
  -1  -1  12    5.27    0.20
  -1  -1  12    5.15    0.21
   1   1 -12    5.06    0.15
   1   1 -12    5.20    0.20
  -2  -2  11   18.98    0.43
  -2  -2  11   19.54    0.47
   2   2 -11   19.55    0.45
  -3  -3  10    4.71    0.24
   3   3 -10    5.01    0.22
  -4  -4   9   11.08    0.41
   4   4  -9   11.57    0.38
  -5  -5   8   -0.05    0.07
   5   5  -8    0.06    0.07
   4   5  17    1.56    0.22
  -4  -5 -17    1.38    0.18
   3   4  16    0.06    0.08
  -3  -4 -16    0.05    0.06
   2   3  15    5.16    0.27
  -2  -3 -15    5.11    0.23
   1   2  14    2.89    0.18
  -1  -2 -14    3.23    0.16
  -1  -2 -14    3.03    0.14
   0   1  13   11.91    0.35
   0   1  13   11.37    0.29
   0  -1 -13   12.01    0.30
   0  -1 -13   11.71    0.30
  -1   0  12    4.22    0.18
  -1   0  12    3.61    0.17
   1   0 -12    3.80    0.15
   1   0 -12    3.77    0.16
  -2  -1  11   20.28    0.49
  -2  -1  11   20.49    0.43
   2   1 -11   19.75    0.45
   2   1 -11   20.33    0.39
  -3  -2  10    7.47    0.30
   3   2 -10    7.68    0.27
  -4  -3   9    2.59    0.20
   4   3  -9    2.43    0.17
  -5  -4   8    3.54    0.26
   5   4  -8    3.76    0.23
   3   5  16    3.50    0.26
  -3  -5 -16    4.26    0.25
   2   4  15    0.22    0.08
  -2  -4 -15    0.24    0.07
   1   3  14   15.93    0.46
  -1  -3 -14   16.71    0.42
   0   2  13    7.80    0.24
   0   2  13    7.19    0.27
   0  -2 -13    7.46    0.25
   0  -2 -13    7.25    0.21
  -1   1  12    0.49    0.08
  -1   1  12    0.47    0.08
   1  -1 -12    0.49    0.07
   1  -1 -12    0.50    0.07
  -2   0  11  100.12    1.55
  -2   0  11   98.84    1.44
   2   0 -11   97.58    1.47
   2   0 -11   99.11    1.43
  -3  -1  10   -0.02    0.05
   3   1 -10   -0.01    0.03
   3   1 -10    0.01    0.04
  -4  -2   9    1.64    0.19
   4   2  -9    1.16    0.14
  -5  -3   8    0.07    0.08
   5   3  -8    0.06    0.06
   3   6  16    6.55    0.36
  -3  -6 -16    6.25    0.31
   2   5  15    1.03    0.16
  -2  -5 -15    1.02    0.14
   1   4  14   16.54    0.49
  -1  -4 -14   17.52    0.46
   0   3  13   19.51    0.46
   0   3  13   19.12    0.49
   0  -3 -13   19.13    0.45
  -1   2  12    9.85    0.30
  -1   2  12    9.90    0.32
   1  -2 -12    9.58    0.25
   1  -2 -12    9.83    0.29
  -2   1  11   28.56    0.63
   2  -1 -11   28.67    0.55
   2  -1 -11   28.66    0.55
  -3   0  10    1.40    0.17
   3   0 -10    1.16    0.12
   3   0 -10    1.05    0.11
  -4  -1   9    1.54    0.18
   4   1  -9    1.59    0.12
   4   1  -9    1.69    0.16
  -5  -2   8    4.67    0.29
   5   2  -8    5.44    0.27
   2   6  15    5.94    0.32
  -2  -6 -15    5.66    0.28
   1   5  14   13.98    0.46
  -1  -5 -14   13.48    0.41
   0   4  13   21.33    0.51
   0   4  13   20.23    0.53
   0  -4 -13   20.56    0.50
  -1   3  12    4.31    0.22
  -1   3  12    4.75    0.22
   1  -3 -12    4.74    0.21
  -2   2  11  105.42    1.68
   2  -2 -11  104.66    1.58
  -3   1  10    0.00    0.05
   3  -1 -10   -0.05    0.03
   3  -1 -10    0.02    0.04
  -4   0   9    1.22    0.17
   4   0  -9    1.61    0.16
   4   0  -9    1.89    0.16
  -5  -1   8   15.45    0.53
   5   1  -8   15.18    0.46
   5   1  -8   15.19    0.42
   2   7  15    0.56    0.14
  -2  -7 -15    0.57    0.12
   1   6  14   16.40    0.52
  -1  -6 -14   15.46    0.47
   0   5  13   10.00    0.35
   0   5  13    9.79    0.37
   0  -5 -13    9.82    0.34
  -1   4  12    2.25    0.21
  -1   4  12    1.78    0.17
   1  -4 -12    2.00    0.15
  -2   3  11    0.16    0.08
   2  -3 -11    0.17    0.06
  -3   2  10   12.32    0.43
   3  -2 -10   12.92    0.37
  -4   1   9    2.22    0.23
   4  -1  -9    2.10    0.19
   4  -1  -9    2.02    0.15
  -5   0   8    6.71    0.35
   5   0  -8    6.80    0.28
   5   0  -8    6.65    0.30
   1   7  14    0.02    0.09
  -1  -7 -14    0.05    0.06
   0   6  13   24.82    0.65
   0   6  13   23.77    0.63
   0  -6 -13   22.06    0.58
  -1   5  12    7.04    0.33
   1  -5 -12    7.46    0.30
  -2   4  11    0.16    0.09
   2  -4 -11    0.18    0.07
  -3   3  10    0.50    0.12
   3  -3 -10    0.52    0.10
  -4   2   9   29.18    0.76
   4  -2  -9   28.97    0.65
  -5   1   8    6.04    0.35
   5  -1  -8    6.58    0.29
   0   7  13    3.19    0.26
   0   7  13    2.74    0.26
   0  -7 -13    2.78    0.21
  -1   6  12    3.59    0.26
   1  -6 -12    3.32    0.21
  -2   5  11    5.13    0.31
   2  -5 -11    5.07    0.25
  -3   4  10    9.29    0.41
   3  -4 -10    9.61    0.35
  -4   3   9    3.89    0.28
   4  -3  -9    4.05    0.24
  -1   7  12    4.20    0.30
   1  -7 -12    4.18    0.29
  -2   6  11   -0.04    0.09
   2  -6 -11   -0.03    0.05
  -3   5  10    6.12    0.37
   3  -5 -10    6.63    0.31
   2  -4  16    0.95    0.17
  -2   4 -16    0.59    0.13
   1  -5  15    0.47    0.13
  -1   5 -15    0.29    0.10
   0  -6  14    7.47    0.37
   0   6 -14    7.59    0.33
  -1  -7  13    0.66    0.17
   1   7 -13    0.38    0.11
   1   7 -13    0.56    0.14
   3  -2  17   11.06    0.44
  -3   2 -17   10.46    0.42
   2  -3  16    2.63    0.23
  -2   3 -16    2.56    0.21
   1  -4  15    0.30    0.11
  -1   4 -15    0.62    0.12
   0  -5  14   19.51    0.57
   0   5 -14   18.63    0.53
  -1  -6  13    3.50    0.25
   1   6 -13    3.61    0.23
   1   6 -13    3.46    0.23
  -2  -7  12    0.86    0.16
   2   7 -12    0.86    0.14
   2   7 -12    0.89    0.16
   4   0  18    0.05    0.08
   4   0  18    0.03    0.08
  -4   0 -18   -0.01    0.07
   3  -1  17    9.53    0.39
  -3   1 -17    9.07    0.38
   2  -2  16   10.01    0.39
  -2   2 -16    8.90    0.35
   1  -3  15   22.91    0.60
  -1   3 -15   23.10    0.58
   0  -4  14   -0.01    0.06
   0   4 -14    0.01    0.05
  -1  -5  13    2.97    0.22
   1   5 -13    2.99    0.20
  -2  -6  12   -0.06    0.05
  -2  -6  12   -0.06    0.06
   2   6 -12    0.01    0.06
  -3  -7  11    3.74    0.26
  -3  -7  11    3.67    0.26
   3   7 -11    3.78    0.24
   4   1  18    0.35    0.10
   4   1  18    0.52    0.13
  -4  -1 -18    0.71    0.14
   3   0  17    1.35    0.15
   3   0  17    1.27    0.18
  -3   0 -17    1.07    0.15
   2  -1  16    5.20    0.27
  -2   1 -16    4.95    0.25
   1  -2  15    0.72    0.12
  -1   2 -15    0.77    0.11
   0  -3  14   16.15    0.47
   0   3 -14   16.80    0.45
  -1  -4  13   10.03    0.37
  -1  -4  13   10.45    0.34
   1   4 -13   10.38    0.35
  -2  -5  12    5.46    0.27
  -2  -5  12    5.47    0.27
   2   5 -12    5.46    0.26
  -3  -6  11   17.90    0.54
  -3  -6  11   16.99    0.51
   3   6 -11   17.04    0.50
   4   2  18    2.76    0.26
  -4  -2 -18    2.04    0.21
  -4  -2 -18    2.69    0.22
   3   1  17    5.91    0.30
  -3  -1 -17    6.15    0.29
  -3  -1 -17    6.14    0.28
   2   0  16   25.71    0.64
  -2   0 -16   25.62    0.60
  -2   0 -16   25.40    0.56
   1  -1  15   35.04    0.75
  -1   1 -15   34.05    0.70
   0  -2  14   21.15    0.53
   0   2 -14   21.31    0.51
  -1  -3  13   54.80    1.01
  -1  -3  13   56.06    0.96
   1   3 -13   56.69    1.00
  -2  -4  12    6.04    0.26
  -2  -4  12    5.89    0.26
   2   4 -12    6.27    0.26
  -3  -5  11    0.54    0.12
   3   5 -11    0.35    0.09
  -4  -6  10    0.11    0.09
   4   6 -10    0.09    0.08
   4   3  18   15.15    0.54
  -4  -3 -18   17.07    0.53
   3   2  17    0.06    0.07
  -3  -2 -17    0.22    0.08
  -3  -2 -17    0.12    0.07
   2   1  16   25.72    0.63
  -2  -1 -16   25.22    0.56
  -2  -1 -16   24.72    0.57
   1   0  15   43.94    0.86
  -1   0 -15   43.24    0.80
  -1   0 -15   42.79    0.76
   0  -1  14    3.76    0.20
   0   1 -14    3.74    0.18
  -1  -2  13    9.79    0.32
  -1  -2  13   10.30    0.30
   1   2 -13    9.67    0.31
  -2  -3  12   40.76    0.78
  -2  -3  12   40.67    0.80
   2   3 -12   41.27    0.79
  -3  -4  11    0.79    0.13
   3   4 -11    0.82    0.12
  -4  -5  10    0.05    0.09
   4   5 -10    0.02    0.07
   4   4  18   14.89    0.53
  -4  -4 -18   14.91    0.51
   3   3  17    1.43    0.19
  -3  -3 -17    1.40    0.17
   2   2  16    0.64    0.12
  -2  -2 -16    0.52    0.09
  -2  -2 -16    0.52    0.09
   1   1  15    0.58    0.10
  -1  -1 -15    0.47    0.08
  -1  -1 -15    0.67    0.10
   0   0  14   13.08    0.38
   0   0 -14   12.63    0.34
   0   0 -14   12.96    0.31
  -1  -1  13   46.32    0.83
  -1  -1  13   45.53    0.81
   1   1 -13   46.48    0.82
  -2  -2  12    0.90    0.12
  -2  -2  12    1.10    0.12
   2   2 -12    1.05    0.12
  -3  -3  11    5.14    0.26
   3   3 -11    5.48    0.24
  -4  -4  10    1.64    0.19
   4   4 -10    2.14    0.20
  -5  -5   9    0.06    0.09
   5   5  -9   -0.07    0.07
   3   4  17    4.37    0.28
  -3  -4 -17    4.20    0.25
   2   3  16    1.40    0.17
  -2  -3 -16    0.96    0.12
   1   2  15    0.10    0.06
  -1  -2 -15    0.06    0.04
  -1  -2 -15    0.07    0.05
   0   1  14    0.22    0.06
   0   1  14    0.25    0.07
   0  -1 -14    0.26    0.06
  -1   0  13    8.37    0.28
  -1   0  13    8.39    0.27
   1   0 -13    8.76    0.24
   1   0 -13    8.40    0.26
  -2  -1  12    1.31    0.11
  -2  -1  12    1.26    0.14
   2   1 -12    1.46    0.12
  -3  -2  11   15.74    0.46
   3   2 -11   16.09    0.42
  -4  -3  10    0.83    0.15
   4   3 -10    0.77    0.12
  -5  -4   9   20.18    0.62
   5   4  -9   19.94    0.56
   3   5  17    5.15    0.32
  -3  -5 -17    4.98    0.28
   2   4  16    9.30    0.38
  -2  -4 -16    9.83    0.35
   1   3  15   12.47    0.41
  -1  -3 -15   12.68    0.37
   0   2  14    0.17    0.06
   0   2  14    0.08    0.06
   0  -2 -14    0.15    0.05
   0  -2 -14    0.06    0.04
  -1   1  13   45.60    0.83
  -1   1  13   45.43    0.83
   1  -1 -13   47.43    0.80
   1  -1 -13   47.02    0.79
  -2   0  12    0.93    0.12
   2   0 -12    0.60    0.09
   2   0 -12    0.91    0.09
  -3  -1  11    3.39    0.22
   3   1 -11    3.23    0.18
  -4  -2  10   14.29    0.47
   4   2 -10   13.81    0.41
  -5  -3   9    2.77    0.23
   5   3  -9    1.80    0.19
   3   6  17    0.12    0.11
  -3  -6 -17    0.08    0.07
   2   5  16    3.23    0.24
  -2  -5 -16    3.44    0.22
   1   4  15   30.69    0.72
  -1  -4 -15   31.88    0.68
   0   3  14   24.90    0.54
   0   3  14   24.00    0.58
   0  -3 -14   24.85    0.55
  -1   2  13   29.88    0.62
  -1   2  13   30.21    0.64
   1  -2 -13   31.48    0.61
  -2   1  12   17.54    0.47
   2  -1 -12   17.26    0.40
   2  -1 -12   17.17    0.40
  -3   0  11    0.07    0.06
   3   0 -11    0.10    0.05
   3   0 -11    0.11    0.05
  -4  -1  10    8.96    0.37
   4   1 -10    8.73    0.31
  -5  -2   9    1.16    0.18
   5   2  -9    1.53    0.18
   2   6  16    0.14    0.10
  -2  -6 -16    0.15    0.07
   1   5  15    0.06    0.08
  -1  -5 -15    0.14    0.07
   0   4  14   22.33    0.58
   0   4  14   23.70    0.55
   0  -4 -14   23.07    0.55
  -1   3  13   15.80    0.45
  -1   3  13   16.49    0.44
   1  -3 -13   16.01    0.42
  -2   2  12   70.88    1.26
   2  -2 -12   74.09    1.18
  -3   1  11   10.90    0.40
   3  -1 -11   11.03    0.32
   3  -1 -11   10.95    0.32
  -4   0  10    1.44    0.18
   4   0 -10    1.60    0.16
   4   0 -10    1.77    0.14
  -5  -1   9   10.01    0.43
   5   1  -9   10.66    0.38
   2   7  16    4.13    0.31
  -2  -7 -16    3.78    0.26
   1   6  15    0.01    0.08
  -1  -6 -15    0.06    0.06
   0   5  14    1.39    0.18
   0   5  14    1.37    0.17
   0  -5 -14    1.64    0.17
  -1   4  13    1.62    0.18
  -1   4  13    1.47    0.16
   1  -4 -13    1.74    0.17
  -2   3  12   14.82    0.47
   2  -3 -12   15.01    0.41
  -3   2  11    1.37    0.17
   3  -2 -11    1.59    0.16
  -4   1  10    0.39    0.11
   4  -1 -10    0.42    0.09
   4  -1 -10    0.36    0.08
  -5   0   9    0.40    0.12
   5   0  -9    0.29    0.09
   5   0  -9    0.34    0.09
   1   7  15    8.16    0.40
  -1  -7 -15    8.23    0.36
   0   6  14    0.15    0.09
   0   6  14    0.23    0.11
   0  -6 -14    0.22    0.09
  -1   5  13    0.91    0.15
   1  -5 -13    0.69    0.12
  -2   4  12    0.04    0.08
   2  -4 -12    0.15    0.07
  -3   3  11    9.76    0.41
   3  -3 -11   10.23    0.35
  -4   2  10    0.04    0.08
   4  -2 -10    0.00    0.05
  -5   1   9    0.44    0.14
   5  -1  -9    0.37    0.10
   0   7  14    1.44    0.20
   0   7  14    1.55    0.21
   0  -7 -14    1.39    0.18
  -1   6  13    0.14    0.10
   1  -6 -13    0.26    0.09
  -2   5  12    5.87    0.33
   2  -5 -12    5.37    0.27
  -3   4  11    0.32    0.12
   3  -4 -11    0.31    0.09
  -4   3  10    3.27    0.27
   4  -3 -10    2.50    0.20
  -2   6  12   21.74    0.73
   2  -4  17    7.88    0.40
  -2   4 -17    7.98    0.40
   1  -5  16    5.16    0.31
  -1   5 -16    5.19    0.29
   0  -6  15    2.70    0.28
   0   6 -15    2.52    0.24
   3  -2  18    1.09    0.17
  -3   2 -18    1.17    0.18
   2  -3  17   -0.01    0.08
  -2   3 -17    0.11    0.08
   1  -4  16    9.08    0.39
  -1   4 -16    9.54    0.38
   0  -5  15    0.21    0.10
   0   5 -15    0.13    0.08
  -1  -6  14    0.06    0.08
   1   6 -14   -0.08    0.10
   1   6 -14    0.07    0.08
   3  -1  18   12.04    0.46
  -3   1 -18   12.63    0.46
   2  -2  17    8.68    0.38
  -2   2 -17    9.89    0.38
   1  -3  16    5.38    0.29
  -1   3 -16    5.32    0.27
   0  -4  15    0.02    0.07
   0   4 -15    0.12    0.07
  -1  -5  14    2.96    0.22
   1   5 -14    3.15    0.21
  -2  -6  13    2.95    0.23
  -2  -6  13    2.82    0.21
   2   6 -13    2.72    0.21
   3   0  18   11.00    0.37
   3   0  18   10.98    0.43
  -3   0 -18   10.96    0.41
   2  -1  17   -0.02    0.06
  -2   1 -17    0.09    0.06
   1  -2  16    5.96    0.29
  -1   2 -16    5.71    0.27
   0  -3  15    0.20    0.07
   0   3 -15    0.37    0.09
  -1  -4  14    4.09    0.24
  -1  -4  14    4.79    0.23
   1   4 -14    5.14    0.25
  -2  -5  13   27.29    0.67
  -2  -5  13   27.43    0.66
   2   5 -13   27.46    0.65
  -3  -6  12    0.41    0.12
  -3  -6  12    0.28    0.13
   3   6 -12    0.52    0.11
   4   2  19    4.65    0.30
  -4  -2 -19    4.74    0.28
  -4  -2 -19    4.37    0.27
   3   1  18   22.90    0.63
  -3  -1 -18   22.57    0.58
  -3  -1 -18   22.25    0.60
   2   0  17    2.20    0.22
  -2   0 -17    1.98    0.15
  -2   0 -17    2.02    0.19
   1  -1  16    0.29    0.08
  -1   1 -16    0.29    0.08
   0  -2  15   52.25    1.00
   0   2 -15   52.31    0.96
  -1  -3  14    8.39    0.29
  -1  -3  14    7.87    0.31
   1   3 -14    8.60    0.31
  -2  -4  13    3.13    0.20
  -2  -4  13    3.02    0.20
   2   4 -13    3.09    0.19
  -3  -5  12   11.89    0.43
   3   5 -12   11.90    0.40
  -4  -6  11    0.56    0.14
   4   6 -11    0.43    0.11
   4   3  19    0.26    0.11
  -4  -3 -19    0.37    0.11
   3   2  18   20.80    0.61
  -3  -2 -18   22.66    0.58
  -3  -2 -18   21.33    0.56
   2   1  17    0.31    0.10
  -2  -1 -17    0.32    0.08
  -2  -1 -17    0.18    0.07
   1   0  16    4.57    0.24
  -1   0 -16    4.51    0.19
  -1   0 -16    5.13    0.23
   0  -1  15   13.77    0.41
   0   1 -15   14.28    0.39
  -1  -2  14   13.45    0.40
  -1  -2  14   13.55    0.37
   1   2 -14   13.14    0.38
  -2  -3  13    4.81    0.23
  -2  -3  13    4.61    0.23
   2   3 -13    4.98    0.23
  -3  -4  12   11.69    0.41
   3   4 -12   11.27    0.38
  -4  -5  11    0.12    0.09
   4   5 -11    0.08    0.08
   3   3  18    1.98    0.23
  -3  -3 -18    2.42    0.22
   2   2  17    1.85    0.19
  -2  -2 -17    1.98    0.15
  -2  -2 -17    1.88    0.18
   1   1  16   31.16    0.70
  -1  -1 -16   30.71    0.62
  -1  -1 -16   31.29    0.64
   0   0  15    0.57    0.10
   0   0 -15    0.68    0.08
   0   0 -15    0.66    0.09
  -1  -1  14    0.33    0.07
   1   1 -14    0.38    0.08
  -2  -2  13    0.69    0.11
  -2  -2  13    0.66    0.10
   2   2 -13    0.58    0.10
  -3  -3  12    4.36    0.24
   3   3 -12    4.20    0.22
  -4  -4  11    0.21    0.10
   4   4 -11    0.11    0.07
   5   5 -10    0.59    0.18
   3   4  18    6.06    0.34
  -3  -4 -18    6.08    0.30
   2   3  17    4.97    0.27
  -2  -3 -17    4.94    0.24
   1   2  16    4.56    0.24
  -1  -2 -16    4.61    0.20
  -1  -2 -16    4.61    0.21
   0   1  15   62.66    1.11
   0  -1 -15   62.45    1.02
   0  -1 -15   63.65    1.02
  -1   0  14    0.61    0.09
  -1   0  14    0.88    0.11
   1   0 -14    1.04    0.12
   1   0 -14    0.81    0.09
  -2  -1  13    0.73    0.11
  -2  -1  13    0.91    0.11
   2   1 -13    0.82    0.11
  -3  -2  12    5.86    0.28
   3   2 -12    6.00    0.26
  -4  -3  11    0.21    0.09
   4   3 -11    0.32    0.09
  -5  -4  10    4.55    0.30
   5   4 -10    4.17    0.26
   3   5  18   11.66    0.48
  -3  -5 -18   11.73    0.44
   2   4  17    1.76    0.21
  -2  -4 -17    2.09    0.20
   1   3  16   13.55    0.44
  -1  -3 -16   13.19    0.39
   0   2  15   16.02    0.44
   0  -2 -15   15.61    0.40
   0  -2 -15   15.80    0.40
  -1   1  14    2.30    0.16
  -1   1  14    2.38    0.16
   1  -1 -14    2.30    0.14
   1  -1 -14    2.23    0.13
  -2   0  13    8.95    0.32
   2   0 -13    8.83    0.26
   2   0 -13    8.17    0.27
  -3  -1  12    1.59    0.18
   3   1 -12    1.84    0.17
  -4  -2  11    8.81    0.37
   4   2 -11    9.47    0.34
  -5  -3  10    0.18    0.10
   5   3 -10    0.17    0.08
   2   5  17   27.85    0.75
  -2  -5 -17   27.29    0.68
   1   4  16    1.06    0.16
  -1  -4 -16    1.24    0.16
   0   3  15   11.48    0.39
   0  -3 -15   11.86    0.36
  -1   2  14   15.93    0.44
  -1   2  14   15.82    0.42
   1  -2 -14   16.36    0.41
  -2   1  13    5.50    0.26
   2  -1 -13    5.36    0.21
   2  -1 -13    5.24    0.21
  -3   0  12  124.17    1.97
   3   0 -12  123.59    1.85
   3   0 -12  126.16    1.82
  -4  -1  11   -0.01    0.07
   4   1 -11   -0.06    0.05
  -5  -2  10    1.60    0.21
   5   2 -10    2.45    0.23
   2   6  17    0.07    0.09
  -2  -6 -17    0.04    0.07
   1   5  16    3.64    0.25
  -1  -5 -16    3.92    0.23
   0   4  15    1.52    0.17
   0  -4 -15    1.91    0.18
  -1   3  14   20.03    0.52
  -1   3  14   19.69    0.51
   1  -3 -14   19.78    0.49
  -2   2  13    0.33    0.09
   2  -2 -13    0.23    0.07
  -3   1  12    0.56    0.12
   3  -1 -12    0.52    0.09
   3  -1 -12    0.41    0.08
  -4   0  11   12.05    0.44
   4   0 -11   11.89    0.36
   4   0 -11   11.44    0.37
  -5  -1  10    0.32    0.12
   5   1 -10    0.42    0.11
   1   6  16   27.10    0.74
  -1  -6 -16   25.50    0.66
   0   5  15    0.05    0.08
   0   5  15    0.11    0.13
   0  -5 -15    0.07    0.06
  -1   4  14   17.50    0.67
  -1   4  14   15.84    0.49
   1  -4 -14   16.13    0.45
  -2   3  13    0.63    0.13
   2  -3 -13    0.71    0.11
  -3   2  12    1.91    0.21
   3  -2 -12    1.90    0.17
  -4   1  11    0.26    0.11
   4  -1 -11    0.24    0.07
  -5   0  10    5.19    0.32
   5   0 -10    5.68    0.28
   5   0 -10    5.67    0.26
   0   6  15    1.79    0.21
   0   6  15    1.96    0.32
   0  -6 -15    1.77    0.20
  -1   5  14    2.91    0.23
   1  -5 -14    2.95    0.20
  -2   4  13    1.87    0.22
   2  -4 -13    1.55    0.17
  -3   3  12    0.00    0.07
   3  -3 -12    0.07    0.06
  -4   2  11    2.17    0.25
   4  -2 -11    2.22    0.20
  -1   6  14    5.94    0.33
   1  -6 -14    5.18    0.28
  -2   5  13    1.40    0.20
   2  -5 -13    1.41    0.17
  -3   4  12    4.92    0.32
   3  -4 -12    4.87    0.27
  -4   3  11    7.14    0.40
   4  -3 -11    7.10    0.32
   2  -3  18   12.04    0.48
  -2   3 -18   11.79    0.45
   1  -4  17    2.15    0.24
  -1   4 -17    2.38    0.24
   0  -5  16   16.92    0.56
   0   5 -16   17.35    0.53
  -1  -6  15    2.07    0.24
   1   6 -15    1.74    0.20
   3  -1  19    9.24    0.41
  -3   1 -19    9.31    0.40
   2  -2  18    2.05    0.23
  -2   2 -18    2.21    0.23
   1  -3  17    0.74    0.14
  -1   3 -17    0.76    0.14
   0  -4  16    0.27    0.10
   0   4 -16    0.23    0.09
  -1  -5  15   10.69    0.41
   1   5 -15   10.46    0.39
  -2  -6  14    8.35    0.37
  -2  -6  14    8.16    0.36
   2   6 -14    8.20    0.35
   3   0  19    0.08    0.09
  -3   0 -19    0.04    0.07
   2  -1  18   15.60    0.51
  -2   1 -18   14.70    0.47
   1  -2  17    4.79    0.27
  -1   2 -17    4.94    0.25
   0  -3  16   11.58    0.41
   0   3 -16   11.28    0.38
  -1  -4  15    7.33    0.33
   1   4 -15    7.75    0.32
  -2  -5  14    1.68    0.19
  -2  -5  14    1.72    0.19
   2   5 -14    1.26    0.16
  -3  -6  13   -0.09    0.06
   3   6 -13    0.05    0.07
   3   1  19    5.39    0.31
  -3  -1 -19    4.91    0.26
  -3  -1 -19    4.50    0.27
   2   0  18   12.58    0.45
  -2   0 -18   13.02    0.42
   1  -1  17    6.27    0.30
  -1   1 -17    5.87    0.27
   0  -2  16   17.16    0.50
   0   2 -16   17.23    0.47
  -1  -3  15    2.91    0.20
  -1  -3  15    2.77    0.17
   1   3 -15    2.76    0.19
  -2  -4  14    0.80    0.12
  -2  -4  14    0.78    0.13
   2   4 -14    0.83    0.13
  -3  -5  13    4.39    0.27
   3   5 -13    4.47    0.26
   3   2  19    0.35    0.12
  -3  -2 -19    0.31    0.10
  -3  -2 -19    0.18    0.09
   2   1  18    2.60    0.22
  -2  -1 -18    2.41    0.18
  -2  -1 -18    2.93    0.18
   1   0  17    3.33    0.22
  -1   0 -17    3.71    0.20
  -1   0 -17    3.75    0.22
   0  -1  16   39.87    0.82
   0   1 -16   39.76    0.78
  -1  -2  15    5.55    0.23
  -1  -2  15    5.26    0.25
   1   2 -15    5.47    0.24
  -2  -3  14    4.35    0.23
  -2  -3  14    4.06    0.22
   2   3 -14    4.17    0.22
  -3  -4  13    0.29    0.09
   3   4 -13    0.02    0.06
  -4  -5  12    0.47    0.13
   4   5 -12    0.50    0.11
   3   3  19    0.14    0.09
  -3  -3 -19    0.19    0.09
   2   2  18   25.70    0.67
  -2  -2 -18   24.96    0.60
  -2  -2 -18   24.81    0.58
   1   1  17    6.59    0.30
  -1  -1 -17    5.85    0.24
  -1  -1 -17    5.95    0.24
   0   0  16    2.20    0.17
   0   0 -16    2.29    0.15
   0   0 -16    2.68    0.14
  -1  -1  15   19.58    0.47
  -1  -1  15   18.93    0.49
   1   1 -15   19.98    0.48
  -2  -2  14   19.70    0.48
  -2  -2  14   19.79    0.51
   2   2 -14   19.21    0.49
  -3  -3  13   -0.01    0.06
   3   3 -13    0.01    0.05
  -4  -4  12    7.10    0.35
   4   4 -12    6.36    0.30
   3   4  19    3.90    0.28
  -3  -4 -19    3.91    0.26
   2   3  18   11.18    0.42
  -2  -3 -18   10.70    0.37
   1   2  17    5.84    0.28
  -1  -2 -17    6.38    0.26
  -1  -2 -17    5.69    0.23
  -1   0  15    9.26    0.32
  -1   0  15    9.83    0.31
   1   0 -15    9.81    0.28
   1   0 -15    9.27    0.30
  -2  -1  14   10.95    0.36
   2   1 -14   10.40    0.33
  -3  -2  13    0.02    0.06
   3   2 -13   -0.01    0.04
  -4  -3  12    1.96    0.22
   4   3 -12    1.78    0.19
  -5  -4  11   -0.15    0.08
   5   4 -11   -0.03    0.07
   3   5  19    0.10    0.12
  -3  -5 -19    0.22    0.10
   2   4  18    0.07    0.09
  -2  -4 -18   -0.03    0.06
   1   3  17   20.91    0.57
  -1  -3 -17   19.53    0.51
   0   2  16   34.02    0.74
   0  -2 -16   35.54    0.70
  -1   1  15   11.38    0.36
  -1   1  15   11.47    0.35
   1  -1 -15   11.92    0.33
   1  -1 -15   11.86    0.33
  -2   0  14   -0.02    0.05
   2   0 -14    0.06    0.05
   2   0 -14    0.06    0.04
  -3  -1  13   22.75    0.60
   3   1 -13   22.10    0.53
  -4  -2  12   14.04    0.49
   4   2 -12   13.00    0.42
  -5  -3  11    9.12    0.42
   5   3 -11    9.41    0.38
   2   5  18    5.84    0.33
  -2  -5 -18    6.18    0.31
   1   4  17    3.54    0.24
  -1  -4 -17    3.33    0.21
   0   3  16   12.40    0.41
   0  -3 -16   12.72    0.38
  -1   2  15    0.05    0.06
  -1   2  15    0.04    0.05
   1  -2 -15    0.02    0.04
  -2   1  14   45.82    0.92
   2  -1 -14   47.51    0.84
   2  -1 -14   48.39    0.85
  -3   0  13   16.63    0.51
   3   0 -13   17.39    0.45
   3   0 -13   17.59    0.44
  -4  -1  12   10.43    0.43
   4   1 -12   11.00    0.37
  -5  -2  11    6.85    0.37
   5   2 -11    7.15    0.32
   2   6  18    0.23    0.12
  -2  -6 -18    0.29    0.10
   1   5  17    0.47    0.12
  -1  -5 -17    0.66    0.12
   0   4  16   22.31    0.60
   0  -4 -16   22.09    0.56
  -1   3  15   12.13    0.39
  -1   3  15   12.49    0.41
   1  -3 -15   11.95    0.37
  -2   2  14   21.67    0.57
   2  -2 -14   20.41    0.49
  -3   1  13    8.64    0.37
   3  -1 -13    8.85    0.30
   3  -1 -13    8.64    0.34
  -4   0  12    1.37    0.19
   4   0 -12    1.53    0.16
  -5  -1  11    0.14    0.10
   5   1 -11    0.12    0.08
   1   6  17   -0.06    0.08
  -1  -6 -17    0.03    0.06
   0   5  16   12.36    0.45
   0  -5 -16   11.07    0.40
  -1   4  15    5.89    0.30
   1  -4 -15    6.72    0.29
  -2   3  14    0.92    0.15
   2  -3 -14    0.98    0.13
  -3   2  13    0.57    0.13
   3  -2 -13    0.80    0.12
  -4   1  12    2.46    0.25
   4  -1 -12    3.05    0.19
  -5   0  11    3.86    0.47
   5   0 -11    3.69    0.23
   0   6  16    0.15    0.10
   0  -6 -16    0.23    0.09
  -1   5  15    1.76    0.21
   1  -5 -15    1.35    0.17
  -2   4  14    3.90    0.27
   2  -4 -14    3.67    0.22
  -3   3  13    4.95    0.31
   3  -3 -13    4.83    0.25
  -4   2  12    2.43    0.27
   4  -2 -12    2.48    0.22
  -1   6  15    0.59    0.14
   1  -6 -15    0.65    0.14
  -2   5  14    4.78    0.32
   2  -5 -14    3.85    0.25
  -3   4  13   25.65    0.75
   3  -4 -13   25.13    0.65
   1  -4  18   20.95    0.64
  -1   4 -18   20.68    0.61
   0  -5  17    4.98    0.32
   0   5 -17    5.07    0.30
   2  -2  19    7.04    0.36
  -2   2 -19    7.17    0.35
   1  -3  18    1.99    0.22
  -1   3 -18    1.94    0.21
   0  -4  17   11.25    0.44
   0   4 -17   11.03    0.41
  -1  -5  16    0.13    0.09
   1   5 -16    0.22    0.10
  -2  -6  15    0.54    0.13
  -2  -6  15    0.34    0.11
   2   6 -15    0.35    0.11
   3   0  20    7.03    0.37
  -3   0 -20    7.68    0.36
   2  -1  19    7.60    0.36
  -2   1 -19    7.61    0.34
   1  -2  18    0.13    0.08
  -1   2 -18    0.06    0.07
   0  -3  17    0.26    0.09
   0   3 -17    0.33    0.09
  -1  -4  16   22.07    0.61
   1   4 -16   22.04    0.59
  -2  -5  15    0.60    0.13
  -2  -5  15    1.05    0.16
   2   5 -15    0.96    0.15
  -3  -6  14    0.07    0.08
   3   6 -14   -0.03    0.07
   3   1  20    6.57    0.36
  -3  -1 -20    7.25    0.33
  -3  -1 -20    7.62    0.35
   2   0  19   13.21    0.47
  -2   0 -19   11.57    0.41
   1  -1  18    1.49    0.19
  -1   1 -18    1.26    0.15
   0  -2  17    3.05    0.21
   0   2 -17    2.89    0.20
  -1  -3  16    1.02    0.15
   1   3 -16    0.87    0.13
  -2  -4  15    6.94    0.31
  -2  -4  15    7.12    0.31
   2   4 -15    6.49    0.30
  -3  -5  14    5.21    0.30
   3   5 -14    5.07    0.28
   3   2  20    2.88    0.27
  -3  -2 -20    3.09    0.23
  -3  -2 -20    2.84    0.22
   2   1  19    0.56    0.13
  -2  -1 -19    0.61    0.11
  -2  -1 -19    0.78    0.12
   1   0  18    7.25    0.33
  -1   0 -18    7.11    0.29
   0  -1  17   12.64    0.42
   0   1 -17   11.96    0.38
  -1  -2  16    3.97    0.23
   1   2 -16    4.30    0.23
  -2  -3  15    0.02    0.06
  -2  -3  15    0.01    0.05
   2   3 -15    0.01    0.05
  -3  -4  14   10.23    0.40
   3   4 -14   10.08    0.38
  -4  -5  13    5.32    0.33
   4   5 -13    5.72    0.30
   3   3  20   11.39    0.47
  -3  -3 -20   11.88    0.43
   2   2  19    6.87    0.34
  -2  -2 -19    6.96    0.33
  -2  -2 -19    6.90    0.30
   1   1  18    0.36    0.10
  -1  -1 -18    0.30    0.08
  -1  -1 -18    0.33    0.08
   0   0  17    1.48    0.17
   0   0 -17    1.39    0.15
  -1  -1  16   25.25    0.60
   1   1 -16   24.40    0.57
  -2  -2  15    6.81    0.29
  -2  -2  15    7.10    0.28
   2   2 -15    7.24    0.29
  -3  -3  14    1.91    0.20
   3   3 -14    1.97    0.19
  -4  -4  13    0.08    0.09
   4   4 -13    0.02    0.07
   3   4  20   14.01    0.59
  -3  -4 -20   12.93    0.48
   2   3  19    2.73    0.23
  -2  -3 -19    2.86    0.20
   1   2  18    1.75    0.19
  -1  -2 -18    1.61    0.16
   0   1  17    6.35    0.29
   0  -1 -17    6.13    0.24
   0  -1 -17    6.66    0.25
  -1   0  16   24.53    0.58
  -1   0  16   24.44    0.56
   1   0 -16   23.76    0.54
  -2  -1  15    2.91    0.20
   2   1 -15    3.56    0.20
  -3  -2  14    1.13    0.16
   3   2 -14    1.42    0.15
  -4  -3  13    0.52    0.13
   4   3 -13    0.47    0.11
   2   4  19    0.05    0.08
  -2  -4 -19    0.06    0.08
   1   3  18    7.83    0.34
  -1  -3 -18    7.55    0.30
   0   2  17    6.32    0.29
   0  -2 -17    6.14    0.25
  -1   1  16   34.37    0.72
  -1   1  16   33.61    0.70
   1  -1 -16   33.57    0.66
   1  -1 -16   34.08    0.67
  -2   0  15    5.55    0.27
   2   0 -15    5.67    0.24
  -3  -1  14    0.45    0.11
   3   1 -14    0.60    0.11
  -4  -2  13   33.20    0.83
   4   2 -13   34.40    0.76
   2   5  19    6.07    0.35
  -2  -5 -19    6.32    0.33
   1   4  18    1.39    0.19
  -1  -4 -18    1.48    0.17
   0   3  17    0.66    0.13
   0  -3 -17    0.69    0.11
  -1   2  16    4.43    0.23
  -1   2  16    4.35    0.23
   1  -2 -16    4.47    0.21
  -2   1  15    1.40    0.16
   2  -1 -15    1.39    0.14
   2  -1 -15    1.49    0.14
  -3   0  14    9.27    0.38
   3   0 -14   10.19    0.34
  -4  -1  13    3.44    0.26
   4   1 -13    3.93    0.23
   5   2 -12    0.13    0.08
   1   5  18   15.59    0.54
  -1  -5 -18   15.39    0.50
   0   4  17    0.50    0.12
   0  -4 -17    0.50    0.10
  -1   3  16    2.84    0.28
  -1   3  16    2.90    0.21
   1  -3 -16    2.90    0.19
  -2   2  15    0.05    0.07
   2  -2 -15    0.04    0.06
  -3   1  14   10.37    0.41
   3  -1 -14   10.45    0.34
  -4   0  13    0.55    0.14
   4   0 -13    0.54    0.11
   1   6  18   10.09    0.45
  -1  -6 -18    9.08    0.47
   0   5  17    4.51    0.29
   0  -5 -17    4.25    0.25
  -1   4  16    0.19    0.09
   1  -4 -16    0.05    0.06
  -2   3  15   10.90    0.42
   2  -3 -15   10.42    0.36
  -3   2  14    2.63    0.26
   3  -2 -14    2.41    0.18
  -4   1  13    1.16    0.19
   4  -1 -13    1.37    0.16
   0   6  17    8.32    0.40
   0  -6 -17    8.29    0.48
  -1   5  16    8.62    0.39
   1  -5 -16    8.68    0.36
  -2   4  15    2.47    0.25
   2  -4 -15    2.95    0.21
  -3   3  14    0.03    0.09
   3  -3 -14    0.03    0.06
  -4   2  13   18.52    0.64
   4  -2 -13   18.33    0.52
  -2   5  15   17.74    0.61
   2  -2  20   12.45    0.55
  -2   2 -20   13.65    0.54
   1  -3  19    9.43    0.42
  -1   3 -19    9.59    0.40
   0  -4  18    6.20    0.34
   0   4 -18    6.53    0.33
  -1  -5  17    3.11    0.25
   1   5 -17    2.76    0.25
   2  -1  20    3.06    0.26
  -2   1 -20    2.89    0.23
   1  -2  19   37.17    0.88
  -1   2 -19   36.07    0.83
   0  -3  18   -0.03    0.07
   0   3 -18    0.04    0.06
  -1  -4  17    0.09    0.08
   1   4 -17    0.07    0.07
  -2  -5  16    0.02    0.08
  -2  -5  16    0.00    0.07
   2   5 -16    0.11    0.09
   2   0  20   17.33    0.57
  -2   0 -20   17.78    0.53
   1  -1  19    3.46    0.24
  -1   1 -19    4.16    0.25
   0  -2  18   17.69    0.54
   0   2 -18   18.40    0.51
  -1  -3  17   18.84    0.55
   1   3 -17   18.61    0.53
  -2  -4  16   10.63    0.39
  -2  -4  16   11.53    0.41
   2   4 -16   10.29    0.39
  -3  -5  15    0.60    0.13
   3   5 -15    0.47    0.12
  -3  -2 -21    5.90    0.31
   2   1  20    1.85    0.21
  -2  -1 -20    1.53    0.17
  -2  -1 -20    1.71    0.18
   1   0  19   55.30    1.12
  -1   0 -19   56.05    1.05
   0  -1  18    1.52    0.17
   0   1 -18    1.02    0.13
  -1  -2  17    0.08    0.07
   1   2 -17    0.43    0.10
  -2  -3  16   25.17    0.62
  -2  -3  16   25.36    0.62
   2   3 -16   24.25    0.62
  -3  -4  15    6.59    0.32
   3   4 -15    6.20    0.30
   2   2  20    0.13    0.09
  -2  -2 -20    0.22    0.09
   1   1  19   -0.05    0.06
  -1  -1 -19    0.05    0.06
  -1  -1 -19   -0.01    0.05
   0   0  18   10.09    0.39
   0   0 -18   10.80    0.35
  -1  -1  17   12.80    0.42
   1   1 -17   13.68    0.41
  -2  -2  16    6.09    0.28
   2   2 -16    6.10    0.27
  -3  -3  15   10.08    0.40
   3   3 -15   10.67    0.38
  -4  -4  14    0.67    0.15
   4   4 -14    0.90    0.15
   2   3  20    3.30    0.25
  -2  -3 -20    2.65    0.20
   1   2  19    4.44    0.27
  -1  -2 -19    4.61    0.23
   0   1  18   15.92    0.49
   0  -1 -18   17.01    0.43
   0  -1 -18   16.31    0.43
  -1   0  17    5.11    0.25
   1   0 -17    5.08    0.23
  -2  -1  16   26.89    0.64
   2   1 -16   26.49    0.61
  -3  -2  15    3.32    0.23
   3   2 -15    3.72    0.22
  -4  -3  14    8.82    0.40
   4   3 -14    8.13    0.35
   2   4  20    0.05    0.09
  -2  -4 -20    0.00    0.07
   1   3  19   13.69    0.48
  -1  -3 -19   14.19    0.44
   0   2  18    0.00    0.07
   0  -2 -18    0.03    0.05
  -1   1  17    3.60    0.21
   1  -1 -17    3.36    0.18
   1  -1 -17    3.31    0.18
  -2   0  16    0.30    0.09
   2   0 -16    0.27    0.07
  -3  -1  15   22.10    0.61
   3   1 -15   21.43    0.55
  -4  -2  14    9.42    0.42
   4   2 -14   10.09    0.38
   1   4  19    6.24    0.34
  -1  -4 -19    6.74    0.32
   0   3  18   14.94    0.48
   0  -3 -18   15.47    0.45
  -1   2  17    4.08    0.23
   1  -2 -17    4.29    0.22
  -2   1  16    4.12    0.24
   2  -1 -16    4.12    0.20
  -3   0  15   14.21    0.48
   3   0 -15   12.46    0.39
  -4  -1  14    0.03    0.10
   4   1 -14   -0.03    0.07
   1   5  19    0.05    0.10
  -1  -5 -19    0.18    0.09
   0   4  18    5.48    0.31
   0  -4 -18    5.01    0.27
   1  -3 -17    0.10    0.06
  -2   2  16   11.36    0.42
   2  -2 -16   11.24    0.36
  -3   1  15    0.14    0.09
   3  -1 -15    0.25    0.08
  -4   0  14    2.60    0.26
   4   0 -14    2.67    0.20
   0   5  18    0.37    0.12
   0  -5 -18    0.26    0.09
   1  -4 -17    0.03    0.06
  -2   3  16    0.55    0.13
   2  -3 -16    0.51    0.11
  -3   2  15    0.74    0.15
   3  -2 -15    1.10    0.14
  -4   1  14    1.95    0.23
   4  -1 -14    2.14    0.22
   1  -5 -17    0.02    0.07
  -2   4  16    1.46    0.20
   2  -4 -16    1.01    0.15
  -3   3  15    6.60    0.37
   3  -3 -15    6.87    0.31
   0  -4  19    8.91    0.42
   0   4 -19    8.75    0.47
   2  -1  21   17.73    0.89
  -2   1 -21   17.95    0.58
   1  -2  20    2.31    0.25
  -1   2 -20    2.07    0.22
   0  -3  19    4.95    0.30
   0   3 -19    4.92    0.28
  -1  -4  18   15.24    0.52
   1   4 -18   14.19    0.49
  -2  -5  17    1.03    0.17
   2   0  21   -0.03    0.08
  -2   0 -21    0.10    0.08
   1  -1  20    0.05    0.08
  -1   1 -20    0.15    0.08
   0  -2  19   31.51    0.78
   0   2 -19   30.01    0.72
  -1  -3  18   18.45    0.56
   1   3 -18   19.14    0.55
  -2  -4  17    0.15    0.10
  -2  -4  17   -0.06    0.07
   2   4 -17   -0.01    0.06
   2   1  21   17.21    0.58
  -2  -1 -21   17.61    0.53
   0  -1  19    1.30    0.17
   0   1 -19    1.14    0.15
  -1  -2  18    7.17    0.32
   1   2 -18    6.27    0.29
  -2  -3  17    0.30    0.10
  -2  -3  17    0.17    0.09
   2   3 -17    0.19    0.09
  -3  -4  16   11.90    0.45
   3   4 -16   10.80    0.41
   2   2  21   28.36    0.77
  -2  -2 -21   27.05    0.67
   1   1  20    5.12    0.29
  -1  -1 -20    5.43    0.26
   0   0  19    7.05    0.33
   0   0 -19    6.69    0.28
  -1  -1  18    0.44    0.10
   1   1 -18    0.65    0.12
  -2  -2  17   12.77    0.42
   2   2 -17   12.52    0.42
  -3  -3  16    2.41    0.24
   3   3 -16    2.09    0.21
   2   3  21   11.44    0.48
  -2  -3 -21   11.47    0.42
   1   2  20    3.43    0.25
  -1  -2 -20    2.94    0.20
  -1   0  18   10.82    0.39
   1   0 -18   10.90    0.36
  -2  -1  17    3.59    0.23
   2   1 -17    3.95    0.22
  -3  -2  16    0.29    0.11
   3   2 -16    0.30    0.09
  -4  -3  15    4.75    0.31
   4   3 -15    4.63    0.27
  -2  -4 -21   15.27    0.51
   1   3  20    2.31    0.24
  -1  -3 -20    2.31    0.21
   0   2  19    1.49    0.19
   0  -2 -19    1.73    0.17
  -1   1  18   20.27    0.54
  -2   0  17   13.02    0.44
   2   0 -17   14.03    0.41
  -3  -1  16    1.28    0.18
   3   1 -16    1.21    0.16
  -4  -2  15    9.14    0.42
   4   2 -15    8.58    0.36
   1   4  20    9.25    0.42
  -1  -4 -20    9.21    0.38
   0   3  19    0.12    0.08
   0  -3 -19    0.26    0.08
   1  -2 -18    2.77    0.18
  -2   1  17    3.24    0.22
  -3   0  16    0.80    0.16
   3   0 -16    1.10    0.15
  -4  -1  15   19.98    0.63
   4   1 -15   20.78    0.56
   0   4  19    7.84    0.37
   0  -4 -19    7.40    0.33
   1  -3 -18   13.97    0.44
  -2   2  17    0.17    0.09
   2  -2 -17    0.17    0.08
  -3   1  16    5.65    0.31
  -4   0  15   -0.08    0.08
   0   5  19    0.50    0.15
   0  -5 -19    0.47    0.13
   1  -4 -18   12.85    0.44
  -2   3  17    7.61    0.37
   2  -3 -17    8.62    0.34
  -3   2  16   10.07    0.44
   3  -2 -16   10.99    0.38
  -2   4  17    0.38    0.13
   2  -4 -17    0.40    0.11
  -1   2 -21    2.74    0.28
   0  -3  20    1.29    0.19
   0   3 -20    1.39    0.18
  -1  -4  19    5.34    0.32
   1   4 -19    4.38    0.48
   1  -1  21   10.21    0.44
  -1   1 -21   10.09    0.40
   0  -2  20   16.99    0.56
   0   2 -20   16.23    0.52
  -1  -3  19   -0.08    0.07
   1   3 -19    0.06    0.07
  -2  -4  18    0.02    0.07
   2   4 -18   -0.06    0.06
   1   0  21    4.83    0.30
  -1   0 -21    4.55    0.26
   0  -1  20    1.78    0.21
   0   1 -20    1.56    0.19
  -1  -2  19    0.10    0.07
   1   2 -19    0.08    0.07
   2   3 -18    4.50    0.27
   1   1  21    5.67    0.32
  -1  -1 -21    5.56    0.28
   0   0  20    0.27    0.10
   0   0 -20    0.18    0.08
  -1  -1  19    1.92    0.21
   1   1 -19    1.73    0.19
   2   2 -18    2.76    0.21
  -3  -3  17    6.91    0.35
   3   3 -17    6.73    0.32
   1   2  21   11.04    0.45
  -1  -2 -21   10.58    0.38
   0   1  20    8.54    0.37
  -1   0  19    7.99    0.34
   1   0 -19    7.26    0.30
  -2  -1  18    8.25    0.47
   2   1 -18    8.47    0.34
  -3  -2  17   13.93    0.49
   3   2 -17   14.72    0.47
   1   3  21    1.19    0.19
  -1  -3 -21    1.46    0.18
   0   2  20   22.63    0.64
   0  -2 -20   22.60    0.57
  -1   1  19    5.27    0.28
  -2   0  18   10.50    0.40
   2   0 -18   11.12    0.38
  -3  -1  17    0.37    0.12
   3   1 -17    0.31    0.09
   1   4  21    3.86    0.29
  -1  -4 -21    3.72    0.25
   0   3  20    0.01    0.07
   0  -3 -20    0.04    0.06
   1  -2 -19   20.13    0.52
  -2   1  18    8.92    0.38
  -3   0  17   26.63    0.72
   3   0 -17   26.66    0.65
   0   4  20   17.25    0.57
   0  -4 -20   17.16    0.53
   1  -3 -19    0.15    0.07
  -2   2  18    4.10    0.27
   2  -2 -18    4.15    0.23
  -3   1  17    3.86    0.27
   1  -4 -19   26.96    0.68
  -2   3  18    0.80    0.16
   2  -3 -18    1.16    0.16
  -3   2  17    6.12    0.35
   3  -2 -17    5.92    0.29
   0  -2  21    1.43    0.20
   0   2 -21    1.13    0.17
  -1  -3  20    0.57    0.15
   1   3 -20    0.63    0.13
   1   0  22   12.29    0.49
  -1   0 -22   11.06    0.42
   0  -1  21    4.25    0.29
   0   1 -21    4.27    0.26
  -1  -2  20   12.18    0.46
   1   2 -20   11.64    0.43
   2   3 -19    0.75    0.14
   1   1  22    0.29    0.12
   0   0  21    1.29    0.18
   0   0 -21    1.73    0.19
  -1  -1  20    1.19    0.17
   1   1 -20    1.07    0.15
   2   2 -19    0.79    0.14
   1   2  22   16.08    0.57
   0   1  21    0.38    0.11
  -1   0  20    0.28    0.10
   1   0 -20    0.15    0.08
   2   1 -19   20.89    0.58
  -3  -2  18    0.77    0.15
   3   2 -18    0.79    0.14
   0   2  21    0.47    0.13
   2   0 -19    1.23    0.16
  -3  -1  18    0.36    0.12
   3   1 -18    0.51    0.11
   0   3  21    0.40    0.13
   0  -3 -21    0.18    0.10
  -3   0  18    3.67    0.27
   1  -3 -20    0.49    0.11
   0   0  22   29.89    0.79
   0   0 -22   28.76    0.72
  -1  -1  21    6.11    0.33
   1   1 -21    5.47    0.30
   0   1  22    0.11    0.11
  -1   0  21   20.18    0.71
   1   0 -21   18.72    0.54
   2   1 -20    0.18    0.09
   0   0   0    0.00    0.00
;
_shelx_hkl_checksum              45288
_olex2_submission_special_instructions 'No special instructions were received'
loop_
_space_group_symop_operation_xyz
'x, y, z'
'-x, -y, -z'
loop_
_atom_site_label
_atom_site_type_symbol
_atom_site_fract_x
_atom_site_fract_y
_atom_site_fract_z
_atom_site_U_iso_or_equiv
_atom_site_adp_type
_atom_site_occupancy
_atom_site_site_symmetry_order
_atom_site_calc_flag
_atom_site_refinement_flags_posn
S1 S 1.73124(8) -0.36196(5) 0.59085(2) 0.02162(10) Uani 1 1 d .
S1B S 0.59756(7) 0.30387(6) 0.81444(2) 0.02208(10) Uani 1 1 d .
F1B F 0.08835(16) 0.58817(12) 0.84578(4) 0.02155(19) Uani 1 1 d .
F2B F -0.39149(16) 0.77434(12) 0.91886(5) 0.02227(19) Uani 1 1 d .
F2 F 1.09449(17) -0.15550(12) 0.35897(5) 0.02170(18) Uani 1 1 d .
F1 F 1.48231(17) -0.28513(12) 0.45497(5) 0.02133(18) Uani 1 1 d .
N1B N 0.7491(2) 0.16740(18) 0.95032(7) 0.0194(2) Uani 1 1 d .
N1 N 1.4220(3) -0.08305(19) 0.67602(7) 0.0220(3) Uani 1 1 d .
C5B C 0.0508(3) 0.5404(2) 0.92275(7) 0.0160(3) Uani 1 1 d .
C4B C 0.2667(3) 0.39524(19) 0.95838(7) 0.0149(2) Uani 1 1 d .
C1B C 0.5358(3) 0.28708(19) 0.91559(7) 0.0147(2) Uani 1 1 d .
C4 C 1.2166(3) -0.07580(19) 0.55371(7) 0.0163(3) Uani 1 1 d .
C6B C -0.2049(3) 0.64067(19) 0.96178(8) 0.0158(3) Uani 1 1 d .
C6 C 1.0376(3) -0.0739(2) 0.42787(7) 0.0169(3) Uani 1 1 d .
C1 C 1.4349(3) -0.15660(19) 0.60864(7) 0.0164(3) Uani 1 1 d .
C5 C 1.2433(3) -0.14407(19) 0.47948(8) 0.0167(3) Uani 1 1 d .
C3B C 0.9288(3) 0.1396(2) 0.82090(8) 0.0192(3) Uani 1 1 d .
H3B H 1.0635 0.0938 0.7777 0.023 Uiso 1 1 calc R
C2B C 0.9712(3) 0.0840(2) 0.89685(8) 0.0200(3) Uani 1 1 d .
H2B H 1.1443 -0.0071 0.9120 0.024 Uiso 1 1 calc R
C3 C 1.8376(3) -0.3440(2) 0.67913(8) 0.0229(3) Uani 1 1 d .
H3 H 2.0045 -0.4302 0.6997 0.027 Uiso 1 1 calc R
C2 C 1.6496(3) -0.1892(2) 0.71563(8) 0.0237(3) Uani 1 1 d .
H2 H 1.6740 -0.1562 0.7656 0.028 Uiso 1 1 calc R
loop_
_atom_site_aniso_label
_atom_site_aniso_U_11
_atom_site_aniso_U_22
_atom_site_aniso_U_33
_atom_site_aniso_U_23
_atom_site_aniso_U_13
_atom_site_aniso_U_12
S1 0.02478(18) 0.01891(17) 0.02057(18) -0.00180(13) -0.00755(13) -0.00411(14)
S1B 0.01448(16) 0.0324(2) 0.01171(16) -0.00046(13) 0.00019(12) 0.00214(14)
F1B 0.0177(4) 0.0281(4) 0.0106(4) 0.0026(3) 0.0003(3) 0.0022(3)
F2B 0.0150(4) 0.0276(4) 0.0144(4) 0.0035(3) -0.0015(3) 0.0053(3)
F2 0.0259(4) 0.0246(4) 0.0134(4) -0.0057(3) -0.0042(3) -0.0044(3)
F1 0.0206(4) 0.0230(4) 0.0178(4) -0.0052(3) -0.0022(3) -0.0023(3)
N1B 0.0144(5) 0.0232(6) 0.0153(6) -0.0021(4) -0.0003(4) 0.0010(4)
N1 0.0223(6) 0.0298(6) 0.0144(6) -0.0021(5) -0.0032(4) -0.0082(5)
C5B 0.0156(6) 0.0211(6) 0.0099(6) -0.0005(5) -0.0011(5) -0.0039(5)
C4B 0.0124(6) 0.0174(6) 0.0140(6) -0.0026(5) -0.0010(5) -0.0030(5)
C1B 0.0135(6) 0.0173(6) 0.0125(6) -0.0014(5) -0.0008(5) -0.0040(5)
C4 0.0193(6) 0.0185(6) 0.0135(6) 0.0014(5) -0.0025(5) -0.0096(5)
C6B 0.0129(6) 0.0167(6) 0.0148(6) 0.0002(5) -0.0041(5) -0.0001(5)
C6 0.0223(6) 0.0196(6) 0.0111(6) -0.0020(5) -0.0008(5) -0.0096(5)
C1 0.0187(6) 0.0183(6) 0.0137(6) 0.0008(5) -0.0013(5) -0.0083(5)
C5 0.0176(6) 0.0174(6) 0.0157(6) -0.0013(5) -0.0004(5) -0.0066(5)
C3B 0.0132(6) 0.0238(7) 0.0172(6) -0.0047(5) 0.0014(5) -0.0013(5)
C2B 0.0131(6) 0.0231(7) 0.0187(7) -0.0030(5) 0.0000(5) 0.0008(5)
C3 0.0249(7) 0.0255(7) 0.0199(7) 0.0042(5) -0.0087(6) -0.0093(6)
C2 0.0244(7) 0.0323(8) 0.0154(7) 0.0004(6) -0.0054(5) -0.0098(6)
loop_
_atom_type_symbol
_atom_type_description
_atom_type_scat_dispersion_real
_atom_type_scat_dispersion_imag
_atom_type_scat_source
C C 0.0033 0.0016 'International Tables Vol C Tables 4.2.6.8 and 6.1.1.4'
H H 0.0000 0.0000 'International Tables Vol C Tables 4.2.6.8 and 6.1.1.4'
F F 0.0171 0.0103 'International Tables Vol C Tables 4.2.6.8 and 6.1.1.4'
N N 0.0061 0.0033 'International Tables Vol C Tables 4.2.6.8 and 6.1.1.4'
S S 0.1246 0.1234 'International Tables Vol C Tables 4.2.6.8 and 6.1.1.4'
loop_
_geom_angle_atom_site_label_1
_geom_angle_atom_site_label_2
_geom_angle_atom_site_label_3
_geom_angle
_geom_angle_site_symmetry_1
_geom_angle_site_symmetry_3
C3 S1 C1 89.51(7) . .
C3B S1B C1B 89.52(6) . .
C1B N1B C2B 110.77(12) . .
C1 N1 C2 110.86(12) . .
F1B C5B C4B 119.45(11) . .
F1B C5B C6B 116.85(11) . .
C6B C5B C4B 123.71(12) . .
C5B C4B C1B 122.99(12) . .
C5B C4B C6B 114.37(11) . 2_567
C6B C4B C1B 122.64(12) 2_567 .
N1B C1B S1B 113.93(10) . .
N1B C1B C4B 122.78(12) . .
C4B C1B S1B 123.29(10) . .
C6 C4 C1 122.84(12) 2_756 .
C5 C4 C6 114.23(12) . 2_756
C5 C4 C1 122.93(12) . .
F2B C6B C5B 116.35(12) . .
F2B C6B C4B 121.73(11) . 2_567
C5B C6B C4B 121.92(12) . 2_567
F2 C6 C4 121.44(12) . 2_756
F2 C6 C5 116.60(12) . .
C5 C6 C4 121.96(12) . 2_756
N1 C1 S1 113.64(10) . .
N1 C1 C4 123.31(12) . .
C4 C1 S1 123.04(10) . .
F1 C5 C4 119.28(12) . .
F1 C5 C6 116.91(12) . .
C6 C5 C4 123.81(13) . .
S1B C3B H3B 125.1 . .
C2B C3B S1B 109.90(10) . .
C2B C3B H3B 125.1 . .
N1B C2B H2B 122.1 . .
C3B C2B N1B 115.88(12) . .
C3B C2B H2B 122.1 . .
S1 C3 H3 124.9 . .
C2 C3 S1 110.12(11) . .
C2 C3 H3 124.9 . .
N1 C2 H2 122.1 . .
C3 C2 N1 115.87(13) . .
C3 C2 H2 122.1 . .
loop_
_geom_bond_atom_site_label_1
_geom_bond_atom_site_label_2
_geom_bond_distance
_geom_bond_site_symmetry_2
S1 C1 1.7402(14) .
S1 C3 1.7059(15) .
S1B C1B 1.7388(13) .
S1B C3B 1.7052(14) .
F1B C5B 1.3491(15) .
F2B C6B 1.3397(14) .
F2 C6 1.3366(15) .
F1 C5 1.3459(15) .
N1B C1B 1.3045(17) .
N1B C2B 1.3704(17) .
N1 C1 1.3108(18) .
N1 C2 1.3693(19) .
C5B C4B 1.3934(18) .
C5B C6B 1.3793(18) .
C4B C1B 1.4696(17) .
C4B C6B 1.3967(18) 2_567
C4 C6 1.3995(19) 2_756
C4 C1 1.4728(18) .
C4 C5 1.3934(18) .
C6B C4B 1.3966(18) 2_567
C6 C4 1.3995(19) 2_756
C6 C5 1.3829(19) .
C3B H3B 0.9500 .
C3B C2B 1.3569(19) .
C2B H2B 0.9500 .
C3 H3 0.9500 .
C3 C2 1.353(2) .
C2 H2 0.9500 .
loop_
_geom_torsion_atom_site_label_1
_geom_torsion_atom_site_label_2
_geom_torsion_atom_site_label_3
_geom_torsion_atom_site_label_4
_geom_torsion
_geom_torsion_site_symmetry_1
_geom_torsion_site_symmetry_4
S1 C3 C2 N1 0.03(17) . .
S1B C3B C2B N1B 0.07(17) . .
F1B C5B C4B C1B -1.1(2) . .
F1B C5B C4B C6B 179.52(12) . 2_567
F1B C5B C6B F2B 0.67(18) . .
F1B C5B C6B C4B -179.48(12) . 2_567
F2 C6 C5 F1 1.04(18) . .
F2 C6 C5 C4 -179.60(12) . .
C5B C4B C1B S1B -8.78(19) . .
C5B C4B C1B N1B 172.16(13) . .
C4B C5B C6B F2B -179.25(12) . .
C4B C5B C6B C4B 0.6(2) . 2_567
C1B S1B C3B C2B -0.08(11) . .
C1B N1B C2B C3B 0.00(19) . .
C4 C6 C5 F1 -178.51(11) 2_756 .
C4 C6 C5 C4 0.9(2) 2_756 .
C6B C5B C4B C1B 178.78(13) . .
C6B C5B C4B C6B -0.6(2) . 2_567
C6B C4B C1B S1B 170.50(11) 2_567 .
C6B C4B C1B N1B -8.6(2) 2_567 .
C6 C4 C1 S1 172.02(10) 2_756 .
C6 C4 C1 N1 -6.7(2) 2_756 .
C6 C4 C5 F1 178.56(11) 2_756 .
C6 C4 C5 C6 -0.8(2) 2_756 .
C1 S1 C3 C2 -0.04(12) . .
C1 N1 C2 C3 0.01(19) . .
C1 C4 C5 F1 -2.5(2) . .
C1 C4 C5 C6 178.16(12) . .
C5 C4 C1 S1 -6.85(19) . .
C5 C4 C1 N1 174.38(13) . .
C3B S1B C1B N1B 0.09(11) . .
C3B S1B C1B C4B -179.04(12) . .
C2B N1B C1B S1B -0.07(16) . .
C2B N1B C1B C4B 179.07(12) . .
C3 S1 C1 N1 0.05(11) . .
C3 S1 C1 C4 -178.83(12) . .
C2 N1 C1 S1 -0.04(15) . .
C2 N1 C1 C4 178.83(12) . .
